Program Version,EnergyPlus, Version 8.9.0-eba93e8e1b, YMD=2019.03.28 14:27
! <Version>, Version ID
 Version, 8.9
! <Timesteps per Hour>, #TimeSteps, Minutes per TimeStep {minutes}
 Timesteps per Hour,  6, 10
! <System Convergence Limits>, Minimum System TimeStep {minutes}, Max HVAC Iterations, Minimum Plant Iterations, Maximum Plant Iterations
 System Convergence Limits, 1, 20, 2, 8
! <Simulation Control>, Do Zone Sizing, Do System Sizing, Do Plant Sizing, Do Design Days, Do Weather Simulation, Do HVAC Sizing Simulation
 Simulation Control, Yes, Yes, Yes, Yes, No, No
! <Output Reporting Tolerances>, Tolerance for Time Heating Setpoint Not Met, Tolerance for Zone Cooling Setpoint Not Met Time
 Output Reporting Tolerances, 1.000, 1.000, 
! <Site:GroundTemperature:BuildingSurface>,Jan{C},Feb{C},Mar{C},Apr{C},May{C},Jun{C},Jul{C},Aug{C},Sep{C},Oct{C},Nov{C},Dec{C}
 Site:GroundTemperature:BuildingSurface,  19.53,  19.50,  19.54,  19.60,  20.00,  21.64,  22.23,  22.38,  21.45,  20.12,  19.80,  19.63
! <Site:GroundTemperature:FCfactorMethod>,Jan{C},Feb{C},Mar{C},Apr{C},May{C},Jun{C},Jul{C},Aug{C},Sep{C},Oct{C},Nov{C},Dec{C}
 Site:GroundTemperature:FCfactorMethod, -12.27, -13.66, -11.19,  -7.33,   2.77,  10.57,  15.83,  17.43,  14.70,   8.65,   0.56,  -6.95
! <Site:GroundTemperature:Shallow>,Jan{C},Feb{C},Mar{C},Apr{C},May{C},Jun{C},Jul{C},Aug{C},Sep{C},Oct{C},Nov{C},Dec{C}
 Site:GroundTemperature:Shallow,  13.00,  13.00,  13.00,  13.00,  13.00,  13.00,  13.00,  13.00,  13.00,  13.00,  13.00,  13.00
! <Site:GroundTemperature:Deep>,Jan{C},Feb{C},Mar{C},Apr{C},May{C},Jun{C},Jul{C},Aug{C},Sep{C},Oct{C},Nov{C},Dec{C}
 Site:GroundTemperature:Deep,  16.00,  16.00,  16.00,  16.00,  16.00,  16.00,  16.00,  16.00,  16.00,  16.00,  16.00,  16.00
! <Site:GroundReflectance>,Jan{dimensionless},Feb{dimensionless},Mar{dimensionless},Apr{dimensionless},May{dimensionless},Jun{dimensionless},Jul{dimensionless},Aug{dimensionless},Sep{dimensionless},Oct{dimensionless},Nov{dimensionless},Dec{dimensionless}
 Site:GroundReflectance,  0.20,  0.20,  0.20,  0.20,  0.20,  0.20,  0.20,  0.20,  0.20,  0.20,  0.20,  0.20
! <Site:GroundReflectance:SnowModifier>, Normal, Daylighting {dimensionless}
 Site:GroundReflectance:SnowModifier,   1.000,   1.000
! <Site:GroundReflectance:Snow>,Jan{dimensionless},Feb{dimensionless},Mar{dimensionless},Apr{dimensionless},May{dimensionless},Jun{dimensionless},Jul{dimensionless},Aug{dimensionless},Sep{dimensionless},Oct{dimensionless},Nov{dimensionless},Dec{dimensionless}
 Site:GroundReflectance:Snow,  0.20,  0.20,  0.20,  0.20,  0.20,  0.20,  0.20,  0.20,  0.20,  0.20,  0.20,  0.20
! <Site:GroundReflectance:Snow:Daylighting>,Jan{dimensionless},Feb{dimensionless},Mar{dimensionless},Apr{dimensionless},May{dimensionless},Jun{dimensionless},Jul{dimensionless},Aug{dimensionless},Sep{dimensionless},Oct{dimensionless},Nov{dimensionless},Dec{dimensionless}
 Site:GroundReflectance:Snow:Daylighting,  0.20,  0.20,  0.20,  0.20,  0.20,  0.20,  0.20,  0.20,  0.20,  0.20,  0.20,  0.20
! <Environment:Weather Station>,Wind Sensor Height Above Ground {m},Wind Speed Profile Exponent {},Wind Speed Profile Boundary Layer Thickness {m},Air Temperature Sensor Height Above Ground {m},Wind Speed Modifier Coefficient-Internal,Temperature Modifier Coefficient-Internal
Environment:Weather Station,10.000,0.140,270.000,1.500,1.586,9.750E-003
! <Site:Location>, Location Name, Latitude {N+/S- Deg}, Longitude {E+/W- Deg},  Time Zone Number {GMT+/-}, Elevation {m},  Standard Pressure at Elevation {Pa}, Standard RhoAir at Elevation
Site:Location,Fort McMurray AP AB CAN CWEC2016 WMO#=716890,56.65,-111.22,-7.00,369.10,96969,1.1525
! <Building Information>, Building Name,North Axis {deg},Terrain,  Loads Convergence Tolerance Value,Temperature Convergence Tolerance Value,  Solar Distribution,Maximum Number of Warmup Days,Minimum Number of Warmup Days
 Building Information,Building 1,0.000,Suburbs,4.00000E-002,0.40000,FullExterior,25,6
! <Inside Convection Algorithm>, Algorithm {Simple | TARP | CeilingDiffuser | AdaptiveConvectionAlgorithm}
Inside Convection Algorithm,TARP
! <Outside Convection Algorithm>, Algorithm {SimpleCombined | TARP | MoWitt | DOE-2 | AdaptiveConvectionAlgorithm}
Outside Convection Algorithm,TARP
! <Sky Radiance Distribution>, Value {Anisotropic}
Sky Radiance Distribution,Anisotropic
! <Zone Air Solution Algorithm>, Value {ThirdOrderBackwardDifference | AnalyticalSolution | EulerMethod}
 Zone Air Solution Algorithm, ThirdOrderBackwardDifference
! <Zone Air Carbon Dioxide Balance Simulation>, Simulation {Yes/No}, Carbon Dioxide Concentration
 Zone Air Carbon Dioxide Balance Simulation, No,N/A
! <Zone Air Generic Contaminant Balance Simulation>, Simulation {Yes/No}, Generic Contaminant Concentration
 Zone Air Generic Contaminant Balance Simulation, No,N/A
! <Zone Air Mass Flow Balance Simulation>, Enforce Mass Balance, Adjust Zone Mixing, Adjust Zone Infiltration {AddInfiltration | AdjustInfiltration | None}, Infiltration Zones {MixingSourceZonesOnly | AllZones}
 Zone Air Mass Flow Balance Simulation, No,N/A,N/A,N/A
! <HVACSystemRootFindingAlgorithm>, Value {RegulaFalsi | Bisection | BisectionThenRegulaFalsi | RegulaFalsiThenBisection}
 HVACSystemRootFindingAlgorithm, RegulaFalsi
! <Environment:Site Atmospheric Variation>,Wind Speed Profile Exponent {},Wind Speed Profile Boundary Layer Thickness {m},Air Temperature Gradient Coefficient {K/m}
Environment:Site Atmospheric Variation,0.220,370.000,6.500000E-003
! <Surface Geometry>,Starting Corner,Vertex Input Direction,Coordinate System,Daylight Reference Point Coordinate System,Rectangular (Simple) Surface Coordinate System
 Surface Geometry,UpperLeftCorner,Counterclockwise,RelativeCoordinateSystem,RelativeCoordinateSystem,RelativeToZoneOrigin
! <Surface Heat Transfer Algorithm>, Value {CTF - ConductionTransferFunction | EMPD - MoisturePenetrationDepthConductionTransferFunction | CondFD - ConductionFiniteDifference | HAMT - CombinedHeatAndMoistureFiniteElement} - Description,Inside Surface Max Temperature Limit{C}, Surface Convection Coefficient Lower Limit {W/m2-K}, Surface Convection Coefficient Upper Limit {W/m2-K}
Surface Heat Transfer Algorithm, CTF - ConductionTransferFunction,200,0.10,1000.0
! <Shading Summary>, Number of Fixed Detached Shades, Number of Building Detached Shades, Number of Attached Shades
 Shading Summary,0,0,0
! <Zone Summary>, Number of Zones, Number of Zone Surfaces, Number of SubSurfaces
 Zone Summary,20,134,14
! <Zone Information>,Zone Name,North Axis {deg},Origin X-Coordinate {m},Origin Y-Coordinate {m},Origin Z-Coordinate {m},Centroid X-Coordinate {m},Centroid Y-Coordinate {m},Centroid Z-Coordinate {m},Type,Zone Multiplier,Zone List Multiplier,Minimum X {m},Maximum X {m},Minimum Y {m},Maximum Y {m},Minimum Z {m},Maximum Z {m},Ceiling Height {m},Volume {m3},Zone Inside Convection Algorithm {Simple-Detailed-CeilingDiffuser-TrombeWall},Zone Outside Convection Algorithm {Simple-Detailed-Tarp-MoWitt-DOE-2-BLAST}, Floor Area {m2},Exterior Gross Wall Area {m2},Exterior Net Wall Area {m2},Exterior Window Area {m2}, Number of Surfaces, Number of SubSurfaces, Number of Shading SubSurfaces,  Part of Total Building Area
 Zone Information, SP-CONVENTION CENTRE EXHIBIT SPACE-SPACE FUNCTION SYS-3 FLR-3 SCH-C HPLCMT-WEST ZN,0.0,0.00,0.00,7.60,10.85,50.00,9.50,1,1,1,0.00,25.00,0.00,100.00,7.60,11.40,3.80,7125.00,TARP,TARP,1875.00,380.00,285.00,95.00,6,1,0,Yes
 Zone Information, SP-DORMITORY LIVING QUARTERS-SPACE FUNCTION SYS-3 FLR-2 SCH-G HPLCMT-SOUTH ZN,0.0,0.00,0.00,3.80,50.00,10.85,5.70,1,1,1,0.00,100.00,0.00,25.00,3.80,7.60,3.80,7125.00,TARP,TARP,1875.00,380.00,285.00,95.00,6,1,0,Yes
 Zone Information, SP-DWELLING UNITS GENERAL-SPACE FUNCTION SYS-1 FLR-2 SCH-G HPLCMT-WEST ZN,0.0,0.00,0.00,3.80,10.85,50.00,5.70,1,1,1,0.00,25.00,0.00,100.00,3.80,7.60,3.80,7125.00,TARP,TARP,1875.00,380.00,285.00,95.00,6,1,0,Yes
 Zone Information, SP-DWELLING UNITS LONG-TERM-SPACE FUNCTION SYS-1 FLR-2 SCH-J HPLCMT-CORE ZN,0.0,25.00,25.00,3.80,50.00,50.00,5.70,1,1,1,25.00,75.00,25.00,75.00,3.80,7.60,3.80,9500.00,TARP,TARP,2500.00,0.00,0.00,0.00,6,0,0,Yes
 Zone Information, SP-STORAGE ROOM <= 5 M2 <= 100 M2-SCH-I-SPACE FUNCTION SYS-4 FLR-4 SCH-I HPLCMT-CORE ZN,0.0,25.00,25.00,11.40,50.00,50.00,13.30,1,1,1,25.00,75.00,25.00,75.00,11.40,15.20,3.80,9500.00,TARP,TARP,2500.00,0.00,0.00,50.00,6,1,0,Yes
 Zone Information, SP-STORAGE ROOM <= 5 M2 <= 100 M2-SCH-J-SPACE FUNCTION SYS-4 FLR-4 SCH-J HPLCMT-SOUTH ZN,0.0,0.00,0.00,11.40,50.00,10.85,13.30,1,1,1,0.00,100.00,0.00,25.00,11.40,15.20,3.80,7125.00,TARP,TARP,1875.00,380.00,285.00,132.50,6,2,0,Yes
 Zone Information, SP-STORAGE ROOM <= 5 M2 <= 100 M2-SCH-K-SPACE FUNCTION SYS-4 FLR-4 SCH-K HPLCMT-EAST ZN,0.0,75.00,25.00,11.40,89.15,50.00,13.30,1,1,1,75.00,100.00,0.00,100.00,11.40,15.20,3.80,7125.00,TARP,TARP,1875.00,380.00,380.00,0.00,6,0,0,Yes
 Zone Information, SP-STORAGE ROOM > 100 M2-SCH-A-SPACE FUNCTION SYS-4 FLR-3 SCH-A HPLCMT-CORE ZN,0.0,25.00,25.00,7.60,50.00,50.00,9.50,1,1,1,25.00,75.00,25.00,75.00,7.60,11.40,3.80,9500.00,TARP,TARP,2500.00,0.00,0.00,0.00,6,0,0,Yes
 Zone Information, SP-STORAGE ROOM > 100 M2-SCH-B-SPACE FUNCTION SYS-4 FLR-3 SCH-B HPLCMT-SOUTH ZN,0.0,0.00,0.00,7.60,50.00,10.85,9.50,1,1,1,0.00,100.00,0.00,25.00,7.60,11.40,3.80,7125.00,TARP,TARP,1875.00,380.00,285.00,95.00,6,1,0,Yes
 Zone Information, SP-STORAGE ROOM > 100 M2-SCH-C-SPACE FUNCTION SYS-4 FLR-4 SCH-C HPLCMT-NORTH ZN,0.0,25.00,75.00,11.40,50.00,89.15,13.30,1,1,1,0.00,100.00,75.00,100.00,11.40,15.20,3.80,7125.00,TARP,TARP,1875.00,380.00,285.00,132.50,6,2,0,Yes
 Zone Information, SP-STORAGE ROOM > 100 M2-SCH-D-SPACE FUNCTION SYS-4 FLR-3 SCH-D HPLCMT-EAST ZN,0.0,75.00,25.00,7.60,89.15,50.00,9.50,1,1,1,75.00,100.00,0.00,100.00,7.60,11.40,3.80,7125.00,TARP,TARP,1875.00,380.00,285.00,95.00,6,1,0,Yes
 Zone Information, SP-STORAGE ROOM > 100 M2-SCH-E-SPACE FUNCTION SYS-4 FLR-1 SCH-E HPLCMT-WEST ZN,0.0,0.00,0.00,0.00,10.85,50.00,1.90,1,1,1,0.00,25.00,0.00,100.00,0.00,3.80,3.80,7125.00,TARP,TARP,1875.00,0.00,0.00,0.00,6,0,0,Yes
 Zone Information, SP-STORAGE ROOM > 100 M2-SCH-F-SPACE FUNCTION SYS-4 FLR-3 SCH-F HPLCMT-NORTH ZN,0.0,25.00,75.00,7.60,50.00,89.15,9.50,1,1,1,0.00,100.00,75.00,100.00,7.60,11.40,3.80,7125.00,TARP,TARP,1875.00,380.00,285.00,95.00,6,1,0,Yes
 Zone Information, SP-STORAGE ROOM > 100 M2-SCH-G-SPACE FUNCTION SYS-4 FLR-1 SCH-G HPLCMT-NORTH ZN,0.0,25.00,75.00,0.00,50.00,89.15,1.90,1,1,1,0.00,100.00,75.00,100.00,0.00,3.80,3.80,7125.00,TARP,TARP,1875.00,0.00,0.00,0.00,6,0,0,Yes
 Zone Information, SP-STORAGE ROOM > 100 M2-SCH-H-SPACE FUNCTION SYS-4 FLR-1 SCH-H HPLCMT-SOUTH ZN,0.0,0.00,0.00,0.00,50.00,10.85,1.90,1,1,1,0.00,100.00,0.00,25.00,0.00,3.80,3.80,7125.00,TARP,TARP,1875.00,0.00,0.00,0.00,6,0,0,Yes
 Zone Information, SP-STORAGE ROOM > 100 M2-SCH-I-SPACE FUNCTION SYS-4 FLR-1 SCH-I HPLCMT-CORE ZN,0.0,25.00,25.00,0.00,50.00,50.00,1.90,1,1,1,25.00,75.00,25.00,75.00,0.00,3.80,3.80,9500.00,TARP,TARP,2500.00,0.00,0.00,0.00,6,0,0,Yes
 Zone Information, SP-STORAGE ROOM > 100 M2-SCH-J-SPACE FUNCTION SYS-4 FLR-4 SCH-J HPLCMT-WEST ZN,0.0,0.00,0.00,11.40,10.85,50.00,13.30,1,1,1,0.00,25.00,0.00,100.00,11.40,15.20,3.80,7125.00,TARP,TARP,1875.00,380.00,285.00,132.50,6,2,0,Yes
 Zone Information, SP-STORAGE ROOM > 100 M2-SCH-K-SPACE FUNCTION SYS-4 FLR-2 SCH-K HPLCMT-NORTH ZN,0.0,25.00,75.00,3.80,50.00,89.15,5.70,1,1,1,0.00,100.00,75.00,100.00,3.80,7.60,3.80,7125.00,TARP,TARP,1875.00,380.00,380.00,0.00,6,0,0,Yes
 Zone Information, SP-VEHICLE MAINTENANCE AREA-SPACE FUNCTION SYS-4 FLR-1 SCH-E HPLCMT-EAST ZN,0.0,75.00,25.00,0.00,89.15,50.00,1.90,1,1,1,75.00,100.00,0.00,100.00,0.00,3.80,3.80,7125.00,TARP,TARP,1875.00,0.00,0.00,0.00,6,0,0,Yes
 Zone Information, SP-WORKSHOP-SPACE FUNCTION SYS-3 FLR-2 SCH-A HPLCMT-EAST ZN,0.0,75.00,25.00,3.80,89.15,50.00,5.70,1,1,1,75.00,100.00,0.00,100.00,3.80,7.60,3.80,7125.00,TARP,TARP,1875.00,380.00,285.00,95.00,6,1,0,Yes
! <Zone Internal Gains Nominal>,Zone Name, Floor Area {m2},# Occupants,Area per Occupant {m2/person},Occupant per Area {person/m2},Interior Lighting {W/m2},Electric Load {W/m2},Gas Load {W/m2},Other Load {W/m2},Hot Water Eq {W/m2},Steam Equipment {W/m2},Sum Loads per Area {W/m2},Outdoor Controlled Baseboard Heat
 Zone Internal Gains Nominal, SP-CONVENTION CENTRE EXHIBIT SPACE-SPACE FUNCTION SYS-3 FLR-3 SCH-C HPLCMT-WEST ZN,1875.00,187.6,9.996,0.100,9.500,2.501,0.000,0.000,0.000,0.000,12.001,No
 Zone Internal Gains Nominal, SP-DORMITORY LIVING QUARTERS-SPACE FUNCTION SYS-3 FLR-2 SCH-G HPLCMT-SOUTH ZN,1875.00,75.0,24.991,4.001E-002,5.800,2.501,0.000,0.000,0.000,0.000,8.301,No
 Zone Internal Gains Nominal, SP-DWELLING UNITS GENERAL-SPACE FUNCTION SYS-1 FLR-2 SCH-G HPLCMT-WEST ZN,1875.00,75.0,24.991,4.001E-002,5.002,5.002,0.000,0.000,0.000,0.000,10.004,No
 Zone Internal Gains Nominal, SP-DWELLING UNITS LONG-TERM-SPACE FUNCTION SYS-1 FLR-2 SCH-J HPLCMT-CORE ZN,2500.00,100.0,24.991,4.001E-002,5.002,2.501,0.000,0.000,0.000,0.000,7.503,No
 Zone Internal Gains Nominal, SP-STORAGE ROOM <= 5 M2 <= 100 M2-SCH-I-SPACE FUNCTION SYS-4 FLR-4 SCH-I HPLCMT-CORE ZN,2500.00,25.0,99.964,1.000E-002,6.802,0.000,0.000,0.000,0.000,0.000,6.802,No
 Zone Internal Gains Nominal, SP-STORAGE ROOM <= 5 M2 <= 100 M2-SCH-J-SPACE FUNCTION SYS-4 FLR-4 SCH-J HPLCMT-SOUTH ZN,1875.00,18.8,99.964,1.000E-002,6.802,0.000,0.000,0.000,0.000,0.000,6.802,No
 Zone Internal Gains Nominal, SP-STORAGE ROOM <= 5 M2 <= 100 M2-SCH-K-SPACE FUNCTION SYS-4 FLR-4 SCH-K HPLCMT-EAST ZN,1875.00,18.8,99.964,1.000E-002,6.802,0.000,0.000,0.000,0.000,0.000,6.802,No
 Zone Internal Gains Nominal, SP-STORAGE ROOM > 100 M2-SCH-A-SPACE FUNCTION SYS-4 FLR-3 SCH-A HPLCMT-CORE ZN,2500.00,25.0,99.964,1.000E-002,6.802,0.000,0.000,0.000,0.000,0.000,6.802,No
 Zone Internal Gains Nominal, SP-STORAGE ROOM > 100 M2-SCH-B-SPACE FUNCTION SYS-4 FLR-3 SCH-B HPLCMT-SOUTH ZN,1875.00,18.8,99.964,1.000E-002,6.802,0.000,0.000,0.000,0.000,0.000,6.802,No
 Zone Internal Gains Nominal, SP-STORAGE ROOM > 100 M2-SCH-C-SPACE FUNCTION SYS-4 FLR-4 SCH-C HPLCMT-NORTH ZN,1875.00,18.8,99.964,1.000E-002,6.802,0.000,0.000,0.000,0.000,0.000,6.802,No
 Zone Internal Gains Nominal, SP-STORAGE ROOM > 100 M2-SCH-D-SPACE FUNCTION SYS-4 FLR-3 SCH-D HPLCMT-EAST ZN,1875.00,18.8,99.964,1.000E-002,6.802,0.000,0.000,0.000,0.000,0.000,6.802,No
 Zone Internal Gains Nominal, SP-STORAGE ROOM > 100 M2-SCH-E-SPACE FUNCTION SYS-4 FLR-1 SCH-E HPLCMT-WEST ZN,1875.00,18.8,99.964,1.000E-002,6.802,0.000,0.000,0.000,0.000,0.000,6.802,No
 Zone Internal Gains Nominal, SP-STORAGE ROOM > 100 M2-SCH-F-SPACE FUNCTION SYS-4 FLR-3 SCH-F HPLCMT-NORTH ZN,1875.00,18.8,99.964,1.000E-002,6.802,0.000,0.000,0.000,0.000,0.000,6.802,No
 Zone Internal Gains Nominal, SP-STORAGE ROOM > 100 M2-SCH-G-SPACE FUNCTION SYS-4 FLR-1 SCH-G HPLCMT-NORTH ZN,1875.00,18.8,99.964,1.000E-002,6.802,0.000,0.000,0.000,0.000,0.000,6.802,No
 Zone Internal Gains Nominal, SP-STORAGE ROOM > 100 M2-SCH-H-SPACE FUNCTION SYS-4 FLR-1 SCH-H HPLCMT-SOUTH ZN,1875.00,18.8,99.964,1.000E-002,6.802,0.000,0.000,0.000,0.000,0.000,6.802,No
 Zone Internal Gains Nominal, SP-STORAGE ROOM > 100 M2-SCH-I-SPACE FUNCTION SYS-4 FLR-1 SCH-I HPLCMT-CORE ZN,2500.00,25.0,99.964,1.000E-002,6.802,0.000,0.000,0.000,0.000,0.000,6.802,No
 Zone Internal Gains Nominal, SP-STORAGE ROOM > 100 M2-SCH-J-SPACE FUNCTION SYS-4 FLR-4 SCH-J HPLCMT-WEST ZN,1875.00,18.8,99.964,1.000E-002,6.802,0.000,0.000,0.000,0.000,0.000,6.802,No
 Zone Internal Gains Nominal, SP-STORAGE ROOM > 100 M2-SCH-K-SPACE FUNCTION SYS-4 FLR-2 SCH-K HPLCMT-NORTH ZN,1875.00,18.8,99.964,1.000E-002,6.802,0.000,0.000,0.000,0.000,0.000,6.802,No
 Zone Internal Gains Nominal, SP-VEHICLE MAINTENANCE AREA-SPACE FUNCTION SYS-4 FLR-1 SCH-E HPLCMT-EAST ZN,1875.00,93.8,19.993,5.002E-002,6.000,5.002,0.000,0.000,0.000,0.000,11.002,No
 Zone Internal Gains Nominal, SP-WORKSHOP-SPACE FUNCTION SYS-3 FLR-2 SCH-A HPLCMT-EAST ZN,1875.00,62.5,29.989,3.335E-002,12.300,10.004,0.000,0.000,0.000,0.000,22.304,No
! <People Internal Gains Nominal>,Name,Schedule Name,Zone Name,Zone Floor Area {m2},# Zone Occupants,Number of People {},People/Floor Area {person/m2},Floor Area per person {m2/person},Fraction Radiant,Fraction Convected,Sensible Fraction Calculation,Activity level,ASHRAE 55 Warnings,Carbon Dioxide Generation Rate,Nominal Minimum Number of People,Nominal Maximum Number of People
 People Internal Gains Nominal, SP-CONVENTION CENTRE EXHIBIT SPACE-SPACE FUNCTION SYS-3 FLR-3 SCH-C HPLCMT-WEST ZN SPACE FUNCTION CONVENTION CENTRE EXHIBIT SPACE PEOPLE,NECB-C-OCCUPANCY,SP-CONVENTION CENTRE EXHIBIT SPACE-SPACE FUNCTION SYS-3 FLR-3 SCH-C HPLCMT-WEST ZN,1875.00,187.6,187.6,0.100,9.996,0.300,0.700,AutoCalculate,NECB-ACTIVITY,No,3.8200E-008,0,169
 People Internal Gains Nominal, SP-DORMITORY LIVING QUARTERS-SPACE FUNCTION SYS-3 FLR-2 SCH-G HPLCMT-SOUTH ZN SPACE FUNCTION DORMITORY LIVING QUARTERS PEOPLE,NECB-G-OCCUPANCY,SP-DORMITORY LIVING QUARTERS-SPACE FUNCTION SYS-3 FLR-2 SCH-G HPLCMT-SOUTH ZN,1875.00,75.0,75.0,4.001E-002,24.991,0.300,0.700,AutoCalculate,NECB-ACTIVITY,No,3.8200E-008,23,68
 People Internal Gains Nominal, SP-DWELLING UNITS GENERAL-SPACE FUNCTION SYS-1 FLR-2 SCH-G HPLCMT-WEST ZN SPACE FUNCTION DWELLING UNITS GENERAL PEOPLE,NECB-G-OCCUPANCY,SP-DWELLING UNITS GENERAL-SPACE FUNCTION SYS-1 FLR-2 SCH-G HPLCMT-WEST ZN,1875.00,75.0,75.0,4.001E-002,24.991,0.300,0.700,AutoCalculate,NECB-ACTIVITY,No,3.8200E-008,23,68
 People Internal Gains Nominal, SP-DWELLING UNITS LONG-TERM-SPACE FUNCTION SYS-1 FLR-2 SCH-J HPLCMT-CORE ZN SPACE FUNCTION DWELLING UNITS LONG-TERM PEOPLE,NECB-J-OCCUPANCY,SP-DWELLING UNITS LONG-TERM-SPACE FUNCTION SYS-1 FLR-2 SCH-J HPLCMT-CORE ZN,2500.00,100.0,100.0,4.001E-002,24.991,0.300,0.700,AutoCalculate,NECB-ACTIVITY,No,3.8200E-008,60,90
 People Internal Gains Nominal, SP-STORAGE ROOM <= 5 M2 <= 100 M2-SCH-I-SPACE FUNCTION SYS-4 FLR-4 SCH-I HPLCMT-CORE ZN SPACE FUNCTION STORAGE ROOM <= 5 M2 <= 100 M2-SCH-I PEOPLE,NECB-I-OCCUPANCY,SP-STORAGE ROOM <= 5 M2 <= 100 M2-SCH-I-SPACE FUNCTION SYS-4 FLR-4 SCH-I HPLCMT-CORE ZN,2500.00,25.0,25.0,1.000E-002,99.964,0.300,0.700,AutoCalculate,NECB-ACTIVITY,No,3.8200E-008,0,20
 People Internal Gains Nominal, SP-STORAGE ROOM <= 5 M2 <= 100 M2-SCH-J-SPACE FUNCTION SYS-4 FLR-4 SCH-J HPLCMT-SOUTH ZN SPACE FUNCTION STORAGE ROOM <= 5 M2 <= 100 M2-SCH-J PEOPLE,NECB-J-OCCUPANCY,SP-STORAGE ROOM <= 5 M2 <= 100 M2-SCH-J-SPACE FUNCTION SYS-4 FLR-4 SCH-J HPLCMT-SOUTH ZN,1875.00,18.8,18.8,1.000E-002,99.964,0.300,0.700,AutoCalculate,NECB-ACTIVITY,No,3.8200E-008,11,17
 People Internal Gains Nominal, SP-STORAGE ROOM <= 5 M2 <= 100 M2-SCH-K-SPACE FUNCTION SYS-4 FLR-4 SCH-K HPLCMT-EAST ZN SPACE FUNCTION STORAGE ROOM <= 5 M2 <= 100 M2-SCH-K PEOPLE,NECB-K-OCCUPANCY,SP-STORAGE ROOM <= 5 M2 <= 100 M2-SCH-K-SPACE FUNCTION SYS-4 FLR-4 SCH-K HPLCMT-EAST ZN,1875.00,18.8,18.8,1.000E-002,99.964,0.300,0.700,AutoCalculate,NECB-ACTIVITY,No,3.8200E-008,0,17
 People Internal Gains Nominal, SP-STORAGE ROOM > 100 M2-SCH-A-SPACE FUNCTION SYS-4 FLR-3 SCH-A HPLCMT-CORE ZN SPACE FUNCTION STORAGE ROOM > 100 M2-SCH-A PEOPLE,NECB-A-OCCUPANCY,SP-STORAGE ROOM > 100 M2-SCH-A-SPACE FUNCTION SYS-4 FLR-3 SCH-A HPLCMT-CORE ZN,2500.00,25.0,25.0,1.000E-002,99.964,0.300,0.700,AutoCalculate,NECB-ACTIVITY,No,3.8200E-008,0,23
 People Internal Gains Nominal, SP-STORAGE ROOM > 100 M2-SCH-B-SPACE FUNCTION SYS-4 FLR-3 SCH-B HPLCMT-SOUTH ZN SPACE FUNCTION STORAGE ROOM > 100 M2-SCH-B PEOPLE,NECB-B-OCCUPANCY,SP-STORAGE ROOM > 100 M2-SCH-B-SPACE FUNCTION SYS-4 FLR-3 SCH-B HPLCMT-SOUTH ZN,1875.00,18.8,18.8,1.000E-002,99.964,0.300,0.700,AutoCalculate,NECB-ACTIVITY,No,3.8200E-008,0,17
 People Internal Gains Nominal, SP-STORAGE ROOM > 100 M2-SCH-C-SPACE FUNCTION SYS-4 FLR-4 SCH-C HPLCMT-NORTH ZN SPACE FUNCTION STORAGE ROOM > 100 M2-SCH-C PEOPLE,NECB-C-OCCUPANCY,SP-STORAGE ROOM > 100 M2-SCH-C-SPACE FUNCTION SYS-4 FLR-4 SCH-C HPLCMT-NORTH ZN,1875.00,18.8,18.8,1.000E-002,99.964,0.300,0.700,AutoCalculate,NECB-ACTIVITY,No,3.8200E-008,0,17
 People Internal Gains Nominal, SP-STORAGE ROOM > 100 M2-SCH-D-SPACE FUNCTION SYS-4 FLR-3 SCH-D HPLCMT-EAST ZN SPACE FUNCTION STORAGE ROOM > 100 M2-SCH-D PEOPLE,NECB-D-OCCUPANCY,SP-STORAGE ROOM > 100 M2-SCH-D-SPACE FUNCTION SYS-4 FLR-3 SCH-D HPLCMT-EAST ZN,1875.00,18.8,18.8,1.000E-002,99.964,0.300,0.700,AutoCalculate,NECB-ACTIVITY,No,3.8200E-008,0,17
 People Internal Gains Nominal, SP-STORAGE ROOM > 100 M2-SCH-E-SPACE FUNCTION SYS-4 FLR-1 SCH-E HPLCMT-WEST ZN SPACE FUNCTION STORAGE ROOM > 100 M2-SCH-E PEOPLE,NECB-E-OCCUPANCY,SP-STORAGE ROOM > 100 M2-SCH-E-SPACE FUNCTION SYS-4 FLR-1 SCH-E HPLCMT-WEST ZN,1875.00,18.8,18.8,1.000E-002,99.964,0.300,0.700,AutoCalculate,NECB-ACTIVITY,No,3.8200E-008,0,17
 People Internal Gains Nominal, SP-STORAGE ROOM > 100 M2-SCH-F-SPACE FUNCTION SYS-4 FLR-3 SCH-F HPLCMT-NORTH ZN SPACE FUNCTION STORAGE ROOM > 100 M2-SCH-F PEOPLE,NECB-F-OCCUPANCY,SP-STORAGE ROOM > 100 M2-SCH-F-SPACE FUNCTION SYS-4 FLR-3 SCH-F HPLCMT-NORTH ZN,1875.00,18.8,18.8,1.000E-002,99.964,0.300,0.700,AutoCalculate,NECB-ACTIVITY,No,3.8200E-008,3,12
 People Internal Gains Nominal, SP-STORAGE ROOM > 100 M2-SCH-G-SPACE FUNCTION SYS-4 FLR-1 SCH-G HPLCMT-NORTH ZN SPACE FUNCTION STORAGE ROOM > 100 M2-SCH-G PEOPLE,NECB-G-OCCUPANCY,SP-STORAGE ROOM > 100 M2-SCH-G-SPACE FUNCTION SYS-4 FLR-1 SCH-G HPLCMT-NORTH ZN,1875.00,18.8,18.8,1.000E-002,99.964,0.300,0.700,AutoCalculate,NECB-ACTIVITY,No,3.8200E-008,6,17
 People Internal Gains Nominal, SP-STORAGE ROOM > 100 M2-SCH-H-SPACE FUNCTION SYS-4 FLR-1 SCH-H HPLCMT-SOUTH ZN SPACE FUNCTION STORAGE ROOM > 100 M2-SCH-H PEOPLE,NECB-H-OCCUPANCY,SP-STORAGE ROOM > 100 M2-SCH-H-SPACE FUNCTION SYS-4 FLR-1 SCH-H HPLCMT-SOUTH ZN,1875.00,18.8,18.8,1.000E-002,99.964,0.300,0.700,AutoCalculate,NECB-ACTIVITY,No,3.8200E-008,17,17
 People Internal Gains Nominal, SP-STORAGE ROOM > 100 M2-SCH-I-SPACE FUNCTION SYS-4 FLR-1 SCH-I HPLCMT-CORE ZN SPACE FUNCTION STORAGE ROOM > 100 M2-SCH-I PEOPLE,NECB-I-OCCUPANCY,SP-STORAGE ROOM > 100 M2-SCH-I-SPACE FUNCTION SYS-4 FLR-1 SCH-I HPLCMT-CORE ZN,2500.00,25.0,25.0,1.000E-002,99.964,0.300,0.700,AutoCalculate,NECB-ACTIVITY,No,3.8200E-008,0,20
 People Internal Gains Nominal, SP-STORAGE ROOM > 100 M2-SCH-J-SPACE FUNCTION SYS-4 FLR-4 SCH-J HPLCMT-WEST ZN SPACE FUNCTION STORAGE ROOM > 100 M2-SCH-J PEOPLE,NECB-J-OCCUPANCY,SP-STORAGE ROOM > 100 M2-SCH-J-SPACE FUNCTION SYS-4 FLR-4 SCH-J HPLCMT-WEST ZN,1875.00,18.8,18.8,1.000E-002,99.964,0.300,0.700,AutoCalculate,NECB-ACTIVITY,No,3.8200E-008,11,17
 People Internal Gains Nominal, SP-STORAGE ROOM > 100 M2-SCH-K-SPACE FUNCTION SYS-4 FLR-2 SCH-K HPLCMT-NORTH ZN SPACE FUNCTION STORAGE ROOM > 100 M2-SCH-K PEOPLE,NECB-K-OCCUPANCY,SP-STORAGE ROOM > 100 M2-SCH-K-SPACE FUNCTION SYS-4 FLR-2 SCH-K HPLCMT-NORTH ZN,1875.00,18.8,18.8,1.000E-002,99.964,0.300,0.700,AutoCalculate,NECB-ACTIVITY,No,3.8200E-008,0,17
 People Internal Gains Nominal, SP-VEHICLE MAINTENANCE AREA-SPACE FUNCTION SYS-4 FLR-1 SCH-E HPLCMT-EAST ZN SPACE FUNCTION VEHICLE MAINTENANCE AREA PEOPLE,NECB-E-OCCUPANCY,SP-VEHICLE MAINTENANCE AREA-SPACE FUNCTION SYS-4 FLR-1 SCH-E HPLCMT-EAST ZN,1875.00,93.8,93.8,5.002E-002,19.993,0.300,0.700,AutoCalculate,NECB-ACTIVITY,No,3.8200E-008,0,84
 People Internal Gains Nominal, SP-WORKSHOP-SPACE FUNCTION SYS-3 FLR-2 SCH-A HPLCMT-EAST ZN SPACE FUNCTION WORKSHOP PEOPLE,NECB-A-OCCUPANCY,SP-WORKSHOP-SPACE FUNCTION SYS-3 FLR-2 SCH-A HPLCMT-EAST ZN,1875.00,62.5,62.5,3.335E-002,29.989,0.300,0.700,AutoCalculate,NECB-ACTIVITY,No,3.8200E-008,0,56
! <Lights Internal Gains Nominal>,Name,Schedule Name,Zone Name,Zone Floor Area {m2},# Zone Occupants,Lighting Level {W},Lights/Floor Area {W/m2},Lights per person {W/person},Fraction Return Air,Fraction Radiant,Fraction Short Wave,Fraction Convected,Fraction Replaceable,End-Use Category,Nominal Minimum Lighting Level {W},Nominal Maximum Lighting Level {W}
 Lights Internal Gains Nominal, SP-CONVENTION CENTRE EXHIBIT SPACE-SPACE FUNCTION SYS-3 FLR-3 SCH-C HPLCMT-WEST ZN SPACE FUNCTION CONVENTION CENTRE EXHIBIT SPACE LIGHTS,NECB-C-OCCUPANCY-NECB-C-LIGHTING-0.0-0.0-0.67-LIGHT RULESET,SP-CONVENTION CENTRE EXHIBIT SPACE-SPACE FUNCTION SYS-3 FLR-3 SCH-C HPLCMT-WEST ZN,1875.00,187.6,17812.361,9.500,94.965,0.000,0.500,0.200,0.300,1.000,General,890.618,16031.125
 Lights Internal Gains Nominal, SP-DORMITORY LIVING QUARTERS-SPACE FUNCTION SYS-3 FLR-2 SCH-G HPLCMT-SOUTH ZN SPACE FUNCTION DORMITORY LIVING QUARTERS LIGHTS,NECB-G-LIGHTING,SP-DORMITORY LIVING QUARTERS-SPACE FUNCTION SYS-3 FLR-2 SCH-G HPLCMT-SOUTH ZN,1875.00,75.0,10874.907,5.800,144.946,0.000,0.500,0.200,0.300,1.000,General,0.000,9787.416
 Lights Internal Gains Nominal, SP-DWELLING UNITS GENERAL-SPACE FUNCTION SYS-1 FLR-2 SCH-G HPLCMT-WEST ZN SPACE FUNCTION DWELLING UNITS GENERAL LIGHTS,NECB-G-LIGHTING,SP-DWELLING UNITS GENERAL-SPACE FUNCTION SYS-1 FLR-2 SCH-G HPLCMT-WEST ZN,1875.00,75.0,9378.407,5.002,125.000,0.000,0.500,0.200,0.300,1.000,General,0.000,8440.566
 Lights Internal Gains Nominal, SP-DWELLING UNITS LONG-TERM-SPACE FUNCTION SYS-1 FLR-2 SCH-J HPLCMT-CORE ZN SPACE FUNCTION DWELLING UNITS LONG-TERM LIGHTS,NECB-J-LIGHTING,SP-DWELLING UNITS LONG-TERM-SPACE FUNCTION SYS-1 FLR-2 SCH-J HPLCMT-CORE ZN,2500.00,100.0,12504.543,5.002,125.000,0.000,0.500,0.200,0.300,1.000,General,1250.454,8753.180
 Lights Internal Gains Nominal, SP-STORAGE ROOM <= 5 M2 <= 100 M2-SCH-I-SPACE FUNCTION SYS-4 FLR-4 SCH-I HPLCMT-CORE ZN SPACE FUNCTION STORAGE ROOM <= 5 M2 <= 100 M2-SCH-I LIGHTS,NECB-I-LIGHTING,SP-STORAGE ROOM <= 5 M2 <= 100 M2-SCH-I-SPACE FUNCTION SYS-4 FLR-4 SCH-I HPLCMT-CORE ZN,2500.00,25.0,17006.178,6.802,680.000,0.000,0.500,0.200,0.300,1.000,General,850.309,15305.560
 Lights Internal Gains Nominal, SP-STORAGE ROOM <= 5 M2 <= 100 M2-SCH-J-SPACE FUNCTION SYS-4 FLR-4 SCH-J HPLCMT-SOUTH ZN SPACE FUNCTION STORAGE ROOM <= 5 M2 <= 100 M2-SCH-J LIGHTS,NECB-J-LIGHTING,SP-STORAGE ROOM <= 5 M2 <= 100 M2-SCH-J-SPACE FUNCTION SYS-4 FLR-4 SCH-J HPLCMT-SOUTH ZN,1875.00,18.8,12754.634,6.802,680.000,0.000,0.500,0.200,0.300,1.000,General,1275.463,8928.244
 Lights Internal Gains Nominal, SP-STORAGE ROOM <= 5 M2 <= 100 M2-SCH-K-SPACE FUNCTION SYS-4 FLR-4 SCH-K HPLCMT-EAST ZN SPACE FUNCTION STORAGE ROOM <= 5 M2 <= 100 M2-SCH-K LIGHTS,NECB-K-LIGHTING,SP-STORAGE ROOM <= 5 M2 <= 100 M2-SCH-K-SPACE FUNCTION SYS-4 FLR-4 SCH-K HPLCMT-EAST ZN,1875.00,18.8,12754.634,6.802,680.000,0.000,0.500,0.200,0.300,1.000,General,11479.170,11479.170
 Lights Internal Gains Nominal, SP-STORAGE ROOM > 100 M2-SCH-A-SPACE FUNCTION SYS-4 FLR-3 SCH-A HPLCMT-CORE ZN SPACE FUNCTION STORAGE ROOM > 100 M2-SCH-A LIGHTS,NECB-A-LIGHTING,SP-STORAGE ROOM > 100 M2-SCH-A-SPACE FUNCTION SYS-4 FLR-3 SCH-A HPLCMT-CORE ZN,2500.00,25.0,17006.178,6.802,680.000,0.000,0.500,0.200,0.300,1.000,General,850.309,15305.560
 Lights Internal Gains Nominal, SP-STORAGE ROOM > 100 M2-SCH-B-SPACE FUNCTION SYS-4 FLR-3 SCH-B HPLCMT-SOUTH ZN SPACE FUNCTION STORAGE ROOM > 100 M2-SCH-B LIGHTS,NECB-B-LIGHTING,SP-STORAGE ROOM > 100 M2-SCH-B-SPACE FUNCTION SYS-4 FLR-3 SCH-B HPLCMT-SOUTH ZN,1875.00,18.8,12754.634,6.802,680.000,0.000,0.500,0.200,0.300,1.000,General,1275.463,11479.170
 Lights Internal Gains Nominal, SP-STORAGE ROOM > 100 M2-SCH-C-SPACE FUNCTION SYS-4 FLR-4 SCH-C HPLCMT-NORTH ZN SPACE FUNCTION STORAGE ROOM > 100 M2-SCH-C LIGHTS,NECB-C-LIGHTING,SP-STORAGE ROOM > 100 M2-SCH-C-SPACE FUNCTION SYS-4 FLR-4 SCH-C HPLCMT-NORTH ZN,1875.00,18.8,12754.634,6.802,680.000,0.000,0.500,0.200,0.300,1.000,General,637.732,11479.170
 Lights Internal Gains Nominal, SP-STORAGE ROOM > 100 M2-SCH-D-SPACE FUNCTION SYS-4 FLR-3 SCH-D HPLCMT-EAST ZN SPACE FUNCTION STORAGE ROOM > 100 M2-SCH-D LIGHTS,NECB-D-LIGHTING,SP-STORAGE ROOM > 100 M2-SCH-D-SPACE FUNCTION SYS-4 FLR-3 SCH-D HPLCMT-EAST ZN,1875.00,18.8,12754.634,6.802,680.000,0.000,0.500,0.200,0.300,1.000,General,637.732,11479.170
 Lights Internal Gains Nominal, SP-STORAGE ROOM > 100 M2-SCH-E-SPACE FUNCTION SYS-4 FLR-1 SCH-E HPLCMT-WEST ZN SPACE FUNCTION STORAGE ROOM > 100 M2-SCH-E LIGHTS,NECB-E-LIGHTING,SP-STORAGE ROOM > 100 M2-SCH-E-SPACE FUNCTION SYS-4 FLR-1 SCH-E HPLCMT-WEST ZN,1875.00,18.8,12754.634,6.802,680.000,0.000,0.500,0.200,0.300,1.000,General,637.732,11479.170
 Lights Internal Gains Nominal, SP-STORAGE ROOM > 100 M2-SCH-F-SPACE FUNCTION SYS-4 FLR-3 SCH-F HPLCMT-NORTH ZN SPACE FUNCTION STORAGE ROOM > 100 M2-SCH-F LIGHTS,NECB-F-LIGHTING,SP-STORAGE ROOM > 100 M2-SCH-F-SPACE FUNCTION SYS-4 FLR-3 SCH-F HPLCMT-NORTH ZN,1875.00,18.8,12754.634,6.802,680.000,0.000,0.500,0.200,0.300,1.000,General,892.824,8035.419
 Lights Internal Gains Nominal, SP-STORAGE ROOM > 100 M2-SCH-G-SPACE FUNCTION SYS-4 FLR-1 SCH-G HPLCMT-NORTH ZN SPACE FUNCTION STORAGE ROOM > 100 M2-SCH-G LIGHTS,NECB-G-LIGHTING,SP-STORAGE ROOM > 100 M2-SCH-G-SPACE FUNCTION SYS-4 FLR-1 SCH-G HPLCMT-NORTH ZN,1875.00,18.8,12754.634,6.802,680.000,0.000,0.500,0.200,0.300,1.000,General,0.000,11479.170
 Lights Internal Gains Nominal, SP-STORAGE ROOM > 100 M2-SCH-H-SPACE FUNCTION SYS-4 FLR-1 SCH-H HPLCMT-SOUTH ZN SPACE FUNCTION STORAGE ROOM > 100 M2-SCH-H LIGHTS,NECB-H-LIGHTING,SP-STORAGE ROOM > 100 M2-SCH-H-SPACE FUNCTION SYS-4 FLR-1 SCH-H HPLCMT-SOUTH ZN,1875.00,18.8,12754.634,6.802,680.000,0.000,0.500,0.200,0.300,1.000,General,11479.170,11479.170
 Lights Internal Gains Nominal, SP-STORAGE ROOM > 100 M2-SCH-I-SPACE FUNCTION SYS-4 FLR-1 SCH-I HPLCMT-CORE ZN SPACE FUNCTION STORAGE ROOM > 100 M2-SCH-I LIGHTS,NECB-I-LIGHTING,SP-STORAGE ROOM > 100 M2-SCH-I-SPACE FUNCTION SYS-4 FLR-1 SCH-I HPLCMT-CORE ZN,2500.00,25.0,17006.178,6.802,680.000,0.000,0.500,0.200,0.300,1.000,General,850.309,15305.560
 Lights Internal Gains Nominal, SP-STORAGE ROOM > 100 M2-SCH-J-SPACE FUNCTION SYS-4 FLR-4 SCH-J HPLCMT-WEST ZN SPACE FUNCTION STORAGE ROOM > 100 M2-SCH-J LIGHTS,NECB-J-LIGHTING,SP-STORAGE ROOM > 100 M2-SCH-J-SPACE FUNCTION SYS-4 FLR-4 SCH-J HPLCMT-WEST ZN,1875.00,18.8,12754.634,6.802,680.000,0.000,0.500,0.200,0.300,1.000,General,1275.463,8928.244
 Lights Internal Gains Nominal, SP-STORAGE ROOM > 100 M2-SCH-K-SPACE FUNCTION SYS-4 FLR-2 SCH-K HPLCMT-NORTH ZN SPACE FUNCTION STORAGE ROOM > 100 M2-SCH-K LIGHTS,NECB-K-LIGHTING,SP-STORAGE ROOM > 100 M2-SCH-K-SPACE FUNCTION SYS-4 FLR-2 SCH-K HPLCMT-NORTH ZN,1875.00,18.8,12754.634,6.802,680.000,0.000,0.500,0.200,0.300,1.000,General,11479.170,11479.170
 Lights Internal Gains Nominal, SP-VEHICLE MAINTENANCE AREA-SPACE FUNCTION SYS-4 FLR-1 SCH-E HPLCMT-EAST ZN SPACE FUNCTION VEHICLE MAINTENANCE AREA LIGHTS,NECB-E-LIGHTING,SP-VEHICLE MAINTENANCE AREA-SPACE FUNCTION SYS-4 FLR-1 SCH-E HPLCMT-EAST ZN,1875.00,93.8,11249.914,6.000,119.955,0.000,0.500,0.200,0.300,1.000,General,562.496,10124.923
 Lights Internal Gains Nominal, SP-WORKSHOP-SPACE FUNCTION SYS-3 FLR-2 SCH-A HPLCMT-EAST ZN SPACE FUNCTION WORKSHOP LIGHTS,NECB-A-OCCUPANCY-NECB-A-LIGHTING-0.0-0.0-0.67-LIGHT RULESET,SP-WORKSHOP-SPACE FUNCTION SYS-3 FLR-2 SCH-A HPLCMT-EAST ZN,1875.00,62.5,23062.310,12.300,368.863,0.000,0.500,0.200,0.300,1.000,General,1153.116,20756.079
! <ElectricEquipment Internal Gains Nominal>,Name,Schedule Name,Zone Name,Zone Floor Area {m2},# Zone Occupants,Equipment Level {W},Equipment/Floor Area {W/m2},Equipment per person {W/person},Fraction Latent,Fraction Radiant,Fraction Lost,Fraction Convected,End-Use SubCategory,Nominal Minimum Equipment Level {W},Nominal Maximum Equipment Level {W}
 ElectricEquipment Internal Gains Nominal, SP-CONVENTION CENTRE EXHIBIT SPACE-SPACE FUNCTION SYS-3 FLR-3 SCH-C HPLCMT-WEST ZN SPACE FUNCTION CONVENTION CENTRE EXHIBIT SPACE ELEC EQUIP,NECB-C-ELECTRIC-EQUIPMENT,SP-CONVENTION CENTRE EXHIBIT SPACE-SPACE FUNCTION SYS-3 FLR-3 SCH-C HPLCMT-WEST ZN,1875.00,187.6,4689.204,2.501,25.000,0.000,0.500,0.000,0.500,General,234.460,4220.283
 ElectricEquipment Internal Gains Nominal, SP-DORMITORY LIVING QUARTERS-SPACE FUNCTION SYS-3 FLR-2 SCH-G HPLCMT-SOUTH ZN SPACE FUNCTION DORMITORY LIVING QUARTERS ELEC EQUIP,NECB-G-ELECTRIC-EQUIPMENT,SP-DORMITORY LIVING QUARTERS-SPACE FUNCTION SYS-3 FLR-2 SCH-G HPLCMT-SOUTH ZN,1875.00,75.0,4689.204,2.501,62.500,0.000,0.500,0.000,0.500,General,937.841,4220.283
 ElectricEquipment Internal Gains Nominal, SP-DWELLING UNITS GENERAL-SPACE FUNCTION SYS-1 FLR-2 SCH-G HPLCMT-WEST ZN SPACE FUNCTION DWELLING UNITS GENERAL ELEC EQUIP,NECB-G-ELECTRIC-EQUIPMENT,SP-DWELLING UNITS GENERAL-SPACE FUNCTION SYS-1 FLR-2 SCH-G HPLCMT-WEST ZN,1875.00,75.0,9378.407,5.002,125.000,0.000,0.500,0.000,0.500,General,1875.681,8440.566
 ElectricEquipment Internal Gains Nominal, SP-DWELLING UNITS LONG-TERM-SPACE FUNCTION SYS-1 FLR-2 SCH-J HPLCMT-CORE ZN SPACE FUNCTION DWELLING UNITS LONG-TERM ELEC EQUIP,NECB-J-ELECTRIC-EQUIPMENT,SP-DWELLING UNITS LONG-TERM-SPACE FUNCTION SYS-1 FLR-2 SCH-J HPLCMT-CORE ZN,2500.00,100.0,6252.271,2.501,62.500,0.000,0.500,0.000,0.500,General,625.227,4376.590
 ElectricEquipment Internal Gains Nominal, SP-VEHICLE MAINTENANCE AREA-SPACE FUNCTION SYS-4 FLR-1 SCH-E HPLCMT-EAST ZN SPACE FUNCTION VEHICLE MAINTENANCE AREA ELEC EQUIP,NECB-E-ELECTRIC-EQUIPMENT,SP-VEHICLE MAINTENANCE AREA-SPACE FUNCTION SYS-4 FLR-1 SCH-E HPLCMT-EAST ZN,1875.00,93.8,9378.407,5.002,100.000,0.000,0.500,0.000,0.500,General,468.920,8440.566
 ElectricEquipment Internal Gains Nominal, SP-WORKSHOP-SPACE FUNCTION SYS-3 FLR-2 SCH-A HPLCMT-EAST ZN SPACE FUNCTION WORKSHOP ELEC EQUIP,NECB-A-ELECTRIC-EQUIPMENT,SP-WORKSHOP-SPACE FUNCTION SYS-3 FLR-2 SCH-A HPLCMT-EAST ZN,1875.00,62.5,18756.814,10.004,300.000,0.000,0.500,0.000,0.500,General,3751.363,16881.133
! <Shadowing/Sun Position Calculations Annual Simulations>, Calculation Method, Value {days}, Allowable Number Figures in Shadow Overlap {}, Polygon Clipping Algorithm, Sky Diffuse Modeling Algorithm, External Shading Calculation Method, Output External Shading Calculation Results, Disable Self-Shading Within Shading Zone Groups, Disable Self-Shading From Shading Zone Groups to Other Zones
Shadowing/Sun Position Calculations Annual Simulations,AverageOverDaysInFrequency,20,15000,SutherlandHodgman,SimpleSkyDiffuseModeling,InternalCalculation,No,No,No
! <Water Heater Information>,Type,Name,Volume {m3},Maximum Capacity {W},Standard Rated Recovery Efficiency, Standard Rated Energy Factor
! <ZoneInfiltration Airflow Stats Nominal>,Name,Schedule Name,Zone Name, Zone Floor Area {m2}, # Zone Occupants,Design Volume Flow Rate {m3/s},Volume Flow Rate/Floor Area {m3/s/m2},Volume Flow Rate/Exterior Surface Area {m3/s/m2},ACH - Air Changes per Hour,Equation A - Constant Term Coefficient {},Equation B - Temperature Term Coefficient {1/C},Equation C - Velocity Term Coefficient {s/m}, Equation D - Velocity Squared Term Coefficient {s2/m2}
 ZoneInfiltration Airflow Stats Nominal, CONVENTION CENTRE EXHIBIT SPACE-SPACE FUNCTION INFILTRATION,ALWAYS ON DISCRETE,SP-CONVENTION CENTRE EXHIBIT SPACE-SPACE FUNCTION SYS-3 FLR-3 SCH-C HPLCMT-WEST ZN,1875.00,187.6,9.500E-002,5.067E-005,2.500E-004,4.800E-002,0.000,0.000,0.224,0.000
 ZoneInfiltration Airflow Stats Nominal, DORMITORY LIVING QUARTERS-SPACE FUNCTION INFILTRATION,ALWAYS ON DISCRETE,SP-DORMITORY LIVING QUARTERS-SPACE FUNCTION SYS-3 FLR-2 SCH-G HPLCMT-SOUTH ZN,1875.00,75.0,9.500E-002,5.067E-005,2.500E-004,4.800E-002,0.000,0.000,0.224,0.000
 ZoneInfiltration Airflow Stats Nominal, DWELLING UNITS GENERAL-SPACE FUNCTION INFILTRATION,ALWAYS ON DISCRETE,SP-DWELLING UNITS GENERAL-SPACE FUNCTION SYS-1 FLR-2 SCH-G HPLCMT-WEST ZN,1875.00,75.0,9.500E-002,5.067E-005,2.500E-004,4.800E-002,0.000,0.000,0.224,0.000
 ZoneInfiltration Airflow Stats Nominal, STORAGE ROOM <= 5 M2 <= 100 M2-SCH-I-SPACE FUNCTION INFILTRATION,ALWAYS ON DISCRETE,SP-STORAGE ROOM <= 5 M2 <= 100 M2-SCH-I-SPACE FUNCTION SYS-4 FLR-4 SCH-I HPLCMT-CORE ZN,2500.00,25.0,0.625,2.500E-004,2.500E-004,0.237,0.000,0.000,0.224,0.000
 ZoneInfiltration Airflow Stats Nominal, STORAGE ROOM <= 5 M2 <= 100 M2-SCH-J-SPACE FUNCTION INFILTRATION,ALWAYS ON DISCRETE,SP-STORAGE ROOM <= 5 M2 <= 100 M2-SCH-J-SPACE FUNCTION SYS-4 FLR-4 SCH-J HPLCMT-SOUTH ZN,1875.00,18.8,0.564,3.007E-004,2.500E-004,0.285,0.000,0.000,0.224,0.000
 ZoneInfiltration Airflow Stats Nominal, STORAGE ROOM <= 5 M2 <= 100 M2-SCH-K-SPACE FUNCTION INFILTRATION,ALWAYS ON DISCRETE,SP-STORAGE ROOM <= 5 M2 <= 100 M2-SCH-K-SPACE FUNCTION SYS-4 FLR-4 SCH-K HPLCMT-EAST ZN,1875.00,18.8,0.564,3.007E-004,2.500E-004,0.285,0.000,0.000,0.224,0.000
 ZoneInfiltration Airflow Stats Nominal, STORAGE ROOM > 100 M2-SCH-B-SPACE FUNCTION INFILTRATION,ALWAYS ON DISCRETE,SP-STORAGE ROOM > 100 M2-SCH-B-SPACE FUNCTION SYS-4 FLR-3 SCH-B HPLCMT-SOUTH ZN,1875.00,18.8,9.500E-002,5.067E-005,2.500E-004,4.800E-002,0.000,0.000,0.224,0.000
 ZoneInfiltration Airflow Stats Nominal, STORAGE ROOM > 100 M2-SCH-C-SPACE FUNCTION INFILTRATION,ALWAYS ON DISCRETE,SP-STORAGE ROOM > 100 M2-SCH-C-SPACE FUNCTION SYS-4 FLR-4 SCH-C HPLCMT-NORTH ZN,1875.00,18.8,0.564,3.007E-004,2.500E-004,0.285,0.000,0.000,0.224,0.000
 ZoneInfiltration Airflow Stats Nominal, STORAGE ROOM > 100 M2-SCH-D-SPACE FUNCTION INFILTRATION,ALWAYS ON DISCRETE,SP-STORAGE ROOM > 100 M2-SCH-D-SPACE FUNCTION SYS-4 FLR-3 SCH-D HPLCMT-EAST ZN,1875.00,18.8,9.500E-002,5.067E-005,2.500E-004,4.800E-002,0.000,0.000,0.224,0.000
 ZoneInfiltration Airflow Stats Nominal, STORAGE ROOM > 100 M2-SCH-F-SPACE FUNCTION INFILTRATION,ALWAYS ON DISCRETE,SP-STORAGE ROOM > 100 M2-SCH-F-SPACE FUNCTION SYS-4 FLR-3 SCH-F HPLCMT-NORTH ZN,1875.00,18.8,9.500E-002,5.067E-005,2.500E-004,4.800E-002,0.000,0.000,0.224,0.000
 ZoneInfiltration Airflow Stats Nominal, STORAGE ROOM > 100 M2-SCH-J-SPACE FUNCTION INFILTRATION,ALWAYS ON DISCRETE,SP-STORAGE ROOM > 100 M2-SCH-J-SPACE FUNCTION SYS-4 FLR-4 SCH-J HPLCMT-WEST ZN,1875.00,18.8,0.564,3.007E-004,2.500E-004,0.285,0.000,0.000,0.224,0.000
 ZoneInfiltration Airflow Stats Nominal, STORAGE ROOM > 100 M2-SCH-K-SPACE FUNCTION INFILTRATION,ALWAYS ON DISCRETE,SP-STORAGE ROOM > 100 M2-SCH-K-SPACE FUNCTION SYS-4 FLR-2 SCH-K HPLCMT-NORTH ZN,1875.00,18.8,9.500E-002,5.067E-005,2.500E-004,4.800E-002,0.000,0.000,0.224,0.000
 ZoneInfiltration Airflow Stats Nominal, WORKSHOP-SPACE FUNCTION INFILTRATION,ALWAYS ON DISCRETE,SP-WORKSHOP-SPACE FUNCTION SYS-3 FLR-2 SCH-A HPLCMT-EAST ZN,1875.00,62.5,9.500E-002,5.067E-005,2.500E-004,4.800E-002,0.000,0.000,0.224,0.000
! <AirFlow Model>, Simple
 AirFlow Model, Simple
! <RoomAir Model>, Zone Name, Mixing/Mundt/UCSDDV/UCSDCV/UCSDUFI/UCSDUFE/User Defined
RoomAir Model,SP-CONVENTION CENTRE EXHIBIT SPACE-SPACE FUNCTION SYS-3 FLR-3 SCH-C HPLCMT-WEST ZN,Mixing/Well-Stirred
RoomAir Model,SP-DORMITORY LIVING QUARTERS-SPACE FUNCTION SYS-3 FLR-2 SCH-G HPLCMT-SOUTH ZN,Mixing/Well-Stirred
RoomAir Model,SP-DWELLING UNITS GENERAL-SPACE FUNCTION SYS-1 FLR-2 SCH-G HPLCMT-WEST ZN,Mixing/Well-Stirred
RoomAir Model,SP-DWELLING UNITS LONG-TERM-SPACE FUNCTION SYS-1 FLR-2 SCH-J HPLCMT-CORE ZN,Mixing/Well-Stirred
RoomAir Model,SP-STORAGE ROOM <= 5 M2 <= 100 M2-SCH-I-SPACE FUNCTION SYS-4 FLR-4 SCH-I HPLCMT-CORE ZN,Mixing/Well-Stirred
RoomAir Model,SP-STORAGE ROOM <= 5 M2 <= 100 M2-SCH-J-SPACE FUNCTION SYS-4 FLR-4 SCH-J HPLCMT-SOUTH ZN,Mixing/Well-Stirred
RoomAir Model,SP-STORAGE ROOM <= 5 M2 <= 100 M2-SCH-K-SPACE FUNCTION SYS-4 FLR-4 SCH-K HPLCMT-EAST ZN,Mixing/Well-Stirred
RoomAir Model,SP-STORAGE ROOM > 100 M2-SCH-A-SPACE FUNCTION SYS-4 FLR-3 SCH-A HPLCMT-CORE ZN,Mixing/Well-Stirred
RoomAir Model,SP-STORAGE ROOM > 100 M2-SCH-B-SPACE FUNCTION SYS-4 FLR-3 SCH-B HPLCMT-SOUTH ZN,Mixing/Well-Stirred
RoomAir Model,SP-STORAGE ROOM > 100 M2-SCH-C-SPACE FUNCTION SYS-4 FLR-4 SCH-C HPLCMT-NORTH ZN,Mixing/Well-Stirred
RoomAir Model,SP-STORAGE ROOM > 100 M2-SCH-D-SPACE FUNCTION SYS-4 FLR-3 SCH-D HPLCMT-EAST ZN,Mixing/Well-Stirred
RoomAir Model,SP-STORAGE ROOM > 100 M2-SCH-E-SPACE FUNCTION SYS-4 FLR-1 SCH-E HPLCMT-WEST ZN,Mixing/Well-Stirred
RoomAir Model,SP-STORAGE ROOM > 100 M2-SCH-F-SPACE FUNCTION SYS-4 FLR-3 SCH-F HPLCMT-NORTH ZN,Mixing/Well-Stirred
RoomAir Model,SP-STORAGE ROOM > 100 M2-SCH-G-SPACE FUNCTION SYS-4 FLR-1 SCH-G HPLCMT-NORTH ZN,Mixing/Well-Stirred
RoomAir Model,SP-STORAGE ROOM > 100 M2-SCH-H-SPACE FUNCTION SYS-4 FLR-1 SCH-H HPLCMT-SOUTH ZN,Mixing/Well-Stirred
RoomAir Model,SP-STORAGE ROOM > 100 M2-SCH-I-SPACE FUNCTION SYS-4 FLR-1 SCH-I HPLCMT-CORE ZN,Mixing/Well-Stirred
RoomAir Model,SP-STORAGE ROOM > 100 M2-SCH-J-SPACE FUNCTION SYS-4 FLR-4 SCH-J HPLCMT-WEST ZN,Mixing/Well-Stirred
RoomAir Model,SP-STORAGE ROOM > 100 M2-SCH-K-SPACE FUNCTION SYS-4 FLR-2 SCH-K HPLCMT-NORTH ZN,Mixing/Well-Stirred
RoomAir Model,SP-VEHICLE MAINTENANCE AREA-SPACE FUNCTION SYS-4 FLR-1 SCH-E HPLCMT-EAST ZN,Mixing/Well-Stirred
RoomAir Model,SP-WORKSHOP-SPACE FUNCTION SYS-3 FLR-2 SCH-A HPLCMT-EAST ZN,Mixing/Well-Stirred
! <AirflowNetwork Model:Control>, No Multizone or Distribution/Multizone with Distribution/Multizone without Distribution/Multizone with Distribution only during Fan Operation
AirflowNetwork Model:Control,NoMultizoneOrDistribution
! <Zone Volume Capacitance Multiplier>, Sensible Heat Capacity Multiplier, Moisture Capacity Multiplier, Carbon Dioxide Capacity Multiplier, Generic Contaminant Capacity Multiplier
Zone Volume Capacitance Multiplier,   1.000 ,   1.000,   1.000,   1.000
! <Load Timesteps in Zone Design Calculation Averaging Window>, Value
 Load Timesteps in Zone Design Calculation Averaging Window,    6
! <Heating Sizing Factor Information>, Sizing Factor ID, Value
 Heating Sizing Factor Information, Global,   1.3000    
 Heating Sizing Factor Information, Zone SP-CONVENTION CENTRE EXHIBIT SPACE-SPACE FUNCTION SYS-3 FLR-3 SCH-C HPLCMT-WEST ZN,   1.3000    
 Heating Sizing Factor Information, Zone SP-DORMITORY LIVING QUARTERS-SPACE FUNCTION SYS-3 FLR-2 SCH-G HPLCMT-SOUTH ZN,   1.3000    
 Heating Sizing Factor Information, Zone SP-DWELLING UNITS GENERAL-SPACE FUNCTION SYS-1 FLR-2 SCH-G HPLCMT-WEST ZN,   1.3000    
 Heating Sizing Factor Information, Zone SP-DWELLING UNITS LONG-TERM-SPACE FUNCTION SYS-1 FLR-2 SCH-J HPLCMT-CORE ZN,   1.3000    
 Heating Sizing Factor Information, Zone SP-STORAGE ROOM <= 5 M2 <= 100 M2-SCH-I-SPACE FUNCTION SYS-4 FLR-4 SCH-I HPLCMT-CORE ZN,   1.3000    
 Heating Sizing Factor Information, Zone SP-STORAGE ROOM <= 5 M2 <= 100 M2-SCH-J-SPACE FUNCTION SYS-4 FLR-4 SCH-J HPLCMT-SOUTH ZN,   1.3000    
 Heating Sizing Factor Information, Zone SP-STORAGE ROOM <= 5 M2 <= 100 M2-SCH-K-SPACE FUNCTION SYS-4 FLR-4 SCH-K HPLCMT-EAST ZN,   1.3000    
 Heating Sizing Factor Information, Zone SP-STORAGE ROOM > 100 M2-SCH-A-SPACE FUNCTION SYS-4 FLR-3 SCH-A HPLCMT-CORE ZN,   1.3000    
 Heating Sizing Factor Information, Zone SP-STORAGE ROOM > 100 M2-SCH-B-SPACE FUNCTION SYS-4 FLR-3 SCH-B HPLCMT-SOUTH ZN,   1.3000    
 Heating Sizing Factor Information, Zone SP-STORAGE ROOM > 100 M2-SCH-C-SPACE FUNCTION SYS-4 FLR-4 SCH-C HPLCMT-NORTH ZN,   1.3000    
 Heating Sizing Factor Information, Zone SP-STORAGE ROOM > 100 M2-SCH-D-SPACE FUNCTION SYS-4 FLR-3 SCH-D HPLCMT-EAST ZN,   1.3000    
 Heating Sizing Factor Information, Zone SP-STORAGE ROOM > 100 M2-SCH-E-SPACE FUNCTION SYS-4 FLR-1 SCH-E HPLCMT-WEST ZN,   1.3000    
 Heating Sizing Factor Information, Zone SP-STORAGE ROOM > 100 M2-SCH-F-SPACE FUNCTION SYS-4 FLR-3 SCH-F HPLCMT-NORTH ZN,   1.3000    
 Heating Sizing Factor Information, Zone SP-STORAGE ROOM > 100 M2-SCH-G-SPACE FUNCTION SYS-4 FLR-1 SCH-G HPLCMT-NORTH ZN,   1.3000    
 Heating Sizing Factor Information, Zone SP-STORAGE ROOM > 100 M2-SCH-H-SPACE FUNCTION SYS-4 FLR-1 SCH-H HPLCMT-SOUTH ZN,   1.3000    
 Heating Sizing Factor Information, Zone SP-STORAGE ROOM > 100 M2-SCH-I-SPACE FUNCTION SYS-4 FLR-1 SCH-I HPLCMT-CORE ZN,   1.3000    
 Heating Sizing Factor Information, Zone SP-STORAGE ROOM > 100 M2-SCH-J-SPACE FUNCTION SYS-4 FLR-4 SCH-J HPLCMT-WEST ZN,   1.3000    
 Heating Sizing Factor Information, Zone SP-STORAGE ROOM > 100 M2-SCH-K-SPACE FUNCTION SYS-4 FLR-2 SCH-K HPLCMT-NORTH ZN,   1.3000    
 Heating Sizing Factor Information, Zone SP-VEHICLE MAINTENANCE AREA-SPACE FUNCTION SYS-4 FLR-1 SCH-E HPLCMT-EAST ZN,   1.3000    
 Heating Sizing Factor Information, Zone SP-WORKSHOP-SPACE FUNCTION SYS-3 FLR-2 SCH-A HPLCMT-EAST ZN,   1.3000    
! <Cooling Sizing Factor Information>, Sizing Factor ID, Value
 Cooling Sizing Factor Information, Global,   1.1000    
 Cooling Sizing Factor Information, Zone SP-CONVENTION CENTRE EXHIBIT SPACE-SPACE FUNCTION SYS-3 FLR-3 SCH-C HPLCMT-WEST ZN,   1.1000    
 Cooling Sizing Factor Information, Zone SP-DORMITORY LIVING QUARTERS-SPACE FUNCTION SYS-3 FLR-2 SCH-G HPLCMT-SOUTH ZN,   1.1000    
 Cooling Sizing Factor Information, Zone SP-DWELLING UNITS GENERAL-SPACE FUNCTION SYS-1 FLR-2 SCH-G HPLCMT-WEST ZN,   1.1000    
 Cooling Sizing Factor Information, Zone SP-DWELLING UNITS LONG-TERM-SPACE FUNCTION SYS-1 FLR-2 SCH-J HPLCMT-CORE ZN,   1.1000    
 Cooling Sizing Factor Information, Zone SP-STORAGE ROOM <= 5 M2 <= 100 M2-SCH-I-SPACE FUNCTION SYS-4 FLR-4 SCH-I HPLCMT-CORE ZN,   1.1000    
 Cooling Sizing Factor Information, Zone SP-STORAGE ROOM <= 5 M2 <= 100 M2-SCH-J-SPACE FUNCTION SYS-4 FLR-4 SCH-J HPLCMT-SOUTH ZN,   1.1000    
 Cooling Sizing Factor Information, Zone SP-STORAGE ROOM <= 5 M2 <= 100 M2-SCH-K-SPACE FUNCTION SYS-4 FLR-4 SCH-K HPLCMT-EAST ZN,   1.1000    
 Cooling Sizing Factor Information, Zone SP-STORAGE ROOM > 100 M2-SCH-A-SPACE FUNCTION SYS-4 FLR-3 SCH-A HPLCMT-CORE ZN,   1.1000    
 Cooling Sizing Factor Information, Zone SP-STORAGE ROOM > 100 M2-SCH-B-SPACE FUNCTION SYS-4 FLR-3 SCH-B HPLCMT-SOUTH ZN,   1.1000    
 Cooling Sizing Factor Information, Zone SP-STORAGE ROOM > 100 M2-SCH-C-SPACE FUNCTION SYS-4 FLR-4 SCH-C HPLCMT-NORTH ZN,   1.1000    
 Cooling Sizing Factor Information, Zone SP-STORAGE ROOM > 100 M2-SCH-D-SPACE FUNCTION SYS-4 FLR-3 SCH-D HPLCMT-EAST ZN,   1.1000    
 Cooling Sizing Factor Information, Zone SP-STORAGE ROOM > 100 M2-SCH-E-SPACE FUNCTION SYS-4 FLR-1 SCH-E HPLCMT-WEST ZN,   1.1000    
 Cooling Sizing Factor Information, Zone SP-STORAGE ROOM > 100 M2-SCH-F-SPACE FUNCTION SYS-4 FLR-3 SCH-F HPLCMT-NORTH ZN,   1.1000    
 Cooling Sizing Factor Information, Zone SP-STORAGE ROOM > 100 M2-SCH-G-SPACE FUNCTION SYS-4 FLR-1 SCH-G HPLCMT-NORTH ZN,   1.1000    
 Cooling Sizing Factor Information, Zone SP-STORAGE ROOM > 100 M2-SCH-H-SPACE FUNCTION SYS-4 FLR-1 SCH-H HPLCMT-SOUTH ZN,   1.1000    
 Cooling Sizing Factor Information, Zone SP-STORAGE ROOM > 100 M2-SCH-I-SPACE FUNCTION SYS-4 FLR-1 SCH-I HPLCMT-CORE ZN,   1.1000    
 Cooling Sizing Factor Information, Zone SP-STORAGE ROOM > 100 M2-SCH-J-SPACE FUNCTION SYS-4 FLR-4 SCH-J HPLCMT-WEST ZN,   1.1000    
 Cooling Sizing Factor Information, Zone SP-STORAGE ROOM > 100 M2-SCH-K-SPACE FUNCTION SYS-4 FLR-2 SCH-K HPLCMT-NORTH ZN,   1.1000    
 Cooling Sizing Factor Information, Zone SP-VEHICLE MAINTENANCE AREA-SPACE FUNCTION SYS-4 FLR-1 SCH-E HPLCMT-EAST ZN,   1.1000    
 Cooling Sizing Factor Information, Zone SP-WORKSHOP-SPACE FUNCTION SYS-3 FLR-2 SCH-A HPLCMT-EAST ZN,   1.1000    
! <Zone Sizing Information>, Zone Name, Load Type, Calc Des Load {W}, User Des Load {W}, Calc Des Air Flow Rate {m3/s}, User Des Air Flow Rate {m3/s}, Design Day Name, Date/Time of Peak, Temperature at Peak {C}, Humidity Ratio at Peak {kgWater/kgDryAir}, Floor Area {m2}, # Occupants, Calc Outdoor Air Flow Rate {m3/s}, Calc DOAS Heat Addition Rate {W}
 Zone Sizing Information, SP-CONVENTION CENTRE EXHIBIT SPACE-SPACE FUNCTION SYS-3 FLR-3 SCH-C HPLCMT-WEST ZN, Cooling, 46975.67989, 51673.24788, 3.63108, 3.99419, FORT MCMURRAY AP ANN CLG .4% CONDNS DB=>MWB, 7/21 18:00:00, 25.92400, 8.76969E-003, 1875.00000, 187.56814, 1.61925, 0.00000
 Zone Sizing Information, SP-CONVENTION CENTRE EXHIBIT SPACE-SPACE FUNCTION SYS-3 FLR-3 SCH-C HPLCMT-WEST ZN, Heating, 19973.50593, 25965.55771, 0.77919, 1.61925, FORT MCMURRAY AP ANN HTG 99.6% CONDNS DB, 1/21 09:00:00, -36.20000, 1.25811E-004, 1875.00000, 187.56814, 1.61925, 0.00000
 Zone Sizing Information, SP-DORMITORY LIVING QUARTERS-SPACE FUNCTION SYS-3 FLR-2 SCH-G HPLCMT-SOUTH ZN, Cooling, 20780.41489, 22858.45638, 1.60606, 1.76666, FORT MCMURRAY AP ANN CLG .4% CONDNS DB=>MWB, 7/21 20:00:00, 22.70000, 8.76969E-003, 1875.00000, 75.02726, 1.04775, 0.00000
 Zone Sizing Information, SP-DORMITORY LIVING QUARTERS-SPACE FUNCTION SYS-3 FLR-2 SCH-G HPLCMT-SOUTH ZN, Heating, 4479.07233, 5822.79402, 0.18150, 1.04775, FORT MCMURRAY AP ANN HTG 99.6% CONDNS DB, 1/21 12:00:00, -36.20000, 1.25811E-004, 1875.00000, 75.02726, 1.04775, 0.00000
 Zone Sizing Information, SP-DWELLING UNITS GENERAL-SPACE FUNCTION SYS-1 FLR-2 SCH-G HPLCMT-WEST ZN, Cooling, 32239.58615, 35463.54477, 2.49171, 2.74088, FORT MCMURRAY AP ANN CLG .4% CONDNS DB=>MWB, 7/21 20:00:00, 22.70000, 8.76969E-003, 1875.00000, 75.02726, 0.74295, 0.00000
 Zone Sizing Information, SP-DWELLING UNITS GENERAL-SPACE FUNCTION SYS-1 FLR-2 SCH-G HPLCMT-WEST ZN, Heating, 5571.40218, 7242.82284, 0.22577, 0.74295, FORT MCMURRAY AP ANN HTG 99.6% CONDNS DB, 1/21 10:40:00, -36.20000, 1.25811E-004, 1875.00000, 75.02726, 0.74295, 0.00000
 Zone Sizing Information, SP-DWELLING UNITS LONG-TERM-SPACE FUNCTION SYS-1 FLR-2 SCH-J HPLCMT-CORE ZN, Cooling, 18119.12360, 19931.03596, 1.40035, 1.54038, FORT MCMURRAY AP ANN CLG .4% CONDNS DB=>MWB, 7/21 22:00:00, 20.46800, 8.76969E-003, 2500.00000, 100.03634, 1.39700, 0.00000
 Zone Sizing Information, SP-DWELLING UNITS LONG-TERM-SPACE FUNCTION SYS-1 FLR-2 SCH-J HPLCMT-CORE ZN, Heating, 0.00000, 0.00000, 0.00000, 1.39700, FORT MCMURRAY AP ANN HTG 99.6% CONDNS DB, , -36.20000, 1.25811E-004, 2500.00000, 100.03634, 1.39700, 0.00000
 Zone Sizing Information, SP-STORAGE ROOM <= 5 M2 <= 100 M2-SCH-I-SPACE FUNCTION SYS-4 FLR-4 SCH-I HPLCMT-CORE ZN, Cooling, 67514.69581, 74266.16539, 4.42138, 4.86352, FORT MCMURRAY AP ANN CLG .4% CONDNS DB=>MWB, 7/21 15:00:00, 28.90000, 8.76969E-003, 2500.00000, 25.00909, 0.88900, 0.00000
 Zone Sizing Information, SP-STORAGE ROOM <= 5 M2 <= 100 M2-SCH-I-SPACE FUNCTION SYS-4 FLR-4 SCH-I HPLCMT-CORE ZN, Heating, 36747.45011, 47771.68514, 1.44901, 1.88371, FORT MCMURRAY AP ANN HTG 99.6% CONDNS DB, 1/21 16:00:00, -36.20000, 1.25811E-004, 2500.00000, 25.00909, 0.88900, 0.00000
 Zone Sizing Information, SP-STORAGE ROOM <= 5 M2 <= 100 M2-SCH-J-SPACE FUNCTION SYS-4 FLR-4 SCH-J HPLCMT-SOUTH ZN, Cooling, 49570.64636, 54527.71100, 3.83102, 4.21412, FORT MCMURRAY AP ANN CLG .4% CONDNS DB=>MWB, 7/21 13:30:00, 28.59000, 8.76969E-003, 1875.00000, 18.75681, 0.66675, 0.00000
 Zone Sizing Information, SP-STORAGE ROOM <= 5 M2 <= 100 M2-SCH-J-SPACE FUNCTION SYS-4 FLR-4 SCH-J HPLCMT-SOUTH ZN, Heating, 32983.43640, 42878.46732, 1.33638, 1.73729, FORT MCMURRAY AP ANN HTG 99.6% CONDNS DB, 1/21 05:00:00, -36.20000, 1.25811E-004, 1875.00000, 18.75681, 0.66675, 0.00000
 Zone Sizing Information, SP-STORAGE ROOM <= 5 M2 <= 100 M2-SCH-K-SPACE FUNCTION SYS-4 FLR-4 SCH-K HPLCMT-EAST ZN, Cooling, 0.00000, 0.00000, 0.00000, 0.66675, FORT MCMURRAY AP ANN CLG .4% CONDNS DB=>MWB, , 28.90000, 8.76969E-003, 1875.00000, 18.75681, 0.66675, 0.00000
 Zone Sizing Information, SP-STORAGE ROOM <= 5 M2 <= 100 M2-SCH-K-SPACE FUNCTION SYS-4 FLR-4 SCH-K HPLCMT-EAST ZN, Heating, 0.00000, 0.00000, 0.00000, 0.66675, FORT MCMURRAY AP ANN HTG 99.6% CONDNS DB, , -36.20000, 1.25811E-004, 1875.00000, 18.75681, 0.66675, 0.00000
 Zone Sizing Information, SP-STORAGE ROOM > 100 M2-SCH-A-SPACE FUNCTION SYS-4 FLR-3 SCH-A HPLCMT-CORE ZN, Cooling, 22537.83934, 24791.62327, 1.74182, 1.91600, FORT MCMURRAY AP ANN CLG .4% CONDNS DB=>MWB, 7/21 16:00:00, 28.15600, 8.76969E-003, 2500.00000, 25.00909, 0.88900, 0.00000
 Zone Sizing Information, SP-STORAGE ROOM > 100 M2-SCH-A-SPACE FUNCTION SYS-4 FLR-3 SCH-A HPLCMT-CORE ZN, Heating, 6411.27095, 8334.65224, 0.25660, 0.88900, FORT MCMURRAY AP ANN HTG 99.6% CONDNS DB, 1/21 08:00:00, -36.20000, 1.25811E-004, 2500.00000, 25.00909, 0.88900, 0.00000
 Zone Sizing Information, SP-STORAGE ROOM > 100 M2-SCH-B-SPACE FUNCTION SYS-4 FLR-3 SCH-B HPLCMT-SOUTH ZN, Cooling, 28277.91737, 31105.70910, 2.18543, 2.40397, FORT MCMURRAY AP ANN CLG .4% CONDNS DB=>MWB, 7/21 14:00:00, 28.90000, 8.76969E-003, 1875.00000, 18.75681, 0.66675, 0.00000
 Zone Sizing Information, SP-STORAGE ROOM > 100 M2-SCH-B-SPACE FUNCTION SYS-4 FLR-3 SCH-B HPLCMT-SOUTH ZN, Heating, 21899.82837, 28469.77688, 0.85692, 1.11399, FORT MCMURRAY AP ANN HTG 99.6% CONDNS DB, 1/21 10:00:00, -36.20000, 1.25811E-004, 1875.00000, 18.75681, 0.66675, 0.00000
 Zone Sizing Information, SP-STORAGE ROOM > 100 M2-SCH-C-SPACE FUNCTION SYS-4 FLR-4 SCH-C HPLCMT-NORTH ZN, Cooling, 36354.03594, 39989.43954, 2.80958, 3.09054, FORT MCMURRAY AP ANN CLG .4% CONDNS DB=>MWB, 7/21 14:10:00, 28.90000, 8.76969E-003, 1875.00000, 18.75681, 0.66675, 0.00000
 Zone Sizing Information, SP-STORAGE ROOM > 100 M2-SCH-C-SPACE FUNCTION SYS-4 FLR-4 SCH-C HPLCMT-NORTH ZN, Heating, 45841.69021, 59594.19728, 1.82589, 2.37366, FORT MCMURRAY AP ANN HTG 99.6% CONDNS DB, 1/21 09:00:00, -36.20000, 1.25811E-004, 1875.00000, 18.75681, 0.66675, 0.00000
 Zone Sizing Information, SP-STORAGE ROOM > 100 M2-SCH-D-SPACE FUNCTION SYS-4 FLR-3 SCH-D HPLCMT-EAST ZN, Cooling, 52058.31623, 57264.14785, 3.63265, 3.99591, FORT MCMURRAY AP ANN CLG .4% CONDNS DB=>MWB, 7/21 08:00:00, 19.72400, 8.76969E-003, 1875.00000, 18.75681, 0.66675, 0.00000
 Zone Sizing Information, SP-STORAGE ROOM > 100 M2-SCH-D-SPACE FUNCTION SYS-4 FLR-3 SCH-D HPLCMT-EAST ZN, Heating, 29748.16231, 38672.61101, 1.17523, 1.52779, FORT MCMURRAY AP ANN HTG 99.6% CONDNS DB, 1/21 09:00:00, -36.20000, 1.25811E-004, 1875.00000, 18.75681, 0.66675, 0.00000
 Zone Sizing Information, SP-STORAGE ROOM > 100 M2-SCH-E-SPACE FUNCTION SYS-4 FLR-1 SCH-E HPLCMT-WEST ZN, Cooling, 11071.41354, 12178.55490, 0.85565, 0.94121, FORT MCMURRAY AP ANN CLG .4% CONDNS DB=>MWB, 7/21 18:00:00, 25.92400, 8.76969E-003, 1875.00000, 18.75681, 0.66675, 0.00000
 Zone Sizing Information, SP-STORAGE ROOM > 100 M2-SCH-E-SPACE FUNCTION SYS-4 FLR-1 SCH-E HPLCMT-WEST ZN, Heating, 876.71826, 1139.73374, 3.51616E-002, 0.66675, FORT MCMURRAY AP ANN HTG 99.6% CONDNS DB, 1/21 08:10:00, -36.20000, 1.25811E-004, 1875.00000, 18.75681, 0.66675, 0.00000
 Zone Sizing Information, SP-STORAGE ROOM > 100 M2-SCH-F-SPACE FUNCTION SYS-4 FLR-3 SCH-F HPLCMT-NORTH ZN, Cooling, 16742.74248, 18417.01673, 1.29393, 1.42333, FORT MCMURRAY AP ANN CLG .4% CONDNS DB=>MWB, 7/21 20:30:00, 22.14200, 8.76969E-003, 1875.00000, 18.75681, 0.66675, 0.00000
 Zone Sizing Information, SP-STORAGE ROOM > 100 M2-SCH-F-SPACE FUNCTION SYS-4 FLR-3 SCH-F HPLCMT-NORTH ZN, Heating, 26661.25144, 34659.62687, 1.04999, 1.36499, FORT MCMURRAY AP ANN HTG 99.6% CONDNS DB, 1/21 09:00:00, -36.20000, 1.25811E-004, 1875.00000, 18.75681, 0.66675, 0.00000
 Zone Sizing Information, SP-STORAGE ROOM > 100 M2-SCH-G-SPACE FUNCTION SYS-4 FLR-1 SCH-G HPLCMT-NORTH ZN, Cooling, 10857.85053, 11943.63558, 0.83913, 0.92305, FORT MCMURRAY AP ANN CLG .4% CONDNS DB=>MWB, 7/21 22:00:00, 20.46800, 8.76969E-003, 1875.00000, 18.75681, 0.66675, 0.00000
 Zone Sizing Information, SP-STORAGE ROOM > 100 M2-SCH-G-SPACE FUNCTION SYS-4 FLR-1 SCH-G HPLCMT-NORTH ZN, Heating, 0.00000, 0.00000, 0.00000, 0.66675, FORT MCMURRAY AP ANN HTG 99.6% CONDNS DB, , -36.20000, 1.25811E-004, 1875.00000, 18.75681, 0.66675, 0.00000
 Zone Sizing Information, SP-STORAGE ROOM > 100 M2-SCH-H-SPACE FUNCTION SYS-4 FLR-1 SCH-H HPLCMT-SOUTH ZN, Cooling, 11434.99916, 12578.49908, 0.88375, 0.97212, FORT MCMURRAY AP ANN CLG .4% CONDNS DB=>MWB, 7/21 16:50:00, 27.32933, 8.76969E-003, 1875.00000, 18.75681, 0.66675, 0.00000
 Zone Sizing Information, SP-STORAGE ROOM > 100 M2-SCH-H-SPACE FUNCTION SYS-4 FLR-1 SCH-H HPLCMT-SOUTH ZN, Heating, 0.00000, 0.00000, 0.00000, 0.66675, FORT MCMURRAY AP ANN HTG 99.6% CONDNS DB, , -36.20000, 1.25811E-004, 1875.00000, 18.75681, 0.66675, 0.00000
 Zone Sizing Information, SP-STORAGE ROOM > 100 M2-SCH-I-SPACE FUNCTION SYS-4 FLR-1 SCH-I HPLCMT-CORE ZN, Cooling, 11431.12143, 12574.23357, 0.88343, 0.97178, FORT MCMURRAY AP ANN CLG .4% CONDNS DB=>MWB, 7/21 22:00:00, 20.46800, 8.76969E-003, 2500.00000, 25.00909, 0.88900, 0.00000
 Zone Sizing Information, SP-STORAGE ROOM > 100 M2-SCH-I-SPACE FUNCTION SYS-4 FLR-1 SCH-I HPLCMT-CORE ZN, Heating, 0.00000, 0.00000, 0.00000, 0.88900, FORT MCMURRAY AP ANN HTG 99.6% CONDNS DB, , -36.20000, 1.25811E-004, 2500.00000, 25.00909, 0.88900, 0.00000
 Zone Sizing Information, SP-STORAGE ROOM > 100 M2-SCH-J-SPACE FUNCTION SYS-4 FLR-4 SCH-J HPLCMT-WEST ZN, Cooling, 49217.17652, 54138.89417, 3.80371, 4.18408, FORT MCMURRAY AP ANN CLG .4% CONDNS DB=>MWB, 7/21 16:40:00, 27.49467, 8.76969E-003, 1875.00000, 18.75681, 0.66675, 0.00000
 Zone Sizing Information, SP-STORAGE ROOM > 100 M2-SCH-J-SPACE FUNCTION SYS-4 FLR-4 SCH-J HPLCMT-WEST ZN, Heating, 33528.52859, 43587.08717, 1.35846, 1.76600, FORT MCMURRAY AP ANN HTG 99.6% CONDNS DB, 1/21 05:00:00, -36.20000, 1.25811E-004, 1875.00000, 18.75681, 0.66675, 0.00000
 Zone Sizing Information, SP-STORAGE ROOM > 100 M2-SCH-K-SPACE FUNCTION SYS-4 FLR-2 SCH-K HPLCMT-NORTH ZN, Cooling, 0.00000, 0.00000, 0.00000, 0.66675, FORT MCMURRAY AP ANN CLG .4% CONDNS DB=>MWB, , 28.90000, 8.76969E-003, 1875.00000, 18.75681, 0.66675, 0.00000
 Zone Sizing Information, SP-STORAGE ROOM > 100 M2-SCH-K-SPACE FUNCTION SYS-4 FLR-2 SCH-K HPLCMT-NORTH ZN, Heating, 0.00000, 0.00000, 0.00000, 0.66675, FORT MCMURRAY AP ANN HTG 99.6% CONDNS DB, , -36.20000, 1.25811E-004, 1875.00000, 18.75681, 0.66675, 0.00000
 Zone Sizing Information, SP-VEHICLE MAINTENANCE AREA-SPACE FUNCTION SYS-4 FLR-1 SCH-E HPLCMT-EAST ZN, Cooling, 23593.75100, 25953.12610, 1.82359, 14.28750, FORT MCMURRAY AP ANN CLG .4% CONDNS DB=>MWB, 7/21 13:20:00, 28.48667, 8.76969E-003, 1875.00000, 93.78407, 14.28750, 0.00000
 Zone Sizing Information, SP-VEHICLE MAINTENANCE AREA-SPACE FUNCTION SYS-4 FLR-1 SCH-E HPLCMT-EAST ZN, Heating, 0.00000, 0.00000, 0.00000, 14.28750, FORT MCMURRAY AP ANN HTG 99.6% CONDNS DB, , -36.20000, 1.25811E-004, 1875.00000, 93.78407, 14.28750, 0.00000
 Zone Sizing Information, SP-WORKSHOP-SPACE FUNCTION SYS-3 FLR-2 SCH-A HPLCMT-EAST ZN, Cooling, 50446.43290, 55491.07619, 3.89884, 4.28873, FORT MCMURRAY AP ANN CLG .4% CONDNS DB=>MWB, 7/21 10:00:00, 24.18800, 8.76969E-003, 1875.00000, 62.52271, 3.61950, 0.00000
 Zone Sizing Information, SP-WORKSHOP-SPACE FUNCTION SYS-3 FLR-2 SCH-A HPLCMT-EAST ZN, Heating, 7880.03611, 10244.04695, 0.31027, 3.61950, FORT MCMURRAY AP ANN HTG 99.6% CONDNS DB, 1/21 08:00:00, -36.20000, 1.25811E-004, 1875.00000, 62.52271, 3.61950, 0.00000
! <System Sizing Information>, System Name, Load Type, Peak Load Kind, User Design Capacity, Calc Des Air Flow Rate [m3/s], User Des Air Flow Rate [m3/s], Design Day Name, Date/Time of Peak
 System Sizing Information, SYS_1_MAKE-UP AIR UNIT, Cooling, Sensible, 22049.67, 4.28126, 2.13995, FORT MCMURRAY AP ANN CLG .4% CONDNS DB=>MWB, 7/21 05:00:00
 System Sizing Information, SYS_1_MAKE-UP AIR UNIT, Heating, Sensible, 196284.92, 2.13995, 2.13995, FORT MCMURRAY AP ANN HTG 99.6% CONDNS DB, 1/21 00:10:00
 System Sizing Information, SYS_3_PSZ SP-CONVENTION CENTRE EXHIBIT SPACE-SPACE FUNCTION SYS-3 FLR-3 SCH-C HPLCMT-WEST ZN, Cooling, Sensible, 54486.17, 3.99419, 3.99419, FORT MCMURRAY AP ANN CLG .4% CONDNS DB=>MWB, 7/21 05:00:00
 System Sizing Information, SYS_3_PSZ SP-CONVENTION CENTRE EXHIBIT SPACE-SPACE FUNCTION SYS-3 FLR-3 SCH-C HPLCMT-WEST ZN, Heating, Sensible, 148524.19, 1.61925, 1.61925, FORT MCMURRAY AP ANN HTG 99.6% CONDNS DB, 1/21 00:10:00
 System Sizing Information, SYS_3_PSZ SP-DORMITORY LIVING QUARTERS-SPACE FUNCTION SYS-3 FLR-2 SCH-G HPLCMT-SOUTH ZN, Cooling, Sensible, 20928.31, 1.76666, 1.76666, FORT MCMURRAY AP ANN CLG .4% CONDNS DB=>MWB, 7/21 05:00:00
 System Sizing Information, SYS_3_PSZ SP-DORMITORY LIVING QUARTERS-SPACE FUNCTION SYS-3 FLR-2 SCH-G HPLCMT-SOUTH ZN, Heating, Sensible, 96103.89, 1.04775, 1.04775, FORT MCMURRAY AP ANN HTG 99.6% CONDNS DB, 1/21 00:10:00
 System Sizing Information, SYS_3_PSZ SP-WORKSHOP-SPACE FUNCTION SYS-3 FLR-2 SCH-A HPLCMT-EAST ZN, Cooling, Sensible, 55423.62, 4.28873, 4.28873, FORT MCMURRAY AP ANN CLG .4% CONDNS DB=>MWB, 7/21 05:00:00
 System Sizing Information, SYS_3_PSZ SP-WORKSHOP-SPACE FUNCTION SYS-3 FLR-2 SCH-A HPLCMT-EAST ZN, Heating, Sensible, 331995.26, 3.61950, 3.61950, FORT MCMURRAY AP ANN HTG 99.6% CONDNS DB, 1/21 00:10:00
 System Sizing Information, SYS_4_PSZ_SP-STORAGE ROOM <= 5 M2 <= 100 M2-SCH-I-SPACE FUNCTION SYS-4 FLR-4 SCH-I HPLCMT-CORE ZN, Cooling, Sensible, 66550.86, 4.86352, 4.86352, FORT MCMURRAY AP ANN CLG .4% CONDNS DB=>MWB, 7/21 05:00:00
 System Sizing Information, SYS_4_PSZ_SP-STORAGE ROOM <= 5 M2 <= 100 M2-SCH-I-SPACE FUNCTION SYS-4 FLR-4 SCH-I HPLCMT-CORE ZN, Heating, Sensible, 106020.55, 1.88371, 1.88371, FORT MCMURRAY AP ANN HTG 99.6% CONDNS DB, 1/21 16:00:00
 System Sizing Information, SYS_4_PSZ_SP-STORAGE ROOM <= 5 M2 <= 100 M2-SCH-J-SPACE FUNCTION SYS-4 FLR-4 SCH-J HPLCMT-SOUTH ZN, Cooling, Sensible, 57229.03, 4.21412, 4.21412, FORT MCMURRAY AP ANN CLG .4% CONDNS DB=>MWB, 7/21 05:00:00
 System Sizing Information, SYS_4_PSZ_SP-STORAGE ROOM <= 5 M2 <= 100 M2-SCH-J-SPACE FUNCTION SYS-4 FLR-4 SCH-J HPLCMT-SOUTH ZN, Heating, Sensible, 87194.40, 1.73729, 1.73729, FORT MCMURRAY AP ANN HTG 99.6% CONDNS DB, 1/21 05:00:00
 System Sizing Information, SYS_4_PSZ_SP-STORAGE ROOM <= 5 M2 <= 100 M2-SCH-K-SPACE FUNCTION SYS-4 FLR-4 SCH-K HPLCMT-EAST ZN, Cooling, Sensible, 12277.74, 0.66675, 0.66675, FORT MCMURRAY AP ANN CLG .4% CONDNS DB=>MWB, 7/21 05:00:00
 System Sizing Information, SYS_4_PSZ_SP-STORAGE ROOM <= 5 M2 <= 100 M2-SCH-K-SPACE FUNCTION SYS-4 FLR-4 SCH-K HPLCMT-EAST ZN, Heating, Sensible, 61157.02, 0.66675, 0.66675, FORT MCMURRAY AP ANN HTG 99.6% CONDNS DB, 1/21 00:10:00
 System Sizing Information, SYS_4_PSZ_SP-STORAGE ROOM > 100 M2-SCH-A-SPACE FUNCTION SYS-4 FLR-3 SCH-A HPLCMT-CORE ZN, Cooling, Sensible, 28687.43, 1.91600, 1.91600, FORT MCMURRAY AP ANN CLG .4% CONDNS DB=>MWB, 7/21 05:00:00
 System Sizing Information, SYS_4_PSZ_SP-STORAGE ROOM > 100 M2-SCH-A-SPACE FUNCTION SYS-4 FLR-3 SCH-A HPLCMT-CORE ZN, Heating, Sensible, 81542.70, 0.88900, 0.88900, FORT MCMURRAY AP ANN HTG 99.6% CONDNS DB, 1/21 00:10:00
 System Sizing Information, SYS_4_PSZ_SP-STORAGE ROOM > 100 M2-SCH-B-SPACE FUNCTION SYS-4 FLR-3 SCH-B HPLCMT-SOUTH ZN, Cooling, Sensible, 34408.58, 2.40397, 2.40397, FORT MCMURRAY AP ANN CLG .4% CONDNS DB=>MWB, 7/21 05:00:00
 System Sizing Information, SYS_4_PSZ_SP-STORAGE ROOM > 100 M2-SCH-B-SPACE FUNCTION SYS-4 FLR-3 SCH-B HPLCMT-SOUTH ZN, Heating, Sensible, 72262.88, 1.11399, 1.11399, FORT MCMURRAY AP ANN HTG 99.6% CONDNS DB, 1/21 10:00:00
 System Sizing Information, SYS_4_PSZ_SP-STORAGE ROOM > 100 M2-SCH-C-SPACE FUNCTION SYS-4 FLR-4 SCH-C HPLCMT-NORTH ZN, Cooling, Sensible, 43154.92, 3.09054, 3.09054, FORT MCMURRAY AP ANN CLG .4% CONDNS DB=>MWB, 7/21 05:00:00
 System Sizing Information, SYS_4_PSZ_SP-STORAGE ROOM > 100 M2-SCH-C-SPACE FUNCTION SYS-4 FLR-4 SCH-C HPLCMT-NORTH ZN, Heating, Sensible, 103013.50, 2.37366, 2.37366, FORT MCMURRAY AP ANN HTG 99.6% CONDNS DB, 1/21 09:00:00
 System Sizing Information, SYS_4_PSZ_SP-STORAGE ROOM > 100 M2-SCH-D-SPACE FUNCTION SYS-4 FLR-3 SCH-D HPLCMT-EAST ZN, Cooling, Sensible, 47406.83, 3.99591, 3.99591, FORT MCMURRAY AP ANN CLG .4% CONDNS DB=>MWB, 7/21 05:00:00
 System Sizing Information, SYS_4_PSZ_SP-STORAGE ROOM > 100 M2-SCH-D-SPACE FUNCTION SYS-4 FLR-3 SCH-D HPLCMT-EAST ZN, Heating, Sensible, 82398.97, 1.52779, 1.52779, FORT MCMURRAY AP ANN HTG 99.6% CONDNS DB, 1/21 09:00:00
 System Sizing Information, SYS_4_PSZ_SP-STORAGE ROOM > 100 M2-SCH-E-SPACE FUNCTION SYS-4 FLR-1 SCH-E HPLCMT-WEST ZN, Cooling, Sensible, 13476.11, 0.94121, 0.94121, FORT MCMURRAY AP ANN CLG .4% CONDNS DB=>MWB, 7/21 05:00:00
 System Sizing Information, SYS_4_PSZ_SP-STORAGE ROOM > 100 M2-SCH-E-SPACE FUNCTION SYS-4 FLR-1 SCH-E HPLCMT-WEST ZN, Heating, Sensible, 61157.02, 0.66675, 0.66675, FORT MCMURRAY AP ANN HTG 99.6% CONDNS DB, 1/21 00:10:00
 System Sizing Information, SYS_4_PSZ_SP-STORAGE ROOM > 100 M2-SCH-F-SPACE FUNCTION SYS-4 FLR-3 SCH-F HPLCMT-NORTH ZN, Cooling, Sensible, 16697.58, 1.42333, 1.42333, FORT MCMURRAY AP ANN CLG .4% CONDNS DB=>MWB, 7/21 05:00:00
 System Sizing Information, SYS_4_PSZ_SP-STORAGE ROOM > 100 M2-SCH-F-SPACE FUNCTION SYS-4 FLR-3 SCH-F HPLCMT-NORTH ZN, Heating, Sensible, 78381.52, 1.36499, 1.36499, FORT MCMURRAY AP ANN HTG 99.6% CONDNS DB, 1/21 09:00:00
 System Sizing Information, SYS_4_PSZ_SP-STORAGE ROOM > 100 M2-SCH-G-SPACE FUNCTION SYS-4 FLR-1 SCH-G HPLCMT-NORTH ZN, Cooling, Sensible, 9031.71, 0.92305, 0.92305, FORT MCMURRAY AP ANN CLG .4% CONDNS DB=>MWB, 7/21 05:00:00
 System Sizing Information, SYS_4_PSZ_SP-STORAGE ROOM > 100 M2-SCH-G-SPACE FUNCTION SYS-4 FLR-1 SCH-G HPLCMT-NORTH ZN, Heating, Sensible, 61157.02, 0.66675, 0.66675, FORT MCMURRAY AP ANN HTG 99.6% CONDNS DB, 1/21 00:10:00
 System Sizing Information, SYS_4_PSZ_SP-STORAGE ROOM > 100 M2-SCH-H-SPACE FUNCTION SYS-4 FLR-1 SCH-H HPLCMT-SOUTH ZN, Cooling, Sensible, 14955.06, 0.97212, 0.97212, FORT MCMURRAY AP ANN CLG .4% CONDNS DB=>MWB, 7/21 05:00:00
 System Sizing Information, SYS_4_PSZ_SP-STORAGE ROOM > 100 M2-SCH-H-SPACE FUNCTION SYS-4 FLR-1 SCH-H HPLCMT-SOUTH ZN, Heating, Sensible, 61157.02, 0.66675, 0.66675, FORT MCMURRAY AP ANN HTG 99.6% CONDNS DB, 1/21 00:10:00
 System Sizing Information, SYS_4_PSZ_SP-STORAGE ROOM > 100 M2-SCH-I-SPACE FUNCTION SYS-4 FLR-1 SCH-I HPLCMT-CORE ZN, Cooling, Sensible, 8743.42, 0.97178, 0.97178, FORT MCMURRAY AP ANN CLG .4% CONDNS DB=>MWB, 7/21 05:00:00
 System Sizing Information, SYS_4_PSZ_SP-STORAGE ROOM > 100 M2-SCH-I-SPACE FUNCTION SYS-4 FLR-1 SCH-I HPLCMT-CORE ZN, Heating, Sensible, 81542.70, 0.88900, 0.88900, FORT MCMURRAY AP ANN HTG 99.6% CONDNS DB, 1/21 00:10:00
 System Sizing Information, SYS_4_PSZ_SP-STORAGE ROOM > 100 M2-SCH-J-SPACE FUNCTION SYS-4 FLR-4 SCH-J HPLCMT-WEST ZN, Cooling, Sensible, 56000.44, 4.18408, 4.18408, FORT MCMURRAY AP ANN CLG .4% CONDNS DB=>MWB, 7/21 05:00:00
 System Sizing Information, SYS_4_PSZ_SP-STORAGE ROOM > 100 M2-SCH-J-SPACE FUNCTION SYS-4 FLR-4 SCH-J HPLCMT-WEST ZN, Heating, Sensible, 87892.69, 1.76600, 1.76600, FORT MCMURRAY AP ANN HTG 99.6% CONDNS DB, 1/21 05:00:00
 System Sizing Information, SYS_4_PSZ_SP-STORAGE ROOM > 100 M2-SCH-K-SPACE FUNCTION SYS-4 FLR-2 SCH-K HPLCMT-NORTH ZN, Cooling, Sensible, 12277.74, 0.66675, 0.66675, FORT MCMURRAY AP ANN CLG .4% CONDNS DB=>MWB, 7/21 05:00:00
 System Sizing Information, SYS_4_PSZ_SP-STORAGE ROOM > 100 M2-SCH-K-SPACE FUNCTION SYS-4 FLR-2 SCH-K HPLCMT-NORTH ZN, Heating, Sensible, 61157.02, 0.66675, 0.66675, FORT MCMURRAY AP ANN HTG 99.6% CONDNS DB, 1/21 00:10:00
 System Sizing Information, SYS_4_PSZ_SP-VEHICLE MAINTENANCE AREA-SPACE FUNCTION SYS-4 FLR-1 SCH-E HPLCMT-EAST ZN, Cooling, Sensible, 256254.98, 14.28750, 14.28750, FORT MCMURRAY AP ANN CLG .4% CONDNS DB=>MWB, 7/21 05:00:00
 System Sizing Information, SYS_4_PSZ_SP-VEHICLE MAINTENANCE AREA-SPACE FUNCTION SYS-4 FLR-1 SCH-E HPLCMT-EAST ZN, Heating, Sensible, 1310507.60, 14.28750, 14.28750, FORT MCMURRAY AP ANN HTG 99.6% CONDNS DB, 1/21 00:10:00
! <Component Sizing Information>, Component Type, Component Name, Input Field Description, Value
 Component Sizing Information, AirTerminal:SingleDuct:Uncontrolled, AIR TERMINAL SINGLE DUCT UNCONTROLLED 5, Design Size Maximum Air Flow Rate [m3/s], 3.99419
 Component Sizing Information, ZoneHVAC:Baseboard:Convective:Water, ZONE HVAC BASEBOARD CONVECTIVE WATER 5, Design Size Maximum Water Flow Rate [m3/s], 3.87817E-004
 Component Sizing Information, ZoneHVAC:Baseboard:Convective:Water, ZONE HVAC BASEBOARD CONVECTIVE WATER 5, Design Size U-Factor Times Area Value [W/K], 787.31569
 Component Sizing Information, AirTerminal:SingleDuct:Uncontrolled, AIR TERMINAL SINGLE DUCT UNCONTROLLED 3, Design Size Maximum Air Flow Rate [m3/s], 1.76666
 Component Sizing Information, ZoneHVAC:Baseboard:Convective:Water, ZONE HVAC BASEBOARD CONVECTIVE WATER 3, Design Size Maximum Water Flow Rate [m3/s], 8.69682E-005
 Component Sizing Information, ZoneHVAC:Baseboard:Convective:Water, ZONE HVAC BASEBOARD CONVECTIVE WATER 3, Design Size U-Factor Times Area Value [W/K], 176.05242
 Component Sizing Information, ZoneHVAC:PackagedTerminalAirConditioner, SP-DWELLING UNITS GENERAL-SPACE FUNCTION SYS-1 FLR-2 SCH-G HPLCMT-WEST ZN PTAC, Design Size Cooling Supply Air Flow Rate [m3/s], 2.74088
 Component Sizing Information, ZoneHVAC:PackagedTerminalAirConditioner, SP-DWELLING UNITS GENERAL-SPACE FUNCTION SYS-1 FLR-2 SCH-G HPLCMT-WEST ZN PTAC, Design Size Heating Supply Air Flow Rate [m3/s], 2.74088
 Component Sizing Information, ZoneHVAC:PackagedTerminalAirConditioner, SP-DWELLING UNITS GENERAL-SPACE FUNCTION SYS-1 FLR-2 SCH-G HPLCMT-WEST ZN PTAC, Design Size No Load Supply Air Flow Rate [m3/s], 2.74088
 Component Sizing Information, ZoneHVAC:PackagedTerminalAirConditioner, SP-DWELLING UNITS GENERAL-SPACE FUNCTION SYS-1 FLR-2 SCH-G HPLCMT-WEST ZN PTAC, Design Size Outdoor Air Flow Rate During Cooling Operation [m3/s], 0.74295
 Component Sizing Information, ZoneHVAC:PackagedTerminalAirConditioner, SP-DWELLING UNITS GENERAL-SPACE FUNCTION SYS-1 FLR-2 SCH-G HPLCMT-WEST ZN PTAC, Design Size Outdoor Air Flow Rate During Heating Operation [m3/s], 0.74295
 Component Sizing Information, ZoneHVAC:PackagedTerminalAirConditioner, SP-DWELLING UNITS GENERAL-SPACE FUNCTION SYS-1 FLR-2 SCH-G HPLCMT-WEST ZN PTAC, Design Size Outdoor Air Flow Rate When No Cooling or Heating is Needed [m3/s], 0.74295
 Component Sizing Information, Coil:Cooling:DX:SingleSpeed, COIL COOLING DX SINGLE SPEED 2 155KBTU/HR 9.3EER, Design Size Rated Air Flow Rate [m3/s], 2.74088
 Component Sizing Information, Coil:Cooling:DX:SingleSpeed, COIL COOLING DX SINGLE SPEED 2 155KBTU/HR 9.3EER, Design Size Gross Rated Total Cooling Capacity [W], 45371.22418
 Component Sizing Information, Coil:Cooling:DX:SingleSpeed, COIL COOLING DX SINGLE SPEED 2 155KBTU/HR 9.3EER, Design Size Gross Rated Sensible Heat Ratio, 0.80066
! <DX Cooling Coil Standard Rating Information>, Component Type, Component Name, Standard Rating (Net) Cooling Capacity {W}, Standard Rated Net COP {W/W}, EER {Btu/W-h}, SEER {Btu/W-h}, IEER {Btu/W-h}
 DX Cooling Coil Standard Rating Information, Coil:Cooling:DX:SingleSpeed, COIL COOLING DX SINGLE SPEED 2 155KBTU/HR 9.3EER, 43240.7, 2.70, 9.20, 9.71, 9.20
 Component Sizing Information, Coil:Heating:Electric, COIL HEATING ELECTRIC 1, Design Size Nominal Capacity [W], 69153.68030
 Component Sizing Information, Fan:ConstantVolume, FAN CONSTANT VOLUME 2, Design Size Maximum Flow Rate [m3/s], 2.74088
 Component Sizing Information, ZoneHVAC:Baseboard:Convective:Water, ZONE HVAC BASEBOARD CONVECTIVE WATER 1, Design Size Maximum Water Flow Rate [m3/s], 1.08177E-004
 Component Sizing Information, ZoneHVAC:Baseboard:Convective:Water, ZONE HVAC BASEBOARD CONVECTIVE WATER 1, Design Size U-Factor Times Area Value [W/K], 218.94530
 Component Sizing Information, AirTerminal:SingleDuct:Uncontrolled, AIR TERMINAL SINGLE DUCT UNCONTROLLED 1, Design Size Maximum Air Flow Rate [m3/s], 0.74295
 Component Sizing Information, ZoneHVAC:PackagedTerminalAirConditioner, SP-DWELLING UNITS LONG-TERM-SPACE FUNCTION SYS-1 FLR-2 SCH-J HPLCMT-CORE ZN PTAC, Design Size Cooling Supply Air Flow Rate [m3/s], 1.54038
 Component Sizing Information, ZoneHVAC:PackagedTerminalAirConditioner, SP-DWELLING UNITS LONG-TERM-SPACE FUNCTION SYS-1 FLR-2 SCH-J HPLCMT-CORE ZN PTAC, Design Size Heating Supply Air Flow Rate [m3/s], 1.54038
 Component Sizing Information, ZoneHVAC:PackagedTerminalAirConditioner, SP-DWELLING UNITS LONG-TERM-SPACE FUNCTION SYS-1 FLR-2 SCH-J HPLCMT-CORE ZN PTAC, Design Size No Load Supply Air Flow Rate [m3/s], 1.54038
 Component Sizing Information, ZoneHVAC:PackagedTerminalAirConditioner, SP-DWELLING UNITS LONG-TERM-SPACE FUNCTION SYS-1 FLR-2 SCH-J HPLCMT-CORE ZN PTAC, Design Size Outdoor Air Flow Rate During Cooling Operation [m3/s], 1.39700
 Component Sizing Information, ZoneHVAC:PackagedTerminalAirConditioner, SP-DWELLING UNITS LONG-TERM-SPACE FUNCTION SYS-1 FLR-2 SCH-J HPLCMT-CORE ZN PTAC, Design Size Outdoor Air Flow Rate During Heating Operation [m3/s], 1.39700
 Component Sizing Information, ZoneHVAC:PackagedTerminalAirConditioner, SP-DWELLING UNITS LONG-TERM-SPACE FUNCTION SYS-1 FLR-2 SCH-J HPLCMT-CORE ZN PTAC, Design Size Outdoor Air Flow Rate When No Cooling or Heating is Needed [m3/s], 1.39700
 Component Sizing Information, Coil:Cooling:DX:SingleSpeed, COIL COOLING DX SINGLE SPEED 3 87KBTU/HR 9.3EER, Design Size Rated Air Flow Rate [m3/s], 1.54038
 Component Sizing Information, Coil:Cooling:DX:SingleSpeed, COIL COOLING DX SINGLE SPEED 3 87KBTU/HR 9.3EER, Design Size Gross Rated Total Cooling Capacity [W], 25498.81512
 Component Sizing Information, Coil:Cooling:DX:SingleSpeed, COIL COOLING DX SINGLE SPEED 3 87KBTU/HR 9.3EER, Design Size Gross Rated Sensible Heat Ratio, 0.80066
 DX Cooling Coil Standard Rating Information, Coil:Cooling:DX:SingleSpeed, COIL COOLING DX SINGLE SPEED 3 87KBTU/HR 9.3EER, 24301.4, 2.66, 9.08, 9.58, 9.09
 Component Sizing Information, Coil:Heating:Electric, COIL HEATING ELECTRIC 2, Design Size Nominal Capacity [W], 34478.33063
 Component Sizing Information, Fan:ConstantVolume, FAN CONSTANT VOLUME 3, Design Size Maximum Flow Rate [m3/s], 1.54038
 Component Sizing Information, ZoneHVAC:Baseboard:Convective:Water, ZONE HVAC BASEBOARD CONVECTIVE WATER 2, Design Size Maximum Water Flow Rate [m3/s], 0.00000
 Component Sizing Information, ZoneHVAC:Baseboard:Convective:Water, ZONE HVAC BASEBOARD CONVECTIVE WATER 2, Design Size U-Factor Times Area Value [W/K], 0.00000
 Component Sizing Information, AirTerminal:SingleDuct:Uncontrolled, AIR TERMINAL SINGLE DUCT UNCONTROLLED 2, Design Size Maximum Air Flow Rate [m3/s], 1.39700
 Component Sizing Information, AirTerminal:SingleDuct:Uncontrolled, AIR TERMINAL SINGLE DUCT UNCONTROLLED 19, Design Size Maximum Air Flow Rate [m3/s], 4.86352
 Component Sizing Information, ZoneHVAC:Baseboard:Convective:Water, ZONE HVAC BASEBOARD CONVECTIVE WATER 19, Design Size Maximum Water Flow Rate [m3/s], 7.13509E-004
 Component Sizing Information, ZoneHVAC:Baseboard:Convective:Water, ZONE HVAC BASEBOARD CONVECTIVE WATER 19, Design Size U-Factor Times Area Value [W/K], 1457.58367
 Component Sizing Information, AirTerminal:SingleDuct:Uncontrolled, AIR TERMINAL SINGLE DUCT UNCONTROLLED 18, Design Size Maximum Air Flow Rate [m3/s], 4.21412
 Component Sizing Information, ZoneHVAC:Baseboard:Convective:Water, ZONE HVAC BASEBOARD CONVECTIVE WATER 18, Design Size Maximum Water Flow Rate [m3/s], 6.40425E-004
 Component Sizing Information, ZoneHVAC:Baseboard:Convective:Water, ZONE HVAC BASEBOARD CONVECTIVE WATER 18, Design Size U-Factor Times Area Value [W/K], 1306.98281
 Component Sizing Information, AirTerminal:SingleDuct:Uncontrolled, AIR TERMINAL SINGLE DUCT UNCONTROLLED 20, Design Size Maximum Air Flow Rate [m3/s], 0.66675
 Component Sizing Information, ZoneHVAC:Baseboard:Convective:Water, ZONE HVAC BASEBOARD CONVECTIVE WATER 20, Design Size Maximum Water Flow Rate [m3/s], 0.00000
 Component Sizing Information, ZoneHVAC:Baseboard:Convective:Water, ZONE HVAC BASEBOARD CONVECTIVE WATER 20, Design Size U-Factor Times Area Value [W/K], 0.00000
 Component Sizing Information, AirTerminal:SingleDuct:Uncontrolled, AIR TERMINAL SINGLE DUCT UNCONTROLLED 12, Design Size Maximum Air Flow Rate [m3/s], 1.91600
 Component Sizing Information, ZoneHVAC:Baseboard:Convective:Water, ZONE HVAC BASEBOARD CONVECTIVE WATER 12, Design Size Maximum Water Flow Rate [m3/s], 1.24485E-004
 Component Sizing Information, ZoneHVAC:Baseboard:Convective:Water, ZONE HVAC BASEBOARD CONVECTIVE WATER 12, Design Size U-Factor Times Area Value [W/K], 252.58123
 Component Sizing Information, AirTerminal:SingleDuct:Uncontrolled, AIR TERMINAL SINGLE DUCT UNCONTROLLED 13, Design Size Maximum Air Flow Rate [m3/s], 2.40397
 Component Sizing Information, ZoneHVAC:Baseboard:Convective:Water, ZONE HVAC BASEBOARD CONVECTIVE WATER 13, Design Size Maximum Water Flow Rate [m3/s], 4.25219E-004
 Component Sizing Information, ZoneHVAC:Baseboard:Convective:Water, ZONE HVAC BASEBOARD CONVECTIVE WATER 13, Design Size U-Factor Times Area Value [W/K], 867.72410
 Component Sizing Information, AirTerminal:SingleDuct:Uncontrolled, AIR TERMINAL SINGLE DUCT UNCONTROLLED 16, Design Size Maximum Air Flow Rate [m3/s], 3.09054
 Component Sizing Information, ZoneHVAC:Baseboard:Convective:Water, ZONE HVAC BASEBOARD CONVECTIVE WATER 16, Design Size Maximum Water Flow Rate [m3/s], 8.90088E-004
 Component Sizing Information, ZoneHVAC:Baseboard:Convective:Water, ZONE HVAC BASEBOARD CONVECTIVE WATER 16, Design Size U-Factor Times Area Value [W/K], 1816.98775
 Component Sizing Information, AirTerminal:SingleDuct:Uncontrolled, AIR TERMINAL SINGLE DUCT UNCONTROLLED 14, Design Size Maximum Air Flow Rate [m3/s], 3.99591
 Component Sizing Information, ZoneHVAC:Baseboard:Convective:Water, ZONE HVAC BASEBOARD CONVECTIVE WATER 14, Design Size Maximum Water Flow Rate [m3/s], 5.77607E-004
 Component Sizing Information, ZoneHVAC:Baseboard:Convective:Water, ZONE HVAC BASEBOARD CONVECTIVE WATER 14, Design Size U-Factor Times Area Value [W/K], 1178.73672
 Component Sizing Information, AirTerminal:SingleDuct:Uncontrolled, AIR TERMINAL SINGLE DUCT UNCONTROLLED 9, Design Size Maximum Air Flow Rate [m3/s], 0.94121
 Component Sizing Information, ZoneHVAC:Baseboard:Convective:Water, ZONE HVAC BASEBOARD CONVECTIVE WATER 9, Design Size Maximum Water Flow Rate [m3/s], 1.70228E-005
 Component Sizing Information, ZoneHVAC:Baseboard:Convective:Water, ZONE HVAC BASEBOARD CONVECTIVE WATER 9, Design Size U-Factor Times Area Value [W/K], 22.13048
 Component Sizing Information, AirTerminal:SingleDuct:Uncontrolled, AIR TERMINAL SINGLE DUCT UNCONTROLLED 15, Design Size Maximum Air Flow Rate [m3/s], 1.42333
 Component Sizing Information, ZoneHVAC:Baseboard:Convective:Water, ZONE HVAC BASEBOARD CONVECTIVE WATER 15, Design Size Maximum Water Flow Rate [m3/s], 5.17670E-004
 Component Sizing Information, ZoneHVAC:Baseboard:Convective:Water, ZONE HVAC BASEBOARD CONVECTIVE WATER 15, Design Size U-Factor Times Area Value [W/K], 1055.97575
 Component Sizing Information, AirTerminal:SingleDuct:Uncontrolled, AIR TERMINAL SINGLE DUCT UNCONTROLLED 6, Design Size Maximum Air Flow Rate [m3/s], 0.92305
 Component Sizing Information, ZoneHVAC:Baseboard:Convective:Water, ZONE HVAC BASEBOARD CONVECTIVE WATER 6, Design Size Maximum Water Flow Rate [m3/s], 0.00000
 Component Sizing Information, ZoneHVAC:Baseboard:Convective:Water, ZONE HVAC BASEBOARD CONVECTIVE WATER 6, Design Size U-Factor Times Area Value [W/K], 0.00000
 Component Sizing Information, AirTerminal:SingleDuct:Uncontrolled, AIR TERMINAL SINGLE DUCT UNCONTROLLED 10, Design Size Maximum Air Flow Rate [m3/s], 0.97212
 Component Sizing Information, ZoneHVAC:Baseboard:Convective:Water, ZONE HVAC BASEBOARD CONVECTIVE WATER 10, Design Size Maximum Water Flow Rate [m3/s], 0.00000
 Component Sizing Information, ZoneHVAC:Baseboard:Convective:Water, ZONE HVAC BASEBOARD CONVECTIVE WATER 10, Design Size U-Factor Times Area Value [W/K], 0.00000
 Component Sizing Information, AirTerminal:SingleDuct:Uncontrolled, AIR TERMINAL SINGLE DUCT UNCONTROLLED 7, Design Size Maximum Air Flow Rate [m3/s], 0.97178
 Component Sizing Information, ZoneHVAC:Baseboard:Convective:Water, ZONE HVAC BASEBOARD CONVECTIVE WATER 7, Design Size Maximum Water Flow Rate [m3/s], 0.00000
 Component Sizing Information, ZoneHVAC:Baseboard:Convective:Water, ZONE HVAC BASEBOARD CONVECTIVE WATER 7, Design Size U-Factor Times Area Value [W/K], 0.00000
 Component Sizing Information, AirTerminal:SingleDuct:Uncontrolled, AIR TERMINAL SINGLE DUCT UNCONTROLLED 17, Design Size Maximum Air Flow Rate [m3/s], 4.18408
 Component Sizing Information, ZoneHVAC:Baseboard:Convective:Water, ZONE HVAC BASEBOARD CONVECTIVE WATER 17, Design Size Maximum Water Flow Rate [m3/s], 6.51009E-004
 Component Sizing Information, ZoneHVAC:Baseboard:Convective:Water, ZONE HVAC BASEBOARD CONVECTIVE WATER 17, Design Size U-Factor Times Area Value [W/K], 1328.57480
 Component Sizing Information, AirTerminal:SingleDuct:Uncontrolled, AIR TERMINAL SINGLE DUCT UNCONTROLLED 11, Design Size Maximum Air Flow Rate [m3/s], 0.66675
 Component Sizing Information, ZoneHVAC:Baseboard:Convective:Water, ZONE HVAC BASEBOARD CONVECTIVE WATER 11, Design Size Maximum Water Flow Rate [m3/s], 0.00000
[...]
 Component Sizing Information, Controller:OutdoorAir, CONTROLLER OUTDOOR AIR 6, Minimum Outdoor Air Flow Rate [m3/s], 0.88900
 Component Sizing Information, HeatExchanger:AirToAir:SensibleAndLatent, SYS_4_PSZ_SP-STORAGE ROOM > 100 M2-SCH-I-SPACE FUNCTION SYS-4 FLR-1 SCH-I HPLCMT-CORE ZN ERV, Design Size Nominal Supply Air Flow Rate [m3/s], 0.88900
 Component Sizing Information, Coil:Cooling:DX:SingleSpeed, COIL COOLING DX SINGLE SPEED 8 55KBTU/HR 14.0SEER, Design Size Rated Air Flow Rate [m3/s], 0.97178
 Component Sizing Information, Coil:Cooling:DX:SingleSpeed, COIL COOLING DX SINGLE SPEED 8 55KBTU/HR 14.0SEER, Design Size Gross Rated Total Cooling Capacity [W], 16086.35876
 Component Sizing Information, Coil:Cooling:DX:SingleSpeed, COIL COOLING DX SINGLE SPEED 8 55KBTU/HR 14.0SEER, Design Size Gross Rated Sensible Heat Ratio, 0.80066
 DX Cooling Coil Standard Rating Information, Coil:Cooling:DX:SingleSpeed, COIL COOLING DX SINGLE SPEED 8 55KBTU/HR 14.0SEER, 15331.0, 3.09, 10.55, 11.12, 10.40
 Component Sizing Information, Coil:Heating:Fuel, COIL HEATING GAS 5, Design Size Nominal Capacity [W], 83555.89423
 Component Sizing Information, Fan:ConstantVolume, FAN CONSTANT VOLUME 8, Design Size Maximum Flow Rate [m3/s], 0.97178
 Component Sizing Information, Controller:OutdoorAir, CONTROLLER OUTDOOR AIR 16, Maximum Outdoor Air Flow Rate [m3/s], 4.18408
 Component Sizing Information, Controller:OutdoorAir, CONTROLLER OUTDOOR AIR 16, Minimum Outdoor Air Flow Rate [m3/s], 0.66675
 Component Sizing Information, HeatExchanger:AirToAir:SensibleAndLatent, SYS_4_PSZ_SP-STORAGE ROOM > 100 M2-SCH-J-SPACE FUNCTION SYS-4 FLR-4 SCH-J HPLCMT-WEST ZN ERV, Design Size Nominal Supply Air Flow Rate [m3/s], 0.66675
 Component Sizing Information, Coil:Cooling:DX:SingleSpeed, COIL COOLING DX SINGLE SPEED 18 236KBTU/HR 9.08EER, Design Size Rated Air Flow Rate [m3/s], 4.18408
 Component Sizing Information, Coil:Cooling:DX:SingleSpeed, COIL COOLING DX SINGLE SPEED 18 236KBTU/HR 9.08EER, Design Size Gross Rated Total Cooling Capacity [W], 69261.33978
 Component Sizing Information, Coil:Cooling:DX:SingleSpeed, COIL COOLING DX SINGLE SPEED 18 236KBTU/HR 9.08EER, Design Size Gross Rated Sensible Heat Ratio, 0.80066
 DX Cooling Coil Standard Rating Information, Coil:Cooling:DX:SingleSpeed, COIL COOLING DX SINGLE SPEED 18 236KBTU/HR 9.08EER, 66009.0, 2.68, 9.15, 9.65, 9.16
 Component Sizing Information, Coil:Heating:Fuel, COIL HEATING GAS 15, Design Size Nominal Capacity [W], 146704.61291
 Component Sizing Information, Fan:ConstantVolume, FAN CONSTANT VOLUME 18, Design Size Maximum Flow Rate [m3/s], 4.18408
 Component Sizing Information, Controller:OutdoorAir, CONTROLLER OUTDOOR AIR 10, Maximum Outdoor Air Flow Rate [m3/s], 0.66675
 Component Sizing Information, Controller:OutdoorAir, CONTROLLER OUTDOOR AIR 10, Minimum Outdoor Air Flow Rate [m3/s], 0.66675
 Component Sizing Information, HeatExchanger:AirToAir:SensibleAndLatent, SYS_4_PSZ_SP-STORAGE ROOM > 100 M2-SCH-K-SPACE FUNCTION SYS-4 FLR-2 SCH-K HPLCMT-NORTH ZN ERV, Design Size Nominal Supply Air Flow Rate [m3/s], 0.66675
 Component Sizing Information, Coil:Cooling:DX:SingleSpeed, COIL COOLING DX SINGLE SPEED 12 43KBTU/HR 14.0SEER, Design Size Rated Air Flow Rate [m3/s], 0.66675
 Component Sizing Information, Coil:Cooling:DX:SingleSpeed, COIL COOLING DX SINGLE SPEED 12 43KBTU/HR 14.0SEER, Design Size Gross Rated Total Cooling Capacity [W], 13407.19007
 Component Sizing Information, Coil:Cooling:DX:SingleSpeed, COIL COOLING DX SINGLE SPEED 12 43KBTU/HR 14.0SEER, Design Size Gross Rated Sensible Heat Ratio, 0.77066
 DX Cooling Coil Standard Rating Information, Coil:Cooling:DX:SingleSpeed, COIL COOLING DX SINGLE SPEED 12 43KBTU/HR 14.0SEER, 12888.3, 3.21, 10.94, 11.54, 10.97
 Component Sizing Information, Coil:Heating:Fuel, COIL HEATING GAS 9, Design Size Nominal Capacity [W], 61157.02130
 Component Sizing Information, Fan:ConstantVolume, FAN CONSTANT VOLUME 12, Design Size Maximum Flow Rate [m3/s], 0.66675
 Component Sizing Information, Controller:OutdoorAir, CONTROLLER OUTDOOR AIR 7, Maximum Outdoor Air Flow Rate [m3/s], 14.28750
 Component Sizing Information, Controller:OutdoorAir, CONTROLLER OUTDOOR AIR 7, Minimum Outdoor Air Flow Rate [m3/s], 14.28750
 Component Sizing Information, HeatExchanger:AirToAir:SensibleAndLatent, SYS_4_PSZ_SP-VEHICLE MAINTENANCE AREA-SPACE FUNCTION SYS-4 FLR-1 SCH-E HPLCMT-EAST ZN ERV, Design Size Nominal Supply Air Flow Rate [m3/s], 14.28750
 Component Sizing Information, Coil:Cooling:DX:SingleSpeed, COIL COOLING DX SINGLE SPEED 9 899KBTU/HR 7.94EER, Design Size Rated Air Flow Rate [m3/s], 14.28750
 Component Sizing Information, Coil:Cooling:DX:SingleSpeed, COIL COOLING DX SINGLE SPEED 9 899KBTU/HR 7.94EER, Design Size Gross Rated Total Cooling Capacity [W], 281073.40526
 Component Sizing Information, Coil:Cooling:DX:SingleSpeed, COIL COOLING DX SINGLE SPEED 9 899KBTU/HR 7.94EER, Design Size Gross Rated Sensible Heat Ratio, 0.77936
 DX Cooling Coil Standard Rating Information, Coil:Cooling:DX:SingleSpeed, COIL COOLING DX SINGLE SPEED 9 899KBTU/HR 7.94EER, 269956.7, 2.76, 9.43, 9.96, 9.58
 Component Sizing Information, Coil:Heating:Fuel, COIL HEATING GAS 6, Design Size Nominal Capacity [W], 1310507.59921
 Component Sizing Information, Fan:ConstantVolume, FAN CONSTANT VOLUME 9, Design Size Maximum Flow Rate [m3/s], 14.28750
Water Heater Information,WaterHeater:Mixed,628GAL NATURALGAS WATER HEATER - 926KBTU/HR 0.803 THERM EFF,2.3761,271401.6,0.297,0.3005
 Component Sizing Information, PlantLoop, HOT WATER LOOP, Maximum Loop Flow Rate [m3/s], 8.22467E-003
 Component Sizing Information, PlantLoop, HOT WATER LOOP, Plant Loop Volume [m3], 0.98696
 Component Sizing Information, Pump:VariableSpeed, PUMP VARIABLE SPEED 1, Design Flow Rate [m3/s], 8.22467E-003
 Component Sizing Information, Pump:VariableSpeed, PUMP VARIABLE SPEED 1, Design Power Consumption [W], 2113.03778
 Component Sizing Information, Boiler:HotWater, PRIMARY BOILER 1886KBTU/HR 0.83 THERMAL EFF, Design Size Nominal Capacity [W], 552799.59310
 Component Sizing Information, Boiler:HotWater, PRIMARY BOILER 1886KBTU/HR 0.83 THERMAL EFF, User-Specified Nominal Capacity [W], 552799.59310
 Component Sizing Information, Boiler:HotWater, PRIMARY BOILER 1886KBTU/HR 0.83 THERMAL EFF, Design Size Design Water Flow Rate [m3/s], 8.22467E-003
 Component Sizing Information, Boiler:HotWater, SECONDARY BOILER 0KBTU/HR 0.85 AFUE, Design Size Nominal Capacity [W], 552799.59310
 Component Sizing Information, Boiler:HotWater, SECONDARY BOILER 0KBTU/HR 0.85 AFUE, User-Specified Nominal Capacity [W], 1.00000E-003
 Component Sizing Information, Boiler:HotWater, SECONDARY BOILER 0KBTU/HR 0.85 AFUE, Design Size Design Water Flow Rate [m3/s], 8.22467E-003
 Component Sizing Information, PlantLoop, MAIN SERVICE WATER LOOP, Maximum Loop Flow Rate [m3/s], 1.21660E-003
 Component Sizing Information, PlantLoop, MAIN SERVICE WATER LOOP, Plant Loop Volume [m3], 0.14599
 Component Sizing Information, Pump:ConstantSpeed, SERVICE WATER LOOP PUMP, Design Flow Rate [m3/s], 1.21660E-003
 Component Sizing Information, Pump:ConstantSpeed, SERVICE WATER LOOP PUMP, Design Power Consumption [W], 1620.27815
 Component Sizing Information, WaterHeater:Mixed, 628GAL NATURALGAS WATER HEATER - 926KBTU/HR 0.803 THERM EFF, Use Side Design Flow Rate [m3/s], 1.21660E-003
! <Environment>,Environment Name,Environment Type, Start Date, End Date, Start DayOfWeek, Duration {#days}, Source:Start DayOfWeek,  Use Daylight Saving, Use Holidays, Apply Weekend Holiday Rule,  Use Rain Values, Use Snow Values
! <Environment:Special Days>, Special Day Name, Special Day Type, Source, Start Date, Duration {#days}
! <Environment:Daylight Saving>, Daylight Saving Indicator, Source, Start Date, End Date
! <Environment:WarmupDays>, NumberofWarmupDays
Environment,FORT MCMURRAY AP ANN CLG .4% CONDNS DB=>MWB,SizingPeriod:DesignDay,07/21,07/21,SummerDesignDay,1,N/A,N/A,N/A,N/A,N/A,N/A
Environment:Daylight Saving,No,SizingPeriod:DesignDay
! <Environment:Design Day Data>, Max Dry-Bulb Temp {C}, Temp Range {dC}, Temp Range Ind Type, Hum Ind Value at Max Temp, Hum Ind Type,Pressure {Pa}, Wind Direction {deg CW from N}, Wind Speed {m/s}, Clearness, Rain, Snow
! <Environment:Design Day Misc>,DayOfYear,ASHRAE A Coeff,ASHRAE B Coeff,ASHRAE C Coeff,Solar Constant-Annual Variation,Eq of Time {minutes}, Solar Declination Angle {deg}, Solar Model
Environment:Design Day Data,28.90,12.40,DefaultMultipliers,96969,250,3.7,0.00,No,No
Environment:Design Day Misc,202,1084.4,0.2082,0.1365,1.0,-6.23,20.6,ASHRAETau
Environment:WarmupDays, 12
! <Tabular Report>,Style,Unit Conversion
Tabular Report,HTML,None
! <Warmup Convergence Information>,Zone Name,Environment Type/Name,Average Warmup Temperature Difference {deltaC},Std Dev Warmup Temperature Difference {deltaC},Max Temperature Pass/Fail Convergence,Min Temperature Pass/Fail Convergence,Average Warmup Load Difference {W},Std Dev Warmup Load Difference {W},Heating Load Pass/Fail Convergence,Cooling Load Pass/Fail Convergence
 Warmup Convergence Information,SP-CONVENTION CENTRE EXHIBIT SPACE-SPACE FUNCTION SYS-3 FLR-3 SCH-C HPLCMT-WEST ZN,SizingPeriod: FORT MCMURRAY AP ANN CLG .4% CONDNS DB=>MWB,2.4357010889E-002,6.5040553925E-002,Pass,Pass,4.5675198045E-002,0.2014542630,Pass,Pass
 Warmup Convergence Information,SP-DORMITORY LIVING QUARTERS-SPACE FUNCTION SYS-3 FLR-2 SCH-G HPLCMT-SOUTH ZN,SizingPeriod: FORT MCMURRAY AP ANN CLG .4% CONDNS DB=>MWB,2.7391975432E-003,6.7152765363E-003,Pass,Pass,2.0022759480E-002,3.5305771303E-002,Pass,Pass
 Warmup Convergence Information,SP-DWELLING UNITS GENERAL-SPACE FUNCTION SYS-1 FLR-2 SCH-G HPLCMT-WEST ZN,SizingPeriod: FORT MCMURRAY AP ANN CLG .4% CONDNS DB=>MWB,7.6539009436E-003,1.7909069415E-002,Pass,Pass,3.0949139416E-002,4.0659124765E-002,Pass,Pass
 Warmup Convergence Information,SP-DWELLING UNITS LONG-TERM-SPACE FUNCTION SYS-1 FLR-2 SCH-J HPLCMT-CORE ZN,SizingPeriod: FORT MCMURRAY AP ANN CLG .4% CONDNS DB=>MWB,9.5822332809E-003,2.4286845566E-002,Pass,Pass,4.0043859804E-002,6.3197654060E-002,Pass,Pass
 Warmup Convergence Information,SP-STORAGE ROOM <= 5 M2 <= 100 M2-SCH-I-SPACE FUNCTION SYS-4 FLR-4 SCH-I HPLCMT-CORE ZN,SizingPeriod: FORT MCMURRAY AP ANN CLG .4% CONDNS DB=>MWB,9.8379630756E-002,0.2282195484,Pass,Pass,0.1001962199,0.2677784065,Pass,Pass
 Warmup Convergence Information,SP-STORAGE ROOM <= 5 M2 <= 100 M2-SCH-J-SPACE FUNCTION SYS-4 FLR-4 SCH-J HPLCMT-SOUTH ZN,SizingPeriod: FORT MCMURRAY AP ANN CLG .4% CONDNS DB=>MWB,1.6532424891E-002,2.8012297557E-002,Pass,Pass,3.0195231541E-002,2.1533098468E-002,Pass,Pass
 Warmup Convergence Information,SP-STORAGE ROOM <= 5 M2 <= 100 M2-SCH-K-SPACE FUNCTION SYS-4 FLR-4 SCH-K HPLCMT-EAST ZN,SizingPeriod: FORT MCMURRAY AP ANN CLG .4% CONDNS DB=>MWB,6.8337491394E-002,4.3485169730E-002,Pass,Pass,5.8255764100E-002,8.1374769780E-002,Pass,Pass
 Warmup Convergence Information,SP-STORAGE ROOM > 100 M2-SCH-A-SPACE FUNCTION SYS-4 FLR-3 SCH-A HPLCMT-CORE ZN,SizingPeriod: FORT MCMURRAY AP ANN CLG .4% CONDNS DB=>MWB,2.0097752019E-002,5.2764950043E-002,Pass,Pass,4.8982966001E-002,0.2630202213,Pass,Pass
 Warmup Convergence Information,SP-STORAGE ROOM > 100 M2-SCH-B-SPACE FUNCTION SYS-4 FLR-3 SCH-B HPLCMT-SOUTH ZN,SizingPeriod: FORT MCMURRAY AP ANN CLG .4% CONDNS DB=>MWB,1.0445410622E-002,2.6424478797E-002,Pass,Pass,2.1682094351E-002,4.1408594316E-002,Pass,Pass
 Warmup Convergence Information,SP-STORAGE ROOM > 100 M2-SCH-C-SPACE FUNCTION SYS-4 FLR-4 SCH-C HPLCMT-NORTH ZN,SizingPeriod: FORT MCMURRAY AP ANN CLG .4% CONDNS DB=>MWB,1.0820955140E-002,1.5835765360E-002,Pass,Pass,4.8855023140E-002,0.1118745121,Pass,Pass
 Warmup Convergence Information,SP-STORAGE ROOM > 100 M2-SCH-D-SPACE FUNCTION SYS-4 FLR-3 SCH-D HPLCMT-EAST ZN,SizingPeriod: FORT MCMURRAY AP ANN CLG .4% CONDNS DB=>MWB,1.4979872594E-002,6.2334591189E-002,Pass,Pass,1.4879840721E-002,3.2151190860E-002,Pass,Pass
 Warmup Convergence Information,SP-STORAGE ROOM > 100 M2-SCH-E-SPACE FUNCTION SYS-4 FLR-1 SCH-E HPLCMT-WEST ZN,SizingPeriod: FORT MCMURRAY AP ANN CLG .4% CONDNS DB=>MWB,2.0491624596E-002,5.0807915663E-002,Pass,Pass,0.1772794777,0.7081820634,Pass,Pass
 Warmup Convergence Information,SP-STORAGE ROOM > 100 M2-SCH-F-SPACE FUNCTION SYS-4 FLR-3 SCH-F HPLCMT-NORTH ZN,SizingPeriod: FORT MCMURRAY AP ANN CLG .4% CONDNS DB=>MWB,2.1507917701E-003,5.7779893293E-003,Pass,Pass,1.1144747185E-002,1.7058450621E-002,Pass,Pass
 Warmup Convergence Information,SP-STORAGE ROOM > 100 M2-SCH-G-SPACE FUNCTION SYS-4 FLR-1 SCH-G HPLCMT-NORTH ZN,SizingPeriod: FORT MCMURRAY AP ANN CLG .4% CONDNS DB=>MWB,3.0387542307E-005,6.9680120551E-005,Pass,Pass,2.0213679061E-002,6.8225167091E-002,Pass,Pass
 Warmup Convergence Information,SP-STORAGE ROOM > 100 M2-SCH-H-SPACE FUNCTION SYS-4 FLR-1 SCH-H HPLCMT-SOUTH ZN,SizingPeriod: FORT MCMURRAY AP ANN CLG .4% CONDNS DB=>MWB,3.4342887613E-004,8.8118755115E-004,Pass,Pass,2.3007177342E-003,1.3507757998E-003,Pass,Pass
 Warmup Convergence Information,SP-STORAGE ROOM > 100 M2-SCH-I-SPACE FUNCTION SYS-4 FLR-1 SCH-I HPLCMT-CORE ZN,SizingPeriod: FORT MCMURRAY AP ANN CLG .4% CONDNS DB=>MWB,2.6337005247E-002,5.2531712839E-002,Pass,Pass,0.2133020157,1.3737407142,Pass,Pass
 Warmup Convergence Information,SP-STORAGE ROOM > 100 M2-SCH-J-SPACE FUNCTION SYS-4 FLR-4 SCH-J HPLCMT-WEST ZN,SizingPeriod: FORT MCMURRAY AP ANN CLG .4% CONDNS DB=>MWB,1.6422026804E-002,2.8526979549E-002,Pass,Pass,2.7384931532E-002,2.4767387805E-002,Pass,Pass
 Warmup Convergence Information,SP-STORAGE ROOM > 100 M2-SCH-K-SPACE FUNCTION SYS-4 FLR-2 SCH-K HPLCMT-NORTH ZN,SizingPeriod: FORT MCMURRAY AP ANN CLG .4% CONDNS DB=>MWB,1.5963504000E-002,1.0212256484E-002,Pass,Pass,0.2098467499,1.0020447889,Pass,Pass
 Warmup Convergence Information,SP-VEHICLE MAINTENANCE AREA-SPACE FUNCTION SYS-4 FLR-1 SCH-E HPLCMT-EAST ZN,SizingPeriod: FORT MCMURRAY AP ANN CLG .4% CONDNS DB=>MWB,5.5600329289E-002,0.1147270041,Pass,Pass,0.1416749214,0.4940342465,Pass,Pass
 Warmup Convergence Information,SP-WORKSHOP-SPACE FUNCTION SYS-3 FLR-2 SCH-A HPLCMT-EAST ZN,SizingPeriod: FORT MCMURRAY AP ANN CLG .4% CONDNS DB=>MWB,2.4829499391E-002,6.6968643481E-002,Pass,Pass,3.1684747482E-002,0.1350362077,Pass,Pass
Environment,FORT MCMURRAY AP ANN HTG 99.6% CONDNS DB,SizingPeriod:DesignDay,01/21,01/21,WinterDesignDay,1,N/A,N/A,N/A,N/A,N/A,N/A
Environment:Daylight Saving,No,SizingPeriod:DesignDay
Environment:Design Day Data,-36.20,0.00,DefaultMultipliers,96969,90,1.0,0.00,No,No
Environment:Design Day Misc, 21,1229.0,0.1415,5.7310E-002,1.0,-11.15,-20.1,ASHRAEClearSky
Environment:WarmupDays,  7
 Warmup Convergence Information,SP-CONVENTION CENTRE EXHIBIT SPACE-SPACE FUNCTION SYS-3 FLR-3 SCH-C HPLCMT-WEST ZN,SizingPeriod: FORT MCMURRAY AP ANN HTG 99.6% CONDNS DB,5.5561067841E-002,0.2962217469,Pass,Pass,0.2482439832,1.4140657793,Pass,Pass
 Warmup Convergence Information,SP-DORMITORY LIVING QUARTERS-SPACE FUNCTION SYS-3 FLR-2 SCH-G HPLCMT-SOUTH ZN,SizingPeriod: FORT MCMURRAY AP ANN HTG 99.6% CONDNS DB,4.8239097780E-002,0.1948040811,Pass,Pass,0.6050493724,3.6497378071,Pass,Pass
 Warmup Convergence Information,SP-DWELLING UNITS GENERAL-SPACE FUNCTION SYS-1 FLR-2 SCH-G HPLCMT-WEST ZN,SizingPeriod: FORT MCMURRAY AP ANN HTG 99.6% CONDNS DB,3.2180425277E-002,5.1622322806E-002,Pass,Pass,0.1788987708,0.5380970928,Pass,Pass
 Warmup Convergence Information,SP-DWELLING UNITS LONG-TERM-SPACE FUNCTION SYS-1 FLR-2 SCH-J HPLCMT-CORE ZN,SizingPeriod: FORT MCMURRAY AP ANN HTG 99.6% CONDNS DB,1.6675034503E-002,1.4837525017E-002,Pass,Pass,6.2113902638E-003,6.2938886216E-003,Pass,Pass
 Warmup Convergence Information,SP-STORAGE ROOM <= 5 M2 <= 100 M2-SCH-I-SPACE FUNCTION SYS-4 FLR-4 SCH-I HPLCMT-CORE ZN,SizingPeriod: FORT MCMURRAY AP ANN HTG 99.6% CONDNS DB,5.5566499782E-002,0.2752741143,Pass,Pass,7.9565338457E-002,0.3362576691,Pass,Pass
 Warmup Convergence Information,SP-STORAGE ROOM <= 5 M2 <= 100 M2-SCH-J-SPACE FUNCTION SYS-4 FLR-4 SCH-J HPLCMT-SOUTH ZN,SizingPeriod: FORT MCMURRAY AP ANN HTG 99.6% CONDNS DB,3.5468167164E-005,6.1400095835E-005,Pass,Pass,4.5637034437E-003,9.9146062386E-003,Pass,Pass
 Warmup Convergence Information,SP-STORAGE ROOM <= 5 M2 <= 100 M2-SCH-K-SPACE FUNCTION SYS-4 FLR-4 SCH-K HPLCMT-EAST ZN,SizingPeriod: FORT MCMURRAY AP ANN HTG 99.6% CONDNS DB,1.3543954871E-002,1.0543392203E-002,Pass,Pass,5.6647360330E-003,4.3305105585E-003,Pass,Pass
 Warmup Convergence Information,SP-STORAGE ROOM > 100 M2-SCH-A-SPACE FUNCTION SYS-4 FLR-3 SCH-A HPLCMT-CORE ZN,SizingPeriod: FORT MCMURRAY AP ANN HTG 99.6% CONDNS DB,4.7948593593E-002,0.1784665858,Pass,Pass,0.2065394132,1.0630121300,Pass,Pass
 Warmup Convergence Information,SP-STORAGE ROOM > 100 M2-SCH-B-SPACE FUNCTION SYS-4 FLR-3 SCH-B HPLCMT-SOUTH ZN,SizingPeriod: FORT MCMURRAY AP ANN HTG 99.6% CONDNS DB,5.5900324752E-002,0.2421873525,Pass,Pass,7.6424611645E-002,0.2557031029,Pass,Pass
 Warmup Convergence Information,SP-STORAGE ROOM > 100 M2-SCH-C-SPACE FUNCTION SYS-4 FLR-4 SCH-C HPLCMT-NORTH ZN,SizingPeriod: FORT MCMURRAY AP ANN HTG 99.6% CONDNS DB,5.5579484211E-002,0.3065694304,Pass,Pass,4.1391585237E-002,0.1608411453,Pass,Pass
 Warmup Convergence Information,SP-STORAGE ROOM > 100 M2-SCH-D-SPACE FUNCTION SYS-4 FLR-3 SCH-D HPLCMT-EAST ZN,SizingPeriod: FORT MCMURRAY AP ANN HTG 99.6% CONDNS DB,5.5573470816E-002,0.2783121152,Pass,Pass,1.5364118023,16.2092481680,Pass,Pass
 Warmup Convergence Information,SP-STORAGE ROOM > 100 M2-SCH-E-SPACE FUNCTION SYS-4 FLR-1 SCH-E HPLCMT-WEST ZN,SizingPeriod: FORT MCMURRAY AP ANN HTG 99.6% CONDNS DB,4.1496597692E-002,0.1333247971,Pass,Pass,0.3053614299,1.0385799924,Pass,Pass
 Warmup Convergence Information,SP-STORAGE ROOM > 100 M2-SCH-F-SPACE FUNCTION SYS-4 FLR-3 SCH-F HPLCMT-NORTH ZN,SizingPeriod: FORT MCMURRAY AP ANN HTG 99.6% CONDNS DB,5.6333347407E-002,0.2425933015,Pass,Pass,0.1067767005,0.6098504139,Pass,Pass
 Warmup Convergence Information,SP-STORAGE ROOM > 100 M2-SCH-G-SPACE FUNCTION SYS-4 FLR-1 SCH-G HPLCMT-NORTH ZN,SizingPeriod: FORT MCMURRAY AP ANN HTG 99.6% CONDNS DB,3.5887816728E-002,0.1268345970,Pass,Pass,0.1415422835,0.6376552395,Pass,Pass
 Warmup Convergence Information,SP-STORAGE ROOM > 100 M2-SCH-H-SPACE FUNCTION SYS-4 FLR-1 SCH-H HPLCMT-SOUTH ZN,SizingPeriod: FORT MCMURRAY AP ANN HTG 99.6% CONDNS DB,1.9315543783E-002,9.2002317157E-002,Pass,Pass,6.9658276200E-002,0.3868179655,Pass,Pass
 Warmup Convergence Information,SP-STORAGE ROOM > 100 M2-SCH-I-SPACE FUNCTION SYS-4 FLR-1 SCH-I HPLCMT-CORE ZN,SizingPeriod: FORT MCMURRAY AP ANN HTG 99.6% CONDNS DB,3.0360489154E-002,9.9107083124E-002,Pass,Pass,0.4239340414,3.6077071751,Pass,Pass
 Warmup Convergence Information,SP-STORAGE ROOM > 100 M2-SCH-J-SPACE FUNCTION SYS-4 FLR-4 SCH-J HPLCMT-WEST ZN,SizingPeriod: FORT MCMURRAY AP ANN HTG 99.6% CONDNS DB,3.5325825973E-005,6.0778680737E-005,Pass,Pass,5.3974986445E-003,1.0133735345E-002,Pass,Pass
 Warmup Convergence Information,SP-STORAGE ROOM > 100 M2-SCH-K-SPACE FUNCTION SYS-4 FLR-2 SCH-K HPLCMT-NORTH ZN,SizingPeriod: FORT MCMURRAY AP ANN HTG 99.6% CONDNS DB,5.3537076228E-003,4.9670055427E-003,Pass,Pass,7.7122322515E-004,8.2476164639E-004,Pass,Pass
 Warmup Convergence Information,SP-VEHICLE MAINTENANCE AREA-SPACE FUNCTION SYS-4 FLR-1 SCH-E HPLCMT-EAST ZN,SizingPeriod: FORT MCMURRAY AP ANN HTG 99.6% CONDNS DB,5.5865468318E-002,0.3503298128,Pass,Pass,0.6753472970,5.3483339940,Pass,Pass
 Warmup Convergence Information,SP-WORKSHOP-SPACE FUNCTION SYS-3 FLR-2 SCH-A HPLCMT-EAST ZN,SizingPeriod: FORT MCMURRAY AP ANN HTG 99.6% CONDNS DB,5.5558352326E-002,0.2871965784,Pass,Pass,0.2434644208,1.3355114629,Pass,Pass
! <Program Control Information:Threads/Parallel Sims>, Threading Supported,Maximum Number of Threads, Env Set Threads (OMP_NUM_THREADS), EP Env Set Threads (EP_OMP_NUM_THREADS), IDF Set Threads, Number of Threads Used (Interior Radiant Exchange), Number Nominal Surfaces, Number Parallel Sims
Program Control:Threads/Parallel Sims, No,1, N/A, N/A, N/A, N/A, N/A, N/A
End of Data
