Program Version,EnergyPlus, Version 8.9.0-eba93e8e1b, YMD=2019.03.20 17:53
! <Version>, Version ID
 Version, 8.9
! <Timesteps per Hour>, #TimeSteps, Minutes per TimeStep {minutes}
 Timesteps per Hour,  6, 10
! <System Convergence Limits>, Minimum System TimeStep {minutes}, Max HVAC Iterations, Minimum Plant Iterations, Maximum Plant Iterations
 System Convergence Limits, 1, 20, 2, 8
! <Simulation Control>, Do Zone Sizing, Do System Sizing, Do Plant Sizing, Do Design Days, Do Weather Simulation, Do HVAC Sizing Simulation
 Simulation Control, Yes, No, No, Yes, No, No
! <Output Reporting Tolerances>, Tolerance for Time Heating Setpoint Not Met, Tolerance for Zone Cooling Setpoint Not Met Time
 Output Reporting Tolerances, 0.200, 0.200, 
! <Site:GroundTemperature:BuildingSurface>,Jan{C},Feb{C},Mar{C},Apr{C},May{C},Jun{C},Jul{C},Aug{C},Sep{C},Oct{C},Nov{C},Dec{C}
 Site:GroundTemperature:BuildingSurface,  19.53,  19.50,  19.54,  19.60,  20.00,  21.64,  22.23,  22.38,  21.45,  20.12,  19.80,  19.63
! <Site:GroundTemperature:FCfactorMethod>,Jan{C},Feb{C},Mar{C},Apr{C},May{C},Jun{C},Jul{C},Aug{C},Sep{C},Oct{C},Nov{C},Dec{C}
 Site:GroundTemperature:FCfactorMethod, -12.27, -13.66, -11.19,  -7.33,   2.77,  10.57,  15.83,  17.43,  14.70,   8.65,   0.56,  -6.95
! <Site:GroundTemperature:Shallow>,Jan{C},Feb{C},Mar{C},Apr{C},May{C},Jun{C},Jul{C},Aug{C},Sep{C},Oct{C},Nov{C},Dec{C}
 Site:GroundTemperature:Shallow,  13.00,  13.00,  13.00,  13.00,  13.00,  13.00,  13.00,  13.00,  13.00,  13.00,  13.00,  13.00
! <Site:GroundTemperature:Deep>,Jan{C},Feb{C},Mar{C},Apr{C},May{C},Jun{C},Jul{C},Aug{C},Sep{C},Oct{C},Nov{C},Dec{C}
 Site:GroundTemperature:Deep,  16.00,  16.00,  16.00,  16.00,  16.00,  16.00,  16.00,  16.00,  16.00,  16.00,  16.00,  16.00
! <Site:GroundReflectance>,Jan{dimensionless},Feb{dimensionless},Mar{dimensionless},Apr{dimensionless},May{dimensionless},Jun{dimensionless},Jul{dimensionless},Aug{dimensionless},Sep{dimensionless},Oct{dimensionless},Nov{dimensionless},Dec{dimensionless}
 Site:GroundReflectance,  0.20,  0.20,  0.20,  0.20,  0.20,  0.20,  0.20,  0.20,  0.20,  0.20,  0.20,  0.20
! <Site:GroundReflectance:SnowModifier>, Normal, Daylighting {dimensionless}
 Site:GroundReflectance:SnowModifier,   1.000,   1.000
! <Site:GroundReflectance:Snow>,Jan{dimensionless},Feb{dimensionless},Mar{dimensionless},Apr{dimensionless},May{dimensionless},Jun{dimensionless},Jul{dimensionless},Aug{dimensionless},Sep{dimensionless},Oct{dimensionless},Nov{dimensionless},Dec{dimensionless}
 Site:GroundReflectance:Snow,  0.20,  0.20,  0.20,  0.20,  0.20,  0.20,  0.20,  0.20,  0.20,  0.20,  0.20,  0.20
! <Site:GroundReflectance:Snow:Daylighting>,Jan{dimensionless},Feb{dimensionless},Mar{dimensionless},Apr{dimensionless},May{dimensionless},Jun{dimensionless},Jul{dimensionless},Aug{dimensionless},Sep{dimensionless},Oct{dimensionless},Nov{dimensionless},Dec{dimensionless}
 Site:GroundReflectance:Snow:Daylighting,  0.20,  0.20,  0.20,  0.20,  0.20,  0.20,  0.20,  0.20,  0.20,  0.20,  0.20,  0.20
! <Environment:Weather Station>,Wind Sensor Height Above Ground {m},Wind Speed Profile Exponent {},Wind Speed Profile Boundary Layer Thickness {m},Air Temperature Sensor Height Above Ground {m},Wind Speed Modifier Coefficient-Internal,Temperature Modifier Coefficient-Internal
Environment:Weather Station,10.000,0.140,270.000,1.500,1.586,9.750E-003
! <Site:Location>, Location Name, Latitude {N+/S- Deg}, Longitude {E+/W- Deg},  Time Zone Number {GMT+/-}, Elevation {m},  Standard Pressure at Elevation {Pa}, Standard RhoAir at Elevation
Site:Location,Fort McMurray AP AB CAN CWEC2016 WMO#=716890,56.65,-111.22,-7.00,369.10,96969,1.1525
! <Building Information>, Building Name,North Axis {deg},Terrain,  Loads Convergence Tolerance Value,Temperature Convergence Tolerance Value,  Solar Distribution,Maximum Number of Warmup Days,Minimum Number of Warmup Days
 Building Information,Building 1,0.000,Suburbs,4.00000E-002,0.40000,FullExterior,25,6
! <Inside Convection Algorithm>, Algorithm {Simple | TARP | CeilingDiffuser | AdaptiveConvectionAlgorithm}
Inside Convection Algorithm,TARP
! <Outside Convection Algorithm>, Algorithm {SimpleCombined | TARP | MoWitt | DOE-2 | AdaptiveConvectionAlgorithm}
Outside Convection Algorithm,TARP
! <Sky Radiance Distribution>, Value {Anisotropic}
Sky Radiance Distribution,Anisotropic
! <Zone Air Solution Algorithm>, Value {ThirdOrderBackwardDifference | AnalyticalSolution | EulerMethod}
 Zone Air Solution Algorithm, ThirdOrderBackwardDifference
! <Zone Air Carbon Dioxide Balance Simulation>, Simulation {Yes/No}, Carbon Dioxide Concentration
 Zone Air Carbon Dioxide Balance Simulation, No,N/A
! <Zone Air Generic Contaminant Balance Simulation>, Simulation {Yes/No}, Generic Contaminant Concentration
 Zone Air Generic Contaminant Balance Simulation, No,N/A
! <Zone Air Mass Flow Balance Simulation>, Enforce Mass Balance, Adjust Zone Mixing, Adjust Zone Infiltration {AddInfiltration | AdjustInfiltration | None}, Infiltration Zones {MixingSourceZonesOnly | AllZones}
 Zone Air Mass Flow Balance Simulation, No,N/A,N/A,N/A
! <HVACSystemRootFindingAlgorithm>, Value {RegulaFalsi | Bisection | BisectionThenRegulaFalsi | RegulaFalsiThenBisection}
 HVACSystemRootFindingAlgorithm, RegulaFalsi
! <Environment:Site Atmospheric Variation>,Wind Speed Profile Exponent {},Wind Speed Profile Boundary Layer Thickness {m},Air Temperature Gradient Coefficient {K/m}
Environment:Site Atmospheric Variation,0.220,370.000,6.500000E-003
! <Surface Geometry>,Starting Corner,Vertex Input Direction,Coordinate System,Daylight Reference Point Coordinate System,Rectangular (Simple) Surface Coordinate System
 Surface Geometry,UpperLeftCorner,Counterclockwise,RelativeCoordinateSystem,RelativeCoordinateSystem,RelativeToZoneOrigin
! <Surface Heat Transfer Algorithm>, Value {CTF - ConductionTransferFunction | EMPD - MoisturePenetrationDepthConductionTransferFunction | CondFD - ConductionFiniteDifference | HAMT - CombinedHeatAndMoistureFiniteElement} - Description,Inside Surface Max Temperature Limit{C}, Surface Convection Coefficient Lower Limit {W/m2-K}, Surface Convection Coefficient Upper Limit {W/m2-K}
Surface Heat Transfer Algorithm, CTF - ConductionTransferFunction,200,0.10,1000.0
! <Shading Summary>, Number of Fixed Detached Shades, Number of Building Detached Shades, Number of Attached Shades
 Shading Summary,0,0,0
! <Zone Summary>, Number of Zones, Number of Zone Surfaces, Number of SubSurfaces
 Zone Summary,20,137,17
! <Zone Information>,Zone Name,North Axis {deg},Origin X-Coordinate {m},Origin Y-Coordinate {m},Origin Z-Coordinate {m},Centroid X-Coordinate {m},Centroid Y-Coordinate {m},Centroid Z-Coordinate {m},Type,Zone Multiplier,Zone List Multiplier,Minimum X {m},Maximum X {m},Minimum Y {m},Maximum Y {m},Minimum Z {m},Maximum Z {m},Ceiling Height {m},Volume {m3},Zone Inside Convection Algorithm {Simple-Detailed-CeilingDiffuser-TrombeWall},Zone Outside Convection Algorithm {Simple-Detailed-Tarp-MoWitt-DOE-2-BLAST}, Floor Area {m2},Exterior Gross Wall Area {m2},Exterior Net Wall Area {m2},Exterior Window Area {m2}, Number of Surfaces, Number of SubSurfaces, Number of Shading SubSurfaces,  Part of Total Building Area
 Zone Information, WHOLEBUILDING-AUTOMOTIVE FACILITY ZN,0.0,0.00,0.00,11.40,50.00,10.85,13.30,1,1,1,0.00,100.00,0.00,25.00,11.40,15.20,3.80,7125.00,TARP,TARP,1875.00,380.00,285.00,188.75,6,2,0,Yes
 Zone Information, WHOLEBUILDING-CONVENTION CENTRE ZN,0.0,75.00,25.00,11.40,89.15,50.00,13.30,1,1,1,75.00,100.00,0.00,100.00,11.40,15.20,3.80,7125.00,TARP,TARP,1875.00,380.00,285.00,188.75,6,2,0,Yes
 Zone Information, WHOLEBUILDING-COURTHOUSE ZN,0.0,25.00,75.00,11.40,50.00,89.15,13.30,1,1,1,0.00,100.00,75.00,100.00,11.40,15.20,3.80,7125.00,TARP,TARP,1875.00,380.00,285.00,188.75,6,2,0,Yes
 Zone Information, WHOLEBUILDING-DINING - BAR/LOUNGE ZN,0.0,25.00,25.00,7.60,50.00,50.00,9.50,1,1,1,25.00,75.00,25.00,75.00,7.60,11.40,3.80,9500.00,TARP,TARP,2500.00,0.00,0.00,0.00,6,0,0,Yes
 Zone Information, WHOLEBUILDING-DINING - CAFETERIA ZN,0.0,25.00,75.00,7.60,50.00,89.15,9.50,1,1,1,0.00,100.00,75.00,100.00,7.60,11.40,3.80,7125.00,TARP,TARP,1875.00,380.00,285.00,95.00,6,1,0,Yes
 Zone Information, WHOLEBUILDING-DINING - FAMILY ZN,0.0,0.00,0.00,7.60,10.85,50.00,9.50,1,1,1,0.00,25.00,0.00,100.00,7.60,11.40,3.80,7125.00,TARP,TARP,1875.00,380.00,285.00,95.00,6,1,0,Yes
 Zone Information, WHOLEBUILDING-DORMITORY ZN,0.0,0.00,0.00,3.80,50.00,10.85,5.70,1,1,1,0.00,100.00,0.00,25.00,3.80,7.60,3.80,7125.00,TARP,TARP,1875.00,380.00,285.00,95.00,6,1,0,Yes
 Zone Information, WHOLEBUILDING-EXERCISE CENTRE ZN,0.0,25.00,75.00,0.00,50.00,89.15,1.90,1,1,1,0.00,100.00,75.00,100.00,0.00,3.80,3.80,7125.00,TARP,TARP,1875.00,0.00,0.00,0.00,6,0,0,Yes
 Zone Information, WHOLEBUILDING-FIRE STATION ZN,0.0,0.00,0.00,3.80,10.85,50.00,5.70,1,1,1,0.00,25.00,0.00,100.00,3.80,7.60,3.80,7125.00,TARP,TARP,1875.00,380.00,285.00,95.00,6,1,0,Yes
 Zone Information, WHOLEBUILDING-GYMNASIUM ZN,0.0,25.00,25.00,11.40,50.00,50.00,13.30,1,1,1,25.00,75.00,25.00,75.00,11.40,15.20,3.80,9500.00,TARP,TARP,2500.00,0.00,0.00,125.00,6,1,0,Yes
 Zone Information, WHOLEBUILDING-HEALTH-CARE CLINIC ZN,0.0,0.00,0.00,0.00,10.85,50.00,1.90,1,1,1,0.00,25.00,0.00,100.00,0.00,3.80,3.80,7125.00,TARP,TARP,1875.00,0.00,0.00,0.00,6,0,0,Yes
 Zone Information, WHOLEBUILDING-HOSPITAL ZN,0.0,75.00,25.00,0.00,89.15,50.00,1.90,1,1,1,75.00,100.00,0.00,100.00,0.00,3.80,3.80,7125.00,TARP,TARP,1875.00,0.00,0.00,0.00,6,0,0,Yes
 Zone Information, WHOLEBUILDING-HOTEL ZN,0.0,75.00,25.00,7.60,89.15,50.00,9.50,1,1,1,75.00,100.00,0.00,100.00,7.60,11.40,3.80,7125.00,TARP,TARP,1875.00,380.00,285.00,95.00,6,1,0,Yes
 Zone Information, WHOLEBUILDING-LIBRARY ZN,0.0,0.00,0.00,0.00,50.00,10.85,1.90,1,1,1,0.00,100.00,0.00,25.00,0.00,3.80,3.80,7125.00,TARP,TARP,1875.00,0.00,0.00,0.00,6,0,0,Yes
 Zone Information, WHOLEBUILDING-MANUFACTURING FACILITY ZN,0.0,25.00,25.00,0.00,50.00,50.00,1.90,1,1,1,25.00,75.00,25.00,75.00,0.00,3.80,3.80,9500.00,TARP,TARP,2500.00,0.00,0.00,0.00,6,0,0,Yes
 Zone Information, WHOLEBUILDING-MOTEL ZN,0.0,25.00,75.00,3.80,50.00,89.15,5.70,1,1,1,0.00,100.00,75.00,100.00,3.80,7.60,3.80,7125.00,TARP,TARP,1875.00,380.00,285.00,95.00,6,1,0,Yes
 Zone Information, WHOLEBUILDING-MOTION PICTURE THEATRE ZN,0.0,0.00,0.00,11.40,10.85,50.00,13.30,1,1,1,0.00,25.00,0.00,100.00,11.40,15.20,3.80,7125.00,TARP,TARP,1875.00,380.00,285.00,188.75,6,2,0,Yes
 Zone Information, WHOLEBUILDING-MULTI-UNIT RESIDENTIAL ZN,0.0,0.00,0.00,7.60,50.00,10.85,9.50,1,1,1,0.00,100.00,0.00,25.00,7.60,11.40,3.80,7125.00,TARP,TARP,1875.00,380.00,285.00,95.00,6,1,0,Yes
 Zone Information, WHOLEBUILDING-MUSEUM ZN,0.0,75.00,25.00,3.80,89.15,50.00,5.70,1,1,1,75.00,100.00,0.00,100.00,3.80,7.60,3.80,7125.00,TARP,TARP,1875.00,380.00,285.00,95.00,6,1,0,Yes
 Zone Information, WHOLEBUILDING-OFFICE ZN,0.0,25.00,25.00,3.80,50.00,50.00,5.70,1,1,1,25.00,75.00,25.00,75.00,3.80,7.60,3.80,9500.00,TARP,TARP,2500.00,0.00,0.00,0.00,6,0,0,Yes
! <Zone Internal Gains Nominal>,Zone Name, Floor Area {m2},# Occupants,Area per Occupant {m2/person},Occupant per Area {person/m2},Interior Lighting {W/m2},Electric Load {W/m2},Gas Load {W/m2},Other Load {W/m2},Hot Water Eq {W/m2},Steam Equipment {W/m2},Sum Loads per Area {W/m2},Outdoor Controlled Baseboard Heat
 Zone Internal Gains Nominal, WHOLEBUILDING-AUTOMOTIVE FACILITY ZN,1875.00,93.8,19.979,5.005E-002,8.800,5.000,0.000,0.000,0.000,0.000,13.800,No
 Zone Internal Gains Nominal, WHOLEBUILDING-CONVENTION CENTRE ZN,1875.00,234.3,8.002,0.125,11.600,2.500,0.000,0.000,0.000,0.000,14.100,No
 Zone Internal Gains Nominal, WHOLEBUILDING-COURTHOUSE ZN,1875.00,124.9,15.009,6.663E-002,11.300,5.000,0.000,0.000,0.000,0.000,16.300,No
 Zone Internal Gains Nominal, WHOLEBUILDING-DINING - BAR/LOUNGE ZN,2500.00,250.0,10.000,10.000E-002,10.700,1.000,0.000,0.000,0.000,0.000,11.700,No
 Zone Internal Gains Nominal, WHOLEBUILDING-DINING - CAFETERIA ZN,1875.00,187.5,10.000,10.000E-002,9.700,1.000,0.000,0.000,0.000,0.000,10.700,No
 Zone Internal Gains Nominal, WHOLEBUILDING-DINING - FAMILY ZN,1875.00,187.5,10.000,10.000E-002,9.600,1.000,0.000,0.000,0.000,0.000,10.600,No
 Zone Internal Gains Nominal, WHOLEBUILDING-DORMITORY ZN,1875.00,62.6,29.969,3.337E-002,6.600,2.500,0.000,0.000,0.000,0.000,9.100,No
 Zone Internal Gains Nominal, WHOLEBUILDING-EXERCISE CENTRE ZN,1875.00,187.5,10.000,10.000E-002,9.500,1.000,0.000,0.000,0.000,0.000,10.500,No
 Zone Internal Gains Nominal, WHOLEBUILDING-FIRE STATION ZN,1875.00,75.1,24.974,4.004E-002,7.600,2.500,0.000,0.000,0.000,0.000,10.100,No
 Zone Internal Gains Nominal, WHOLEBUILDING-GYMNASIUM ZN,2500.00,250.0,10.000,10.000E-002,10.800,1.000,0.000,0.000,0.000,0.000,11.800,No
 Zone Internal Gains Nominal, WHOLEBUILDING-HEALTH-CARE CLINIC ZN,1875.00,93.8,19.979,5.005E-002,9.400,7.500,0.000,0.000,0.000,0.000,16.900,No
 Zone Internal Gains Nominal, WHOLEBUILDING-HOSPITAL ZN,1875.00,93.8,19.979,5.005E-002,13.000,7.500,0.000,0.000,0.000,0.000,20.500,No
 Zone Internal Gains Nominal, WHOLEBUILDING-HOTEL ZN,1875.00,75.1,24.974,4.004E-002,10.800,2.500,0.000,0.000,0.000,0.000,13.300,No
 Zone Internal Gains Nominal, WHOLEBUILDING-LIBRARY ZN,1875.00,93.8,19.979,5.005E-002,12.700,2.500,0.000,0.000,0.000,0.000,15.200,No
 Zone Internal Gains Nominal, WHOLEBUILDING-MANUFACTURING FACILITY ZN,2500.00,83.4,29.969,3.337E-002,11.900,10.000,0.000,0.000,0.000,0.000,21.900,No
 Zone Internal Gains Nominal, WHOLEBUILDING-MOTEL ZN,1875.00,75.1,24.974,4.004E-002,9.500,2.500,0.000,0.000,0.000,0.000,12.000,No
 Zone Internal Gains Nominal, WHOLEBUILDING-MOTION PICTURE THEATRE ZN,1875.00,234.3,8.002,0.125,8.900,1.000,0.000,0.000,0.000,0.000,9.900,No
 Zone Internal Gains Nominal, WHOLEBUILDING-MULTI-UNIT RESIDENTIAL ZN,1875.00,31.3,59.937,1.668E-002,6.500,5.000,0.000,0.000,0.000,0.000,11.500,No
 Zone Internal Gains Nominal, WHOLEBUILDING-MUSEUM ZN,1875.00,93.8,19.979,5.005E-002,11.400,2.500,0.000,0.000,0.000,0.000,13.900,No
 Zone Internal Gains Nominal, WHOLEBUILDING-OFFICE ZN,2500.00,100.1,24.974,4.004E-002,9.700,7.500,0.000,0.000,0.000,0.000,17.200,No
! <People Internal Gains Nominal>,Name,Schedule Name,Zone Name,Zone Floor Area {m2},# Zone Occupants,Number of People {},People/Floor Area {person/m2},Floor Area per person {m2/person},Fraction Radiant,Fraction Convected,Sensible Fraction Calculation,Activity level,ASHRAE 55 Warnings,Carbon Dioxide Generation Rate,Nominal Minimum Number of People,Nominal Maximum Number of People
 People Internal Gains Nominal, WHOLEBUILDING-AUTOMOTIVE FACILITY ZN AUTOMOTIVE FACILITY WHOLEBUILDING PEOPLE,NECB-E-OCCUPANCY,WHOLEBUILDING-AUTOMOTIVE FACILITY ZN,1875.00,93.8,93.8,5.005E-002,19.979,0.300,0.700,AutoCalculate,NECB-ACTIVITY,No,3.8200E-008,0,84
 People Internal Gains Nominal, WHOLEBUILDING-CONVENTION CENTRE ZN CONVENTION CENTRE WHOLEBUILDING PEOPLE,NECB-C-OCCUPANCY,WHOLEBUILDING-CONVENTION CENTRE ZN,1875.00,234.3,234.3,0.125,8.002,0.300,0.700,AutoCalculate,NECB-ACTIVITY,No,3.8200E-008,0,211
 People Internal Gains Nominal, WHOLEBUILDING-COURTHOUSE ZN COURTHOUSE WHOLEBUILDING PEOPLE,NECB-A-OCCUPANCY,WHOLEBUILDING-COURTHOUSE ZN,1875.00,124.9,124.9,6.663E-002,15.009,0.300,0.700,AutoCalculate,NECB-ACTIVITY,No,3.8200E-008,0,112
 People Internal Gains Nominal, WHOLEBUILDING-DINING - BAR/LOUNGE ZN DINING - BAR/LOUNGE WHOLEBUILDING PEOPLE,NECB-B-OCCUPANCY,WHOLEBUILDING-DINING - BAR/LOUNGE ZN,2500.00,250.0,250.0,10.000E-002,10.000,0.300,0.700,AutoCalculate,NECB-ACTIVITY,No,3.8200E-008,0,225
 People Internal Gains Nominal, WHOLEBUILDING-DINING - CAFETERIA ZN DINING - CAFETERIA WHOLEBUILDING PEOPLE,NECB-B-OCCUPANCY,WHOLEBUILDING-DINING - CAFETERIA ZN,1875.00,187.5,187.5,10.000E-002,10.000,0.300,0.700,AutoCalculate,NECB-ACTIVITY,No,3.8200E-008,0,169
 People Internal Gains Nominal, WHOLEBUILDING-DINING - FAMILY ZN DINING - FAMILY WHOLEBUILDING PEOPLE,NECB-B-OCCUPANCY,WHOLEBUILDING-DINING - FAMILY ZN,1875.00,187.5,187.5,10.000E-002,10.000,0.300,0.700,AutoCalculate,NECB-ACTIVITY,No,3.8200E-008,0,169
 People Internal Gains Nominal, WHOLEBUILDING-DORMITORY ZN DORMITORY WHOLEBUILDING PEOPLE,NECB-G-OCCUPANCY,WHOLEBUILDING-DORMITORY ZN,1875.00,62.6,62.6,3.337E-002,29.969,0.300,0.700,AutoCalculate,NECB-ACTIVITY,No,3.8200E-008,19,56
 People Internal Gains Nominal, WHOLEBUILDING-EXERCISE CENTRE ZN EXERCISE CENTRE WHOLEBUILDING PEOPLE,NECB-B-OCCUPANCY,WHOLEBUILDING-EXERCISE CENTRE ZN,1875.00,187.5,187.5,10.000E-002,10.000,0.300,0.700,AutoCalculate,NECB-ACTIVITY,No,3.8200E-008,0,169
 People Internal Gains Nominal, WHOLEBUILDING-FIRE STATION ZN FIRE STATION WHOLEBUILDING PEOPLE,NECB-F-OCCUPANCY,WHOLEBUILDING-FIRE STATION ZN,1875.00,75.1,75.1,4.004E-002,24.974,0.300,0.700,AutoCalculate,NECB-ACTIVITY,No,3.8200E-008,15,68
 People Internal Gains Nominal, WHOLEBUILDING-GYMNASIUM ZN GYMNASIUM WHOLEBUILDING PEOPLE,NECB-B-OCCUPANCY,WHOLEBUILDING-GYMNASIUM ZN,2500.00,250.0,250.0,10.000E-002,10.000,0.300,0.700,AutoCalculate,NECB-ACTIVITY,No,3.8200E-008,0,225
 People Internal Gains Nominal, WHOLEBUILDING-HEALTH-CARE CLINIC ZN HEALTH-CARE CLINIC WHOLEBUILDING PEOPLE,NECB-A-OCCUPANCY,WHOLEBUILDING-HEALTH-CARE CLINIC ZN,1875.00,93.8,93.8,5.005E-002,19.979,0.300,0.700,AutoCalculate,NECB-ACTIVITY,No,3.8200E-008,0,84
 People Internal Gains Nominal, WHOLEBUILDING-HOSPITAL ZN HOSPITAL WHOLEBUILDING PEOPLE,NECB-H-OCCUPANCY,WHOLEBUILDING-HOSPITAL ZN,1875.00,93.8,93.8,5.005E-002,19.979,0.300,0.700,AutoCalculate,NECB-ACTIVITY,No,3.8200E-008,84,84
 People Internal Gains Nominal, WHOLEBUILDING-HOTEL ZN HOTEL WHOLEBUILDING PEOPLE,NECB-F-OCCUPANCY,WHOLEBUILDING-HOTEL ZN,1875.00,75.1,75.1,4.004E-002,24.974,0.300,0.700,AutoCalculate,NECB-ACTIVITY,No,3.8200E-008,15,68
 People Internal Gains Nominal, WHOLEBUILDING-LIBRARY ZN LIBRARY WHOLEBUILDING PEOPLE,NECB-C-OCCUPANCY,WHOLEBUILDING-LIBRARY ZN,1875.00,93.8,93.8,5.005E-002,19.979,0.300,0.700,AutoCalculate,NECB-ACTIVITY,No,3.8200E-008,0,84
 People Internal Gains Nominal, WHOLEBUILDING-MANUFACTURING FACILITY ZN MANUFACTURING FACILITY WHOLEBUILDING PEOPLE,NECB-A-OCCUPANCY,WHOLEBUILDING-MANUFACTURING FACILITY ZN,2500.00,83.4,83.4,3.337E-002,29.969,0.300,0.700,AutoCalculate,NECB-ACTIVITY,No,3.8200E-008,0,75
 People Internal Gains Nominal, WHOLEBUILDING-MOTEL ZN MOTEL WHOLEBUILDING PEOPLE,NECB-F-OCCUPANCY,WHOLEBUILDING-MOTEL ZN,1875.00,75.1,75.1,4.004E-002,24.974,0.300,0.700,AutoCalculate,NECB-ACTIVITY,No,3.8200E-008,15,68
 People Internal Gains Nominal, WHOLEBUILDING-MOTION PICTURE THEATRE ZN MOTION PICTURE THEATRE WHOLEBUILDING PEOPLE,NECB-C-OCCUPANCY,WHOLEBUILDING-MOTION PICTURE THEATRE ZN,1875.00,234.3,234.3,0.125,8.002,0.300,0.700,AutoCalculate,NECB-ACTIVITY,No,3.8200E-008,0,211
 People Internal Gains Nominal, WHOLEBUILDING-MULTI-UNIT RESIDENTIAL ZN MULTI-UNIT RESIDENTIAL WHOLEBUILDING PEOPLE,NECB-G-OCCUPANCY,WHOLEBUILDING-MULTI-UNIT RESIDENTIAL ZN,1875.00,31.3,31.3,1.668E-002,59.937,0.300,0.700,AutoCalculate,NECB-ACTIVITY,No,3.8200E-008,9,28
 People Internal Gains Nominal, WHOLEBUILDING-MUSEUM ZN MUSEUM WHOLEBUILDING PEOPLE,NECB-C-OCCUPANCY,WHOLEBUILDING-MUSEUM ZN,1875.00,93.8,93.8,5.005E-002,19.979,0.300,0.700,AutoCalculate,NECB-ACTIVITY,No,3.8200E-008,0,84
 People Internal Gains Nominal, WHOLEBUILDING-OFFICE ZN OFFICE WHOLEBUILDING PEOPLE,NECB-A-OCCUPANCY,WHOLEBUILDING-OFFICE ZN,2500.00,100.1,100.1,4.004E-002,24.974,0.300,0.700,AutoCalculate,NECB-ACTIVITY,No,3.8200E-008,0,90
! <Lights Internal Gains Nominal>,Name,Schedule Name,Zone Name,Zone Floor Area {m2},# Zone Occupants,Lighting Level {W},Lights/Floor Area {W/m2},Lights per person {W/person},Fraction Return Air,Fraction Radiant,Fraction Short Wave,Fraction Convected,Fraction Replaceable,End-Use Category,Nominal Minimum Lighting Level {W},Nominal Maximum Lighting Level {W}
 Lights Internal Gains Nominal, WHOLEBUILDING-AUTOMOTIVE FACILITY ZN AUTOMOTIVE FACILITY WHOLEBUILDING LIGHTS,NECB-E-LIGHTING,WHOLEBUILDING-AUTOMOTIVE FACILITY ZN,1875.00,93.8,16499.863,8.800,175.815,0.000,0.500,0.200,0.300,1.000,General,824.993,14849.876
 Lights Internal Gains Nominal, WHOLEBUILDING-CONVENTION CENTRE ZN CONVENTION CENTRE WHOLEBUILDING LIGHTS,NECB-C-LIGHTING,WHOLEBUILDING-CONVENTION CENTRE ZN,1875.00,234.3,21749.819,11.600,92.822,0.000,0.500,0.200,0.300,1.000,General,1087.491,19574.837
 Lights Internal Gains Nominal, WHOLEBUILDING-COURTHOUSE ZN COURTHOUSE WHOLEBUILDING LIGHTS,NECB-A-LIGHTING,WHOLEBUILDING-COURTHOUSE ZN,1875.00,124.9,21187.324,11.300,169.595,0.000,0.500,0.200,0.300,1.000,General,1059.366,19068.591
 Lights Internal Gains Nominal, WHOLEBUILDING-DINING - BAR/LOUNGE ZN DINING - BAR/LOUNGE WHOLEBUILDING LIGHTS,NECB-B-LIGHTING,WHOLEBUILDING-DINING - BAR/LOUNGE ZN,2500.00,250.0,26749.777,10.700,107.003,0.000,0.500,0.200,0.300,1.000,General,2674.978,24074.800
 Lights Internal Gains Nominal, WHOLEBUILDING-DINING - CAFETERIA ZN DINING - CAFETERIA WHOLEBUILDING LIGHTS,NECB-B-LIGHTING,WHOLEBUILDING-DINING - CAFETERIA ZN,1875.00,187.5,18187.349,9.700,97.002,0.000,0.500,0.200,0.300,1.000,General,1818.735,16368.614
 Lights Internal Gains Nominal, WHOLEBUILDING-DINING - FAMILY ZN DINING - FAMILY WHOLEBUILDING LIGHTS,NECB-B-LIGHTING,WHOLEBUILDING-DINING - FAMILY ZN,1875.00,187.5,17999.850,9.600,96.002,0.000,0.500,0.200,0.300,1.000,General,1799.985,16199.865
 Lights Internal Gains Nominal, WHOLEBUILDING-DORMITORY ZN DORMITORY WHOLEBUILDING LIGHTS,NECB-G-LIGHTING,WHOLEBUILDING-DORMITORY ZN,1875.00,62.6,12374.897,6.600,197.792,0.000,0.500,0.200,0.300,1.000,General,0.000,11137.407
 Lights Internal Gains Nominal, WHOLEBUILDING-EXERCISE CENTRE ZN EXERCISE CENTRE WHOLEBUILDING LIGHTS,NECB-B-LIGHTING,WHOLEBUILDING-EXERCISE CENTRE ZN,1875.00,187.5,17812.352,9.500,95.002,0.000,0.500,0.200,0.300,1.000,General,1781.235,16031.117
 Lights Internal Gains Nominal, WHOLEBUILDING-FIRE STATION ZN FIRE STATION WHOLEBUILDING LIGHTS,NECB-F-LIGHTING,WHOLEBUILDING-FIRE STATION ZN,1875.00,75.1,14249.881,7.600,189.800,0.000,0.500,0.200,0.300,1.000,General,1424.988,12824.893
 Lights Internal Gains Nominal, WHOLEBUILDING-GYMNASIUM ZN GYMNASIUM WHOLEBUILDING LIGHTS,NECB-B-LIGHTING,WHOLEBUILDING-GYMNASIUM ZN,2500.00,250.0,26999.775,10.800,108.003,0.000,0.500,0.200,0.300,1.000,General,2699.978,24299.798
 Lights Internal Gains Nominal, WHOLEBUILDING-HEALTH-CARE CLINIC ZN HEALTH-CARE CLINIC WHOLEBUILDING LIGHTS,NECB-A-LIGHTING,WHOLEBUILDING-HEALTH-CARE CLINIC ZN,1875.00,93.8,17624.853,9.400,187.802,0.000,0.500,0.200,0.300,1.000,General,881.243,15862.368
 Lights Internal Gains Nominal, WHOLEBUILDING-HOSPITAL ZN HOSPITAL WHOLEBUILDING LIGHTS,NECB-H-LIGHTING,WHOLEBUILDING-HOSPITAL ZN,1875.00,93.8,24374.797,13.000,259.727,0.000,0.500,0.200,0.300,1.000,General,21937.317,21937.317
 Lights Internal Gains Nominal, WHOLEBUILDING-HOTEL ZN HOTEL WHOLEBUILDING LIGHTS,NECB-F-LIGHTING,WHOLEBUILDING-HOTEL ZN,1875.00,75.1,20249.831,10.800,269.716,0.000,0.500,0.200,0.300,1.000,General,2024.983,18224.848
 Lights Internal Gains Nominal, WHOLEBUILDING-LIBRARY ZN LIBRARY WHOLEBUILDING LIGHTS,NECB-C-LIGHTING,WHOLEBUILDING-LIBRARY ZN,1875.00,93.8,23812.302,12.700,253.733,0.000,0.500,0.200,0.300,1.000,General,1190.615,21431.072
 Lights Internal Gains Nominal, WHOLEBUILDING-MANUFACTURING FACILITY ZN MANUFACTURING FACILITY WHOLEBUILDING LIGHTS,NECB-A-LIGHTING,WHOLEBUILDING-MANUFACTURING FACILITY ZN,2500.00,83.4,29749.752,11.900,356.625,0.000,0.500,0.200,0.300,1.000,General,1487.488,26774.777
 Lights Internal Gains Nominal, WHOLEBUILDING-MOTEL ZN MOTEL WHOLEBUILDING LIGHTS,NECB-F-LIGHTING,WHOLEBUILDING-MOTEL ZN,1875.00,75.1,17812.352,9.500,237.250,0.000,0.500,0.200,0.300,1.000,General,1781.235,16031.117
 Lights Internal Gains Nominal, WHOLEBUILDING-MOTION PICTURE THEATRE ZN MOTION PICTURE THEATRE WHOLEBUILDING LIGHTS,NECB-C-LIGHTING,WHOLEBUILDING-MOTION PICTURE THEATRE ZN,1875.00,234.3,16687.361,8.900,71.217,0.000,0.500,0.200,0.300,1.000,General,834.368,15018.625
 Lights Internal Gains Nominal, WHOLEBUILDING-MULTI-UNIT RESIDENTIAL ZN MULTI-UNIT RESIDENTIAL WHOLEBUILDING LIGHTS,NECB-G-LIGHTING,WHOLEBUILDING-MULTI-UNIT RESIDENTIAL ZN,1875.00,31.3,12187.399,6.500,389.590,0.000,0.500,0.200,0.300,1.000,General,0.000,10968.659
 Lights Internal Gains Nominal, WHOLEBUILDING-MUSEUM ZN MUSEUM WHOLEBUILDING LIGHTS,NECB-C-LIGHTING,WHOLEBUILDING-MUSEUM ZN,1875.00,93.8,21374.822,11.400,227.760,0.000,0.500,0.200,0.300,1.000,General,1068.741,19237.340
 Lights Internal Gains Nominal, WHOLEBUILDING-OFFICE ZN OFFICE WHOLEBUILDING LIGHTS,NECB-A-LIGHTING,WHOLEBUILDING-OFFICE ZN,2500.00,100.1,24249.798,9.700,242.245,0.000,0.500,0.200,0.300,1.000,General,1212.490,21824.818
! <ElectricEquipment Internal Gains Nominal>,Name,Schedule Name,Zone Name,Zone Floor Area {m2},# Zone Occupants,Equipment Level {W},Equipment/Floor Area {W/m2},Equipment per person {W/person},Fraction Latent,Fraction Radiant,Fraction Lost,Fraction Convected,End-Use SubCategory,Nominal Minimum Equipment Level {W},Nominal Maximum Equipment Level {W}
 ElectricEquipment Internal Gains Nominal, WHOLEBUILDING-AUTOMOTIVE FACILITY ZN AUTOMOTIVE FACILITY WHOLEBUILDING ELEC EQUIP,NECB-E-ELECTRIC-EQUIPMENT,WHOLEBUILDING-AUTOMOTIVE FACILITY ZN,1875.00,93.8,9374.922,5.000,99.895,0.000,0.500,0.000,0.500,General,468.746,8437.430
 ElectricEquipment Internal Gains Nominal, WHOLEBUILDING-CONVENTION CENTRE ZN CONVENTION CENTRE WHOLEBUILDING ELEC EQUIP,NECB-C-ELECTRIC-EQUIPMENT,WHOLEBUILDING-CONVENTION CENTRE ZN,1875.00,234.3,4687.461,2.500,20.005,0.000,0.500,0.000,0.500,General,234.373,4218.715
 ElectricEquipment Internal Gains Nominal, WHOLEBUILDING-COURTHOUSE ZN COURTHOUSE WHOLEBUILDING ELEC EQUIP,NECB-A-ELECTRIC-EQUIPMENT,WHOLEBUILDING-COURTHOUSE ZN,1875.00,124.9,9374.922,5.000,75.042,0.000,0.500,0.000,0.500,General,1874.984,8437.430
 ElectricEquipment Internal Gains Nominal, WHOLEBUILDING-DINING - BAR/LOUNGE ZN DINING - BAR/LOUNGE WHOLEBUILDING ELEC EQUIP,NECB-B-ELECTRIC-EQUIPMENT,WHOLEBUILDING-DINING - BAR/LOUNGE ZN,2500.00,250.0,2499.979,1.000,10.000,0.000,0.500,0.000,0.500,General,249.998,2249.981
 ElectricEquipment Internal Gains Nominal, WHOLEBUILDING-DINING - CAFETERIA ZN DINING - CAFETERIA WHOLEBUILDING ELEC EQUIP,NECB-B-ELECTRIC-EQUIPMENT,WHOLEBUILDING-DINING - CAFETERIA ZN,1875.00,187.5,1874.984,1.000,10.000,0.000,0.500,0.000,0.500,General,187.498,1687.486
 ElectricEquipment Internal Gains Nominal, WHOLEBUILDING-DINING - FAMILY ZN DINING - FAMILY WHOLEBUILDING ELEC EQUIP,NECB-B-ELECTRIC-EQUIPMENT,WHOLEBUILDING-DINING - FAMILY ZN,1875.00,187.5,1874.984,1.000,10.000,0.000,0.500,0.000,0.500,General,187.498,1687.486
 ElectricEquipment Internal Gains Nominal, WHOLEBUILDING-DORMITORY ZN DORMITORY WHOLEBUILDING ELEC EQUIP,NECB-G-ELECTRIC-EQUIPMENT,WHOLEBUILDING-DORMITORY ZN,1875.00,62.6,4687.461,2.500,74.921,0.000,0.500,0.000,0.500,General,937.492,4218.715
 ElectricEquipment Internal Gains Nominal, WHOLEBUILDING-EXERCISE CENTRE ZN EXERCISE CENTRE WHOLEBUILDING ELEC EQUIP,NECB-B-ELECTRIC-EQUIPMENT,WHOLEBUILDING-EXERCISE CENTRE ZN,1875.00,187.5,1874.984,1.000,10.000,0.000,0.500,0.000,0.500,General,187.498,1687.486
 ElectricEquipment Internal Gains Nominal, WHOLEBUILDING-FIRE STATION ZN FIRE STATION WHOLEBUILDING ELEC EQUIP,NECB-F-ELECTRIC-EQUIPMENT,WHOLEBUILDING-FIRE STATION ZN,1875.00,75.1,4687.461,2.500,62.434,0.000,0.500,0.000,0.500,General,468.746,4218.715
 ElectricEquipment Internal Gains Nominal, WHOLEBUILDING-GYMNASIUM ZN GYMNASIUM WHOLEBUILDING ELEC EQUIP,NECB-B-ELECTRIC-EQUIPMENT,WHOLEBUILDING-GYMNASIUM ZN,2500.00,250.0,2499.979,1.000,10.000,0.000,0.500,0.000,0.500,General,249.998,2249.981
 ElectricEquipment Internal Gains Nominal, WHOLEBUILDING-HEALTH-CARE CLINIC ZN HEALTH-CARE CLINIC WHOLEBUILDING ELEC EQUIP,NECB-A-ELECTRIC-EQUIPMENT,WHOLEBUILDING-HEALTH-CARE CLINIC ZN,1875.00,93.8,14062.383,7.500,149.842,0.000,0.500,0.000,0.500,General,2812.477,12656.145
 ElectricEquipment Internal Gains Nominal, WHOLEBUILDING-HOSPITAL ZN HOSPITAL WHOLEBUILDING ELEC EQUIP,NECB-H-ELECTRIC-EQUIPMENT,WHOLEBUILDING-HOSPITAL ZN,1875.00,93.8,14062.383,7.500,149.842,0.000,0.500,0.000,0.500,General,12656.145,12656.145
 ElectricEquipment Internal Gains Nominal, WHOLEBUILDING-HOTEL ZN HOTEL WHOLEBUILDING ELEC EQUIP,NECB-F-ELECTRIC-EQUIPMENT,WHOLEBUILDING-HOTEL ZN,1875.00,75.1,4687.461,2.500,62.434,0.000,0.500,0.000,0.500,General,468.746,4218.715
 ElectricEquipment Internal Gains Nominal, WHOLEBUILDING-LIBRARY ZN LIBRARY WHOLEBUILDING ELEC EQUIP,NECB-C-ELECTRIC-EQUIPMENT,WHOLEBUILDING-LIBRARY ZN,1875.00,93.8,4687.461,2.500,49.947,0.000,0.500,0.000,0.500,General,234.373,4218.715
 ElectricEquipment Internal Gains Nominal, WHOLEBUILDING-MANUFACTURING FACILITY ZN MANUFACTURING FACILITY WHOLEBUILDING ELEC EQUIP,NECB-A-ELECTRIC-EQUIPMENT,WHOLEBUILDING-MANUFACTURING FACILITY ZN,2500.00,83.4,24999.792,10.000,299.685,0.000,0.500,0.000,0.500,General,4999.958,22499.813
 ElectricEquipment Internal Gains Nominal, WHOLEBUILDING-MOTEL ZN MOTEL WHOLEBUILDING ELEC EQUIP,NECB-F-ELECTRIC-EQUIPMENT,WHOLEBUILDING-MOTEL ZN,1875.00,75.1,4687.461,2.500,62.434,0.000,0.500,0.000,0.500,General,468.746,4218.715
 ElectricEquipment Internal Gains Nominal, WHOLEBUILDING-MOTION PICTURE THEATRE ZN MOTION PICTURE THEATRE WHOLEBUILDING ELEC EQUIP,NECB-C-ELECTRIC-EQUIPMENT,WHOLEBUILDING-MOTION PICTURE THEATRE ZN,1875.00,234.3,1874.984,1.000,8.002,0.000,0.500,0.000,0.500,General,93.749,1687.486
 ElectricEquipment Internal Gains Nominal, WHOLEBUILDING-MULTI-UNIT RESIDENTIAL ZN MULTI-UNIT RESIDENTIAL WHOLEBUILDING ELEC EQUIP,NECB-G-ELECTRIC-EQUIPMENT,WHOLEBUILDING-MULTI-UNIT RESIDENTIAL ZN,1875.00,31.3,9374.922,5.000,299.685,0.000,0.500,0.000,0.500,General,1874.984,8437.430
 ElectricEquipment Internal Gains Nominal, WHOLEBUILDING-MUSEUM ZN MUSEUM WHOLEBUILDING ELEC EQUIP,NECB-C-ELECTRIC-EQUIPMENT,WHOLEBUILDING-MUSEUM ZN,1875.00,93.8,4687.461,2.500,49.947,0.000,0.500,0.000,0.500,General,234.373,4218.715
 ElectricEquipment Internal Gains Nominal, WHOLEBUILDING-OFFICE ZN OFFICE WHOLEBUILDING ELEC EQUIP,NECB-A-ELECTRIC-EQUIPMENT,WHOLEBUILDING-OFFICE ZN,2500.00,100.1,18749.844,7.500,187.303,0.000,0.500,0.000,0.500,General,3749.969,16874.860
! <Shadowing/Sun Position Calculations Annual Simulations>, Calculation Method, Value {days}, Allowable Number Figures in Shadow Overlap {}, Polygon Clipping Algorithm, Sky Diffuse Modeling Algorithm, External Shading Calculation Method, Output External Shading Calculation Results, Disable Self-Shading Within Shading Zone Groups, Disable Self-Shading From Shading Zone Groups to Other Zones
Shadowing/Sun Position Calculations Annual Simulations,AverageOverDaysInFrequency,20,15000,SutherlandHodgman,SimpleSkyDiffuseModeling,InternalCalculation,No,No,No
! <ZoneInfiltration Airflow Stats Nominal>,Name,Schedule Name,Zone Name, Zone Floor Area {m2}, # Zone Occupants,Design Volume Flow Rate {m3/s},Volume Flow Rate/Floor Area {m3/s/m2},Volume Flow Rate/Exterior Surface Area {m3/s/m2},ACH - Air Changes per Hour,Equation A - Constant Term Coefficient {},Equation B - Temperature Term Coefficient {1/C},Equation C - Velocity Term Coefficient {s/m}, Equation D - Velocity Squared Term Coefficient {s2/m2}
 ZoneInfiltration Airflow Stats Nominal, WHOLEBUILDING-AUTOMOTIVE FACILITY INFILTRATION,ALWAYS ON DISCRETE,WHOLEBUILDING-AUTOMOTIVE FACILITY ZN,1875.00,93.8,0.564,3.007E-004,2.500E-004,0.285,0.000,0.000,0.224,0.000
 ZoneInfiltration Airflow Stats Nominal, WHOLEBUILDING-CONVENTION CENTRE INFILTRATION,ALWAYS ON DISCRETE,WHOLEBUILDING-CONVENTION CENTRE ZN,1875.00,234.3,0.564,3.007E-004,2.500E-004,0.285,0.000,0.000,0.224,0.000
 ZoneInfiltration Airflow Stats Nominal, WHOLEBUILDING-COURTHOUSE INFILTRATION,ALWAYS ON DISCRETE,WHOLEBUILDING-COURTHOUSE ZN,1875.00,124.9,0.564,3.007E-004,2.500E-004,0.285,0.000,0.000,0.224,0.000
 ZoneInfiltration Airflow Stats Nominal, WHOLEBUILDING-DINING - CAFETERIA INFILTRATION,ALWAYS ON DISCRETE,WHOLEBUILDING-DINING - CAFETERIA ZN,1875.00,187.5,9.500E-002,5.067E-005,2.500E-004,4.800E-002,0.000,0.000,0.224,0.000
 ZoneInfiltration Airflow Stats Nominal, WHOLEBUILDING-DINING - FAMILY INFILTRATION,ALWAYS ON DISCRETE,WHOLEBUILDING-DINING - FAMILY ZN,1875.00,187.5,9.500E-002,5.067E-005,2.500E-004,4.800E-002,0.000,0.000,0.224,0.000
 ZoneInfiltration Airflow Stats Nominal, WHOLEBUILDING-DORMITORY INFILTRATION,ALWAYS ON DISCRETE,WHOLEBUILDING-DORMITORY ZN,1875.00,62.6,9.500E-002,5.067E-005,2.500E-004,4.800E-002,0.000,0.000,0.224,0.000
 ZoneInfiltration Airflow Stats Nominal, WHOLEBUILDING-FIRE STATION INFILTRATION,ALWAYS ON DISCRETE,WHOLEBUILDING-FIRE STATION ZN,1875.00,75.1,9.500E-002,5.067E-005,2.500E-004,4.800E-002,0.000,0.000,0.224,0.000
 ZoneInfiltration Airflow Stats Nominal, WHOLEBUILDING-GYMNASIUM INFILTRATION,ALWAYS ON DISCRETE,WHOLEBUILDING-GYMNASIUM ZN,2500.00,250.0,0.625,2.500E-004,2.500E-004,0.237,0.000,0.000,0.224,0.000
 ZoneInfiltration Airflow Stats Nominal, WHOLEBUILDING-HOTEL INFILTRATION,ALWAYS ON DISCRETE,WHOLEBUILDING-HOTEL ZN,1875.00,75.1,9.500E-002,5.067E-005,2.500E-004,4.800E-002,0.000,0.000,0.224,0.000
 ZoneInfiltration Airflow Stats Nominal, WHOLEBUILDING-MOTEL INFILTRATION,ALWAYS ON DISCRETE,WHOLEBUILDING-MOTEL ZN,1875.00,75.1,9.500E-002,5.067E-005,2.500E-004,4.800E-002,0.000,0.000,0.224,0.000
 ZoneInfiltration Airflow Stats Nominal, WHOLEBUILDING-MOTION PICTURE THEATRE INFILTRATION,ALWAYS ON DISCRETE,WHOLEBUILDING-MOTION PICTURE THEATRE ZN,1875.00,234.3,0.564,3.007E-004,2.500E-004,0.285,0.000,0.000,0.224,0.000
 ZoneInfiltration Airflow Stats Nominal, WHOLEBUILDING-MULTI-UNIT RESIDENTIAL INFILTRATION,ALWAYS ON DISCRETE,WHOLEBUILDING-MULTI-UNIT RESIDENTIAL ZN,1875.00,31.3,9.500E-002,5.067E-005,2.500E-004,4.800E-002,0.000,0.000,0.224,0.000
 ZoneInfiltration Airflow Stats Nominal, WHOLEBUILDING-MUSEUM INFILTRATION,ALWAYS ON DISCRETE,WHOLEBUILDING-MUSEUM ZN,1875.00,93.8,9.500E-002,5.067E-005,2.500E-004,4.800E-002,0.000,0.000,0.224,0.000
! <AirFlow Model>, Simple
 AirFlow Model, Simple
! <RoomAir Model>, Zone Name, Mixing/Mundt/UCSDDV/UCSDCV/UCSDUFI/UCSDUFE/User Defined
RoomAir Model,WHOLEBUILDING-AUTOMOTIVE FACILITY ZN,Mixing/Well-Stirred
RoomAir Model,WHOLEBUILDING-CONVENTION CENTRE ZN,Mixing/Well-Stirred
RoomAir Model,WHOLEBUILDING-COURTHOUSE ZN,Mixing/Well-Stirred
RoomAir Model,WHOLEBUILDING-DINING - BAR/LOUNGE ZN,Mixing/Well-Stirred
RoomAir Model,WHOLEBUILDING-DINING - CAFETERIA ZN,Mixing/Well-Stirred
RoomAir Model,WHOLEBUILDING-DINING - FAMILY ZN,Mixing/Well-Stirred
RoomAir Model,WHOLEBUILDING-DORMITORY ZN,Mixing/Well-Stirred
RoomAir Model,WHOLEBUILDING-EXERCISE CENTRE ZN,Mixing/Well-Stirred
RoomAir Model,WHOLEBUILDING-FIRE STATION ZN,Mixing/Well-Stirred
RoomAir Model,WHOLEBUILDING-GYMNASIUM ZN,Mixing/Well-Stirred
RoomAir Model,WHOLEBUILDING-HEALTH-CARE CLINIC ZN,Mixing/Well-Stirred
RoomAir Model,WHOLEBUILDING-HOSPITAL ZN,Mixing/Well-Stirred
RoomAir Model,WHOLEBUILDING-HOTEL ZN,Mixing/Well-Stirred
RoomAir Model,WHOLEBUILDING-LIBRARY ZN,Mixing/Well-Stirred
RoomAir Model,WHOLEBUILDING-MANUFACTURING FACILITY ZN,Mixing/Well-Stirred
RoomAir Model,WHOLEBUILDING-MOTEL ZN,Mixing/Well-Stirred
RoomAir Model,WHOLEBUILDING-MOTION PICTURE THEATRE ZN,Mixing/Well-Stirred
RoomAir Model,WHOLEBUILDING-MULTI-UNIT RESIDENTIAL ZN,Mixing/Well-Stirred
RoomAir Model,WHOLEBUILDING-MUSEUM ZN,Mixing/Well-Stirred
RoomAir Model,WHOLEBUILDING-OFFICE ZN,Mixing/Well-Stirred
! <AirflowNetwork Model:Control>, No Multizone or Distribution/Multizone with Distribution/Multizone without Distribution/Multizone with Distribution only during Fan Operation
AirflowNetwork Model:Control,NoMultizoneOrDistribution
! <Zone Volume Capacitance Multiplier>, Sensible Heat Capacity Multiplier, Moisture Capacity Multiplier, Carbon Dioxide Capacity Multiplier, Generic Contaminant Capacity Multiplier
Zone Volume Capacitance Multiplier,   1.000 ,   1.000,   1.000,   1.000
! <Load Timesteps in Zone Design Calculation Averaging Window>, Value
 Load Timesteps in Zone Design Calculation Averaging Window,    6
! <Heating Sizing Factor Information>, Sizing Factor ID, Value
 Heating Sizing Factor Information, Global,   1.2500    
 Heating Sizing Factor Information, Zone WHOLEBUILDING-AUTOMOTIVE FACILITY ZN,   1.2500    
 Heating Sizing Factor Information, Zone WHOLEBUILDING-CONVENTION CENTRE ZN,   1.2500    
 Heating Sizing Factor Information, Zone WHOLEBUILDING-COURTHOUSE ZN,   1.2500    
 Heating Sizing Factor Information, Zone WHOLEBUILDING-DINING - BAR/LOUNGE ZN,   1.2500    
 Heating Sizing Factor Information, Zone WHOLEBUILDING-DINING - CAFETERIA ZN,   1.2500    
 Heating Sizing Factor Information, Zone WHOLEBUILDING-DINING - FAMILY ZN,   1.2500    
 Heating Sizing Factor Information, Zone WHOLEBUILDING-DORMITORY ZN,   1.2500    
 Heating Sizing Factor Information, Zone WHOLEBUILDING-EXERCISE CENTRE ZN,   1.2500    
 Heating Sizing Factor Information, Zone WHOLEBUILDING-FIRE STATION ZN,   1.2500    
 Heating Sizing Factor Information, Zone WHOLEBUILDING-GYMNASIUM ZN,   1.2500    
 Heating Sizing Factor Information, Zone WHOLEBUILDING-HEALTH-CARE CLINIC ZN,   1.2500    
 Heating Sizing Factor Information, Zone WHOLEBUILDING-HOSPITAL ZN,   1.2500    
 Heating Sizing Factor Information, Zone WHOLEBUILDING-HOTEL ZN,   1.2500    
 Heating Sizing Factor Information, Zone WHOLEBUILDING-LIBRARY ZN,   1.2500    
 Heating Sizing Factor Information, Zone WHOLEBUILDING-MANUFACTURING FACILITY ZN,   1.2500    
 Heating Sizing Factor Information, Zone WHOLEBUILDING-MOTEL ZN,   1.2500    
 Heating Sizing Factor Information, Zone WHOLEBUILDING-MOTION PICTURE THEATRE ZN,   1.2500    
 Heating Sizing Factor Information, Zone WHOLEBUILDING-MULTI-UNIT RESIDENTIAL ZN,   1.2500    
 Heating Sizing Factor Information, Zone WHOLEBUILDING-MUSEUM ZN,   1.2500    
 Heating Sizing Factor Information, Zone WHOLEBUILDING-OFFICE ZN,   1.2500    
! <Cooling Sizing Factor Information>, Sizing Factor ID, Value
 Cooling Sizing Factor Information, Global,   1.1500    
 Cooling Sizing Factor Information, Zone WHOLEBUILDING-AUTOMOTIVE FACILITY ZN,   1.1500    
 Cooling Sizing Factor Information, Zone WHOLEBUILDING-CONVENTION CENTRE ZN,   1.1500    
 Cooling Sizing Factor Information, Zone WHOLEBUILDING-COURTHOUSE ZN,   1.1500    
 Cooling Sizing Factor Information, Zone WHOLEBUILDING-DINING - BAR/LOUNGE ZN,   1.1500    
 Cooling Sizing Factor Information, Zone WHOLEBUILDING-DINING - CAFETERIA ZN,   1.1500    
 Cooling Sizing Factor Information, Zone WHOLEBUILDING-DINING - FAMILY ZN,   1.1500    
 Cooling Sizing Factor Information, Zone WHOLEBUILDING-DORMITORY ZN,   1.1500    
 Cooling Sizing Factor Information, Zone WHOLEBUILDING-EXERCISE CENTRE ZN,   1.1500    
 Cooling Sizing Factor Information, Zone WHOLEBUILDING-FIRE STATION ZN,   1.1500    
 Cooling Sizing Factor Information, Zone WHOLEBUILDING-GYMNASIUM ZN,   1.1500    
 Cooling Sizing Factor Information, Zone WHOLEBUILDING-HEALTH-CARE CLINIC ZN,   1.1500    
 Cooling Sizing Factor Information, Zone WHOLEBUILDING-HOSPITAL ZN,   1.1500    
 Cooling Sizing Factor Information, Zone WHOLEBUILDING-HOTEL ZN,   1.1500    
 Cooling Sizing Factor Information, Zone WHOLEBUILDING-LIBRARY ZN,   1.1500    
 Cooling Sizing Factor Information, Zone WHOLEBUILDING-MANUFACTURING FACILITY ZN,   1.1500    
 Cooling Sizing Factor Information, Zone WHOLEBUILDING-MOTEL ZN,   1.1500    
 Cooling Sizing Factor Information, Zone WHOLEBUILDING-MOTION PICTURE THEATRE ZN,   1.1500    
 Cooling Sizing Factor Information, Zone WHOLEBUILDING-MULTI-UNIT RESIDENTIAL ZN,   1.1500    
 Cooling Sizing Factor Information, Zone WHOLEBUILDING-MUSEUM ZN,   1.1500    
 Cooling Sizing Factor Information, Zone WHOLEBUILDING-OFFICE ZN,   1.1500    
! <Zone Sizing Information>, Zone Name, Load Type, Calc Des Load {W}, User Des Load {W}, Calc Des Air Flow Rate {m3/s}, User Des Air Flow Rate {m3/s}, Design Day Name, Date/Time of Peak, Temperature at Peak {C}, Humidity Ratio at Peak {kgWater/kgDryAir}, Floor Area {m2}, # Occupants, Calc Outdoor Air Flow Rate {m3/s}, Calc DOAS Heat Addition Rate {W}
 Zone Sizing Information, WHOLEBUILDING-AUTOMOTIVE FACILITY ZN, Cooling, 82129.33056, 94448.73014, 6.98261, 8.03000, FORT MCMURRAY AP ANN CLG .4% CONDNS DB=>MWB, 7/21 13:30:00, 28.59000, 8.76969E-003, 1875.00000, 93.84784, 2.15265, 0.00000
 Zone Sizing Information, WHOLEBUILDING-AUTOMOTIVE FACILITY ZN, Heating, 49948.01224, 62435.01530, 2.31776, 2.89720, FORT MCMURRAY AP ANN HTG 99.6% CONDNS DB, 1/21 09:00:00, -36.20000, 1.25811E-004, 1875.00000, 93.84784, 2.15265, 0.00000
 Zone Sizing Information, WHOLEBUILDING-CONVENTION CENTRE ZN, Cooling, 76375.45489, 87831.77312, 6.49397, 7.46806, FORT MCMURRAY AP ANN CLG .4% CONDNS DB=>MWB, 7/21 13:30:00, 28.59000, 8.76969E-003, 1875.00000, 234.31687, 1.40018, 0.00000
 Zone Sizing Information, WHOLEBUILDING-CONVENTION CENTRE ZN, Heating, 45682.41271, 57103.01589, 1.99392, 2.49239, FORT MCMURRAY AP ANN HTG 99.6% CONDNS DB, 1/21 08:20:00, -36.20000, 1.25811E-004, 1875.00000, 234.31687, 1.40018, 0.00000
 Zone Sizing Information, WHOLEBUILDING-COURTHOUSE ZN, Cooling, 70476.38853, 81047.84681, 5.99185, 6.89063, FORT MCMURRAY AP ANN CLG .4% CONDNS DB=>MWB, 7/21 15:00:00, 28.90000, 8.76969E-003, 1875.00000, 124.92864, 0.86678, 0.00000
 Zone Sizing Information, WHOLEBUILDING-COURTHOUSE ZN, Heating, 47935.06472, 59918.83091, 2.22222, 2.77778, FORT MCMURRAY AP ANN HTG 99.6% CONDNS DB, 1/21 08:00:00, -36.20000, 1.25811E-004, 1875.00000, 124.92864, 0.86678, 0.00000
 Zone Sizing Information, WHOLEBUILDING-DINING - BAR/LOUNGE ZN, Cooling, 46857.88715, 53886.57022, 3.98379, 4.58136, FORT MCMURRAY AP ANN CLG .4% CONDNS DB=>MWB, 7/21 20:00:00, 22.70000, 8.76969E-003, 2500.00000, 249.99182, 3.17500, 0.00000
 Zone Sizing Information, WHOLEBUILDING-DINING - BAR/LOUNGE ZN, Heating, 0.00000, 0.00000, 0.00000, 3.17500, FORT MCMURRAY AP ANN HTG 99.6% CONDNS DB, , -36.20000, 1.25811E-004, 2500.00000, 249.99182, 3.17500, 0.00000
 Zone Sizing Information, WHOLEBUILDING-DINING - CAFETERIA ZN, Cooling, 35833.34172, 41208.34298, 3.04654, 3.50352, FORT MCMURRAY AP ANN CLG .4% CONDNS DB=>MWB, 7/21 20:10:00, 22.51400, 8.76969E-003, 1875.00000, 187.49386, 2.38125, 0.00000
 Zone Sizing Information, WHOLEBUILDING-DINING - CAFETERIA ZN, Heating, 21205.17837, 26506.47296, 0.96178, 2.38125, FORT MCMURRAY AP ANN HTG 99.6% CONDNS DB, 1/21 10:00:00, -36.20000, 1.25811E-004, 1875.00000, 187.49386, 2.38125, 0.00000
 Zone Sizing Information, WHOLEBUILDING-DINING - FAMILY ZN, Cooling, 49247.98058, 56635.17766, 4.18701, 4.81506, FORT MCMURRAY AP ANN CLG .4% CONDNS DB=>MWB, 7/21 19:30:00, 23.38200, 8.76969E-003, 1875.00000, 187.49386, 2.38125, 0.00000
 Zone Sizing Information, WHOLEBUILDING-DINING - FAMILY ZN, Heating, 22968.86980, 28711.08724, 1.04483, 2.38125, FORT MCMURRAY AP ANN HTG 99.6% CONDNS DB, 1/21 10:00:00, -36.20000, 1.25811E-004, 1875.00000, 187.49386, 2.38125, 0.00000
 Zone Sizing Information, WHOLEBUILDING-DORMITORY ZN, Cooling, 22249.01243, 25586.36429, 1.89148, 2.17520, FORT MCMURRAY AP ANN CLG .4% CONDNS DB=>MWB, 7/21 20:00:00, 22.70000, 8.76969E-003, 1875.00000, 62.56523, 0.71438, 0.00000
 Zone Sizing Information, WHOLEBUILDING-DORMITORY ZN, Heating, 6604.23887, 8255.29859, 0.31223, 0.71438, FORT MCMURRAY AP ANN HTG 99.6% CONDNS DB, 1/21 10:40:00, -36.20000, 1.25811E-004, 1875.00000, 62.56523, 0.71438, 0.00000
 Zone Sizing Information, WHOLEBUILDING-EXERCISE CENTRE ZN, Cooling, 23840.08904, 27416.10239, 2.02692, 2.34315, FORT MCMURRAY AP ANN CLG .4% CONDNS DB=>MWB, 7/21 22:00:00, 20.46800, 8.76969E-003, 1875.00000, 187.49386, 2.34315, 0.00000
 Zone Sizing Information, WHOLEBUILDING-EXERCISE CENTRE ZN, Heating, 0.00000, 0.00000, 0.00000, 2.34315, FORT MCMURRAY AP ANN HTG 99.6% CONDNS DB, , -36.20000, 1.25811E-004, 1875.00000, 187.49386, 2.34315, 0.00000
 Zone Sizing Information, WHOLEBUILDING-FIRE STATION ZN, Cooling, 30112.43099, 34629.29564, 2.55996, 2.94395, FORT MCMURRAY AP ANN CLG .4% CONDNS DB=>MWB, 7/21 19:50:00, 22.92733, 8.76969E-003, 1875.00000, 75.07828, 1.40970, 0.00000
 Zone Sizing Information, WHOLEBUILDING-FIRE STATION ZN, Heating, 3979.69122, 4974.61402, 0.18814, 1.40970, FORT MCMURRAY AP ANN HTG 99.6% CONDNS DB, 1/21 13:00:00, -36.20000, 1.25811E-004, 1875.00000, 75.07828, 1.40970, 0.00000
 Zone Sizing Information, WHOLEBUILDING-GYMNASIUM ZN, Cooling, 87236.44126, 100321.90744, 7.41727, 8.52986, FORT MCMURRAY AP ANN CLG .4% CONDNS DB=>MWB, 7/21 13:10:00, 28.38333, 8.76969E-003, 2500.00000, 249.99182, 3.12420, 0.00000
 Zone Sizing Information, WHOLEBUILDING-GYMNASIUM ZN, Heating, 35463.98126, 44329.97658, 1.62202, 3.12420, FORT MCMURRAY AP ANN HTG 99.6% CONDNS DB, 1/21 10:00:00, -36.20000, 1.25811E-004, 2500.00000, 249.99182, 3.12420, 0.00000
 Zone Sizing Information, WHOLEBUILDING-HEALTH-CARE CLINIC ZN, Cooling, 28040.03620, 32246.04163, 2.38398, 4.28625, FORT MCMURRAY AP ANN CLG .4% CONDNS DB=>MWB, 7/21 17:00:00, 27.16400, 8.76969E-003, 1875.00000, 93.84784, 4.28625, 0.00000
 Zone Sizing Information, WHOLEBUILDING-HEALTH-CARE CLINIC ZN, Heating, 0.00000, 0.00000, 0.00000, 4.28625, FORT MCMURRAY AP ANN HTG 99.6% CONDNS DB, , -36.20000, 1.25811E-004, 1875.00000, 93.84784, 4.28625, 0.00000
 Zone Sizing Information, WHOLEBUILDING-HOSPITAL ZN, Cooling, 36094.91265, 41509.14955, 3.06880, 4.28625, FORT MCMURRAY AP ANN CLG .4% CONDNS DB=>MWB, 7/21 12:00:00, 27.28800, 8.76969E-003, 1875.00000, 93.84784, 4.28625, 0.00000
 Zone Sizing Information, WHOLEBUILDING-HOSPITAL ZN, Heating, 0.00000, 0.00000, 0.00000, 4.28625, FORT MCMURRAY AP ANN HTG 99.6% CONDNS DB, , -36.20000, 1.25811E-004, 1875.00000, 93.84784, 4.28625, 0.00000
 Zone Sizing Information, WHOLEBUILDING-HOTEL ZN, Cooling, 35942.04721, 41333.35429, 3.05562, 3.51396, FORT MCMURRAY AP ANN CLG .4% CONDNS DB=>MWB, 7/21 09:10:00, 22.43133, 8.76969E-003, 1875.00000, 75.07828, 0.75248, 0.00000
 Zone Sizing Information, WHOLEBUILDING-HOTEL ZN, Heating, 15388.72311, 19235.90389, 0.70859, 0.88573, FORT MCMURRAY AP ANN HTG 99.6% CONDNS DB, 1/21 09:00:00, -36.20000, 1.25811E-004, 1875.00000, 75.07828, 0.75248, 0.00000
 Zone Sizing Information, WHOLEBUILDING-LIBRARY ZN, Cooling, 24554.43066, 28237.59526, 2.08759, 2.40073, FORT MCMURRAY AP ANN CLG .4% CONDNS DB=>MWB, 7/21 17:00:00, 27.16400, 8.76969E-003, 1875.00000, 93.84784, 1.36208, 0.00000
 Zone Sizing Information, WHOLEBUILDING-LIBRARY ZN, Heating, 0.00000, 0.00000, 0.00000, 1.36208, FORT MCMURRAY AP ANN HTG 99.6% CONDNS DB, , -36.20000, 1.25811E-004, 1875.00000, 93.84784, 1.36208, 0.00000
 Zone Sizing Information, WHOLEBUILDING-MANUFACTURING FACILITY ZN, Cooling, 42662.30810, 49061.65431, 3.62703, 4.17108, FORT MCMURRAY AP ANN CLG .4% CONDNS DB=>MWB, 7/21 17:00:00, 27.16400, 8.76969E-003, 2500.00000, 83.42031, 2.67970, 0.00000
 Zone Sizing Information, WHOLEBUILDING-MANUFACTURING FACILITY ZN, Heating, 0.00000, 0.00000, 0.00000, 2.67970, FORT MCMURRAY AP ANN HTG 99.6% CONDNS DB, , -36.20000, 1.25811E-004, 2500.00000, 83.42031, 2.67970, 0.00000
 Zone Sizing Information, WHOLEBUILDING-MOTEL ZN, Cooling, 22390.32291, 25748.87135, 1.90349, 2.18901, FORT MCMURRAY AP ANN CLG .4% CONDNS DB=>MWB, 7/21 22:00:00, 20.46800, 8.76969E-003, 1875.00000, 75.07828, 0.75248, 0.00000
 Zone Sizing Information, WHOLEBUILDING-MOTEL ZN, Heating, 2776.36697, 3470.45871, 0.13125, 0.75248, FORT MCMURRAY AP ANN HTG 99.6% CONDNS DB, 1/21 13:10:00, -36.20000, 1.25811E-004, 1875.00000, 75.07828, 0.75248, 0.00000
 Zone Sizing Information, WHOLEBUILDING-MOTION PICTURE THEATRE ZN, Cooling, 80241.07829, 92277.24003, 6.82272, 7.84613, FORT MCMURRAY AP ANN CLG .4% CONDNS DB=>MWB, 7/21 16:20:00, 27.82533, 8.76969E-003, 1875.00000, 234.31687, 1.12395, 0.00000
 Zone Sizing Information, WHOLEBUILDING-MOTION PICTURE THEATRE ZN, Heating, 48649.48510, 60811.85638, 2.25677, 2.82096, FORT MCMURRAY AP ANN HTG 99.6% CONDNS DB, 1/21 09:00:00, -36.20000, 1.25811E-004, 1875.00000, 234.31687, 1.12395, 0.00000
 Zone Sizing Information, WHOLEBUILDING-MULTI-UNIT RESIDENTIAL ZN, Cooling, 28697.05732, 33001.61591, 2.43961, 2.80555, FORT MCMURRAY AP ANN CLG .4% CONDNS DB=>MWB, 7/21 20:00:00, 22.70000, 8.76969E-003, 1875.00000, 31.28261, 0.64770, 0.00000
 Zone Sizing Information, WHOLEBUILDING-MULTI-UNIT RESIDENTIAL ZN, Heating, 23819.02859, 29773.78573, 1.08556, 1.35695, FORT MCMURRAY AP ANN HTG 99.6% CONDNS DB, 1/21 09:00:00, -36.20000, 1.25811E-004, 1875.00000, 31.28261, 0.64770, 0.00000
 Zone Sizing Information, WHOLEBUILDING-MUSEUM ZN, Cooling, 45252.33447, 52040.18464, 3.48507, 4.00783, FORT MCMURRAY AP ANN CLG .4% CONDNS DB=>MWB, 7/21 08:00:00, 19.72400, 8.76969E-003, 1875.00000, 93.84784, 0.90488, 0.00000
 Zone Sizing Information, WHOLEBUILDING-MUSEUM ZN, Heating, 1407.55575, 1759.44469, 6.52531E-002, 0.90488, FORT MCMURRAY AP ANN HTG 99.6% CONDNS DB, 1/21 08:10:00, -36.20000, 1.25811E-004, 1875.00000, 93.84784, 0.90488, 0.00000
 Zone Sizing Information, WHOLEBUILDING-OFFICE ZN, Cooling, 41936.77070, 48227.28630, 3.56540, 4.10021, FORT MCMURRAY AP ANN CLG .4% CONDNS DB=>MWB, 7/21 17:00:00, 27.16400, 8.76969E-003, 2500.00000, 100.10437, 1.00330, 0.00000
 Zone Sizing Information, WHOLEBUILDING-OFFICE ZN, Heating, 0.00000, 0.00000, 0.00000, 1.00330, FORT MCMURRAY AP ANN HTG 99.6% CONDNS DB, , -36.20000, 1.25811E-004, 2500.00000, 100.10437, 1.00330, 0.00000
! <Component Sizing Information>, Component Type, Component Name, Input Field Description, Value
 Component Sizing Information, ZoneHVAC:IdealLoadsAirSystem, ZONE HVAC IDEAL LOADS AIR SYSTEM 1, User-Specified Maximum Heating Air Flow Rate [m3/s], 0.00000
 Component Sizing Information, ZoneHVAC:IdealLoadsAirSystem, ZONE HVAC IDEAL LOADS AIR SYSTEM 1, User-Specified Maximum Cooling Air Flow Rate [m3/s], 0.00000
 Component Sizing Information, ZoneHVAC:IdealLoadsAirSystem, ZONE HVAC IDEAL LOADS AIR SYSTEM 2, User-Specified Maximum Heating Air Flow Rate [m3/s], 0.00000
 Component Sizing Information, ZoneHVAC:IdealLoadsAirSystem, ZONE HVAC IDEAL LOADS AIR SYSTEM 2, User-Specified Maximum Cooling Air Flow Rate [m3/s], 0.00000
 Component Sizing Information, ZoneHVAC:IdealLoadsAirSystem, ZONE HVAC IDEAL LOADS AIR SYSTEM 3, User-Specified Maximum Heating Air Flow Rate [m3/s], 0.00000
 Component Sizing Information, ZoneHVAC:IdealLoadsAirSystem, ZONE HVAC IDEAL LOADS AIR SYSTEM 3, User-Specified Maximum Cooling Air Flow Rate [m3/s], 0.00000
 Component Sizing Information, ZoneHVAC:IdealLoadsAirSystem, ZONE HVAC IDEAL LOADS AIR SYSTEM 4, User-Specified Maximum Heating Air Flow Rate [m3/s], 0.00000
 Component Sizing Information, ZoneHVAC:IdealLoadsAirSystem, ZONE HVAC IDEAL LOADS AIR SYSTEM 4, User-Specified Maximum Cooling Air Flow Rate [m3/s], 0.00000
 Component Sizing Information, ZoneHVAC:IdealLoadsAirSystem, ZONE HVAC IDEAL LOADS AIR SYSTEM 5, User-Specified Maximum Heating Air Flow Rate [m3/s], 0.00000
 Component Sizing Information, ZoneHVAC:IdealLoadsAirSystem, ZONE HVAC IDEAL LOADS AIR SYSTEM 5, User-Specified Maximum Cooling Air Flow Rate [m3/s], 0.00000
 Component Sizing Information, ZoneHVAC:IdealLoadsAirSystem, ZONE HVAC IDEAL LOADS AIR SYSTEM 6, User-Specified Maximum Heating Air Flow Rate [m3/s], 0.00000
 Component Sizing Information, ZoneHVAC:IdealLoadsAirSystem, ZONE HVAC IDEAL LOADS AIR SYSTEM 6, User-Specified Maximum Cooling Air Flow Rate [m3/s], 0.00000
 Component Sizing Information, ZoneHVAC:IdealLoadsAirSystem, ZONE HVAC IDEAL LOADS AIR SYSTEM 7, User-Specified Maximum Heating Air Flow Rate [m3/s], 0.00000
 Component Sizing Information, ZoneHVAC:IdealLoadsAirSystem, ZONE HVAC IDEAL LOADS AIR SYSTEM 7, User-Specified Maximum Cooling Air Flow Rate [m3/s], 0.00000
 Component Sizing Information, ZoneHVAC:IdealLoadsAirSystem, ZONE HVAC IDEAL LOADS AIR SYSTEM 8, User-Specified Maximum Heating Air Flow Rate [m3/s], 0.00000
 Component Sizing Information, ZoneHVAC:IdealLoadsAirSystem, ZONE HVAC IDEAL LOADS AIR SYSTEM 8, User-Specified Maximum Cooling Air Flow Rate [m3/s], 0.00000
 Component Sizing Information, ZoneHVAC:IdealLoadsAirSystem, ZONE HVAC IDEAL LOADS AIR SYSTEM 9, User-Specified Maximum Heating Air Flow Rate [m3/s], 0.00000
 Component Sizing Information, ZoneHVAC:IdealLoadsAirSystem, ZONE HVAC IDEAL LOADS AIR SYSTEM 9, User-Specified Maximum Cooling Air Flow Rate [m3/s], 0.00000
 Component Sizing Information, ZoneHVAC:IdealLoadsAirSystem, ZONE HVAC IDEAL LOADS AIR SYSTEM 10, User-Specified Maximum Heating Air Flow Rate [m3/s], 0.00000
 Component Sizing Information, ZoneHVAC:IdealLoadsAirSystem, ZONE HVAC IDEAL LOADS AIR SYSTEM 10, User-Specified Maximum Cooling Air Flow Rate [m3/s], 0.00000
 Component Sizing Information, ZoneHVAC:IdealLoadsAirSystem, ZONE HVAC IDEAL LOADS AIR SYSTEM 11, User-Specified Maximum Heating Air Flow Rate [m3/s], 0.00000
 Component Sizing Information, ZoneHVAC:IdealLoadsAirSystem, ZONE HVAC IDEAL LOADS AIR SYSTEM 11, User-Specified Maximum Cooling Air Flow Rate [m3/s], 0.00000
 Component Sizing Information, ZoneHVAC:IdealLoadsAirSystem, ZONE HVAC IDEAL LOADS AIR SYSTEM 12, User-Specified Maximum Heating Air Flow Rate [m3/s], 0.00000
 Component Sizing Information, ZoneHVAC:IdealLoadsAirSystem, ZONE HVAC IDEAL LOADS AIR SYSTEM 12, User-Specified Maximum Cooling Air Flow Rate [m3/s], 0.00000
 Component Sizing Information, ZoneHVAC:IdealLoadsAirSystem, ZONE HVAC IDEAL LOADS AIR SYSTEM 13, User-Specified Maximum Heating Air Flow Rate [m3/s], 0.00000
 Component Sizing Information, ZoneHVAC:IdealLoadsAirSystem, ZONE HVAC IDEAL LOADS AIR SYSTEM 13, User-Specified Maximum Cooling Air Flow Rate [m3/s], 0.00000
 Component Sizing Information, ZoneHVAC:IdealLoadsAirSystem, ZONE HVAC IDEAL LOADS AIR SYSTEM 14, User-Specified Maximum Heating Air Flow Rate [m3/s], 0.00000
 Component Sizing Information, ZoneHVAC:IdealLoadsAirSystem, ZONE HVAC IDEAL LOADS AIR SYSTEM 14, User-Specified Maximum Cooling Air Flow Rate [m3/s], 0.00000
 Component Sizing Information, ZoneHVAC:IdealLoadsAirSystem, ZONE HVAC IDEAL LOADS AIR SYSTEM 15, User-Specified Maximum Heating Air Flow Rate [m3/s], 0.00000
 Component Sizing Information, ZoneHVAC:IdealLoadsAirSystem, ZONE HVAC IDEAL LOADS AIR SYSTEM 15, User-Specified Maximum Cooling Air Flow Rate [m3/s], 0.00000
 Component Sizing Information, ZoneHVAC:IdealLoadsAirSystem, ZONE HVAC IDEAL LOADS AIR SYSTEM 16, User-Specified Maximum Heating Air Flow Rate [m3/s], 0.00000
 Component Sizing Information, ZoneHVAC:IdealLoadsAirSystem, ZONE HVAC IDEAL LOADS AIR SYSTEM 16, User-Specified Maximum Cooling Air Flow Rate [m3/s], 0.00000
 Component Sizing Information, ZoneHVAC:IdealLoadsAirSystem, ZONE HVAC IDEAL LOADS AIR SYSTEM 17, User-Specified Maximum Heating Air Flow Rate [m3/s], 0.00000
 Component Sizing Information, ZoneHVAC:IdealLoadsAirSystem, ZONE HVAC IDEAL LOADS AIR SYSTEM 17, User-Specified Maximum Cooling Air Flow Rate [m3/s], 0.00000
 Component Sizing Information, ZoneHVAC:IdealLoadsAirSystem, ZONE HVAC IDEAL LOADS AIR SYSTEM 18, User-Specified Maximum Heating Air Flow Rate [m3/s], 0.00000
 Component Sizing Information, ZoneHVAC:IdealLoadsAirSystem, ZONE HVAC IDEAL LOADS AIR SYSTEM 18, User-Specified Maximum Cooling Air Flow Rate [m3/s], 0.00000
 Component Sizing Information, ZoneHVAC:IdealLoadsAirSystem, ZONE HVAC IDEAL LOADS AIR SYSTEM 19, User-Specified Maximum Heating Air Flow Rate [m3/s], 0.00000
 Component Sizing Information, ZoneHVAC:IdealLoadsAirSystem, ZONE HVAC IDEAL LOADS AIR SYSTEM 19, User-Specified Maximum Cooling Air Flow Rate [m3/s], 0.00000
 Component Sizing Information, ZoneHVAC:IdealLoadsAirSystem, ZONE HVAC IDEAL LOADS AIR SYSTEM 20, User-Specified Maximum Heating Air Flow Rate [m3/s], 0.00000
 Component Sizing Information, ZoneHVAC:IdealLoadsAirSystem, ZONE HVAC IDEAL LOADS AIR SYSTEM 20, User-Specified Maximum Cooling Air Flow Rate [m3/s], 0.00000
! <Environment>,Environment Name,Environment Type, Start Date, End Date, Start DayOfWeek, Duration {#days}, Source:Start DayOfWeek,  Use Daylight Saving, Use Holidays, Apply Weekend Holiday Rule,  Use Rain Values, Use Snow Values
! <Environment:Special Days>, Special Day Name, Special Day Type, Source, Start Date, Duration {#days}
! <Environment:Daylight Saving>, Daylight Saving Indicator, Source, Start Date, End Date
! <Environment:WarmupDays>, NumberofWarmupDays
Environment,FORT MCMURRAY AP ANN CLG .4% CONDNS DB=>MWB,SizingPeriod:DesignDay,07/21,07/21,SummerDesignDay,1,N/A,N/A,N/A,N/A,N/A,N/A
Environment:Daylight Saving,No,SizingPeriod:DesignDay
! <Environment:Design Day Data>, Max Dry-Bulb Temp {C}, Temp Range {dC}, Temp Range Ind Type, Hum Ind Value at Max Temp, Hum Ind Type,Pressure {Pa}, Wind Direction {deg CW from N}, Wind Speed {m/s}, Clearness, Rain, Snow
! <Environment:Design Day Misc>,DayOfYear,ASHRAE A Coeff,ASHRAE B Coeff,ASHRAE C Coeff,Solar Constant-Annual Variation,Eq of Time {minutes}, Solar Declination Angle {deg}, Solar Model
Environment:Design Day Data,28.90,12.40,DefaultMultipliers,96969,250,3.7,0.00,No,No
Environment:Design Day Misc,202,1084.4,0.2082,0.1365,1.0,-6.23,20.6,ASHRAETau
Environment:WarmupDays,  6
! <Tabular Report>,Style,Unit Conversion
Tabular Report,HTML,None
! <Warmup Convergence Information>,Zone Name,Environment Type/Name,Average Warmup Temperature Difference {deltaC},Std Dev Warmup Temperature Difference {deltaC},Max Temperature Pass/Fail Convergence,Min Temperature Pass/Fail Convergence,Average Warmup Load Difference {W},Std Dev Warmup Load Difference {W},Heating Load Pass/Fail Convergence,Cooling Load Pass/Fail Convergence
 Warmup Convergence Information,WHOLEBUILDING-AUTOMOTIVE FACILITY ZN,SizingPeriod: FORT MCMURRAY AP ANN CLG .4% CONDNS DB=>MWB,5.8411678583E-002,9.0716116683E-002,Pass,Pass,7.6228195317E-002,0.4771395936,Pass,Pass
 Warmup Convergence Information,WHOLEBUILDING-CONVENTION CENTRE ZN,SizingPeriod: FORT MCMURRAY AP ANN CLG .4% CONDNS DB=>MWB,5.0180260332E-002,0.1158533362,Pass,Pass,5.6111337184E-002,0.2638351377,Pass,Pass
 Warmup Convergence Information,WHOLEBUILDING-COURTHOUSE ZN,SizingPeriod: FORT MCMURRAY AP ANN CLG .4% CONDNS DB=>MWB,2.9865545050E-002,4.6356713598E-002,Pass,Pass,5.5425174444E-002,0.2584830274,Pass,Pass
 Warmup Convergence Information,WHOLEBUILDING-DINING - BAR/LOUNGE ZN,SizingPeriod: FORT MCMURRAY AP ANN CLG .4% CONDNS DB=>MWB,1.8753947605E-002,3.7008435402E-002,Pass,Pass,2.9098744824E-002,6.9106559800E-002,Pass,Pass
 Warmup Convergence Information,WHOLEBUILDING-DINING - CAFETERIA ZN,SizingPeriod: FORT MCMURRAY AP ANN CLG .4% CONDNS DB=>MWB,1.7118146082E-002,3.6653503257E-002,Pass,Pass,2.6624639363E-002,5.0141161455E-002,Pass,Pass
 Warmup Convergence Information,WHOLEBUILDING-DINING - FAMILY ZN,SizingPeriod: FORT MCMURRAY AP ANN CLG .4% CONDNS DB=>MWB,1.9188021492E-002,3.7391039607E-002,Pass,Pass,2.9398880865E-002,5.6508022886E-002,Pass,Pass
 Warmup Convergence Information,WHOLEBUILDING-DORMITORY ZN,SizingPeriod: FORT MCMURRAY AP ANN CLG .4% CONDNS DB=>MWB,2.8446381053E-014,2.4469262726E-014,Pass,Pass,2.0629796280E-002,4.0543729672E-002,Pass,Pass
 Warmup Convergence Information,WHOLEBUILDING-EXERCISE CENTRE ZN,SizingPeriod: FORT MCMURRAY AP ANN CLG .4% CONDNS DB=>MWB,2.6869778547E-002,5.4819063664E-002,Pass,Pass,4.0202310991E-002,0.1105981205,Pass,Pass
 Warmup Convergence Information,WHOLEBUILDING-FIRE STATION ZN,SizingPeriod: FORT MCMURRAY AP ANN CLG .4% CONDNS DB=>MWB,1.2174789991E-003,4.7422708483E-003,Pass,Pass,1.8557001432E-002,2.0763482213E-002,Pass,Pass
 Warmup Convergence Information,WHOLEBUILDING-GYMNASIUM ZN,SizingPeriod: FORT MCMURRAY AP ANN CLG .4% CONDNS DB=>MWB,3.8183494160E-002,7.8659614245E-002,Pass,Pass,2.6214903847E-002,3.8895857715E-002,Pass,Pass
 Warmup Convergence Information,WHOLEBUILDING-HEALTH-CARE CLINIC ZN,SizingPeriod: FORT MCMURRAY AP ANN CLG .4% CONDNS DB=>MWB,4.6414459808E-002,0.1183936780,Pass,Pass,3.3008340194E-002,9.1525005534E-002,Pass,Pass
 Warmup Convergence Information,WHOLEBUILDING-HOSPITAL ZN,SizingPeriod: FORT MCMURRAY AP ANN CLG .4% CONDNS DB=>MWB,6.6939991323E-003,1.4844450519E-002,Pass,Pass,3.0590334250E-003,7.8630127901E-003,Pass,Pass
 Warmup Convergence Information,WHOLEBUILDING-HOTEL ZN,SizingPeriod: FORT MCMURRAY AP ANN CLG .4% CONDNS DB=>MWB,3.8389045029E-014,3.0870579337E-014,Pass,Pass,1.6187833135E-002,2.2300996734E-002,Pass,Pass
 Warmup Convergence Information,WHOLEBUILDING-LIBRARY ZN,SizingPeriod: FORT MCMURRAY AP ANN CLG .4% CONDNS DB=>MWB,2.0640635475E-002,4.3741351175E-002,Pass,Pass,3.9239424164E-002,0.1835904822,Pass,Pass
 Warmup Convergence Information,WHOLEBUILDING-MANUFACTURING FACILITY ZN,SizingPeriod: FORT MCMURRAY AP ANN CLG .4% CONDNS DB=>MWB,2.4976027971E-002,4.7318782287E-002,Pass,Pass,2.9882919795E-002,0.1034249172,Pass,Pass
 Warmup Convergence Information,WHOLEBUILDING-MOTEL ZN,SizingPeriod: FORT MCMURRAY AP ANN CLG .4% CONDNS DB=>MWB,2.6990755310E-014,2.1997515494E-014,Pass,Pass,1.4694741412E-002,3.0267902329E-002,Pass,Pass
 Warmup Convergence Information,WHOLEBUILDING-MOTION PICTURE THEATRE ZN,SizingPeriod: FORT MCMURRAY AP ANN CLG .4% CONDNS DB=>MWB,3.2985820644E-002,5.3359770248E-002,Pass,Pass,5.9321267922E-002,0.3172819111,Pass,Pass
 Warmup Convergence Information,WHOLEBUILDING-MULTI-UNIT RESIDENTIAL ZN,SizingPeriod: FORT MCMURRAY AP ANN CLG .4% CONDNS DB=>MWB,3.3257347493E-014,2.8044853370E-014,Pass,Pass,2.5393608482E-002,4.6341505152E-002,Pass,Pass
 Warmup Convergence Information,WHOLEBUILDING-MUSEUM ZN,SizingPeriod: FORT MCMURRAY AP ANN CLG .4% CONDNS DB=>MWB,4.0957952234E-002,0.1849738237,Pass,Pass,6.0818290226E-002,0.4070745030,Pass,Pass
 Warmup Convergence Information,WHOLEBUILDING-OFFICE ZN,SizingPeriod: FORT MCMURRAY AP ANN CLG .4% CONDNS DB=>MWB,2.2343197783E-002,7.1171609115E-002,Pass,Pass,5.2748713150E-002,0.3260574782,Pass,Pass
Environment,FORT MCMURRAY AP ANN HTG 99.6% CONDNS DB,SizingPeriod:DesignDay,01/21,01/21,WinterDesignDay,1,N/A,N/A,N/A,N/A,N/A,N/A
Environment:Daylight Saving,No,SizingPeriod:DesignDay
Environment:Design Day Data,-36.20,0.00,DefaultMultipliers,96969,90,1.0,0.00,No,No
Environment:Design Day Misc, 21,1229.0,0.1415,5.7310E-002,1.0,-11.15,-20.1,ASHRAEClearSky
Environment:WarmupDays,  6
 Warmup Convergence Information,WHOLEBUILDING-AUTOMOTIVE FACILITY ZN,SizingPeriod: FORT MCMURRAY AP ANN HTG 99.6% CONDNS DB,5.5555555556E-002,0.3640256906,Pass,Pass,8.4395398962E-002,0.3856792817,Pass,Pass
 Warmup Convergence Information,WHOLEBUILDING-CONVENTION CENTRE ZN,SizingPeriod: FORT MCMURRAY AP ANN HTG 99.6% CONDNS DB,5.6078842039E-002,0.3528091172,Pass,Pass,7.0371385843E-002,0.2216739708,Pass,Pass
 Warmup Convergence Information,WHOLEBUILDING-COURTHOUSE ZN,SizingPeriod: FORT MCMURRAY AP ANN HTG 99.6% CONDNS DB,5.6850895390E-002,0.3365550011,Pass,Pass,8.5018947378E-002,0.2935922415,Pass,Pass
 Warmup Convergence Information,WHOLEBUILDING-DINING - BAR/LOUNGE ZN,SizingPeriod: FORT MCMURRAY AP ANN HTG 99.6% CONDNS DB,5.5794072756E-002,0.3622879590,Pass,Pass,0.3489815163,1.3856801526,Pass,Pass
 Warmup Convergence Information,WHOLEBUILDING-DINING - CAFETERIA ZN,SizingPeriod: FORT MCMURRAY AP ANN HTG 99.6% CONDNS DB,5.5598451751E-002,0.3635488401,Pass,Pass,0.2197663996,0.6135670581,Pass,Pass
 Warmup Convergence Information,WHOLEBUILDING-DINING - FAMILY ZN,SizingPeriod: FORT MCMURRAY AP ANN HTG 99.6% CONDNS DB,5.5592466171E-002,0.3635935998,Pass,Pass,1.0579288596,9.9201705747,Pass,Pass
 Warmup Convergence Information,WHOLEBUILDING-DORMITORY ZN,SizingPeriod: FORT MCMURRAY AP ANN HTG 99.6% CONDNS DB,6.1061988945E-002,0.3181142742,Pass,Pass,1.1817373875,9.3169170829,Pass,Pass
 Warmup Convergence Information,WHOLEBUILDING-EXERCISE CENTRE ZN,SizingPeriod: FORT MCMURRAY AP ANN HTG 99.6% CONDNS DB,5.5840087958E-002,0.3619793820,Pass,Pass,0.3172554490,1.4159244723,Pass,Pass
 Warmup Convergence Information,WHOLEBUILDING-FIRE STATION ZN,SizingPeriod: FORT MCMURRAY AP ANN HTG 99.6% CONDNS DB,5.7255695204E-002,0.3426074557,Pass,Pass,0.7226923607,5.1977995458,Pass,Pass
 Warmup Convergence Information,WHOLEBUILDING-GYMNASIUM ZN,SizingPeriod: FORT MCMURRAY AP ANN HTG 99.6% CONDNS DB,5.5555555556E-002,0.3642324273,Pass,Pass,0.1613288163,0.4986398574,Pass,Pass
 Warmup Convergence Information,WHOLEBUILDING-HEALTH-CARE CLINIC ZN,SizingPeriod: FORT MCMURRAY AP ANN HTG 99.6% CONDNS DB,5.5555555556E-002,0.3773881948,Pass,Pass,0.2289335030,1.1753625883,Pass,Pass
 Warmup Convergence Information,WHOLEBUILDING-HOSPITAL ZN,SizingPeriod: FORT MCMURRAY AP ANN HTG 99.6% CONDNS DB,5.5555555556E-002,0.3755465616,Pass,Pass,7.9372211966E-002,0.3978160121,Pass,Pass
 Warmup Convergence Information,WHOLEBUILDING-HOTEL ZN,SizingPeriod: FORT MCMURRAY AP ANN HTG 99.6% CONDNS DB,6.0263034416E-002,0.3185389359,Pass,Pass,0.4397739069,2.3955569567,Pass,Pass
 Warmup Convergence Information,WHOLEBUILDING-LIBRARY ZN,SizingPeriod: FORT MCMURRAY AP ANN HTG 99.6% CONDNS DB,5.7741978108E-002,0.3411377883,Pass,Pass,0.4330946216,2.6988081181,Pass,Pass
 Warmup Convergence Information,WHOLEBUILDING-MANUFACTURING FACILITY ZN,SizingPeriod: FORT MCMURRAY AP ANN HTG 99.6% CONDNS DB,5.6368477345E-002,0.3537674664,Pass,Pass,1.5904020727,12.0598991957,Pass,Pass
 Warmup Convergence Information,WHOLEBUILDING-MOTEL ZN,SizingPeriod: FORT MCMURRAY AP ANN HTG 99.6% CONDNS DB,6.1100367374E-002,0.3154348748,Pass,Pass,0.3720619343,1.3952850000,Pass,Pass
 Warmup Convergence Information,WHOLEBUILDING-MOTION PICTURE THEATRE ZN,SizingPeriod: FORT MCMURRAY AP ANN HTG 99.6% CONDNS DB,5.6453152400E-002,0.3467123275,Pass,Pass,6.9354945658E-002,0.2323812421,Pass,Pass
 Warmup Convergence Information,WHOLEBUILDING-MULTI-UNIT RESIDENTIAL ZN,SizingPeriod: FORT MCMURRAY AP ANN HTG 99.6% CONDNS DB,6.1013049998E-002,0.3196902028,Pass,Pass,0.1471965677,0.4915312002,Pass,Pass
 Warmup Convergence Information,WHOLEBUILDING-MUSEUM ZN,SizingPeriod: FORT MCMURRAY AP ANN HTG 99.6% CONDNS DB,5.9445821380E-002,0.3255720668,Pass,Pass,0.2069110028,0.6006698574,Pass,Pass
 Warmup Convergence Information,WHOLEBUILDING-OFFICE ZN,SizingPeriod: FORT MCMURRAY AP ANN HTG 99.6% CONDNS DB,6.1862362949E-002,0.3071217159,Pass,Pass,1.8178787066,18.8352925457,Pass,Pass
! <Program Control Information:Threads/Parallel Sims>, Threading Supported,Maximum Number of Threads, Env Set Threads (OMP_NUM_THREADS), EP Env Set Threads (EP_OMP_NUM_THREADS), IDF Set Threads, Number of Threads Used (Interior Radiant Exchange), Number Nominal Surfaces, Number Parallel Sims
Program Control:Threads/Parallel Sims, No,1, N/A, N/A, N/A, N/A, N/A, N/A
End of Data
