Program Version,EnergyPlus, Version 8.9.0-eba93e8e1b, YMD=2019.03.19 18:43
! This file shows details about the branches, nodes, and other
! elements of the flow connections.
! This file is intended for use in "debugging" potential problems
! that may also be detected by the program, but may be more easily
! identified by "eye".
! This file is also intended to support software which draws a
! schematic diagram of the HVAC system.
! ===============================================================
! #Nodes,<Number of Unique Nodes>
 #Nodes,342
! <Node>,<NodeNumber>,<Node Name>,<Node Fluid Type>,<# Times Node Referenced After Definition>
 Node,1,NODE 66,Air,4
 Node,2,NODE 256,Air,4
 Node,3,NODE 79,Air,4
 Node,4,NODE 92,Air,4
 Node,5,NODE 105,Air,4
 Node,6,NODE 214,Air,4
 Node,7,NODE 233,Air,4
 Node,8,NODE 240,Air,4
 Node,9,NODE 145,Air,4
 Node,10,NODE 247,Air,4
 Node,11,NODE 163,Air,4
 Node,12,NODE 179,Air,4
 Node,13,NODE 170,Air,4
 Node,14,NODE 198,Air,4
 Node,15,NODE 205,Air,4
 Node,16,NODE 27,Air,4
 Node,17,NODE 39,Air,3
 Node,18,NODE 45,Air,3
 Node,19,NODE 51,Air,3
 Node,20,NODE 57,Air,3
 Node,21,NODE 63,Air,10
 Node,22,NODE 64,Air,3
 Node,23,NODE 76,Air,10
 Node,24,NODE 77,Air,3
 Node,25,NODE 89,Air,10
 Node,26,NODE 90,Air,3
 Node,27,NODE 102,Air,10
 Node,28,NODE 103,Air,3
 Node,29,NODE 23,Air,10
 Node,30,NODE 24,Air,3
 Node,31,NODE 142,Air,12
 Node,32,NODE 143,Air,3
 Node,33,NODE 176,Air,12
 Node,34,NODE 177,Air,3
 Node,35,NODE 211,Air,12
 Node,36,NODE 212,Air,3
 Node,37,NODE 253,Air,12
 Node,38,NODE 254,Air,3
 Node,39,NODE 62,Air,3
 Node,40,NODE 71,Air,6
 Node,41,NODE 70,Air,6
 Node,42,NODE 69,Air,8
 Node,43,NODE 75,Air,3
 Node,44,NODE 84,Air,6
 Node,45,NODE 83,Air,6
 Node,46,NODE 82,Air,8
 Node,47,NODE 88,Air,3
 Node,48,NODE 97,Air,6
 Node,49,NODE 96,Air,6
 Node,50,NODE 95,Air,8
 Node,51,NODE 101,Air,3
 Node,52,NODE 110,Air,6
 Node,53,NODE 109,Air,6
 Node,54,NODE 108,Air,8
 Node,55,NODE 21,Air,3
 Node,56,NODE 35,Air,6
 Node,57,NODE 33,Air,6
 Node,58,NODE 32,Air,8
 Node,59,NODE 141,Air,2
 Node,60,NODE 154,Air,5
 Node,61,NODE 153,Air,5
 Node,62,NODE 152,Air,5
 Node,63,NODE 151,Air,9
 Node,64,NODE 175,Air,2
 Node,65,NODE 189,Air,5
 Node,66,NODE 188,Air,5
 Node,67,NODE 187,Air,5
 Node,68,NODE 186,Air,9
 Node,69,NODE 210,Air,2
 Node,70,NODE 224,Air,5
 Node,71,NODE 223,Air,5
 Node,72,NODE 222,Air,5
 Node,73,NODE 221,Air,9
 Node,74,NODE 252,Air,2
 Node,75,NODE 266,Air,5
 Node,76,NODE 265,Air,5
 Node,77,NODE 264,Air,5
 Node,78,NODE 263,Air,9
 Node,79,NODE 114,Water,2
 Node,80,NODE 120,Water,1
 Node,81,NODE 116,Water,1
 Node,82,NODE 121,Water,1
 Node,83,NODE 122,Water,1
 Node,84,NODE 123,Water,1
 Node,85,NODE 124,Water,1
 Node,86,NODE 125,Water,1
 Node,87,NODE 126,Water,1
 Node,88,NODE 115,Water,4
 Node,89,NODE 117,Water,2
 Node,90,CHILLED WATER LOOP DEMAND INLET PIPE NODE,Water,1
 Node,91,NODE 119,Water,2
 Node,92,NODE 148,Water,1
 Node,93,NODE 182,Water,2
 Node,94,NODE 183,Water,1
 Node,95,NODE 217,Water,2
 Node,96,NODE 218,Water,1
 Node,97,NODE 259,Water,2
 Node,98,NODE 260,Water,1
 Node,99,CHILLED WATER LOOP DEMAND BYPASS PIPE INLET NODE,Water,1
 Node,100,CHILLED WATER LOOP DEMAND BYPASS PIPE OUTLET NODE,Water,1
 Node,101,CHILLED WATER LOOP DEMAND OUTLET PIPE NODE,Water,1
 Node,102,NODE 118,Water,2
 Node,103,NODE 127,Water,2
 Node,104,NODE 133,Water,1
 Node,105,NODE 129,Water,1
 Node,106,NODE 134,Water,1
 Node,107,NODE 135,Water,1
 Node,108,NODE 136,Water,1
 Node,109,NODE 137,Water,1
 Node,110,NODE 128,Water,4
 Node,111,NODE 130,Water,2
 Node,112,CONDENSER WATER LOOP DEMAND INLET PIPE NODE,Water,1
 Node,113,NODE 132,Water,1
 Node,114,NODE 138,Water,1
 Node,115,NODE 139,Water,1
 Node,116,NODE 140,Water,1
 Node,117,CONDENSER WATER LOOP DEMAND BYPASS PIPE INLET NODE,Water,1
 Node,118,CONDENSER WATER LOOP DEMAND BYPASS PIPE OUTLET NODE,Water,1
 Node,119,CONDENSER WATER LOOP DEMAND OUTLET PIPE NODE,Water,1
 Node,120,NODE 131,Water,2
 Node,121,NODE 2,Water,2
 Node,122,NODE 11,Water,1
 Node,123,NODE 5,Water,1
 Node,124,NODE 12,Water,1
 Node,125,NODE 14,Water,1
 Node,126,NODE 15,Water,1
 Node,127,NODE 17,Water,1
 Node,128,NODE 18,Water,1
 Node,129,NODE 20,Water,1
 Node,130,NODE 3,Water,4
 Node,131,NODE 6,Water,2
 Node,132,HOT WATER LOOP DEMAND INLET PIPE NODE,Water,1
 Node,133,NODE 9,Water,1
 Node,134,NODE 38,Water,1
 Node,135,NODE 42,Water,1
 Node,136,NODE 44,Water,1
 Node,137,NODE 48,Water,1
 Node,138,NODE 50,Water,1
 Node,139,NODE 54,Water,1
 Node,140,NODE 56,Water,1
 Node,141,NODE 60,Water,1
 Node,142,NODE 61,Water,1
 Node,143,NODE 73,Water,1
 Node,144,NODE 74,Water,1
 Node,145,NODE 86,Water,1
 Node,146,NODE 87,Water,1
 Node,147,NODE 99,Water,1
 Node,148,NODE 100,Water,1
 Node,149,NODE 112,Water,1
 Node,150,NODE 113,Water,1
 Node,151,NODE 146,Water,2
 Node,152,NODE 147,Water,1
 Node,153,NODE 155,Water,1
 Node,154,NODE 156,Water,1
 Node,155,NODE 159,Water,1
 Node,156,NODE 160,Water,1
 Node,157,NODE 161,Water,1
 Node,158,NODE 162,Water,1
 Node,159,NODE 166,Water,1
 Node,160,NODE 167,Water,1
 Node,161,NODE 168,Water,1
 Node,162,NODE 169,Water,1
 Node,163,NODE 173,Water,1
 Node,164,NODE 174,Water,1
 Node,165,NODE 180,Water,2
 Node,166,NODE 181,Water,1
 Node,167,NODE 190,Water,1
 Node,168,NODE 191,Water,1
 Node,169,NODE 194,Water,1
 Node,170,NODE 195,Water,1
 Node,171,NODE 196,Water,1
 Node,172,NODE 197,Water,1
 Node,173,NODE 201,Water,1
 Node,174,NODE 202,Water,1
 Node,175,NODE 203,Water,1
 Node,176,NODE 204,Water,1
 Node,177,NODE 208,Water,1
 Node,178,NODE 209,Water,1
 Node,179,NODE 215,Water,2
 Node,180,NODE 216,Water,1
 Node,181,NODE 225,Water,1
 Node,182,NODE 226,Water,1
 Node,183,NODE 229,Water,1
 Node,184,NODE 230,Water,1
 Node,185,NODE 231,Water,1
 Node,186,NODE 232,Water,1
 Node,187,NODE 236,Water,1
 Node,188,NODE 237,Water,1
 Node,189,NODE 238,Water,1
 Node,190,NODE 239,Water,1
 Node,191,NODE 243,Water,1
 Node,192,NODE 244,Water,1
 Node,193,NODE 245,Water,1
 Node,194,NODE 246,Water,1
 Node,195,NODE 250,Water,1
 Node,196,NODE 251,Water,1
 Node,197,NODE 257,Water,2
 Node,198,NODE 258,Water,1
 Node,199,NODE 267,Water,1
 Node,200,NODE 268,Water,1
 Node,201,NODE 271,Water,1
 Node,202,NODE 272,Water,1
 Node,203,HOT WATER LOOP DEMAND BYPASS PIPE INLET NODE,Water,1
 Node,204,HOT WATER LOOP DEMAND BYPASS PIPE OUTLET NODE,Water,1
 Node,205,HOT WATER LOOP DEMAND OUTLET PIPE NODE,Water,1
 Node,206,NODE 8,Water,2
 Node,207,NODE 273,Water,2
 Node,208,NODE 279,Water,1
 Node,209,NODE 275,Water,1
 Node,210,NODE 280,Water,1
 Node,211,NODE 281,Water,1
 Node,212,NODE 282,Water,1
 Node,213,NODE 284,Water,1
 Node,214,NODE 274,Water,4
 Node,215,NODE 276,Water,2
 Node,216,NODE 285,Water,1
 Node,217,NODE 278,Water,1
 Node,218,NODE 283,Water,1
 Node,219,NODE 287,Water,1
 Node,220,NODE 288,Water,1
 Node,221,NODE 289,Water,1
 Node,222,NODE 290,Water,1
 Node,223,NODE 291,Water,1
 Node,224,NODE 292,Water,1
 Node,225,NODE 293,Water,1
 Node,226,NODE 294,Water,1
 Node,227,NODE 295,Water,1
 Node,228,NODE 296,Water,1
 Node,229,NODE 297,Water,1
 Node,230,NODE 298,Water,1
 Node,231,NODE 299,Water,1
 Node,232,NODE 300,Water,1
 Node,233,NODE 301,Water,1
 Node,234,NODE 302,Water,1
 Node,235,NODE 303,Water,1
 Node,236,NODE 304,Water,1
 Node,237,NODE 305,Water,1
 Node,238,NODE 306,Water,1
 Node,239,NODE 307,Water,1
 Node,240,NODE 308,Water,1
 Node,241,NODE 309,Water,1
 Node,242,NODE 310,Water,1
 Node,243,NODE 311,Water,1
 Node,244,NODE 312,Water,1
 Node,245,NODE 313,Water,1
 Node,246,NODE 314,Water,1
 Node,247,NODE 315,Water,1
 Node,248,NODE 316,Water,1
 Node,249,MAIN SERVICE WATER LOOP DEMAND BYPASS PIPE INLET NODE,Water,1
 Node,250,MAIN SERVICE WATER LOOP DEMAND BYPASS PIPE OUTLET NODE,Water,1
 Node,251,NODE 286,Water,1
 Node,252,NODE 277,Water,2
 Node,253,NODE 1,Air,1
 Node,254,NODE 72,Air,1
 Node,255,NODE 4,Air,0
 Node,256,NODE 269,Air,1
 Node,257,NODE 7,Air,1
 Node,258,NODE 85,Air,1
 Node,259,NODE 10,Air,1
 Node,260,NODE 98,Air,1
 Node,261,NODE 13,Air,1
 Node,262,NODE 111,Air,1
 Node,263,NODE 16,Air,0
 Node,264,NODE 227,Air,1
 Node,265,NODE 19,Air,0
 Node,266,NODE 234,Air,1
 Node,267,NODE 22,Air,0
 Node,268,NODE 241,Air,1
 Node,269,NODE 25,Air,0
 Node,270,NODE 157,Air,1
 Node,271,NODE 28,Air,0
 Node,272,NODE 248,Air,1
 Node,273,NODE 31,Air,0
 Node,274,NODE 164,Air,1
 Node,275,NODE 34,Air,0
 Node,276,NODE 192,Air,1
 Node,277,NODE 37,Air,0
 Node,278,NODE 171,Air,1
 Node,279,NODE 40,Air,0
 Node,280,NODE 199,Air,1
 Node,281,NODE 43,Air,0
 Node,282,NODE 206,Air,1
 Node,283,NODE 46,Air,1
 Node,284,NODE 36,Air,1
 Node,285,NODE 49,Air,0
 Node,286,NODE 41,Air,1
 Node,287,NODE 52,Air,0
 Node,288,NODE 47,Air,1
 Node,289,NODE 55,Air,0
 Node,290,NODE 53,Air,1
 Node,291,NODE 58,Air,0
 Node,292,NODE 59,Air,1
 Node,293,NODE 65,Air,2
 Node,294,NODE 78,Air,2
 Node,295,NODE 91,Air,2
 Node,296,NODE 104,Air,2
 Node,297,NODE 26,Air,2
 Node,298,NODE 144,Air,2
 Node,299,NODE 178,Air,2
 Node,300,NODE 213,Air,2
 Node,301,NODE 255,Air,2
 Node,302,NODE 67,Air,2
 Node,303,NODE 80,Air,2
 Node,304,NODE 93,Air,2
 Node,305,NODE 106,Air,2
 Node,306,NODE 29,Air,2
 Node,307,NODE 149,Air,2
 Node,308,NODE 184,Air,2
 Node,309,NODE 219,Air,2
 Node,310,NODE 261,Air,2
 Node,311,MODEL OUTDOOR AIR NODE,Air,0
 Node,312,NODE 158,Air,1
 Node,313,NODE 165,Air,1
 Node,314,NODE 172,Air,1
 Node,315,NODE 193,Air,1
 Node,316,NODE 200,Air,1
 Node,317,NODE 207,Air,1
 Node,318,NODE 228,Air,1
 Node,319,NODE 235,Air,1
 Node,320,NODE 242,Air,1
 Node,321,NODE 249,Air,1
 Node,322,NODE 270,Air,1
 Node,323,AIR TERMINAL SINGLE DUCT VAV REHEAT 11 DAMPER OUTLET,Air,1
 Node,324,AIR TERMINAL SINGLE DUCT VAV REHEAT 7 DAMPER OUTLET,Air,1
 Node,325,AIR TERMINAL SINGLE DUCT VAV REHEAT 8 DAMPER OUTLET,Air,1
 Node,326,AIR TERMINAL SINGLE DUCT VAV REHEAT 9 DAMPER OUTLET,Air,1
 Node,327,AIR TERMINAL SINGLE DUCT VAV REHEAT 1 DAMPER OUTLET,Air,1
 Node,328,AIR TERMINAL SINGLE DUCT VAV REHEAT 10 DAMPER OUTLET,Air,1
 Node,329,AIR TERMINAL SINGLE DUCT VAV REHEAT 2 DAMPER OUTLET,Air,1
 Node,330,AIR TERMINAL SINGLE DUCT VAV REHEAT 4 DAMPER OUTLET,Air,1
 Node,331,AIR TERMINAL SINGLE DUCT VAV REHEAT 3 DAMPER OUTLET,Air,1
 Node,332,AIR TERMINAL SINGLE DUCT VAV REHEAT 5 DAMPER OUTLET,Air,1
 Node,333,AIR TERMINAL SINGLE DUCT VAV REHEAT 6 DAMPER OUTLET,Air,1
 Node,334,NODE 68,Air,1
 Node,335,NODE 81,Air,1
 Node,336,NODE 94,Air,1
 Node,337,NODE 107,Air,1
 Node,338,NODE 30,Air,1
 Node,339,NODE 150,Air,1
 Node,340,NODE 185,Air,1
 Node,341,NODE 220,Air,1
 Node,342,NODE 262,Air,1
! ===============================================================
! Suspicious nodes have 0 references.  It is normal for some nodes, however.
! Listing nodes with 0 references (culled from previous list):
! <Suspicious Node>,<NodeNumber>,<Node Name>,<Node Fluid Type>,<# Times Node Referenced After Definition>
 Suspicious Node,255,NODE 4,Air,0
 Suspicious Node,263,NODE 16,Air,0
 Suspicious Node,265,NODE 19,Air,0
 Suspicious Node,267,NODE 22,Air,0
 Suspicious Node,269,NODE 25,Air,0
 Suspicious Node,271,NODE 28,Air,0
 Suspicious Node,273,NODE 31,Air,0
 Suspicious Node,275,NODE 34,Air,0
 Suspicious Node,277,NODE 37,Air,0
 Suspicious Node,279,NODE 40,Air,0
 Suspicious Node,281,NODE 43,Air,0
 Suspicious Node,285,NODE 49,Air,0
 Suspicious Node,287,NODE 52,Air,0
 Suspicious Node,289,NODE 55,Air,0
 Suspicious Node,291,NODE 58,Air,0
 Suspicious Node,311,MODEL OUTDOOR AIR NODE,Air,0
! ===============================================================
! <#Branch Lists>,<Number of Branch Lists>
 #Branch Lists,17
! <Branch List>,<Branch List Count>,<Branch List Name>,<Loop Name>,<Loop Type>,<Number of Branches>
! <Branch>,<Branch Count>,<Branch Name>,<Loop Name>,<Loop Type>,<Branch Inlet Node Name>,<Branch Outlet Node Name>
 Branch List,1,SYS_3_PSZ ALL_ST=PENITENTIARY - DINING_FL=STORY 4_SCH=B SUPPLY BRANCHES,SYS_3_PSZ ALL_ST=PENITENTIARY - DINING_FL=STORY 4_SCH=B,Air,1
   Branch,1,SYS_3_PSZ ALL_ST=PENITENTIARY - DINING_FL=STORY 4_SCH=B MAIN BRANCH,SYS_3_PSZ ALL_ST=PENITENTIARY - DINING_FL=STORY 4_SCH=B,Air,NODE 62,NODE 63
 Branch List,2,SYS_3_PSZ ALL_ST=RELIGIOUS - AUDIENCE_FL=STORY 4_SCH=I SUPPLY BRANCHES,SYS_3_PSZ ALL_ST=RELIGIOUS - AUDIENCE_FL=STORY 4_SCH=I,Air,1
   Branch,1,SYS_3_PSZ ALL_ST=RELIGIOUS - AUDIENCE_FL=STORY 4_SCH=I MAIN BRANCH,SYS_3_PSZ ALL_ST=RELIGIOUS - AUDIENCE_FL=STORY 4_SCH=I,Air,NODE 75,NODE 76
 Branch List,3,SYS_3_PSZ ALL_ST=RELIGIOUS - FELLOWSHIP HALL_FL=STORY 4_SCH=C SUPPLY BRANCHES,SYS_3_PSZ ALL_ST=RELIGIOUS - FELLOWSHIP HALL_FL=STORY 4_SCH=C,Air,1
   Branch,1,SYS_3_PSZ ALL_ST=RELIGIOUS - FELLOWSHIP HALL_FL=STORY 4_SCH=C MAIN BRANCH,SYS_3_PSZ ALL_ST=RELIGIOUS - FELLOWSHIP HALL_FL=STORY 4_SCH=C,Air,NODE 88,NODE 89
 Branch List,4,SYS_3_PSZ ALL_ST=RELIGIOUS - PULPIT/CHOIR_FL=STORY 3_SCH=I SUPPLY BRANCHES,SYS_3_PSZ ALL_ST=RELIGIOUS - PULPIT/CHOIR_FL=STORY 3_SCH=I,Air,1
   Branch,1,SYS_3_PSZ ALL_ST=RELIGIOUS - PULPIT/CHOIR_FL=STORY 3_SCH=I MAIN BRANCH,SYS_3_PSZ ALL_ST=RELIGIOUS - PULPIT/CHOIR_FL=STORY 3_SCH=I,Air,NODE 101,NODE 102
 Branch List,5,SYS_4_PSZ_WILD_ST=STAIRWAY-SCH-A_FL=STORY 1_SCH=B SUPPLY BRANCHES,SYS_4_PSZ_WILD_ST=STAIRWAY-SCH-A_FL=STORY 1_SCH=B,Air,1
   Branch,1,SYS_4_PSZ_WILD_ST=STAIRWAY-SCH-A_FL=STORY 1_SCH=B MAIN BRANCH,SYS_4_PSZ_WILD_ST=STAIRWAY-SCH-A_FL=STORY 1_SCH=B,Air,NODE 21,NODE 23
 Branch List,6,SYS_6_VAV WITH REHEAT SUPPLY BRANCHES,SYS_6_VAV WITH REHEAT,Air,1
   Branch,1,SYS_6_VAV WITH REHEAT MAIN BRANCH,SYS_6_VAV WITH REHEAT,Air,NODE 141,NODE 142
 Branch List,7,SYS_6_VAV WITH REHEAT 1 SUPPLY BRANCHES,SYS_6_VAV WITH REHEAT 1,Air,1
   Branch,1,SYS_6_VAV WITH REHEAT 1 MAIN BRANCH,SYS_6_VAV WITH REHEAT 1,Air,NODE 175,NODE 176
 Branch List,8,SYS_6_VAV WITH REHEAT 2 SUPPLY BRANCHES,SYS_6_VAV WITH REHEAT 2,Air,1
   Branch,1,SYS_6_VAV WITH REHEAT 2 MAIN BRANCH,SYS_6_VAV WITH REHEAT 2,Air,NODE 210,NODE 211
 Branch List,9,SYS_6_VAV WITH REHEAT 3 SUPPLY BRANCHES,SYS_6_VAV WITH REHEAT 3,Air,1
   Branch,1,SYS_6_VAV WITH REHEAT 3 MAIN BRANCH,SYS_6_VAV WITH REHEAT 3,Air,NODE 252,NODE 253
 Branch List,10,CHILLED WATER LOOP SUPPLY BRANCHES,CHILLED WATER LOOP,Plant Supply,5
   Branch,1,CHILLED WATER LOOP SUPPLY INLET BRANCH,CHILLED WATER LOOP,Plant Supply,NODE 114,NODE 120
   Branch,2,CHILLED WATER LOOP SUPPLY BRANCH 1,CHILLED WATER LOOP,Plant Supply,NODE 116,NODE 121
   Branch,3,CHILLED WATER LOOP SUPPLY BRANCH 2,CHILLED WATER LOOP,Plant Supply,NODE 122,NODE 123
   Branch,4,CHILLED WATER LOOP SUPPLY BRANCH 3,CHILLED WATER LOOP,Plant Supply,NODE 124,NODE 125
   Branch,5,CHILLED WATER LOOP SUPPLY OUTLET BRANCH,CHILLED WATER LOOP,Plant Supply,NODE 126,NODE 115
 Branch List,11,CHILLED WATER LOOP DEMAND BRANCHES,CHILLED WATER LOOP,Plant Demand,7
   Branch,1,CHILLED WATER LOOP DEMAND INLET BRANCH,CHILLED WATER LOOP,Plant Demand,NODE 117,CHILLED WATER LOOP DEMAND INLET PIPE NODE
   Branch,2,CHILLED WATER LOOP DEMAND BRANCH 1,CHILLED WATER LOOP,Plant Demand,NODE 119,NODE 148
   Branch,3,CHILLED WATER LOOP DEMAND BRANCH 2,CHILLED WATER LOOP,Plant Demand,NODE 182,NODE 183
   Branch,4,CHILLED WATER LOOP DEMAND BRANCH 3,CHILLED WATER LOOP,Plant Demand,NODE 217,NODE 218
   Branch,5,CHILLED WATER LOOP DEMAND BRANCH 4,CHILLED WATER LOOP,Plant Demand,NODE 259,NODE 260
   Branch,6,CHILLED WATER LOOP DEMAND BYPASS BRANCH,CHILLED WATER LOOP,Plant Demand,CHILLED WATER LOOP DEMAND BYPASS PIPE INLET NODE,CHILLED WATER LOOP DEMAND BYPASS PIPE OUTLET NODE
   Branch,7,CHILLED WATER LOOP DEMAND OUTLET BRANCH,CHILLED WATER LOOP,Plant Demand,CHILLED WATER LOOP DEMAND OUTLET PIPE NODE,NODE 118
 Branch List,12,CONDENSER WATER LOOP SUPPLY BRANCHES,CONDENSER WATER LOOP,Plant Supply,4
   Branch,1,CONDENSER WATER LOOP SUPPLY INLET BRANCH,CONDENSER WATER LOOP,Plant Supply,NODE 127,NODE 133
   Branch,2,CONDENSER WATER LOOP SUPPLY BRANCH 1,CONDENSER WATER LOOP,Plant Supply,NODE 129,NODE 134
   Branch,3,CONDENSER WATER LOOP SUPPLY BRANCH 2,CONDENSER WATER LOOP,Plant Supply,NODE 135,NODE 136
   Branch,4,CONDENSER WATER LOOP SUPPLY OUTLET BRANCH,CONDENSER WATER LOOP,Plant Supply,NODE 137,NODE 128
 Branch List,13,CONDENSER WATER LOOP DEMAND BRANCHES,CONDENSER WATER LOOP,Plant Demand,5
   Branch,1,CONDENSER WATER LOOP DEMAND INLET BRANCH,CONDENSER WATER LOOP,Plant Demand,NODE 130,CONDENSER WATER LOOP DEMAND INLET PIPE NODE
   Branch,2,CONDENSER WATER LOOP DEMAND BRANCH 1,CONDENSER WATER LOOP,Plant Demand,NODE 132,NODE 138
   Branch,3,CONDENSER WATER LOOP DEMAND BRANCH 2,CONDENSER WATER LOOP,Plant Demand,NODE 139,NODE 140
   Branch,4,CONDENSER WATER LOOP DEMAND BYPASS BRANCH,CONDENSER WATER LOOP,Plant Demand,CONDENSER WATER LOOP DEMAND BYPASS PIPE INLET NODE,CONDENSER WATER LOOP DEMAND BYPASS PIPE OUTLET NODE
   Branch,5,CONDENSER WATER LOOP DEMAND OUTLET BRANCH,CONDENSER WATER LOOP,Plant Demand,CONDENSER WATER LOOP DEMAND OUTLET PIPE NODE,NODE 131
 Branch List,14,HOT WATER LOOP SUPPLY BRANCHES,HOT WATER LOOP,Plant Supply,5
   Branch,1,HOT WATER LOOP SUPPLY INLET BRANCH,HOT WATER LOOP,Plant Supply,NODE 2,NODE 11
   Branch,2,HOT WATER LOOP SUPPLY BRANCH 1,HOT WATER LOOP,Plant Supply,NODE 5,NODE 12
   Branch,3,HOT WATER LOOP SUPPLY BRANCH 2,HOT WATER LOOP,Plant Supply,NODE 14,NODE 15
   Branch,4,HOT WATER LOOP SUPPLY BRANCH 3,HOT WATER LOOP,Plant Supply,NODE 17,NODE 18
   Branch,5,HOT WATER LOOP SUPPLY OUTLET BRANCH,HOT WATER LOOP,Plant Supply,NODE 20,NODE 3
 Branch List,15,HOT WATER LOOP DEMAND BRANCHES,HOT WATER LOOP,Plant Demand,38
   Branch,1,HOT WATER LOOP DEMAND INLET BRANCH,HOT WATER LOOP,Plant Demand,NODE 6,HOT WATER LOOP DEMAND INLET PIPE NODE
   Branch,2,HOT WATER LOOP DEMAND BRANCH 1,HOT WATER LOOP,Plant Demand,NODE 9,NODE 38
   Branch,3,HOT WATER LOOP DEMAND BRANCH 2,HOT WATER LOOP,Plant Demand,NODE 42,NODE 44
   Branch,4,HOT WATER LOOP DEMAND BRANCH 3,HOT WATER LOOP,Plant Demand,NODE 48,NODE 50
   Branch,5,HOT WATER LOOP DEMAND BRANCH 4,HOT WATER LOOP,Plant Demand,NODE 54,NODE 56
   Branch,6,HOT WATER LOOP DEMAND BRANCH 5,HOT WATER LOOP,Plant Demand,NODE 60,NODE 61
   Branch,7,HOT WATER LOOP DEMAND BRANCH 6,HOT WATER LOOP,Plant Demand,NODE 73,NODE 74
   Branch,8,HOT WATER LOOP DEMAND BRANCH 7,HOT WATER LOOP,Plant Demand,NODE 86,NODE 87
   Branch,9,HOT WATER LOOP DEMAND BRANCH 8,HOT WATER LOOP,Plant Demand,NODE 99,NODE 100
   Branch,10,HOT WATER LOOP DEMAND BRANCH 9,HOT WATER LOOP,Plant Demand,NODE 112,NODE 113
   Branch,11,HOT WATER LOOP DEMAND BRANCH 10,HOT WATER LOOP,Plant Demand,NODE 146,NODE 147
   Branch,12,HOT WATER LOOP DEMAND BRANCH 11,HOT WATER LOOP,Plant Demand,NODE 155,NODE 156
   Branch,13,HOT WATER LOOP DEMAND BRANCH 12,HOT WATER LOOP,Plant Demand,NODE 159,NODE 160
   Branch,14,HOT WATER LOOP DEMAND BRANCH 13,HOT WATER LOOP,Plant Demand,NODE 161,NODE 162
   Branch,15,HOT WATER LOOP DEMAND BRANCH 14,HOT WATER LOOP,Plant Demand,NODE 166,NODE 167
   Branch,16,HOT WATER LOOP DEMAND BRANCH 15,HOT WATER LOOP,Plant Demand,NODE 168,NODE 169
   Branch,17,HOT WATER LOOP DEMAND BRANCH 16,HOT WATER LOOP,Plant Demand,NODE 173,NODE 174
   Branch,18,HOT WATER LOOP DEMAND BRANCH 17,HOT WATER LOOP,Plant Demand,NODE 180,NODE 181
   Branch,19,HOT WATER LOOP DEMAND BRANCH 18,HOT WATER LOOP,Plant Demand,NODE 190,NODE 191
   Branch,20,HOT WATER LOOP DEMAND BRANCH 19,HOT WATER LOOP,Plant Demand,NODE 194,NODE 195
   Branch,21,HOT WATER LOOP DEMAND BRANCH 20,HOT WATER LOOP,Plant Demand,NODE 196,NODE 197
   Branch,22,HOT WATER LOOP DEMAND BRANCH 21,HOT WATER LOOP,Plant Demand,NODE 201,NODE 202
   Branch,23,HOT WATER LOOP DEMAND BRANCH 22,HOT WATER LOOP,Plant Demand,NODE 203,NODE 204
   Branch,24,HOT WATER LOOP DEMAND BRANCH 23,HOT WATER LOOP,Plant Demand,NODE 208,NODE 209
   Branch,25,HOT WATER LOOP DEMAND BRANCH 24,HOT WATER LOOP,Plant Demand,NODE 215,NODE 216
   Branch,26,HOT WATER LOOP DEMAND BRANCH 25,HOT WATER LOOP,Plant Demand,NODE 225,NODE 226
   Branch,27,HOT WATER LOOP DEMAND BRANCH 26,HOT WATER LOOP,Plant Demand,NODE 229,NODE 230
   Branch,28,HOT WATER LOOP DEMAND BRANCH 27,HOT WATER LOOP,Plant Demand,NODE 231,NODE 232
   Branch,29,HOT WATER LOOP DEMAND BRANCH 28,HOT WATER LOOP,Plant Demand,NODE 236,NODE 237
   Branch,30,HOT WATER LOOP DEMAND BRANCH 29,HOT WATER LOOP,Plant Demand,NODE 238,NODE 239
   Branch,31,HOT WATER LOOP DEMAND BRANCH 30,HOT WATER LOOP,Plant Demand,NODE 243,NODE 244
   Branch,32,HOT WATER LOOP DEMAND BRANCH 31,HOT WATER LOOP,Plant Demand,NODE 245,NODE 246
   Branch,33,HOT WATER LOOP DEMAND BRANCH 32,HOT WATER LOOP,Plant Demand,NODE 250,NODE 251
   Branch,34,HOT WATER LOOP DEMAND BRANCH 33,HOT WATER LOOP,Plant Demand,NODE 257,NODE 258
   Branch,35,HOT WATER LOOP DEMAND BRANCH 34,HOT WATER LOOP,Plant Demand,NODE 267,NODE 268
   Branch,36,HOT WATER LOOP DEMAND BRANCH 35,HOT WATER LOOP,Plant Demand,NODE 271,NODE 272
   Branch,37,HOT WATER LOOP DEMAND BYPASS BRANCH,HOT WATER LOOP,Plant Demand,HOT WATER LOOP DEMAND BYPASS PIPE INLET NODE,HOT WATER LOOP DEMAND BYPASS PIPE OUTLET NODE
   Branch,38,HOT WATER LOOP DEMAND OUTLET BRANCH,HOT WATER LOOP,Plant Demand,HOT WATER LOOP DEMAND OUTLET PIPE NODE,NODE 8
 Branch List,16,MAIN SERVICE WATER LOOP SUPPLY BRANCHES,MAIN SERVICE WATER LOOP,Plant Supply,4
   Branch,1,MAIN SERVICE WATER LOOP SUPPLY INLET BRANCH,MAIN SERVICE WATER LOOP,Plant Supply,NODE 273,NODE 279
   Branch,2,MAIN SERVICE WATER LOOP SUPPLY BRANCH 1,MAIN SERVICE WATER LOOP,Plant Supply,NODE 275,NODE 280
   Branch,3,MAIN SERVICE WATER LOOP SUPPLY BRANCH 2,MAIN SERVICE WATER LOOP,Plant Supply,NODE 281,NODE 282
   Branch,4,MAIN SERVICE WATER LOOP SUPPLY OUTLET BRANCH,MAIN SERVICE WATER LOOP,Plant Supply,NODE 284,NODE 274
 Branch List,17,MAIN SERVICE WATER LOOP DEMAND BRANCHES,MAIN SERVICE WATER LOOP,Plant Demand,19
   Branch,1,MAIN SERVICE WATER LOOP DEMAND INLET BRANCH,MAIN SERVICE WATER LOOP,Plant Demand,NODE 276,NODE 285
   Branch,2,MAIN SERVICE WATER LOOP DEMAND BRANCH 1,MAIN SERVICE WATER LOOP,Plant Demand,NODE 278,NODE 283
   Branch,3,MAIN SERVICE WATER LOOP DEMAND BRANCH 2,MAIN SERVICE WATER LOOP,Plant Demand,NODE 287,NODE 288
   Branch,4,MAIN SERVICE WATER LOOP DEMAND BRANCH 3,MAIN SERVICE WATER LOOP,Plant Demand,NODE 289,NODE 290
   Branch,5,MAIN SERVICE WATER LOOP DEMAND BRANCH 4,MAIN SERVICE WATER LOOP,Plant Demand,NODE 291,NODE 292
   Branch,6,MAIN SERVICE WATER LOOP DEMAND BRANCH 5,MAIN SERVICE WATER LOOP,Plant Demand,NODE 293,NODE 294
   Branch,7,MAIN SERVICE WATER LOOP DEMAND BRANCH 6,MAIN SERVICE WATER LOOP,Plant Demand,NODE 295,NODE 296
   Branch,8,MAIN SERVICE WATER LOOP DEMAND BRANCH 7,MAIN SERVICE WATER LOOP,Plant Demand,NODE 297,NODE 298
   Branch,9,MAIN SERVICE WATER LOOP DEMAND BRANCH 8,MAIN SERVICE WATER LOOP,Plant Demand,NODE 299,NODE 300
   Branch,10,MAIN SERVICE WATER LOOP DEMAND BRANCH 9,MAIN SERVICE WATER LOOP,Plant Demand,NODE 301,NODE 302
   Branch,11,MAIN SERVICE WATER LOOP DEMAND BRANCH 10,MAIN SERVICE WATER LOOP,Plant Demand,NODE 303,NODE 304
   Branch,12,MAIN SERVICE WATER LOOP DEMAND BRANCH 11,MAIN SERVICE WATER LOOP,Plant Demand,NODE 305,NODE 306
   Branch,13,MAIN SERVICE WATER LOOP DEMAND BRANCH 12,MAIN SERVICE WATER LOOP,Plant Demand,NODE 307,NODE 308
   Branch,14,MAIN SERVICE WATER LOOP DEMAND BRANCH 13,MAIN SERVICE WATER LOOP,Plant Demand,NODE 309,NODE 310
   Branch,15,MAIN SERVICE WATER LOOP DEMAND BRANCH 14,MAIN SERVICE WATER LOOP,Plant Demand,NODE 311,NODE 312
   Branch,16,MAIN SERVICE WATER LOOP DEMAND BRANCH 15,MAIN SERVICE WATER LOOP,Plant Demand,NODE 313,NODE 314
   Branch,17,MAIN SERVICE WATER LOOP DEMAND BRANCH 16,MAIN SERVICE WATER LOOP,Plant Demand,NODE 315,NODE 316
   Branch,18,MAIN SERVICE WATER LOOP DEMAND BYPASS BRANCH,MAIN SERVICE WATER LOOP,Plant Demand,MAIN SERVICE WATER LOOP DEMAND BYPASS PIPE INLET NODE,MAIN SERVICE WATER LOOP DEMAND BYPASS PIPE OUTLET NODE
   Branch,19,MAIN SERVICE WATER LOOP DEMAND OUTLET BRANCH,MAIN SERVICE WATER LOOP,Plant Demand,NODE 286,NODE 277
! ===============================================================
! <#Supply Air Paths>,<Number of Supply Air Paths>
 #Supply Air Paths,9
! <Supply Air Path>,<Supply Air Path Count>,<Supply Air Path Name>,<AirLoopHVAC Name>
! <#Components on Supply Air Path>,<Number of Components>
! <Supply Air Path Component>,<Component Count>,<Component Type>,<Component Name>,<AirLoopHVAC Name>
! <#Outlet Nodes on Supply Air Path Component>,<Number of Nodes>
! <Supply Air Path Component Nodes>,<Node Count>,<Component Type>,<Component Name>,<Inlet Node Name>,<Outlet Node Name>,<AirLoopHVAC Name>
 Supply Air Path,1,SYS_3_PSZ ALL_ST=PENITENTIARY - DINING_FL=STORY 4_SCH=B NODE 64 SUPPLY PATH,SYS_3_PSZ ALL_ST=PENITENTIARY - DINING_FL=STORY 4_SCH=B
   #Components on Supply Air Path,1
   Supply Air Path Component,1,AIRLOOPHVAC:ZONESPLITTER,AIR LOOP HVAC ZONE SPLITTER 2,SYS_3_PSZ ALL_ST=PENITENTIARY - DINING_FL=STORY 4_SCH=B
     #Outlet Nodes on Supply Air Path Component,1
     Supply Air Path Component Nodes,1,AIRLOOPHVAC:ZONESPLITTER,AIR LOOP HVAC ZONE SPLITTER 2,NODE 64,NODE 66,SYS_3_PSZ ALL_ST=PENITENTIARY - DINING_FL=STORY 4_SCH=B
! <#Nodes on Supply Air Path>,<Number of Nodes>
! <Supply Air Path Node>,<Node Type>,<Node Count>,<Node Name>,<AirLoopHVAC Name>
#Nodes on Supply Air Path,2
   Supply Air Path Node,Inlet Node,1,NODE 64,SYS_3_PSZ ALL_ST=PENITENTIARY - DINING_FL=STORY 4_SCH=B
   Supply Air Path Node,Outlet Node,2,NODE 66,SYS_3_PSZ ALL_ST=PENITENTIARY - DINING_FL=STORY 4_SCH=B
 Supply Air Path,2,SYS_3_PSZ ALL_ST=RELIGIOUS - AUDIENCE_FL=STORY 4_SCH=I NODE 77 SUPPLY PATH,SYS_3_PSZ ALL_ST=RELIGIOUS - AUDIENCE_FL=STORY 4_SCH=I
   #Components on Supply Air Path,1
   Supply Air Path Component,1,AIRLOOPHVAC:ZONESPLITTER,AIR LOOP HVAC ZONE SPLITTER 3,SYS_3_PSZ ALL_ST=RELIGIOUS - AUDIENCE_FL=STORY 4_SCH=I
     #Outlet Nodes on Supply Air Path Component,1
     Supply Air Path Component Nodes,1,AIRLOOPHVAC:ZONESPLITTER,AIR LOOP HVAC ZONE SPLITTER 3,NODE 77,NODE 79,SYS_3_PSZ ALL_ST=RELIGIOUS - AUDIENCE_FL=STORY 4_SCH=I
! <#Nodes on Supply Air Path>,<Number of Nodes>
! <Supply Air Path Node>,<Node Type>,<Node Count>,<Node Name>,<AirLoopHVAC Name>
#Nodes on Supply Air Path,2
   Supply Air Path Node,Inlet Node,1,NODE 77,SYS_3_PSZ ALL_ST=RELIGIOUS - AUDIENCE_FL=STORY 4_SCH=I
   Supply Air Path Node,Outlet Node,2,NODE 79,SYS_3_PSZ ALL_ST=RELIGIOUS - AUDIENCE_FL=STORY 4_SCH=I
 Supply Air Path,3,SYS_3_PSZ ALL_ST=RELIGIOUS - FELLOWSHIP HALL_FL=STORY 4_SCH=C NODE 90 SUPPLY PATH,SYS_3_PSZ ALL_ST=RELIGIOUS - FELLOWSHIP HALL_FL=STORY 4_SCH=C
   #Components on Supply Air Path,1
   Supply Air Path Component,1,AIRLOOPHVAC:ZONESPLITTER,AIR LOOP HVAC ZONE SPLITTER 4,SYS_3_PSZ ALL_ST=RELIGIOUS - FELLOWSHIP HALL_FL=STORY 4_SCH=C
     #Outlet Nodes on Supply Air Path Component,1
     Supply Air Path Component Nodes,1,AIRLOOPHVAC:ZONESPLITTER,AIR LOOP HVAC ZONE SPLITTER 4,NODE 90,NODE 92,SYS_3_PSZ ALL_ST=RELIGIOUS - FELLOWSHIP HALL_FL=STORY 4_SCH=C
! <#Nodes on Supply Air Path>,<Number of Nodes>
! <Supply Air Path Node>,<Node Type>,<Node Count>,<Node Name>,<AirLoopHVAC Name>
#Nodes on Supply Air Path,2
   Supply Air Path Node,Inlet Node,1,NODE 90,SYS_3_PSZ ALL_ST=RELIGIOUS - FELLOWSHIP HALL_FL=STORY 4_SCH=C
   Supply Air Path Node,Outlet Node,2,NODE 92,SYS_3_PSZ ALL_ST=RELIGIOUS - FELLOWSHIP HALL_FL=STORY 4_SCH=C
 Supply Air Path,4,SYS_3_PSZ ALL_ST=RELIGIOUS - PULPIT/CHOIR_FL=STORY 3_SCH=I NODE 103 SUPPLY PATH,SYS_3_PSZ ALL_ST=RELIGIOUS - PULPIT/CHOIR_FL=STORY 3_SCH=I
   #Components on Supply Air Path,1
   Supply Air Path Component,1,AIRLOOPHVAC:ZONESPLITTER,AIR LOOP HVAC ZONE SPLITTER 5,SYS_3_PSZ ALL_ST=RELIGIOUS - PULPIT/CHOIR_FL=STORY 3_SCH=I
     #Outlet Nodes on Supply Air Path Component,1
     Supply Air Path Component Nodes,1,AIRLOOPHVAC:ZONESPLITTER,AIR LOOP HVAC ZONE SPLITTER 5,NODE 103,NODE 105,SYS_3_PSZ ALL_ST=RELIGIOUS - PULPIT/CHOIR_FL=STORY 3_SCH=I
! <#Nodes on Supply Air Path>,<Number of Nodes>
! <Supply Air Path Node>,<Node Type>,<Node Count>,<Node Name>,<AirLoopHVAC Name>
#Nodes on Supply Air Path,2
   Supply Air Path Node,Inlet Node,1,NODE 103,SYS_3_PSZ ALL_ST=RELIGIOUS - PULPIT/CHOIR_FL=STORY 3_SCH=I
   Supply Air Path Node,Outlet Node,2,NODE 105,SYS_3_PSZ ALL_ST=RELIGIOUS - PULPIT/CHOIR_FL=STORY 3_SCH=I
 Supply Air Path,5,SYS_4_PSZ_WILD_ST=STAIRWAY-SCH-A_FL=STORY 1_SCH=B NODE 24 SUPPLY PATH,SYS_4_PSZ_WILD_ST=STAIRWAY-SCH-A_FL=STORY 1_SCH=B
   #Components on Supply Air Path,1
   Supply Air Path Component,1,AIRLOOPHVAC:ZONESPLITTER,AIR LOOP HVAC ZONE SPLITTER 1,SYS_4_PSZ_WILD_ST=STAIRWAY-SCH-A_FL=STORY 1_SCH=B
     #Outlet Nodes on Supply Air Path Component,5
     Supply Air Path Component Nodes,1,AIRLOOPHVAC:ZONESPLITTER,AIR LOOP HVAC ZONE SPLITTER 1,NODE 24,NODE 27,SYS_4_PSZ_WILD_ST=STAIRWAY-SCH-A_FL=STORY 1_SCH=B
     Supply Air Path Component Nodes,2,AIRLOOPHVAC:ZONESPLITTER,AIR LOOP HVAC ZONE SPLITTER 1,NODE 24,NODE 39,SYS_4_PSZ_WILD_ST=STAIRWAY-SCH-A_FL=STORY 1_SCH=B
     Supply Air Path Component Nodes,3,AIRLOOPHVAC:ZONESPLITTER,AIR LOOP HVAC ZONE SPLITTER 1,NODE 24,NODE 45,SYS_4_PSZ_WILD_ST=STAIRWAY-SCH-A_FL=STORY 1_SCH=B
     Supply Air Path Component Nodes,4,AIRLOOPHVAC:ZONESPLITTER,AIR LOOP HVAC ZONE SPLITTER 1,NODE 24,NODE 51,SYS_4_PSZ_WILD_ST=STAIRWAY-SCH-A_FL=STORY 1_SCH=B
     Supply Air Path Component Nodes,5,AIRLOOPHVAC:ZONESPLITTER,AIR LOOP HVAC ZONE SPLITTER 1,NODE 24,NODE 57,SYS_4_PSZ_WILD_ST=STAIRWAY-SCH-A_FL=STORY 1_SCH=B
! <#Nodes on Supply Air Path>,<Number of Nodes>
! <Supply Air Path Node>,<Node Type>,<Node Count>,<Node Name>,<AirLoopHVAC Name>
#Nodes on Supply Air Path,6
   Supply Air Path Node,Inlet Node,1,NODE 24,SYS_4_PSZ_WILD_ST=STAIRWAY-SCH-A_FL=STORY 1_SCH=B
   Supply Air Path Node,Outlet Node,2,NODE 27,SYS_4_PSZ_WILD_ST=STAIRWAY-SCH-A_FL=STORY 1_SCH=B
   Supply Air Path Node,Outlet Node,3,NODE 39,SYS_4_PSZ_WILD_ST=STAIRWAY-SCH-A_FL=STORY 1_SCH=B
   Supply Air Path Node,Outlet Node,4,NODE 45,SYS_4_PSZ_WILD_ST=STAIRWAY-SCH-A_FL=STORY 1_SCH=B
   Supply Air Path Node,Outlet Node,5,NODE 51,SYS_4_PSZ_WILD_ST=STAIRWAY-SCH-A_FL=STORY 1_SCH=B
   Supply Air Path Node,Outlet Node,6,NODE 57,SYS_4_PSZ_WILD_ST=STAIRWAY-SCH-A_FL=STORY 1_SCH=B
 Supply Air Path,6,SYS_6_VAV WITH REHEAT NODE 143 SUPPLY PATH,SYS_6_VAV WITH REHEAT
   #Components on Supply Air Path,1
   Supply Air Path Component,1,AIRLOOPHVAC:ZONESPLITTER,AIR LOOP HVAC ZONE SPLITTER 6,SYS_6_VAV WITH REHEAT
     #Outlet Nodes on Supply Air Path Component,3
     Supply Air Path Component Nodes,1,AIRLOOPHVAC:ZONESPLITTER,AIR LOOP HVAC ZONE SPLITTER 6,NODE 143,NODE 158,SYS_6_VAV WITH REHEAT
     Supply Air Path Component Nodes,2,AIRLOOPHVAC:ZONESPLITTER,AIR LOOP HVAC ZONE SPLITTER 6,NODE 143,NODE 165,SYS_6_VAV WITH REHEAT
     Supply Air Path Component Nodes,3,AIRLOOPHVAC:ZONESPLITTER,AIR LOOP HVAC ZONE SPLITTER 6,NODE 143,NODE 172,SYS_6_VAV WITH REHEAT
! <#Nodes on Supply Air Path>,<Number of Nodes>
! <Supply Air Path Node>,<Node Type>,<Node Count>,<Node Name>,<AirLoopHVAC Name>
#Nodes on Supply Air Path,4
   Supply Air Path Node,Inlet Node,1,NODE 143,SYS_6_VAV WITH REHEAT
   Supply Air Path Node,Outlet Node,2,NODE 158,SYS_6_VAV WITH REHEAT
   Supply Air Path Node,Outlet Node,3,NODE 165,SYS_6_VAV WITH REHEAT
   Supply Air Path Node,Outlet Node,4,NODE 172,SYS_6_VAV WITH REHEAT
 Supply Air Path,7,SYS_6_VAV WITH REHEAT 1 NODE 177 SUPPLY PATH,SYS_6_VAV WITH REHEAT 1
   #Components on Supply Air Path,1
   Supply Air Path Component,1,AIRLOOPHVAC:ZONESPLITTER,AIR LOOP HVAC ZONE SPLITTER 7,SYS_6_VAV WITH REHEAT 1
     #Outlet Nodes on Supply Air Path Component,3
     Supply Air Path Component Nodes,1,AIRLOOPHVAC:ZONESPLITTER,AIR LOOP HVAC ZONE SPLITTER 7,NODE 177,NODE 193,SYS_6_VAV WITH REHEAT 1
     Supply Air Path Component Nodes,2,AIRLOOPHVAC:ZONESPLITTER,AIR LOOP HVAC ZONE SPLITTER 7,NODE 177,NODE 200,SYS_6_VAV WITH REHEAT 1
     Supply Air Path Component Nodes,3,AIRLOOPHVAC:ZONESPLITTER,AIR LOOP HVAC ZONE SPLITTER 7,NODE 177,NODE 207,SYS_6_VAV WITH REHEAT 1
! <#Nodes on Supply Air Path>,<Number of Nodes>
! <Supply Air Path Node>,<Node Type>,<Node Count>,<Node Name>,<AirLoopHVAC Name>
#Nodes on Supply Air Path,4
   Supply Air Path Node,Inlet Node,1,NODE 177,SYS_6_VAV WITH REHEAT 1
   Supply Air Path Node,Outlet Node,2,NODE 193,SYS_6_VAV WITH REHEAT 1
   Supply Air Path Node,Outlet Node,3,NODE 200,SYS_6_VAV WITH REHEAT 1
   Supply Air Path Node,Outlet Node,4,NODE 207,SYS_6_VAV WITH REHEAT 1
 Supply Air Path,8,SYS_6_VAV WITH REHEAT 2 NODE 212 SUPPLY PATH,SYS_6_VAV WITH REHEAT 2
   #Components on Supply Air Path,1
   Supply Air Path Component,1,AIRLOOPHVAC:ZONESPLITTER,AIR LOOP HVAC ZONE SPLITTER 8,SYS_6_VAV WITH REHEAT 2
     #Outlet Nodes on Supply Air Path Component,4
     Supply Air Path Component Nodes,1,AIRLOOPHVAC:ZONESPLITTER,AIR LOOP HVAC ZONE SPLITTER 8,NODE 212,NODE 228,SYS_6_VAV WITH REHEAT 2
     Supply Air Path Component Nodes,2,AIRLOOPHVAC:ZONESPLITTER,AIR LOOP HVAC ZONE SPLITTER 8,NODE 212,NODE 235,SYS_6_VAV WITH REHEAT 2
     Supply Air Path Component Nodes,3,AIRLOOPHVAC:ZONESPLITTER,AIR LOOP HVAC ZONE SPLITTER 8,NODE 212,NODE 242,SYS_6_VAV WITH REHEAT 2
     Supply Air Path Component Nodes,4,AIRLOOPHVAC:ZONESPLITTER,AIR LOOP HVAC ZONE SPLITTER 8,NODE 212,NODE 249,SYS_6_VAV WITH REHEAT 2
! <#Nodes on Supply Air Path>,<Number of Nodes>
! <Supply Air Path Node>,<Node Type>,<Node Count>,<Node Name>,<AirLoopHVAC Name>
#Nodes on Supply Air Path,5
   Supply Air Path Node,Inlet Node,1,NODE 212,SYS_6_VAV WITH REHEAT 2
   Supply Air Path Node,Outlet Node,2,NODE 228,SYS_6_VAV WITH REHEAT 2
   Supply Air Path Node,Outlet Node,3,NODE 235,SYS_6_VAV WITH REHEAT 2
   Supply Air Path Node,Outlet Node,4,NODE 242,SYS_6_VAV WITH REHEAT 2
   Supply Air Path Node,Outlet Node,5,NODE 249,SYS_6_VAV WITH REHEAT 2
 Supply Air Path,9,SYS_6_VAV WITH REHEAT 3 NODE 254 SUPPLY PATH,SYS_6_VAV WITH REHEAT 3
   #Components on Supply Air Path,1
   Supply Air Path Component,1,AIRLOOPHVAC:ZONESPLITTER,AIR LOOP HVAC ZONE SPLITTER 9,SYS_6_VAV WITH REHEAT 3
     #Outlet Nodes on Supply Air Path Component,1
     Supply Air Path Component Nodes,1,AIRLOOPHVAC:ZONESPLITTER,AIR LOOP HVAC ZONE SPLITTER 9,NODE 254,NODE 270,SYS_6_VAV WITH REHEAT 3
! <#Nodes on Supply Air Path>,<Number of Nodes>
! <Supply Air Path Node>,<Node Type>,<Node Count>,<Node Name>,<AirLoopHVAC Name>
#Nodes on Supply Air Path,2
   Supply Air Path Node,Inlet Node,1,NODE 254,SYS_6_VAV WITH REHEAT 3
   Supply Air Path Node,Outlet Node,2,NODE 270,SYS_6_VAV WITH REHEAT 3
! ===============================================================
! <#Return Air Paths>,<Number of Return Air Paths>
 #Return Air Paths,9
! <Return Air Path>,<Return Air Path Count>,<Return Air Path Name>,<AirLoopHVAC Name>
! <#Components on Return Air Path>,<Number of Components>
! <Return Air Path Component>,<Component Count>,<Component Type>,<Component Name>,<AirLoopHVAC Name>
! <#Inlet Nodes on Return Air Path Component>,<Number of Nodes>
! <Return Air Path Component Nodes>,<Node Count>,<Component Type>,<Component Name>,<Inlet Node Name>,<Outlet Node Name>,<AirLoopHVAC Name>
 Return Air Path,1,SYS_3_PSZ ALL_ST=PENITENTIARY - DINING_FL=STORY 4_SCH=B RETURN PATH,SYS_3_PSZ ALL_ST=PENITENTIARY - DINING_FL=STORY 4_SCH=B
   #Components on Return Air Path,1
   Return Air Path Component,1,AIRLOOPHVAC:ZONEMIXER,AIR LOOP HVAC ZONE MIXER 2,SYS_3_PSZ ALL_ST=PENITENTIARY - DINING_FL=STORY 4_SCH=B
     #Inlet Nodes on Return Air Path Component,1
     Return Air Path Component Nodes,1,AIRLOOPHVAC:ZONEMIXER,AIR LOOP HVAC ZONE MIXER 2,NODE 72,NODE 65,SYS_3_PSZ ALL_ST=PENITENTIARY - DINING_FL=STORY 4_SCH=B
! <#Nodes on Return Air Path>,<Number of Nodes>
! <Return Air Path Node>,<Node Type>,<Node Count>,<Node Name>,<AirLoopHVAC Name>
   #Nodes on Return Air Path,2
   Return Air Path Node,Outlet Node,1,NODE 65,SYS_3_PSZ ALL_ST=PENITENTIARY - DINING_FL=STORY 4_SCH=B
   Return Air Path Node,Inlet Node,2,NODE 72,SYS_3_PSZ ALL_ST=PENITENTIARY - DINING_FL=STORY 4_SCH=B
 Return Air Path,2,SYS_3_PSZ ALL_ST=RELIGIOUS - AUDIENCE_FL=STORY 4_SCH=I RETURN PATH,SYS_3_PSZ ALL_ST=RELIGIOUS - AUDIENCE_FL=STORY 4_SCH=I
   #Components on Return Air Path,1
   Return Air Path Component,1,AIRLOOPHVAC:ZONEMIXER,AIR LOOP HVAC ZONE MIXER 3,SYS_3_PSZ ALL_ST=RELIGIOUS - AUDIENCE_FL=STORY 4_SCH=I
     #Inlet Nodes on Return Air Path Component,1
     Return Air Path Component Nodes,1,AIRLOOPHVAC:ZONEMIXER,AIR LOOP HVAC ZONE MIXER 3,NODE 85,NODE 78,SYS_3_PSZ ALL_ST=RELIGIOUS - AUDIENCE_FL=STORY 4_SCH=I
! <#Nodes on Return Air Path>,<Number of Nodes>
! <Return Air Path Node>,<Node Type>,<Node Count>,<Node Name>,<AirLoopHVAC Name>
   #Nodes on Return Air Path,2
   Return Air Path Node,Outlet Node,1,NODE 78,SYS_3_PSZ ALL_ST=RELIGIOUS - AUDIENCE_FL=STORY 4_SCH=I
   Return Air Path Node,Inlet Node,2,NODE 85,SYS_3_PSZ ALL_ST=RELIGIOUS - AUDIENCE_FL=STORY 4_SCH=I
 Return Air Path,3,SYS_3_PSZ ALL_ST=RELIGIOUS - FELLOWSHIP HALL_FL=STORY 4_SCH=C RETURN PATH,SYS_3_PSZ ALL_ST=RELIGIOUS - FELLOWSHIP HALL_FL=STORY 4_SCH=C
   #Components on Return Air Path,1
   Return Air Path Component,1,AIRLOOPHVAC:ZONEMIXER,AIR LOOP HVAC ZONE MIXER 4,SYS_3_PSZ ALL_ST=RELIGIOUS - FELLOWSHIP HALL_FL=STORY 4_SCH=C
     #Inlet Nodes on Return Air Path Component,1
     Return Air Path Component Nodes,1,AIRLOOPHVAC:ZONEMIXER,AIR LOOP HVAC ZONE MIXER 4,NODE 98,NODE 91,SYS_3_PSZ ALL_ST=RELIGIOUS - FELLOWSHIP HALL_FL=STORY 4_SCH=C
! <#Nodes on Return Air Path>,<Number of Nodes>
! <Return Air Path Node>,<Node Type>,<Node Count>,<Node Name>,<AirLoopHVAC Name>
   #Nodes on Return Air Path,2
   Return Air Path Node,Outlet Node,1,NODE 91,SYS_3_PSZ ALL_ST=RELIGIOUS - FELLOWSHIP HALL_FL=STORY 4_SCH=C
   Return Air Path Node,Inlet Node,2,NODE 98,SYS_3_PSZ ALL_ST=RELIGIOUS - FELLOWSHIP HALL_FL=STORY 4_SCH=C
 Return Air Path,4,SYS_3_PSZ ALL_ST=RELIGIOUS - PULPIT/CHOIR_FL=STORY 3_SCH=I RETURN PATH,SYS_3_PSZ ALL_ST=RELIGIOUS - PULPIT/CHOIR_FL=STORY 3_SCH=I
   #Components on Return Air Path,1
   Return Air Path Component,1,AIRLOOPHVAC:ZONEMIXER,AIR LOOP HVAC ZONE MIXER 5,SYS_3_PSZ ALL_ST=RELIGIOUS - PULPIT/CHOIR_FL=STORY 3_SCH=I
     #Inlet Nodes on Return Air Path Component,1
     Return Air Path Component Nodes,1,AIRLOOPHVAC:ZONEMIXER,AIR LOOP HVAC ZONE MIXER 5,NODE 111,NODE 104,SYS_3_PSZ ALL_ST=RELIGIOUS - PULPIT/CHOIR_FL=STORY 3_SCH=I
! <#Nodes on Return Air Path>,<Number of Nodes>
! <Return Air Path Node>,<Node Type>,<Node Count>,<Node Name>,<AirLoopHVAC Name>
   #Nodes on Return Air Path,2
   Return Air Path Node,Outlet Node,1,NODE 104,SYS_3_PSZ ALL_ST=RELIGIOUS - PULPIT/CHOIR_FL=STORY 3_SCH=I
   Return Air Path Node,Inlet Node,2,NODE 111,SYS_3_PSZ ALL_ST=RELIGIOUS - PULPIT/CHOIR_FL=STORY 3_SCH=I
 Return Air Path,5,SYS_4_PSZ_WILD_ST=STAIRWAY-SCH-A_FL=STORY 1_SCH=B RETURN PATH,SYS_4_PSZ_WILD_ST=STAIRWAY-SCH-A_FL=STORY 1_SCH=B
   #Components on Return Air Path,1
   Return Air Path Component,1,AIRLOOPHVAC:ZONEMIXER,AIR LOOP HVAC ZONE MIXER 1,SYS_4_PSZ_WILD_ST=STAIRWAY-SCH-A_FL=STORY 1_SCH=B
     #Inlet Nodes on Return Air Path Component,5
     Return Air Path Component Nodes,1,AIRLOOPHVAC:ZONEMIXER,AIR LOOP HVAC ZONE MIXER 1,NODE 36,NODE 26,SYS_4_PSZ_WILD_ST=STAIRWAY-SCH-A_FL=STORY 1_SCH=B
     Return Air Path Component Nodes,2,AIRLOOPHVAC:ZONEMIXER,AIR LOOP HVAC ZONE MIXER 1,NODE 41,NODE 26,SYS_4_PSZ_WILD_ST=STAIRWAY-SCH-A_FL=STORY 1_SCH=B
     Return Air Path Component Nodes,3,AIRLOOPHVAC:ZONEMIXER,AIR LOOP HVAC ZONE MIXER 1,NODE 47,NODE 26,SYS_4_PSZ_WILD_ST=STAIRWAY-SCH-A_FL=STORY 1_SCH=B
     Return Air Path Component Nodes,4,AIRLOOPHVAC:ZONEMIXER,AIR LOOP HVAC ZONE MIXER 1,NODE 53,NODE 26,SYS_4_PSZ_WILD_ST=STAIRWAY-SCH-A_FL=STORY 1_SCH=B
     Return Air Path Component Nodes,5,AIRLOOPHVAC:ZONEMIXER,AIR LOOP HVAC ZONE MIXER 1,NODE 59,NODE 26,SYS_4_PSZ_WILD_ST=STAIRWAY-SCH-A_FL=STORY 1_SCH=B
! <#Nodes on Return Air Path>,<Number of Nodes>
! <Return Air Path Node>,<Node Type>,<Node Count>,<Node Name>,<AirLoopHVAC Name>
   #Nodes on Return Air Path,6
   Return Air Path Node,Outlet Node,1,NODE 26,SYS_4_PSZ_WILD_ST=STAIRWAY-SCH-A_FL=STORY 1_SCH=B
   Return Air Path Node,Inlet Node,2,NODE 36,SYS_4_PSZ_WILD_ST=STAIRWAY-SCH-A_FL=STORY 1_SCH=B
   Return Air Path Node,Inlet Node,3,NODE 41,SYS_4_PSZ_WILD_ST=STAIRWAY-SCH-A_FL=STORY 1_SCH=B
   Return Air Path Node,Inlet Node,4,NODE 47,SYS_4_PSZ_WILD_ST=STAIRWAY-SCH-A_FL=STORY 1_SCH=B
   Return Air Path Node,Inlet Node,5,NODE 53,SYS_4_PSZ_WILD_ST=STAIRWAY-SCH-A_FL=STORY 1_SCH=B
   Return Air Path Node,Inlet Node,6,NODE 59,SYS_4_PSZ_WILD_ST=STAIRWAY-SCH-A_FL=STORY 1_SCH=B
 Return Air Path,6,SYS_6_VAV WITH REHEAT RETURN PATH,SYS_6_VAV WITH REHEAT
   #Components on Return Air Path,1
   Return Air Path Component,1,AIRLOOPHVAC:ZONEMIXER,AIR LOOP HVAC ZONE MIXER 6,SYS_6_VAV WITH REHEAT
     #Inlet Nodes on Return Air Path Component,3
     Return Air Path Component Nodes,1,AIRLOOPHVAC:ZONEMIXER,AIR LOOP HVAC ZONE MIXER 6,NODE 157,NODE 144,SYS_6_VAV WITH REHEAT
     Return Air Path Component Nodes,2,AIRLOOPHVAC:ZONEMIXER,AIR LOOP HVAC ZONE MIXER 6,NODE 164,NODE 144,SYS_6_VAV WITH REHEAT
     Return Air Path Component Nodes,3,AIRLOOPHVAC:ZONEMIXER,AIR LOOP HVAC ZONE MIXER 6,NODE 171,NODE 144,SYS_6_VAV WITH REHEAT
! <#Nodes on Return Air Path>,<Number of Nodes>
! <Return Air Path Node>,<Node Type>,<Node Count>,<Node Name>,<AirLoopHVAC Name>
   #Nodes on Return Air Path,4
   Return Air Path Node,Outlet Node,1,NODE 144,SYS_6_VAV WITH REHEAT
   Return Air Path Node,Inlet Node,2,NODE 157,SYS_6_VAV WITH REHEAT
   Return Air Path Node,Inlet Node,3,NODE 164,SYS_6_VAV WITH REHEAT
   Return Air Path Node,Inlet Node,4,NODE 171,SYS_6_VAV WITH REHEAT
 Return Air Path,7,SYS_6_VAV WITH REHEAT 1 RETURN PATH,SYS_6_VAV WITH REHEAT 1
   #Components on Return Air Path,1
   Return Air Path Component,1,AIRLOOPHVAC:ZONEMIXER,AIR LOOP HVAC ZONE MIXER 7,SYS_6_VAV WITH REHEAT 1
     #Inlet Nodes on Return Air Path Component,3
     Return Air Path Component Nodes,1,AIRLOOPHVAC:ZONEMIXER,AIR LOOP HVAC ZONE MIXER 7,NODE 192,NODE 178,SYS_6_VAV WITH REHEAT 1
     Return Air Path Component Nodes,2,AIRLOOPHVAC:ZONEMIXER,AIR LOOP HVAC ZONE MIXER 7,NODE 199,NODE 178,SYS_6_VAV WITH REHEAT 1
     Return Air Path Component Nodes,3,AIRLOOPHVAC:ZONEMIXER,AIR LOOP HVAC ZONE MIXER 7,NODE 206,NODE 178,SYS_6_VAV WITH REHEAT 1
! <#Nodes on Return Air Path>,<Number of Nodes>
! <Return Air Path Node>,<Node Type>,<Node Count>,<Node Name>,<AirLoopHVAC Name>
   #Nodes on Return Air Path,4
   Return Air Path Node,Outlet Node,1,NODE 178,SYS_6_VAV WITH REHEAT 1
   Return Air Path Node,Inlet Node,2,NODE 192,SYS_6_VAV WITH REHEAT 1
   Return Air Path Node,Inlet Node,3,NODE 199,SYS_6_VAV WITH REHEAT 1
   Return Air Path Node,Inlet Node,4,NODE 206,SYS_6_VAV WITH REHEAT 1
 Return Air Path,8,SYS_6_VAV WITH REHEAT 2 RETURN PATH,SYS_6_VAV WITH REHEAT 2
   #Components on Return Air Path,1
   Return Air Path Component,1,AIRLOOPHVAC:ZONEMIXER,AIR LOOP HVAC ZONE MIXER 8,SYS_6_VAV WITH REHEAT 2
     #Inlet Nodes on Return Air Path Component,4
     Return Air Path Component Nodes,1,AIRLOOPHVAC:ZONEMIXER,AIR LOOP HVAC ZONE MIXER 8,NODE 227,NODE 213,SYS_6_VAV WITH REHEAT 2
     Return Air Path Component Nodes,2,AIRLOOPHVAC:ZONEMIXER,AIR LOOP HVAC ZONE MIXER 8,NODE 234,NODE 213,SYS_6_VAV WITH REHEAT 2
     Return Air Path Component Nodes,3,AIRLOOPHVAC:ZONEMIXER,AIR LOOP HVAC ZONE MIXER 8,NODE 241,NODE 213,SYS_6_VAV WITH REHEAT 2
     Return Air Path Component Nodes,4,AIRLOOPHVAC:ZONEMIXER,AIR LOOP HVAC ZONE MIXER 8,NODE 248,NODE 213,SYS_6_VAV WITH REHEAT 2
! <#Nodes on Return Air Path>,<Number of Nodes>
! <Return Air Path Node>,<Node Type>,<Node Count>,<Node Name>,<AirLoopHVAC Name>
   #Nodes on Return Air Path,5
   Return Air Path Node,Outlet Node,1,NODE 213,SYS_6_VAV WITH REHEAT 2
   Return Air Path Node,Inlet Node,2,NODE 227,SYS_6_VAV WITH REHEAT 2
   Return Air Path Node,Inlet Node,3,NODE 234,SYS_6_VAV WITH REHEAT 2
   Return Air Path Node,Inlet Node,4,NODE 241,SYS_6_VAV WITH REHEAT 2
   Return Air Path Node,Inlet Node,5,NODE 248,SYS_6_VAV WITH REHEAT 2
 Return Air Path,9,SYS_6_VAV WITH REHEAT 3 RETURN PATH,SYS_6_VAV WITH REHEAT 3
   #Components on Return Air Path,1
   Return Air Path Component,1,AIRLOOPHVAC:ZONEMIXER,AIR LOOP HVAC ZONE MIXER 9,SYS_6_VAV WITH REHEAT 3
     #Inlet Nodes on Return Air Path Component,1
     Return Air Path Component Nodes,1,AIRLOOPHVAC:ZONEMIXER,AIR LOOP HVAC ZONE MIXER 9,NODE 269,NODE 255,SYS_6_VAV WITH REHEAT 3
! <#Nodes on Return Air Path>,<Number of Nodes>
! <Return Air Path Node>,<Node Type>,<Node Count>,<Node Name>,<AirLoopHVAC Name>
   #Nodes on Return Air Path,2
   Return Air Path Node,Outlet Node,1,NODE 255,SYS_6_VAV WITH REHEAT 3
   Return Air Path Node,Inlet Node,2,NODE 269,SYS_6_VAV WITH REHEAT 3
! ===============================================================
! #Outdoor Air Nodes,<Number of Outdoor Air Nodes>
 #Outdoor Air Nodes,10
! <Outdoor Air Node>,<NodeNumber>,<Node Name>
 Outdoor Air Node,302,NODE 67
 Outdoor Air Node,303,NODE 80
 Outdoor Air Node,304,NODE 93
 Outdoor Air Node,305,NODE 106
 Outdoor Air Node,306,NODE 29
 Outdoor Air Node,307,NODE 149
 Outdoor Air Node,308,NODE 184
 Outdoor Air Node,309,NODE 219
 Outdoor Air Node,310,NODE 261
 Outdoor Air Node,311,MODEL OUTDOOR AIR NODE
! ===============================================================
! <#Component Sets>,<Number of Component Sets>
 #Component Sets,163
! <Component Set>,<Component Set Count>,<Parent Object Type>,<Parent Object Name>,<Component Type>,<Component Name>,<Inlet Node ID>,<Outlet Node ID>,<Description>
 Component Set,1,BRANCH,SYS_3_PSZ ALL_ST=PENITENTIARY - DINING_FL=STORY 4_SCH=B MAIN BRANCH,AIRLOOPHVAC:OUTDOORAIRSYSTEM,AIR LOOP HVAC OUTDOOR AIR SYSTEM 2,NODE 62,NODE 71,Air Nodes
 Component Set,2,BRANCH,SYS_3_PSZ ALL_ST=PENITENTIARY - DINING_FL=STORY 4_SCH=B MAIN BRANCH,COILSYSTEM:COOLING:DX,COIL COOLING DX SINGLE SPEED 2 COILSYSTEM,NODE 71,NODE 70,Air Nodes
 Component Set,3,BRANCH,SYS_3_PSZ ALL_ST=PENITENTIARY - DINING_FL=STORY 4_SCH=B MAIN BRANCH,COIL:HEATING:FUEL,COIL HEATING GAS 2,NODE 70,NODE 69,Air Nodes
 Component Set,4,BRANCH,SYS_3_PSZ ALL_ST=PENITENTIARY - DINING_FL=STORY 4_SCH=B MAIN BRANCH,FAN:CONSTANTVOLUME,FAN CONSTANT VOLUME 2,NODE 69,NODE 63,Air Nodes
 Component Set,5,BRANCH,SYS_3_PSZ ALL_ST=RELIGIOUS - AUDIENCE_FL=STORY 4_SCH=I MAIN BRANCH,AIRLOOPHVAC:OUTDOORAIRSYSTEM,AIR LOOP HVAC OUTDOOR AIR SYSTEM 3,NODE 75,NODE 84,Air Nodes
 Component Set,6,BRANCH,SYS_3_PSZ ALL_ST=RELIGIOUS - AUDIENCE_FL=STORY 4_SCH=I MAIN BRANCH,COILSYSTEM:COOLING:DX,COIL COOLING DX SINGLE SPEED 3 COILSYSTEM,NODE 84,NODE 83,Air Nodes
 Component Set,7,BRANCH,SYS_3_PSZ ALL_ST=RELIGIOUS - AUDIENCE_FL=STORY 4_SCH=I MAIN BRANCH,COIL:HEATING:FUEL,COIL HEATING GAS 3,NODE 83,NODE 82,Air Nodes
 Component Set,8,BRANCH,SYS_3_PSZ ALL_ST=RELIGIOUS - AUDIENCE_FL=STORY 4_SCH=I MAIN BRANCH,FAN:CONSTANTVOLUME,FAN CONSTANT VOLUME 3,NODE 82,NODE 76,Air Nodes
 Component Set,9,BRANCH,SYS_3_PSZ ALL_ST=RELIGIOUS - FELLOWSHIP HALL_FL=STORY 4_SCH=C MAIN BRANCH,AIRLOOPHVAC:OUTDOORAIRSYSTEM,AIR LOOP HVAC OUTDOOR AIR SYSTEM 4,NODE 88,NODE 97,Air Nodes
 Component Set,10,BRANCH,SYS_3_PSZ ALL_ST=RELIGIOUS - FELLOWSHIP HALL_FL=STORY 4_SCH=C MAIN BRANCH,COILSYSTEM:COOLING:DX,COIL COOLING DX SINGLE SPEED 4 COILSYSTEM,NODE 97,NODE 96,Air Nodes
 Component Set,11,BRANCH,SYS_3_PSZ ALL_ST=RELIGIOUS - FELLOWSHIP HALL_FL=STORY 4_SCH=C MAIN BRANCH,COIL:HEATING:FUEL,COIL HEATING GAS 4,NODE 96,NODE 95,Air Nodes
 Component Set,12,BRANCH,SYS_3_PSZ ALL_ST=RELIGIOUS - FELLOWSHIP HALL_FL=STORY 4_SCH=C MAIN BRANCH,FAN:CONSTANTVOLUME,FAN CONSTANT VOLUME 4,NODE 95,NODE 89,Air Nodes
 Component Set,13,BRANCH,SYS_3_PSZ ALL_ST=RELIGIOUS - PULPIT/CHOIR_FL=STORY 3_SCH=I MAIN BRANCH,AIRLOOPHVAC:OUTDOORAIRSYSTEM,AIR LOOP HVAC OUTDOOR AIR SYSTEM 5,NODE 101,NODE 110,Air Nodes
 Component Set,14,BRANCH,SYS_3_PSZ ALL_ST=RELIGIOUS - PULPIT/CHOIR_FL=STORY 3_SCH=I MAIN BRANCH,COILSYSTEM:COOLING:DX,COIL COOLING DX SINGLE SPEED 5 COILSYSTEM,NODE 110,NODE 109,Air Nodes
 Component Set,15,BRANCH,SYS_3_PSZ ALL_ST=RELIGIOUS - PULPIT/CHOIR_FL=STORY 3_SCH=I MAIN BRANCH,COIL:HEATING:FUEL,COIL HEATING GAS 5,NODE 109,NODE 108,Air Nodes
 Component Set,16,BRANCH,SYS_3_PSZ ALL_ST=RELIGIOUS - PULPIT/CHOIR_FL=STORY 3_SCH=I MAIN BRANCH,FAN:CONSTANTVOLUME,FAN CONSTANT VOLUME 5,NODE 108,NODE 102,Air Nodes
 Component Set,17,BRANCH,SYS_4_PSZ_WILD_ST=STAIRWAY-SCH-A_FL=STORY 1_SCH=B MAIN BRANCH,AIRLOOPHVAC:OUTDOORAIRSYSTEM,AIR LOOP HVAC OUTDOOR AIR SYSTEM 1,NODE 21,NODE 35,Air Nodes
 Component Set,18,BRANCH,SYS_4_PSZ_WILD_ST=STAIRWAY-SCH-A_FL=STORY 1_SCH=B MAIN BRANCH,COILSYSTEM:COOLING:DX,COIL COOLING DX SINGLE SPEED 1 COILSYSTEM,NODE 35,NODE 33,Air Nodes
 Component Set,19,BRANCH,SYS_4_PSZ_WILD_ST=STAIRWAY-SCH-A_FL=STORY 1_SCH=B MAIN BRANCH,COIL:HEATING:FUEL,COIL HEATING GAS 1,NODE 33,NODE 32,Air Nodes
 Component Set,20,BRANCH,SYS_4_PSZ_WILD_ST=STAIRWAY-SCH-A_FL=STORY 1_SCH=B MAIN BRANCH,FAN:CONSTANTVOLUME,FAN CONSTANT VOLUME 1,NODE 32,NODE 23,Air Nodes
 Component Set,21,BRANCH,SYS_6_VAV WITH REHEAT MAIN BRANCH,FAN:VARIABLEVOLUME,SYS6 RETURN FAN,NODE 141,NODE 154,Air Nodes
 Component Set,22,BRANCH,SYS_6_VAV WITH REHEAT MAIN BRANCH,AIRLOOPHVAC:OUTDOORAIRSYSTEM,AIR LOOP HVAC OUTDOOR AIR SYSTEM 6,NODE 154,NODE 153,Air Nodes
 Component Set,23,BRANCH,SYS_6_VAV WITH REHEAT MAIN BRANCH,COIL:COOLING:WATER,COIL COOLING WATER 1,NODE 153,NODE 152,Air Nodes
 Component Set,24,BRANCH,SYS_6_VAV WITH REHEAT MAIN BRANCH,COIL:HEATING:WATER,COIL HEATING WATER 1,NODE 152,NODE 151,Air Nodes
 Component Set,25,BRANCH,SYS_6_VAV WITH REHEAT MAIN BRANCH,FAN:VARIABLEVOLUME,SYS6 SUPPLY FAN,NODE 151,NODE 142,Air Nodes
 Component Set,26,BRANCH,SYS_6_VAV WITH REHEAT 1 MAIN BRANCH,FAN:VARIABLEVOLUME,SYS6 RETURN FAN 1,NODE 175,NODE 189,Air Nodes
 Component Set,27,BRANCH,SYS_6_VAV WITH REHEAT 1 MAIN BRANCH,AIRLOOPHVAC:OUTDOORAIRSYSTEM,AIR LOOP HVAC OUTDOOR AIR SYSTEM 7,NODE 189,NODE 188,Air Nodes
 Component Set,28,BRANCH,SYS_6_VAV WITH REHEAT 1 MAIN BRANCH,COIL:COOLING:WATER,COIL COOLING WATER 2,NODE 188,NODE 187,Air Nodes
 Component Set,29,BRANCH,SYS_6_VAV WITH REHEAT 1 MAIN BRANCH,COIL:HEATING:WATER,COIL HEATING WATER 5,NODE 187,NODE 186,Air Nodes
 Component Set,30,BRANCH,SYS_6_VAV WITH REHEAT 1 MAIN BRANCH,FAN:VARIABLEVOLUME,SYS6 SUPPLY FAN 1,NODE 186,NODE 176,Air Nodes
 Component Set,31,BRANCH,SYS_6_VAV WITH REHEAT 2 MAIN BRANCH,FAN:VARIABLEVOLUME,SYS6 RETURN FAN 2,NODE 210,NODE 224,Air Nodes
 Component Set,32,BRANCH,SYS_6_VAV WITH REHEAT 2 MAIN BRANCH,AIRLOOPHVAC:OUTDOORAIRSYSTEM,AIR LOOP HVAC OUTDOOR AIR SYSTEM 8,NODE 224,NODE 223,Air Nodes
 Component Set,33,BRANCH,SYS_6_VAV WITH REHEAT 2 MAIN BRANCH,COIL:COOLING:WATER,COIL COOLING WATER 3,NODE 223,NODE 222,Air Nodes
 Component Set,34,BRANCH,SYS_6_VAV WITH REHEAT 2 MAIN BRANCH,COIL:HEATING:WATER,COIL HEATING WATER 9,NODE 222,NODE 221,Air Nodes
 Component Set,35,BRANCH,SYS_6_VAV WITH REHEAT 2 MAIN BRANCH,FAN:VARIABLEVOLUME,SYS6 SUPPLY FAN 2,NODE 221,NODE 211,Air Nodes
 Component Set,36,BRANCH,SYS_6_VAV WITH REHEAT 3 MAIN BRANCH,FAN:VARIABLEVOLUME,SYS6 RETURN FAN 3,NODE 252,NODE 266,Air Nodes
 Component Set,37,BRANCH,SYS_6_VAV WITH REHEAT 3 MAIN BRANCH,AIRLOOPHVAC:OUTDOORAIRSYSTEM,AIR LOOP HVAC OUTDOOR AIR SYSTEM 9,NODE 266,NODE 265,Air Nodes
 Component Set,38,BRANCH,SYS_6_VAV WITH REHEAT 3 MAIN BRANCH,COIL:COOLING:WATER,COIL COOLING WATER 4,NODE 265,NODE 264,Air Nodes
 Component Set,39,BRANCH,SYS_6_VAV WITH REHEAT 3 MAIN BRANCH,COIL:HEATING:WATER,COIL HEATING WATER 14,NODE 264,NODE 263,Air Nodes
 Component Set,40,BRANCH,SYS_6_VAV WITH REHEAT 3 MAIN BRANCH,FAN:VARIABLEVOLUME,SYS6 SUPPLY FAN 3,NODE 263,NODE 253,Air Nodes
 Component Set,41,BRANCH,CHILLED WATER LOOP SUPPLY INLET BRANCH,PUMP:CONSTANTSPEED,PUMP CONSTANT SPEED 1,NODE 114,NODE 120,Water Nodes
 Component Set,42,BRANCH,CHILLED WATER LOOP SUPPLY BRANCH 1,CHILLER:ELECTRIC:EIR,PRIMARY CHILLER WATERCOOLED SCROLL,NODE 116,NODE 121,Chilled Water Nodes
 Component Set,43,BRANCH,CHILLED WATER LOOP SUPPLY BRANCH 2,CHILLER:ELECTRIC:EIR,SECONDARY CHILLER WATERCOOLED SCROLL,NODE 122,NODE 123,Chilled Water Nodes
 Component Set,44,BRANCH,CHILLED WATER LOOP SUPPLY BRANCH 3,PIPE:ADIABATIC,PIPE ADIABATIC 3,NODE 124,NODE 125,Pipe Nodes
 Component Set,45,BRANCH,CHILLED WATER LOOP SUPPLY OUTLET BRANCH,PIPE:ADIABATIC,PIPE ADIABATIC 4,NODE 126,NODE 115,Pipe Nodes
 Component Set,46,BRANCH,CHILLED WATER LOOP DEMAND INLET BRANCH,PIPE:ADIABATIC,CHILLED WATER LOOP DEMAND INLET PIPE,NODE 117,CHILLED WATER LOOP DEMAND INLET PIPE NODE,Pipe Nodes
 Component Set,47,BRANCH,CHILLED WATER LOOP DEMAND BRANCH 1,COIL:COOLING:WATER,COIL COOLING WATER 1,NODE 119,NODE 148,Water Nodes
 Component Set,48,BRANCH,CHILLED WATER LOOP DEMAND BRANCH 2,COIL:COOLING:WATER,COIL COOLING WATER 2,NODE 182,NODE 183,Water Nodes
 Component Set,49,BRANCH,CHILLED WATER LOOP DEMAND BRANCH 3,COIL:COOLING:WATER,COIL COOLING WATER 3,NODE 217,NODE 218,Water Nodes
 Component Set,50,BRANCH,CHILLED WATER LOOP DEMAND BRANCH 4,COIL:COOLING:WATER,COIL COOLING WATER 4,NODE 259,NODE 260,Water Nodes
 Component Set,51,BRANCH,CHILLED WATER LOOP DEMAND BYPASS BRANCH,PIPE:ADIABATIC,CHILLED WATER LOOP DEMAND BYPASS PIPE,CHILLED WATER LOOP DEMAND BYPASS PIPE INLET NODE,CHILLED WATER LOOP DEMAND BYPASS PIPE OUTLET NODE,Pipe Nodes
 Component Set,52,BRANCH,CHILLED WATER LOOP DEMAND OUTLET BRANCH,PIPE:ADIABATIC,CHILLED WATER LOOP DEMAND OUTLET PIPE,CHILLED WATER LOOP DEMAND OUTLET PIPE NODE,NODE 118,Pipe Nodes
 Component Set,53,BRANCH,CONDENSER WATER LOOP SUPPLY INLET BRANCH,PUMP:CONSTANTSPEED,PUMP CONSTANT SPEED 2,NODE 127,NODE 133,Water Nodes
 Component Set,54,BRANCH,CONDENSER WATER LOOP SUPPLY BRANCH 1,COOLINGTOWER:SINGLESPEED,COOLING TOWER SINGLE SPEED 1,NODE 129,NODE 134,Chilled Water Nodes
 Component Set,55,BRANCH,CONDENSER WATER LOOP SUPPLY BRANCH 2,PIPE:ADIABATIC,PIPE ADIABATIC 5,NODE 135,NODE 136,Pipe Nodes
 Component Set,56,BRANCH,CONDENSER WATER LOOP SUPPLY OUTLET BRANCH,PIPE:ADIABATIC,PIPE ADIABATIC 6,NODE 137,NODE 128,Pipe Nodes
 Component Set,57,BRANCH,CONDENSER WATER LOOP DEMAND INLET BRANCH,PIPE:ADIABATIC,CONDENSER WATER LOOP DEMAND INLET PIPE,NODE 130,CONDENSER WATER LOOP DEMAND INLET PIPE NODE,Pipe Nodes
 Component Set,58,BRANCH,CONDENSER WATER LOOP DEMAND BRANCH 1,CHILLER:ELECTRIC:EIR,PRIMARY CHILLER WATERCOOLED SCROLL,NODE 132,NODE 138,Condenser Water Nodes
 Component Set,59,BRANCH,CONDENSER WATER LOOP DEMAND BRANCH 2,CHILLER:ELECTRIC:EIR,SECONDARY CHILLER WATERCOOLED SCROLL,NODE 139,NODE 140,Condenser Water Nodes
 Component Set,60,BRANCH,CONDENSER WATER LOOP DEMAND BYPASS BRANCH,PIPE:ADIABATIC,CONDENSER WATER LOOP DEMAND BYPASS PIPE,CONDENSER WATER LOOP DEMAND BYPASS PIPE INLET NODE,CONDENSER WATER LOOP DEMAND BYPASS PIPE OUTLET NODE,Pipe Nodes
 Component Set,61,BRANCH,CONDENSER WATER LOOP DEMAND OUTLET BRANCH,PIPE:ADIABATIC,CONDENSER WATER LOOP DEMAND OUTLET PIPE,CONDENSER WATER LOOP DEMAND OUTLET PIPE NODE,NODE 131,Pipe Nodes
 Component Set,62,BRANCH,HOT WATER LOOP SUPPLY INLET BRANCH,PUMP:VARIABLESPEED,PUMP VARIABLE SPEED 1,NODE 2,NODE 11,Water Nodes
 Component Set,63,BRANCH,HOT WATER LOOP SUPPLY BRANCH 1,BOILER:HOTWATER,PRIMARY BOILER,NODE 5,NODE 12,Hot Water Nodes
 Component Set,64,BRANCH,HOT WATER LOOP SUPPLY BRANCH 2,BOILER:HOTWATER,SECONDARY BOILER,NODE 14,NODE 15,Hot Water Nodes
 Component Set,65,BRANCH,HOT WATER LOOP SUPPLY BRANCH 3,PIPE:ADIABATIC,PIPE ADIABATIC 1,NODE 17,NODE 18,Pipe Nodes
 Component Set,66,BRANCH,HOT WATER LOOP SUPPLY OUTLET BRANCH,PIPE:ADIABATIC,PIPE ADIABATIC 2,NODE 20,NODE 3,Pipe Nodes
 Component Set,67,BRANCH,HOT WATER LOOP DEMAND INLET BRANCH,PIPE:ADIABATIC,HOT WATER LOOP DEMAND INLET PIPE,NODE 6,HOT WATER LOOP DEMAND INLET PIPE NODE,Pipe Nodes
 Component Set,68,BRANCH,HOT WATER LOOP DEMAND BRANCH 1,ZONEHVAC:BASEBOARD:CONVECTIVE:WATER,ZONE HVAC BASEBOARD CONVECTIVE WATER 1,NODE 9,NODE 38,Hot Water Nodes
 Component Set,69,BRANCH,HOT WATER LOOP DEMAND BRANCH 2,ZONEHVAC:BASEBOARD:CONVECTIVE:WATER,ZONE HVAC BASEBOARD CONVECTIVE WATER 2,NODE 42,NODE 44,Hot Water Nodes
 Component Set,70,BRANCH,HOT WATER LOOP DEMAND BRANCH 3,ZONEHVAC:BASEBOARD:CONVECTIVE:WATER,ZONE HVAC BASEBOARD CONVECTIVE WATER 3,NODE 48,NODE 50,Hot Water Nodes
 Component Set,71,BRANCH,HOT WATER LOOP DEMAND BRANCH 4,ZONEHVAC:BASEBOARD:CONVECTIVE:WATER,ZONE HVAC BASEBOARD CONVECTIVE WATER 4,NODE 54,NODE 56,Hot Water Nodes
 Component Set,72,BRANCH,HOT WATER LOOP DEMAND BRANCH 5,ZONEHVAC:BASEBOARD:CONVECTIVE:WATER,ZONE HVAC BASEBOARD CONVECTIVE WATER 5,NODE 60,NODE 61,Hot Water Nodes
 Component Set,73,BRANCH,HOT WATER LOOP DEMAND BRANCH 6,ZONEHVAC:BASEBOARD:CONVECTIVE:WATER,ZONE HVAC BASEBOARD CONVECTIVE WATER 6,NODE 73,NODE 74,Hot Water Nodes
 Component Set,74,BRANCH,HOT WATER LOOP DEMAND BRANCH 7,ZONEHVAC:BASEBOARD:CONVECTIVE:WATER,ZONE HVAC BASEBOARD CONVECTIVE WATER 7,NODE 86,NODE 87,Hot Water Nodes
 Component Set,75,BRANCH,HOT WATER LOOP DEMAND BRANCH 8,ZONEHVAC:BASEBOARD:CONVECTIVE:WATER,ZONE HVAC BASEBOARD CONVECTIVE WATER 8,NODE 99,NODE 100,Hot Water Nodes
 Component Set,76,BRANCH,HOT WATER LOOP DEMAND BRANCH 9,ZONEHVAC:BASEBOARD:CONVECTIVE:WATER,ZONE HVAC BASEBOARD CONVECTIVE WATER 9,NODE 112,NODE 113,Hot Water Nodes
 Component Set,77,BRANCH,HOT WATER LOOP DEMAND BRANCH 10,COIL:HEATING:WATER,COIL HEATING WATER 1,NODE 146,NODE 147,Water Nodes
 Component Set,78,BRANCH,HOT WATER LOOP DEMAND BRANCH 11,COIL:HEATING:WATER,COIL HEATING WATER 2,NODE 155,NODE 156,Water Nodes
 Component Set,79,BRANCH,HOT WATER LOOP DEMAND BRANCH 12,ZONEHVAC:BASEBOARD:CONVECTIVE:WATER,ZONE HVAC BASEBOARD CONVECTIVE WATER 10,NODE 159,NODE 160,Hot Water Nodes
 Component Set,80,BRANCH,HOT WATER LOOP DEMAND BRANCH 13,COIL:HEATING:WATER,COIL HEATING WATER 3,NODE 161,NODE 162,Water Nodes
 Component Set,81,BRANCH,HOT WATER LOOP DEMAND BRANCH 14,ZONEHVAC:BASEBOARD:CONVECTIVE:WATER,ZONE HVAC BASEBOARD CONVECTIVE WATER 11,NODE 166,NODE 167,Hot Water Nodes
 Component Set,82,BRANCH,HOT WATER LOOP DEMAND BRANCH 15,COIL:HEATING:WATER,COIL HEATING WATER 4,NODE 168,NODE 169,Water Nodes
 Component Set,83,BRANCH,HOT WATER LOOP DEMAND BRANCH 16,ZONEHVAC:BASEBOARD:CONVECTIVE:WATER,ZONE HVAC BASEBOARD CONVECTIVE WATER 12,NODE 173,NODE 174,Hot Water Nodes
 Component Set,84,BRANCH,HOT WATER LOOP DEMAND BRANCH 17,COIL:HEATING:WATER,COIL HEATING WATER 5,NODE 180,NODE 181,Water Nodes
 Component Set,85,BRANCH,HOT WATER LOOP DEMAND BRANCH 18,COIL:HEATING:WATER,COIL HEATING WATER 6,NODE 190,NODE 191,Water Nodes
 Component Set,86,BRANCH,HOT WATER LOOP DEMAND BRANCH 19,ZONEHVAC:BASEBOARD:CONVECTIVE:WATER,ZONE HVAC BASEBOARD CONVECTIVE WATER 13,NODE 194,NODE 195,Hot Water Nodes
 Component Set,87,BRANCH,HOT WATER LOOP DEMAND BRANCH 20,COIL:HEATING:WATER,COIL HEATING WATER 7,NODE 196,NODE 197,Water Nodes
 Component Set,88,BRANCH,HOT WATER LOOP DEMAND BRANCH 21,ZONEHVAC:BASEBOARD:CONVECTIVE:WATER,ZONE HVAC BASEBOARD CONVECTIVE WATER 14,NODE 201,NODE 202,Hot Water Nodes
 Component Set,89,BRANCH,HOT WATER LOOP DEMAND BRANCH 22,COIL:HEATING:WATER,COIL HEATING WATER 8,NODE 203,NODE 204,Water Nodes
 Component Set,90,BRANCH,HOT WATER LOOP DEMAND BRANCH 23,ZONEHVAC:BASEBOARD:CONVECTIVE:WATER,ZONE HVAC BASEBOARD CONVECTIVE WATER 15,NODE 208,NODE 209,Hot Water Nodes
 Component Set,91,BRANCH,HOT WATER LOOP DEMAND BRANCH 24,COIL:HEATING:WATER,COIL HEATING WATER 9,NODE 215,NODE 216,Water Nodes
 Component Set,92,BRANCH,HOT WATER LOOP DEMAND BRANCH 25,COIL:HEATING:WATER,COIL HEATING WATER 10,NODE 225,NODE 226,Water Nodes
 Component Set,93,BRANCH,HOT WATER LOOP DEMAND BRANCH 26,ZONEHVAC:BASEBOARD:CONVECTIVE:WATER,ZONE HVAC BASEBOARD CONVECTIVE WATER 16,NODE 229,NODE 230,Hot Water Nodes
 Component Set,94,BRANCH,HOT WATER LOOP DEMAND BRANCH 27,COIL:HEATING:WATER,COIL HEATING WATER 11,NODE 231,NODE 232,Water Nodes
 Component Set,95,BRANCH,HOT WATER LOOP DEMAND BRANCH 28,ZONEHVAC:BASEBOARD:CONVECTIVE:WATER,ZONE HVAC BASEBOARD CONVECTIVE WATER 17,NODE 236,NODE 237,Hot Water Nodes
 Component Set,96,BRANCH,HOT WATER LOOP DEMAND BRANCH 29,COIL:HEATING:WATER,COIL HEATING WATER 12,NODE 238,NODE 239,Water Nodes
 Component Set,97,BRANCH,HOT WATER LOOP DEMAND BRANCH 30,ZONEHVAC:BASEBOARD:CONVECTIVE:WATER,ZONE HVAC BASEBOARD CONVECTIVE WATER 18,NODE 243,NODE 244,Hot Water Nodes
 Component Set,98,BRANCH,HOT WATER LOOP DEMAND BRANCH 31,COIL:HEATING:WATER,COIL HEATING WATER 13,NODE 245,NODE 246,Water Nodes
 Component Set,99,BRANCH,HOT WATER LOOP DEMAND BRANCH 32,ZONEHVAC:BASEBOARD:CONVECTIVE:WATER,ZONE HVAC BASEBOARD CONVECTIVE WATER 19,NODE 250,NODE 251,Hot Water Nodes
 Component Set,100,BRANCH,HOT WATER LOOP DEMAND BRANCH 33,COIL:HEATING:WATER,COIL HEATING WATER 14,NODE 257,NODE 258,Water Nodes
 Component Set,101,BRANCH,HOT WATER LOOP DEMAND BRANCH 34,COIL:HEATING:WATER,COIL HEATING WATER 15,NODE 267,NODE 268,Water Nodes
 Component Set,102,BRANCH,HOT WATER LOOP DEMAND BRANCH 35,ZONEHVAC:BASEBOARD:CONVECTIVE:WATER,ZONE HVAC BASEBOARD CONVECTIVE WATER 20,NODE 271,NODE 272,Hot Water Nodes
 Component Set,103,BRANCH,HOT WATER LOOP DEMAND BYPASS BRANCH,PIPE:ADIABATIC,HOT WATER LOOP DEMAND BYPASS PIPE,HOT WATER LOOP DEMAND BYPASS PIPE INLET NODE,HOT WATER LOOP DEMAND BYPASS PIPE OUTLET NODE,Pipe Nodes
 Component Set,104,BRANCH,HOT WATER LOOP DEMAND OUTLET BRANCH,PIPE:ADIABATIC,HOT WATER LOOP DEMAND OUTLET PIPE,HOT WATER LOOP DEMAND OUTLET PIPE NODE,NODE 8,Pipe Nodes
 Component Set,105,BRANCH,MAIN SERVICE WATER LOOP SUPPLY INLET BRANCH,PUMP:CONSTANTSPEED,SERVICE WATER LOOP PUMP,NODE 273,NODE 279,Water Nodes
 Component Set,106,BRANCH,MAIN SERVICE WATER LOOP SUPPLY BRANCH 1,WATERHEATER:MIXED,1021GAL NATURALGAS WATER HEATER - 3061KBTU/HR,NODE 275,NODE 280,Use Side Water Nodes
 Component Set,107,BRANCH,MAIN SERVICE WATER LOOP SUPPLY BRANCH 2,PIPE:ADIABATIC,PIPE ADIABATIC 7,NODE 281,NODE 282,Pipe Nodes
 Component Set,108,BRANCH,MAIN SERVICE WATER LOOP SUPPLY OUTLET BRANCH,PIPE:ADIABATIC,PIPE ADIABATIC 9,NODE 284,NODE 274,Pipe Nodes
 Component Set,109,BRANCH,MAIN SERVICE WATER LOOP DEMAND INLET BRANCH,PIPE:ADIABATIC,PIPE ADIABATIC 10,NODE 276,NODE 285,Pipe Nodes
 Component Set,110,BRANCH,MAIN SERVICE WATER LOOP DEMAND BRANCH 1,PIPE:ADIABATIC,PIPE ADIABATIC 8,NODE 278,NODE 283,Pipe Nodes
 Component Set,111,BRANCH,MAIN SERVICE WATER LOOP DEMAND BRANCH 2,WATERUSE:CONNECTIONS,WATER USE CONNECTIONS 1,NODE 287,NODE 288,DHW Nodes
 Component Set,112,BRANCH,MAIN SERVICE WATER LOOP DEMAND BRANCH 3,WATERUSE:CONNECTIONS,WATER USE CONNECTIONS 2,NODE 289,NODE 290,DHW Nodes
 Component Set,113,BRANCH,MAIN SERVICE WATER LOOP DEMAND BRANCH 4,WATERUSE:CONNECTIONS,WATER USE CONNECTIONS 3,NODE 291,NODE 292,DHW Nodes
 Component Set,114,BRANCH,MAIN SERVICE WATER LOOP DEMAND BRANCH 5,WATERUSE:CONNECTIONS,WATER USE CONNECTIONS 4,NODE 293,NODE 294,DHW Nodes
 Component Set,115,BRANCH,MAIN SERVICE WATER LOOP DEMAND BRANCH 6,WATERUSE:CONNECTIONS,WATER USE CONNECTIONS 5,NODE 295,NODE 296,DHW Nodes
 Component Set,116,BRANCH,MAIN SERVICE WATER LOOP DEMAND BRANCH 7,WATERUSE:CONNECTIONS,WATER USE CONNECTIONS 6,NODE 297,NODE 298,DHW Nodes
 Component Set,117,BRANCH,MAIN SERVICE WATER LOOP DEMAND BRANCH 8,WATERUSE:CONNECTIONS,WATER USE CONNECTIONS 7,NODE 299,NODE 300,DHW Nodes
 Component Set,118,BRANCH,MAIN SERVICE WATER LOOP DEMAND BRANCH 9,WATERUSE:CONNECTIONS,WATER USE CONNECTIONS 8,NODE 301,NODE 302,DHW Nodes
 Component Set,119,BRANCH,MAIN SERVICE WATER LOOP DEMAND BRANCH 10,WATERUSE:CONNECTIONS,WATER USE CONNECTIONS 9,NODE 303,NODE 304,DHW Nodes
 Component Set,120,BRANCH,MAIN SERVICE WATER LOOP DEMAND BRANCH 11,WATERUSE:CONNECTIONS,WATER USE CONNECTIONS 10,NODE 305,NODE 306,DHW Nodes
 Component Set,121,BRANCH,MAIN SERVICE WATER LOOP DEMAND BRANCH 12,WATERUSE:CONNECTIONS,WATER USE CONNECTIONS 11,NODE 307,NODE 308,DHW Nodes
 Component Set,122,BRANCH,MAIN SERVICE WATER LOOP DEMAND BRANCH 13,WATERUSE:CONNECTIONS,WATER USE CONNECTIONS 12,NODE 309,NODE 310,DHW Nodes
 Component Set,123,BRANCH,MAIN SERVICE WATER LOOP DEMAND BRANCH 14,WATERUSE:CONNECTIONS,WATER USE CONNECTIONS 13,NODE 311,NODE 312,DHW Nodes
 Component Set,124,BRANCH,MAIN SERVICE WATER LOOP DEMAND BRANCH 15,WATERUSE:CONNECTIONS,WATER USE CONNECTIONS 14,NODE 313,NODE 314,DHW Nodes
 Component Set,125,BRANCH,MAIN SERVICE WATER LOOP DEMAND BRANCH 16,WATERUSE:CONNECTIONS,WATER USE CONNECTIONS 15,NODE 315,NODE 316,DHW Nodes
 Component Set,126,BRANCH,MAIN SERVICE WATER LOOP DEMAND BYPASS BRANCH,PIPE:ADIABATIC,MAIN SERVICE WATER LOOP DEMAND BYPASS PIPE,MAIN SERVICE WATER LOOP DEMAND BYPASS PIPE INLET NODE,MAIN SERVICE WATER LOOP DEMAND BYPASS PIPE OUTLET NODE,Pipe Nodes
 Component Set,127,BRANCH,MAIN SERVICE WATER LOOP DEMAND OUTLET BRANCH,PIPE:ADIABATIC,PIPE ADIABATIC 11,NODE 286,NODE 277,Pipe Nodes
 Component Set,128,ZONEHVAC:AIRDISTRIBUTIONUNIT,ADU AIR TERMINAL SINGLE DUCT VAV REHEAT 11,AIRTERMINAL:SINGLEDUCT:VAV:REHEAT,AIR TERMINAL SINGLE DUCT VAV REHEAT 11,NODE 270,NODE 256,Air Nodes
 Component Set,129,ZONEHVAC:AIRDISTRIBUTIONUNIT,ADU AIR TERMINAL SINGLE DUCT VAV REHEAT 7,AIRTERMINAL:SINGLEDUCT:VAV:REHEAT,AIR TERMINAL SINGLE DUCT VAV REHEAT 7,NODE 228,NODE 214,Air Nodes
 Component Set,130,ZONEHVAC:AIRDISTRIBUTIONUNIT,ADU AIR TERMINAL SINGLE DUCT VAV REHEAT 8,AIRTERMINAL:SINGLEDUCT:VAV:REHEAT,AIR TERMINAL SINGLE DUCT VAV REHEAT 8,NODE 235,NODE 233,Air Nodes
 Component Set,131,ZONEHVAC:AIRDISTRIBUTIONUNIT,ADU AIR TERMINAL SINGLE DUCT VAV REHEAT 9,AIRTERMINAL:SINGLEDUCT:VAV:REHEAT,AIR TERMINAL SINGLE DUCT VAV REHEAT 9,NODE 242,NODE 240,Air Nodes
 Component Set,132,ZONEHVAC:AIRDISTRIBUTIONUNIT,ADU AIR TERMINAL SINGLE DUCT VAV REHEAT 1,AIRTERMINAL:SINGLEDUCT:VAV:REHEAT,AIR TERMINAL SINGLE DUCT VAV REHEAT 1,NODE 158,NODE 145,Air Nodes
 Component Set,133,ZONEHVAC:AIRDISTRIBUTIONUNIT,ADU AIR TERMINAL SINGLE DUCT VAV REHEAT 10,AIRTERMINAL:SINGLEDUCT:VAV:REHEAT,AIR TERMINAL SINGLE DUCT VAV REHEAT 10,NODE 249,NODE 247,Air Nodes
 Component Set,134,ZONEHVAC:AIRDISTRIBUTIONUNIT,ADU AIR TERMINAL SINGLE DUCT VAV REHEAT 2,AIRTERMINAL:SINGLEDUCT:VAV:REHEAT,AIR TERMINAL SINGLE DUCT VAV REHEAT 2,NODE 165,NODE 163,Air Nodes
 Component Set,135,ZONEHVAC:AIRDISTRIBUTIONUNIT,ADU AIR TERMINAL SINGLE DUCT VAV REHEAT 4,AIRTERMINAL:SINGLEDUCT:VAV:REHEAT,AIR TERMINAL SINGLE DUCT VAV REHEAT 4,NODE 193,NODE 179,Air Nodes
 Component Set,136,ZONEHVAC:AIRDISTRIBUTIONUNIT,ADU AIR TERMINAL SINGLE DUCT VAV REHEAT 3,AIRTERMINAL:SINGLEDUCT:VAV:REHEAT,AIR TERMINAL SINGLE DUCT VAV REHEAT 3,NODE 172,NODE 170,Air Nodes
 Component Set,137,ZONEHVAC:AIRDISTRIBUTIONUNIT,ADU AIR TERMINAL SINGLE DUCT VAV REHEAT 5,AIRTERMINAL:SINGLEDUCT:VAV:REHEAT,AIR TERMINAL SINGLE DUCT VAV REHEAT 5,NODE 200,NODE 198,Air Nodes
 Component Set,138,ZONEHVAC:AIRDISTRIBUTIONUNIT,ADU AIR TERMINAL SINGLE DUCT VAV REHEAT 6,AIRTERMINAL:SINGLEDUCT:VAV:REHEAT,AIR TERMINAL SINGLE DUCT VAV REHEAT 6,NODE 207,NODE 205,Air Nodes
 Component Set,139,AIRTERMINAL:SINGLEDUCT:VAV:REHEAT,AIR TERMINAL SINGLE DUCT VAV REHEAT 11,COIL:HEATING:WATER,COIL HEATING WATER 15,AIR TERMINAL SINGLE DUCT VAV REHEAT 11 DAMPER OUTLET,NODE 256,Air Nodes
 Component Set,140,AIRTERMINAL:SINGLEDUCT:VAV:REHEAT,AIR TERMINAL SINGLE DUCT VAV REHEAT 7,COIL:HEATING:WATER,COIL HEATING WATER 10,AIR TERMINAL SINGLE DUCT VAV REHEAT 7 DAMPER OUTLET,NODE 214,Air Nodes
 Component Set,141,AIRTERMINAL:SINGLEDUCT:VAV:REHEAT,AIR TERMINAL SINGLE DUCT VAV REHEAT 8,COIL:HEATING:WATER,COIL HEATING WATER 11,AIR TERMINAL SINGLE DUCT VAV REHEAT 8 DAMPER OUTLET,NODE 233,Air Nodes
 Component Set,142,AIRTERMINAL:SINGLEDUCT:VAV:REHEAT,AIR TERMINAL SINGLE DUCT VAV REHEAT 9,COIL:HEATING:WATER,COIL HEATING WATER 12,AIR TERMINAL SINGLE DUCT VAV REHEAT 9 DAMPER OUTLET,NODE 240,Air Nodes
 Component Set,143,AIRTERMINAL:SINGLEDUCT:VAV:REHEAT,AIR TERMINAL SINGLE DUCT VAV REHEAT 1,COIL:HEATING:WATER,COIL HEATING WATER 2,AIR TERMINAL SINGLE DUCT VAV REHEAT 1 DAMPER OUTLET,NODE 145,Air Nodes
 Component Set,144,AIRTERMINAL:SINGLEDUCT:VAV:REHEAT,AIR TERMINAL SINGLE DUCT VAV REHEAT 10,COIL:HEATING:WATER,COIL HEATING WATER 13,AIR TERMINAL SINGLE DUCT VAV REHEAT 10 DAMPER OUTLET,NODE 247,Air Nodes
 Component Set,145,AIRTERMINAL:SINGLEDUCT:VAV:REHEAT,AIR TERMINAL SINGLE DUCT VAV REHEAT 2,COIL:HEATING:WATER,COIL HEATING WATER 3,AIR TERMINAL SINGLE DUCT VAV REHEAT 2 DAMPER OUTLET,NODE 163,Air Nodes
 Component Set,146,AIRTERMINAL:SINGLEDUCT:VAV:REHEAT,AIR TERMINAL SINGLE DUCT VAV REHEAT 4,COIL:HEATING:WATER,COIL HEATING WATER 6,AIR TERMINAL SINGLE DUCT VAV REHEAT 4 DAMPER OUTLET,NODE 179,Air Nodes
 Component Set,147,AIRTERMINAL:SINGLEDUCT:VAV:REHEAT,AIR TERMINAL SINGLE DUCT VAV REHEAT 3,COIL:HEATING:WATER,COIL HEATING WATER 4,AIR TERMINAL SINGLE DUCT VAV REHEAT 3 DAMPER OUTLET,NODE 170,Air Nodes
 Component Set,148,AIRTERMINAL:SINGLEDUCT:VAV:REHEAT,AIR TERMINAL SINGLE DUCT VAV REHEAT 5,COIL:HEATING:WATER,COIL HEATING WATER 7,AIR TERMINAL SINGLE DUCT VAV REHEAT 5 DAMPER OUTLET,NODE 198,Air Nodes
 Component Set,149,AIRTERMINAL:SINGLEDUCT:VAV:REHEAT,AIR TERMINAL SINGLE DUCT VAV REHEAT 6,COIL:HEATING:WATER,COIL HEATING WATER 8,AIR TERMINAL SINGLE DUCT VAV REHEAT 6 DAMPER OUTLET,NODE 205,Air Nodes
 Component Set,150,AIRLOOPHVAC:OUTDOORAIRSYSTEM,AIR LOOP HVAC OUTDOOR AIR SYSTEM 2,OUTDOORAIR:MIXER,AIR LOOP HVAC OUTDOOR AIR SYSTEM 2 OUTDOOR AIR MIXER,NODE 67,NODE 71,Air Nodes
 Component Set,151,AIRLOOPHVAC:OUTDOORAIRSYSTEM,AIR LOOP HVAC OUTDOOR AIR SYSTEM 3,OUTDOORAIR:MIXER,AIR LOOP HVAC OUTDOOR AIR SYSTEM 3 OUTDOOR AIR MIXER,NODE 80,NODE 84,Air Nodes
 Component Set,152,AIRLOOPHVAC:OUTDOORAIRSYSTEM,AIR LOOP HVAC OUTDOOR AIR SYSTEM 4,OUTDOORAIR:MIXER,AIR LOOP HVAC OUTDOOR AIR SYSTEM 4 OUTDOOR AIR MIXER,NODE 93,NODE 97,Air Nodes
 Component Set,153,AIRLOOPHVAC:OUTDOORAIRSYSTEM,AIR LOOP HVAC OUTDOOR AIR SYSTEM 5,OUTDOORAIR:MIXER,AIR LOOP HVAC OUTDOOR AIR SYSTEM 5 OUTDOOR AIR MIXER,NODE 106,NODE 110,Air Nodes
 Component Set,154,AIRLOOPHVAC:OUTDOORAIRSYSTEM,AIR LOOP HVAC OUTDOOR AIR SYSTEM 1,OUTDOORAIR:MIXER,AIR LOOP HVAC OUTDOOR AIR SYSTEM 1 OUTDOOR AIR MIXER,NODE 29,NODE 35,Air Nodes
 Component Set,155,AIRLOOPHVAC:OUTDOORAIRSYSTEM,AIR LOOP HVAC OUTDOOR AIR SYSTEM 6,OUTDOORAIR:MIXER,AIR LOOP HVAC OUTDOOR AIR SYSTEM 6 OUTDOOR AIR MIXER,NODE 149,NODE 153,Air Nodes
 Component Set,156,AIRLOOPHVAC:OUTDOORAIRSYSTEM,AIR LOOP HVAC OUTDOOR AIR SYSTEM 7,OUTDOORAIR:MIXER,AIR LOOP HVAC OUTDOOR AIR SYSTEM 7 OUTDOOR AIR MIXER,NODE 184,NODE 188,Air Nodes
 Component Set,157,AIRLOOPHVAC:OUTDOORAIRSYSTEM,AIR LOOP HVAC OUTDOOR AIR SYSTEM 8,OUTDOORAIR:MIXER,AIR LOOP HVAC OUTDOOR AIR SYSTEM 8 OUTDOOR AIR MIXER,NODE 219,NODE 223,Air Nodes
 Component Set,158,AIRLOOPHVAC:OUTDOORAIRSYSTEM,AIR LOOP HVAC OUTDOOR AIR SYSTEM 9,OUTDOORAIR:MIXER,AIR LOOP HVAC OUTDOOR AIR SYSTEM 9 OUTDOOR AIR MIXER,NODE 261,NODE 265,Air Nodes
 Component Set,159,COILSYSTEM:COOLING:DX,COIL COOLING DX SINGLE SPEED 2 COILSYSTEM,COIL:COOLING:DX:SINGLESPEED,COIL COOLING DX SINGLE SPEED 2,NODE 71,NODE 70,Air Nodes
 Component Set,160,COILSYSTEM:COOLING:DX,COIL COOLING DX SINGLE SPEED 3 COILSYSTEM,COIL:COOLING:DX:SINGLESPEED,COIL COOLING DX SINGLE SPEED 3,NODE 84,NODE 83,Air Nodes
 Component Set,161,COILSYSTEM:COOLING:DX,COIL COOLING DX SINGLE SPEED 4 COILSYSTEM,COIL:COOLING:DX:SINGLESPEED,COIL COOLING DX SINGLE SPEED 4,NODE 97,NODE 96,Air Nodes
 Component Set,162,COILSYSTEM:COOLING:DX,COIL COOLING DX SINGLE SPEED 5 COILSYSTEM,COIL:COOLING:DX:SINGLESPEED,COIL COOLING DX SINGLE SPEED 5,NODE 110,NODE 109,Air Nodes
 Component Set,163,COILSYSTEM:COOLING:DX,COIL COOLING DX SINGLE SPEED 1 COILSYSTEM,COIL:COOLING:DX:SINGLESPEED,COIL COOLING DX SINGLE SPEED 1,NODE 35,NODE 33,Air Nodes
! ===============================================================
! <# Plant Loops>,<Number of Plant Loops>
 #Plant Loops,4
! <Plant Loop>,<Plant Loop Name>,<Loop Type>,<Inlet Node Name>,<Outlet Node Name>,<Branch List>,<Connector List>
! <Plant Loop Connector>,<Connector Type>,<Connector Name>,<Loop Name>,<Loop Type>,<Number of Inlets/Outlets>
! <Plant Loop Connector Branches>,<Connector Node Count>,<Connector Type>,<Connector Name>,<Inlet Branch>,<Outlet Branch>,<Loop Name>,<Loop Type>
! <Plant Loop Connector Nodes>,<Connector Node Count>,<Connector Type>,<Connector Name>,<Inlet Node>,<Outlet Node>,<Loop Name>,<Loop Type>
! <Plant Loop Supply Connection>,<Plant Loop Name>,<Supply Side Outlet Node Name>,<Demand Side Inlet Node Name>
! <Plant Loop Return Connection>,<Plant Loop Name>,<Demand Side Outlet Node Name>,<Supply Side Inlet Node Name>
 Plant Loop,CHILLED WATER LOOP,Demand,NODE 117,NODE 118,CHILLED WATER LOOP DEMAND BRANCHES,CHILLED WATER LOOP DEMAND CONNECTOR LIST
   Plant Loop Connector,Splitter,CHILLED WATER LOOP DEMAND SPLITTER,CHILLED WATER LOOP,Demand,5
     Plant Loop Connector Branches,1,Splitter,CHILLED WATER LOOP DEMAND SPLITTER,CHILLED WATER LOOP DEMAND INLET BRANCH,CHILLED WATER LOOP DEMAND BRANCH 1,CHILLED WATER LOOP,Demand
     Plant Loop Connector Nodes,   1,Splitter,CHILLED WATER LOOP DEMAND SPLITTER,CHILLED WATER LOOP DEMAND INLET PIPE NODE,NODE 119,CHILLED WATER LOOP,Demand
     Plant Loop Connector Branches,2,Splitter,CHILLED WATER LOOP DEMAND SPLITTER,CHILLED WATER LOOP DEMAND INLET BRANCH,CHILLED WATER LOOP DEMAND BRANCH 2,CHILLED WATER LOOP,Demand
     Plant Loop Connector Nodes,   2,Splitter,CHILLED WATER LOOP DEMAND SPLITTER,CHILLED WATER LOOP DEMAND INLET PIPE NODE,NODE 182,CHILLED WATER LOOP,Demand
     Plant Loop Connector Branches,3,Splitter,CHILLED WATER LOOP DEMAND SPLITTER,CHILLED WATER LOOP DEMAND INLET BRANCH,CHILLED WATER LOOP DEMAND BRANCH 3,CHILLED WATER LOOP,Demand
     Plant Loop Connector Nodes,   3,Splitter,CHILLED WATER LOOP DEMAND SPLITTER,CHILLED WATER LOOP DEMAND INLET PIPE NODE,NODE 217,CHILLED WATER LOOP,Demand
     Plant Loop Connector Branches,4,Splitter,CHILLED WATER LOOP DEMAND SPLITTER,CHILLED WATER LOOP DEMAND INLET BRANCH,CHILLED WATER LOOP DEMAND BRANCH 4,CHILLED WATER LOOP,Demand
     Plant Loop Connector Nodes,   4,Splitter,CHILLED WATER LOOP DEMAND SPLITTER,CHILLED WATER LOOP DEMAND INLET PIPE NODE,NODE 259,CHILLED WATER LOOP,Demand
     Plant Loop Connector Branches,5,Splitter,CHILLED WATER LOOP DEMAND SPLITTER,CHILLED WATER LOOP DEMAND INLET BRANCH,CHILLED WATER LOOP DEMAND BYPASS BRANCH,CHILLED WATER LOOP,Demand
     Plant Loop Connector Nodes,   5,Splitter,CHILLED WATER LOOP DEMAND SPLITTER,CHILLED WATER LOOP DEMAND INLET PIPE NODE,CHILLED WATER LOOP DEMAND BYPASS PIPE INLET NODE,CHILLED WATER LOOP,Demand
   Plant Loop Connector,Mixer,CHILLED WATER LOOP DEMAND MIXER,CHILLED WATER LOOP,Demand,5
     Plant Loop Connector Branches,1,Mixer,CHILLED WATER LOOP DEMAND MIXER,CHILLED WATER LOOP DEMAND BRANCH 1,CHILLED WATER LOOP DEMAND OUTLET BRANCH,CHILLED WATER LOOP,Demand
     Plant Loop Connector Nodes,   1,Mixer,CHILLED WATER LOOP DEMAND MIXER,NODE 148,CHILLED WATER LOOP DEMAND OUTLET PIPE NODE,CHILLED WATER LOOP,Demand
     Plant Loop Connector Branches,2,Mixer,CHILLED WATER LOOP DEMAND MIXER,CHILLED WATER LOOP DEMAND BRANCH 2,CHILLED WATER LOOP DEMAND OUTLET BRANCH,CHILLED WATER LOOP,Demand
     Plant Loop Connector Nodes,   2,Mixer,CHILLED WATER LOOP DEMAND MIXER,NODE 183,CHILLED WATER LOOP DEMAND OUTLET PIPE NODE,CHILLED WATER LOOP,Demand
     Plant Loop Connector Branches,3,Mixer,CHILLED WATER LOOP DEMAND MIXER,CHILLED WATER LOOP DEMAND BRANCH 3,CHILLED WATER LOOP DEMAND OUTLET BRANCH,CHILLED WATER LOOP,Demand
     Plant Loop Connector Nodes,   3,Mixer,CHILLED WATER LOOP DEMAND MIXER,NODE 218,CHILLED WATER LOOP DEMAND OUTLET PIPE NODE,CHILLED WATER LOOP,Demand
     Plant Loop Connector Branches,4,Mixer,CHILLED WATER LOOP DEMAND MIXER,CHILLED WATER LOOP DEMAND BRANCH 4,CHILLED WATER LOOP DEMAND OUTLET BRANCH,CHILLED WATER LOOP,Demand
     Plant Loop Connector Nodes,   4,Mixer,CHILLED WATER LOOP DEMAND MIXER,NODE 260,CHILLED WATER LOOP DEMAND OUTLET PIPE NODE,CHILLED WATER LOOP,Demand
     Plant Loop Connector Branches,5,Mixer,CHILLED WATER LOOP DEMAND MIXER,CHILLED WATER LOOP DEMAND BYPASS BRANCH,CHILLED WATER LOOP DEMAND OUTLET BRANCH,CHILLED WATER LOOP,Demand
     Plant Loop Connector Nodes,   5,Mixer,CHILLED WATER LOOP DEMAND MIXER,CHILLED WATER LOOP DEMAND BYPASS PIPE OUTLET NODE,CHILLED WATER LOOP DEMAND OUTLET PIPE NODE,CHILLED WATER LOOP,Demand
 Plant Loop,CHILLED WATER LOOP,Supply,NODE 114,NODE 115,CHILLED WATER LOOP SUPPLY BRANCHES,CHILLED WATER LOOP SUPPLY CONNECTOR LIST
   Plant Loop Connector,Splitter,CHILLED WATER LOOP SUPPLY SPLITTER,CHILLED WATER LOOP,Supply,3
     Plant Loop Connector Branches,1,Splitter,CHILLED WATER LOOP SUPPLY SPLITTER,CHILLED WATER LOOP SUPPLY INLET BRANCH,CHILLED WATER LOOP SUPPLY BRANCH 1,CHILLED WATER LOOP,Supply
     Plant Loop Connector Nodes,   1,Splitter,CHILLED WATER LOOP SUPPLY SPLITTER,NODE 120,NODE 116,CHILLED WATER LOOP,Supply
     Plant Loop Connector Branches,2,Splitter,CHILLED WATER LOOP SUPPLY SPLITTER,CHILLED WATER LOOP SUPPLY INLET BRANCH,CHILLED WATER LOOP SUPPLY BRANCH 2,CHILLED WATER LOOP,Supply
     Plant Loop Connector Nodes,   2,Splitter,CHILLED WATER LOOP SUPPLY SPLITTER,NODE 120,NODE 122,CHILLED WATER LOOP,Supply
     Plant Loop Connector Branches,3,Splitter,CHILLED WATER LOOP SUPPLY SPLITTER,CHILLED WATER LOOP SUPPLY INLET BRANCH,CHILLED WATER LOOP SUPPLY BRANCH 3,CHILLED WATER LOOP,Supply
     Plant Loop Connector Nodes,   3,Splitter,CHILLED WATER LOOP SUPPLY SPLITTER,NODE 120,NODE 124,CHILLED WATER LOOP,Supply
   Plant Loop Connector,Mixer,CHILLED WATER LOOP SUPPLY MIXER,CHILLED WATER LOOP,Supply,3
     Plant Loop Connector Branches,1,Mixer,CHILLED WATER LOOP SUPPLY MIXER,CHILLED WATER LOOP SUPPLY BRANCH 1,CHILLED WATER LOOP SUPPLY OUTLET BRANCH,CHILLED WATER LOOP,Supply
     Plant Loop Connector Nodes,   1,Mixer,CHILLED WATER LOOP SUPPLY MIXER,NODE 121,NODE 126,CHILLED WATER LOOP,Supply
     Plant Loop Connector Branches,2,Mixer,CHILLED WATER LOOP SUPPLY MIXER,CHILLED WATER LOOP SUPPLY BRANCH 2,CHILLED WATER LOOP SUPPLY OUTLET BRANCH,CHILLED WATER LOOP,Supply
     Plant Loop Connector Nodes,   2,Mixer,CHILLED WATER LOOP SUPPLY MIXER,NODE 123,NODE 126,CHILLED WATER LOOP,Supply
     Plant Loop Connector Branches,3,Mixer,CHILLED WATER LOOP SUPPLY MIXER,CHILLED WATER LOOP SUPPLY BRANCH 3,CHILLED WATER LOOP SUPPLY OUTLET BRANCH,CHILLED WATER LOOP,Supply
     Plant Loop Connector Nodes,   3,Mixer,CHILLED WATER LOOP SUPPLY MIXER,NODE 125,NODE 126,CHILLED WATER LOOP,Supply
 Plant Loop Supply Connection,CHILLED WATER LOOP,NODE 115,NODE 117
 Plant Loop Return Connection,CHILLED WATER LOOP,NODE 118,NODE 114
 Plant Loop,CONDENSER WATER LOOP,Demand,NODE 130,NODE 131,CONDENSER WATER LOOP DEMAND BRANCHES,CONDENSER WATER LOOP DEMAND CONNECTOR LIST
   Plant Loop Connector,Splitter,CONDENSER WATER LOOP DEMAND SPLITTER,CONDENSER WATER LOOP,Demand,3
     Plant Loop Connector Branches,1,Splitter,CONDENSER WATER LOOP DEMAND SPLITTER,CONDENSER WATER LOOP DEMAND INLET BRANCH,CONDENSER WATER LOOP DEMAND BRANCH 1,CONDENSER WATER LOOP,Demand
     Plant Loop Connector Nodes,   1,Splitter,CONDENSER WATER LOOP DEMAND SPLITTER,CONDENSER WATER LOOP DEMAND INLET PIPE NODE,NODE 132,CONDENSER WATER LOOP,Demand
     Plant Loop Connector Branches,2,Splitter,CONDENSER WATER LOOP DEMAND SPLITTER,CONDENSER WATER LOOP DEMAND INLET BRANCH,CONDENSER WATER LOOP DEMAND BRANCH 2,CONDENSER WATER LOOP,Demand
     Plant Loop Connector Nodes,   2,Splitter,CONDENSER WATER LOOP DEMAND SPLITTER,CONDENSER WATER LOOP DEMAND INLET PIPE NODE,NODE 139,CONDENSER WATER LOOP,Demand
     Plant Loop Connector Branches,3,Splitter,CONDENSER WATER LOOP DEMAND SPLITTER,CONDENSER WATER LOOP DEMAND INLET BRANCH,CONDENSER WATER LOOP DEMAND BYPASS BRANCH,CONDENSER WATER LOOP,Demand
     Plant Loop Connector Nodes,   3,Splitter,CONDENSER WATER LOOP DEMAND SPLITTER,CONDENSER WATER LOOP DEMAND INLET PIPE NODE,CONDENSER WATER LOOP DEMAND BYPASS PIPE INLET NODE,CONDENSER WATER LOOP,Demand
   Plant Loop Connector,Mixer,CONDENSER WATER LOOP DEMAND MIXER,CONDENSER WATER LOOP,Demand,3
     Plant Loop Connector Branches,1,Mixer,CONDENSER WATER LOOP DEMAND MIXER,CONDENSER WATER LOOP DEMAND BRANCH 1,CONDENSER WATER LOOP DEMAND OUTLET BRANCH,CONDENSER WATER LOOP,Demand
     Plant Loop Connector Nodes,   1,Mixer,CONDENSER WATER LOOP DEMAND MIXER,NODE 138,CONDENSER WATER LOOP DEMAND OUTLET PIPE NODE,CONDENSER WATER LOOP,Demand
     Plant Loop Connector Branches,2,Mixer,CONDENSER WATER LOOP DEMAND MIXER,CONDENSER WATER LOOP DEMAND BRANCH 2,CONDENSER WATER LOOP DEMAND OUTLET BRANCH,CONDENSER WATER LOOP,Demand
     Plant Loop Connector Nodes,   2,Mixer,CONDENSER WATER LOOP DEMAND MIXER,NODE 140,CONDENSER WATER LOOP DEMAND OUTLET PIPE NODE,CONDENSER WATER LOOP,Demand
     Plant Loop Connector Branches,3,Mixer,CONDENSER WATER LOOP DEMAND MIXER,CONDENSER WATER LOOP DEMAND BYPASS BRANCH,CONDENSER WATER LOOP DEMAND OUTLET BRANCH,CONDENSER WATER LOOP,Demand
[...]
 Non-Parent Node Connection,NODE 158,AIRTERMINAL:SINGLEDUCT:VAV:REHEAT,AIR TERMINAL SINGLE DUCT VAV REHEAT 1,Inlet,1
 Non-Parent Node Connection,AIR TERMINAL SINGLE DUCT VAV REHEAT 10 DAMPER OUTLET,AIRTERMINAL:SINGLEDUCT:VAV:REHEAT,AIR TERMINAL SINGLE DUCT VAV REHEAT 10,Outlet,1
 Non-Parent Node Connection,NODE 249,AIRTERMINAL:SINGLEDUCT:VAV:REHEAT,AIR TERMINAL SINGLE DUCT VAV REHEAT 10,Inlet,1
 Non-Parent Node Connection,AIR TERMINAL SINGLE DUCT VAV REHEAT 2 DAMPER OUTLET,AIRTERMINAL:SINGLEDUCT:VAV:REHEAT,AIR TERMINAL SINGLE DUCT VAV REHEAT 2,Outlet,1
 Non-Parent Node Connection,NODE 165,AIRTERMINAL:SINGLEDUCT:VAV:REHEAT,AIR TERMINAL SINGLE DUCT VAV REHEAT 2,Inlet,1
 Non-Parent Node Connection,AIR TERMINAL SINGLE DUCT VAV REHEAT 4 DAMPER OUTLET,AIRTERMINAL:SINGLEDUCT:VAV:REHEAT,AIR TERMINAL SINGLE DUCT VAV REHEAT 4,Outlet,1
 Non-Parent Node Connection,NODE 193,AIRTERMINAL:SINGLEDUCT:VAV:REHEAT,AIR TERMINAL SINGLE DUCT VAV REHEAT 4,Inlet,1
 Non-Parent Node Connection,AIR TERMINAL SINGLE DUCT VAV REHEAT 3 DAMPER OUTLET,AIRTERMINAL:SINGLEDUCT:VAV:REHEAT,AIR TERMINAL SINGLE DUCT VAV REHEAT 3,Outlet,1
 Non-Parent Node Connection,NODE 172,AIRTERMINAL:SINGLEDUCT:VAV:REHEAT,AIR TERMINAL SINGLE DUCT VAV REHEAT 3,Inlet,1
 Non-Parent Node Connection,AIR TERMINAL SINGLE DUCT VAV REHEAT 5 DAMPER OUTLET,AIRTERMINAL:SINGLEDUCT:VAV:REHEAT,AIR TERMINAL SINGLE DUCT VAV REHEAT 5,Outlet,1
 Non-Parent Node Connection,NODE 200,AIRTERMINAL:SINGLEDUCT:VAV:REHEAT,AIR TERMINAL SINGLE DUCT VAV REHEAT 5,Inlet,1
 Non-Parent Node Connection,AIR TERMINAL SINGLE DUCT VAV REHEAT 6 DAMPER OUTLET,AIRTERMINAL:SINGLEDUCT:VAV:REHEAT,AIR TERMINAL SINGLE DUCT VAV REHEAT 6,Outlet,1
 Non-Parent Node Connection,NODE 207,AIRTERMINAL:SINGLEDUCT:VAV:REHEAT,AIR TERMINAL SINGLE DUCT VAV REHEAT 6,Inlet,1
 Non-Parent Node Connection,NODE 152,CONTROLLER:WATERCOIL,CONTROLLER WATER COIL 2,Sensor,1
 Non-Parent Node Connection,NODE 119,CONTROLLER:WATERCOIL,CONTROLLER WATER COIL 2,Actuator,1
 Non-Parent Node Connection,NODE 151,CONTROLLER:WATERCOIL,CONTROLLER WATER COIL 1,Sensor,1
 Non-Parent Node Connection,NODE 146,CONTROLLER:WATERCOIL,CONTROLLER WATER COIL 1,Actuator,1
 Non-Parent Node Connection,NODE 187,CONTROLLER:WATERCOIL,CONTROLLER WATER COIL 7,Sensor,1
 Non-Parent Node Connection,NODE 182,CONTROLLER:WATERCOIL,CONTROLLER WATER COIL 7,Actuator,1
 Non-Parent Node Connection,NODE 186,CONTROLLER:WATERCOIL,CONTROLLER WATER COIL 6,Sensor,1
 Non-Parent Node Connection,NODE 180,CONTROLLER:WATERCOIL,CONTROLLER WATER COIL 6,Actuator,1
 Non-Parent Node Connection,NODE 222,CONTROLLER:WATERCOIL,CONTROLLER WATER COIL 12,Sensor,1
 Non-Parent Node Connection,NODE 217,CONTROLLER:WATERCOIL,CONTROLLER WATER COIL 12,Actuator,1
 Non-Parent Node Connection,NODE 221,CONTROLLER:WATERCOIL,CONTROLLER WATER COIL 11,Sensor,1
 Non-Parent Node Connection,NODE 215,CONTROLLER:WATERCOIL,CONTROLLER WATER COIL 11,Actuator,1
 Non-Parent Node Connection,NODE 264,CONTROLLER:WATERCOIL,CONTROLLER WATER COIL 18,Sensor,1
 Non-Parent Node Connection,NODE 259,CONTROLLER:WATERCOIL,CONTROLLER WATER COIL 18,Actuator,1
 Non-Parent Node Connection,NODE 263,CONTROLLER:WATERCOIL,CONTROLLER WATER COIL 17,Sensor,1
 Non-Parent Node Connection,NODE 257,CONTROLLER:WATERCOIL,CONTROLLER WATER COIL 17,Actuator,1
 Non-Parent Node Connection,NODE 65,AIRLOOPHVAC:ZONEMIXER,AIR LOOP HVAC ZONE MIXER 2,Outlet,1
 Non-Parent Node Connection,NODE 72,AIRLOOPHVAC:ZONEMIXER,AIR LOOP HVAC ZONE MIXER 2,Inlet,1
 Non-Parent Node Connection,NODE 78,AIRLOOPHVAC:ZONEMIXER,AIR LOOP HVAC ZONE MIXER 3,Outlet,1
 Non-Parent Node Connection,NODE 85,AIRLOOPHVAC:ZONEMIXER,AIR LOOP HVAC ZONE MIXER 3,Inlet,1
 Non-Parent Node Connection,NODE 91,AIRLOOPHVAC:ZONEMIXER,AIR LOOP HVAC ZONE MIXER 4,Outlet,1
 Non-Parent Node Connection,NODE 98,AIRLOOPHVAC:ZONEMIXER,AIR LOOP HVAC ZONE MIXER 4,Inlet,1
 Non-Parent Node Connection,NODE 104,AIRLOOPHVAC:ZONEMIXER,AIR LOOP HVAC ZONE MIXER 5,Outlet,1
 Non-Parent Node Connection,NODE 111,AIRLOOPHVAC:ZONEMIXER,AIR LOOP HVAC ZONE MIXER 5,Inlet,1
 Non-Parent Node Connection,NODE 26,AIRLOOPHVAC:ZONEMIXER,AIR LOOP HVAC ZONE MIXER 1,Outlet,1
 Non-Parent Node Connection,NODE 36,AIRLOOPHVAC:ZONEMIXER,AIR LOOP HVAC ZONE MIXER 1,Inlet,1
 Non-Parent Node Connection,NODE 41,AIRLOOPHVAC:ZONEMIXER,AIR LOOP HVAC ZONE MIXER 1,Inlet,1
 Non-Parent Node Connection,NODE 47,AIRLOOPHVAC:ZONEMIXER,AIR LOOP HVAC ZONE MIXER 1,Inlet,1
 Non-Parent Node Connection,NODE 53,AIRLOOPHVAC:ZONEMIXER,AIR LOOP HVAC ZONE MIXER 1,Inlet,1
 Non-Parent Node Connection,NODE 59,AIRLOOPHVAC:ZONEMIXER,AIR LOOP HVAC ZONE MIXER 1,Inlet,1
 Non-Parent Node Connection,NODE 144,AIRLOOPHVAC:ZONEMIXER,AIR LOOP HVAC ZONE MIXER 6,Outlet,1
 Non-Parent Node Connection,NODE 157,AIRLOOPHVAC:ZONEMIXER,AIR LOOP HVAC ZONE MIXER 6,Inlet,1
 Non-Parent Node Connection,NODE 164,AIRLOOPHVAC:ZONEMIXER,AIR LOOP HVAC ZONE MIXER 6,Inlet,1
 Non-Parent Node Connection,NODE 171,AIRLOOPHVAC:ZONEMIXER,AIR LOOP HVAC ZONE MIXER 6,Inlet,1
 Non-Parent Node Connection,NODE 178,AIRLOOPHVAC:ZONEMIXER,AIR LOOP HVAC ZONE MIXER 7,Outlet,1
 Non-Parent Node Connection,NODE 192,AIRLOOPHVAC:ZONEMIXER,AIR LOOP HVAC ZONE MIXER 7,Inlet,1
 Non-Parent Node Connection,NODE 199,AIRLOOPHVAC:ZONEMIXER,AIR LOOP HVAC ZONE MIXER 7,Inlet,1
 Non-Parent Node Connection,NODE 206,AIRLOOPHVAC:ZONEMIXER,AIR LOOP HVAC ZONE MIXER 7,Inlet,1
 Non-Parent Node Connection,NODE 213,AIRLOOPHVAC:ZONEMIXER,AIR LOOP HVAC ZONE MIXER 8,Outlet,1
 Non-Parent Node Connection,NODE 227,AIRLOOPHVAC:ZONEMIXER,AIR LOOP HVAC ZONE MIXER 8,Inlet,1
 Non-Parent Node Connection,NODE 234,AIRLOOPHVAC:ZONEMIXER,AIR LOOP HVAC ZONE MIXER 8,Inlet,1
 Non-Parent Node Connection,NODE 241,AIRLOOPHVAC:ZONEMIXER,AIR LOOP HVAC ZONE MIXER 8,Inlet,1
 Non-Parent Node Connection,NODE 248,AIRLOOPHVAC:ZONEMIXER,AIR LOOP HVAC ZONE MIXER 8,Inlet,1
 Non-Parent Node Connection,NODE 255,AIRLOOPHVAC:ZONEMIXER,AIR LOOP HVAC ZONE MIXER 9,Outlet,1
 Non-Parent Node Connection,NODE 269,AIRLOOPHVAC:ZONEMIXER,AIR LOOP HVAC ZONE MIXER 9,Inlet,1
 Non-Parent Node Connection,NODE 71,OUTDOORAIR:MIXER,AIR LOOP HVAC OUTDOOR AIR SYSTEM 2 OUTDOOR AIR MIXER,Outlet,1
 Non-Parent Node Connection,NODE 67,OUTDOORAIR:MIXER,AIR LOOP HVAC OUTDOOR AIR SYSTEM 2 OUTDOOR AIR MIXER,Inlet,1
 Non-Parent Node Connection,NODE 68,OUTDOORAIR:MIXER,AIR LOOP HVAC OUTDOOR AIR SYSTEM 2 OUTDOOR AIR MIXER,ReliefAir,1
 Non-Parent Node Connection,NODE 62,OUTDOORAIR:MIXER,AIR LOOP HVAC OUTDOOR AIR SYSTEM 2 OUTDOOR AIR MIXER,Inlet,1
 Non-Parent Node Connection,NODE 84,OUTDOORAIR:MIXER,AIR LOOP HVAC OUTDOOR AIR SYSTEM 3 OUTDOOR AIR MIXER,Outlet,1
 Non-Parent Node Connection,NODE 80,OUTDOORAIR:MIXER,AIR LOOP HVAC OUTDOOR AIR SYSTEM 3 OUTDOOR AIR MIXER,Inlet,1
 Non-Parent Node Connection,NODE 81,OUTDOORAIR:MIXER,AIR LOOP HVAC OUTDOOR AIR SYSTEM 3 OUTDOOR AIR MIXER,ReliefAir,1
 Non-Parent Node Connection,NODE 75,OUTDOORAIR:MIXER,AIR LOOP HVAC OUTDOOR AIR SYSTEM 3 OUTDOOR AIR MIXER,Inlet,1
 Non-Parent Node Connection,NODE 97,OUTDOORAIR:MIXER,AIR LOOP HVAC OUTDOOR AIR SYSTEM 4 OUTDOOR AIR MIXER,Outlet,1
 Non-Parent Node Connection,NODE 93,OUTDOORAIR:MIXER,AIR LOOP HVAC OUTDOOR AIR SYSTEM 4 OUTDOOR AIR MIXER,Inlet,1
 Non-Parent Node Connection,NODE 94,OUTDOORAIR:MIXER,AIR LOOP HVAC OUTDOOR AIR SYSTEM 4 OUTDOOR AIR MIXER,ReliefAir,1
 Non-Parent Node Connection,NODE 88,OUTDOORAIR:MIXER,AIR LOOP HVAC OUTDOOR AIR SYSTEM 4 OUTDOOR AIR MIXER,Inlet,1
 Non-Parent Node Connection,NODE 110,OUTDOORAIR:MIXER,AIR LOOP HVAC OUTDOOR AIR SYSTEM 5 OUTDOOR AIR MIXER,Outlet,1
 Non-Parent Node Connection,NODE 106,OUTDOORAIR:MIXER,AIR LOOP HVAC OUTDOOR AIR SYSTEM 5 OUTDOOR AIR MIXER,Inlet,1
 Non-Parent Node Connection,NODE 107,OUTDOORAIR:MIXER,AIR LOOP HVAC OUTDOOR AIR SYSTEM 5 OUTDOOR AIR MIXER,ReliefAir,1
 Non-Parent Node Connection,NODE 101,OUTDOORAIR:MIXER,AIR LOOP HVAC OUTDOOR AIR SYSTEM 5 OUTDOOR AIR MIXER,Inlet,1
 Non-Parent Node Connection,NODE 35,OUTDOORAIR:MIXER,AIR LOOP HVAC OUTDOOR AIR SYSTEM 1 OUTDOOR AIR MIXER,Outlet,1
 Non-Parent Node Connection,NODE 29,OUTDOORAIR:MIXER,AIR LOOP HVAC OUTDOOR AIR SYSTEM 1 OUTDOOR AIR MIXER,Inlet,1
 Non-Parent Node Connection,NODE 30,OUTDOORAIR:MIXER,AIR LOOP HVAC OUTDOOR AIR SYSTEM 1 OUTDOOR AIR MIXER,ReliefAir,1
 Non-Parent Node Connection,NODE 21,OUTDOORAIR:MIXER,AIR LOOP HVAC OUTDOOR AIR SYSTEM 1 OUTDOOR AIR MIXER,Inlet,1
 Non-Parent Node Connection,NODE 153,OUTDOORAIR:MIXER,AIR LOOP HVAC OUTDOOR AIR SYSTEM 6 OUTDOOR AIR MIXER,Outlet,1
 Non-Parent Node Connection,NODE 149,OUTDOORAIR:MIXER,AIR LOOP HVAC OUTDOOR AIR SYSTEM 6 OUTDOOR AIR MIXER,Inlet,1
 Non-Parent Node Connection,NODE 150,OUTDOORAIR:MIXER,AIR LOOP HVAC OUTDOOR AIR SYSTEM 6 OUTDOOR AIR MIXER,ReliefAir,1
 Non-Parent Node Connection,NODE 154,OUTDOORAIR:MIXER,AIR LOOP HVAC OUTDOOR AIR SYSTEM 6 OUTDOOR AIR MIXER,Inlet,1
 Non-Parent Node Connection,NODE 188,OUTDOORAIR:MIXER,AIR LOOP HVAC OUTDOOR AIR SYSTEM 7 OUTDOOR AIR MIXER,Outlet,1
 Non-Parent Node Connection,NODE 184,OUTDOORAIR:MIXER,AIR LOOP HVAC OUTDOOR AIR SYSTEM 7 OUTDOOR AIR MIXER,Inlet,1
 Non-Parent Node Connection,NODE 185,OUTDOORAIR:MIXER,AIR LOOP HVAC OUTDOOR AIR SYSTEM 7 OUTDOOR AIR MIXER,ReliefAir,1
 Non-Parent Node Connection,NODE 189,OUTDOORAIR:MIXER,AIR LOOP HVAC OUTDOOR AIR SYSTEM 7 OUTDOOR AIR MIXER,Inlet,1
 Non-Parent Node Connection,NODE 223,OUTDOORAIR:MIXER,AIR LOOP HVAC OUTDOOR AIR SYSTEM 8 OUTDOOR AIR MIXER,Outlet,1
 Non-Parent Node Connection,NODE 219,OUTDOORAIR:MIXER,AIR LOOP HVAC OUTDOOR AIR SYSTEM 8 OUTDOOR AIR MIXER,Inlet,1
 Non-Parent Node Connection,NODE 220,OUTDOORAIR:MIXER,AIR LOOP HVAC OUTDOOR AIR SYSTEM 8 OUTDOOR AIR MIXER,ReliefAir,1
 Non-Parent Node Connection,NODE 224,OUTDOORAIR:MIXER,AIR LOOP HVAC OUTDOOR AIR SYSTEM 8 OUTDOOR AIR MIXER,Inlet,1
 Non-Parent Node Connection,NODE 265,OUTDOORAIR:MIXER,AIR LOOP HVAC OUTDOOR AIR SYSTEM 9 OUTDOOR AIR MIXER,Outlet,1
 Non-Parent Node Connection,NODE 261,OUTDOORAIR:MIXER,AIR LOOP HVAC OUTDOOR AIR SYSTEM 9 OUTDOOR AIR MIXER,Inlet,1
 Non-Parent Node Connection,NODE 262,OUTDOORAIR:MIXER,AIR LOOP HVAC OUTDOOR AIR SYSTEM 9 OUTDOOR AIR MIXER,ReliefAir,1
 Non-Parent Node Connection,NODE 266,OUTDOORAIR:MIXER,AIR LOOP HVAC OUTDOOR AIR SYSTEM 9 OUTDOOR AIR MIXER,Inlet,1
 Non-Parent Node Connection,NODE 69,FAN:CONSTANTVOLUME,FAN CONSTANT VOLUME 2,Inlet,1
 Non-Parent Node Connection,NODE 63,FAN:CONSTANTVOLUME,FAN CONSTANT VOLUME 2,Outlet,1
 Non-Parent Node Connection,NODE 82,FAN:CONSTANTVOLUME,FAN CONSTANT VOLUME 3,Inlet,1
 Non-Parent Node Connection,NODE 76,FAN:CONSTANTVOLUME,FAN CONSTANT VOLUME 3,Outlet,1
 Non-Parent Node Connection,NODE 95,FAN:CONSTANTVOLUME,FAN CONSTANT VOLUME 4,Inlet,1
 Non-Parent Node Connection,NODE 89,FAN:CONSTANTVOLUME,FAN CONSTANT VOLUME 4,Outlet,1
 Non-Parent Node Connection,NODE 108,FAN:CONSTANTVOLUME,FAN CONSTANT VOLUME 5,Inlet,1
 Non-Parent Node Connection,NODE 102,FAN:CONSTANTVOLUME,FAN CONSTANT VOLUME 5,Outlet,1
 Non-Parent Node Connection,NODE 32,FAN:CONSTANTVOLUME,FAN CONSTANT VOLUME 1,Inlet,1
 Non-Parent Node Connection,NODE 23,FAN:CONSTANTVOLUME,FAN CONSTANT VOLUME 1,Outlet,1
 Non-Parent Node Connection,NODE 141,FAN:VARIABLEVOLUME,SYS6 RETURN FAN,Inlet,1
 Non-Parent Node Connection,NODE 154,FAN:VARIABLEVOLUME,SYS6 RETURN FAN,Outlet,1
 Non-Parent Node Connection,NODE 151,FAN:VARIABLEVOLUME,SYS6 SUPPLY FAN,Inlet,1
 Non-Parent Node Connection,NODE 142,FAN:VARIABLEVOLUME,SYS6 SUPPLY FAN,Outlet,1
 Non-Parent Node Connection,NODE 175,FAN:VARIABLEVOLUME,SYS6 RETURN FAN 1,Inlet,1
 Non-Parent Node Connection,NODE 189,FAN:VARIABLEVOLUME,SYS6 RETURN FAN 1,Outlet,1
 Non-Parent Node Connection,NODE 186,FAN:VARIABLEVOLUME,SYS6 SUPPLY FAN 1,Inlet,1
 Non-Parent Node Connection,NODE 176,FAN:VARIABLEVOLUME,SYS6 SUPPLY FAN 1,Outlet,1
 Non-Parent Node Connection,NODE 210,FAN:VARIABLEVOLUME,SYS6 RETURN FAN 2,Inlet,1
 Non-Parent Node Connection,NODE 224,FAN:VARIABLEVOLUME,SYS6 RETURN FAN 2,Outlet,1
 Non-Parent Node Connection,NODE 221,FAN:VARIABLEVOLUME,SYS6 SUPPLY FAN 2,Inlet,1
 Non-Parent Node Connection,NODE 211,FAN:VARIABLEVOLUME,SYS6 SUPPLY FAN 2,Outlet,1
 Non-Parent Node Connection,NODE 252,FAN:VARIABLEVOLUME,SYS6 RETURN FAN 3,Inlet,1
 Non-Parent Node Connection,NODE 266,FAN:VARIABLEVOLUME,SYS6 RETURN FAN 3,Outlet,1
 Non-Parent Node Connection,NODE 263,FAN:VARIABLEVOLUME,SYS6 SUPPLY FAN 3,Inlet,1
 Non-Parent Node Connection,NODE 253,FAN:VARIABLEVOLUME,SYS6 SUPPLY FAN 3,Outlet,1
 Non-Parent Node Connection,NODE 71,CONTROLLER:OUTDOORAIR,CONTROLLER OUTDOOR AIR 2,Sensor,1
 Non-Parent Node Connection,NODE 67,CONTROLLER:OUTDOORAIR,CONTROLLER OUTDOOR AIR 2,Actuator,1
 Non-Parent Node Connection,NODE 68,CONTROLLER:OUTDOORAIR,CONTROLLER OUTDOOR AIR 2,Actuator,1
 Non-Parent Node Connection,NODE 62,CONTROLLER:OUTDOORAIR,CONTROLLER OUTDOOR AIR 2,Sensor,1
 Non-Parent Node Connection,NODE 84,CONTROLLER:OUTDOORAIR,CONTROLLER OUTDOOR AIR 3,Sensor,1
 Non-Parent Node Connection,NODE 80,CONTROLLER:OUTDOORAIR,CONTROLLER OUTDOOR AIR 3,Actuator,1
 Non-Parent Node Connection,NODE 81,CONTROLLER:OUTDOORAIR,CONTROLLER OUTDOOR AIR 3,Actuator,1
 Non-Parent Node Connection,NODE 75,CONTROLLER:OUTDOORAIR,CONTROLLER OUTDOOR AIR 3,Sensor,1
 Non-Parent Node Connection,NODE 97,CONTROLLER:OUTDOORAIR,CONTROLLER OUTDOOR AIR 4,Sensor,1
 Non-Parent Node Connection,NODE 93,CONTROLLER:OUTDOORAIR,CONTROLLER OUTDOOR AIR 4,Actuator,1
 Non-Parent Node Connection,NODE 94,CONTROLLER:OUTDOORAIR,CONTROLLER OUTDOOR AIR 4,Actuator,1
 Non-Parent Node Connection,NODE 88,CONTROLLER:OUTDOORAIR,CONTROLLER OUTDOOR AIR 4,Sensor,1
 Non-Parent Node Connection,NODE 110,CONTROLLER:OUTDOORAIR,CONTROLLER OUTDOOR AIR 5,Sensor,1
 Non-Parent Node Connection,NODE 106,CONTROLLER:OUTDOORAIR,CONTROLLER OUTDOOR AIR 5,Actuator,1
 Non-Parent Node Connection,NODE 107,CONTROLLER:OUTDOORAIR,CONTROLLER OUTDOOR AIR 5,Actuator,1
 Non-Parent Node Connection,NODE 101,CONTROLLER:OUTDOORAIR,CONTROLLER OUTDOOR AIR 5,Sensor,1
 Non-Parent Node Connection,NODE 35,CONTROLLER:OUTDOORAIR,CONTROLLER OUTDOOR AIR 1,Sensor,1
 Non-Parent Node Connection,NODE 29,CONTROLLER:OUTDOORAIR,CONTROLLER OUTDOOR AIR 1,Actuator,1
 Non-Parent Node Connection,NODE 30,CONTROLLER:OUTDOORAIR,CONTROLLER OUTDOOR AIR 1,Actuator,1
 Non-Parent Node Connection,NODE 21,CONTROLLER:OUTDOORAIR,CONTROLLER OUTDOOR AIR 1,Sensor,1
 Non-Parent Node Connection,NODE 153,CONTROLLER:OUTDOORAIR,CONTROLLER OUTDOOR AIR 6,Sensor,1
 Non-Parent Node Connection,NODE 149,CONTROLLER:OUTDOORAIR,CONTROLLER OUTDOOR AIR 6,Actuator,1
 Non-Parent Node Connection,NODE 150,CONTROLLER:OUTDOORAIR,CONTROLLER OUTDOOR AIR 6,Actuator,1
 Non-Parent Node Connection,NODE 154,CONTROLLER:OUTDOORAIR,CONTROLLER OUTDOOR AIR 6,Sensor,1
 Non-Parent Node Connection,NODE 188,CONTROLLER:OUTDOORAIR,CONTROLLER OUTDOOR AIR 7,Sensor,1
 Non-Parent Node Connection,NODE 184,CONTROLLER:OUTDOORAIR,CONTROLLER OUTDOOR AIR 7,Actuator,1
 Non-Parent Node Connection,NODE 185,CONTROLLER:OUTDOORAIR,CONTROLLER OUTDOOR AIR 7,Actuator,1
 Non-Parent Node Connection,NODE 189,CONTROLLER:OUTDOORAIR,CONTROLLER OUTDOOR AIR 7,Sensor,1
 Non-Parent Node Connection,NODE 223,CONTROLLER:OUTDOORAIR,CONTROLLER OUTDOOR AIR 8,Sensor,1
 Non-Parent Node Connection,NODE 219,CONTROLLER:OUTDOORAIR,CONTROLLER OUTDOOR AIR 8,Actuator,1
 Non-Parent Node Connection,NODE 220,CONTROLLER:OUTDOORAIR,CONTROLLER OUTDOOR AIR 8,Actuator,1
 Non-Parent Node Connection,NODE 224,CONTROLLER:OUTDOORAIR,CONTROLLER OUTDOOR AIR 8,Sensor,1
 Non-Parent Node Connection,NODE 265,CONTROLLER:OUTDOORAIR,CONTROLLER OUTDOOR AIR 9,Sensor,1
 Non-Parent Node Connection,NODE 261,CONTROLLER:OUTDOORAIR,CONTROLLER OUTDOOR AIR 9,Actuator,1
 Non-Parent Node Connection,NODE 262,CONTROLLER:OUTDOORAIR,CONTROLLER OUTDOOR AIR 9,Actuator,1
 Non-Parent Node Connection,NODE 266,CONTROLLER:OUTDOORAIR,CONTROLLER OUTDOOR AIR 9,Sensor,1
 Non-Parent Node Connection,NODE 71,COIL:COOLING:DX:SINGLESPEED,COIL COOLING DX SINGLE SPEED 2,Inlet,1
 Non-Parent Node Connection,NODE 70,COIL:COOLING:DX:SINGLESPEED,COIL COOLING DX SINGLE SPEED 2,Outlet,1
 Non-Parent Node Connection,NODE 84,COIL:COOLING:DX:SINGLESPEED,COIL COOLING DX SINGLE SPEED 3,Inlet,1
 Non-Parent Node Connection,NODE 83,COIL:COOLING:DX:SINGLESPEED,COIL COOLING DX SINGLE SPEED 3,Outlet,1
 Non-Parent Node Connection,NODE 97,COIL:COOLING:DX:SINGLESPEED,COIL COOLING DX SINGLE SPEED 4,Inlet,1
 Non-Parent Node Connection,NODE 96,COIL:COOLING:DX:SINGLESPEED,COIL COOLING DX SINGLE SPEED 4,Outlet,1
 Non-Parent Node Connection,NODE 110,COIL:COOLING:DX:SINGLESPEED,COIL COOLING DX SINGLE SPEED 5,Inlet,1
 Non-Parent Node Connection,NODE 109,COIL:COOLING:DX:SINGLESPEED,COIL COOLING DX SINGLE SPEED 5,Outlet,1
 Non-Parent Node Connection,NODE 35,COIL:COOLING:DX:SINGLESPEED,COIL COOLING DX SINGLE SPEED 1,Inlet,1
 Non-Parent Node Connection,NODE 33,COIL:COOLING:DX:SINGLESPEED,COIL COOLING DX SINGLE SPEED 1,Outlet,1
 Non-Parent Node Connection,NODE 70,COIL:HEATING:FUEL,COIL HEATING GAS 2,Inlet,1
 Non-Parent Node Connection,NODE 69,COIL:HEATING:FUEL,COIL HEATING GAS 2,Outlet,1
 Non-Parent Node Connection,NODE 69,COIL:HEATING:FUEL,COIL HEATING GAS 2,Sensor,1
 Non-Parent Node Connection,NODE 83,COIL:HEATING:FUEL,COIL HEATING GAS 3,Inlet,1
 Non-Parent Node Connection,NODE 82,COIL:HEATING:FUEL,COIL HEATING GAS 3,Outlet,1
 Non-Parent Node Connection,NODE 82,COIL:HEATING:FUEL,COIL HEATING GAS 3,Sensor,1
 Non-Parent Node Connection,NODE 96,COIL:HEATING:FUEL,COIL HEATING GAS 4,Inlet,1
 Non-Parent Node Connection,NODE 95,COIL:HEATING:FUEL,COIL HEATING GAS 4,Outlet,1
 Non-Parent Node Connection,NODE 95,COIL:HEATING:FUEL,COIL HEATING GAS 4,Sensor,1
 Non-Parent Node Connection,NODE 109,COIL:HEATING:FUEL,COIL HEATING GAS 5,Inlet,1
 Non-Parent Node Connection,NODE 108,COIL:HEATING:FUEL,COIL HEATING GAS 5,Outlet,1
 Non-Parent Node Connection,NODE 108,COIL:HEATING:FUEL,COIL HEATING GAS 5,Sensor,1
 Non-Parent Node Connection,NODE 33,COIL:HEATING:FUEL,COIL HEATING GAS 1,Inlet,1
 Non-Parent Node Connection,NODE 32,COIL:HEATING:FUEL,COIL HEATING GAS 1,Outlet,1
 Non-Parent Node Connection,NODE 32,COIL:HEATING:FUEL,COIL HEATING GAS 1,Sensor,1
 Non-Parent Node Connection,NODE 116,CHILLER:ELECTRIC:EIR,PRIMARY CHILLER WATERCOOLED SCROLL,Inlet,1
 Non-Parent Node Connection,NODE 121,CHILLER:ELECTRIC:EIR,PRIMARY CHILLER WATERCOOLED SCROLL,Outlet,1
 Non-Parent Node Connection,NODE 132,CHILLER:ELECTRIC:EIR,PRIMARY CHILLER WATERCOOLED SCROLL,Inlet,2
 Non-Parent Node Connection,NODE 138,CHILLER:ELECTRIC:EIR,PRIMARY CHILLER WATERCOOLED SCROLL,Outlet,2
 Non-Parent Node Connection,NODE 122,CHILLER:ELECTRIC:EIR,SECONDARY CHILLER WATERCOOLED SCROLL,Inlet,1
 Non-Parent Node Connection,NODE 123,CHILLER:ELECTRIC:EIR,SECONDARY CHILLER WATERCOOLED SCROLL,Outlet,1
 Non-Parent Node Connection,NODE 139,CHILLER:ELECTRIC:EIR,SECONDARY CHILLER WATERCOOLED SCROLL,Inlet,2
 Non-Parent Node Connection,NODE 140,CHILLER:ELECTRIC:EIR,SECONDARY CHILLER WATERCOOLED SCROLL,Outlet,2
 Non-Parent Node Connection,NODE 129,COOLINGTOWER:SINGLESPEED,COOLING TOWER SINGLE SPEED 1,Inlet,1
 Non-Parent Node Connection,NODE 134,COOLINGTOWER:SINGLESPEED,COOLING TOWER SINGLE SPEED 1,Outlet,1
 Non-Parent Node Connection,NODE 5,BOILER:HOTWATER,PRIMARY BOILER,Inlet,1
 Non-Parent Node Connection,NODE 12,BOILER:HOTWATER,PRIMARY BOILER,Outlet,1
 Non-Parent Node Connection,NODE 14,BOILER:HOTWATER,SECONDARY BOILER,Inlet,1
 Non-Parent Node Connection,NODE 15,BOILER:HOTWATER,SECONDARY BOILER,Outlet,1
 Non-Parent Node Connection,NODE 2,PUMP:VARIABLESPEED,PUMP VARIABLE SPEED 1,Inlet,1
 Non-Parent Node Connection,NODE 11,PUMP:VARIABLESPEED,PUMP VARIABLE SPEED 1,Outlet,1
 Non-Parent Node Connection,NODE 114,PUMP:CONSTANTSPEED,PUMP CONSTANT SPEED 1,Inlet,1
 Non-Parent Node Connection,NODE 120,PUMP:CONSTANTSPEED,PUMP CONSTANT SPEED 1,Outlet,1
 Non-Parent Node Connection,NODE 127,PUMP:CONSTANTSPEED,PUMP CONSTANT SPEED 2,Inlet,1
 Non-Parent Node Connection,NODE 133,PUMP:CONSTANTSPEED,PUMP CONSTANT SPEED 2,Outlet,1
 Non-Parent Node Connection,NODE 273,PUMP:CONSTANTSPEED,SERVICE WATER LOOP PUMP,Inlet,1
 Non-Parent Node Connection,NODE 279,PUMP:CONSTANTSPEED,SERVICE WATER LOOP PUMP,Outlet,1
