Program Version,EnergyPlus, Version 8.9.0-eba93e8e1b, YMD=2019.03.19 18:42
! <Version>, Version ID
 Version, 8.9
! <Timesteps per Hour>, #TimeSteps, Minutes per TimeStep {minutes}
 Timesteps per Hour,  6, 10
! <System Convergence Limits>, Minimum System TimeStep {minutes}, Max HVAC Iterations, Minimum Plant Iterations, Maximum Plant Iterations
 System Convergence Limits, 1, 20, 2, 8
! <Simulation Control>, Do Zone Sizing, Do System Sizing, Do Plant Sizing, Do Design Days, Do Weather Simulation, Do HVAC Sizing Simulation
 Simulation Control, Yes, Yes, Yes, No, Yes, No
! <Output Reporting Tolerances>, Tolerance for Time Heating Setpoint Not Met, Tolerance for Zone Cooling Setpoint Not Met Time
 Output Reporting Tolerances, 1.000, 1.000, 
! <Site:GroundTemperature:BuildingSurface>,Jan{C},Feb{C},Mar{C},Apr{C},May{C},Jun{C},Jul{C},Aug{C},Sep{C},Oct{C},Nov{C},Dec{C}
 Site:GroundTemperature:BuildingSurface,  19.53,  19.50,  19.54,  19.60,  20.00,  21.64,  22.23,  22.38,  21.45,  20.12,  19.80,  19.63
! <Site:GroundTemperature:FCfactorMethod>,Jan{C},Feb{C},Mar{C},Apr{C},May{C},Jun{C},Jul{C},Aug{C},Sep{C},Oct{C},Nov{C},Dec{C}
 Site:GroundTemperature:FCfactorMethod, -12.27, -13.66, -11.19,  -7.33,   2.77,  10.57,  15.83,  17.43,  14.70,   8.65,   0.56,  -6.95
! <Site:GroundTemperature:Shallow>,Jan{C},Feb{C},Mar{C},Apr{C},May{C},Jun{C},Jul{C},Aug{C},Sep{C},Oct{C},Nov{C},Dec{C}
 Site:GroundTemperature:Shallow,  13.00,  13.00,  13.00,  13.00,  13.00,  13.00,  13.00,  13.00,  13.00,  13.00,  13.00,  13.00
! <Site:GroundTemperature:Deep>,Jan{C},Feb{C},Mar{C},Apr{C},May{C},Jun{C},Jul{C},Aug{C},Sep{C},Oct{C},Nov{C},Dec{C}
 Site:GroundTemperature:Deep,  16.00,  16.00,  16.00,  16.00,  16.00,  16.00,  16.00,  16.00,  16.00,  16.00,  16.00,  16.00
! <Site:GroundReflectance>,Jan{dimensionless},Feb{dimensionless},Mar{dimensionless},Apr{dimensionless},May{dimensionless},Jun{dimensionless},Jul{dimensionless},Aug{dimensionless},Sep{dimensionless},Oct{dimensionless},Nov{dimensionless},Dec{dimensionless}
 Site:GroundReflectance,  0.20,  0.20,  0.20,  0.20,  0.20,  0.20,  0.20,  0.20,  0.20,  0.20,  0.20,  0.20
! <Site:GroundReflectance:SnowModifier>, Normal, Daylighting {dimensionless}
 Site:GroundReflectance:SnowModifier,   1.000,   1.000
! <Site:GroundReflectance:Snow>,Jan{dimensionless},Feb{dimensionless},Mar{dimensionless},Apr{dimensionless},May{dimensionless},Jun{dimensionless},Jul{dimensionless},Aug{dimensionless},Sep{dimensionless},Oct{dimensionless},Nov{dimensionless},Dec{dimensionless}
 Site:GroundReflectance:Snow,  0.20,  0.20,  0.20,  0.20,  0.20,  0.20,  0.20,  0.20,  0.20,  0.20,  0.20,  0.20
! <Site:GroundReflectance:Snow:Daylighting>,Jan{dimensionless},Feb{dimensionless},Mar{dimensionless},Apr{dimensionless},May{dimensionless},Jun{dimensionless},Jul{dimensionless},Aug{dimensionless},Sep{dimensionless},Oct{dimensionless},Nov{dimensionless},Dec{dimensionless}
 Site:GroundReflectance:Snow:Daylighting,  0.20,  0.20,  0.20,  0.20,  0.20,  0.20,  0.20,  0.20,  0.20,  0.20,  0.20,  0.20
! <Environment:Weather Station>,Wind Sensor Height Above Ground {m},Wind Speed Profile Exponent {},Wind Speed Profile Boundary Layer Thickness {m},Air Temperature Sensor Height Above Ground {m},Wind Speed Modifier Coefficient-Internal,Temperature Modifier Coefficient-Internal
Environment:Weather Station,10.000,0.140,270.000,1.500,1.586,9.750E-003
! <Site:Location>, Location Name, Latitude {N+/S- Deg}, Longitude {E+/W- Deg},  Time Zone Number {GMT+/-}, Elevation {m},  Standard Pressure at Elevation {Pa}, Standard RhoAir at Elevation
Site:Location,Fort McMurray AP AB CAN CWEC2016 WMO#=716890,56.65,-111.22,-7.00,369.10,96969,1.1525
! <Building Information>, Building Name,North Axis {deg},Terrain,  Loads Convergence Tolerance Value,Temperature Convergence Tolerance Value,  Solar Distribution,Maximum Number of Warmup Days,Minimum Number of Warmup Days
 Building Information,Building 1,0.000,Suburbs,4.00000E-002,0.40000,FullExterior,25,6
! <Inside Convection Algorithm>, Algorithm {Simple | TARP | CeilingDiffuser | AdaptiveConvectionAlgorithm}
Inside Convection Algorithm,TARP
! <Outside Convection Algorithm>, Algorithm {SimpleCombined | TARP | MoWitt | DOE-2 | AdaptiveConvectionAlgorithm}
Outside Convection Algorithm,TARP
! <Sky Radiance Distribution>, Value {Anisotropic}
Sky Radiance Distribution,Anisotropic
! <Zone Air Solution Algorithm>, Value {ThirdOrderBackwardDifference | AnalyticalSolution | EulerMethod}
 Zone Air Solution Algorithm, ThirdOrderBackwardDifference
! <Zone Air Carbon Dioxide Balance Simulation>, Simulation {Yes/No}, Carbon Dioxide Concentration
 Zone Air Carbon Dioxide Balance Simulation, No,N/A
! <Zone Air Generic Contaminant Balance Simulation>, Simulation {Yes/No}, Generic Contaminant Concentration
 Zone Air Generic Contaminant Balance Simulation, No,N/A
! <Zone Air Mass Flow Balance Simulation>, Enforce Mass Balance, Adjust Zone Mixing, Adjust Zone Infiltration {AddInfiltration | AdjustInfiltration | None}, Infiltration Zones {MixingSourceZonesOnly | AllZones}
 Zone Air Mass Flow Balance Simulation, No,N/A,N/A,N/A
! <HVACSystemRootFindingAlgorithm>, Value {RegulaFalsi | Bisection | BisectionThenRegulaFalsi | RegulaFalsiThenBisection}
 HVACSystemRootFindingAlgorithm, RegulaFalsi
! <Environment:Site Atmospheric Variation>,Wind Speed Profile Exponent {},Wind Speed Profile Boundary Layer Thickness {m},Air Temperature Gradient Coefficient {K/m}
Environment:Site Atmospheric Variation,0.220,370.000,6.500000E-003
! <Surface Geometry>,Starting Corner,Vertex Input Direction,Coordinate System,Daylight Reference Point Coordinate System,Rectangular (Simple) Surface Coordinate System
 Surface Geometry,UpperLeftCorner,Counterclockwise,RelativeCoordinateSystem,RelativeCoordinateSystem,RelativeToZoneOrigin
! <Surface Heat Transfer Algorithm>, Value {CTF - ConductionTransferFunction | EMPD - MoisturePenetrationDepthConductionTransferFunction | CondFD - ConductionFiniteDifference | HAMT - CombinedHeatAndMoistureFiniteElement} - Description,Inside Surface Max Temperature Limit{C}, Surface Convection Coefficient Lower Limit {W/m2-K}, Surface Convection Coefficient Upper Limit {W/m2-K}
Surface Heat Transfer Algorithm, CTF - ConductionTransferFunction,200,0.10,1000.0
! <Shading Summary>, Number of Fixed Detached Shades, Number of Building Detached Shades, Number of Attached Shades
 Shading Summary,0,0,0
! <Zone Summary>, Number of Zones, Number of Zone Surfaces, Number of SubSurfaces
 Zone Summary,20,137,17
! <Zone Information>,Zone Name,North Axis {deg},Origin X-Coordinate {m},Origin Y-Coordinate {m},Origin Z-Coordinate {m},Centroid X-Coordinate {m},Centroid Y-Coordinate {m},Centroid Z-Coordinate {m},Type,Zone Multiplier,Zone List Multiplier,Minimum X {m},Maximum X {m},Minimum Y {m},Maximum Y {m},Minimum Z {m},Maximum Z {m},Ceiling Height {m},Volume {m3},Zone Inside Convection Algorithm {Simple-Detailed-CeilingDiffuser-TrombeWall},Zone Outside Convection Algorithm {Simple-Detailed-Tarp-MoWitt-DOE-2-BLAST}, Floor Area {m2},Exterior Gross Wall Area {m2},Exterior Net Wall Area {m2},Exterior Window Area {m2}, Number of Surfaces, Number of SubSurfaces, Number of Shading SubSurfaces,  Part of Total Building Area
 Zone Information, ALL_ST=LAB - RESEARCH_FL=STORY 4_SCH=A,0.0,25.00,25.00,11.40,50.00,50.00,13.30,1,1,1,25.00,75.00,25.00,75.00,11.40,15.20,3.80,9500.00,TARP,TARP,2500.00,0.00,0.00,125.00,6,1,0,Yes
 Zone Information, ALL_ST=LIBRARY - CATALOGING_FL=STORY 4_SCH=C,0.0,0.00,0.00,11.40,50.00,10.85,13.30,1,1,1,0.00,100.00,0.00,25.00,11.40,15.20,3.80,7125.00,TARP,TARP,1875.00,380.00,285.00,188.75,6,2,0,Yes
 Zone Information, ALL_ST=LIBRARY - READING_FL=STORY 4_SCH=C,0.0,25.00,75.00,11.40,50.00,89.15,13.30,1,1,1,0.00,100.00,75.00,100.00,11.40,15.20,3.80,7125.00,TARP,TARP,1875.00,380.00,285.00,188.75,6,2,0,Yes
 Zone Information, ALL_ST=LIBRARY - STACKS_FL=STORY 4_SCH=C,0.0,0.00,0.00,11.40,10.85,50.00,13.30,1,1,1,0.00,25.00,0.00,100.00,11.40,15.20,3.80,7125.00,TARP,TARP,1875.00,380.00,285.00,188.75,6,2,0,Yes
 Zone Information, ALL_ST=LOBBY - ELEVATOR_FL=STORY 3_SCH=C,0.0,75.00,25.00,7.60,89.15,50.00,9.50,1,1,1,75.00,100.00,0.00,100.00,7.60,11.40,3.80,7125.00,TARP,TARP,1875.00,380.00,285.00,95.00,6,1,0,Yes
 Zone Information, ALL_ST=LOBBY - MOTION PICTURE_FL=STORY 3_SCH=C,0.0,25.00,75.00,7.60,50.00,89.15,9.50,1,1,1,0.00,100.00,75.00,100.00,7.60,11.40,3.80,7125.00,TARP,TARP,1875.00,380.00,285.00,95.00,6,1,0,Yes
 Zone Information, ALL_ST=LOBBY - OTHER_FL=STORY 3_SCH=C,0.0,0.00,0.00,7.60,10.85,50.00,9.50,1,1,1,0.00,25.00,0.00,100.00,7.60,11.40,3.80,7125.00,TARP,TARP,1875.00,380.00,285.00,95.00,6,1,0,Yes
 Zone Information, ALL_ST=LOBBY - PERFORMANCE ARTS_FL=STORY 1_SCH=C,0.0,0.00,0.00,0.00,10.85,50.00,1.90,1,1,1,0.00,25.00,0.00,100.00,0.00,3.80,3.80,7125.00,TARP,TARP,1875.00,0.00,0.00,0.00,6,0,0,Yes
 Zone Information, ALL_ST=LOUNGE/RECREATION_FL=STORY 1_SCH=B,0.0,25.00,75.00,0.00,50.00,89.15,1.90,1,1,1,0.00,100.00,75.00,100.00,0.00,3.80,3.80,7125.00,TARP,TARP,1875.00,0.00,0.00,0.00,6,0,0,Yes
 Zone Information, ALL_ST=MFG - 7.5 <= BAY H <= 15M_FL=STORY 1_SCH=A,0.0,75.00,25.00,0.00,89.15,50.00,1.90,1,1,1,75.00,100.00,0.00,100.00,0.00,3.80,3.80,7125.00,TARP,TARP,1875.00,0.00,0.00,0.00,6,0,0,Yes
 Zone Information, ALL_ST=MFG - BAY H < 7.5M_FL=STORY 2_SCH=A,0.0,25.00,75.00,3.80,50.00,89.15,5.70,1,1,1,0.00,100.00,75.00,100.00,3.80,7.60,3.80,7125.00,TARP,TARP,1875.00,380.00,285.00,95.00,6,1,0,Yes
 Zone Information, ALL_ST=MFG - BAY H > 15M_FL=STORY 3_SCH=A,0.0,25.00,25.00,7.60,50.00,50.00,9.50,1,1,1,25.00,75.00,25.00,75.00,7.60,11.40,3.80,9500.00,TARP,TARP,2500.00,0.00,0.00,0.00,6,0,0,Yes
 Zone Information, WILD_ST=MFG - CORR. < 2.4M-SCH-A_FL=STORY 2_SCH=C,0.0,0.00,0.00,3.80,50.00,10.85,5.70,1,1,1,0.00,100.00,0.00,25.00,3.80,7.60,3.80,7125.00,TARP,TARP,1875.00,380.00,285.00,95.00,6,1,0,Yes
 Zone Information, WILD_ST=MFG - CORR. < 2.4M-SCH-B_FL=STORY 1_SCH=C,0.0,25.00,25.00,0.00,50.00,50.00,1.90,1,1,1,25.00,75.00,25.00,75.00,0.00,3.80,3.80,9500.00,TARP,TARP,2500.00,0.00,0.00,0.00,6,0,0,Yes
 Zone Information, WILD_ST=MFG - CORR. < 2.4M-SCH-C_FL=STORY 4_SCH=C,0.0,75.00,25.00,11.40,89.15,50.00,13.30,1,1,1,75.00,100.00,0.00,100.00,11.40,15.20,3.80,7125.00,TARP,TARP,1875.00,380.00,285.00,188.75,6,2,0,Yes
 Zone Information, WILD_ST=MFG - CORR. < 2.4M-SCH-D_FL=STORY 2_SCH=C,0.0,25.00,25.00,3.80,50.00,50.00,5.70,1,1,1,25.00,75.00,25.00,75.00,3.80,7.60,3.80,9500.00,TARP,TARP,2500.00,0.00,0.00,0.00,6,0,0,Yes
 Zone Information, WILD_ST=MFG - CORR. < 2.4M-SCH-E_FL=STORY 1_SCH=C,0.0,0.00,0.00,0.00,50.00,10.85,1.90,1,1,1,0.00,100.00,0.00,25.00,0.00,3.80,3.80,7125.00,TARP,TARP,1875.00,0.00,0.00,0.00,6,0,0,Yes
 Zone Information, WILD_ST=MFG - CORR. < 2.4M-SCH-F_FL=STORY 2_SCH=C,0.0,0.00,0.00,3.80,10.85,50.00,5.70,1,1,1,0.00,25.00,0.00,100.00,3.80,7.60,3.80,7125.00,TARP,TARP,1875.00,380.00,285.00,95.00,6,1,0,Yes
 Zone Information, WILD_ST=MFG - CORR. < 2.4M-SCH-G_FL=STORY 3_SCH=C,0.0,0.00,0.00,7.60,50.00,10.85,9.50,1,1,1,0.00,100.00,0.00,25.00,7.60,11.40,3.80,7125.00,TARP,TARP,1875.00,380.00,285.00,95.00,6,1,0,Yes
 Zone Information, WILD_ST=MFG - CORR. < 2.4M-SCH-H_FL=STORY 2_SCH=C,0.0,75.00,25.00,3.80,89.15,50.00,5.70,1,1,1,75.00,100.00,0.00,100.00,3.80,7.60,3.80,7125.00,TARP,TARP,1875.00,380.00,285.00,95.00,6,1,0,Yes
! <Zone Internal Gains Nominal>,Zone Name, Floor Area {m2},# Occupants,Area per Occupant {m2/person},Occupant per Area {person/m2},Interior Lighting {W/m2},Electric Load {W/m2},Gas Load {W/m2},Other Load {W/m2},Hot Water Eq {W/m2},Steam Equipment {W/m2},Sum Loads per Area {W/m2},Outdoor Controlled Baseboard Heat
 Zone Internal Gains Nominal, ALL_ST=LAB - RESEARCH_FL=STORY 4_SCH=A,2500.00,125.1,19.979,5.005E-002,23.600,10.000,0.000,0.000,0.000,0.000,33.600,No
 Zone Internal Gains Nominal, ALL_ST=LIBRARY - CATALOGING_FL=STORY 4_SCH=C,1875.00,93.8,19.979,5.005E-002,7.800,2.500,0.000,0.000,0.000,0.000,10.300,No
 Zone Internal Gains Nominal, ALL_ST=LIBRARY - READING_FL=STORY 4_SCH=C,1875.00,93.8,19.979,5.005E-002,10.000,1.000,0.000,0.000,0.000,0.000,11.000,No
 Zone Internal Gains Nominal, ALL_ST=LIBRARY - STACKS_FL=STORY 4_SCH=C,1875.00,93.8,19.979,5.005E-002,22.900,0.000,0.000,0.000,0.000,0.000,22.900,No
 Zone Internal Gains Nominal, ALL_ST=LOBBY - ELEVATOR_FL=STORY 3_SCH=C,1875.00,187.5,10.000,10.000E-002,6.900,1.000,0.000,0.000,0.000,0.000,7.900,No
 Zone Internal Gains Nominal, ALL_ST=LOBBY - MOTION PICTURE_FL=STORY 3_SCH=C,1875.00,187.5,10.000,10.000E-002,5.600,1.000,0.000,0.000,0.000,0.000,6.600,No
 Zone Internal Gains Nominal, ALL_ST=LOBBY - OTHER_FL=STORY 3_SCH=C,1875.00,187.5,10.000,10.000E-002,9.700,1.000,0.000,0.000,0.000,0.000,10.700,No
 Zone Internal Gains Nominal, ALL_ST=LOBBY - PERFORMANCE ARTS_FL=STORY 1_SCH=C,1875.00,187.5,10.000,10.000E-002,21.500,1.000,0.000,0.000,0.000,0.000,22.500,No
 Zone Internal Gains Nominal, ALL_ST=LOUNGE/RECREATION_FL=STORY 1_SCH=B,1875.00,187.5,10.000,10.000E-002,8.460,1.000,0.000,0.000,0.000,0.000,9.460,No
 Zone Internal Gains Nominal, ALL_ST=MFG - 7.5 <= BAY H <= 15M_FL=STORY 1_SCH=A,1875.00,62.6,29.969,3.337E-002,13.200,10.000,0.000,0.000,0.000,0.000,23.200,No
 Zone Internal Gains Nominal, ALL_ST=MFG - BAY H < 7.5M_FL=STORY 2_SCH=A,1875.00,62.6,29.969,3.337E-002,12.800,10.000,0.000,0.000,0.000,0.000,22.800,No
 Zone Internal Gains Nominal, ALL_ST=MFG - BAY H > 15M_FL=STORY 3_SCH=A,2500.00,83.4,29.969,3.337E-002,11.300,10.000,0.000,0.000,0.000,0.000,21.300,No
 Zone Internal Gains Nominal, WILD_ST=MFG - CORR. < 2.4M-SCH-A_FL=STORY 2_SCH=C,1875.00,18.8,99.896,1.001E-002,5.500,0.000,0.000,0.000,0.000,0.000,5.500,No
 Zone Internal Gains Nominal, WILD_ST=MFG - CORR. < 2.4M-SCH-B_FL=STORY 1_SCH=C,2500.00,25.0,99.896,1.001E-002,5.500,0.000,0.000,0.000,0.000,0.000,5.500,No
 Zone Internal Gains Nominal, WILD_ST=MFG - CORR. < 2.4M-SCH-C_FL=STORY 4_SCH=C,1875.00,18.8,99.896,1.001E-002,5.500,0.000,0.000,0.000,0.000,0.000,5.500,No
 Zone Internal Gains Nominal, WILD_ST=MFG - CORR. < 2.4M-SCH-D_FL=STORY 2_SCH=C,2500.00,25.0,99.896,1.001E-002,5.500,0.000,0.000,0.000,0.000,0.000,5.500,No
 Zone Internal Gains Nominal, WILD_ST=MFG - CORR. < 2.4M-SCH-E_FL=STORY 1_SCH=C,1875.00,18.8,99.896,1.001E-002,5.500,0.000,0.000,0.000,0.000,0.000,5.500,No
 Zone Internal Gains Nominal, WILD_ST=MFG - CORR. < 2.4M-SCH-F_FL=STORY 2_SCH=C,1875.00,18.8,99.896,1.001E-002,5.500,0.000,0.000,0.000,0.000,0.000,5.500,No
 Zone Internal Gains Nominal, WILD_ST=MFG - CORR. < 2.4M-SCH-G_FL=STORY 3_SCH=C,1875.00,18.8,99.896,1.001E-002,5.500,0.000,0.000,0.000,0.000,0.000,5.500,No
 Zone Internal Gains Nominal, WILD_ST=MFG - CORR. < 2.4M-SCH-H_FL=STORY 2_SCH=C,1875.00,18.8,99.896,1.001E-002,5.500,0.000,0.000,0.000,0.000,0.000,5.500,No
! <People Internal Gains Nominal>,Name,Schedule Name,Zone Name,Zone Floor Area {m2},# Zone Occupants,Number of People {},People/Floor Area {person/m2},Floor Area per person {m2/person},Fraction Radiant,Fraction Convected,Sensible Fraction Calculation,Activity level,ASHRAE 55 Warnings,Carbon Dioxide Generation Rate,Nominal Minimum Number of People,Nominal Maximum Number of People
 People Internal Gains Nominal, ALL_ST=LAB - RESEARCH_FL=STORY 4_SCH=A SPACE FUNCTION LAB - RESEARCH PEOPLE,NECB-A-OCCUPANCY,ALL_ST=LAB - RESEARCH_FL=STORY 4_SCH=A,2500.00,125.1,125.1,5.005E-002,19.979,0.300,0.700,AutoCalculate,NECB-ACTIVITY,No,3.8200E-008,0,113
 People Internal Gains Nominal, ALL_ST=LIBRARY - CATALOGING_FL=STORY 4_SCH=C SPACE FUNCTION LIBRARY - CATALOGING PEOPLE,NECB-C-OCCUPANCY,ALL_ST=LIBRARY - CATALOGING_FL=STORY 4_SCH=C,1875.00,93.8,93.8,5.005E-002,19.979,0.300,0.700,AutoCalculate,NECB-ACTIVITY,No,3.8200E-008,0,84
 People Internal Gains Nominal, ALL_ST=LIBRARY - READING_FL=STORY 4_SCH=C SPACE FUNCTION LIBRARY - READING PEOPLE,NECB-C-OCCUPANCY,ALL_ST=LIBRARY - READING_FL=STORY 4_SCH=C,1875.00,93.8,93.8,5.005E-002,19.979,0.300,0.700,AutoCalculate,NECB-ACTIVITY,No,3.8200E-008,0,84
 People Internal Gains Nominal, ALL_ST=LIBRARY - STACKS_FL=STORY 4_SCH=C SPACE FUNCTION LIBRARY - STACKS PEOPLE,NECB-C-OCCUPANCY,ALL_ST=LIBRARY - STACKS_FL=STORY 4_SCH=C,1875.00,93.8,93.8,5.005E-002,19.979,0.300,0.700,AutoCalculate,NECB-ACTIVITY,No,3.8200E-008,0,84
 People Internal Gains Nominal, ALL_ST=LOBBY - ELEVATOR_FL=STORY 3_SCH=C SPACE FUNCTION LOBBY - ELEVATOR PEOPLE,NECB-C-OCCUPANCY,ALL_ST=LOBBY - ELEVATOR_FL=STORY 3_SCH=C,1875.00,187.5,187.5,10.000E-002,10.000,0.300,0.700,AutoCalculate,NECB-ACTIVITY,No,3.8200E-008,0,169
 People Internal Gains Nominal, ALL_ST=LOBBY - MOTION PICTURE_FL=STORY 3_SCH=C SPACE FUNCTION LOBBY - MOTION PICTURE PEOPLE,NECB-C-OCCUPANCY,ALL_ST=LOBBY - MOTION PICTURE_FL=STORY 3_SCH=C,1875.00,187.5,187.5,10.000E-002,10.000,0.300,0.700,AutoCalculate,NECB-ACTIVITY,No,3.8200E-008,0,169
 People Internal Gains Nominal, ALL_ST=LOBBY - OTHER_FL=STORY 3_SCH=C SPACE FUNCTION LOBBY - OTHER PEOPLE,NECB-C-OCCUPANCY,ALL_ST=LOBBY - OTHER_FL=STORY 3_SCH=C,1875.00,187.5,187.5,10.000E-002,10.000,0.300,0.700,AutoCalculate,NECB-ACTIVITY,No,3.8200E-008,0,169
 People Internal Gains Nominal, ALL_ST=LOBBY - PERFORMANCE ARTS_FL=STORY 1_SCH=C SPACE FUNCTION LOBBY - PERFORMANCE ARTS PEOPLE,NECB-C-OCCUPANCY,ALL_ST=LOBBY - PERFORMANCE ARTS_FL=STORY 1_SCH=C,1875.00,187.5,187.5,10.000E-002,10.000,0.300,0.700,AutoCalculate,NECB-ACTIVITY,No,3.8200E-008,0,169
 People Internal Gains Nominal, ALL_ST=LOUNGE/RECREATION_FL=STORY 1_SCH=B SPACE FUNCTION LOUNGE/RECREATION PEOPLE,NECB-B-OCCUPANCY,ALL_ST=LOUNGE/RECREATION_FL=STORY 1_SCH=B,1875.00,187.5,187.5,10.000E-002,10.000,0.300,0.700,AutoCalculate,NECB-ACTIVITY,No,3.8200E-008,0,169
 People Internal Gains Nominal, ALL_ST=MFG - 7.5 <= BAY H <= 15M_FL=STORY 1_SCH=A SPACE FUNCTION MFG - 7.5 <= BAY H <= 15M PEOPLE,NECB-A-OCCUPANCY,ALL_ST=MFG - 7.5 <= BAY H <= 15M_FL=STORY 1_SCH=A,1875.00,62.6,62.6,3.337E-002,29.969,0.300,0.700,AutoCalculate,NECB-ACTIVITY,No,3.8200E-008,0,56
 People Internal Gains Nominal, ALL_ST=MFG - BAY H < 7.5M_FL=STORY 2_SCH=A SPACE FUNCTION MFG - BAY H < 7.5M PEOPLE,NECB-A-OCCUPANCY,ALL_ST=MFG - BAY H < 7.5M_FL=STORY 2_SCH=A,1875.00,62.6,62.6,3.337E-002,29.969,0.300,0.700,AutoCalculate,NECB-ACTIVITY,No,3.8200E-008,0,56
 People Internal Gains Nominal, ALL_ST=MFG - BAY H > 15M_FL=STORY 3_SCH=A SPACE FUNCTION MFG - BAY H > 15M PEOPLE,NECB-A-OCCUPANCY,ALL_ST=MFG - BAY H > 15M_FL=STORY 3_SCH=A,2500.00,83.4,83.4,3.337E-002,29.969,0.300,0.700,AutoCalculate,NECB-ACTIVITY,No,3.8200E-008,0,75
 People Internal Gains Nominal, WILD_ST=MFG - CORR. < 2.4M-SCH-A_FL=STORY 2_SCH=C SPACE FUNCTION MFG - CORR. < 2.4M-SCH-C PEOPLE,NECB-C-OCCUPANCY,WILD_ST=MFG - CORR. < 2.4M-SCH-A_FL=STORY 2_SCH=C,1875.00,18.8,18.8,1.001E-002,99.896,0.300,0.700,AutoCalculate,NECB-ACTIVITY,No,3.8200E-008,0,17
 People Internal Gains Nominal, WILD_ST=MFG - CORR. < 2.4M-SCH-B_FL=STORY 1_SCH=C SPACE FUNCTION MFG - CORR. < 2.4M-SCH-C PEOPLE,NECB-C-OCCUPANCY,WILD_ST=MFG - CORR. < 2.4M-SCH-B_FL=STORY 1_SCH=C,2500.00,25.0,25.0,1.001E-002,99.896,0.300,0.700,AutoCalculate,NECB-ACTIVITY,No,3.8200E-008,0,23
 People Internal Gains Nominal, WILD_ST=MFG - CORR. < 2.4M-SCH-C_FL=STORY 4_SCH=C SPACE FUNCTION MFG - CORR. < 2.4M-SCH-C PEOPLE,NECB-C-OCCUPANCY,WILD_ST=MFG - CORR. < 2.4M-SCH-C_FL=STORY 4_SCH=C,1875.00,18.8,18.8,1.001E-002,99.896,0.300,0.700,AutoCalculate,NECB-ACTIVITY,No,3.8200E-008,0,17
 People Internal Gains Nominal, WILD_ST=MFG - CORR. < 2.4M-SCH-D_FL=STORY 2_SCH=C SPACE FUNCTION MFG - CORR. < 2.4M-SCH-C PEOPLE,NECB-C-OCCUPANCY,WILD_ST=MFG - CORR. < 2.4M-SCH-D_FL=STORY 2_SCH=C,2500.00,25.0,25.0,1.001E-002,99.896,0.300,0.700,AutoCalculate,NECB-ACTIVITY,No,3.8200E-008,0,23
 People Internal Gains Nominal, WILD_ST=MFG - CORR. < 2.4M-SCH-E_FL=STORY 1_SCH=C SPACE FUNCTION MFG - CORR. < 2.4M-SCH-C PEOPLE,NECB-C-OCCUPANCY,WILD_ST=MFG - CORR. < 2.4M-SCH-E_FL=STORY 1_SCH=C,1875.00,18.8,18.8,1.001E-002,99.896,0.300,0.700,AutoCalculate,NECB-ACTIVITY,No,3.8200E-008,0,17
 People Internal Gains Nominal, WILD_ST=MFG - CORR. < 2.4M-SCH-F_FL=STORY 2_SCH=C SPACE FUNCTION MFG - CORR. < 2.4M-SCH-C PEOPLE,NECB-C-OCCUPANCY,WILD_ST=MFG - CORR. < 2.4M-SCH-F_FL=STORY 2_SCH=C,1875.00,18.8,18.8,1.001E-002,99.896,0.300,0.700,AutoCalculate,NECB-ACTIVITY,No,3.8200E-008,0,17
 People Internal Gains Nominal, WILD_ST=MFG - CORR. < 2.4M-SCH-G_FL=STORY 3_SCH=C SPACE FUNCTION MFG - CORR. < 2.4M-SCH-C PEOPLE,NECB-C-OCCUPANCY,WILD_ST=MFG - CORR. < 2.4M-SCH-G_FL=STORY 3_SCH=C,1875.00,18.8,18.8,1.001E-002,99.896,0.300,0.700,AutoCalculate,NECB-ACTIVITY,No,3.8200E-008,0,17
 People Internal Gains Nominal, WILD_ST=MFG - CORR. < 2.4M-SCH-H_FL=STORY 2_SCH=C SPACE FUNCTION MFG - CORR. < 2.4M-SCH-C PEOPLE,NECB-C-OCCUPANCY,WILD_ST=MFG - CORR. < 2.4M-SCH-H_FL=STORY 2_SCH=C,1875.00,18.8,18.8,1.001E-002,99.896,0.300,0.700,AutoCalculate,NECB-ACTIVITY,No,3.8200E-008,0,17
! <Lights Internal Gains Nominal>,Name,Schedule Name,Zone Name,Zone Floor Area {m2},# Zone Occupants,Lighting Level {W},Lights/Floor Area {W/m2},Lights per person {W/person},Fraction Return Air,Fraction Radiant,Fraction Short Wave,Fraction Convected,Fraction Replaceable,End-Use Category,Nominal Minimum Lighting Level {W},Nominal Maximum Lighting Level {W}
 Lights Internal Gains Nominal, ALL_ST=LAB - RESEARCH_FL=STORY 4_SCH=A SPACE FUNCTION LAB - RESEARCH LIGHTS,NECB-A-LIGHTING,ALL_ST=LAB - RESEARCH_FL=STORY 4_SCH=A,2500.00,125.1,58999.509,23.600,471.504,0.000,0.500,0.200,0.300,1.000,General,2949.975,53099.558
 Lights Internal Gains Nominal, ALL_ST=LIBRARY - CATALOGING_FL=STORY 4_SCH=C SPACE FUNCTION LIBRARY - CATALOGING LIGHTS,NECB-C-LIGHTING,ALL_ST=LIBRARY - CATALOGING_FL=STORY 4_SCH=C,1875.00,93.8,14624.878,7.800,155.836,0.000,0.500,0.200,0.300,1.000,General,731.244,13162.390
 Lights Internal Gains Nominal, ALL_ST=LIBRARY - READING_FL=STORY 4_SCH=C SPACE FUNCTION LIBRARY - READING LIGHTS,NECB-C-LIGHTING,ALL_ST=LIBRARY - READING_FL=STORY 4_SCH=C,1875.00,93.8,18749.844,10.000,199.790,0.000,0.500,0.200,0.300,1.000,General,937.492,16874.860
 Lights Internal Gains Nominal, ALL_ST=LIBRARY - STACKS_FL=STORY 4_SCH=C SPACE FUNCTION LIBRARY - STACKS LIGHTS,NECB-C-LIGHTING,ALL_ST=LIBRARY - STACKS_FL=STORY 4_SCH=C,1875.00,93.8,42937.143,22.900,457.519,0.000,0.500,0.200,0.300,1.000,General,2146.857,38643.428
 Lights Internal Gains Nominal, ALL_ST=LOBBY - ELEVATOR_FL=STORY 3_SCH=C SPACE FUNCTION LOBBY - ELEVATOR LIGHTS,NECB-C-LIGHTING,ALL_ST=LOBBY - ELEVATOR_FL=STORY 3_SCH=C,1875.00,187.5,12937.392,6.900,69.002,0.000,0.500,0.200,0.300,1.000,General,646.870,11643.653
 Lights Internal Gains Nominal, ALL_ST=LOBBY - MOTION PICTURE_FL=STORY 3_SCH=C SPACE FUNCTION LOBBY - MOTION PICTURE LIGHTS,NECB-C-LIGHTING,ALL_ST=LOBBY - MOTION PICTURE_FL=STORY 3_SCH=C,1875.00,187.5,10499.913,5.600,56.001,0.000,0.500,0.200,0.300,1.000,General,524.996,9449.921
 Lights Internal Gains Nominal, ALL_ST=LOBBY - OTHER_FL=STORY 3_SCH=C SPACE FUNCTION LOBBY - OTHER LIGHTS,NECB-C-LIGHTING,ALL_ST=LOBBY - OTHER_FL=STORY 3_SCH=C,1875.00,187.5,18187.349,9.700,97.002,0.000,0.500,0.200,0.300,1.000,General,909.367,16368.614
 Lights Internal Gains Nominal, ALL_ST=LOBBY - PERFORMANCE ARTS_FL=STORY 1_SCH=C SPACE FUNCTION LOBBY - PERFORMANCE ARTS LIGHTS,NECB-C-LIGHTING,ALL_ST=LOBBY - PERFORMANCE ARTS_FL=STORY 1_SCH=C,1875.00,187.5,40312.165,21.500,215.005,0.000,0.500,0.200,0.300,1.000,General,2015.608,36280.948
 Lights Internal Gains Nominal, ALL_ST=LOUNGE/RECREATION_FL=STORY 1_SCH=B SPACE FUNCTION LOUNGE/RECREATION LIGHTS,NECB-B-LIGHTING,ALL_ST=LOUNGE/RECREATION_FL=STORY 1_SCH=B,1875.00,187.5,15862.368,8.460,84.602,0.000,0.500,0.200,0.300,1.000,General,1586.237,14276.131
 Lights Internal Gains Nominal, ALL_ST=MFG - 7.5 <= BAY H <= 15M_FL=STORY 1_SCH=A SPACE FUNCTION MFG - 7.5 <= BAY H <= 15M LIGHTS,NECB-A-LIGHTING,ALL_ST=MFG - 7.5 <= BAY H <= 15M_FL=STORY 1_SCH=A,1875.00,62.6,24749.794,13.200,395.584,0.000,0.500,0.200,0.300,1.000,General,1237.490,22274.815
 Lights Internal Gains Nominal, ALL_ST=MFG - BAY H < 7.5M_FL=STORY 2_SCH=A SPACE FUNCTION MFG - BAY H < 7.5M LIGHTS,NECB-A-LIGHTING,ALL_ST=MFG - BAY H < 7.5M_FL=STORY 2_SCH=A,1875.00,62.6,23999.800,12.800,383.596,0.000,0.500,0.200,0.300,1.000,General,1199.990,21599.820
 Lights Internal Gains Nominal, ALL_ST=MFG - BAY H > 15M_FL=STORY 3_SCH=A SPACE FUNCTION MFG - BAY H > 15M LIGHTS,NECB-A-LIGHTING,ALL_ST=MFG - BAY H > 15M_FL=STORY 3_SCH=A,2500.00,83.4,28249.765,11.300,338.644,0.000,0.500,0.200,0.300,1.000,General,1412.488,25424.788
 Lights Internal Gains Nominal, WILD_ST=MFG - CORR. < 2.4M-SCH-A_FL=STORY 2_SCH=C SPACE FUNCTION MFG - CORR. < 2.4M-SCH-C LIGHTS,NECB-C-LIGHTING,WILD_ST=MFG - CORR. < 2.4M-SCH-A_FL=STORY 2_SCH=C,1875.00,18.8,10312.414,5.500,549.422,0.000,0.500,0.200,0.300,1.000,General,515.621,9281.173
 Lights Internal Gains Nominal, WILD_ST=MFG - CORR. < 2.4M-SCH-B_FL=STORY 1_SCH=C SPACE FUNCTION MFG - CORR. < 2.4M-SCH-C LIGHTS,NECB-C-LIGHTING,WILD_ST=MFG - CORR. < 2.4M-SCH-B_FL=STORY 1_SCH=C,2500.00,25.0,13749.886,5.500,549.422,0.000,0.500,0.200,0.300,1.000,General,687.494,12374.897
 Lights Internal Gains Nominal, WILD_ST=MFG - CORR. < 2.4M-SCH-C_FL=STORY 4_SCH=C SPACE FUNCTION MFG - CORR. < 2.4M-SCH-C LIGHTS,NECB-C-LIGHTING,WILD_ST=MFG - CORR. < 2.4M-SCH-C_FL=STORY 4_SCH=C,1875.00,18.8,10312.414,5.500,549.422,0.000,0.500,0.200,0.300,1.000,General,515.621,9281.173
 Lights Internal Gains Nominal, WILD_ST=MFG - CORR. < 2.4M-SCH-D_FL=STORY 2_SCH=C SPACE FUNCTION MFG - CORR. < 2.4M-SCH-C LIGHTS,NECB-C-LIGHTING,WILD_ST=MFG - CORR. < 2.4M-SCH-D_FL=STORY 2_SCH=C,2500.00,25.0,13749.886,5.500,549.422,0.000,0.500,0.200,0.300,1.000,General,687.494,12374.897
 Lights Internal Gains Nominal, WILD_ST=MFG - CORR. < 2.4M-SCH-E_FL=STORY 1_SCH=C SPACE FUNCTION MFG - CORR. < 2.4M-SCH-C LIGHTS,NECB-C-LIGHTING,WILD_ST=MFG - CORR. < 2.4M-SCH-E_FL=STORY 1_SCH=C,1875.00,18.8,10312.414,5.500,549.422,0.000,0.500,0.200,0.300,1.000,General,515.621,9281.173
 Lights Internal Gains Nominal, WILD_ST=MFG - CORR. < 2.4M-SCH-F_FL=STORY 2_SCH=C SPACE FUNCTION MFG - CORR. < 2.4M-SCH-C LIGHTS,NECB-C-LIGHTING,WILD_ST=MFG - CORR. < 2.4M-SCH-F_FL=STORY 2_SCH=C,1875.00,18.8,10312.414,5.500,549.422,0.000,0.500,0.200,0.300,1.000,General,515.621,9281.173
 Lights Internal Gains Nominal, WILD_ST=MFG - CORR. < 2.4M-SCH-G_FL=STORY 3_SCH=C SPACE FUNCTION MFG - CORR. < 2.4M-SCH-C LIGHTS,NECB-C-LIGHTING,WILD_ST=MFG - CORR. < 2.4M-SCH-G_FL=STORY 3_SCH=C,1875.00,18.8,10312.414,5.500,549.422,0.000,0.500,0.200,0.300,1.000,General,515.621,9281.173
 Lights Internal Gains Nominal, WILD_ST=MFG - CORR. < 2.4M-SCH-H_FL=STORY 2_SCH=C SPACE FUNCTION MFG - CORR. < 2.4M-SCH-C LIGHTS,NECB-C-LIGHTING,WILD_ST=MFG - CORR. < 2.4M-SCH-H_FL=STORY 2_SCH=C,1875.00,18.8,10312.414,5.500,549.422,0.000,0.500,0.200,0.300,1.000,General,515.621,9281.173
! <ElectricEquipment Internal Gains Nominal>,Name,Schedule Name,Zone Name,Zone Floor Area {m2},# Zone Occupants,Equipment Level {W},Equipment/Floor Area {W/m2},Equipment per person {W/person},Fraction Latent,Fraction Radiant,Fraction Lost,Fraction Convected,End-Use SubCategory,Nominal Minimum Equipment Level {W},Nominal Maximum Equipment Level {W}
 ElectricEquipment Internal Gains Nominal, ALL_ST=LAB - RESEARCH_FL=STORY 4_SCH=A SPACE FUNCTION LAB - RESEARCH ELEC EQUIP,NECB-A-ELECTRIC-EQUIPMENT,ALL_ST=LAB - RESEARCH_FL=STORY 4_SCH=A,2500.00,125.1,24999.792,10.000,199.790,0.000,0.500,0.000,0.500,General,4999.958,22499.813
 ElectricEquipment Internal Gains Nominal, ALL_ST=LIBRARY - CATALOGING_FL=STORY 4_SCH=C SPACE FUNCTION LIBRARY - CATALOGING ELEC EQUIP,NECB-C-ELECTRIC-EQUIPMENT,ALL_ST=LIBRARY - CATALOGING_FL=STORY 4_SCH=C,1875.00,93.8,4687.461,2.500,49.947,0.000,0.500,0.000,0.500,General,234.373,4218.715
 ElectricEquipment Internal Gains Nominal, ALL_ST=LIBRARY - READING_FL=STORY 4_SCH=C SPACE FUNCTION LIBRARY - READING ELEC EQUIP,NECB-C-ELECTRIC-EQUIPMENT,ALL_ST=LIBRARY - READING_FL=STORY 4_SCH=C,1875.00,93.8,1874.984,1.000,19.979,0.000,0.500,0.000,0.500,General,93.749,1687.486
 ElectricEquipment Internal Gains Nominal, ALL_ST=LOBBY - ELEVATOR_FL=STORY 3_SCH=C SPACE FUNCTION LOBBY - ELEVATOR ELEC EQUIP,NECB-C-ELECTRIC-EQUIPMENT,ALL_ST=LOBBY - ELEVATOR_FL=STORY 3_SCH=C,1875.00,187.5,1874.984,1.000,10.000,0.000,0.500,0.000,0.500,General,93.749,1687.486
 ElectricEquipment Internal Gains Nominal, ALL_ST=LOBBY - MOTION PICTURE_FL=STORY 3_SCH=C SPACE FUNCTION LOBBY - MOTION PICTURE ELEC EQUIP,NECB-C-ELECTRIC-EQUIPMENT,ALL_ST=LOBBY - MOTION PICTURE_FL=STORY 3_SCH=C,1875.00,187.5,1874.984,1.000,10.000,0.000,0.500,0.000,0.500,General,93.749,1687.486
 ElectricEquipment Internal Gains Nominal, ALL_ST=LOBBY - OTHER_FL=STORY 3_SCH=C SPACE FUNCTION LOBBY - OTHER ELEC EQUIP,NECB-C-ELECTRIC-EQUIPMENT,ALL_ST=LOBBY - OTHER_FL=STORY 3_SCH=C,1875.00,187.5,1874.984,1.000,10.000,0.000,0.500,0.000,0.500,General,93.749,1687.486
 ElectricEquipment Internal Gains Nominal, ALL_ST=LOBBY - PERFORMANCE ARTS_FL=STORY 1_SCH=C SPACE FUNCTION LOBBY - PERFORMANCE ARTS ELEC EQUIP,NECB-C-ELECTRIC-EQUIPMENT,ALL_ST=LOBBY - PERFORMANCE ARTS_FL=STORY 1_SCH=C,1875.00,187.5,1874.984,1.000,10.000,0.000,0.500,0.000,0.500,General,93.749,1687.486
 ElectricEquipment Internal Gains Nominal, ALL_ST=LOUNGE/RECREATION_FL=STORY 1_SCH=B SPACE FUNCTION LOUNGE/RECREATION ELEC EQUIP,NECB-B-ELECTRIC-EQUIPMENT,ALL_ST=LOUNGE/RECREATION_FL=STORY 1_SCH=B,1875.00,187.5,1874.984,1.000,10.000,0.000,0.500,0.000,0.500,General,187.498,1687.486
 ElectricEquipment Internal Gains Nominal, ALL_ST=MFG - 7.5 <= BAY H <= 15M_FL=STORY 1_SCH=A SPACE FUNCTION MFG - 7.5 <= BAY H <= 15M ELEC EQUIP,NECB-A-ELECTRIC-EQUIPMENT,ALL_ST=MFG - 7.5 <= BAY H <= 15M_FL=STORY 1_SCH=A,1875.00,62.6,18749.844,10.000,299.685,0.000,0.500,0.000,0.500,General,3749.969,16874.860
 ElectricEquipment Internal Gains Nominal, ALL_ST=MFG - BAY H < 7.5M_FL=STORY 2_SCH=A SPACE FUNCTION MFG - BAY H < 7.5M ELEC EQUIP,NECB-A-ELECTRIC-EQUIPMENT,ALL_ST=MFG - BAY H < 7.5M_FL=STORY 2_SCH=A,1875.00,62.6,18749.844,10.000,299.685,0.000,0.500,0.000,0.500,General,3749.969,16874.860
 ElectricEquipment Internal Gains Nominal, ALL_ST=MFG - BAY H > 15M_FL=STORY 3_SCH=A SPACE FUNCTION MFG - BAY H > 15M ELEC EQUIP,NECB-A-ELECTRIC-EQUIPMENT,ALL_ST=MFG - BAY H > 15M_FL=STORY 3_SCH=A,2500.00,83.4,24999.792,10.000,299.685,0.000,0.500,0.000,0.500,General,4999.958,22499.813
! <Shadowing/Sun Position Calculations Annual Simulations>, Calculation Method, Value {days}, Allowable Number Figures in Shadow Overlap {}, Polygon Clipping Algorithm, Sky Diffuse Modeling Algorithm, External Shading Calculation Method, Output External Shading Calculation Results, Disable Self-Shading Within Shading Zone Groups, Disable Self-Shading From Shading Zone Groups to Other Zones
Shadowing/Sun Position Calculations Annual Simulations,AverageOverDaysInFrequency,20,15000,SutherlandHodgman,SimpleSkyDiffuseModeling,InternalCalculation,No,No,No
! <Water Heater Information>,Type,Name,Volume {m3},Maximum Capacity {W},Standard Rated Recovery Efficiency, Standard Rated Energy Factor
! <ZoneInfiltration Airflow Stats Nominal>,Name,Schedule Name,Zone Name, Zone Floor Area {m2}, # Zone Occupants,Design Volume Flow Rate {m3/s},Volume Flow Rate/Floor Area {m3/s/m2},Volume Flow Rate/Exterior Surface Area {m3/s/m2},ACH - Air Changes per Hour,Equation A - Constant Term Coefficient {},Equation B - Temperature Term Coefficient {1/C},Equation C - Velocity Term Coefficient {s/m}, Equation D - Velocity Squared Term Coefficient {s2/m2}
 ZoneInfiltration Airflow Stats Nominal, LAB - RESEARCH-SPACE FUNCTION INFILTRATION,ALWAYS ON DISCRETE,ALL_ST=LAB - RESEARCH_FL=STORY 4_SCH=A,2500.00,125.1,0.625,2.500E-004,2.500E-004,0.237,0.000,0.000,0.224,0.000
 ZoneInfiltration Airflow Stats Nominal, LIBRARY - CATALOGING-SPACE FUNCTION INFILTRATION,ALWAYS ON DISCRETE,ALL_ST=LIBRARY - CATALOGING_FL=STORY 4_SCH=C,1875.00,93.8,0.564,3.007E-004,2.500E-004,0.285,0.000,0.000,0.224,0.000
 ZoneInfiltration Airflow Stats Nominal, LIBRARY - READING-SPACE FUNCTION INFILTRATION,ALWAYS ON DISCRETE,ALL_ST=LIBRARY - READING_FL=STORY 4_SCH=C,1875.00,93.8,0.564,3.007E-004,2.500E-004,0.285,0.000,0.000,0.224,0.000
 ZoneInfiltration Airflow Stats Nominal, LIBRARY - STACKS-SPACE FUNCTION INFILTRATION,ALWAYS ON DISCRETE,ALL_ST=LIBRARY - STACKS_FL=STORY 4_SCH=C,1875.00,93.8,0.564,3.007E-004,2.500E-004,0.285,0.000,0.000,0.224,0.000
 ZoneInfiltration Airflow Stats Nominal, LOBBY - ELEVATOR-SPACE FUNCTION INFILTRATION,ALWAYS ON DISCRETE,ALL_ST=LOBBY - ELEVATOR_FL=STORY 3_SCH=C,1875.00,187.5,9.500E-002,5.067E-005,2.500E-004,4.800E-002,0.000,0.000,0.224,0.000
 ZoneInfiltration Airflow Stats Nominal, LOBBY - MOTION PICTURE-SPACE FUNCTION INFILTRATION,ALWAYS ON DISCRETE,ALL_ST=LOBBY - MOTION PICTURE_FL=STORY 3_SCH=C,1875.00,187.5,9.500E-002,5.067E-005,2.500E-004,4.800E-002,0.000,0.000,0.224,0.000
 ZoneInfiltration Airflow Stats Nominal, LOBBY - OTHER-SPACE FUNCTION INFILTRATION,ALWAYS ON DISCRETE,ALL_ST=LOBBY - OTHER_FL=STORY 3_SCH=C,1875.00,187.5,9.500E-002,5.067E-005,2.500E-004,4.800E-002,0.000,0.000,0.224,0.000
 ZoneInfiltration Airflow Stats Nominal, MFG - BAY H < 7.5M-SPACE FUNCTION INFILTRATION,ALWAYS ON DISCRETE,ALL_ST=MFG - BAY H < 7.5M_FL=STORY 2_SCH=A,1875.00,62.6,9.500E-002,5.067E-005,2.500E-004,4.800E-002,0.000,0.000,0.224,0.000
 ZoneInfiltration Airflow Stats Nominal, MFG - CORR. < 2.4M-SCH-A-SPACE FUNCTION INFILTRATION,ALWAYS ON DISCRETE,WILD_ST=MFG - CORR. < 2.4M-SCH-A_FL=STORY 2_SCH=C,1875.00,18.8,9.500E-002,5.067E-005,2.500E-004,4.800E-002,0.000,0.000,0.224,0.000
 ZoneInfiltration Airflow Stats Nominal, MFG - CORR. < 2.4M-SCH-C-SPACE FUNCTION INFILTRATION,ALWAYS ON DISCRETE,WILD_ST=MFG - CORR. < 2.4M-SCH-C_FL=STORY 4_SCH=C,1875.00,18.8,0.564,3.007E-004,2.500E-004,0.285,0.000,0.000,0.224,0.000
 ZoneInfiltration Airflow Stats Nominal, MFG - CORR. < 2.4M-SCH-F-SPACE FUNCTION INFILTRATION,ALWAYS ON DISCRETE,WILD_ST=MFG - CORR. < 2.4M-SCH-F_FL=STORY 2_SCH=C,1875.00,18.8,9.500E-002,5.067E-005,2.500E-004,4.800E-002,0.000,0.000,0.224,0.000
 ZoneInfiltration Airflow Stats Nominal, MFG - CORR. < 2.4M-SCH-G-SPACE FUNCTION INFILTRATION,ALWAYS ON DISCRETE,WILD_ST=MFG - CORR. < 2.4M-SCH-G_FL=STORY 3_SCH=C,1875.00,18.8,9.500E-002,5.067E-005,2.500E-004,4.800E-002,0.000,0.000,0.224,0.000
 ZoneInfiltration Airflow Stats Nominal, MFG - CORR. < 2.4M-SCH-H-SPACE FUNCTION INFILTRATION,ALWAYS ON DISCRETE,WILD_ST=MFG - CORR. < 2.4M-SCH-H_FL=STORY 2_SCH=C,1875.00,18.8,9.500E-002,5.067E-005,2.500E-004,4.800E-002,0.000,0.000,0.224,0.000
! <AirFlow Model>, Simple
 AirFlow Model, Simple
! <RoomAir Model>, Zone Name, Mixing/Mundt/UCSDDV/UCSDCV/UCSDUFI/UCSDUFE/User Defined
RoomAir Model,ALL_ST=LAB - RESEARCH_FL=STORY 4_SCH=A,Mixing/Well-Stirred
RoomAir Model,ALL_ST=LIBRARY - CATALOGING_FL=STORY 4_SCH=C,Mixing/Well-Stirred
RoomAir Model,ALL_ST=LIBRARY - READING_FL=STORY 4_SCH=C,Mixing/Well-Stirred
RoomAir Model,ALL_ST=LIBRARY - STACKS_FL=STORY 4_SCH=C,Mixing/Well-Stirred
RoomAir Model,ALL_ST=LOBBY - ELEVATOR_FL=STORY 3_SCH=C,Mixing/Well-Stirred
RoomAir Model,ALL_ST=LOBBY - MOTION PICTURE_FL=STORY 3_SCH=C,Mixing/Well-Stirred
RoomAir Model,ALL_ST=LOBBY - OTHER_FL=STORY 3_SCH=C,Mixing/Well-Stirred
RoomAir Model,ALL_ST=LOBBY - PERFORMANCE ARTS_FL=STORY 1_SCH=C,Mixing/Well-Stirred
RoomAir Model,ALL_ST=LOUNGE/RECREATION_FL=STORY 1_SCH=B,Mixing/Well-Stirred
RoomAir Model,ALL_ST=MFG - 7.5 <= BAY H <= 15M_FL=STORY 1_SCH=A,Mixing/Well-Stirred
RoomAir Model,ALL_ST=MFG - BAY H < 7.5M_FL=STORY 2_SCH=A,Mixing/Well-Stirred
RoomAir Model,ALL_ST=MFG - BAY H > 15M_FL=STORY 3_SCH=A,Mixing/Well-Stirred
RoomAir Model,WILD_ST=MFG - CORR. < 2.4M-SCH-A_FL=STORY 2_SCH=C,Mixing/Well-Stirred
RoomAir Model,WILD_ST=MFG - CORR. < 2.4M-SCH-B_FL=STORY 1_SCH=C,Mixing/Well-Stirred
RoomAir Model,WILD_ST=MFG - CORR. < 2.4M-SCH-C_FL=STORY 4_SCH=C,Mixing/Well-Stirred
RoomAir Model,WILD_ST=MFG - CORR. < 2.4M-SCH-D_FL=STORY 2_SCH=C,Mixing/Well-Stirred
RoomAir Model,WILD_ST=MFG - CORR. < 2.4M-SCH-E_FL=STORY 1_SCH=C,Mixing/Well-Stirred
RoomAir Model,WILD_ST=MFG - CORR. < 2.4M-SCH-F_FL=STORY 2_SCH=C,Mixing/Well-Stirred
RoomAir Model,WILD_ST=MFG - CORR. < 2.4M-SCH-G_FL=STORY 3_SCH=C,Mixing/Well-Stirred
RoomAir Model,WILD_ST=MFG - CORR. < 2.4M-SCH-H_FL=STORY 2_SCH=C,Mixing/Well-Stirred
! <AirflowNetwork Model:Control>, No Multizone or Distribution/Multizone with Distribution/Multizone without Distribution/Multizone with Distribution only during Fan Operation
AirflowNetwork Model:Control,NoMultizoneOrDistribution
! <Zone Volume Capacitance Multiplier>, Sensible Heat Capacity Multiplier, Moisture Capacity Multiplier, Carbon Dioxide Capacity Multiplier, Generic Contaminant Capacity Multiplier
Zone Volume Capacitance Multiplier,   1.000 ,   1.000,   1.000,   1.000
! <Load Timesteps in Zone Design Calculation Averaging Window>, Value
 Load Timesteps in Zone Design Calculation Averaging Window,    6
! <Heating Sizing Factor Information>, Sizing Factor ID, Value
 Heating Sizing Factor Information, Global,   1.3000    
 Heating Sizing Factor Information, Zone ALL_ST=LAB - RESEARCH_FL=STORY 4_SCH=A,   1.3000    
 Heating Sizing Factor Information, Zone ALL_ST=LIBRARY - CATALOGING_FL=STORY 4_SCH=C,   1.3000    
 Heating Sizing Factor Information, Zone ALL_ST=LIBRARY - READING_FL=STORY 4_SCH=C,   1.3000    
 Heating Sizing Factor Information, Zone ALL_ST=LIBRARY - STACKS_FL=STORY 4_SCH=C,   1.3000    
 Heating Sizing Factor Information, Zone ALL_ST=LOBBY - ELEVATOR_FL=STORY 3_SCH=C,   1.3000    
 Heating Sizing Factor Information, Zone ALL_ST=LOBBY - MOTION PICTURE_FL=STORY 3_SCH=C,   1.3000    
 Heating Sizing Factor Information, Zone ALL_ST=LOBBY - OTHER_FL=STORY 3_SCH=C,   1.3000    
 Heating Sizing Factor Information, Zone ALL_ST=LOBBY - PERFORMANCE ARTS_FL=STORY 1_SCH=C,   1.3000    
 Heating Sizing Factor Information, Zone ALL_ST=LOUNGE/RECREATION_FL=STORY 1_SCH=B,   1.3000    
 Heating Sizing Factor Information, Zone ALL_ST=MFG - 7.5 <= BAY H <= 15M_FL=STORY 1_SCH=A,   1.3000    
 Heating Sizing Factor Information, Zone ALL_ST=MFG - BAY H < 7.5M_FL=STORY 2_SCH=A,   1.3000    
 Heating Sizing Factor Information, Zone ALL_ST=MFG - BAY H > 15M_FL=STORY 3_SCH=A,   1.3000    
 Heating Sizing Factor Information, Zone WILD_ST=MFG - CORR. < 2.4M-SCH-A_FL=STORY 2_SCH=C,   1.3000    
 Heating Sizing Factor Information, Zone WILD_ST=MFG - CORR. < 2.4M-SCH-B_FL=STORY 1_SCH=C,   1.3000    
 Heating Sizing Factor Information, Zone WILD_ST=MFG - CORR. < 2.4M-SCH-C_FL=STORY 4_SCH=C,   1.3000    
 Heating Sizing Factor Information, Zone WILD_ST=MFG - CORR. < 2.4M-SCH-D_FL=STORY 2_SCH=C,   1.3000    
 Heating Sizing Factor Information, Zone WILD_ST=MFG - CORR. < 2.4M-SCH-E_FL=STORY 1_SCH=C,   1.3000    
 Heating Sizing Factor Information, Zone WILD_ST=MFG - CORR. < 2.4M-SCH-F_FL=STORY 2_SCH=C,   1.3000    
 Heating Sizing Factor Information, Zone WILD_ST=MFG - CORR. < 2.4M-SCH-G_FL=STORY 3_SCH=C,   1.3000    
 Heating Sizing Factor Information, Zone WILD_ST=MFG - CORR. < 2.4M-SCH-H_FL=STORY 2_SCH=C,   1.3000    
! <Cooling Sizing Factor Information>, Sizing Factor ID, Value
 Cooling Sizing Factor Information, Global,   1.1000    
 Cooling Sizing Factor Information, Zone ALL_ST=LAB - RESEARCH_FL=STORY 4_SCH=A,   1.1000    
 Cooling Sizing Factor Information, Zone ALL_ST=LIBRARY - CATALOGING_FL=STORY 4_SCH=C,   1.1000    
 Cooling Sizing Factor Information, Zone ALL_ST=LIBRARY - READING_FL=STORY 4_SCH=C,   1.1000    
 Cooling Sizing Factor Information, Zone ALL_ST=LIBRARY - STACKS_FL=STORY 4_SCH=C,   1.1000    
 Cooling Sizing Factor Information, Zone ALL_ST=LOBBY - ELEVATOR_FL=STORY 3_SCH=C,   1.1000    
 Cooling Sizing Factor Information, Zone ALL_ST=LOBBY - MOTION PICTURE_FL=STORY 3_SCH=C,   1.1000    
 Cooling Sizing Factor Information, Zone ALL_ST=LOBBY - OTHER_FL=STORY 3_SCH=C,   1.1000    
 Cooling Sizing Factor Information, Zone ALL_ST=LOBBY - PERFORMANCE ARTS_FL=STORY 1_SCH=C,   1.1000    
 Cooling Sizing Factor Information, Zone ALL_ST=LOUNGE/RECREATION_FL=STORY 1_SCH=B,   1.1000    
 Cooling Sizing Factor Information, Zone ALL_ST=MFG - 7.5 <= BAY H <= 15M_FL=STORY 1_SCH=A,   1.1000    
 Cooling Sizing Factor Information, Zone ALL_ST=MFG - BAY H < 7.5M_FL=STORY 2_SCH=A,   1.1000    
 Cooling Sizing Factor Information, Zone ALL_ST=MFG - BAY H > 15M_FL=STORY 3_SCH=A,   1.1000    
 Cooling Sizing Factor Information, Zone WILD_ST=MFG - CORR. < 2.4M-SCH-A_FL=STORY 2_SCH=C,   1.1000    
 Cooling Sizing Factor Information, Zone WILD_ST=MFG - CORR. < 2.4M-SCH-B_FL=STORY 1_SCH=C,   1.1000    
 Cooling Sizing Factor Information, Zone WILD_ST=MFG - CORR. < 2.4M-SCH-C_FL=STORY 4_SCH=C,   1.1000    
 Cooling Sizing Factor Information, Zone WILD_ST=MFG - CORR. < 2.4M-SCH-D_FL=STORY 2_SCH=C,   1.1000    
 Cooling Sizing Factor Information, Zone WILD_ST=MFG - CORR. < 2.4M-SCH-E_FL=STORY 1_SCH=C,   1.1000    
 Cooling Sizing Factor Information, Zone WILD_ST=MFG - CORR. < 2.4M-SCH-F_FL=STORY 2_SCH=C,   1.1000    
 Cooling Sizing Factor Information, Zone WILD_ST=MFG - CORR. < 2.4M-SCH-G_FL=STORY 3_SCH=C,   1.1000    
 Cooling Sizing Factor Information, Zone WILD_ST=MFG - CORR. < 2.4M-SCH-H_FL=STORY 2_SCH=C,   1.1000    
! <Zone Sizing Information>, Zone Name, Load Type, Calc Des Load {W}, User Des Load {W}, Calc Des Air Flow Rate {m3/s}, User Des Air Flow Rate {m3/s}, Design Day Name, Date/Time of Peak, Temperature at Peak {C}, Humidity Ratio at Peak {kgWater/kgDryAir}, Floor Area {m2}, # Occupants, Calc Outdoor Air Flow Rate {m3/s}, Calc DOAS Heat Addition Rate {W}
 Zone Sizing Information, ALL_ST=LAB - RESEARCH_FL=STORY 4_SCH=A, Cooling, 117444.34894, 129188.78383, 9.07704, 9.98475, FORT MCMURRAY AP ANN CLG .4% CONDNS DB=>MWB, 7/21 14:50:00, 28.90000, 8.76969E-003, 2500.00000, 125.13046, 5.46100, 0.00000
 Zone Sizing Information, ALL_ST=LAB - RESEARCH_FL=STORY 4_SCH=A, Heating, 34011.62544, 44215.11308, 1.30018, 5.46100, FORT MCMURRAY AP ANN HTG 99.6% CONDNS DB, 1/21 07:30:00, -36.20000, 1.25811E-004, 2500.00000, 125.13046, 5.46100, 0.00000
 Zone Sizing Information, ALL_ST=LIBRARY - CATALOGING_FL=STORY 4_SCH=C, Cooling, 78139.92703, 85953.91974, 6.03932, 6.64325, FORT MCMURRAY AP ANN CLG .4% CONDNS DB=>MWB, 7/21 13:30:00, 28.59000, 8.76969E-003, 1875.00000, 93.84784, 1.61925, 0.00000
 Zone Sizing Information, ALL_ST=LIBRARY - CATALOGING_FL=STORY 4_SCH=C, Heating, 51975.13450, 67567.67485, 1.96900, 2.55970, FORT MCMURRAY AP ANN HTG 99.6% CONDNS DB, 1/21 08:20:00, -36.20000, 1.25811E-004, 1875.00000, 93.84784, 1.61925, 0.00000
 Zone Sizing Information, ALL_ST=LIBRARY - READING_FL=STORY 4_SCH=C, Cooling, 62656.68768, 68922.35644, 4.84265, 5.32692, FORT MCMURRAY AP ANN CLG .4% CONDNS DB=>MWB, 7/21 13:50:00, 28.79667, 8.76969E-003, 1875.00000, 93.84784, 1.61925, 0.00000
 Zone Sizing Information, ALL_ST=LIBRARY - READING_FL=STORY 4_SCH=C, Heating, 49411.36339, 64234.77241, 1.87125, 2.43263, FORT MCMURRAY AP ANN HTG 99.6% CONDNS DB, 1/21 08:20:00, -36.20000, 1.25811E-004, 1875.00000, 93.84784, 1.61925, 0.00000
 Zone Sizing Information, ALL_ST=LIBRARY - STACKS_FL=STORY 4_SCH=C, Cooling, 91797.34244, 100977.07668, 7.09491, 7.80441, FORT MCMURRAY AP ANN CLG .4% CONDNS DB=>MWB, 7/21 16:10:00, 27.99067, 8.76969E-003, 1875.00000, 93.84784, 1.61925, 0.00000
 Zone Sizing Information, ALL_ST=LIBRARY - STACKS_FL=STORY 4_SCH=C, Heating, 47315.73394, 61510.45412, 1.72384, 2.24099, FORT MCMURRAY AP ANN HTG 99.6% CONDNS DB, 1/21 08:00:00, -36.20000, 1.25811E-004, 1875.00000, 93.84784, 1.61925, 0.00000
 Zone Sizing Information, ALL_ST=LOBBY - ELEVATOR_FL=STORY 3_SCH=C, Cooling, 44060.44841, 48466.49325, 3.12023, 7.71525, FORT MCMURRAY AP ANN CLG .4% CONDNS DB=>MWB, 7/21 08:00:00, 19.72400, 8.76969E-003, 1875.00000, 187.49386, 7.71525, 0.00000
 Zone Sizing Information, ALL_ST=LOBBY - ELEVATOR_FL=STORY 3_SCH=C, Heating, 28596.66385, 37175.66301, 1.12870, 7.71525, FORT MCMURRAY AP ANN HTG 99.6% CONDNS DB, 1/21 09:00:00, -36.20000, 1.25811E-004, 1875.00000, 187.49386, 7.71525, 0.00000
 Zone Sizing Information, ALL_ST=LOBBY - MOTION PICTURE_FL=STORY 3_SCH=C, Cooling, 33334.35238, 36667.78762, 2.57663, 7.71525, FORT MCMURRAY AP ANN CLG .4% CONDNS DB=>MWB, 7/21 17:00:00, 27.16400, 8.76969E-003, 1875.00000, 187.49386, 7.71525, 0.00000
 Zone Sizing Information, ALL_ST=LOBBY - MOTION PICTURE_FL=STORY 3_SCH=C, Heating, 24737.19620, 32158.35506, 0.97214, 7.71525, FORT MCMURRAY AP ANN HTG 99.6% CONDNS DB, 1/21 09:00:00, -36.20000, 1.25811E-004, 1875.00000, 187.49386, 7.71525, 0.00000
 Zone Sizing Information, ALL_ST=LOBBY - OTHER_FL=STORY 3_SCH=C, Cooling, 54379.14745, 59817.06219, 4.20333, 7.71525, FORT MCMURRAY AP ANN CLG .4% CONDNS DB=>MWB, 7/21 18:00:00, 25.92400, 8.76969E-003, 1875.00000, 187.49386, 7.71525, 0.00000
 Zone Sizing Information, ALL_ST=LOBBY - OTHER_FL=STORY 3_SCH=C, Heating, 24467.12595, 31807.26373, 0.96118, 7.71525, FORT MCMURRAY AP ANN HTG 99.6% CONDNS DB, 1/21 09:00:00, -36.20000, 1.25811E-004, 1875.00000, 187.49386, 7.71525, 0.00000
 Zone Sizing Information, ALL_ST=LOBBY - PERFORMANCE ARTS_FL=STORY 1_SCH=C, Cooling, 37361.53396, 41097.68736, 2.88793, 7.71525, FORT MCMURRAY AP ANN CLG .4% CONDNS DB=>MWB, 7/21 17:00:00, 27.16400, 8.76969E-003, 1875.00000, 187.49386, 7.71525, 0.00000
 Zone Sizing Information, ALL_ST=LOBBY - PERFORMANCE ARTS_FL=STORY 1_SCH=C, Heating, 0.00000, 0.00000, 0.00000, 7.71525, FORT MCMURRAY AP ANN HTG 99.6% CONDNS DB, , -36.20000, 1.25811E-004, 1875.00000, 187.49386, 7.71525, 0.00000
 Zone Sizing Information, ALL_ST=LOUNGE/RECREATION_FL=STORY 1_SCH=B, Cooling, 24516.89954, 26968.58949, 1.89502, 2.08452, FORT MCMURRAY AP ANN CLG .4% CONDNS DB=>MWB, 7/21 20:00:00, 22.70000, 8.76969E-003, 1875.00000, 187.49386, 1.76213, 0.00000
 Zone Sizing Information, ALL_ST=LOUNGE/RECREATION_FL=STORY 1_SCH=B, Heating, 0.00000, 0.00000, 0.00000, 1.76213, FORT MCMURRAY AP ANN HTG 99.6% CONDNS DB, , -36.20000, 1.25811E-004, 1875.00000, 187.49386, 1.76213, 0.00000
 Zone Sizing Information, ALL_ST=MFG - 7.5 <= BAY H <= 15M_FL=STORY 1_SCH=A, Cooling, 34591.10942, 38050.22036, 2.67347, 2.94082, FORT MCMURRAY AP ANN CLG .4% CONDNS DB=>MWB, 7/21 16:00:00, 28.15600, 8.76969E-003, 1875.00000, 62.56523, 2.38125, 0.00000
 Zone Sizing Information, ALL_ST=MFG - 7.5 <= BAY H <= 15M_FL=STORY 1_SCH=A, Heating, 0.00000, 0.00000, 0.00000, 2.38125, FORT MCMURRAY AP ANN HTG 99.6% CONDNS DB, , -36.20000, 1.25811E-004, 1875.00000, 62.56523, 2.38125, 0.00000
 Zone Sizing Information, ALL_ST=MFG - BAY H < 7.5M_FL=STORY 2_SCH=A, Cooling, 37814.37686, 41595.81455, 2.92260, 3.21486, FORT MCMURRAY AP ANN CLG .4% CONDNS DB=>MWB, 7/21 16:40:00, 27.49467, 8.76969E-003, 1875.00000, 62.56523, 2.38125, 0.00000
 Zone Sizing Information, ALL_ST=MFG - BAY H < 7.5M_FL=STORY 2_SCH=A, Heating, 5795.18956, 7533.74643, 0.22932, 2.38125, FORT MCMURRAY AP ANN HTG 99.6% CONDNS DB, 1/21 08:00:00, -36.20000, 1.25811E-004, 1875.00000, 62.56523, 2.38125, 0.00000
 Zone Sizing Information, ALL_ST=MFG - BAY H > 15M_FL=STORY 3_SCH=A, Cooling, 55156.78107, 60672.45917, 4.26297, 4.68927, FORT MCMURRAY AP ANN CLG .4% CONDNS DB=>MWB, 7/21 17:00:00, 27.16400, 8.76969E-003, 2500.00000, 83.42031, 3.17500, 0.00000
 Zone Sizing Information, ALL_ST=MFG - BAY H > 15M_FL=STORY 3_SCH=A, Heating, 0.00000, 0.00000, 0.00000, 3.17500, FORT MCMURRAY AP ANN HTG 99.6% CONDNS DB, , -36.20000, 1.25811E-004, 2500.00000, 83.42031, 3.17500, 0.00000
 Zone Sizing Information, WILD_ST=MFG - CORR. < 2.4M-SCH-A_FL=STORY 2_SCH=C, Cooling, 24403.34164, 26843.67580, 1.88598, 2.38125, FORT MCMURRAY AP ANN CLG .4% CONDNS DB=>MWB, 7/21 13:40:00, 28.69333, 8.76969E-003, 1875.00000, 18.76957, 2.38125, 0.00000
 Zone Sizing Information, WILD_ST=MFG - CORR. < 2.4M-SCH-A_FL=STORY 2_SCH=C, Heating, 22987.15884, 29883.30650, 0.90095, 2.38125, FORT MCMURRAY AP ANN HTG 99.6% CONDNS DB, 1/21 09:00:00, -36.20000, 1.25811E-004, 1875.00000, 18.76957, 2.38125, 0.00000
 Zone Sizing Information, WILD_ST=MFG - CORR. < 2.4M-SCH-B_FL=STORY 1_SCH=C, Cooling, 13594.85365, 14954.33902, 0.99749, 3.17500, FORT MCMURRAY AP ANN CLG .4% CONDNS DB=>MWB, 7/21 08:00:00, 19.72400, 8.76969E-003, 2500.00000, 25.02609, 3.17500, 0.00000
 Zone Sizing Information, WILD_ST=MFG - CORR. < 2.4M-SCH-B_FL=STORY 1_SCH=C, Heating, 0.00000, 0.00000, 0.00000, 3.17500, FORT MCMURRAY AP ANN HTG 99.6% CONDNS DB, , -36.20000, 1.25811E-004, 2500.00000, 25.02609, 3.17500, 0.00000
 Zone Sizing Information, WILD_ST=MFG - CORR. < 2.4M-SCH-C_FL=STORY 4_SCH=C, Cooling, 59519.36733, 65471.30407, 4.59985, 5.05984, FORT MCMURRAY AP ANN CLG .4% CONDNS DB=>MWB, 7/21 10:30:00, 25.11800, 8.76969E-003, 1875.00000, 18.76957, 2.38125, 0.00000
 Zone Sizing Information, WILD_ST=MFG - CORR. < 2.4M-SCH-C_FL=STORY 4_SCH=C, Heating, 54749.16130, 71173.90970, 2.18528, 2.84086, FORT MCMURRAY AP ANN HTG 99.6% CONDNS DB, 1/21 09:00:00, -36.20000, 1.25811E-004, 1875.00000, 18.76957, 2.38125, 0.00000
 Zone Sizing Information, WILD_ST=MFG - CORR. < 2.4M-SCH-D_FL=STORY 2_SCH=C, Cooling, 26540.01520, 29194.01672, 1.90781, 3.17500, FORT MCMURRAY AP ANN CLG .4% CONDNS DB=>MWB, 7/21 08:00:00, 19.72400, 8.76969E-003, 2500.00000, 25.02609, 3.17500, 0.00000
 Zone Sizing Information, WILD_ST=MFG - CORR. < 2.4M-SCH-D_FL=STORY 2_SCH=C, Heating, 0.00000, 0.00000, 0.00000, 3.17500, FORT MCMURRAY AP ANN HTG 99.6% CONDNS DB, , -36.20000, 1.25811E-004, 2500.00000, 25.02609, 3.17500, 0.00000
 Zone Sizing Information, WILD_ST=MFG - CORR. < 2.4M-SCH-E_FL=STORY 1_SCH=C, Cooling, 11064.36755, 12170.80431, 0.85510, 2.38125, FORT MCMURRAY AP ANN CLG .4% CONDNS DB=>MWB, 7/21 17:00:00, 27.16400, 8.76969E-003, 1875.00000, 18.76957, 2.38125, 0.00000
 Zone Sizing Information, WILD_ST=MFG - CORR. < 2.4M-SCH-E_FL=STORY 1_SCH=C, Heating, 6081.25862, 7905.63621, 0.23989, 2.38125, FORT MCMURRAY AP ANN HTG 99.6% CONDNS DB, 1/21 09:00:00, -36.20000, 1.25811E-004, 1875.00000, 18.76957, 2.38125, 0.00000
 Zone Sizing Information, WILD_ST=MFG - CORR. < 2.4M-SCH-F_FL=STORY 2_SCH=C, Cooling, 34836.89894, 38320.58883, 2.69234, 2.96157, FORT MCMURRAY AP ANN CLG .4% CONDNS DB=>MWB, 7/21 18:10:00, 25.61400, 8.76969E-003, 1875.00000, 18.76957, 2.38125, 0.00000
 Zone Sizing Information, WILD_ST=MFG - CORR. < 2.4M-SCH-F_FL=STORY 2_SCH=C, Heating, 16993.35872, 22091.36634, 0.65818, 2.38125, FORT MCMURRAY AP ANN HTG 99.6% CONDNS DB, 1/21 09:00:00, -36.20000, 1.25811E-004, 1875.00000, 18.76957, 2.38125, 0.00000
 Zone Sizing Information, WILD_ST=MFG - CORR. < 2.4M-SCH-G_FL=STORY 3_SCH=C, Cooling, 31534.21085, 34687.63193, 2.43708, 2.68079, FORT MCMURRAY AP ANN CLG .4% CONDNS DB=>MWB, 7/21 14:10:00, 28.90000, 8.76969E-003, 1875.00000, 18.76957, 2.38125, 0.00000
 Zone Sizing Information, WILD_ST=MFG - CORR. < 2.4M-SCH-G_FL=STORY 3_SCH=C, Heating, 33554.81658, 43621.26155, 1.32941, 2.38125, FORT MCMURRAY AP ANN HTG 99.6% CONDNS DB, 1/21 09:00:00, -36.20000, 1.25811E-004, 1875.00000, 18.76957, 2.38125, 0.00000
 Zone Sizing Information, WILD_ST=MFG - CORR. < 2.4M-SCH-H_FL=STORY 2_SCH=C, Cooling, 41841.80131, 46025.98144, 2.96015, 3.25617, FORT MCMURRAY AP ANN CLG .4% CONDNS DB=>MWB, 7/21 08:00:00, 19.72400, 8.76969E-003, 1875.00000, 18.76957, 2.38125, 0.00000
 Zone Sizing Information, WILD_ST=MFG - CORR. < 2.4M-SCH-H_FL=STORY 2_SCH=C, Heating, 18414.19562, 23938.45431, 0.71571, 2.38125, FORT MCMURRAY AP ANN HTG 99.6% CONDNS DB, 1/21 09:00:00, -36.20000, 1.25811E-004, 1875.00000, 18.76957, 2.38125, 0.00000
! <System Sizing Information>, System Name, Load Type, Peak Load Kind, User Design Capacity, Calc Des Air Flow Rate [m3/s], User Des Air Flow Rate [m3/s], Design Day Name, Date/Time of Peak
 System Sizing Information, SYS_3_PSZ ALL_ST=LAB - RESEARCH_FL=STORY 4_SCH=A, Cooling, Sensible, 158186.43, 9.98475, 9.98475, FORT MCMURRAY AP ANN CLG .4% CONDNS DB=>MWB, 7/21 05:00:00
 System Sizing Information, SYS_3_PSZ ALL_ST=LAB - RESEARCH_FL=STORY 4_SCH=A, Heating, Sensible, 500905.13, 5.46100, 5.46100, FORT MCMURRAY AP ANN HTG 99.6% CONDNS DB, 1/21 00:10:00
 System Sizing Information, SYS_3_PSZ ALL_ST=LOBBY - ELEVATOR_FL=STORY 3_SCH=C, Cooling, Sensible, 60080.82, 7.71525, 7.71525, FORT MCMURRAY AP ANN CLG .4% CONDNS DB=>MWB, 7/21 05:00:00
 System Sizing Information, SYS_3_PSZ ALL_ST=LOBBY - ELEVATOR_FL=STORY 3_SCH=C, Heating, Sensible, 707674.10, 7.71525, 7.71525, FORT MCMURRAY AP ANN HTG 99.6% CONDNS DB, 1/21 00:10:00
 System Sizing Information, SYS_3_PSZ ALL_ST=LOBBY - MOTION PICTURE_FL=STORY 3_SCH=C, Cooling, Sensible, 126559.29, 7.71525, 7.71525, FORT MCMURRAY AP ANN CLG .4% CONDNS DB=>MWB, 7/21 05:00:00
 System Sizing Information, SYS_3_PSZ ALL_ST=LOBBY - MOTION PICTURE_FL=STORY 3_SCH=C, Heating, Sensible, 707674.10, 7.71525, 7.71525, FORT MCMURRAY AP ANN HTG 99.6% CONDNS DB, 1/21 00:10:00
 System Sizing Information, SYS_3_PSZ ALL_ST=LOBBY - OTHER_FL=STORY 3_SCH=C, Cooling, Sensible, 115479.55, 7.71525, 7.71525, FORT MCMURRAY AP ANN CLG .4% CONDNS DB=>MWB, 7/21 05:00:00
 System Sizing Information, SYS_3_PSZ ALL_ST=LOBBY - OTHER_FL=STORY 3_SCH=C, Heating, Sensible, 707674.10, 7.71525, 7.71525, FORT MCMURRAY AP ANN HTG 99.6% CONDNS DB, 1/21 00:10:00
 System Sizing Information, SYS_3_PSZ ALL_ST=LOBBY - PERFORMANCE ARTS_FL=STORY 1_SCH=C, Cooling, Sensible, 126559.29, 7.71525, 7.71525, FORT MCMURRAY AP ANN CLG .4% CONDNS DB=>MWB, 7/21 05:00:00
 System Sizing Information, SYS_3_PSZ ALL_ST=LOBBY - PERFORMANCE ARTS_FL=STORY 1_SCH=C, Heating, Sensible, 707674.10, 7.71525, 7.71525, FORT MCMURRAY AP ANN HTG 99.6% CONDNS DB, 1/21 00:10:00
 System Sizing Information, SYS_3_PSZ ALL_ST=LOUNGE/RECREATION_FL=STORY 1_SCH=B, Cooling, Sensible, 23902.05, 2.08452, 2.08452, FORT MCMURRAY AP ANN CLG .4% CONDNS DB=>MWB, 7/21 05:00:00
 System Sizing Information, SYS_3_PSZ ALL_ST=LOUNGE/RECREATION_FL=STORY 1_SCH=B, Heating, Sensible, 161629.27, 1.76213, 1.76213, FORT MCMURRAY AP ANN HTG 99.6% CONDNS DB, 1/21 00:10:00
 System Sizing Information, SYS_3_PSZ ALL_ST=MFG - 7.5 <= BAY H <= 15M_FL=STORY 1_SCH=A, Cooling, Sensible, 48925.37, 2.94082, 2.94082, FORT MCMURRAY AP ANN CLG .4% CONDNS DB=>MWB, 7/21 05:00:00
 System Sizing Information, SYS_3_PSZ ALL_ST=MFG - 7.5 <= BAY H <= 15M_FL=STORY 1_SCH=A, Heating, Sensible, 218417.93, 2.38125, 2.38125, FORT MCMURRAY AP ANN HTG 99.6% CONDNS DB, 1/21 00:10:00
 System Sizing Information, SYS_3_PSZ ALL_ST=MFG - BAY H < 7.5M_FL=STORY 2_SCH=A, Cooling, Sensible, 50592.42, 3.21486, 3.21486, FORT MCMURRAY AP ANN CLG .4% CONDNS DB=>MWB, 7/21 05:00:00
 System Sizing Information, SYS_3_PSZ ALL_ST=MFG - BAY H < 7.5M_FL=STORY 2_SCH=A, Heating, Sensible, 218417.93, 2.38125, 2.38125, FORT MCMURRAY AP ANN HTG 99.6% CONDNS DB, 1/21 00:10:00
 System Sizing Information, SYS_3_PSZ ALL_ST=MFG - BAY H > 15M_FL=STORY 3_SCH=A, Cooling, Sensible, 71371.54, 4.68927, 4.68927, FORT MCMURRAY AP ANN CLG .4% CONDNS DB=>MWB, 7/21 05:00:00
 System Sizing Information, SYS_3_PSZ ALL_ST=MFG - BAY H > 15M_FL=STORY 3_SCH=A, Heating, Sensible, 291223.91, 3.17500, 3.17500, FORT MCMURRAY AP ANN HTG 99.6% CONDNS DB, 1/21 00:10:00
 System Sizing Information, SYS_4_PSZ_WILD_ST=MFG - CORR. < 2.4M-SCH-A_FL=STORY 2_SCH=C, Cooling, Sensible, 320314.69, 25.07087, 25.07087, FORT MCMURRAY AP ANN CLG .4% CONDNS DB=>MWB, 7/21 05:00:00
 System Sizing Information, SYS_4_PSZ_WILD_ST=MFG - CORR. < 2.4M-SCH-A_FL=STORY 2_SCH=C, Heating, Sensible, 1904246.27, 21.09711, 21.09711, FORT MCMURRAY AP ANN HTG 99.6% CONDNS DB, 1/21 09:00:00
 System Sizing Information, SYS_6_VAV WITH REHEAT, Cooling, Sensible, 276707.43, 19.77458, 19.77458, FORT MCMURRAY AP ANN CLG .4% CONDNS DB=>MWB, 7/21 00:00:00
 System Sizing Information, SYS_6_VAV WITH REHEAT, Heating, Sensible, 257598.09, 7.23331, 7.23331, FORT MCMURRAY AP ANN HTG 99.6% CONDNS DB, 1/21 00:10:00
! <Component Sizing Information>, Component Type, Component Name, Input Field Description, Value
 Component Sizing Information, AirTerminal:SingleDuct:Uncontrolled, AIR TERMINAL SINGLE DUCT UNCONTROLLED 9, Design Size Maximum Air Flow Rate [m3/s], 9.98475
 Component Sizing Information, ZoneHVAC:Baseboard:Convective:Water, ZONE HVAC BASEBOARD CONVECTIVE WATER 9, Design Size Maximum Water Flow Rate [m3/s], 6.60389E-004
 Component Sizing Information, ZoneHVAC:Baseboard:Convective:Water, ZONE HVAC BASEBOARD CONVECTIVE WATER 9, Design Size U-Factor Times Area Value [W/K], 1349.02701
 Component Sizing Information, AirTerminal:SingleDuct:VAV:Reheat, AIR TERMINAL SINGLE DUCT VAV REHEAT 1, Design Size Maximum Air Flow Rate [m3/s], 6.64325
 Component Sizing Information, AirTerminal:SingleDuct:VAV:Reheat, AIR TERMINAL SINGLE DUCT VAV REHEAT 1, Design Size Constant Minimum Air Flow Fraction, 0.21507
 Component Sizing Information, AirTerminal:SingleDuct:VAV:Reheat, AIR TERMINAL SINGLE DUCT VAV REHEAT 1, User-Specified Constant Minimum Air Flow Fraction, 0.30000
 Component Sizing Information, AirTerminal:SingleDuct:VAV:Reheat, AIR TERMINAL SINGLE DUCT VAV REHEAT 1, Design Size Minimum Air Flow Rate [m3/s], 1.99298
 Component Sizing Information, AirTerminal:SingleDuct:VAV:Reheat, AIR TERMINAL SINGLE DUCT VAV REHEAT 1, Design Size Maximum Flow per Zone Floor Area during Reheat [m3/s-m2], 1.06292E-003
 Component Sizing Information, AirTerminal:SingleDuct:VAV:Reheat, AIR TERMINAL SINGLE DUCT VAV REHEAT 1, Design Size Maximum Flow Fraction during Reheat [], 0.30000
 Component Sizing Information, AirTerminal:SingleDuct:VAV:Reheat, AIR TERMINAL SINGLE DUCT VAV REHEAT 1, Design Size Maximum Reheat Water Flow Rate [m3/s], 1.43498E-003
 Component Sizing Information, AirTerminal:SingleDuct:VAV:Reheat, AIR TERMINAL SINGLE DUCT VAV REHEAT 1, Design Size Reheat Coil Sizing Air Volume Flow Rate [m3/s], 2.55970
 Component Sizing Information, AirTerminal:SingleDuct:VAV:Reheat, AIR TERMINAL SINGLE DUCT VAV REHEAT 1, Design Size Reheat Coil Sizing Inlet Air Temperature [C], 13.10000
 Component Sizing Information, AirTerminal:SingleDuct:VAV:Reheat, AIR TERMINAL SINGLE DUCT VAV REHEAT 1, Design Size Reheat Coil Sizing Inlet Air Humidity Ratio [kgWater/kgDryAir], 8.00000E-003
 Component Sizing Information, Coil:Heating:Water, COIL HEATING WATER 2, Design Size Rated Capacity [W], 96076.45187
 Component Sizing Information, Coil:Heating:Water, COIL HEATING WATER 2, Design Size Maximum Water Flow Rate [m3/s], 1.43498E-003
 Component Sizing Information, Coil:Heating:Water, COIL HEATING WATER 2, Design Size U-Factor Times Area Value [W/K], 2221.65284
! <Water Heating Coil Capacity Information>,Component Type,Name,Nominal Total Capacity {W}
Water Heating Coil Capacity Information,Coil:Heating:Water,COIL HEATING WATER 2,83947.74
 Component Sizing Information, ZoneHVAC:Baseboard:Convective:Water, ZONE HVAC BASEBOARD CONVECTIVE WATER 18, Design Size Maximum Water Flow Rate [m3/s], 1.00918E-003
 Component Sizing Information, ZoneHVAC:Baseboard:Convective:Water, ZONE HVAC BASEBOARD CONVECTIVE WATER 18, Design Size U-Factor Times Area Value [W/K], 2063.19497
 Component Sizing Information, AirTerminal:SingleDuct:VAV:Reheat, AIR TERMINAL SINGLE DUCT VAV REHEAT 2, Design Size Maximum Air Flow Rate [m3/s], 5.32692
 Component Sizing Information, AirTerminal:SingleDuct:VAV:Reheat, AIR TERMINAL SINGLE DUCT VAV REHEAT 2, Design Size Constant Minimum Air Flow Fraction, 0.26821
 Component Sizing Information, AirTerminal:SingleDuct:VAV:Reheat, AIR TERMINAL SINGLE DUCT VAV REHEAT 2, User-Specified Constant Minimum Air Flow Fraction, 0.30000
 Component Sizing Information, AirTerminal:SingleDuct:VAV:Reheat, AIR TERMINAL SINGLE DUCT VAV REHEAT 2, Design Size Minimum Air Flow Rate [m3/s], 1.59808
 Component Sizing Information, AirTerminal:SingleDuct:VAV:Reheat, AIR TERMINAL SINGLE DUCT VAV REHEAT 2, Design Size Maximum Flow per Zone Floor Area during Reheat [m3/s-m2], 8.52307E-004
 Component Sizing Information, AirTerminal:SingleDuct:VAV:Reheat, AIR TERMINAL SINGLE DUCT VAV REHEAT 2, Design Size Maximum Flow Fraction during Reheat [], 0.30000
 Component Sizing Information, AirTerminal:SingleDuct:VAV:Reheat, AIR TERMINAL SINGLE DUCT VAV REHEAT 2, Design Size Maximum Reheat Water Flow Rate [m3/s], 1.36432E-003
 Component Sizing Information, AirTerminal:SingleDuct:VAV:Reheat, AIR TERMINAL SINGLE DUCT VAV REHEAT 2, Design Size Reheat Coil Sizing Air Volume Flow Rate [m3/s], 2.43263
 Component Sizing Information, AirTerminal:SingleDuct:VAV:Reheat, AIR TERMINAL SINGLE DUCT VAV REHEAT 2, Design Size Reheat Coil Sizing Inlet Air Temperature [C], 13.10000
 Component Sizing Information, AirTerminal:SingleDuct:VAV:Reheat, AIR TERMINAL SINGLE DUCT VAV REHEAT 2, Design Size Reheat Coil Sizing Inlet Air Humidity Ratio [kgWater/kgDryAir], 8.00000E-003
 Component Sizing Information, Coil:Heating:Water, COIL HEATING WATER 3, Design Size Rated Capacity [W], 91345.73948
 Component Sizing Information, Coil:Heating:Water, COIL HEATING WATER 3, Design Size Maximum Water Flow Rate [m3/s], 1.36432E-003
 Component Sizing Information, Coil:Heating:Water, COIL HEATING WATER 3, Design Size U-Factor Times Area Value [W/K], 2112.61576
Water Heating Coil Capacity Information,Coil:Heating:Water,COIL HEATING WATER 3,75220.35
 Component Sizing Information, ZoneHVAC:Baseboard:Convective:Water, ZONE HVAC BASEBOARD CONVECTIVE WATER 19, Design Size Maximum Water Flow Rate [m3/s], 9.59399E-004
 Component Sizing Information, ZoneHVAC:Baseboard:Convective:Water, ZONE HVAC BASEBOARD CONVECTIVE WATER 19, Design Size U-Factor Times Area Value [W/K], 1961.90712
 Component Sizing Information, AirTerminal:SingleDuct:VAV:Reheat, AIR TERMINAL SINGLE DUCT VAV REHEAT 3, Design Size Maximum Air Flow Rate [m3/s], 7.80441
 Component Sizing Information, AirTerminal:SingleDuct:VAV:Reheat, AIR TERMINAL SINGLE DUCT VAV REHEAT 3, Design Size Constant Minimum Air Flow Fraction, 0.18307
 Component Sizing Information, AirTerminal:SingleDuct:VAV:Reheat, AIR TERMINAL SINGLE DUCT VAV REHEAT 3, User-Specified Constant Minimum Air Flow Fraction, 0.30000
 Component Sizing Information, AirTerminal:SingleDuct:VAV:Reheat, AIR TERMINAL SINGLE DUCT VAV REHEAT 3, Design Size Minimum Air Flow Rate [m3/s], 2.34132
 Component Sizing Information, AirTerminal:SingleDuct:VAV:Reheat, AIR TERMINAL SINGLE DUCT VAV REHEAT 3, Design Size Maximum Flow per Zone Floor Area during Reheat [m3/s-m2], 1.24870E-003
 Component Sizing Information, AirTerminal:SingleDuct:VAV:Reheat, AIR TERMINAL SINGLE DUCT VAV REHEAT 3, Design Size Maximum Flow Fraction during Reheat [], 0.30000
 Component Sizing Information, AirTerminal:SingleDuct:VAV:Reheat, AIR TERMINAL SINGLE DUCT VAV REHEAT 3, Design Size Maximum Reheat Water Flow Rate [m3/s], 1.22225E-003
 Component Sizing Information, AirTerminal:SingleDuct:VAV:Reheat, AIR TERMINAL SINGLE DUCT VAV REHEAT 3, Design Size Reheat Coil Sizing Air Volume Flow Rate [m3/s], 2.34132
 Component Sizing Information, AirTerminal:SingleDuct:VAV:Reheat, AIR TERMINAL SINGLE DUCT VAV REHEAT 3, Design Size Reheat Coil Sizing Inlet Air Temperature [C], 13.10000
 Component Sizing Information, AirTerminal:SingleDuct:VAV:Reheat, AIR TERMINAL SINGLE DUCT VAV REHEAT 3, Design Size Reheat Coil Sizing Inlet Air Humidity Ratio [kgWater/kgDryAir], 8.00000E-003
 Component Sizing Information, Coil:Heating:Water, COIL HEATING WATER 4, Design Size Rated Capacity [W], 81833.59725
 Component Sizing Information, Coil:Heating:Water, COIL HEATING WATER 4, Design Size Maximum Water Flow Rate [m3/s], 1.22225E-003
 Component Sizing Information, Coil:Heating:Water, COIL HEATING WATER 4, Design Size U-Factor Times Area Value [W/K], 1843.21999
Water Heating Coil Capacity Information,Coil:Heating:Water,COIL HEATING WATER 4,76736.61
 Component Sizing Information, ZoneHVAC:Baseboard:Convective:Water, ZONE HVAC BASEBOARD CONVECTIVE WATER 20, Design Size Maximum Water Flow Rate [m3/s], 9.18709E-004
 Component Sizing Information, ZoneHVAC:Baseboard:Convective:Water, ZONE HVAC BASEBOARD CONVECTIVE WATER 20, Design Size U-Factor Times Area Value [W/K], 1766.63774
 Component Sizing Information, AirTerminal:SingleDuct:Uncontrolled, AIR TERMINAL SINGLE DUCT UNCONTROLLED 10, Design Size Maximum Air Flow Rate [m3/s], 7.71525
 Component Sizing Information, ZoneHVAC:Baseboard:Convective:Water, ZONE HVAC BASEBOARD CONVECTIVE WATER 10, Design Size Maximum Water Flow Rate [m3/s], 5.55249E-004
 Component Sizing Information, ZoneHVAC:Baseboard:Convective:Water, ZONE HVAC BASEBOARD CONVECTIVE WATER 10, Design Size U-Factor Times Area Value [W/K], 1129.78528
 Component Sizing Information, AirTerminal:SingleDuct:Uncontrolled, AIR TERMINAL SINGLE DUCT UNCONTROLLED 11, Design Size Maximum Air Flow Rate [m3/s], 7.71525
 Component Sizing Information, ZoneHVAC:Baseboard:Convective:Water, ZONE HVAC BASEBOARD CONVECTIVE WATER 11, Design Size Maximum Water Flow Rate [m3/s], 4.80311E-004
 Component Sizing Information, ZoneHVAC:Baseboard:Convective:Water, ZONE HVAC BASEBOARD CONVECTIVE WATER 11, Design Size U-Factor Times Area Value [W/K], 975.85435
 Component Sizing Information, AirTerminal:SingleDuct:Uncontrolled, AIR TERMINAL SINGLE DUCT UNCONTROLLED 12, Design Size Maximum Air Flow Rate [m3/s], 7.71525
 Component Sizing Information, ZoneHVAC:Baseboard:Convective:Water, ZONE HVAC BASEBOARD CONVECTIVE WATER 12, Design Size Maximum Water Flow Rate [m3/s], 4.75067E-004
 Component Sizing Information, ZoneHVAC:Baseboard:Convective:Water, ZONE HVAC BASEBOARD CONVECTIVE WATER 12, Design Size U-Factor Times Area Value [W/K], 965.35863
 Component Sizing Information, AirTerminal:SingleDuct:Uncontrolled, AIR TERMINAL SINGLE DUCT UNCONTROLLED 13, Design Size Maximum Air Flow Rate [m3/s], 7.71525
 Component Sizing Information, ZoneHVAC:Baseboard:Convective:Water, ZONE HVAC BASEBOARD CONVECTIVE WATER 13, Design Size Maximum Water Flow Rate [m3/s], 0.00000
 Component Sizing Information, ZoneHVAC:Baseboard:Convective:Water, ZONE HVAC BASEBOARD CONVECTIVE WATER 13, Design Size U-Factor Times Area Value [W/K], 0.00000
 Component Sizing Information, AirTerminal:SingleDuct:Uncontrolled, AIR TERMINAL SINGLE DUCT UNCONTROLLED 14, Design Size Maximum Air Flow Rate [m3/s], 2.08452
 Component Sizing Information, ZoneHVAC:Baseboard:Convective:Water, ZONE HVAC BASEBOARD CONVECTIVE WATER 14, Design Size Maximum Water Flow Rate [m3/s], 0.00000
 Component Sizing Information, ZoneHVAC:Baseboard:Convective:Water, ZONE HVAC BASEBOARD CONVECTIVE WATER 14, Design Size U-Factor Times Area Value [W/K], 0.00000
 Component Sizing Information, AirTerminal:SingleDuct:Uncontrolled, AIR TERMINAL SINGLE DUCT UNCONTROLLED 15, Design Size Maximum Air Flow Rate [m3/s], 2.94082
 Component Sizing Information, ZoneHVAC:Baseboard:Convective:Water, ZONE HVAC BASEBOARD CONVECTIVE WATER 15, Design Size Maximum Water Flow Rate [m3/s], 0.00000
 Component Sizing Information, ZoneHVAC:Baseboard:Convective:Water, ZONE HVAC BASEBOARD CONVECTIVE WATER 15, Design Size U-Factor Times Area Value [W/K], 0.00000
 Component Sizing Information, AirTerminal:SingleDuct:Uncontrolled, AIR TERMINAL SINGLE DUCT UNCONTROLLED 16, Design Size Maximum Air Flow Rate [m3/s], 3.21486
 Component Sizing Information, ZoneHVAC:Baseboard:Convective:Water, ZONE HVAC BASEBOARD CONVECTIVE WATER 16, Design Size Maximum Water Flow Rate [m3/s], 1.12523E-004
 Component Sizing Information, ZoneHVAC:Baseboard:Convective:Water, ZONE HVAC BASEBOARD CONVECTIVE WATER 16, Design Size U-Factor Times Area Value [W/K], 229.13854
 Component Sizing Information, AirTerminal:SingleDuct:Uncontrolled, AIR TERMINAL SINGLE DUCT UNCONTROLLED 17, Design Size Maximum Air Flow Rate [m3/s], 4.68927
 Component Sizing Information, ZoneHVAC:Baseboard:Convective:Water, ZONE HVAC BASEBOARD CONVECTIVE WATER 17, Design Size Maximum Water Flow Rate [m3/s], 0.00000
 Component Sizing Information, ZoneHVAC:Baseboard:Convective:Water, ZONE HVAC BASEBOARD CONVECTIVE WATER 17, Design Size U-Factor Times Area Value [W/K], 0.00000
 Component Sizing Information, AirTerminal:SingleDuct:Uncontrolled, AIR TERMINAL SINGLE DUCT UNCONTROLLED 1, Design Size Maximum Air Flow Rate [m3/s], 2.38125
 Component Sizing Information, ZoneHVAC:Baseboard:Convective:Water, ZONE HVAC BASEBOARD CONVECTIVE WATER 1, Design Size Maximum Water Flow Rate [m3/s], 4.46331E-004
 Component Sizing Information, ZoneHVAC:Baseboard:Convective:Water, ZONE HVAC BASEBOARD CONVECTIVE WATER 1, Design Size U-Factor Times Area Value [W/K], 910.86911
 Component Sizing Information, AirTerminal:SingleDuct:Uncontrolled, AIR TERMINAL SINGLE DUCT UNCONTROLLED 2, Design Size Maximum Air Flow Rate [m3/s], 3.17500
 Component Sizing Information, ZoneHVAC:Baseboard:Convective:Water, ZONE HVAC BASEBOARD CONVECTIVE WATER 2, Design Size Maximum Water Flow Rate [m3/s], 0.00000
 Component Sizing Information, ZoneHVAC:Baseboard:Convective:Water, ZONE HVAC BASEBOARD CONVECTIVE WATER 2, Design Size U-Factor Times Area Value [W/K], 0.00000
 Component Sizing Information, AirTerminal:SingleDuct:Uncontrolled, AIR TERMINAL SINGLE DUCT UNCONTROLLED 3, Design Size Maximum Air Flow Rate [m3/s], 5.05984
 Component Sizing Information, ZoneHVAC:Baseboard:Convective:Water, ZONE HVAC BASEBOARD CONVECTIVE WATER 3, Design Size Maximum Water Flow Rate [m3/s], 1.06304E-003
 Component Sizing Information, ZoneHVAC:Baseboard:Convective:Water, ZONE HVAC BASEBOARD CONVECTIVE WATER 3, Design Size U-Factor Times Area Value [W/K], 2169.66998
 Component Sizing Information, AirTerminal:SingleDuct:Uncontrolled, AIR TERMINAL SINGLE DUCT UNCONTROLLED 4, Design Size Maximum Air Flow Rate [m3/s], 3.17500
 Component Sizing Information, ZoneHVAC:Baseboard:Convective:Water, ZONE HVAC BASEBOARD CONVECTIVE WATER 4, Design Size Maximum Water Flow Rate [m3/s], 0.00000
 Component Sizing Information, ZoneHVAC:Baseboard:Convective:Water, ZONE HVAC BASEBOARD CONVECTIVE WATER 4, Design Size U-Factor Times Area Value [W/K], 0.00000
 Component Sizing Information, AirTerminal:SingleDuct:Uncontrolled, AIR TERMINAL SINGLE DUCT UNCONTROLLED 5, Design Size Maximum Air Flow Rate [m3/s], 2.38125
 Component Sizing Information, ZoneHVAC:Baseboard:Convective:Water, ZONE HVAC BASEBOARD CONVECTIVE WATER 5, Design Size Maximum Water Flow Rate [m3/s], 1.18077E-004
 Component Sizing Information, ZoneHVAC:Baseboard:Convective:Water, ZONE HVAC BASEBOARD CONVECTIVE WATER 5, Design Size U-Factor Times Area Value [W/K], 240.90185
 Component Sizing Information, AirTerminal:SingleDuct:Uncontrolled, AIR TERMINAL SINGLE DUCT UNCONTROLLED 6, Design Size Maximum Air Flow Rate [m3/s], 2.96157
 Component Sizing Information, ZoneHVAC:Baseboard:Convective:Water, ZONE HVAC BASEBOARD CONVECTIVE WATER 6, Design Size Maximum Water Flow Rate [m3/s], 3.29953E-004
 Component Sizing Information, ZoneHVAC:Baseboard:Convective:Water, ZONE HVAC BASEBOARD CONVECTIVE WATER 6, Design Size U-Factor Times Area Value [W/K], 673.45115
 Component Sizing Information, AirTerminal:SingleDuct:Uncontrolled, AIR TERMINAL SINGLE DUCT UNCONTROLLED 7, Design Size Maximum Air Flow Rate [m3/s], 2.68079
 Component Sizing Information, ZoneHVAC:Baseboard:Convective:Water, ZONE HVAC BASEBOARD CONVECTIVE WATER 7, Design Size Maximum Water Flow Rate [m3/s], 6.51519E-004
 Component Sizing Information, ZoneHVAC:Baseboard:Convective:Water, ZONE HVAC BASEBOARD CONVECTIVE WATER 7, Design Size U-Factor Times Area Value [W/K], 1329.55515
 Component Sizing Information, AirTerminal:SingleDuct:Uncontrolled, AIR TERMINAL SINGLE DUCT UNCONTROLLED 8, Design Size Maximum Air Flow Rate [m3/s], 3.25617
 Component Sizing Information, ZoneHVAC:Baseboard:Convective:Water, ZONE HVAC BASEBOARD CONVECTIVE WATER 8, Design Size Maximum Water Flow Rate [m3/s], 3.57540E-004
 Component Sizing Information, ZoneHVAC:Baseboard:Convective:Water, ZONE HVAC BASEBOARD CONVECTIVE WATER 8, Design Size U-Factor Times Area Value [W/K], 729.72189
 Component Sizing Information, AirLoopHVAC, SYS_3_PSZ ALL_ST=LAB - RESEARCH_FL=STORY 4_SCH=A, Sum of Air Terminal Maximum Heating Flow Rates [m3/s], 9.98475
 Component Sizing Information, AirLoopHVAC, SYS_3_PSZ ALL_ST=LAB - RESEARCH_FL=STORY 4_SCH=A, Sum of Air Terminal Minimum Heating Flow Rates [m3/s], 9.98475
 Component Sizing Information, AirLoopHVAC, SYS_3_PSZ ALL_ST=LAB - RESEARCH_FL=STORY 4_SCH=A, Sum of Air Terminal Maximum Flow Rates [m3/s], 9.98475
 Component Sizing Information, AirLoopHVAC, SYS_3_PSZ ALL_ST=LAB - RESEARCH_FL=STORY 4_SCH=A, Adjusted Heating Design Air Flow Rate [m3/s], 9.98475
 Component Sizing Information, AirLoopHVAC, SYS_3_PSZ ALL_ST=LAB - RESEARCH_FL=STORY 4_SCH=A, Adjusted Cooling Design Air Flow Rate [m3/s], 9.98475
 Component Sizing Information, AirLoopHVAC, SYS_3_PSZ ALL_ST=LAB - RESEARCH_FL=STORY 4_SCH=A, Adjusted Main Design Air Flow Rate [m3/s], 9.98475
 Component Sizing Information, AirLoopHVAC, SYS_3_PSZ ALL_ST=LAB - RESEARCH_FL=STORY 4_SCH=A, User Heating Air Flow Ratio [], 1.00000
 Component Sizing Information, AirLoopHVAC, SYS_3_PSZ ALL_ST=LAB - RESEARCH_FL=STORY 4_SCH=A, Calculated Heating Air Flow Ratio [], 1.00000
 Component Sizing Information, AirLoopHVAC, SYS_3_PSZ ALL_ST=LOBBY - ELEVATOR_FL=STORY 3_SCH=C, Sum of Air Terminal Maximum Heating Flow Rates [m3/s], 7.71525
 Component Sizing Information, AirLoopHVAC, SYS_3_PSZ ALL_ST=LOBBY - ELEVATOR_FL=STORY 3_SCH=C, Sum of Air Terminal Minimum Heating Flow Rates [m3/s], 7.71525
 Component Sizing Information, AirLoopHVAC, SYS_3_PSZ ALL_ST=LOBBY - ELEVATOR_FL=STORY 3_SCH=C, Sum of Air Terminal Maximum Flow Rates [m3/s], 7.71525
 Component Sizing Information, AirLoopHVAC, SYS_3_PSZ ALL_ST=LOBBY - ELEVATOR_FL=STORY 3_SCH=C, Adjusted Heating Design Air Flow Rate [m3/s], 7.71525
 Component Sizing Information, AirLoopHVAC, SYS_3_PSZ ALL_ST=LOBBY - ELEVATOR_FL=STORY 3_SCH=C, Adjusted Cooling Design Air Flow Rate [m3/s], 7.71525
 Component Sizing Information, AirLoopHVAC, SYS_3_PSZ ALL_ST=LOBBY - ELEVATOR_FL=STORY 3_SCH=C, Adjusted Main Design Air Flow Rate [m3/s], 7.71525
 Component Sizing Information, AirLoopHVAC, SYS_3_PSZ ALL_ST=LOBBY - ELEVATOR_FL=STORY 3_SCH=C, User Heating Air Flow Ratio [], 1.00000
 Component Sizing Information, AirLoopHVAC, SYS_3_PSZ ALL_ST=LOBBY - ELEVATOR_FL=STORY 3_SCH=C, Calculated Heating Air Flow Ratio [], 1.00000
 Component Sizing Information, AirLoopHVAC, SYS_3_PSZ ALL_ST=LOBBY - MOTION PICTURE_FL=STORY 3_SCH=C, Sum of Air Terminal Maximum Heating Flow Rates [m3/s], 7.71525
 Component Sizing Information, AirLoopHVAC, SYS_3_PSZ ALL_ST=LOBBY - MOTION PICTURE_FL=STORY 3_SCH=C, Sum of Air Terminal Minimum Heating Flow Rates [m3/s], 7.71525
 Component Sizing Information, AirLoopHVAC, SYS_3_PSZ ALL_ST=LOBBY - MOTION PICTURE_FL=STORY 3_SCH=C, Sum of Air Terminal Maximum Flow Rates [m3/s], 7.71525
 Component Sizing Information, AirLoopHVAC, SYS_3_PSZ ALL_ST=LOBBY - MOTION PICTURE_FL=STORY 3_SCH=C, Adjusted Heating Design Air Flow Rate [m3/s], 7.71525
 Component Sizing Information, AirLoopHVAC, SYS_3_PSZ ALL_ST=LOBBY - MOTION PICTURE_FL=STORY 3_SCH=C, Adjusted Cooling Design Air Flow Rate [m3/s], 7.71525
 Component Sizing Information, AirLoopHVAC, SYS_3_PSZ ALL_ST=LOBBY - MOTION PICTURE_FL=STORY 3_SCH=C, Adjusted Main Design Air Flow Rate [m3/s], 7.71525
 Component Sizing Information, AirLoopHVAC, SYS_3_PSZ ALL_ST=LOBBY - MOTION PICTURE_FL=STORY 3_SCH=C, User Heating Air Flow Ratio [], 1.00000
 Component Sizing Information, AirLoopHVAC, SYS_3_PSZ ALL_ST=LOBBY - MOTION PICTURE_FL=STORY 3_SCH=C, Calculated Heating Air Flow Ratio [], 1.00000
 Component Sizing Information, AirLoopHVAC, SYS_3_PSZ ALL_ST=LOBBY - OTHER_FL=STORY 3_SCH=C, Sum of Air Terminal Maximum Heating Flow Rates [m3/s], 7.71525
 Component Sizing Information, AirLoopHVAC, SYS_3_PSZ ALL_ST=LOBBY - OTHER_FL=STORY 3_SCH=C, Sum of Air Terminal Minimum Heating Flow Rates [m3/s], 7.71525
 Component Sizing Information, AirLoopHVAC, SYS_3_PSZ ALL_ST=LOBBY - OTHER_FL=STORY 3_SCH=C, Sum of Air Terminal Maximum Flow Rates [m3/s], 7.71525
 Component Sizing Information, AirLoopHVAC, SYS_3_PSZ ALL_ST=LOBBY - OTHER_FL=STORY 3_SCH=C, Adjusted Heating Design Air Flow Rate [m3/s], 7.71525
 Component Sizing Information, AirLoopHVAC, SYS_3_PSZ ALL_ST=LOBBY - OTHER_FL=STORY 3_SCH=C, Adjusted Cooling Design Air Flow Rate [m3/s], 7.71525
 Component Sizing Information, AirLoopHVAC, SYS_3_PSZ ALL_ST=LOBBY - OTHER_FL=STORY 3_SCH=C, Adjusted Main Design Air Flow Rate [m3/s], 7.71525
 Component Sizing Information, AirLoopHVAC, SYS_3_PSZ ALL_ST=LOBBY - OTHER_FL=STORY 3_SCH=C, User Heating Air Flow Ratio [], 1.00000
 Component Sizing Information, AirLoopHVAC, SYS_3_PSZ ALL_ST=LOBBY - OTHER_FL=STORY 3_SCH=C, Calculated Heating Air Flow Ratio [], 1.00000
 Component Sizing Information, AirLoopHVAC, SYS_3_PSZ ALL_ST=LOBBY - PERFORMANCE ARTS_FL=STORY 1_SCH=C, Sum of Air Terminal Maximum Heating Flow Rates [m3/s], 7.71525
 Component Sizing Information, AirLoopHVAC, SYS_3_PSZ ALL_ST=LOBBY - PERFORMANCE ARTS_FL=STORY 1_SCH=C, Sum of Air Terminal Minimum Heating Flow Rates [m3/s], 7.71525
 Component Sizing Information, AirLoopHVAC, SYS_3_PSZ ALL_ST=LOBBY - PERFORMANCE ARTS_FL=STORY 1_SCH=C, Sum of Air Terminal Maximum Flow Rates [m3/s], 7.71525
 Component Sizing Information, AirLoopHVAC, SYS_3_PSZ ALL_ST=LOBBY - PERFORMANCE ARTS_FL=STORY 1_SCH=C, Adjusted Heating Design Air Flow Rate [m3/s], 7.71525
 Component Sizing Information, AirLoopHVAC, SYS_3_PSZ ALL_ST=LOBBY - PERFORMANCE ARTS_FL=STORY 1_SCH=C, Adjusted Cooling Design Air Flow Rate [m3/s], 7.71525
 Component Sizing Information, AirLoopHVAC, SYS_3_PSZ ALL_ST=LOBBY - PERFORMANCE ARTS_FL=STORY 1_SCH=C, Adjusted Main Design Air Flow Rate [m3/s], 7.71525
 Component Sizing Information, AirLoopHVAC, SYS_3_PSZ ALL_ST=LOBBY - PERFORMANCE ARTS_FL=STORY 1_SCH=C, User Heating Air Flow Ratio [], 1.00000
 Component Sizing Information, AirLoopHVAC, SYS_3_PSZ ALL_ST=LOBBY - PERFORMANCE ARTS_FL=STORY 1_SCH=C, Calculated Heating Air Flow Ratio [], 1.00000
 Component Sizing Information, AirLoopHVAC, SYS_3_PSZ ALL_ST=LOUNGE/RECREATION_FL=STORY 1_SCH=B, Sum of Air Terminal Maximum Heating Flow Rates [m3/s], 2.08452
 Component Sizing Information, AirLoopHVAC, SYS_3_PSZ ALL_ST=LOUNGE/RECREATION_FL=STORY 1_SCH=B, Sum of Air Terminal Minimum Heating Flow Rates [m3/s], 2.08452
 Component Sizing Information, AirLoopHVAC, SYS_3_PSZ ALL_ST=LOUNGE/RECREATION_FL=STORY 1_SCH=B, Sum of Air Terminal Maximum Flow Rates [m3/s], 2.08452
 Component Sizing Information, AirLoopHVAC, SYS_3_PSZ ALL_ST=LOUNGE/RECREATION_FL=STORY 1_SCH=B, Adjusted Heating Design Air Flow Rate [m3/s], 2.08452
 Component Sizing Information, AirLoopHVAC, SYS_3_PSZ ALL_ST=LOUNGE/RECREATION_FL=STORY 1_SCH=B, Adjusted Cooling Design Air Flow Rate [m3/s], 2.08452
 Component Sizing Information, AirLoopHVAC, SYS_3_PSZ ALL_ST=LOUNGE/RECREATION_FL=STORY 1_SCH=B, Adjusted Main Design Air Flow Rate [m3/s], 2.08452
 Component Sizing Information, AirLoopHVAC, SYS_3_PSZ ALL_ST=LOUNGE/RECREATION_FL=STORY 1_SCH=B, User Heating Air Flow Ratio [], 1.00000
 Component Sizing Information, AirLoopHVAC, SYS_3_PSZ ALL_ST=LOUNGE/RECREATION_FL=STORY 1_SCH=B, Calculated Heating Air Flow Ratio [], 1.00000
 Component Sizing Information, AirLoopHVAC, SYS_3_PSZ ALL_ST=MFG - 7.5 <= BAY H <= 15M_FL=STORY 1_SCH=A, Sum of Air Terminal Maximum Heating Flow Rates [m3/s], 2.94082
 Component Sizing Information, AirLoopHVAC, SYS_3_PSZ ALL_ST=MFG - 7.5 <= BAY H <= 15M_FL=STORY 1_SCH=A, Sum of Air Terminal Minimum Heating Flow Rates [m3/s], 2.94082
 Component Sizing Information, AirLoopHVAC, SYS_3_PSZ ALL_ST=MFG - 7.5 <= BAY H <= 15M_FL=STORY 1_SCH=A, Sum of Air Terminal Maximum Flow Rates [m3/s], 2.94082
 Component Sizing Information, AirLoopHVAC, SYS_3_PSZ ALL_ST=MFG - 7.5 <= BAY H <= 15M_FL=STORY 1_SCH=A, Adjusted Heating Design Air Flow Rate [m3/s], 2.94082
 Component Sizing Information, AirLoopHVAC, SYS_3_PSZ ALL_ST=MFG - 7.5 <= BAY H <= 15M_FL=STORY 1_SCH=A, Adjusted Cooling Design Air Flow Rate [m3/s], 2.94082
 Component Sizing Information, AirLoopHVAC, SYS_3_PSZ ALL_ST=MFG - 7.5 <= BAY H <= 15M_FL=STORY 1_SCH=A, Adjusted Main Design Air Flow Rate [m3/s], 2.94082
 Component Sizing Information, AirLoopHVAC, SYS_3_PSZ ALL_ST=MFG - 7.5 <= BAY H <= 15M_FL=STORY 1_SCH=A, User Heating Air Flow Ratio [], 1.00000
 Component Sizing Information, AirLoopHVAC, SYS_3_PSZ ALL_ST=MFG - 7.5 <= BAY H <= 15M_FL=STORY 1_SCH=A, Calculated Heating Air Flow Ratio [], 1.00000
 Component Sizing Information, AirLoopHVAC, SYS_3_PSZ ALL_ST=MFG - BAY H < 7.5M_FL=STORY 2_SCH=A, Sum of Air Terminal Maximum Heating Flow Rates [m3/s], 3.21486
[...]
 Component Sizing Information, Fan:ConstantVolume, FAN CONSTANT VOLUME 6, Design Size Maximum Flow Rate [m3/s], 7.71525
 Component Sizing Information, Controller:OutdoorAir, CONTROLLER OUTDOOR AIR 7, Maximum Outdoor Air Flow Rate [m3/s], 2.08452
 Component Sizing Information, Controller:OutdoorAir, CONTROLLER OUTDOOR AIR 7, Minimum Outdoor Air Flow Rate [m3/s], 1.76213
 Component Sizing Information, Coil:Cooling:DX:SingleSpeed, COIL COOLING DX SINGLE SPEED 7 118KBTU/HR 9.7EER, Design Size Rated Air Flow Rate [m3/s], 2.08452
 Component Sizing Information, Coil:Cooling:DX:SingleSpeed, COIL COOLING DX SINGLE SPEED 7 118KBTU/HR 9.7EER, Design Size Gross Rated Total Cooling Capacity [W], 34506.26434
 Component Sizing Information, Coil:Cooling:DX:SingleSpeed, COIL COOLING DX SINGLE SPEED 7 118KBTU/HR 9.7EER, Design Size Gross Rated Sensible Heat Ratio, 0.80066
 DX Cooling Coil Standard Rating Information, Coil:Cooling:DX:SingleSpeed, COIL COOLING DX SINGLE SPEED 7 118KBTU/HR 9.7EER, 32885.9, 2.77, 9.47, 9.99, 9.44
 Component Sizing Information, Coil:Heating:Fuel, COIL HEATING GAS 7, Design Size Nominal Capacity [W], 169470.25027
 Component Sizing Information, Fan:ConstantVolume, FAN CONSTANT VOLUME 7, Design Size Maximum Flow Rate [m3/s], 2.08452
 Component Sizing Information, Controller:OutdoorAir, CONTROLLER OUTDOOR AIR 8, Maximum Outdoor Air Flow Rate [m3/s], 2.94082
 Component Sizing Information, Controller:OutdoorAir, CONTROLLER OUTDOOR AIR 8, Minimum Outdoor Air Flow Rate [m3/s], 2.38125
 Component Sizing Information, HeatExchanger:AirToAir:SensibleAndLatent, SYS_3_PSZ ALL_ST=MFG - 7.5 <= BAY H <= 15M_FL=STORY 1_SCH=A ERV, Design Size Nominal Supply Air Flow Rate [m3/s], 2.38125
 Component Sizing Information, Coil:Cooling:DX:SingleSpeed, COIL COOLING DX SINGLE SPEED 8 175KBTU/HR 9.7EER, Design Size Rated Air Flow Rate [m3/s], 2.94082
 Component Sizing Information, Coil:Cooling:DX:SingleSpeed, COIL COOLING DX SINGLE SPEED 8 175KBTU/HR 9.7EER, Design Size Gross Rated Total Cooling Capacity [W], 54937.43540
 Component Sizing Information, Coil:Cooling:DX:SingleSpeed, COIL COOLING DX SINGLE SPEED 8 175KBTU/HR 9.7EER, Design Size Gross Rated Sensible Heat Ratio, 0.80079
 DX Cooling Coil Standard Rating Information, Coil:Cooling:DX:SingleSpeed, COIL COOLING DX SINGLE SPEED 8 175KBTU/HR 9.7EER, 52650.0, 2.87, 9.78, 10.32, 9.85
 Component Sizing Information, Coil:Heating:Fuel, COIL HEATING GAS 8, Design Size Nominal Capacity [W], 232027.11648
 Component Sizing Information, Fan:ConstantVolume, FAN CONSTANT VOLUME 8, Design Size Maximum Flow Rate [m3/s], 2.94082
 Component Sizing Information, Controller:OutdoorAir, CONTROLLER OUTDOOR AIR 9, Maximum Outdoor Air Flow Rate [m3/s], 3.21486
 Component Sizing Information, Controller:OutdoorAir, CONTROLLER OUTDOOR AIR 9, Minimum Outdoor Air Flow Rate [m3/s], 2.38125
 Component Sizing Information, HeatExchanger:AirToAir:SensibleAndLatent, SYS_3_PSZ ALL_ST=MFG - BAY H < 7.5M_FL=STORY 2_SCH=A ERV, Design Size Nominal Supply Air Flow Rate [m3/s], 2.38125
 Component Sizing Information, Coil:Cooling:DX:SingleSpeed, COIL COOLING DX SINGLE SPEED 9 182KBTU/HR 9.7EER, Design Size Rated Air Flow Rate [m3/s], 3.21486
 Component Sizing Information, Coil:Cooling:DX:SingleSpeed, COIL COOLING DX SINGLE SPEED 9 182KBTU/HR 9.7EER, Design Size Gross Rated Total Cooling Capacity [W], 57460.88291
 Component Sizing Information, Coil:Cooling:DX:SingleSpeed, COIL COOLING DX SINGLE SPEED 9 182KBTU/HR 9.7EER, Design Size Gross Rated Sensible Heat Ratio, 0.80050
 DX Cooling Coil Standard Rating Information, Coil:Cooling:DX:SingleSpeed, COIL COOLING DX SINGLE SPEED 9 182KBTU/HR 9.7EER, 54960.9, 2.85, 9.72, 10.26, 9.75
 Component Sizing Information, Coil:Heating:Fuel, COIL HEATING GAS 9, Design Size Nominal Capacity [W], 238952.38843
 Component Sizing Information, Fan:ConstantVolume, FAN CONSTANT VOLUME 9, Design Size Maximum Flow Rate [m3/s], 3.21486
 Component Sizing Information, Controller:OutdoorAir, CONTROLLER OUTDOOR AIR 10, Maximum Outdoor Air Flow Rate [m3/s], 4.68927
 Component Sizing Information, Controller:OutdoorAir, CONTROLLER OUTDOOR AIR 10, Minimum Outdoor Air Flow Rate [m3/s], 3.17500
 Component Sizing Information, HeatExchanger:AirToAir:SensibleAndLatent, SYS_3_PSZ ALL_ST=MFG - BAY H > 15M_FL=STORY 3_SCH=A ERV, Design Size Nominal Supply Air Flow Rate [m3/s], 3.17500
 Component Sizing Information, Coil:Cooling:DX:SingleSpeed, COIL COOLING DX SINGLE SPEED 10 265KBTU/HR 8.21EER, Design Size Rated Air Flow Rate [m3/s], 4.68927
 Component Sizing Information, Coil:Cooling:DX:SingleSpeed, COIL COOLING DX SINGLE SPEED 10 265KBTU/HR 8.21EER, Design Size Gross Rated Total Cooling Capacity [W], 81623.53594
 Component Sizing Information, Coil:Cooling:DX:SingleSpeed, COIL COOLING DX SINGLE SPEED 10 265KBTU/HR 8.21EER, Design Size Gross Rated Sensible Heat Ratio, 0.80064
 DX Cooling Coil Standard Rating Information, Coil:Cooling:DX:SingleSpeed, COIL COOLING DX SINGLE SPEED 10 265KBTU/HR 8.21EER, 77977.5, 2.49, 8.49, 8.97, 8.61
 Component Sizing Information, Coil:Heating:Fuel, COIL HEATING GAS 10, Design Size Nominal Capacity [W], 328052.14005
 Component Sizing Information, Fan:ConstantVolume, FAN CONSTANT VOLUME 10, Design Size Maximum Flow Rate [m3/s], 4.68927
 Component Sizing Information, Controller:OutdoorAir, CONTROLLER OUTDOOR AIR 1, Maximum Outdoor Air Flow Rate [m3/s], 25.07087
 Component Sizing Information, Controller:OutdoorAir, CONTROLLER OUTDOOR AIR 1, Minimum Outdoor Air Flow Rate [m3/s], 20.63750
 Component Sizing Information, HeatExchanger:AirToAir:SensibleAndLatent, SYS_4_PSZ_WILD_ST=MFG - CORR. < 2.4M-SCH-A_FL=STORY 2_SCH=C ERV, Design Size Nominal Supply Air Flow Rate [m3/s], 20.63750
 Component Sizing Information, Coil:Cooling:DX:SingleSpeed, COIL COOLING DX SINGLE SPEED 1 1416KBTU/HR 7.94EER, Design Size Rated Air Flow Rate [m3/s], 25.07087
 Component Sizing Information, Coil:Cooling:DX:SingleSpeed, COIL COOLING DX SINGLE SPEED 1 1416KBTU/HR 7.94EER, Design Size Gross Rated Total Cooling Capacity [W], 415011.83736
 Component Sizing Information, Coil:Cooling:DX:SingleSpeed, COIL COOLING DX SINGLE SPEED 1 1416KBTU/HR 7.94EER, Design Size Gross Rated Sensible Heat Ratio, 0.80066
 DX Cooling Coil Standard Rating Information, Coil:Cooling:DX:SingleSpeed, COIL COOLING DX SINGLE SPEED 1 1416KBTU/HR 7.94EER, 395523.8, 2.91, 9.94, 10.48, 9.86
 Component Sizing Information, Coil:Heating:Fuel, COIL HEATING GAS 1, Design Size Nominal Capacity [W], 2001865.55852
 Component Sizing Information, Fan:ConstantVolume, FAN CONSTANT VOLUME 1, Design Size Maximum Flow Rate [m3/s], 25.07087
 Component Sizing Information, Fan:VariableVolume, SYS6 RETURN FAN, Design Size Maximum Flow Rate [m3/s], 19.77458
 Component Sizing Information, Controller:OutdoorAir, CONTROLLER OUTDOOR AIR 11, Maximum Outdoor Air Flow Rate [m3/s], 19.77458
 Component Sizing Information, Controller:OutdoorAir, CONTROLLER OUTDOOR AIR 11, Minimum Outdoor Air Flow Rate [m3/s], 4.85775
 Component Sizing Information, HeatExchanger:AirToAir:SensibleAndLatent, SYS_6_VAV WITH REHEAT ERV, Design Size Nominal Supply Air Flow Rate [m3/s], 4.85775
 Component Sizing Information, Coil:Cooling:Water, COIL COOLING WATER 1, Design Size Design Coil Load [W], 343057.02100
 Component Sizing Information, Coil:Cooling:Water, COIL COOLING WATER 1, Design Size Design Water Flow Rate [m3/s], 1.36212E-002
 Component Sizing Information, Coil:Cooling:Water, COIL COOLING WATER 1, Design Size Design Air Flow Rate [m3/s], 19.77458
 Component Sizing Information, Coil:Cooling:Water, COIL COOLING WATER 1, Design Size Design Inlet Air Temperature [C], 25.08246
 Component Sizing Information, Coil:Cooling:Water, COIL COOLING WATER 1, Design Size Design Inlet Water Temperature [C], 7.00000
 Component Sizing Information, Coil:Cooling:Water, COIL COOLING WATER 1, Design Size Design Outlet Air Temperature [C], 13.00000
 Component Sizing Information, Coil:Cooling:Water, COIL COOLING WATER 1, Design Size Design Inlet Air Humidity Ratio, 8.73451E-003
 Component Sizing Information, Coil:Cooling:Water, COIL COOLING WATER 1, Design Size Design Outlet Air Humidity Ratio, 8.73451E-003
! <Water Cooling Coil Capacity Information>,Component Type,Name,Nominal Total Capacity {W},Nominal Sensible Capacity {W},Nominal Latent Capacity {W},Nominal Sensible Heat Ratio, Nominal Coil UA Value {W/C}, Nominal Coil Surface Area {m2}
Water Cooling Coil Capacity Information,Coil:Cooling:Water,COIL COOLING WATER 1,451198.46,316023.50,135174.96,0.70,50995.35,517.22
 Component Sizing Information, Coil:Heating:Water, COIL HEATING WATER 1, Design Size Rated Capacity [W], 268419.10974
 Component Sizing Information, Coil:Heating:Water, COIL HEATING WATER 1, Design Size Maximum Water Flow Rate [m3/s], 4.00906E-003
 Component Sizing Information, Coil:Heating:Water, COIL HEATING WATER 1, Design Size U-Factor Times Area Value [W/K], 3475.60808
Water Heating Coil Capacity Information,Coil:Heating:Water,COIL HEATING WATER 1,163608.91
 Component Sizing Information, Fan:VariableVolume, SYS6 SUPPLY FAN, Design Size Maximum Flow Rate [m3/s], 19.77458
 Component Sizing Information, Controller:WaterCoil, CONTROLLER WATER COIL 2, Maximum Actuated Flow [m3/s], 1.36212E-002
 Component Sizing Information, Controller:WaterCoil, CONTROLLER WATER COIL 2, Controller Convergence Tolerance, 3.49594E-005
 Component Sizing Information, Controller:WaterCoil, CONTROLLER WATER COIL 1, Maximum Actuated Flow [m3/s], 4.00906E-003
Water Heater Information,WaterHeater:Mixed,397GAL NATURALGAS WATER HEATER - 268KBTU/HR 0.808 THERM EFF,1.5025,78506.3,0.400,0.3939
 Component Sizing Information, PlantLoop, CHILLED WATER LOOP, Maximum Loop Flow Rate [m3/s], 1.36212E-002
 Component Sizing Information, PlantLoop, CHILLED WATER LOOP, Plant Loop Volume [m3], 1.63455
 Component Sizing Information, Pump:ConstantSpeed, PUMP CONSTANT SPEED 1, Design Flow Rate [m3/s], 1.36212E-002
 Component Sizing Information, Pump:ConstantSpeed, PUMP CONSTANT SPEED 1, Design Power Consumption [W], 3499.49610
 Component Sizing Information, Chiller:Electric:EIR, PRIMARY CHILLER WATERCOOLED SCROLL 100TONS 0.8KW/TON, Design Size Reference Chilled Water Flow Rate [m3/s], 1.36212E-002
 Component Sizing Information, Chiller:Electric:EIR, PRIMARY CHILLER WATERCOOLED SCROLL 100TONS 0.8KW/TON, Design Size Reference Capacity [W], 343051.30065
 Component Sizing Information, Chiller:Electric:EIR, PRIMARY CHILLER WATERCOOLED SCROLL 100TONS 0.8KW/TON, User-Specified Reference Capacity [W], 353061.51835
 Component Sizing Information, Chiller:Electric:EIR, PRIMARY CHILLER WATERCOOLED SCROLL 100TONS 0.8KW/TON, Design Size Reference Condenser Fluid Flow Rate [m3/s], 1.71777E-002
! <Chiller Standard Rating Information>, Component Type, Component Name, IPLV in SI Units {W/W}, IPLV in IP Units {Btu/W-h}
 Chiller Standard Rating Information, Chiller:Electric:EIR, PRIMARY CHILLER WATERCOOLED SCROLL 100TONS 0.8KW/TON, 5.66, 19.31
 Component Sizing Information, Chiller:Electric:EIR, SECONDARY CHILLER WATERCOOLED SCROLL 0TONS 0.8KW/TON, Design Size Reference Chilled Water Flow Rate [m3/s], 1.36212E-002
 Component Sizing Information, Chiller:Electric:EIR, SECONDARY CHILLER WATERCOOLED SCROLL 0TONS 0.8KW/TON, Design Size Reference Capacity [W], 343051.30065
 Component Sizing Information, Chiller:Electric:EIR, SECONDARY CHILLER WATERCOOLED SCROLL 0TONS 0.8KW/TON, User-Specified Reference Capacity [W], 1.00000E-003
 Component Sizing Information, Chiller:Electric:EIR, SECONDARY CHILLER WATERCOOLED SCROLL 0TONS 0.8KW/TON, Design Size Reference Condenser Fluid Flow Rate [m3/s], 4.87330E-011
 Chiller Standard Rating Information, Chiller:Electric:EIR, SECONDARY CHILLER WATERCOOLED SCROLL 0TONS 0.8KW/TON, 5.61, 19.14
 Component Sizing Information, PlantLoop, CONDENSER WATER LOOP, Maximum Loop Flow Rate [m3/s], 1.71777E-002
 Component Sizing Information, PlantLoop, CONDENSER WATER LOOP, Plant Loop Volume [m3], 2.06133
 Component Sizing Information, Pump:ConstantSpeed, PUMP CONSTANT SPEED 2, Design Flow Rate [m3/s], 1.71777E-002
 Component Sizing Information, Pump:ConstantSpeed, PUMP CONSTANT SPEED 2, Design Power Consumption [W], 4274.69780
 Component Sizing Information, CoolingTower:SingleSpeed, COOLING TOWER SINGLE SPEED 1, Design Water Flow Rate [m3/s], 1.71777E-002
 Component Sizing Information, CoolingTower:SingleSpeed, COOLING TOWER SINGLE SPEED 1, Design Air Flow Rate [m3/s], 17.76760
 Component Sizing Information, CoolingTower:SingleSpeed, COOLING TOWER SINGLE SPEED 1, U-Factor Times Area Value at Design Air Flow Rate [W/C], 15030.10953
 Component Sizing Information, CoolingTower:SingleSpeed, COOLING TOWER SINGLE SPEED 1, Free Convection Regime Air Flow Rate [m3/s], 1.77676
 Component Sizing Information, CoolingTower:SingleSpeed, COOLING TOWER SINGLE SPEED 1, Free Convection U-Factor Times Area Value [W/K], 1503.01095
 Component Sizing Information, PlantLoop, HOT WATER LOOP, Maximum Loop Flow Rate [m3/s], 1.61679E-002
 Component Sizing Information, PlantLoop, HOT WATER LOOP, Plant Loop Volume [m3], 1.94015
 Component Sizing Information, Pump:VariableSpeed, PUMP VARIABLE SPEED 1, Design Flow Rate [m3/s], 1.61679E-002
 Component Sizing Information, Pump:VariableSpeed, PUMP VARIABLE SPEED 1, Design Power Consumption [W], 4153.76657
 Component Sizing Information, Boiler:HotWater, PRIMARY BOILER 3708KBTU/HR 0.833 COMBUSTION EFF, Design Size Nominal Capacity [W], 1086682.16676
 Component Sizing Information, Boiler:HotWater, PRIMARY BOILER 3708KBTU/HR 0.833 COMBUSTION EFF, User-Specified Nominal Capacity [W], 1086682.16676
 Component Sizing Information, Boiler:HotWater, PRIMARY BOILER 3708KBTU/HR 0.833 COMBUSTION EFF, Design Size Design Water Flow Rate [m3/s], 1.61679E-002
 Component Sizing Information, Boiler:HotWater, SECONDARY BOILER 0KBTU/HR 0.85 AFUE, Design Size Nominal Capacity [W], 1086682.16676
 Component Sizing Information, Boiler:HotWater, SECONDARY BOILER 0KBTU/HR 0.85 AFUE, User-Specified Nominal Capacity [W], 1.00000E-003
 Component Sizing Information, Boiler:HotWater, SECONDARY BOILER 0KBTU/HR 0.85 AFUE, Design Size Design Water Flow Rate [m3/s], 1.61679E-002
 Component Sizing Information, PlantLoop, MAIN SERVICE WATER LOOP, Maximum Loop Flow Rate [m3/s], 4.18609E-004
 Component Sizing Information, PlantLoop, MAIN SERVICE WATER LOOP, Plant Loop Volume [m3], 5.02331E-002
 Component Sizing Information, Pump:ConstantSpeed, SERVICE WATER LOOP PUMP, Design Flow Rate [m3/s], 4.18609E-004
 Component Sizing Information, Pump:ConstantSpeed, SERVICE WATER LOOP PUMP, Design Power Consumption [W], 140.83020
 Component Sizing Information, WaterHeater:Mixed, 397GAL NATURALGAS WATER HEATER - 268KBTU/HR 0.808 THERM EFF, Use Side Design Flow Rate [m3/s], 4.18609E-004
! <Environment>,Environment Name,Environment Type, Start Date, End Date, Start DayOfWeek, Duration {#days}, Source:Start DayOfWeek,  Use Daylight Saving, Use Holidays, Apply Weekend Holiday Rule,  Use Rain Values, Use Snow Values
! <Environment:Special Days>, Special Day Name, Special Day Type, Source, Start Date, Duration {#days}
! <Environment:Daylight Saving>, Daylight Saving Indicator, Source, Start Date, End Date
! <Environment:WarmupDays>, NumberofWarmupDays
Environment,RUN PERIOD 1,WeatherFileRunPeriod,01/01,12/31,Sunday,365,Use RunPeriod Specified Day,No,No,No,Yes,Yes
Environment:Daylight Saving,No,RunPeriod Object
Environment:WarmupDays, 18
! <Tabular Report>,Style,Unit Conversion
Tabular Report,HTML,None
! <Warmup Convergence Information>,Zone Name,Environment Type/Name,Average Warmup Temperature Difference {deltaC},Std Dev Warmup Temperature Difference {deltaC},Max Temperature Pass/Fail Convergence,Min Temperature Pass/Fail Convergence,Average Warmup Load Difference {W},Std Dev Warmup Load Difference {W},Heating Load Pass/Fail Convergence,Cooling Load Pass/Fail Convergence
 Warmup Convergence Information,ALL_ST=LAB - RESEARCH_FL=STORY 4_SCH=A,RunPeriod: RUN PERIOD 1,3.2333773279E-002,4.8303795602E-002,Pass,Pass,5.7302650721E-002,0.1643864130,Pass,Pass
 Warmup Convergence Information,ALL_ST=LIBRARY - CATALOGING_FL=STORY 4_SCH=C,RunPeriod: RUN PERIOD 1,5.6103055932E-002,0.1999228101,Pass,Pass,0.4957619146,2.4752850831,Pass,Pass
 Warmup Convergence Information,ALL_ST=LIBRARY - READING_FL=STORY 4_SCH=C,RunPeriod: RUN PERIOD 1,5.6080326353E-002,0.2016468147,Pass,Pass,0.1133825361,0.2789901163,Pass,Pass
 Warmup Convergence Information,ALL_ST=LIBRARY - STACKS_FL=STORY 4_SCH=C,RunPeriod: RUN PERIOD 1,5.6159078150E-002,0.1920091979,Pass,Pass,0.2279586466,0.8408795173,Pass,Pass
 Warmup Convergence Information,ALL_ST=LOBBY - ELEVATOR_FL=STORY 3_SCH=C,RunPeriod: RUN PERIOD 1,4.6836534646E-002,0.1448201116,Pass,Pass,0.5814832759,5.5602572860,Pass,Pass
 Warmup Convergence Information,ALL_ST=LOBBY - MOTION PICTURE_FL=STORY 3_SCH=C,RunPeriod: RUN PERIOD 1,4.6086490390E-002,0.1389014636,Pass,Pass,9.3616984242E-002,0.3033373966,Pass,Pass
 Warmup Convergence Information,ALL_ST=LOBBY - OTHER_FL=STORY 3_SCH=C,RunPeriod: RUN PERIOD 1,3.9649477616E-002,0.1721188454,Pass,Pass,7.5989739486E-002,0.2281659061,Pass,Pass
 Warmup Convergence Information,ALL_ST=LOBBY - PERFORMANCE ARTS_FL=STORY 1_SCH=C,RunPeriod: RUN PERIOD 1,2.8588173513E-002,0.1114949814,Pass,Pass,0.1145509613,1.1528924227,Pass,Pass
 Warmup Convergence Information,ALL_ST=LOUNGE/RECREATION_FL=STORY 1_SCH=B,RunPeriod: RUN PERIOD 1,2.9941914531E-002,8.5276853658E-002,Pass,Pass,7.9340280033E-002,0.3785280399,Pass,Pass
 Warmup Convergence Information,ALL_ST=MFG - 7.5 <= BAY H <= 15M_FL=STORY 1_SCH=A,RunPeriod: RUN PERIOD 1,3.2763820814E-003,1.5261527617E-003,Pass,Pass,0.0000000000,0.0000000000,Pass,Pass
 Warmup Convergence Information,ALL_ST=MFG - BAY H < 7.5M_FL=STORY 2_SCH=A,RunPeriod: RUN PERIOD 1,8.0850197592E-003,5.7759400092E-003,Pass,Pass,0.0000000000,0.0000000000,Pass,Pass
 Warmup Convergence Information,ALL_ST=MFG - BAY H > 15M_FL=STORY 3_SCH=A,RunPeriod: RUN PERIOD 1,6.3700106854E-003,3.8204947492E-003,Pass,Pass,0.0000000000,0.0000000000,Pass,Pass
 Warmup Convergence Information,WILD_ST=MFG - CORR. < 2.4M-SCH-A_FL=STORY 2_SCH=C,RunPeriod: RUN PERIOD 1,2.4040491692E-002,7.2552365022E-002,Pass,Pass,5.8237566495E-002,0.1960823443,Pass,Pass
 Warmup Convergence Information,WILD_ST=MFG - CORR. < 2.4M-SCH-B_FL=STORY 1_SCH=C,RunPeriod: RUN PERIOD 1,2.9349274395E-002,6.8925918688E-002,Pass,Pass,6.7537939997E-002,0.2632437788,Pass,Pass
 Warmup Convergence Information,WILD_ST=MFG - CORR. < 2.4M-SCH-C_FL=STORY 4_SCH=C,RunPeriod: RUN PERIOD 1,5.7814339191E-002,0.2025291257,Pass,Pass,6.8159973364E-002,0.2081283104,Pass,Pass
 Warmup Convergence Information,WILD_ST=MFG - CORR. < 2.4M-SCH-D_FL=STORY 2_SCH=C,RunPeriod: RUN PERIOD 1,2.8793893485E-002,6.7827135787E-002,Pass,Pass,6.3507944520E-002,0.2198147413,Pass,Pass
 Warmup Convergence Information,WILD_ST=MFG - CORR. < 2.4M-SCH-E_FL=STORY 1_SCH=C,RunPeriod: RUN PERIOD 1,2.0581101688E-002,4.9811466312E-002,Pass,Pass,8.4155377745E-002,0.2605500730,Pass,Pass
 Warmup Convergence Information,WILD_ST=MFG - CORR. < 2.4M-SCH-F_FL=STORY 2_SCH=C,RunPeriod: RUN PERIOD 1,2.4634463448E-002,6.7737677249E-002,Pass,Pass,0.4565300010,2.6328696679,Pass,Pass
 Warmup Convergence Information,WILD_ST=MFG - CORR. < 2.4M-SCH-G_FL=STORY 3_SCH=C,RunPeriod: RUN PERIOD 1,3.2982100794E-002,0.1001635453,Pass,Pass,7.5659442185E-002,0.2125006912,Pass,Pass
 Warmup Convergence Information,WILD_ST=MFG - CORR. < 2.4M-SCH-H_FL=STORY 2_SCH=C,RunPeriod: RUN PERIOD 1,3.6954521222E-002,8.1859562531E-002,Pass,Pass,0.9025940081,8.8693724787,Pass,Pass
! <Program Control Information:Threads/Parallel Sims>, Threading Supported,Maximum Number of Threads, Env Set Threads (OMP_NUM_THREADS), EP Env Set Threads (EP_OMP_NUM_THREADS), IDF Set Threads, Number of Threads Used (Interior Radiant Exchange), Number Nominal Surfaces, Number Parallel Sims
Program Control:Threads/Parallel Sims, No,1, N/A, N/A, N/A, N/A, N/A, N/A
End of Data
