Program Version,EnergyPlus, Version 8.9.0-eba93e8e1b, YMD=2019.03.20 18:03
! <Version>, Version ID
 Version, 8.9
! <Timesteps per Hour>, #TimeSteps, Minutes per TimeStep {minutes}
 Timesteps per Hour,  6, 10
! <System Convergence Limits>, Minimum System TimeStep {minutes}, Max HVAC Iterations, Minimum Plant Iterations, Maximum Plant Iterations
 System Convergence Limits, 1, 20, 2, 8
! <Simulation Control>, Do Zone Sizing, Do System Sizing, Do Plant Sizing, Do Design Days, Do Weather Simulation, Do HVAC Sizing Simulation
 Simulation Control, Yes, Yes, Yes, Yes, No, No
! <Output Reporting Tolerances>, Tolerance for Time Heating Setpoint Not Met, Tolerance for Zone Cooling Setpoint Not Met Time
 Output Reporting Tolerances, 1.000, 1.000, 
! <Site:GroundTemperature:BuildingSurface>,Jan{C},Feb{C},Mar{C},Apr{C},May{C},Jun{C},Jul{C},Aug{C},Sep{C},Oct{C},Nov{C},Dec{C}
 Site:GroundTemperature:BuildingSurface,  19.53,  19.50,  19.54,  19.60,  20.00,  21.64,  22.23,  22.38,  21.45,  20.12,  19.80,  19.63
! <Site:GroundTemperature:FCfactorMethod>,Jan{C},Feb{C},Mar{C},Apr{C},May{C},Jun{C},Jul{C},Aug{C},Sep{C},Oct{C},Nov{C},Dec{C}
 Site:GroundTemperature:FCfactorMethod, -12.27, -13.66, -11.19,  -7.33,   2.77,  10.57,  15.83,  17.43,  14.70,   8.65,   0.56,  -6.95
! <Site:GroundTemperature:Shallow>,Jan{C},Feb{C},Mar{C},Apr{C},May{C},Jun{C},Jul{C},Aug{C},Sep{C},Oct{C},Nov{C},Dec{C}
 Site:GroundTemperature:Shallow,  13.00,  13.00,  13.00,  13.00,  13.00,  13.00,  13.00,  13.00,  13.00,  13.00,  13.00,  13.00
! <Site:GroundTemperature:Deep>,Jan{C},Feb{C},Mar{C},Apr{C},May{C},Jun{C},Jul{C},Aug{C},Sep{C},Oct{C},Nov{C},Dec{C}
 Site:GroundTemperature:Deep,  16.00,  16.00,  16.00,  16.00,  16.00,  16.00,  16.00,  16.00,  16.00,  16.00,  16.00,  16.00
! <Site:GroundReflectance>,Jan{dimensionless},Feb{dimensionless},Mar{dimensionless},Apr{dimensionless},May{dimensionless},Jun{dimensionless},Jul{dimensionless},Aug{dimensionless},Sep{dimensionless},Oct{dimensionless},Nov{dimensionless},Dec{dimensionless}
 Site:GroundReflectance,  0.20,  0.20,  0.20,  0.20,  0.20,  0.20,  0.20,  0.20,  0.20,  0.20,  0.20,  0.20
! <Site:GroundReflectance:SnowModifier>, Normal, Daylighting {dimensionless}
 Site:GroundReflectance:SnowModifier,   1.000,   1.000
! <Site:GroundReflectance:Snow>,Jan{dimensionless},Feb{dimensionless},Mar{dimensionless},Apr{dimensionless},May{dimensionless},Jun{dimensionless},Jul{dimensionless},Aug{dimensionless},Sep{dimensionless},Oct{dimensionless},Nov{dimensionless},Dec{dimensionless}
 Site:GroundReflectance:Snow,  0.20,  0.20,  0.20,  0.20,  0.20,  0.20,  0.20,  0.20,  0.20,  0.20,  0.20,  0.20
! <Site:GroundReflectance:Snow:Daylighting>,Jan{dimensionless},Feb{dimensionless},Mar{dimensionless},Apr{dimensionless},May{dimensionless},Jun{dimensionless},Jul{dimensionless},Aug{dimensionless},Sep{dimensionless},Oct{dimensionless},Nov{dimensionless},Dec{dimensionless}
 Site:GroundReflectance:Snow:Daylighting,  0.20,  0.20,  0.20,  0.20,  0.20,  0.20,  0.20,  0.20,  0.20,  0.20,  0.20,  0.20
! <Environment:Weather Station>,Wind Sensor Height Above Ground {m},Wind Speed Profile Exponent {},Wind Speed Profile Boundary Layer Thickness {m},Air Temperature Sensor Height Above Ground {m},Wind Speed Modifier Coefficient-Internal,Temperature Modifier Coefficient-Internal
Environment:Weather Station,10.000,0.140,270.000,1.500,1.586,9.750E-003
! <Site:Location>, Location Name, Latitude {N+/S- Deg}, Longitude {E+/W- Deg},  Time Zone Number {GMT+/-}, Elevation {m},  Standard Pressure at Elevation {Pa}, Standard RhoAir at Elevation
Site:Location,Fort McMurray AP AB CAN CWEC2016 WMO#=716890,56.65,-111.22,-7.00,369.10,96969,1.1525
! <Building Information>, Building Name,North Axis {deg},Terrain,  Loads Convergence Tolerance Value,Temperature Convergence Tolerance Value,  Solar Distribution,Maximum Number of Warmup Days,Minimum Number of Warmup Days
 Building Information,Building 1,0.000,Suburbs,4.00000E-002,0.40000,FullExterior,25,6
! <Inside Convection Algorithm>, Algorithm {Simple | TARP | CeilingDiffuser | AdaptiveConvectionAlgorithm}
Inside Convection Algorithm,TARP
! <Outside Convection Algorithm>, Algorithm {SimpleCombined | TARP | MoWitt | DOE-2 | AdaptiveConvectionAlgorithm}
Outside Convection Algorithm,TARP
! <Sky Radiance Distribution>, Value {Anisotropic}
Sky Radiance Distribution,Anisotropic
! <Zone Air Solution Algorithm>, Value {ThirdOrderBackwardDifference | AnalyticalSolution | EulerMethod}
 Zone Air Solution Algorithm, ThirdOrderBackwardDifference
! <Zone Air Carbon Dioxide Balance Simulation>, Simulation {Yes/No}, Carbon Dioxide Concentration
 Zone Air Carbon Dioxide Balance Simulation, No,N/A
! <Zone Air Generic Contaminant Balance Simulation>, Simulation {Yes/No}, Generic Contaminant Concentration
 Zone Air Generic Contaminant Balance Simulation, No,N/A
! <Zone Air Mass Flow Balance Simulation>, Enforce Mass Balance, Adjust Zone Mixing, Adjust Zone Infiltration {AddInfiltration | AdjustInfiltration | None}, Infiltration Zones {MixingSourceZonesOnly | AllZones}
 Zone Air Mass Flow Balance Simulation, No,N/A,N/A,N/A
! <HVACSystemRootFindingAlgorithm>, Value {RegulaFalsi | Bisection | BisectionThenRegulaFalsi | RegulaFalsiThenBisection}
 HVACSystemRootFindingAlgorithm, RegulaFalsi
! <Environment:Site Atmospheric Variation>,Wind Speed Profile Exponent {},Wind Speed Profile Boundary Layer Thickness {m},Air Temperature Gradient Coefficient {K/m}
Environment:Site Atmospheric Variation,0.220,370.000,6.500000E-003
! <Surface Geometry>,Starting Corner,Vertex Input Direction,Coordinate System,Daylight Reference Point Coordinate System,Rectangular (Simple) Surface Coordinate System
 Surface Geometry,UpperLeftCorner,Counterclockwise,RelativeCoordinateSystem,RelativeCoordinateSystem,RelativeToZoneOrigin
! <Surface Heat Transfer Algorithm>, Value {CTF - ConductionTransferFunction | EMPD - MoisturePenetrationDepthConductionTransferFunction | CondFD - ConductionFiniteDifference | HAMT - CombinedHeatAndMoistureFiniteElement} - Description,Inside Surface Max Temperature Limit{C}, Surface Convection Coefficient Lower Limit {W/m2-K}, Surface Convection Coefficient Upper Limit {W/m2-K}
Surface Heat Transfer Algorithm, CTF - ConductionTransferFunction,200,0.10,1000.0
! <Shading Summary>, Number of Fixed Detached Shades, Number of Building Detached Shades, Number of Attached Shades
 Shading Summary,0,0,0
! <Zone Summary>, Number of Zones, Number of Zone Surfaces, Number of SubSurfaces
 Zone Summary,20,137,17
! <Zone Information>,Zone Name,North Axis {deg},Origin X-Coordinate {m},Origin Y-Coordinate {m},Origin Z-Coordinate {m},Centroid X-Coordinate {m},Centroid Y-Coordinate {m},Centroid Z-Coordinate {m},Type,Zone Multiplier,Zone List Multiplier,Minimum X {m},Maximum X {m},Minimum Y {m},Maximum Y {m},Minimum Z {m},Maximum Z {m},Ceiling Height {m},Volume {m3},Zone Inside Convection Algorithm {Simple-Detailed-CeilingDiffuser-TrombeWall},Zone Outside Convection Algorithm {Simple-Detailed-Tarp-MoWitt-DOE-2-BLAST}, Floor Area {m2},Exterior Gross Wall Area {m2},Exterior Net Wall Area {m2},Exterior Window Area {m2}, Number of Surfaces, Number of SubSurfaces, Number of Shading SubSurfaces,  Part of Total Building Area
 Zone Information, ALL_ST=STORAGE AREA - OCCSENS_FL=STORY 4_SCH=E,0.0,25.00,25.00,11.40,50.00,50.00,13.30,1,1,1,25.00,75.00,25.00,75.00,11.40,15.20,3.80,9500.00,TARP,TARP,2500.00,0.00,0.00,125.00,6,1,0,Yes
 Zone Information, ALL_ST=STORAGE AREA - REFRIGERATED - OCCSENS_FL=STORY 3_SCH=E,0.0,0.00,0.00,7.60,10.85,50.00,9.50,1,1,1,0.00,25.00,0.00,100.00,7.60,11.40,3.80,7125.00,TARP,TARP,1875.00,380.00,285.00,95.00,6,1,0,Yes
 Zone Information, ALL_ST=STORAGE AREA - REFRIGERATED_FL=STORY 3_SCH=E,0.0,25.00,75.00,7.60,50.00,89.15,9.50,1,1,1,0.00,100.00,75.00,100.00,7.60,11.40,3.80,7125.00,TARP,TARP,1875.00,380.00,285.00,95.00,6,1,0,Yes
 Zone Information, ALL_ST=STORAGE AREA_FL=STORY 3_SCH=E,0.0,0.00,0.00,7.60,50.00,10.85,9.50,1,1,1,0.00,100.00,0.00,25.00,7.60,11.40,3.80,7125.00,TARP,TARP,1875.00,380.00,285.00,95.00,6,1,0,Yes
 Zone Information, ALL_ST=TRANSP. BAGGAGE_FL=STORY 1_SCH=H,0.0,0.00,0.00,0.00,10.85,50.00,1.90,1,1,1,0.00,25.00,0.00,100.00,0.00,3.80,3.80,7125.00,TARP,TARP,1875.00,0.00,0.00,0.00,6,0,0,Yes
 Zone Information, ALL_ST=TRANSP. CONCOURSE_FL=STORY 3_SCH=H,0.0,75.00,25.00,7.60,89.15,50.00,9.50,1,1,1,75.00,100.00,0.00,100.00,7.60,11.40,3.80,7125.00,TARP,TARP,1875.00,380.00,285.00,95.00,6,1,0,Yes
 Zone Information, ALL_ST=TRANSP. COUNTER_FL=STORY 1_SCH=H,0.0,25.00,75.00,0.00,50.00,89.15,1.90,1,1,1,0.00,100.00,75.00,100.00,0.00,3.80,3.80,7125.00,TARP,TARP,1875.00,0.00,0.00,0.00,6,0,0,Yes
 Zone Information, ALL_ST=TRANSP. SEATING_FL=STORY 1_SCH=H,0.0,75.00,25.00,0.00,89.15,50.00,1.90,1,1,1,75.00,100.00,0.00,100.00,0.00,3.80,3.80,7125.00,TARP,TARP,1875.00,0.00,0.00,0.00,6,0,0,Yes
 Zone Information, ALL_ST=WAREHOUSE - FINE - REFRIGERATED_FL=STORY 2_SCH=A,0.0,0.00,0.00,3.80,10.85,50.00,5.70,1,1,1,0.00,25.00,0.00,100.00,3.80,7.60,3.80,7125.00,TARP,TARP,1875.00,380.00,285.00,95.00,6,1,0,Yes
 Zone Information, ALL_ST=WAREHOUSE - FINE_FL=STORY 1_SCH=A,0.0,25.00,25.00,0.00,50.00,50.00,1.90,1,1,1,25.00,75.00,25.00,75.00,0.00,3.80,3.80,9500.00,TARP,TARP,2500.00,0.00,0.00,0.00,6,0,0,Yes
 Zone Information, ALL_ST=WAREHOUSE - MED/BLK - REFRIGERATED_FL=STORY 2_SCH=A,0.0,25.00,75.00,3.80,50.00,89.15,5.70,1,1,1,0.00,100.00,75.00,100.00,3.80,7.60,3.80,7125.00,TARP,TARP,1875.00,380.00,285.00,95.00,6,1,0,Yes
 Zone Information, ALL_ST=WAREHOUSE - MED/BLK2 - REFRIGERATED_FL=STORY 2_SCH=A,0.0,75.00,25.00,3.80,89.15,50.00,5.70,1,1,1,75.00,100.00,0.00,100.00,3.80,7.60,3.80,7125.00,TARP,TARP,1875.00,380.00,285.00,95.00,6,1,0,Yes
 Zone Information, ALL_ST=WAREHOUSE - MED/BLK2_FL=STORY 2_SCH=A,0.0,0.00,0.00,3.80,50.00,10.85,5.70,1,1,1,0.00,100.00,0.00,25.00,3.80,7.60,3.80,7125.00,TARP,TARP,1875.00,380.00,285.00,95.00,6,1,0,Yes
 Zone Information, ALL_ST=WAREHOUSE - MED/BLK_FL=STORY 1_SCH=A,0.0,0.00,0.00,0.00,50.00,10.85,1.90,1,1,1,0.00,100.00,0.00,25.00,0.00,3.80,3.80,7125.00,TARP,TARP,1875.00,0.00,0.00,0.00,6,0,0,Yes
 Zone Information, WET_ST=WASHROOM-SCH-A_FL=STORY 4_SCHA,0.0,0.00,0.00,11.40,50.00,10.85,13.30,1,1,1,0.00,100.00,0.00,25.00,11.40,15.20,3.80,7125.00,TARP,TARP,1875.00,380.00,285.00,188.75,6,2,0,Yes
 Zone Information, WET_ST=WASHROOM-SCH-B_FL=STORY 2_SCHA,0.0,25.00,25.00,3.80,50.00,50.00,5.70,1,1,1,25.00,75.00,25.00,75.00,3.80,7.60,3.80,9500.00,TARP,TARP,2500.00,0.00,0.00,0.00,6,0,0,Yes
 Zone Information, WILD_ST=STAIRWAY-SCH-F_FL=STORY 4_SCH=A,0.0,75.00,25.00,11.40,89.15,50.00,13.30,1,1,1,75.00,100.00,0.00,100.00,11.40,15.20,3.80,7125.00,TARP,TARP,1875.00,380.00,285.00,188.75,6,2,0,Yes
 Zone Information, WILD_ST=STAIRWAY-SCH-G_FL=STORY 4_SCH=A,0.0,25.00,75.00,11.40,50.00,89.15,13.30,1,1,1,0.00,100.00,75.00,100.00,11.40,15.20,3.80,7125.00,TARP,TARP,1875.00,380.00,285.00,188.75,6,2,0,Yes
 Zone Information, WILD_ST=STAIRWAY-SCH-H_FL=STORY 4_SCH=A,0.0,0.00,0.00,11.40,10.85,50.00,13.30,1,1,1,0.00,25.00,0.00,100.00,11.40,15.20,3.80,7125.00,TARP,TARP,1875.00,380.00,285.00,188.75,6,2,0,Yes
 Zone Information, WILD_ST=STAIRWAY-SCH-I_FL=STORY 3_SCH=A,0.0,25.00,25.00,7.60,50.00,50.00,9.50,1,1,1,25.00,75.00,25.00,75.00,7.60,11.40,3.80,9500.00,TARP,TARP,2500.00,0.00,0.00,0.00,6,0,0,Yes
! <Zone Internal Gains Nominal>,Zone Name, Floor Area {m2},# Occupants,Area per Occupant {m2/person},Occupant per Area {person/m2},Interior Lighting {W/m2},Electric Load {W/m2},Gas Load {W/m2},Other Load {W/m2},Hot Water Eq {W/m2},Steam Equipment {W/m2},Sum Loads per Area {W/m2},Outdoor Controlled Baseboard Heat
 Zone Internal Gains Nominal, ALL_ST=STORAGE AREA - OCCSENS_FL=STORY 4_SCH=E,2500.00,25.0,99.896,1.001E-002,6.120,1.000,0.000,0.000,0.000,0.000,7.120,No
 Zone Internal Gains Nominal, ALL_ST=STORAGE AREA - REFRIGERATED - OCCSENS_FL=STORY 3_SCH=E,1875.00,18.8,99.896,1.001E-002,6.120,1.000,0.000,0.000,0.000,0.000,7.120,No
 Zone Internal Gains Nominal, ALL_ST=STORAGE AREA - REFRIGERATED_FL=STORY 3_SCH=E,1875.00,18.8,99.896,1.001E-002,6.800,1.000,0.000,0.000,0.000,0.000,7.800,No
 Zone Internal Gains Nominal, ALL_ST=STORAGE AREA_FL=STORY 3_SCH=E,1875.00,18.8,99.896,1.001E-002,6.800,1.000,0.000,0.000,0.000,0.000,7.800,No
 Zone Internal Gains Nominal, ALL_ST=TRANSP. BAGGAGE_FL=STORY 1_SCH=H,1875.00,93.8,19.979,5.005E-002,8.200,2.500,0.000,0.000,0.000,0.000,10.700,No
 Zone Internal Gains Nominal, ALL_ST=TRANSP. CONCOURSE_FL=STORY 3_SCH=H,1875.00,93.8,19.979,5.005E-002,3.900,0.000,0.000,0.000,0.000,0.000,3.900,No
 Zone Internal Gains Nominal, ALL_ST=TRANSP. COUNTER_FL=STORY 1_SCH=H,1875.00,187.5,10.000,10.000E-002,11.600,2.500,0.000,0.000,0.000,0.000,14.100,No
 Zone Internal Gains Nominal, ALL_ST=TRANSP. SEATING_FL=STORY 1_SCH=H,1875.00,187.5,10.000,10.000E-002,5.800,0.000,0.000,0.000,0.000,0.000,5.800,No
 Zone Internal Gains Nominal, ALL_ST=WAREHOUSE - FINE - REFRIGERATED_FL=STORY 2_SCH=A,1875.00,37.5,49.948,2.002E-002,10.200,1.000,0.000,0.000,0.000,0.000,11.200,No
 Zone Internal Gains Nominal, ALL_ST=WAREHOUSE - FINE_FL=STORY 1_SCH=A,2500.00,50.1,49.948,2.002E-002,10.200,1.000,0.000,0.000,0.000,0.000,11.200,No
 Zone Internal Gains Nominal, ALL_ST=WAREHOUSE - MED/BLK - REFRIGERATED_FL=STORY 2_SCH=A,1875.00,18.8,99.896,1.001E-002,6.400,1.000,0.000,0.000,0.000,0.000,7.400,No
 Zone Internal Gains Nominal, ALL_ST=WAREHOUSE - MED/BLK2 - REFRIGERATED_FL=STORY 2_SCH=A,1875.00,18.8,99.896,1.001E-002,10.200,1.000,0.000,0.000,0.000,0.000,11.200,No
 Zone Internal Gains Nominal, ALL_ST=WAREHOUSE - MED/BLK2_FL=STORY 2_SCH=A,1875.00,18.8,99.896,1.001E-002,10.200,1.000,0.000,0.000,0.000,0.000,11.200,No
 Zone Internal Gains Nominal, ALL_ST=WAREHOUSE - MED/BLK_FL=STORY 1_SCH=A,1875.00,18.8,99.896,1.001E-002,6.400,1.000,0.000,0.000,0.000,0.000,7.400,No
 Zone Internal Gains Nominal, WET_ST=WASHROOM-SCH-A_FL=STORY 4_SCHA,1875.00,62.6,29.969,3.337E-002,9.450,1.000,0.000,0.000,0.000,0.000,10.450,No
 Zone Internal Gains Nominal, WET_ST=WASHROOM-SCH-B_FL=STORY 2_SCHA,2500.00,83.4,29.969,3.337E-002,9.450,1.000,0.000,0.000,0.000,0.000,10.450,No
 Zone Internal Gains Nominal, WILD_ST=STAIRWAY-SCH-F_FL=STORY 4_SCH=A,1875.00,9.3,201.963,4.951E-003,7.400,0.000,0.000,0.000,0.000,0.000,7.400,No
 Zone Internal Gains Nominal, WILD_ST=STAIRWAY-SCH-G_FL=STORY 4_SCH=A,1875.00,9.3,201.963,4.951E-003,7.400,0.000,0.000,0.000,0.000,0.000,7.400,No
 Zone Internal Gains Nominal, WILD_ST=STAIRWAY-SCH-H_FL=STORY 4_SCH=A,1875.00,9.3,201.963,4.951E-003,7.400,0.000,0.000,0.000,0.000,0.000,7.400,No
 Zone Internal Gains Nominal, WILD_ST=STAIRWAY-SCH-I_FL=STORY 3_SCH=A,2500.00,12.4,201.963,4.951E-003,7.400,0.000,0.000,0.000,0.000,0.000,7.400,No
! <People Internal Gains Nominal>,Name,Schedule Name,Zone Name,Zone Floor Area {m2},# Zone Occupants,Number of People {},People/Floor Area {person/m2},Floor Area per person {m2/person},Fraction Radiant,Fraction Convected,Sensible Fraction Calculation,Activity level,ASHRAE 55 Warnings,Carbon Dioxide Generation Rate,Nominal Minimum Number of People,Nominal Maximum Number of People
 People Internal Gains Nominal, WILD_ST=STAIRWAY-SCH-F_FL=STORY 4_SCH=A SPACE FUNCTION STAIRWAY-SCH-A PEOPLE,NECB-A-OCCUPANCY,WILD_ST=STAIRWAY-SCH-F_FL=STORY 4_SCH=A,1875.00,9.3,9.3,4.951E-003,201.963,0.300,0.700,AutoCalculate,NECB-ACTIVITY,No,3.8200E-008,0,8
 People Internal Gains Nominal, WILD_ST=STAIRWAY-SCH-G_FL=STORY 4_SCH=A SPACE FUNCTION STAIRWAY-SCH-A PEOPLE,NECB-A-OCCUPANCY,WILD_ST=STAIRWAY-SCH-G_FL=STORY 4_SCH=A,1875.00,9.3,9.3,4.951E-003,201.963,0.300,0.700,AutoCalculate,NECB-ACTIVITY,No,3.8200E-008,0,8
 People Internal Gains Nominal, WILD_ST=STAIRWAY-SCH-H_FL=STORY 4_SCH=A SPACE FUNCTION STAIRWAY-SCH-A PEOPLE,NECB-A-OCCUPANCY,WILD_ST=STAIRWAY-SCH-H_FL=STORY 4_SCH=A,1875.00,9.3,9.3,4.951E-003,201.963,0.300,0.700,AutoCalculate,NECB-ACTIVITY,No,3.8200E-008,0,8
 People Internal Gains Nominal, WILD_ST=STAIRWAY-SCH-I_FL=STORY 3_SCH=A SPACE FUNCTION STAIRWAY-SCH-A PEOPLE,NECB-A-OCCUPANCY,WILD_ST=STAIRWAY-SCH-I_FL=STORY 3_SCH=A,2500.00,12.4,12.4,4.951E-003,201.963,0.300,0.700,AutoCalculate,NECB-ACTIVITY,No,3.8200E-008,0,11
 People Internal Gains Nominal, ALL_ST=STORAGE AREA_FL=STORY 3_SCH=E SPACE FUNCTION STORAGE AREA PEOPLE,NECB-E-OCCUPANCY,ALL_ST=STORAGE AREA_FL=STORY 3_SCH=E,1875.00,18.8,18.8,1.001E-002,99.896,0.300,0.700,AutoCalculate,NECB-ACTIVITY,No,3.8200E-008,0,17
 People Internal Gains Nominal, ALL_ST=STORAGE AREA - OCCSENS_FL=STORY 4_SCH=E SPACE FUNCTION STORAGE AREA - OCCSENS PEOPLE,NECB-E-OCCUPANCY,ALL_ST=STORAGE AREA - OCCSENS_FL=STORY 4_SCH=E,2500.00,25.0,25.0,1.001E-002,99.896,0.300,0.700,AutoCalculate,NECB-ACTIVITY,No,3.8200E-008,0,23
 People Internal Gains Nominal, ALL_ST=STORAGE AREA - REFRIGERATED_FL=STORY 3_SCH=E SPACE FUNCTION STORAGE AREA - REFRIGERATED PEOPLE,NECB-E-OCCUPANCY,ALL_ST=STORAGE AREA - REFRIGERATED_FL=STORY 3_SCH=E,1875.00,18.8,18.8,1.001E-002,99.896,0.300,0.700,AutoCalculate,NECB-ACTIVITY,No,3.8200E-008,0,17
 People Internal Gains Nominal, ALL_ST=STORAGE AREA - REFRIGERATED - OCCSENS_FL=STORY 3_SCH=E SPACE FUNCTION STORAGE AREA - REFRIGERATED - OCCSENS PEOPLE,NECB-E-OCCUPANCY,ALL_ST=STORAGE AREA - REFRIGERATED - OCCSENS_FL=STORY 3_SCH=E,1875.00,18.8,18.8,1.001E-002,99.896,0.300,0.700,AutoCalculate,NECB-ACTIVITY,No,3.8200E-008,0,17
 People Internal Gains Nominal, ALL_ST=TRANSP. BAGGAGE_FL=STORY 1_SCH=H SPACE FUNCTION TRANSP. BAGGAGE PEOPLE,NECB-H-OCCUPANCY,ALL_ST=TRANSP. BAGGAGE_FL=STORY 1_SCH=H,1875.00,93.8,93.8,5.005E-002,19.979,0.300,0.700,AutoCalculate,NECB-ACTIVITY,No,3.8200E-008,84,84
 People Internal Gains Nominal, ALL_ST=TRANSP. CONCOURSE_FL=STORY 3_SCH=H SPACE FUNCTION TRANSP. CONCOURSE PEOPLE,NECB-H-OCCUPANCY,ALL_ST=TRANSP. CONCOURSE_FL=STORY 3_SCH=H,1875.00,93.8,93.8,5.005E-002,19.979,0.300,0.700,AutoCalculate,NECB-ACTIVITY,No,3.8200E-008,84,84
 People Internal Gains Nominal, ALL_ST=TRANSP. COUNTER_FL=STORY 1_SCH=H SPACE FUNCTION TRANSP. COUNTER PEOPLE,NECB-H-OCCUPANCY,ALL_ST=TRANSP. COUNTER_FL=STORY 1_SCH=H,1875.00,187.5,187.5,10.000E-002,10.000,0.300,0.700,AutoCalculate,NECB-ACTIVITY,No,3.8200E-008,169,169
 People Internal Gains Nominal, ALL_ST=TRANSP. SEATING_FL=STORY 1_SCH=H SPACE FUNCTION TRANSP. SEATING PEOPLE,NECB-H-OCCUPANCY,ALL_ST=TRANSP. SEATING_FL=STORY 1_SCH=H,1875.00,187.5,187.5,10.000E-002,10.000,0.300,0.700,AutoCalculate,NECB-ACTIVITY,No,3.8200E-008,169,169
 People Internal Gains Nominal, ALL_ST=WAREHOUSE - FINE_FL=STORY 1_SCH=A SPACE FUNCTION WAREHOUSE - FINE PEOPLE,NECB-A-OCCUPANCY,ALL_ST=WAREHOUSE - FINE_FL=STORY 1_SCH=A,2500.00,50.1,50.1,2.002E-002,49.948,0.300,0.700,AutoCalculate,NECB-ACTIVITY,No,3.8200E-008,0,45
 People Internal Gains Nominal, ALL_ST=WAREHOUSE - FINE - REFRIGERATED_FL=STORY 2_SCH=A SPACE FUNCTION WAREHOUSE - FINE - REFRIGERATED PEOPLE,NECB-A-OCCUPANCY,ALL_ST=WAREHOUSE - FINE - REFRIGERATED_FL=STORY 2_SCH=A,1875.00,37.5,37.5,2.002E-002,49.948,0.300,0.700,AutoCalculate,NECB-ACTIVITY,No,3.8200E-008,0,34
 People Internal Gains Nominal, ALL_ST=WAREHOUSE - MED/BLK_FL=STORY 1_SCH=A SPACE FUNCTION WAREHOUSE - MED/BLK PEOPLE,NECB-A-OCCUPANCY,ALL_ST=WAREHOUSE - MED/BLK_FL=STORY 1_SCH=A,1875.00,18.8,18.8,1.001E-002,99.896,0.300,0.700,AutoCalculate,NECB-ACTIVITY,No,3.8200E-008,0,17
 People Internal Gains Nominal, ALL_ST=WAREHOUSE - MED/BLK - REFRIGERATED_FL=STORY 2_SCH=A SPACE FUNCTION WAREHOUSE - MED/BLK - REFRIGERATED PEOPLE,NECB-A-OCCUPANCY,ALL_ST=WAREHOUSE - MED/BLK - REFRIGERATED_FL=STORY 2_SCH=A,1875.00,18.8,18.8,1.001E-002,99.896,0.300,0.700,AutoCalculate,NECB-ACTIVITY,No,3.8200E-008,0,17
 People Internal Gains Nominal, ALL_ST=WAREHOUSE - MED/BLK2_FL=STORY 2_SCH=A SPACE FUNCTION WAREHOUSE - MED/BLK2 PEOPLE,NECB-A-OCCUPANCY,ALL_ST=WAREHOUSE - MED/BLK2_FL=STORY 2_SCH=A,1875.00,18.8,18.8,1.001E-002,99.896,0.300,0.700,AutoCalculate,NECB-ACTIVITY,No,3.8200E-008,0,17
 People Internal Gains Nominal, ALL_ST=WAREHOUSE - MED/BLK2 - REFRIGERATED_FL=STORY 2_SCH=A SPACE FUNCTION WAREHOUSE - MED/BLK2 - REFRIGERATED PEOPLE,NECB-A-OCCUPANCY,ALL_ST=WAREHOUSE - MED/BLK2 - REFRIGERATED_FL=STORY 2_SCH=A,1875.00,18.8,18.8,1.001E-002,99.896,0.300,0.700,AutoCalculate,NECB-ACTIVITY,No,3.8200E-008,0,17
 People Internal Gains Nominal, WET_ST=WASHROOM-SCH-A_FL=STORY 4_SCHA SPACE FUNCTION WASHROOM-SCH-A PEOPLE,NECB-A-OCCUPANCY,WET_ST=WASHROOM-SCH-A_FL=STORY 4_SCHA,1875.00,62.6,62.6,3.337E-002,29.969,0.300,0.700,AutoCalculate,NECB-ACTIVITY,No,3.8200E-008,0,56
 People Internal Gains Nominal, WET_ST=WASHROOM-SCH-B_FL=STORY 2_SCHA SPACE FUNCTION WASHROOM-SCH-A PEOPLE,NECB-A-OCCUPANCY,WET_ST=WASHROOM-SCH-B_FL=STORY 2_SCHA,2500.00,83.4,83.4,3.337E-002,29.969,0.300,0.700,AutoCalculate,NECB-ACTIVITY,No,3.8200E-008,0,75
! <Lights Internal Gains Nominal>,Name,Schedule Name,Zone Name,Zone Floor Area {m2},# Zone Occupants,Lighting Level {W},Lights/Floor Area {W/m2},Lights per person {W/person},Fraction Return Air,Fraction Radiant,Fraction Short Wave,Fraction Convected,Fraction Replaceable,End-Use Category,Nominal Minimum Lighting Level {W},Nominal Maximum Lighting Level {W}
 Lights Internal Gains Nominal, WILD_ST=STAIRWAY-SCH-F_FL=STORY 4_SCH=A SPACE FUNCTION STAIRWAY-SCH-A LIGHTS,NECB-A-LIGHTING,WILD_ST=STAIRWAY-SCH-F_FL=STORY 4_SCH=A,1875.00,9.3,13874.885,7.400,1494.515,0.000,0.500,0.200,0.300,1.000,General,693.744,12487.396
 Lights Internal Gains Nominal, WILD_ST=STAIRWAY-SCH-G_FL=STORY 4_SCH=A SPACE FUNCTION STAIRWAY-SCH-A LIGHTS,NECB-A-LIGHTING,WILD_ST=STAIRWAY-SCH-G_FL=STORY 4_SCH=A,1875.00,9.3,13874.885,7.400,1494.515,0.000,0.500,0.200,0.300,1.000,General,693.744,12487.396
 Lights Internal Gains Nominal, WILD_ST=STAIRWAY-SCH-H_FL=STORY 4_SCH=A SPACE FUNCTION STAIRWAY-SCH-A LIGHTS,NECB-A-LIGHTING,WILD_ST=STAIRWAY-SCH-H_FL=STORY 4_SCH=A,1875.00,9.3,13874.885,7.400,1494.515,0.000,0.500,0.200,0.300,1.000,General,693.744,12487.396
 Lights Internal Gains Nominal, WILD_ST=STAIRWAY-SCH-I_FL=STORY 3_SCH=A SPACE FUNCTION STAIRWAY-SCH-A LIGHTS,NECB-A-LIGHTING,WILD_ST=STAIRWAY-SCH-I_FL=STORY 3_SCH=A,2500.00,12.4,18499.846,7.400,1494.515,0.000,0.500,0.200,0.300,1.000,General,924.992,16649.861
 Lights Internal Gains Nominal, ALL_ST=STORAGE AREA_FL=STORY 3_SCH=E SPACE FUNCTION STORAGE AREA LIGHTS,NECB-E-LIGHTING,ALL_ST=STORAGE AREA_FL=STORY 3_SCH=E,1875.00,18.8,12749.894,6.800,679.285,0.000,0.500,0.200,0.300,1.000,General,637.495,11474.904
 Lights Internal Gains Nominal, ALL_ST=STORAGE AREA - OCCSENS_FL=STORY 4_SCH=E SPACE FUNCTION STORAGE AREA - OCCSENS LIGHTS,NECB-E-LIGHTING,ALL_ST=STORAGE AREA - OCCSENS_FL=STORY 4_SCH=E,2500.00,25.0,15299.873,6.120,611.357,0.000,0.500,0.200,0.300,1.000,General,764.994,13769.885
 Lights Internal Gains Nominal, ALL_ST=STORAGE AREA - REFRIGERATED_FL=STORY 3_SCH=E SPACE FUNCTION STORAGE AREA - REFRIGERATED LIGHTS,NECB-E-LIGHTING,ALL_ST=STORAGE AREA - REFRIGERATED_FL=STORY 3_SCH=E,1875.00,18.8,12749.894,6.800,679.285,0.000,0.500,0.200,0.300,1.000,General,637.495,11474.904
 Lights Internal Gains Nominal, ALL_ST=STORAGE AREA - REFRIGERATED - OCCSENS_FL=STORY 3_SCH=E SPACE FUNCTION STORAGE AREA - REFRIGERATED - OCCSENS LIGHTS,NECB-E-LIGHTING,ALL_ST=STORAGE AREA - REFRIGERATED - OCCSENS_FL=STORY 3_SCH=E,1875.00,18.8,11474.905,6.120,611.357,0.000,0.500,0.200,0.300,1.000,General,573.745,10327.414
 Lights Internal Gains Nominal, ALL_ST=TRANSP. BAGGAGE_FL=STORY 1_SCH=H SPACE FUNCTION TRANSP. BAGGAGE LIGHTS,NECB-H-LIGHTING,ALL_ST=TRANSP. BAGGAGE_FL=STORY 1_SCH=H,1875.00,93.8,15374.872,8.200,163.828,0.000,0.500,0.200,0.300,1.000,General,13837.385,13837.385
 Lights Internal Gains Nominal, ALL_ST=TRANSP. CONCOURSE_FL=STORY 3_SCH=H SPACE FUNCTION TRANSP. CONCOURSE LIGHTS,NECB-H-LIGHTING,ALL_ST=TRANSP. CONCOURSE_FL=STORY 3_SCH=H,1875.00,93.8,7312.439,3.900,77.918,0.000,0.500,0.200,0.300,1.000,General,6581.195,6581.195
 Lights Internal Gains Nominal, ALL_ST=TRANSP. COUNTER_FL=STORY 1_SCH=H SPACE FUNCTION TRANSP. COUNTER LIGHTS,NECB-H-LIGHTING,ALL_ST=TRANSP. COUNTER_FL=STORY 1_SCH=H,1875.00,187.5,21749.819,11.600,116.003,0.000,0.500,0.200,0.300,1.000,General,19574.837,19574.837
 Lights Internal Gains Nominal, ALL_ST=TRANSP. SEATING_FL=STORY 1_SCH=H SPACE FUNCTION TRANSP. SEATING LIGHTS,NECB-H-LIGHTING,ALL_ST=TRANSP. SEATING_FL=STORY 1_SCH=H,1875.00,187.5,10874.910,5.800,58.001,0.000,0.500,0.200,0.300,1.000,General,9787.419,9787.419
 Lights Internal Gains Nominal, ALL_ST=WAREHOUSE - FINE_FL=STORY 1_SCH=A SPACE FUNCTION WAREHOUSE - FINE LIGHTS,NECB-A-LIGHTING,ALL_ST=WAREHOUSE - FINE_FL=STORY 1_SCH=A,2500.00,50.1,25499.788,10.200,509.464,0.000,0.500,0.200,0.300,1.000,General,1274.989,22949.809
 Lights Internal Gains Nominal, ALL_ST=WAREHOUSE - FINE - REFRIGERATED_FL=STORY 2_SCH=A SPACE FUNCTION WAREHOUSE - FINE - REFRIGERATED LIGHTS,NECB-A-LIGHTING,ALL_ST=WAREHOUSE - FINE - REFRIGERATED_FL=STORY 2_SCH=A,1875.00,37.5,19124.841,10.200,509.464,0.000,0.500,0.200,0.300,1.000,General,956.242,17212.357
 Lights Internal Gains Nominal, ALL_ST=WAREHOUSE - MED/BLK_FL=STORY 1_SCH=A SPACE FUNCTION WAREHOUSE - MED/BLK LIGHTS,NECB-A-LIGHTING,ALL_ST=WAREHOUSE - MED/BLK_FL=STORY 1_SCH=A,1875.00,18.8,11999.900,6.400,639.327,0.000,0.500,0.200,0.300,1.000,General,599.995,10799.910
 Lights Internal Gains Nominal, ALL_ST=WAREHOUSE - MED/BLK - REFRIGERATED_FL=STORY 2_SCH=A SPACE FUNCTION WAREHOUSE - MED/BLK - REFRIGERATED LIGHTS,NECB-A-LIGHTING,ALL_ST=WAREHOUSE - MED/BLK - REFRIGERATED_FL=STORY 2_SCH=A,1875.00,18.8,11999.900,6.400,639.327,0.000,0.500,0.200,0.300,1.000,General,599.995,10799.910
 Lights Internal Gains Nominal, ALL_ST=WAREHOUSE - MED/BLK2_FL=STORY 2_SCH=A SPACE FUNCTION WAREHOUSE - MED/BLK2 LIGHTS,NECB-A-LIGHTING,ALL_ST=WAREHOUSE - MED/BLK2_FL=STORY 2_SCH=A,1875.00,18.8,19124.841,10.200,1018.928,0.000,0.500,0.200,0.300,1.000,General,956.242,17212.357
 Lights Internal Gains Nominal, ALL_ST=WAREHOUSE - MED/BLK2 - REFRIGERATED_FL=STORY 2_SCH=A SPACE FUNCTION WAREHOUSE - MED/BLK2 - REFRIGERATED LIGHTS,NECB-A-LIGHTING,ALL_ST=WAREHOUSE - MED/BLK2 - REFRIGERATED_FL=STORY 2_SCH=A,1875.00,18.8,19124.841,10.200,1018.928,0.000,0.500,0.200,0.300,1.000,General,956.242,17212.357
 Lights Internal Gains Nominal, WET_ST=WASHROOM-SCH-A_FL=STORY 4_SCHA SPACE FUNCTION WASHROOM-SCH-A LIGHTS,NECB-A-LIGHTING,WET_ST=WASHROOM-SCH-A_FL=STORY 4_SCHA,1875.00,62.6,17718.603,9.450,283.202,0.000,0.500,0.200,0.300,1.000,General,885.930,15946.742
 Lights Internal Gains Nominal, WET_ST=WASHROOM-SCH-B_FL=STORY 2_SCHA SPACE FUNCTION WASHROOM-SCH-A LIGHTS,NECB-A-LIGHTING,WET_ST=WASHROOM-SCH-B_FL=STORY 2_SCHA,2500.00,83.4,23624.803,9.450,283.202,0.000,0.500,0.200,0.300,1.000,General,1181.240,21262.323
! <ElectricEquipment Internal Gains Nominal>,Name,Schedule Name,Zone Name,Zone Floor Area {m2},# Zone Occupants,Equipment Level {W},Equipment/Floor Area {W/m2},Equipment per person {W/person},Fraction Latent,Fraction Radiant,Fraction Lost,Fraction Convected,End-Use SubCategory,Nominal Minimum Equipment Level {W},Nominal Maximum Equipment Level {W}
 ElectricEquipment Internal Gains Nominal, ALL_ST=STORAGE AREA_FL=STORY 3_SCH=E SPACE FUNCTION STORAGE AREA ELEC EQUIP,NECB-E-ELECTRIC-EQUIPMENT,ALL_ST=STORAGE AREA_FL=STORY 3_SCH=E,1875.00,18.8,1874.984,1.000,99.895,0.000,0.500,0.000,0.500,General,93.749,1687.486
 ElectricEquipment Internal Gains Nominal, ALL_ST=STORAGE AREA - OCCSENS_FL=STORY 4_SCH=E SPACE FUNCTION STORAGE AREA - OCCSENS ELEC EQUIP,NECB-E-ELECTRIC-EQUIPMENT,ALL_ST=STORAGE AREA - OCCSENS_FL=STORY 4_SCH=E,2500.00,25.0,2499.979,1.000,99.895,0.000,0.500,0.000,0.500,General,124.999,2249.981
 ElectricEquipment Internal Gains Nominal, ALL_ST=STORAGE AREA - REFRIGERATED_FL=STORY 3_SCH=E SPACE FUNCTION STORAGE AREA - REFRIGERATED ELEC EQUIP,NECB-E-ELECTRIC-EQUIPMENT,ALL_ST=STORAGE AREA - REFRIGERATED_FL=STORY 3_SCH=E,1875.00,18.8,1874.984,1.000,99.895,0.000,0.500,0.000,0.500,General,93.749,1687.486
 ElectricEquipment Internal Gains Nominal, ALL_ST=STORAGE AREA - REFRIGERATED - OCCSENS_FL=STORY 3_SCH=E SPACE FUNCTION STORAGE AREA - REFRIGERATED - OCCSENS ELEC EQUIP,NECB-E-ELECTRIC-EQUIPMENT,ALL_ST=STORAGE AREA - REFRIGERATED - OCCSENS_FL=STORY 3_SCH=E,1875.00,18.8,1874.984,1.000,99.895,0.000,0.500,0.000,0.500,General,93.749,1687.486
 ElectricEquipment Internal Gains Nominal, ALL_ST=TRANSP. BAGGAGE_FL=STORY 1_SCH=H SPACE FUNCTION TRANSP. BAGGAGE ELEC EQUIP,NECB-H-ELECTRIC-EQUIPMENT,ALL_ST=TRANSP. BAGGAGE_FL=STORY 1_SCH=H,1875.00,93.8,4687.461,2.500,49.947,0.000,0.500,0.000,0.500,General,4218.715,4218.715
 ElectricEquipment Internal Gains Nominal, ALL_ST=TRANSP. COUNTER_FL=STORY 1_SCH=H SPACE FUNCTION TRANSP. COUNTER ELEC EQUIP,NECB-H-ELECTRIC-EQUIPMENT,ALL_ST=TRANSP. COUNTER_FL=STORY 1_SCH=H,1875.00,187.5,4687.461,2.500,25.001,0.000,0.500,0.000,0.500,General,4218.715,4218.715
 ElectricEquipment Internal Gains Nominal, ALL_ST=WAREHOUSE - FINE_FL=STORY 1_SCH=A SPACE FUNCTION WAREHOUSE - FINE ELEC EQUIP,NECB-A-ELECTRIC-EQUIPMENT,ALL_ST=WAREHOUSE - FINE_FL=STORY 1_SCH=A,2500.00,50.1,2499.979,1.000,49.947,0.000,0.500,0.000,0.500,General,499.996,2249.981
 ElectricEquipment Internal Gains Nominal, ALL_ST=WAREHOUSE - FINE - REFRIGERATED_FL=STORY 2_SCH=A SPACE FUNCTION WAREHOUSE - FINE - REFRIGERATED ELEC EQUIP,NECB-A-ELECTRIC-EQUIPMENT,ALL_ST=WAREHOUSE - FINE - REFRIGERATED_FL=STORY 2_SCH=A,1875.00,37.5,1874.984,1.000,49.947,0.000,0.500,0.000,0.500,General,374.997,1687.486
 ElectricEquipment Internal Gains Nominal, ALL_ST=WAREHOUSE - MED/BLK_FL=STORY 1_SCH=A SPACE FUNCTION WAREHOUSE - MED/BLK ELEC EQUIP,NECB-A-ELECTRIC-EQUIPMENT,ALL_ST=WAREHOUSE - MED/BLK_FL=STORY 1_SCH=A,1875.00,18.8,1874.984,1.000,99.895,0.000,0.500,0.000,0.500,General,374.997,1687.486
 ElectricEquipment Internal Gains Nominal, ALL_ST=WAREHOUSE - MED/BLK - REFRIGERATED_FL=STORY 2_SCH=A SPACE FUNCTION WAREHOUSE - MED/BLK - REFRIGERATED ELEC EQUIP,NECB-A-ELECTRIC-EQUIPMENT,ALL_ST=WAREHOUSE - MED/BLK - REFRIGERATED_FL=STORY 2_SCH=A,1875.00,18.8,1874.984,1.000,99.895,0.000,0.500,0.000,0.500,General,374.997,1687.486
 ElectricEquipment Internal Gains Nominal, ALL_ST=WAREHOUSE - MED/BLK2_FL=STORY 2_SCH=A SPACE FUNCTION WAREHOUSE - MED/BLK2 ELEC EQUIP,NECB-A-ELECTRIC-EQUIPMENT,ALL_ST=WAREHOUSE - MED/BLK2_FL=STORY 2_SCH=A,1875.00,18.8,1874.984,1.000,99.895,0.000,0.500,0.000,0.500,General,374.997,1687.486
 ElectricEquipment Internal Gains Nominal, ALL_ST=WAREHOUSE - MED/BLK2 - REFRIGERATED_FL=STORY 2_SCH=A SPACE FUNCTION WAREHOUSE - MED/BLK2 - REFRIGERATED ELEC EQUIP,NECB-A-ELECTRIC-EQUIPMENT,ALL_ST=WAREHOUSE - MED/BLK2 - REFRIGERATED_FL=STORY 2_SCH=A,1875.00,18.8,1874.984,1.000,99.895,0.000,0.500,0.000,0.500,General,374.997,1687.486
 ElectricEquipment Internal Gains Nominal, WET_ST=WASHROOM-SCH-A_FL=STORY 4_SCHA SPACE FUNCTION WASHROOM-SCH-A ELEC EQUIP,NECB-A-ELECTRIC-EQUIPMENT,WET_ST=WASHROOM-SCH-A_FL=STORY 4_SCHA,1875.00,62.6,1874.984,1.000,29.968,0.000,0.500,0.000,0.500,General,374.997,1687.486
 ElectricEquipment Internal Gains Nominal, WET_ST=WASHROOM-SCH-B_FL=STORY 2_SCHA SPACE FUNCTION WASHROOM-SCH-A ELEC EQUIP,NECB-A-ELECTRIC-EQUIPMENT,WET_ST=WASHROOM-SCH-B_FL=STORY 2_SCHA,2500.00,83.4,2499.979,1.000,29.968,0.000,0.500,0.000,0.500,General,499.996,2249.981
! <Shadowing/Sun Position Calculations Annual Simulations>, Calculation Method, Value {days}, Allowable Number Figures in Shadow Overlap {}, Polygon Clipping Algorithm, Sky Diffuse Modeling Algorithm, External Shading Calculation Method, Output External Shading Calculation Results, Disable Self-Shading Within Shading Zone Groups, Disable Self-Shading From Shading Zone Groups to Other Zones
Shadowing/Sun Position Calculations Annual Simulations,AverageOverDaysInFrequency,20,15000,SutherlandHodgman,SimpleSkyDiffuseModeling,InternalCalculation,No,No,No
! <Water Heater Information>,Type,Name,Volume {m3},Maximum Capacity {W},Standard Rated Recovery Efficiency, Standard Rated Energy Factor
! <ZoneInfiltration Airflow Stats Nominal>,Name,Schedule Name,Zone Name, Zone Floor Area {m2}, # Zone Occupants,Design Volume Flow Rate {m3/s},Volume Flow Rate/Floor Area {m3/s/m2},Volume Flow Rate/Exterior Surface Area {m3/s/m2},ACH - Air Changes per Hour,Equation A - Constant Term Coefficient {},Equation B - Temperature Term Coefficient {1/C},Equation C - Velocity Term Coefficient {s/m}, Equation D - Velocity Squared Term Coefficient {s2/m2}
 ZoneInfiltration Airflow Stats Nominal, STORAGE AREA - OCCSENS-SPACE FUNCTION INFILTRATION,ALWAYS ON DISCRETE,ALL_ST=STORAGE AREA - OCCSENS_FL=STORY 4_SCH=E,2500.00,25.0,0.625,2.500E-004,2.500E-004,0.237,0.000,0.000,0.224,0.000
 ZoneInfiltration Airflow Stats Nominal, STORAGE AREA - REFRIGERATED - OCCSENS-SPACE FUNCTION INFILTRATION,ALWAYS ON DISCRETE,ALL_ST=STORAGE AREA - REFRIGERATED - OCCSENS_FL=STORY 3_SCH=E,1875.00,18.8,9.500E-002,5.067E-005,2.500E-004,4.800E-002,0.000,0.000,0.224,0.000
 ZoneInfiltration Airflow Stats Nominal, STORAGE AREA - REFRIGERATED-SPACE FUNCTION INFILTRATION,ALWAYS ON DISCRETE,ALL_ST=STORAGE AREA - REFRIGERATED_FL=STORY 3_SCH=E,1875.00,18.8,9.500E-002,5.067E-005,2.500E-004,4.800E-002,0.000,0.000,0.224,0.000
 ZoneInfiltration Airflow Stats Nominal, STORAGE AREA-SPACE FUNCTION INFILTRATION,ALWAYS ON DISCRETE,ALL_ST=STORAGE AREA_FL=STORY 3_SCH=E,1875.00,18.8,9.500E-002,5.067E-005,2.500E-004,4.800E-002,0.000,0.000,0.224,0.000
 ZoneInfiltration Airflow Stats Nominal, TRANSP. CONCOURSE-SPACE FUNCTION INFILTRATION,ALWAYS ON DISCRETE,ALL_ST=TRANSP. CONCOURSE_FL=STORY 3_SCH=H,1875.00,93.8,9.500E-002,5.067E-005,2.500E-004,4.800E-002,0.000,0.000,0.224,0.000
 ZoneInfiltration Airflow Stats Nominal, WAREHOUSE - FINE - REFRIGERATED-SPACE FUNCTION INFILTRATION,ALWAYS ON DISCRETE,ALL_ST=WAREHOUSE - FINE - REFRIGERATED_FL=STORY 2_SCH=A,1875.00,37.5,9.500E-002,5.067E-005,2.500E-004,4.800E-002,0.000,0.000,0.224,0.000
 ZoneInfiltration Airflow Stats Nominal, WAREHOUSE - MED/BLK - REFRIGERATED-SPACE FUNCTION INFILTRATION,ALWAYS ON DISCRETE,ALL_ST=WAREHOUSE - MED/BLK - REFRIGERATED_FL=STORY 2_SCH=A,1875.00,18.8,9.500E-002,5.067E-005,2.500E-004,4.800E-002,0.000,0.000,0.224,0.000
 ZoneInfiltration Airflow Stats Nominal, WAREHOUSE - MED/BLK2 - REFRIGERATED-SPACE FUNCTION INFILTRATION,ALWAYS ON DISCRETE,ALL_ST=WAREHOUSE - MED/BLK2 - REFRIGERATED_FL=STORY 2_SCH=A,1875.00,18.8,9.500E-002,5.067E-005,2.500E-004,4.800E-002,0.000,0.000,0.224,0.000
 ZoneInfiltration Airflow Stats Nominal, WAREHOUSE - MED/BLK2-SPACE FUNCTION INFILTRATION,ALWAYS ON DISCRETE,ALL_ST=WAREHOUSE - MED/BLK2_FL=STORY 2_SCH=A,1875.00,18.8,9.500E-002,5.067E-005,2.500E-004,4.800E-002,0.000,0.000,0.224,0.000
 ZoneInfiltration Airflow Stats Nominal, WASHROOM-SCH-A-SPACE FUNCTION INFILTRATION,ALWAYS ON DISCRETE,WET_ST=WASHROOM-SCH-A_FL=STORY 4_SCHA,1875.00,62.6,0.564,3.007E-004,2.500E-004,0.285,0.000,0.000,0.224,0.000
 ZoneInfiltration Airflow Stats Nominal, STAIRWAY-SCH-F-SPACE FUNCTION INFILTRATION,ALWAYS ON DISCRETE,WILD_ST=STAIRWAY-SCH-F_FL=STORY 4_SCH=A,1875.00,9.3,0.564,3.007E-004,2.500E-004,0.285,0.000,0.000,0.224,0.000
 ZoneInfiltration Airflow Stats Nominal, STAIRWAY-SCH-G-SPACE FUNCTION INFILTRATION,ALWAYS ON DISCRETE,WILD_ST=STAIRWAY-SCH-G_FL=STORY 4_SCH=A,1875.00,9.3,0.564,3.007E-004,2.500E-004,0.285,0.000,0.000,0.224,0.000
 ZoneInfiltration Airflow Stats Nominal, STAIRWAY-SCH-H-SPACE FUNCTION INFILTRATION,ALWAYS ON DISCRETE,WILD_ST=STAIRWAY-SCH-H_FL=STORY 4_SCH=A,1875.00,9.3,0.564,3.007E-004,2.500E-004,0.285,0.000,0.000,0.224,0.000
 ZoneInfiltration Airflow Stats Nominal, WILD_ST=STAIRWAY-SCH-F_FL=STORY 4_SCH=A SPACE FUNCTION STAIRWAY-SCH-A INFILTRATION,ALWAYS ON,WILD_ST=STAIRWAY-SCH-F_FL=STORY 4_SCH=A,1875.00,9.3,0.564,3.007E-004,2.501E-004,0.285,1.000,0.000,0.000,0.000
 ZoneInfiltration Airflow Stats Nominal, WILD_ST=STAIRWAY-SCH-G_FL=STORY 4_SCH=A SPACE FUNCTION STAIRWAY-SCH-A INFILTRATION,ALWAYS ON,WILD_ST=STAIRWAY-SCH-G_FL=STORY 4_SCH=A,1875.00,9.3,0.564,3.007E-004,2.501E-004,0.285,1.000,0.000,0.000,0.000
 ZoneInfiltration Airflow Stats Nominal, WILD_ST=STAIRWAY-SCH-H_FL=STORY 4_SCH=A SPACE FUNCTION STAIRWAY-SCH-A INFILTRATION,ALWAYS ON,WILD_ST=STAIRWAY-SCH-H_FL=STORY 4_SCH=A,1875.00,9.3,0.564,3.007E-004,2.501E-004,0.285,1.000,0.000,0.000,0.000
 ZoneInfiltration Airflow Stats Nominal, WILD_ST=STAIRWAY-SCH-I_FL=STORY 3_SCH=A SPACE FUNCTION STAIRWAY-SCH-A INFILTRATION,ALWAYS ON,WILD_ST=STAIRWAY-SCH-I_FL=STORY 3_SCH=A,2500.00,12.4,0.000,0.000,N/A,0.000,1.000,0.000,0.000,0.000
! <AirFlow Model>, Simple
 AirFlow Model, Simple
! <RoomAir Model>, Zone Name, Mixing/Mundt/UCSDDV/UCSDCV/UCSDUFI/UCSDUFE/User Defined
RoomAir Model,ALL_ST=STORAGE AREA - OCCSENS_FL=STORY 4_SCH=E,Mixing/Well-Stirred
RoomAir Model,ALL_ST=STORAGE AREA - REFRIGERATED - OCCSENS_FL=STORY 3_SCH=E,Mixing/Well-Stirred
RoomAir Model,ALL_ST=STORAGE AREA - REFRIGERATED_FL=STORY 3_SCH=E,Mixing/Well-Stirred
RoomAir Model,ALL_ST=STORAGE AREA_FL=STORY 3_SCH=E,Mixing/Well-Stirred
RoomAir Model,ALL_ST=TRANSP. BAGGAGE_FL=STORY 1_SCH=H,Mixing/Well-Stirred
RoomAir Model,ALL_ST=TRANSP. CONCOURSE_FL=STORY 3_SCH=H,Mixing/Well-Stirred
RoomAir Model,ALL_ST=TRANSP. COUNTER_FL=STORY 1_SCH=H,Mixing/Well-Stirred
RoomAir Model,ALL_ST=TRANSP. SEATING_FL=STORY 1_SCH=H,Mixing/Well-Stirred
RoomAir Model,ALL_ST=WAREHOUSE - FINE - REFRIGERATED_FL=STORY 2_SCH=A,Mixing/Well-Stirred
RoomAir Model,ALL_ST=WAREHOUSE - FINE_FL=STORY 1_SCH=A,Mixing/Well-Stirred
RoomAir Model,ALL_ST=WAREHOUSE - MED/BLK - REFRIGERATED_FL=STORY 2_SCH=A,Mixing/Well-Stirred
RoomAir Model,ALL_ST=WAREHOUSE - MED/BLK2 - REFRIGERATED_FL=STORY 2_SCH=A,Mixing/Well-Stirred
RoomAir Model,ALL_ST=WAREHOUSE - MED/BLK2_FL=STORY 2_SCH=A,Mixing/Well-Stirred
RoomAir Model,ALL_ST=WAREHOUSE - MED/BLK_FL=STORY 1_SCH=A,Mixing/Well-Stirred
RoomAir Model,WET_ST=WASHROOM-SCH-A_FL=STORY 4_SCHA,Mixing/Well-Stirred
RoomAir Model,WET_ST=WASHROOM-SCH-B_FL=STORY 2_SCHA,Mixing/Well-Stirred
RoomAir Model,WILD_ST=STAIRWAY-SCH-F_FL=STORY 4_SCH=A,Mixing/Well-Stirred
RoomAir Model,WILD_ST=STAIRWAY-SCH-G_FL=STORY 4_SCH=A,Mixing/Well-Stirred
RoomAir Model,WILD_ST=STAIRWAY-SCH-H_FL=STORY 4_SCH=A,Mixing/Well-Stirred
RoomAir Model,WILD_ST=STAIRWAY-SCH-I_FL=STORY 3_SCH=A,Mixing/Well-Stirred
! <AirflowNetwork Model:Control>, No Multizone or Distribution/Multizone with Distribution/Multizone without Distribution/Multizone with Distribution only during Fan Operation
AirflowNetwork Model:Control,NoMultizoneOrDistribution
! <Zone Volume Capacitance Multiplier>, Sensible Heat Capacity Multiplier, Moisture Capacity Multiplier, Carbon Dioxide Capacity Multiplier, Generic Contaminant Capacity Multiplier
Zone Volume Capacitance Multiplier,   1.000 ,   1.000,   1.000,   1.000
! <Load Timesteps in Zone Design Calculation Averaging Window>, Value
 Load Timesteps in Zone Design Calculation Averaging Window,    6
! <Heating Sizing Factor Information>, Sizing Factor ID, Value
 Heating Sizing Factor Information, Global,   1.3000    
 Heating Sizing Factor Information, Zone ALL_ST=STORAGE AREA - OCCSENS_FL=STORY 4_SCH=E,   1.3000    
 Heating Sizing Factor Information, Zone ALL_ST=STORAGE AREA - REFRIGERATED - OCCSENS_FL=STORY 3_SCH=E,   1.3000    
 Heating Sizing Factor Information, Zone ALL_ST=STORAGE AREA - REFRIGERATED_FL=STORY 3_SCH=E,   1.3000    
 Heating Sizing Factor Information, Zone ALL_ST=STORAGE AREA_FL=STORY 3_SCH=E,   1.3000    
 Heating Sizing Factor Information, Zone ALL_ST=TRANSP. BAGGAGE_FL=STORY 1_SCH=H,   1.3000    
 Heating Sizing Factor Information, Zone ALL_ST=TRANSP. CONCOURSE_FL=STORY 3_SCH=H,   1.3000    
 Heating Sizing Factor Information, Zone ALL_ST=TRANSP. COUNTER_FL=STORY 1_SCH=H,   1.3000    
 Heating Sizing Factor Information, Zone ALL_ST=TRANSP. SEATING_FL=STORY 1_SCH=H,   1.3000    
 Heating Sizing Factor Information, Zone ALL_ST=WAREHOUSE - FINE - REFRIGERATED_FL=STORY 2_SCH=A,   1.3000    
 Heating Sizing Factor Information, Zone ALL_ST=WAREHOUSE - FINE_FL=STORY 1_SCH=A,   1.3000    
 Heating Sizing Factor Information, Zone ALL_ST=WAREHOUSE - MED/BLK - REFRIGERATED_FL=STORY 2_SCH=A,   1.3000    
 Heating Sizing Factor Information, Zone ALL_ST=WAREHOUSE - MED/BLK2 - REFRIGERATED_FL=STORY 2_SCH=A,   1.3000    
 Heating Sizing Factor Information, Zone ALL_ST=WAREHOUSE - MED/BLK2_FL=STORY 2_SCH=A,   1.3000    
 Heating Sizing Factor Information, Zone ALL_ST=WAREHOUSE - MED/BLK_FL=STORY 1_SCH=A,   1.3000    
 Heating Sizing Factor Information, Zone WET_ST=WASHROOM-SCH-A_FL=STORY 4_SCHA,   1.3000    
 Heating Sizing Factor Information, Zone WET_ST=WASHROOM-SCH-B_FL=STORY 2_SCHA,   1.3000    
 Heating Sizing Factor Information, Zone WILD_ST=STAIRWAY-SCH-F_FL=STORY 4_SCH=A,   1.3000    
 Heating Sizing Factor Information, Zone WILD_ST=STAIRWAY-SCH-G_FL=STORY 4_SCH=A,   1.3000    
 Heating Sizing Factor Information, Zone WILD_ST=STAIRWAY-SCH-H_FL=STORY 4_SCH=A,   1.3000    
 Heating Sizing Factor Information, Zone WILD_ST=STAIRWAY-SCH-I_FL=STORY 3_SCH=A,   1.3000    
! <Cooling Sizing Factor Information>, Sizing Factor ID, Value
 Cooling Sizing Factor Information, Global,   1.1000    
 Cooling Sizing Factor Information, Zone ALL_ST=STORAGE AREA - OCCSENS_FL=STORY 4_SCH=E,   1.1000    
 Cooling Sizing Factor Information, Zone ALL_ST=STORAGE AREA - REFRIGERATED - OCCSENS_FL=STORY 3_SCH=E,   1.1000    
 Cooling Sizing Factor Information, Zone ALL_ST=STORAGE AREA - REFRIGERATED_FL=STORY 3_SCH=E,   1.1000    
 Cooling Sizing Factor Information, Zone ALL_ST=STORAGE AREA_FL=STORY 3_SCH=E,   1.1000    
 Cooling Sizing Factor Information, Zone ALL_ST=TRANSP. BAGGAGE_FL=STORY 1_SCH=H,   1.1000    
 Cooling Sizing Factor Information, Zone ALL_ST=TRANSP. CONCOURSE_FL=STORY 3_SCH=H,   1.1000    
 Cooling Sizing Factor Information, Zone ALL_ST=TRANSP. COUNTER_FL=STORY 1_SCH=H,   1.1000    
 Cooling Sizing Factor Information, Zone ALL_ST=TRANSP. SEATING_FL=STORY 1_SCH=H,   1.1000    
 Cooling Sizing Factor Information, Zone ALL_ST=WAREHOUSE - FINE - REFRIGERATED_FL=STORY 2_SCH=A,   1.1000    
 Cooling Sizing Factor Information, Zone ALL_ST=WAREHOUSE - FINE_FL=STORY 1_SCH=A,   1.1000    
 Cooling Sizing Factor Information, Zone ALL_ST=WAREHOUSE - MED/BLK - REFRIGERATED_FL=STORY 2_SCH=A,   1.1000    
 Cooling Sizing Factor Information, Zone ALL_ST=WAREHOUSE - MED/BLK2 - REFRIGERATED_FL=STORY 2_SCH=A,   1.1000    
 Cooling Sizing Factor Information, Zone ALL_ST=WAREHOUSE - MED/BLK2_FL=STORY 2_SCH=A,   1.1000    
 Cooling Sizing Factor Information, Zone ALL_ST=WAREHOUSE - MED/BLK_FL=STORY 1_SCH=A,   1.1000    
 Cooling Sizing Factor Information, Zone WET_ST=WASHROOM-SCH-A_FL=STORY 4_SCHA,   1.1000    
 Cooling Sizing Factor Information, Zone WET_ST=WASHROOM-SCH-B_FL=STORY 2_SCHA,   1.1000    
 Cooling Sizing Factor Information, Zone WILD_ST=STAIRWAY-SCH-F_FL=STORY 4_SCH=A,   1.1000    
 Cooling Sizing Factor Information, Zone WILD_ST=STAIRWAY-SCH-G_FL=STORY 4_SCH=A,   1.1000    
 Cooling Sizing Factor Information, Zone WILD_ST=STAIRWAY-SCH-H_FL=STORY 4_SCH=A,   1.1000    
 Cooling Sizing Factor Information, Zone WILD_ST=STAIRWAY-SCH-I_FL=STORY 3_SCH=A,   1.1000    
! <Zone Sizing Information>, Zone Name, Load Type, Calc Des Load {W}, User Des Load {W}, Calc Des Air Flow Rate {m3/s}, User Des Air Flow Rate {m3/s}, Design Day Name, Date/Time of Peak, Temperature at Peak {C}, Humidity Ratio at Peak {kgWater/kgDryAir}, Floor Area {m2}, # Occupants, Calc Outdoor Air Flow Rate {m3/s}, Calc DOAS Heat Addition Rate {W}
 Zone Sizing Information, ALL_ST=STORAGE AREA - OCCSENS_FL=STORY 4_SCH=E, Cooling, 63818.23512, 70200.05863, 4.93216, 5.42537, FORT MCMURRAY AP ANN CLG .4% CONDNS DB=>MWB, 7/21 13:40:00, 28.69333, 8.76969E-003, 2500.00000, 25.02609, 0.88900, 0.00000
 Zone Sizing Information, ALL_ST=STORAGE AREA - OCCSENS_FL=STORY 4_SCH=E, Heating, 50469.08731, 65609.81351, 2.00342, 2.60444, FORT MCMURRAY AP ANN HTG 99.6% CONDNS DB, 1/21 09:00:00, -36.20000, 1.25811E-004, 2500.00000, 25.02609, 0.88900, 0.00000
 Zone Sizing Information, ALL_ST=STORAGE AREA - REFRIGERATED - OCCSENS_FL=STORY 3_SCH=E, Cooling, 40977.19542, 45074.91497, 3.16689, 3.48358, FORT MCMURRAY AP ANN CLG .4% CONDNS DB=>MWB, 7/21 18:00:00, 25.92400, 8.76969E-003, 1875.00000, 18.76957, 0.66675, 0.00000
 Zone Sizing Information, ALL_ST=STORAGE AREA - REFRIGERATED - OCCSENS_FL=STORY 3_SCH=E, Heating, 33175.44640, 43128.08033, 1.31413, 1.70836, FORT MCMURRAY AP ANN HTG 99.6% CONDNS DB, 1/21 09:00:00, -36.20000, 1.25811E-004, 1875.00000, 18.76957, 0.66675, 0.00000
 Zone Sizing Information, ALL_ST=STORAGE AREA - REFRIGERATED_FL=STORY 3_SCH=E, Cooling, 23285.62612, 25614.18873, 1.79961, 1.97957, FORT MCMURRAY AP ANN CLG .4% CONDNS DB=>MWB, 7/21 16:50:00, 27.32933, 8.76969E-003, 1875.00000, 18.76957, 0.66675, 0.00000
 Zone Sizing Information, ALL_ST=STORAGE AREA - REFRIGERATED_FL=STORY 3_SCH=E, Heating, 32727.87011, 42546.23115, 1.29599, 1.68478, FORT MCMURRAY AP ANN HTG 99.6% CONDNS DB, 1/21 09:00:00, -36.20000, 1.25811E-004, 1875.00000, 18.76957, 0.66675, 0.00000
 Zone Sizing Information, ALL_ST=STORAGE AREA_FL=STORY 3_SCH=E, Cooling, 34571.26808, 38028.39489, 2.67182, 2.93900, FORT MCMURRAY AP ANN CLG .4% CONDNS DB=>MWB, 7/21 14:00:00, 28.90000, 8.76969E-003, 1875.00000, 18.76957, 0.66675, 0.00000
 Zone Sizing Information, ALL_ST=STORAGE AREA_FL=STORY 3_SCH=E, Heating, 34322.61081, 44619.39405, 1.36057, 1.76874, FORT MCMURRAY AP ANN HTG 99.6% CONDNS DB, 1/21 09:00:00, -36.20000, 1.25811E-004, 1875.00000, 18.76957, 0.66675, 0.00000
 Zone Sizing Information, ALL_ST=TRANSP. BAGGAGE_FL=STORY 1_SCH=H, Cooling, 23146.83547, 25461.51902, 1.78902, 1.96792, FORT MCMURRAY AP ANN CLG .4% CONDNS DB=>MWB, 7/21 20:30:00, 22.14200, 8.76969E-003, 1875.00000, 93.84784, 1.64783, 0.00000
 Zone Sizing Information, ALL_ST=TRANSP. BAGGAGE_FL=STORY 1_SCH=H, Heating, 0.00000, 0.00000, 0.00000, 1.64783, FORT MCMURRAY AP ANN HTG 99.6% CONDNS DB, , -36.20000, 1.25811E-004, 1875.00000, 93.84784, 1.64783, 0.00000
 Zone Sizing Information, ALL_ST=TRANSP. CONCOURSE_FL=STORY 3_SCH=H, Cooling, 32482.69361, 35730.96297, 2.51064, 7.71525, FORT MCMURRAY AP ANN CLG .4% CONDNS DB=>MWB, 7/21 09:50:00, 23.83667, 8.76969E-003, 1875.00000, 93.84784, 7.71525, 0.00000
 Zone Sizing Information, ALL_ST=TRANSP. CONCOURSE_FL=STORY 3_SCH=H, Heating, 22913.50428, 29787.55557, 0.89887, 7.71525, FORT MCMURRAY AP ANN HTG 99.6% CONDNS DB, 1/21 09:00:00, -36.20000, 1.25811E-004, 1875.00000, 93.84784, 7.71525, 0.00000
 Zone Sizing Information, ALL_ST=TRANSP. COUNTER_FL=STORY 1_SCH=H, Cooling, 29080.49150, 31988.54065, 2.24775, 2.47253, FORT MCMURRAY AP ANN CLG .4% CONDNS DB=>MWB, 7/21 06:50:00, 17.47133, 8.76969E-003, 1875.00000, 187.49386, 1.64783, 0.00000
 Zone Sizing Information, ALL_ST=TRANSP. COUNTER_FL=STORY 1_SCH=H, Heating, 0.00000, 0.00000, 0.00000, 1.64783, FORT MCMURRAY AP ANN HTG 99.6% CONDNS DB, , -36.20000, 1.25811E-004, 1875.00000, 187.49386, 1.64783, 0.00000
 Zone Sizing Information, ALL_ST=TRANSP. SEATING_FL=STORY 1_SCH=H, Cooling, 21661.55742, 23827.71316, 1.67445, 7.71525, FORT MCMURRAY AP ANN CLG .4% CONDNS DB=>MWB, 7/21 12:10:00, 27.45333, 8.76969E-003, 1875.00000, 187.49386, 7.71525, 0.00000
 Zone Sizing Information, ALL_ST=TRANSP. SEATING_FL=STORY 1_SCH=H, Heating, 0.00000, 0.00000, 0.00000, 7.71525, FORT MCMURRAY AP ANN HTG 99.6% CONDNS DB, , -36.20000, 1.25811E-004, 1875.00000, 187.49386, 7.71525, 0.00000
 Zone Sizing Information, ALL_ST=WAREHOUSE - FINE - REFRIGERATED_FL=STORY 2_SCH=A, Cooling, 37728.99037, 41501.88941, 2.91592, 3.20751, FORT MCMURRAY AP ANN CLG .4% CONDNS DB=>MWB, 7/21 17:40:00, 26.33733, 8.76969E-003, 1875.00000, 37.53914, 0.57150, 0.00000
 Zone Sizing Information, ALL_ST=WAREHOUSE - FINE - REFRIGERATED_FL=STORY 2_SCH=A, Heating, 18523.71593, 24080.83071, 0.72385, 0.94101, FORT MCMURRAY AP ANN HTG 99.6% CONDNS DB, 1/21 08:00:00, -36.20000, 1.25811E-004, 1875.00000, 37.53914, 0.57150, 0.00000
 Zone Sizing Information, ALL_ST=WAREHOUSE - FINE_FL=STORY 1_SCH=A, Cooling, 21261.19144, 23387.31058, 1.64319, 1.80751, FORT MCMURRAY AP ANN CLG .4% CONDNS DB=>MWB, 7/21 17:00:00, 27.16400, 8.76969E-003, 2500.00000, 50.05218, 0.76200, 0.00000
 Zone Sizing Information, ALL_ST=WAREHOUSE - FINE_FL=STORY 1_SCH=A, Heating, 0.00000, 0.00000, 0.00000, 0.76200, FORT MCMURRAY AP ANN HTG 99.6% CONDNS DB, , -36.20000, 1.25811E-004, 2500.00000, 50.05218, 0.76200, 0.00000
 Zone Sizing Information, ALL_ST=WAREHOUSE - MED/BLK - REFRIGERATED_FL=STORY 2_SCH=A, Cooling, 21818.53743, 24000.39117, 1.58089, 1.73898, FORT MCMURRAY AP ANN CLG .4% CONDNS DB=>MWB, 7/21 07:00:00, 17.61600, 8.76969E-003, 1875.00000, 18.76957, 0.57150, 0.00000
 Zone Sizing Information, ALL_ST=WAREHOUSE - MED/BLK - REFRIGERATED_FL=STORY 2_SCH=A, Heating, 17960.59877, 23348.77840, 0.70462, 0.91601, FORT MCMURRAY AP ANN HTG 99.6% CONDNS DB, 1/21 08:00:00, -36.20000, 1.25811E-004, 1875.00000, 18.76957, 0.57150, 0.00000
 Zone Sizing Information, ALL_ST=WAREHOUSE - MED/BLK2 - REFRIGERATED_FL=STORY 2_SCH=A, Cooling, 33013.55008, 36314.90509, 2.38149, 2.61964, FORT MCMURRAY AP ANN CLG .4% CONDNS DB=>MWB, 7/21 07:00:00, 17.61600, 8.76969E-003, 1875.00000, 18.76957, 0.57150, 0.00000
 Zone Sizing Information, ALL_ST=WAREHOUSE - MED/BLK2 - REFRIGERATED_FL=STORY 2_SCH=A, Heating, 15638.25158, 20329.72705, 0.61245, 0.79619, FORT MCMURRAY AP ANN HTG 99.6% CONDNS DB, 1/21 08:00:00, -36.20000, 1.25811E-004, 1875.00000, 18.76957, 0.57150, 0.00000
 Zone Sizing Information, ALL_ST=WAREHOUSE - MED/BLK2_FL=STORY 2_SCH=A, Cooling, 30582.52529, 33640.77782, 2.36353, 2.59989, FORT MCMURRAY AP ANN CLG .4% CONDNS DB=>MWB, 7/21 13:50:00, 28.79667, 8.76969E-003, 1875.00000, 18.76957, 0.57150, 0.00000
 Zone Sizing Information, ALL_ST=WAREHOUSE - MED/BLK2_FL=STORY 2_SCH=A, Heating, 23315.83912, 30310.59086, 0.91433, 1.18863, FORT MCMURRAY AP ANN HTG 99.6% CONDNS DB, 1/21 08:00:00, -36.20000, 1.25811E-004, 1875.00000, 18.76957, 0.57150, 0.00000
 Zone Sizing Information, ALL_ST=WAREHOUSE - MED/BLK_FL=STORY 1_SCH=A, Cooling, 13828.13930, 15210.95323, 1.06870, 1.17557, FORT MCMURRAY AP ANN CLG .4% CONDNS DB=>MWB, 7/21 17:00:00, 27.16400, 8.76969E-003, 1875.00000, 18.76957, 0.57150, 0.00000
 Zone Sizing Information, ALL_ST=WAREHOUSE - MED/BLK_FL=STORY 1_SCH=A, Heating, 2370.76911, 3081.99984, 9.51252E-002, 0.57150, FORT MCMURRAY AP ANN HTG 99.6% CONDNS DB, 1/21 08:00:00, -36.20000, 1.25811E-004, 1875.00000, 18.76957, 0.57150, 0.00000
 Zone Sizing Information, WET_ST=WASHROOM-SCH-A_FL=STORY 4_SCHA, Cooling, 75427.71832, 82970.49015, 5.82952, 6.41247, FORT MCMURRAY AP ANN CLG .4% CONDNS DB=>MWB, 7/21 13:30:00, 28.59000, 8.76969E-003, 1875.00000, 62.56523, 0.57150, 0.00000
 Zone Sizing Information, WET_ST=WASHROOM-SCH-A_FL=STORY 4_SCHA, Heating, 57185.51269, 74341.16650, 2.28397, 2.96916, FORT MCMURRAY AP ANN HTG 99.6% CONDNS DB, 1/21 08:00:00, -36.20000, 1.25811E-004, 1875.00000, 62.56523, 0.57150, 0.00000
 Zone Sizing Information, WET_ST=WASHROOM-SCH-B_FL=STORY 2_SCHA, Cooling, 26299.84373, 28929.82810, 2.03267, 2.23594, FORT MCMURRAY AP ANN CLG .4% CONDNS DB=>MWB, 7/21 17:00:00, 27.16400, 8.76969E-003, 2500.00000, 83.42031, 0.76200, 0.00000
 Zone Sizing Information, WET_ST=WASHROOM-SCH-B_FL=STORY 2_SCHA, Heating, 0.00000, 0.00000, 0.00000, 0.76200, FORT MCMURRAY AP ANN HTG 99.6% CONDNS DB, , -36.20000, 1.25811E-004, 2500.00000, 83.42031, 0.76200, 0.00000
 Zone Sizing Information, WILD_ST=STAIRWAY-SCH-F_FL=STORY 4_SCH=A, Cooling, 58863.95531, 64750.35084, 4.54923, 5.00416, FORT MCMURRAY AP ANN CLG .4% CONDNS DB=>MWB, 7/21 13:50:00, 28.79667, 8.76969E-003, 1875.00000, 9.28387, 0.57150, 0.00000
 Zone Sizing Information, WILD_ST=STAIRWAY-SCH-F_FL=STORY 4_SCH=A, Heating, 102291.86370, 132979.42282, 4.10647, 5.33842, FORT MCMURRAY AP ANN HTG 99.6% CONDNS DB, 1/21 08:00:00, -36.20000, 1.25811E-004, 1875.00000, 9.28387, 0.57150, 0.00000
 Zone Sizing Information, WILD_ST=STAIRWAY-SCH-G_FL=STORY 4_SCH=A, Cooling, 54662.54462, 60128.79908, 4.22453, 4.64698, FORT MCMURRAY AP ANN CLG .4% CONDNS DB=>MWB, 7/21 14:00:00, 28.90000, 8.76969E-003, 1875.00000, 9.28387, 0.57150, 0.00000
 Zone Sizing Information, WILD_ST=STAIRWAY-SCH-G_FL=STORY 4_SCH=A, Heating, 105547.38615, 137211.60199, 4.23815, 5.50960, FORT MCMURRAY AP ANN HTG 99.6% CONDNS DB, 1/21 08:00:00, -36.20000, 1.25811E-004, 1875.00000, 9.28387, 0.57150, 0.00000
 Zone Sizing Information, WILD_ST=STAIRWAY-SCH-H_FL=STORY 4_SCH=A, Cooling, 68505.31065, 75355.84172, 5.29437, 5.82381, FORT MCMURRAY AP ANN CLG .4% CONDNS DB=>MWB, 7/21 16:10:00, 27.99067, 8.76969E-003, 1875.00000, 9.28387, 0.57150, 0.00000
 Zone Sizing Information, WILD_ST=STAIRWAY-SCH-H_FL=STORY 4_SCH=A, Heating, 105491.59817, 137139.07762, 4.23590, 5.50666, FORT MCMURRAY AP ANN HTG 99.6% CONDNS DB, 1/21 08:00:00, -36.20000, 1.25811E-004, 1875.00000, 9.28387, 0.57150, 0.00000
 Zone Sizing Information, WILD_ST=STAIRWAY-SCH-I_FL=STORY 3_SCH=A, Cooling, 25348.64639, 27883.51103, 1.95903, 2.15493, FORT MCMURRAY AP ANN CLG .4% CONDNS DB=>MWB, 7/21 17:00:00, 27.16400, 8.76969E-003, 2500.00000, 12.37850, 0.76200, 0.00000
 Zone Sizing Information, WILD_ST=STAIRWAY-SCH-I_FL=STORY 3_SCH=A, Heating, 14153.52567, 18399.58337, 0.56158, 0.76200, FORT MCMURRAY AP ANN HTG 99.6% CONDNS DB, 1/21 08:00:00, -36.20000, 1.25811E-004, 2500.00000, 12.37850, 0.76200, 0.00000
! <System Sizing Information>, System Name, Load Type, Peak Load Kind, User Design Capacity, Calc Des Air Flow Rate [m3/s], User Des Air Flow Rate [m3/s], Design Day Name, Date/Time of Peak
 System Sizing Information, SYS_2_MAKE-UP AIR UNIT, Cooling, Sensible, 42407.48, 3.20751, 3.20751, FORT MCMURRAY AP ANN CLG .4% CONDNS DB=>MWB, 7/21 00:00:00
 System Sizing Information, SYS_2_MAKE-UP AIR UNIT, Heating, Sensible, 28996.66, 0.94101, 0.94101, FORT MCMURRAY AP ANN HTG 99.6% CONDNS DB, 1/21 00:10:00
 System Sizing Information, SYS_2_MAKE-UP AIR UNIT 1, Cooling, Sensible, 17787.26, 1.73898, 1.73898, FORT MCMURRAY AP ANN CLG .4% CONDNS DB=>MWB, 7/21 00:00:00
 System Sizing Information, SYS_2_MAKE-UP AIR UNIT 1, Heating, Sensible, 29231.44, 0.91601, 0.91601, FORT MCMURRAY AP ANN HTG 99.6% CONDNS DB, 1/21 00:10:00
 System Sizing Information, SYS_2_MAKE-UP AIR UNIT 2, Cooling, Sensible, 28973.79, 2.61964, 2.61964, FORT MCMURRAY AP ANN CLG .4% CONDNS DB=>MWB, 7/21 00:00:00
 System Sizing Information, SYS_2_MAKE-UP AIR UNIT 2, Heating, Sensible, 30434.19, 0.79619, 0.79619, FORT MCMURRAY AP ANN HTG 99.6% CONDNS DB, 1/21 00:10:00
 System Sizing Information, SYS_4_PSZ_ALL_ST=STORAGE AREA_FL=STORY 3_SCH=E, Cooling, Sensible, 189015.32, 13.82752, 13.82752, FORT MCMURRAY AP ANN CLG .4% CONDNS DB=>MWB, 7/21 05:00:00
 System Sizing Information, SYS_4_PSZ_ALL_ST=STORAGE AREA_FL=STORY 3_SCH=E, Heating, Sensible, 385017.68, 7.76633, 7.76633, FORT MCMURRAY AP ANN HTG 99.6% CONDNS DB, 1/21 09:00:00
 System Sizing Information, SYS_4_PSZ_ALL_ST=WAREHOUSE - FINE_FL=STORY 1_SCH=A, Cooling, Sensible, 25818.32, 1.80751, 1.80751, FORT MCMURRAY AP ANN CLG .4% CONDNS DB=>MWB, 7/21 05:00:00
 System Sizing Information, SYS_4_PSZ_ALL_ST=WAREHOUSE - FINE_FL=STORY 1_SCH=A, Heating, Sensible, 69893.74, 0.76200, 0.76200, FORT MCMURRAY AP ANN HTG 99.6% CONDNS DB, 1/21 00:10:00
 System Sizing Information, SYS_4_PSZ_ALL_ST=WAREHOUSE - MED/BLK2_FL=STORY 2_SCH=A, Cooling, Sensible, 36295.48, 2.59989, 2.59989, FORT MCMURRAY AP ANN CLG .4% CONDNS DB=>MWB, 7/21 05:00:00
 System Sizing Information, SYS_4_PSZ_ALL_ST=WAREHOUSE - MED/BLK2_FL=STORY 2_SCH=A, Heating, Sensible, 67744.88, 1.18863, 1.18863, FORT MCMURRAY AP ANN HTG 99.6% CONDNS DB, 1/21 08:00:00
 System Sizing Information, SYS_4_PSZ_ALL_ST=WAREHOUSE - MED/BLK_FL=STORY 1_SCH=A, Cooling, Sensible, 17070.07, 1.17557, 1.17557, FORT MCMURRAY AP ANN CLG .4% CONDNS DB=>MWB, 7/21 05:00:00
 System Sizing Information, SYS_4_PSZ_ALL_ST=WAREHOUSE - MED/BLK_FL=STORY 1_SCH=A, Heating, Sensible, 52420.30, 0.57150, 0.57150, FORT MCMURRAY AP ANN HTG 99.6% CONDNS DB, 1/21 00:10:00
 System Sizing Information, SYS_4_PSZ_WET_ST=WASHROOM-SCH-A_FL=STORY 4_SCHA, Cooling, Sensible, 116690.19, 8.64841, 8.64841, FORT MCMURRAY AP ANN CLG .4% CONDNS DB=>MWB, 7/21 05:00:00
 System Sizing Information, SYS_4_PSZ_WET_ST=WASHROOM-SCH-A_FL=STORY 4_SCHA, Heating, Sensible, 180901.11, 3.73116, 3.73116, FORT MCMURRAY AP ANN HTG 99.6% CONDNS DB, 1/21 08:00:00
 System Sizing Information, SYS_4_PSZ_WILD_ST=STAIRWAY-SCH-F_FL=STORY 4_SCH=A, Cooling, Sensible, 237091.09, 17.62988, 17.62988, FORT MCMURRAY AP ANN CLG .4% CONDNS DB=>MWB, 7/21 05:00:00
 System Sizing Information, SYS_4_PSZ_WILD_ST=STAIRWAY-SCH-F_FL=STORY 4_SCH=A, Heating, Sensible, 584901.99, 17.11668, 17.11668, FORT MCMURRAY AP ANN HTG 99.6% CONDNS DB, 1/21 08:00:00
 System Sizing Information, SYS_6_VAV WITH REHEAT, Cooling, Sensible, 162034.51, 12.15570, 12.15570, FORT MCMURRAY AP ANN CLG .4% CONDNS DB=>MWB, 7/21 00:00:00
 System Sizing Information, SYS_6_VAV WITH REHEAT, Heating, Sensible, 628677.41, 11.01090, 11.01090, FORT MCMURRAY AP ANN HTG 99.6% CONDNS DB, 1/21 00:10:00
 System Sizing Information, SYS_6_VAV WITH REHEAT 1, Cooling, Sensible, 96828.64, 7.71525, 7.71525, FORT MCMURRAY AP ANN CLG .4% CONDNS DB=>MWB, 7/21 00:00:00
 System Sizing Information, SYS_6_VAV WITH REHEAT 1, Heating, Sensible, 440509.26, 7.71525, 7.71525, FORT MCMURRAY AP ANN HTG 99.6% CONDNS DB, 1/21 00:10:00
! <Component Sizing Information>, Component Type, Component Name, Input Field Description, Value
 Component Sizing Information, AirTerminal:SingleDuct:Uncontrolled, AIR TERMINAL SINGLE DUCT UNCONTROLLED 4, Design Size Maximum Air Flow Rate [m3/s], 5.42537
 Component Sizing Information, ZoneHVAC:Baseboard:Convective:Water, ZONE HVAC BASEBOARD CONVECTIVE WATER 4, Design Size Maximum Water Flow Rate [m3/s], 9.79936E-004
 Component Sizing Information, ZoneHVAC:Baseboard:Convective:Water, ZONE HVAC BASEBOARD CONVECTIVE WATER 4, Design Size U-Factor Times Area Value [W/K], 2000.55665
 Component Sizing Information, AirTerminal:SingleDuct:Uncontrolled, AIR TERMINAL SINGLE DUCT UNCONTROLLED 6, Design Size Maximum Air Flow Rate [m3/s], 3.48358
 Component Sizing Information, ZoneHVAC:Baseboard:Convective:Water, ZONE HVAC BASEBOARD CONVECTIVE WATER 6, Design Size Maximum Water Flow Rate [m3/s], 6.44153E-004
 Component Sizing Information, ZoneHVAC:Baseboard:Convective:Water, ZONE HVAC BASEBOARD CONVECTIVE WATER 6, Design Size U-Factor Times Area Value [W/K], 1314.50608
 Component Sizing Information, AirTerminal:SingleDuct:Uncontrolled, AIR TERMINAL SINGLE DUCT UNCONTROLLED 5, Design Size Maximum Air Flow Rate [m3/s], 1.97957
 Component Sizing Information, ZoneHVAC:Baseboard:Convective:Water, ZONE HVAC BASEBOARD CONVECTIVE WATER 5, Design Size Maximum Water Flow Rate [m3/s], 6.35463E-004
 Component Sizing Information, ZoneHVAC:Baseboard:Convective:Water, ZONE HVAC BASEBOARD CONVECTIVE WATER 5, Design Size U-Factor Times Area Value [W/K], 1296.77628
 Component Sizing Information, AirTerminal:SingleDuct:Uncontrolled, AIR TERMINAL SINGLE DUCT UNCONTROLLED 3, Design Size Maximum Air Flow Rate [m3/s], 2.93900
 Component Sizing Information, ZoneHVAC:Baseboard:Convective:Water, ZONE HVAC BASEBOARD CONVECTIVE WATER 3, Design Size Maximum Water Flow Rate [m3/s], 6.66427E-004
 Component Sizing Information, ZoneHVAC:Baseboard:Convective:Water, ZONE HVAC BASEBOARD CONVECTIVE WATER 3, Design Size U-Factor Times Area Value [W/K], 1359.93345
 Component Sizing Information, AirTerminal:SingleDuct:VAV:Reheat, AIR TERMINAL SINGLE DUCT VAV REHEAT 1, Design Size Maximum Air Flow Rate [m3/s], 1.96792
 Component Sizing Information, AirTerminal:SingleDuct:VAV:Reheat, AIR TERMINAL SINGLE DUCT VAV REHEAT 1, Design Size Constant Minimum Air Flow Fraction, 0.72602
 Component Sizing Information, AirTerminal:SingleDuct:VAV:Reheat, AIR TERMINAL SINGLE DUCT VAV REHEAT 1, User-Specified Constant Minimum Air Flow Fraction, 0.30000
 Component Sizing Information, AirTerminal:SingleDuct:VAV:Reheat, AIR TERMINAL SINGLE DUCT VAV REHEAT 1, Design Size Minimum Air Flow Rate [m3/s], 0.59038
 Component Sizing Information, AirTerminal:SingleDuct:VAV:Reheat, AIR TERMINAL SINGLE DUCT VAV REHEAT 1, Design Size Maximum Flow per Zone Floor Area during Reheat [m3/s-m2], 3.14867E-004
 Component Sizing Information, AirTerminal:SingleDuct:VAV:Reheat, AIR TERMINAL SINGLE DUCT VAV REHEAT 1, Design Size Maximum Flow Fraction during Reheat [], 0.30000
 Component Sizing Information, AirTerminal:SingleDuct:VAV:Reheat, AIR TERMINAL SINGLE DUCT VAV REHEAT 1, Design Size Maximum Reheat Water Flow Rate [m3/s], 9.37976E-005
 Component Sizing Information, AirTerminal:SingleDuct:VAV:Reheat, AIR TERMINAL SINGLE DUCT VAV REHEAT 1, Design Size Reheat Coil Sizing Air Volume Flow Rate [m3/s], 0.59038
 Component Sizing Information, AirTerminal:SingleDuct:VAV:Reheat, AIR TERMINAL SINGLE DUCT VAV REHEAT 1, Design Size Reheat Coil Sizing Inlet Air Temperature [C], 13.10000
 Component Sizing Information, AirTerminal:SingleDuct:VAV:Reheat, AIR TERMINAL SINGLE DUCT VAV REHEAT 1, Design Size Reheat Coil Sizing Inlet Air Humidity Ratio [kgWater/kgDryAir], 8.00000E-003
 Component Sizing Information, Coil:Heating:Water, COIL HEATING WATER 2, Design Size Rated Capacity [W], 6280.04891
 Component Sizing Information, Coil:Heating:Water, COIL HEATING WATER 2, Design Size Maximum Water Flow Rate [m3/s], 9.37976E-005
 Component Sizing Information, Coil:Heating:Water, COIL HEATING WATER 2, Design Size U-Factor Times Area Value [W/K], 113.23137
! <Water Heating Coil Capacity Information>,Component Type,Name,Nominal Total Capacity {W}
Water Heating Coil Capacity Information,Coil:Heating:Water,COIL HEATING WATER 2,5888.42
 Component Sizing Information, ZoneHVAC:Baseboard:Convective:Water, ZONE HVAC BASEBOARD CONVECTIVE WATER 11, Design Size Maximum Water Flow Rate [m3/s], 0.00000
 Component Sizing Information, ZoneHVAC:Baseboard:Convective:Water, ZONE HVAC BASEBOARD CONVECTIVE WATER 11, Design Size U-Factor Times Area Value [W/K], 0.00000
 Component Sizing Information, AirTerminal:SingleDuct:VAV:Reheat, AIR TERMINAL SINGLE DUCT VAV REHEAT 4, Design Size Maximum Air Flow Rate [m3/s], 7.71525
 Component Sizing Information, AirTerminal:SingleDuct:VAV:Reheat, AIR TERMINAL SINGLE DUCT VAV REHEAT 4, Design Size Constant Minimum Air Flow Fraction, 0.18519
 Component Sizing Information, AirTerminal:SingleDuct:VAV:Reheat, AIR TERMINAL SINGLE DUCT VAV REHEAT 4, User-Specified Constant Minimum Air Flow Fraction, 0.30000
 Component Sizing Information, AirTerminal:SingleDuct:VAV:Reheat, AIR TERMINAL SINGLE DUCT VAV REHEAT 4, Design Size Minimum Air Flow Rate [m3/s], 2.31458
 Component Sizing Information, AirTerminal:SingleDuct:VAV:Reheat, AIR TERMINAL SINGLE DUCT VAV REHEAT 4, Design Size Maximum Flow per Zone Floor Area during Reheat [m3/s-m2], 1.23444E-003
 Component Sizing Information, AirTerminal:SingleDuct:VAV:Reheat, AIR TERMINAL SINGLE DUCT VAV REHEAT 4, Design Size Maximum Flow Fraction during Reheat [], 0.30000
 Component Sizing Information, AirTerminal:SingleDuct:VAV:Reheat, AIR TERMINAL SINGLE DUCT VAV REHEAT 4, Design Size Maximum Reheat Water Flow Rate [m3/s], 8.24318E-004
 Component Sizing Information, AirTerminal:SingleDuct:VAV:Reheat, AIR TERMINAL SINGLE DUCT VAV REHEAT 4, Design Size Reheat Coil Sizing Air Volume Flow Rate [m3/s], 2.31458
 Component Sizing Information, AirTerminal:SingleDuct:VAV:Reheat, AIR TERMINAL SINGLE DUCT VAV REHEAT 4, Design Size Reheat Coil Sizing Inlet Air Temperature [C], 13.10000
 Component Sizing Information, AirTerminal:SingleDuct:VAV:Reheat, AIR TERMINAL SINGLE DUCT VAV REHEAT 4, Design Size Reheat Coil Sizing Inlet Air Humidity Ratio [kgWater/kgDryAir], 8.00000E-003
 Component Sizing Information, Coil:Heating:Water, COIL HEATING WATER 6, Design Size Rated Capacity [W], 55190.69295
 Component Sizing Information, Coil:Heating:Water, COIL HEATING WATER 6, Design Size Maximum Water Flow Rate [m3/s], 8.24318E-004
 Component Sizing Information, Coil:Heating:Water, COIL HEATING WATER 6, Design Size U-Factor Times Area Value [W/K], 1129.74763
Water Heating Coil Capacity Information,Coil:Heating:Water,COIL HEATING WATER 6,51787.50
 Component Sizing Information, ZoneHVAC:Baseboard:Convective:Water, ZONE HVAC BASEBOARD CONVECTIVE WATER 14, Design Size Maximum Water Flow Rate [m3/s], 4.44901E-004
 Component Sizing Information, ZoneHVAC:Baseboard:Convective:Water, ZONE HVAC BASEBOARD CONVECTIVE WATER 14, Design Size U-Factor Times Area Value [W/K], 902.16221
 Component Sizing Information, AirTerminal:SingleDuct:VAV:Reheat, AIR TERMINAL SINGLE DUCT VAV REHEAT 2, Design Size Maximum Air Flow Rate [m3/s], 2.47253
 Component Sizing Information, AirTerminal:SingleDuct:VAV:Reheat, AIR TERMINAL SINGLE DUCT VAV REHEAT 2, Design Size Constant Minimum Air Flow Fraction, 0.57785
 Component Sizing Information, AirTerminal:SingleDuct:VAV:Reheat, AIR TERMINAL SINGLE DUCT VAV REHEAT 2, User-Specified Constant Minimum Air Flow Fraction, 0.30000
 Component Sizing Information, AirTerminal:SingleDuct:VAV:Reheat, AIR TERMINAL SINGLE DUCT VAV REHEAT 2, Design Size Minimum Air Flow Rate [m3/s], 0.74176
 Component Sizing Information, AirTerminal:SingleDuct:VAV:Reheat, AIR TERMINAL SINGLE DUCT VAV REHEAT 2, Design Size Maximum Flow per Zone Floor Area during Reheat [m3/s-m2], 3.95604E-004
 Component Sizing Information, AirTerminal:SingleDuct:VAV:Reheat, AIR TERMINAL SINGLE DUCT VAV REHEAT 2, Design Size Maximum Flow Fraction during Reheat [], 0.30000
 Component Sizing Information, AirTerminal:SingleDuct:VAV:Reheat, AIR TERMINAL SINGLE DUCT VAV REHEAT 2, Design Size Maximum Reheat Water Flow Rate [m3/s], 1.17849E-004
 Component Sizing Information, AirTerminal:SingleDuct:VAV:Reheat, AIR TERMINAL SINGLE DUCT VAV REHEAT 2, Design Size Reheat Coil Sizing Air Volume Flow Rate [m3/s], 0.74176
 Component Sizing Information, AirTerminal:SingleDuct:VAV:Reheat, AIR TERMINAL SINGLE DUCT VAV REHEAT 2, Design Size Reheat Coil Sizing Inlet Air Temperature [C], 13.10000
 Component Sizing Information, AirTerminal:SingleDuct:VAV:Reheat, AIR TERMINAL SINGLE DUCT VAV REHEAT 2, Design Size Reheat Coil Sizing Inlet Air Humidity Ratio [kgWater/kgDryAir], 8.00000E-003
 Component Sizing Information, Coil:Heating:Water, COIL HEATING WATER 3, Design Size Rated Capacity [W], 7890.35579
 Component Sizing Information, Coil:Heating:Water, COIL HEATING WATER 3, Design Size Maximum Water Flow Rate [m3/s], 1.17849E-004
 Component Sizing Information, Coil:Heating:Water, COIL HEATING WATER 3, Design Size U-Factor Times Area Value [W/K], 142.26574
Water Heating Coil Capacity Information,Coil:Heating:Water,COIL HEATING WATER 3,7398.30
 Component Sizing Information, ZoneHVAC:Baseboard:Convective:Water, ZONE HVAC BASEBOARD CONVECTIVE WATER 12, Design Size Maximum Water Flow Rate [m3/s], 0.00000
 Component Sizing Information, ZoneHVAC:Baseboard:Convective:Water, ZONE HVAC BASEBOARD CONVECTIVE WATER 12, Design Size U-Factor Times Area Value [W/K], 0.00000
 Component Sizing Information, AirTerminal:SingleDuct:VAV:Reheat, AIR TERMINAL SINGLE DUCT VAV REHEAT 3, Design Size Maximum Air Flow Rate [m3/s], 7.71525
 Component Sizing Information, AirTerminal:SingleDuct:VAV:Reheat, AIR TERMINAL SINGLE DUCT VAV REHEAT 3, Design Size Constant Minimum Air Flow Fraction, 0.18519
 Component Sizing Information, AirTerminal:SingleDuct:VAV:Reheat, AIR TERMINAL SINGLE DUCT VAV REHEAT 3, User-Specified Constant Minimum Air Flow Fraction, 0.30000
 Component Sizing Information, AirTerminal:SingleDuct:VAV:Reheat, AIR TERMINAL SINGLE DUCT VAV REHEAT 3, Design Size Minimum Air Flow Rate [m3/s], 2.31458
 Component Sizing Information, AirTerminal:SingleDuct:VAV:Reheat, AIR TERMINAL SINGLE DUCT VAV REHEAT 3, Design Size Maximum Flow per Zone Floor Area during Reheat [m3/s-m2], 1.23444E-003
 Component Sizing Information, AirTerminal:SingleDuct:VAV:Reheat, AIR TERMINAL SINGLE DUCT VAV REHEAT 3, Design Size Maximum Flow Fraction during Reheat [], 0.30000
 Component Sizing Information, AirTerminal:SingleDuct:VAV:Reheat, AIR TERMINAL SINGLE DUCT VAV REHEAT 3, Design Size Maximum Reheat Water Flow Rate [m3/s], 3.67735E-004
 Component Sizing Information, AirTerminal:SingleDuct:VAV:Reheat, AIR TERMINAL SINGLE DUCT VAV REHEAT 3, Design Size Reheat Coil Sizing Air Volume Flow Rate [m3/s], 2.31458
 Component Sizing Information, AirTerminal:SingleDuct:VAV:Reheat, AIR TERMINAL SINGLE DUCT VAV REHEAT 3, Design Size Reheat Coil Sizing Inlet Air Temperature [C], 13.10000
 Component Sizing Information, AirTerminal:SingleDuct:VAV:Reheat, AIR TERMINAL SINGLE DUCT VAV REHEAT 3, Design Size Reheat Coil Sizing Inlet Air Humidity Ratio [kgWater/kgDryAir], 8.00000E-003
 Component Sizing Information, Coil:Heating:Water, COIL HEATING WATER 4, Design Size Rated Capacity [W], 24620.99634
 Component Sizing Information, Coil:Heating:Water, COIL HEATING WATER 4, Design Size Maximum Water Flow Rate [m3/s], 3.67735E-004
 Component Sizing Information, Coil:Heating:Water, COIL HEATING WATER 4, Design Size U-Factor Times Area Value [W/K], 443.92475
Water Heating Coil Capacity Information,Coil:Heating:Water,COIL HEATING WATER 4,23085.60
 Component Sizing Information, ZoneHVAC:Baseboard:Convective:Water, ZONE HVAC BASEBOARD CONVECTIVE WATER 13, Design Size Maximum Water Flow Rate [m3/s], 0.00000
 Component Sizing Information, ZoneHVAC:Baseboard:Convective:Water, ZONE HVAC BASEBOARD CONVECTIVE WATER 13, Design Size U-Factor Times Area Value [W/K], 0.00000
 Component Sizing Information, ZoneHVAC:FourPipeFanCoil, ZONE HVAC FOUR PIPE FAN COIL 1, Design Size Maximum Supply Air Flow Rate [m3/s], 3.20751
 Component Sizing Information, Fan:ConstantVolume, FAN CONSTANT VOLUME 8, Design Size Maximum Flow Rate [m3/s], 3.20751
 Component Sizing Information, ZoneHVAC:FourPipeFanCoil, ZONE HVAC FOUR PIPE FAN COIL 1, Design Size Maximum Outdoor Air Flow Rate [m3/s], 0.57150
 Component Sizing Information, ZoneHVAC:FourPipeFanCoil, ZONE HVAC FOUR PIPE FAN COIL 1, Design Size Maximum Hot Water Flow [m3/s], 8.67941E-004
 Component Sizing Information, ZoneHVAC:FourPipeFanCoil, ZONE HVAC FOUR PIPE FAN COIL 1, Design Size Maximum Cold Water Flow [m3/s], 1.78521E-003
 Component Sizing Information, Coil:Cooling:Water, COIL COOLING WATER 3, Design Size Design Water Flow Rate [m3/s], 1.78521E-003
 Component Sizing Information, Coil:Cooling:Water, COIL COOLING WATER 3, Design Size Design Air Flow Rate [m3/s], 3.20751
 Component Sizing Information, Coil:Cooling:Water, COIL COOLING WATER 3, User-Specified Design Air Flow Rate [m3/s], 3.20751
 Component Sizing Information, Coil:Cooling:Water, COIL COOLING WATER 3, Design Size Design Inlet Air Temperature [C], 24.41608
 Component Sizing Information, Coil:Cooling:Water, COIL COOLING WATER 3, Design Size Design Inlet Water Temperature [C], 7.00000
 Component Sizing Information, Coil:Cooling:Water, COIL COOLING WATER 3, Design Size Design Inlet Air Humidity Ratio, 8.72397E-003
 Component Sizing Information, Coil:Cooling:Water, COIL COOLING WATER 3, Design Size Design Outlet Air Temperature [C], 13.00000
 Component Sizing Information, Coil:Cooling:Water, COIL COOLING WATER 3, Design Size Design Outlet Air Humidity Ratio, 8.50000E-003
! <Water Cooling Coil Capacity Information>,Component Type,Name,Nominal Total Capacity {W},Nominal Sensible Capacity {W},Nominal Latent Capacity {W},Nominal Sensible Heat Ratio, Nominal Coil UA Value {W/C}, Nominal Coil Surface Area {m2}
Water Cooling Coil Capacity Information,Coil:Cooling:Water,COIL COOLING WATER 3,63719.74,46644.09,17075.66,0.73,6806.60,69.04
 Component Sizing Information, Coil:Heating:Water, COIL HEATING WATER 7, Design Size Rated Capacity [W], 58111.40255
 Component Sizing Information, Coil:Heating:Water, COIL HEATING WATER 7, Design Size Maximum Water Flow Rate [m3/s], 8.67941E-004
 Component Sizing Information, Coil:Heating:Water, COIL HEATING WATER 7, Design Size U-Factor Times Area Value [W/K], 995.81772
Water Heating Coil Capacity Information,Coil:Heating:Water,COIL HEATING WATER 7,39432.31
 Component Sizing Information, AirTerminal:SingleDuct:Uncontrolled, AIR TERMINAL SINGLE DUCT UNCONTROLLED 14, Design Size Maximum Air Flow Rate [m3/s], 3.20751
 Component Sizing Information, AirTerminal:SingleDuct:Uncontrolled, AIR TERMINAL SINGLE DUCT UNCONTROLLED 11, Design Size Maximum Air Flow Rate [m3/s], 1.80751
 Component Sizing Information, ZoneHVAC:Baseboard:Convective:Water, ZONE HVAC BASEBOARD CONVECTIVE WATER 15, Design Size Maximum Water Flow Rate [m3/s], 0.00000
 Component Sizing Information, ZoneHVAC:Baseboard:Convective:Water, ZONE HVAC BASEBOARD CONVECTIVE WATER 15, Design Size U-Factor Times Area Value [W/K], 0.00000
 Component Sizing Information, ZoneHVAC:FourPipeFanCoil, ZONE HVAC FOUR PIPE FAN COIL 2, Design Size Maximum Supply Air Flow Rate [m3/s], 1.73898
 Component Sizing Information, Fan:ConstantVolume, FAN CONSTANT VOLUME 10, Design Size Maximum Flow Rate [m3/s], 1.73898
 Component Sizing Information, ZoneHVAC:FourPipeFanCoil, ZONE HVAC FOUR PIPE FAN COIL 2, Design Size Maximum Outdoor Air Flow Rate [m3/s], 0.57150
 Component Sizing Information, ZoneHVAC:FourPipeFanCoil, ZONE HVAC FOUR PIPE FAN COIL 2, Design Size Maximum Hot Water Flow [m3/s], 8.58574E-004
 Component Sizing Information, ZoneHVAC:FourPipeFanCoil, ZONE HVAC FOUR PIPE FAN COIL 2, Design Size Maximum Cold Water Flow [m3/s], 7.75804E-004
 Component Sizing Information, Coil:Cooling:Water, COIL COOLING WATER 4, Design Size Design Water Flow Rate [m3/s], 7.75804E-004
 Component Sizing Information, Coil:Cooling:Water, COIL COOLING WATER 4, Design Size Design Air Flow Rate [m3/s], 1.73898
 Component Sizing Information, Coil:Cooling:Water, COIL COOLING WATER 4, User-Specified Design Air Flow Rate [m3/s], 1.73898
 Component Sizing Information, Coil:Cooling:Water, COIL COOLING WATER 4, Design Size Design Inlet Air Temperature [C], 21.90190
 Component Sizing Information, Coil:Cooling:Water, COIL COOLING WATER 4, Design Size Design Inlet Water Temperature [C], 7.00000
 Component Sizing Information, Coil:Cooling:Water, COIL COOLING WATER 4, Design Size Design Inlet Air Humidity Ratio, 8.65674E-003
 Component Sizing Information, Coil:Cooling:Water, COIL COOLING WATER 4, Design Size Design Outlet Air Temperature [C], 13.00000
 Component Sizing Information, Coil:Cooling:Water, COIL COOLING WATER 4, Design Size Design Outlet Air Humidity Ratio, 8.50000E-003
Water Cooling Coil Capacity Information,Coil:Cooling:Water,COIL COOLING WATER 4,30178.55,23159.85,7018.69,0.77,3204.92,32.51
 Component Sizing Information, Coil:Heating:Water, COIL HEATING WATER 8, Design Size Rated Capacity [W], 57484.27863
 Component Sizing Information, Coil:Heating:Water, COIL HEATING WATER 8, Design Size Maximum Water Flow Rate [m3/s], 8.58574E-004
 Component Sizing Information, Coil:Heating:Water, COIL HEATING WATER 8, Design Size U-Factor Times Area Value [W/K], 977.76717
Water Heating Coil Capacity Information,Coil:Heating:Water,COIL HEATING WATER 8,38633.90
 Component Sizing Information, AirTerminal:SingleDuct:Uncontrolled, AIR TERMINAL SINGLE DUCT UNCONTROLLED 15, Design Size Maximum Air Flow Rate [m3/s], 1.73898
 Component Sizing Information, ZoneHVAC:FourPipeFanCoil, ZONE HVAC FOUR PIPE FAN COIL 3, Design Size Maximum Supply Air Flow Rate [m3/s], 2.61964
 Component Sizing Information, Fan:ConstantVolume, FAN CONSTANT VOLUME 12, Design Size Maximum Flow Rate [m3/s], 2.61964
 Component Sizing Information, ZoneHVAC:FourPipeFanCoil, ZONE HVAC FOUR PIPE FAN COIL 3, Design Size Maximum Outdoor Air Flow Rate [m3/s], 0.57150
 Component Sizing Information, ZoneHVAC:FourPipeFanCoil, ZONE HVAC FOUR PIPE FAN COIL 3, Design Size Maximum Hot Water Flow [m3/s], 8.13657E-004
 Component Sizing Information, ZoneHVAC:FourPipeFanCoil, ZONE HVAC FOUR PIPE FAN COIL 3, Design Size Maximum Cold Water Flow [m3/s], 1.23145E-003
 Component Sizing Information, Coil:Cooling:Water, COIL COOLING WATER 5, Design Size Design Water Flow Rate [m3/s], 1.23145E-003
 Component Sizing Information, Coil:Cooling:Water, COIL COOLING WATER 5, Design Size Design Air Flow Rate [m3/s], 2.61964
 Component Sizing Information, Coil:Cooling:Water, COIL COOLING WATER 5, User-Specified Design Air Flow Rate [m3/s], 2.61964
 Component Sizing Information, Coil:Cooling:Water, COIL COOLING WATER 5, Design Size Design Inlet Air Temperature [C], 22.60719
 Component Sizing Information, Coil:Cooling:Water, COIL COOLING WATER 5, Design Size Design Inlet Water Temperature [C], 7.00000
 Component Sizing Information, Coil:Cooling:Water, COIL COOLING WATER 5, Design Size Design Inlet Air Humidity Ratio, 8.61532E-003
 Component Sizing Information, Coil:Cooling:Water, COIL COOLING WATER 5, Design Size Design Outlet Air Temperature [C], 13.00000
 Component Sizing Information, Coil:Cooling:Water, COIL COOLING WATER 5, Design Size Design Outlet Air Humidity Ratio, 8.50000E-003
Water Cooling Coil Capacity Information,Coil:Cooling:Water,COIL COOLING WATER 5,47030.79,35669.95,11360.84,0.76,5002.57,50.74
 Component Sizing Information, Coil:Heating:Water, COIL HEATING WATER 9, Design Size Rated Capacity [W], 54476.88725
 Component Sizing Information, Coil:Heating:Water, COIL HEATING WATER 9, Design Size Maximum Water Flow Rate [m3/s], 8.13657E-004
 Component Sizing Information, Coil:Heating:Water, COIL HEATING WATER 9, Design Size U-Factor Times Area Value [W/K], 886.40927
Water Heating Coil Capacity Information,Coil:Heating:Water,COIL HEATING WATER 9,34661.72
 Component Sizing Information, AirTerminal:SingleDuct:Uncontrolled, AIR TERMINAL SINGLE DUCT UNCONTROLLED 16, Design Size Maximum Air Flow Rate [m3/s], 2.61964
 Component Sizing Information, AirTerminal:SingleDuct:Uncontrolled, AIR TERMINAL SINGLE DUCT UNCONTROLLED 13, Design Size Maximum Air Flow Rate [m3/s], 2.59989
 Component Sizing Information, ZoneHVAC:Baseboard:Convective:Water, ZONE HVAC BASEBOARD CONVECTIVE WATER 17, Design Size Maximum Water Flow Rate [m3/s], 4.52713E-004
 Component Sizing Information, ZoneHVAC:Baseboard:Convective:Water, ZONE HVAC BASEBOARD CONVECTIVE WATER 17, Design Size U-Factor Times Area Value [W/K], 923.80146
 Component Sizing Information, AirTerminal:SingleDuct:Uncontrolled, AIR TERMINAL SINGLE DUCT UNCONTROLLED 12, Design Size Maximum Air Flow Rate [m3/s], 1.17557
 Component Sizing Information, ZoneHVAC:Baseboard:Convective:Water, ZONE HVAC BASEBOARD CONVECTIVE WATER 16, Design Size Maximum Water Flow Rate [m3/s], 4.60322E-005
 Component Sizing Information, ZoneHVAC:Baseboard:Convective:Water, ZONE HVAC BASEBOARD CONVECTIVE WATER 16, Design Size U-Factor Times Area Value [W/K], 93.41837
 Component Sizing Information, AirTerminal:SingleDuct:Uncontrolled, AIR TERMINAL SINGLE DUCT UNCONTROLLED 1, Design Size Maximum Air Flow Rate [m3/s], 6.41247
 Component Sizing Information, ZoneHVAC:Baseboard:Convective:Water, ZONE HVAC BASEBOARD CONVECTIVE WATER 1, Design Size Maximum Water Flow Rate [m3/s], 1.11035E-003
 Component Sizing Information, ZoneHVAC:Baseboard:Convective:Water, ZONE HVAC BASEBOARD CONVECTIVE WATER 1, Design Size U-Factor Times Area Value [W/K], 2266.07979
 Component Sizing Information, AirTerminal:SingleDuct:Uncontrolled, AIR TERMINAL SINGLE DUCT UNCONTROLLED 2, Design Size Maximum Air Flow Rate [m3/s], 2.23594
 Component Sizing Information, ZoneHVAC:Baseboard:Convective:Water, ZONE HVAC BASEBOARD CONVECTIVE WATER 2, Design Size Maximum Water Flow Rate [m3/s], 0.00000
 Component Sizing Information, ZoneHVAC:Baseboard:Convective:Water, ZONE HVAC BASEBOARD CONVECTIVE WATER 2, Design Size U-Factor Times Area Value [W/K], 0.00000
 Component Sizing Information, AirTerminal:SingleDuct:Uncontrolled, AIR TERMINAL SINGLE DUCT UNCONTROLLED 7, Design Size Maximum Air Flow Rate [m3/s], 5.33842
 Component Sizing Information, ZoneHVAC:Baseboard:Convective:Water, ZONE HVAC BASEBOARD CONVECTIVE WATER 7, Design Size Maximum Water Flow Rate [m3/s], 1.98616E-003
 Component Sizing Information, ZoneHVAC:Baseboard:Convective:Water, ZONE HVAC BASEBOARD CONVECTIVE WATER 7, Design Size U-Factor Times Area Value [W/K], 4056.75147
 Component Sizing Information, AirTerminal:SingleDuct:Uncontrolled, AIR TERMINAL SINGLE DUCT UNCONTROLLED 8, Design Size Maximum Air Flow Rate [m3/s], 5.50960
 Component Sizing Information, ZoneHVAC:Baseboard:Convective:Water, ZONE HVAC BASEBOARD CONVECTIVE WATER 8, Design Size Maximum Water Flow Rate [m3/s], 2.04937E-003
 Component Sizing Information, ZoneHVAC:Baseboard:Convective:Water, ZONE HVAC BASEBOARD CONVECTIVE WATER 8, Design Size U-Factor Times Area Value [W/K], 4185.68204
[...]
 Component Sizing Information, Chiller:Electric:EIR, SECONDARY CHILLER WATERCOOLED SCROLL 2, Design Size Reference Chilled Water Flow Rate [m3/s], 7.75804E-004
 Component Sizing Information, Chiller:Electric:EIR, SECONDARY CHILLER WATERCOOLED SCROLL 2, Design Size Reference Capacity [W], 19538.63295
 Component Sizing Information, Chiller:Electric:EIR, SECONDARY CHILLER WATERCOOLED SCROLL 2, Design Size Reference Condenser Fluid Flow Rate [m3/s], 9.20819E-004
 Chiller Standard Rating Information, Chiller:Electric:EIR, SECONDARY CHILLER WATERCOOLED SCROLL 2, 7.88, 26.88
 Component Sizing Information, PlantLoop, CHILLED WATER LOOP 3, Maximum Loop Flow Rate [m3/s], 1.23145E-003
 Component Sizing Information, PlantLoop, CHILLED WATER LOOP 3, Plant Loop Volume [m3], 0.14777
 Component Sizing Information, Pump:ConstantSpeed, PUMP CONSTANT SPEED 7, Design Flow Rate [m3/s], 1.23145E-003
 Component Sizing Information, Pump:ConstantSpeed, PUMP CONSTANT SPEED 7, Design Power Consumption [W], 314.62018
 Component Sizing Information, Chiller:Electric:EIR, PRIMARY CHILLER WATERCOOLED SCROLL 3, Design Size Reference Chilled Water Flow Rate [m3/s], 1.23145E-003
 Component Sizing Information, Chiller:Electric:EIR, PRIMARY CHILLER WATERCOOLED SCROLL 3, Design Size Reference Capacity [W], 31014.12995
 Component Sizing Information, Chiller:Electric:EIR, PRIMARY CHILLER WATERCOOLED SCROLL 3, Design Size Reference Condenser Fluid Flow Rate [m3/s], 1.46164E-003
 Chiller Standard Rating Information, Chiller:Electric:EIR, PRIMARY CHILLER WATERCOOLED SCROLL 3, 7.88, 26.88
 Component Sizing Information, Chiller:Electric:EIR, SECONDARY CHILLER WATERCOOLED SCROLL 3, Design Size Reference Chilled Water Flow Rate [m3/s], 1.23145E-003
 Component Sizing Information, Chiller:Electric:EIR, SECONDARY CHILLER WATERCOOLED SCROLL 3, Design Size Reference Capacity [W], 31014.12995
 Component Sizing Information, Chiller:Electric:EIR, SECONDARY CHILLER WATERCOOLED SCROLL 3, Design Size Reference Condenser Fluid Flow Rate [m3/s], 1.46164E-003
 Chiller Standard Rating Information, Chiller:Electric:EIR, SECONDARY CHILLER WATERCOOLED SCROLL 3, 7.88, 26.88
 Component Sizing Information, PlantLoop, CONDENSER WATER LOOP, Maximum Loop Flow Rate [m3/s], 3.00721E-002
 Component Sizing Information, PlantLoop, CONDENSER WATER LOOP, Plant Loop Volume [m3], 3.60865
 Component Sizing Information, Pump:ConstantSpeed, PUMP CONSTANT SPEED 2, Design Flow Rate [m3/s], 3.00721E-002
 Component Sizing Information, Pump:ConstantSpeed, PUMP CONSTANT SPEED 2, Design Power Consumption [W], 7683.02832
 Component Sizing Information, CoolingTower:SingleSpeed, COOLING TOWER SINGLE SPEED 1, Design Water Flow Rate [m3/s], 3.00721E-002
 Component Sizing Information, CoolingTower:SingleSpeed, COOLING TOWER SINGLE SPEED 1, Fan Power at Design Air Flow Rate [W], 6598.32689
 Component Sizing Information, CoolingTower:SingleSpeed, COOLING TOWER SINGLE SPEED 1, Design Air Flow Rate [m3/s], 18.14408
 Component Sizing Information, CoolingTower:SingleSpeed, COOLING TOWER SINGLE SPEED 1, U-Factor Times Area Value at Design Air Flow Rate [W/C], 32400.47804
 Component Sizing Information, CoolingTower:SingleSpeed, COOLING TOWER SINGLE SPEED 1, Free Convection Regime Air Flow Rate [m3/s], 1.81441
 Component Sizing Information, CoolingTower:SingleSpeed, COOLING TOWER SINGLE SPEED 1, Free Convection U-Factor Times Area Value [W/K], 3240.04780
 Component Sizing Information, PlantLoop, CONDENSER WATER LOOP 1, Maximum Loop Flow Rate [m3/s], 4.23782E-003
 Component Sizing Information, PlantLoop, CONDENSER WATER LOOP 1, Plant Loop Volume [m3], 0.50854
 Component Sizing Information, Pump:ConstantSpeed, PUMP CONSTANT SPEED 4, Design Flow Rate [m3/s], 4.23782E-003
 Component Sizing Information, Pump:ConstantSpeed, PUMP CONSTANT SPEED 4, Design Power Consumption [W], 1082.70793
 Component Sizing Information, CoolingTower:SingleSpeed, COOLING TOWER SINGLE SPEED 2, Design Water Flow Rate [m3/s], 4.23782E-003
 Component Sizing Information, CoolingTower:SingleSpeed, COOLING TOWER SINGLE SPEED 2, Fan Power at Design Air Flow Rate [W], 929.84961
 Component Sizing Information, CoolingTower:SingleSpeed, COOLING TOWER SINGLE SPEED 2, Design Air Flow Rate [m3/s], 2.55690
 Component Sizing Information, CoolingTower:SingleSpeed, COOLING TOWER SINGLE SPEED 2, U-Factor Times Area Value at Design Air Flow Rate [W/C], 4565.94108
 Component Sizing Information, CoolingTower:SingleSpeed, COOLING TOWER SINGLE SPEED 2, Free Convection Regime Air Flow Rate [m3/s], 0.25569
 Component Sizing Information, CoolingTower:SingleSpeed, COOLING TOWER SINGLE SPEED 2, Free Convection U-Factor Times Area Value [W/K], 456.59411
 Component Sizing Information, PlantLoop, CONDENSER WATER LOOP 2, Maximum Loop Flow Rate [m3/s], 1.84164E-003
 Component Sizing Information, PlantLoop, CONDENSER WATER LOOP 2, Plant Loop Volume [m3], 0.22100
 Component Sizing Information, Pump:ConstantSpeed, PUMP CONSTANT SPEED 6, Design Flow Rate [m3/s], 1.84164E-003
 Component Sizing Information, Pump:ConstantSpeed, PUMP CONSTANT SPEED 6, Design Power Consumption [W], 470.51469
 Component Sizing Information, CoolingTower:SingleSpeed, COOLING TOWER SINGLE SPEED 3, Design Water Flow Rate [m3/s], 1.84164E-003
 Component Sizing Information, CoolingTower:SingleSpeed, COOLING TOWER SINGLE SPEED 3, Fan Power at Design Air Flow Rate [W], 404.08672
 Component Sizing Information, CoolingTower:SingleSpeed, COOLING TOWER SINGLE SPEED 3, Design Air Flow Rate [m3/s], 1.11116
 Component Sizing Information, CoolingTower:SingleSpeed, COOLING TOWER SINGLE SPEED 3, U-Factor Times Area Value at Design Air Flow Rate [W/C], 1984.23072
 Component Sizing Information, CoolingTower:SingleSpeed, COOLING TOWER SINGLE SPEED 3, Free Convection Regime Air Flow Rate [m3/s], 0.11112
 Component Sizing Information, CoolingTower:SingleSpeed, COOLING TOWER SINGLE SPEED 3, Free Convection U-Factor Times Area Value [W/K], 198.42307
 Component Sizing Information, PlantLoop, CONDENSER WATER LOOP 3, Maximum Loop Flow Rate [m3/s], 2.92327E-003
 Component Sizing Information, PlantLoop, CONDENSER WATER LOOP 3, Plant Loop Volume [m3], 0.35079
 Component Sizing Information, Pump:ConstantSpeed, PUMP CONSTANT SPEED 8, Design Flow Rate [m3/s], 2.92327E-003
 Component Sizing Information, Pump:ConstantSpeed, PUMP CONSTANT SPEED 8, Design Power Consumption [W], 746.85899
 Component Sizing Information, CoolingTower:SingleSpeed, COOLING TOWER SINGLE SPEED 4, Design Water Flow Rate [m3/s], 2.92327E-003
 Component Sizing Information, CoolingTower:SingleSpeed, COOLING TOWER SINGLE SPEED 4, Fan Power at Design Air Flow Rate [W], 641.41632
 Component Sizing Information, CoolingTower:SingleSpeed, COOLING TOWER SINGLE SPEED 4, Design Air Flow Rate [m3/s], 1.76377
 Component Sizing Information, CoolingTower:SingleSpeed, COOLING TOWER SINGLE SPEED 4, U-Factor Times Area Value at Design Air Flow Rate [W/C], 3149.61592
 Component Sizing Information, CoolingTower:SingleSpeed, COOLING TOWER SINGLE SPEED 4, Free Convection Regime Air Flow Rate [m3/s], 0.17638
 Component Sizing Information, CoolingTower:SingleSpeed, COOLING TOWER SINGLE SPEED 4, Free Convection U-Factor Times Area Value [W/K], 314.96159
 Component Sizing Information, PlantLoop, HOT WATER LOOP, Maximum Loop Flow Rate [m3/s], 2.03661E-002
 Component Sizing Information, PlantLoop, HOT WATER LOOP, Plant Loop Volume [m3], 2.44393
 Component Sizing Information, Pump:VariableSpeed, PUMP VARIABLE SPEED 1, Design Flow Rate [m3/s], 2.03661E-002
 Component Sizing Information, Pump:VariableSpeed, PUMP VARIABLE SPEED 1, Design Power Consumption [W], 5203.27433
 Component Sizing Information, Boiler:HotWater, PRIMARY BOILER, Design Size Nominal Capacity [W], 1368852.49222
 Component Sizing Information, Boiler:HotWater, PRIMARY BOILER, Design Size Design Water Flow Rate [m3/s], 2.03661E-002
 Component Sizing Information, Boiler:HotWater, SECONDARY BOILER, Design Size Nominal Capacity [W], 1368852.49222
 Component Sizing Information, Boiler:HotWater, SECONDARY BOILER, Design Size Design Water Flow Rate [m3/s], 2.03661E-002
 Component Sizing Information, PlantLoop, MAIN SERVICE WATER LOOP, Maximum Loop Flow Rate [m3/s], 3.84881E-004
 Component Sizing Information, PlantLoop, MAIN SERVICE WATER LOOP, Plant Loop Volume [m3], 4.61857E-002
 Component Sizing Information, Pump:ConstantSpeed, SERVICE WATER LOOP PUMP, Design Flow Rate [m3/s], 3.84881E-004
 Component Sizing Information, Pump:ConstantSpeed, SERVICE WATER LOOP PUMP, Design Power Consumption [W], 90.07668
 Component Sizing Information, WaterHeater:Mixed, 507GAL NATURALGAS WATER HEATER - 342KBTU/HR, Use Side Design Flow Rate [m3/s], 3.84881E-004
! <Environment>,Environment Name,Environment Type, Start Date, End Date, Start DayOfWeek, Duration {#days}, Source:Start DayOfWeek,  Use Daylight Saving, Use Holidays, Apply Weekend Holiday Rule,  Use Rain Values, Use Snow Values
! <Environment:Special Days>, Special Day Name, Special Day Type, Source, Start Date, Duration {#days}
! <Environment:Daylight Saving>, Daylight Saving Indicator, Source, Start Date, End Date
! <Environment:WarmupDays>, NumberofWarmupDays
Environment,FORT MCMURRAY AP ANN CLG .4% CONDNS DB=>MWB,SizingPeriod:DesignDay,07/21,07/21,SummerDesignDay,1,N/A,N/A,N/A,N/A,N/A,N/A
Environment:Daylight Saving,No,SizingPeriod:DesignDay
! <Environment:Design Day Data>, Max Dry-Bulb Temp {C}, Temp Range {dC}, Temp Range Ind Type, Hum Ind Value at Max Temp, Hum Ind Type,Pressure {Pa}, Wind Direction {deg CW from N}, Wind Speed {m/s}, Clearness, Rain, Snow
! <Environment:Design Day Misc>,DayOfYear,ASHRAE A Coeff,ASHRAE B Coeff,ASHRAE C Coeff,Solar Constant-Annual Variation,Eq of Time {minutes}, Solar Declination Angle {deg}, Solar Model
Environment:Design Day Data,28.90,12.40,DefaultMultipliers,96969,250,3.7,0.00,No,No
Environment:Design Day Misc,202,1084.4,0.2082,0.1365,1.0,-6.23,20.6,ASHRAETau
Environment:WarmupDays,  6
! <Tabular Report>,Style,Unit Conversion
Tabular Report,HTML,None
! <Warmup Convergence Information>,Zone Name,Environment Type/Name,Average Warmup Temperature Difference {deltaC},Std Dev Warmup Temperature Difference {deltaC},Max Temperature Pass/Fail Convergence,Min Temperature Pass/Fail Convergence,Average Warmup Load Difference {W},Std Dev Warmup Load Difference {W},Heating Load Pass/Fail Convergence,Cooling Load Pass/Fail Convergence
 Warmup Convergence Information,ALL_ST=STORAGE AREA - OCCSENS_FL=STORY 4_SCH=E,SizingPeriod: FORT MCMURRAY AP ANN CLG .4% CONDNS DB=>MWB,7.3401252818E-002,0.1159739994,Pass,Pass,0.2154144190,0.7461052080,Pass,Pass
 Warmup Convergence Information,ALL_ST=STORAGE AREA - REFRIGERATED - OCCSENS_FL=STORY 3_SCH=E,SizingPeriod: FORT MCMURRAY AP ANN CLG .4% CONDNS DB=>MWB,6.2717308877E-002,0.1003585425,Pass,Pass,5.0682057629E-002,0.3028396543,Pass,Pass
 Warmup Convergence Information,ALL_ST=STORAGE AREA - REFRIGERATED_FL=STORY 3_SCH=E,SizingPeriod: FORT MCMURRAY AP ANN CLG .4% CONDNS DB=>MWB,3.6965046573E-002,6.7825665481E-002,Pass,Pass,9.4545887499E-002,0.7375727651,Pass,Pass
 Warmup Convergence Information,ALL_ST=STORAGE AREA_FL=STORY 3_SCH=E,SizingPeriod: FORT MCMURRAY AP ANN CLG .4% CONDNS DB=>MWB,3.4739572039E-002,9.3745476595E-002,Pass,Pass,0.1279746431,1.0479642476,Pass,Pass
 Warmup Convergence Information,ALL_ST=TRANSP. BAGGAGE_FL=STORY 1_SCH=H,SizingPeriod: FORT MCMURRAY AP ANN CLG .4% CONDNS DB=>MWB,6.1383412754E-003,4.0424165992E-003,Pass,Pass,5.4732487258E-004,3.5996007187E-004,Pass,Pass
 Warmup Convergence Information,ALL_ST=TRANSP. CONCOURSE_FL=STORY 3_SCH=H,SizingPeriod: FORT MCMURRAY AP ANN CLG .4% CONDNS DB=>MWB,1.3971786812E-002,1.9318799362E-002,Pass,Pass,4.3834911395E-003,5.3173756087E-003,Pass,Pass
 Warmup Convergence Information,ALL_ST=TRANSP. COUNTER_FL=STORY 1_SCH=H,SizingPeriod: FORT MCMURRAY AP ANN CLG .4% CONDNS DB=>MWB,2.7871020613E-003,1.1200340784E-003,Pass,Pass,2.5106905005E-004,1.0053114940E-004,Pass,Pass
 Warmup Convergence Information,ALL_ST=TRANSP. SEATING_FL=STORY 1_SCH=H,SizingPeriod: FORT MCMURRAY AP ANN CLG .4% CONDNS DB=>MWB,4.5774911064E-003,2.8130934312E-003,Pass,Pass,4.4947994465E-004,2.7688888781E-004,Pass,Pass
 Warmup Convergence Information,ALL_ST=WAREHOUSE - FINE - REFRIGERATED_FL=STORY 2_SCH=A,SizingPeriod: FORT MCMURRAY AP ANN CLG .4% CONDNS DB=>MWB,6.6476588158E-002,4.9399626423E-002,Pass,Pass,0.1426674984,0.4788273533,Pass,Pass
 Warmup Convergence Information,ALL_ST=WAREHOUSE - FINE_FL=STORY 1_SCH=A,SizingPeriod: FORT MCMURRAY AP ANN CLG .4% CONDNS DB=>MWB,1.3947746159E-002,3.8305194809E-002,Pass,Pass,4.8950071549E-002,0.3069415346,Pass,Pass
 Warmup Convergence Information,ALL_ST=WAREHOUSE - MED/BLK - REFRIGERATED_FL=STORY 2_SCH=A,SizingPeriod: FORT MCMURRAY AP ANN CLG .4% CONDNS DB=>MWB,5.2449744149E-002,4.0088131685E-002,Pass,Pass,0.1407215994,0.3827837547,Pass,Pass
 Warmup Convergence Information,ALL_ST=WAREHOUSE - MED/BLK2 - REFRIGERATED_FL=STORY 2_SCH=A,SizingPeriod: FORT MCMURRAY AP ANN CLG .4% CONDNS DB=>MWB,6.5381042504E-002,4.9315105325E-002,Pass,Pass,0.1532253181,0.4817945061,Pass,Pass
 Warmup Convergence Information,ALL_ST=WAREHOUSE - MED/BLK2_FL=STORY 2_SCH=A,SizingPeriod: FORT MCMURRAY AP ANN CLG .4% CONDNS DB=>MWB,2.3180839409E-002,8.3458295419E-002,Pass,Pass,6.1152705650E-002,0.3614613046,Pass,Pass
 Warmup Convergence Information,ALL_ST=WAREHOUSE - MED/BLK_FL=STORY 1_SCH=A,SizingPeriod: FORT MCMURRAY AP ANN CLG .4% CONDNS DB=>MWB,1.0821434129E-002,2.9275806848E-002,Pass,Pass,4.2464636840E-002,0.2671315565,Pass,Pass
 Warmup Convergence Information,WET_ST=WASHROOM-SCH-A_FL=STORY 4_SCHA,SizingPeriod: FORT MCMURRAY AP ANN CLG .4% CONDNS DB=>MWB,2.2309282927E-002,4.3490787088E-002,Pass,Pass,7.8605882929E-002,0.3676499697,Pass,Pass
 Warmup Convergence Information,WET_ST=WASHROOM-SCH-B_FL=STORY 2_SCHA,SizingPeriod: FORT MCMURRAY AP ANN CLG .4% CONDNS DB=>MWB,2.9920897760E-002,2.0699772064E-002,Pass,Pass,3.8045390321E-002,0.1145207354,Pass,Pass
 Warmup Convergence Information,WILD_ST=STAIRWAY-SCH-F_FL=STORY 4_SCH=A,SizingPeriod: FORT MCMURRAY AP ANN CLG .4% CONDNS DB=>MWB,2.7812699733E-002,4.7179273621E-002,Pass,Pass,0.2799447072,1.5829453235,Pass,Pass
 Warmup Convergence Information,WILD_ST=STAIRWAY-SCH-G_FL=STORY 4_SCH=A,SizingPeriod: FORT MCMURRAY AP ANN CLG .4% CONDNS DB=>MWB,4.3824384543E-002,3.5740162778E-002,Pass,Pass,0.2550708186,1.5206974042,Pass,Pass
 Warmup Convergence Information,WILD_ST=STAIRWAY-SCH-H_FL=STORY 4_SCH=A,SizingPeriod: FORT MCMURRAY AP ANN CLG .4% CONDNS DB=>MWB,5.8734455223E-002,3.5187453497E-002,Pass,Pass,6.1399377915E-002,0.2305587002,Pass,Pass
 Warmup Convergence Information,WILD_ST=STAIRWAY-SCH-I_FL=STORY 3_SCH=A,SizingPeriod: FORT MCMURRAY AP ANN CLG .4% CONDNS DB=>MWB,3.0755912156E-002,2.1364191940E-002,Pass,Pass,3.4470244536E-002,9.3739945811E-002,Pass,Pass
Environment,FORT MCMURRAY AP ANN HTG 99.6% CONDNS DB,SizingPeriod:DesignDay,01/21,01/21,WinterDesignDay,1,N/A,N/A,N/A,N/A,N/A,N/A
Environment:Daylight Saving,No,SizingPeriod:DesignDay
Environment:Design Day Data,-36.20,0.00,DefaultMultipliers,96969,90,1.0,0.00,No,No
Environment:Design Day Misc, 21,1229.0,0.1415,5.7310E-002,1.0,-11.15,-20.1,ASHRAEClearSky
Environment:WarmupDays,  7
 Warmup Convergence Information,ALL_ST=STORAGE AREA - OCCSENS_FL=STORY 4_SCH=E,SizingPeriod: FORT MCMURRAY AP ANN HTG 99.6% CONDNS DB,8.4857930035E-002,0.3080736402,Pass,Pass,8.5292777491E-002,0.3377889952,Pass,Pass
 Warmup Convergence Information,ALL_ST=STORAGE AREA - REFRIGERATED - OCCSENS_FL=STORY 3_SCH=E,SizingPeriod: FORT MCMURRAY AP ANN HTG 99.6% CONDNS DB,5.5689506725E-002,0.2811926137,Pass,Pass,0.5600079263,5.7663557539,Pass,Pass
 Warmup Convergence Information,ALL_ST=STORAGE AREA - REFRIGERATED_FL=STORY 3_SCH=E,SizingPeriod: FORT MCMURRAY AP ANN HTG 99.6% CONDNS DB,5.5803902296E-002,0.2433929237,Pass,Pass,6.4101111374E-002,0.2162198110,Pass,Pass
 Warmup Convergence Information,ALL_ST=STORAGE AREA_FL=STORY 3_SCH=E,SizingPeriod: FORT MCMURRAY AP ANN HTG 99.6% CONDNS DB,5.5561630736E-002,0.2586522288,Pass,Pass,0.1405613057,0.4375293501,Pass,Pass
 Warmup Convergence Information,ALL_ST=TRANSP. BAGGAGE_FL=STORY 1_SCH=H,SizingPeriod: FORT MCMURRAY AP ANN HTG 99.6% CONDNS DB,3.7144479264E-003,1.5329773366E-003,Pass,Pass,2.6450032238E-004,1.0525867493E-004,Pass,Pass
 Warmup Convergence Information,ALL_ST=TRANSP. CONCOURSE_FL=STORY 3_SCH=H,SizingPeriod: FORT MCMURRAY AP ANN HTG 99.6% CONDNS DB,5.1551869868E-003,1.9827022651E-003,Pass,Pass,2.2439891138E-003,8.2529971562E-004,Pass,Pass
 Warmup Convergence Information,ALL_ST=TRANSP. COUNTER_FL=STORY 1_SCH=H,SizingPeriod: FORT MCMURRAY AP ANN HTG 99.6% CONDNS DB,2.2037393219E-003,8.9352863972E-004,Pass,Pass,1.4564111494E-004,5.7285445080E-005,Pass,Pass
 Warmup Convergence Information,ALL_ST=TRANSP. SEATING_FL=STORY 1_SCH=H,SizingPeriod: FORT MCMURRAY AP ANN HTG 99.6% CONDNS DB,2.3270091794E-003,1.1191230197E-003,Pass,Pass,3.4958414416E-004,1.6033838394E-004,Pass,Pass
 Warmup Convergence Information,ALL_ST=WAREHOUSE - FINE - REFRIGERATED_FL=STORY 2_SCH=A,SizingPeriod: FORT MCMURRAY AP ANN HTG 99.6% CONDNS DB,2.5531302657E-002,2.6557069044E-002,Pass,Pass,1.0470033101E-003,1.8271688251E-003,Pass,Pass
 Warmup Convergence Information,ALL_ST=WAREHOUSE - FINE_FL=STORY 1_SCH=A,SizingPeriod: FORT MCMURRAY AP ANN HTG 99.6% CONDNS DB,5.1679396665E-002,0.1680431532,Pass,Pass,0.5499812320,2.9912512066,Pass,Pass
 Warmup Convergence Information,ALL_ST=WAREHOUSE - MED/BLK - REFRIGERATED_FL=STORY 2_SCH=A,SizingPeriod: FORT MCMURRAY AP ANN HTG 99.6% CONDNS DB,1.7232179425E-002,1.6730078172E-002,Pass,Pass,7.1659403215E-004,1.0283311403E-003,Pass,Pass
 Warmup Convergence Information,ALL_ST=WAREHOUSE - MED/BLK2 - REFRIGERATED_FL=STORY 2_SCH=A,SizingPeriod: FORT MCMURRAY AP ANN HTG 99.6% CONDNS DB,2.0511233313E-002,2.4443283018E-002,Pass,Pass,9.2264342049E-004,1.7033288558E-003,Pass,Pass
 Warmup Convergence Information,ALL_ST=WAREHOUSE - MED/BLK2_FL=STORY 2_SCH=A,SizingPeriod: FORT MCMURRAY AP ANN HTG 99.6% CONDNS DB,5.5559730341E-002,0.2472787782,Pass,Pass,0.4009927152,3.4995628806,Pass,Pass
 Warmup Convergence Information,ALL_ST=WAREHOUSE - MED/BLK_FL=STORY 1_SCH=A,SizingPeriod: FORT MCMURRAY AP ANN HTG 99.6% CONDNS DB,5.5567429529E-002,0.1696722198,Pass,Pass,6.6713378317E-002,0.2442084285,Pass,Pass
 Warmup Convergence Information,WET_ST=WASHROOM-SCH-A_FL=STORY 4_SCHA,SizingPeriod: FORT MCMURRAY AP ANN HTG 99.6% CONDNS DB,5.5560892649E-002,0.3219198764,Pass,Pass,3.8819854539E-002,0.1861589062,Pass,Pass
 Warmup Convergence Information,WET_ST=WASHROOM-SCH-B_FL=STORY 2_SCHA,SizingPeriod: FORT MCMURRAY AP ANN HTG 99.6% CONDNS DB,4.0846324659E-002,0.1002378427,Pass,Pass,0.1542644318,0.5663864380,Pass,Pass
 Warmup Convergence Information,WILD_ST=STAIRWAY-SCH-F_FL=STORY 4_SCH=A,SizingPeriod: FORT MCMURRAY AP ANN HTG 99.6% CONDNS DB,5.5556766139E-002,0.3424012185,Pass,Pass,1.0632351178E-002,4.6560834517E-002,Pass,Pass
 Warmup Convergence Information,WILD_ST=STAIRWAY-SCH-G_FL=STORY 4_SCH=A,SizingPeriod: FORT MCMURRAY AP ANN HTG 99.6% CONDNS DB,6.1257777058E-002,0.2971532636,Pass,Pass,1.2989048170E-002,5.4359090203E-002,Pass,Pass
 Warmup Convergence Information,WILD_ST=STAIRWAY-SCH-H_FL=STORY 4_SCH=A,SizingPeriod: FORT MCMURRAY AP ANN HTG 99.6% CONDNS DB,6.2588248106E-002,0.3088011427,Pass,Pass,1.3279212057E-002,5.5295733443E-002,Pass,Pass
 Warmup Convergence Information,WILD_ST=STAIRWAY-SCH-I_FL=STORY 3_SCH=A,SizingPeriod: FORT MCMURRAY AP ANN HTG 99.6% CONDNS DB,3.5972276941E-002,0.1018546758,Pass,Pass,2.2923263749E-002,0.1219248868,Pass,Pass
! <Program Control Information:Threads/Parallel Sims>, Threading Supported,Maximum Number of Threads, Env Set Threads (OMP_NUM_THREADS), EP Env Set Threads (EP_OMP_NUM_THREADS), IDF Set Threads, Number of Threads Used (Interior Radiant Exchange), Number Nominal Surfaces, Number Parallel Sims
Program Control:Threads/Parallel Sims, No,1, N/A, N/A, N/A, N/A, N/A, N/A
End of Data
