Program Version,EnergyPlus, Version 8.9.0-eba93e8e1b, YMD=2019.03.28 13:17
! <Version>, Version ID
 Version, 8.9
! <Timesteps per Hour>, #TimeSteps, Minutes per TimeStep {minutes}
 Timesteps per Hour,  6, 10
! <System Convergence Limits>, Minimum System TimeStep {minutes}, Max HVAC Iterations, Minimum Plant Iterations, Maximum Plant Iterations
 System Convergence Limits, 1, 20, 2, 8
! <Simulation Control>, Do Zone Sizing, Do System Sizing, Do Plant Sizing, Do Design Days, Do Weather Simulation, Do HVAC Sizing Simulation
 Simulation Control, Yes, Yes, Yes, Yes, No, No
! <Output Reporting Tolerances>, Tolerance for Time Heating Setpoint Not Met, Tolerance for Zone Cooling Setpoint Not Met Time
 Output Reporting Tolerances, 1.000, 1.000, 
! <Site:GroundTemperature:BuildingSurface>,Jan{C},Feb{C},Mar{C},Apr{C},May{C},Jun{C},Jul{C},Aug{C},Sep{C},Oct{C},Nov{C},Dec{C}
 Site:GroundTemperature:BuildingSurface,  19.53,  19.50,  19.54,  19.60,  20.00,  21.64,  22.23,  22.38,  21.45,  20.12,  19.80,  19.63
! <Site:GroundTemperature:FCfactorMethod>,Jan{C},Feb{C},Mar{C},Apr{C},May{C},Jun{C},Jul{C},Aug{C},Sep{C},Oct{C},Nov{C},Dec{C}
 Site:GroundTemperature:FCfactorMethod, -12.27, -13.66, -11.19,  -7.33,   2.77,  10.57,  15.83,  17.43,  14.70,   8.65,   0.56,  -6.95
! <Site:GroundTemperature:Shallow>,Jan{C},Feb{C},Mar{C},Apr{C},May{C},Jun{C},Jul{C},Aug{C},Sep{C},Oct{C},Nov{C},Dec{C}
 Site:GroundTemperature:Shallow,  13.00,  13.00,  13.00,  13.00,  13.00,  13.00,  13.00,  13.00,  13.00,  13.00,  13.00,  13.00
! <Site:GroundTemperature:Deep>,Jan{C},Feb{C},Mar{C},Apr{C},May{C},Jun{C},Jul{C},Aug{C},Sep{C},Oct{C},Nov{C},Dec{C}
 Site:GroundTemperature:Deep,  16.00,  16.00,  16.00,  16.00,  16.00,  16.00,  16.00,  16.00,  16.00,  16.00,  16.00,  16.00
! <Site:GroundReflectance>,Jan{dimensionless},Feb{dimensionless},Mar{dimensionless},Apr{dimensionless},May{dimensionless},Jun{dimensionless},Jul{dimensionless},Aug{dimensionless},Sep{dimensionless},Oct{dimensionless},Nov{dimensionless},Dec{dimensionless}
 Site:GroundReflectance,  0.20,  0.20,  0.20,  0.20,  0.20,  0.20,  0.20,  0.20,  0.20,  0.20,  0.20,  0.20
! <Site:GroundReflectance:SnowModifier>, Normal, Daylighting {dimensionless}
 Site:GroundReflectance:SnowModifier,   1.000,   1.000
! <Site:GroundReflectance:Snow>,Jan{dimensionless},Feb{dimensionless},Mar{dimensionless},Apr{dimensionless},May{dimensionless},Jun{dimensionless},Jul{dimensionless},Aug{dimensionless},Sep{dimensionless},Oct{dimensionless},Nov{dimensionless},Dec{dimensionless}
 Site:GroundReflectance:Snow,  0.20,  0.20,  0.20,  0.20,  0.20,  0.20,  0.20,  0.20,  0.20,  0.20,  0.20,  0.20
! <Site:GroundReflectance:Snow:Daylighting>,Jan{dimensionless},Feb{dimensionless},Mar{dimensionless},Apr{dimensionless},May{dimensionless},Jun{dimensionless},Jul{dimensionless},Aug{dimensionless},Sep{dimensionless},Oct{dimensionless},Nov{dimensionless},Dec{dimensionless}
 Site:GroundReflectance:Snow:Daylighting,  0.20,  0.20,  0.20,  0.20,  0.20,  0.20,  0.20,  0.20,  0.20,  0.20,  0.20,  0.20
! <Environment:Weather Station>,Wind Sensor Height Above Ground {m},Wind Speed Profile Exponent {},Wind Speed Profile Boundary Layer Thickness {m},Air Temperature Sensor Height Above Ground {m},Wind Speed Modifier Coefficient-Internal,Temperature Modifier Coefficient-Internal
Environment:Weather Station,10.000,0.140,270.000,1.500,1.586,9.750E-003
! <Site:Location>, Location Name, Latitude {N+/S- Deg}, Longitude {E+/W- Deg},  Time Zone Number {GMT+/-}, Elevation {m},  Standard Pressure at Elevation {Pa}, Standard RhoAir at Elevation
Site:Location,Fort McMurray AP AB CAN CWEC2016 WMO#=716890,56.65,-111.22,-7.00,369.10,96969,1.1525
! <Building Information>, Building Name,North Axis {deg},Terrain,  Loads Convergence Tolerance Value,Temperature Convergence Tolerance Value,  Solar Distribution,Maximum Number of Warmup Days,Minimum Number of Warmup Days
 Building Information,Building 1,0.000,Suburbs,4.00000E-002,0.40000,FullExterior,25,6
! <Inside Convection Algorithm>, Algorithm {Simple | TARP | CeilingDiffuser | AdaptiveConvectionAlgorithm}
Inside Convection Algorithm,TARP
! <Outside Convection Algorithm>, Algorithm {SimpleCombined | TARP | MoWitt | DOE-2 | AdaptiveConvectionAlgorithm}
Outside Convection Algorithm,TARP
! <Sky Radiance Distribution>, Value {Anisotropic}
Sky Radiance Distribution,Anisotropic
! <Zone Air Solution Algorithm>, Value {ThirdOrderBackwardDifference | AnalyticalSolution | EulerMethod}
 Zone Air Solution Algorithm, ThirdOrderBackwardDifference
! <Zone Air Carbon Dioxide Balance Simulation>, Simulation {Yes/No}, Carbon Dioxide Concentration
 Zone Air Carbon Dioxide Balance Simulation, No,N/A
! <Zone Air Generic Contaminant Balance Simulation>, Simulation {Yes/No}, Generic Contaminant Concentration
 Zone Air Generic Contaminant Balance Simulation, No,N/A
! <Zone Air Mass Flow Balance Simulation>, Enforce Mass Balance, Adjust Zone Mixing, Adjust Zone Infiltration {AddInfiltration | AdjustInfiltration | None}, Infiltration Zones {MixingSourceZonesOnly | AllZones}
 Zone Air Mass Flow Balance Simulation, No,N/A,N/A,N/A
! <HVACSystemRootFindingAlgorithm>, Value {RegulaFalsi | Bisection | BisectionThenRegulaFalsi | RegulaFalsiThenBisection}
 HVACSystemRootFindingAlgorithm, RegulaFalsi
! <Environment:Site Atmospheric Variation>,Wind Speed Profile Exponent {},Wind Speed Profile Boundary Layer Thickness {m},Air Temperature Gradient Coefficient {K/m}
Environment:Site Atmospheric Variation,0.220,370.000,6.500000E-003
! <Surface Geometry>,Starting Corner,Vertex Input Direction,Coordinate System,Daylight Reference Point Coordinate System,Rectangular (Simple) Surface Coordinate System
 Surface Geometry,UpperLeftCorner,Counterclockwise,RelativeCoordinateSystem,RelativeCoordinateSystem,RelativeToZoneOrigin
! <Surface Heat Transfer Algorithm>, Value {CTF - ConductionTransferFunction | EMPD - MoisturePenetrationDepthConductionTransferFunction | CondFD - ConductionFiniteDifference | HAMT - CombinedHeatAndMoistureFiniteElement} - Description,Inside Surface Max Temperature Limit{C}, Surface Convection Coefficient Lower Limit {W/m2-K}, Surface Convection Coefficient Upper Limit {W/m2-K}
Surface Heat Transfer Algorithm, CTF - ConductionTransferFunction,200,0.10,1000.0
! <Shading Summary>, Number of Fixed Detached Shades, Number of Building Detached Shades, Number of Attached Shades
 Shading Summary,0,0,0
! <Zone Summary>, Number of Zones, Number of Zone Surfaces, Number of SubSurfaces
 Zone Summary,20,137,17
! <Zone Information>,Zone Name,North Axis {deg},Origin X-Coordinate {m},Origin Y-Coordinate {m},Origin Z-Coordinate {m},Centroid X-Coordinate {m},Centroid Y-Coordinate {m},Centroid Z-Coordinate {m},Type,Zone Multiplier,Zone List Multiplier,Minimum X {m},Maximum X {m},Minimum Y {m},Maximum Y {m},Minimum Z {m},Maximum Z {m},Ceiling Height {m},Volume {m3},Zone Inside Convection Algorithm {Simple-Detailed-CeilingDiffuser-TrombeWall},Zone Outside Convection Algorithm {Simple-Detailed-Tarp-MoWitt-DOE-2-BLAST}, Floor Area {m2},Exterior Gross Wall Area {m2},Exterior Net Wall Area {m2},Exterior Window Area {m2}, Number of Surfaces, Number of SubSurfaces, Number of Shading SubSurfaces,  Part of Total Building Area
 Zone Information, ALL_ST=RELIGIOUS - FELLOWSHIP HALL_FL=STORY 4_SCH=C,0.0,0.00,0.00,11.40,50.00,10.85,13.30,1,1,1,0.00,100.00,0.00,25.00,11.40,15.20,3.80,7125.00,TARP,TARP,1875.00,380.00,285.00,188.75,6,2,0,Yes
 Zone Information, ALL_ST=RELIGIOUS - PULPIT/CHOIR_FL=STORY 4_SCH=I,0.0,25.00,75.00,11.40,50.00,89.15,13.30,1,1,1,0.00,100.00,75.00,100.00,11.40,15.20,3.80,7125.00,TARP,TARP,1875.00,380.00,285.00,188.75,6,2,0,Yes
 Zone Information, ALL_ST=RETAIL - DRESSING/FITTING_FL=STORY 3_SCH=C,0.0,0.00,0.00,7.60,50.00,10.85,9.50,1,1,1,0.00,100.00,0.00,25.00,7.60,11.40,3.80,7125.00,TARP,TARP,1875.00,380.00,285.00,95.00,6,1,0,Yes
 Zone Information, ALL_ST=RETAIL - MALL CONCOURSE_FL=STORY 3_SCH=C,0.0,25.00,75.00,7.60,50.00,89.15,9.50,1,1,1,0.00,100.00,75.00,100.00,7.60,11.40,3.80,7125.00,TARP,TARP,1875.00,380.00,285.00,95.00,6,1,0,Yes
 Zone Information, ALL_ST=RETAIL - SALES_FL=STORY 3_SCH=C,0.0,0.00,0.00,7.60,10.85,50.00,9.50,1,1,1,0.00,25.00,0.00,100.00,7.60,11.40,3.80,7125.00,TARP,TARP,1875.00,380.00,285.00,95.00,6,1,0,Yes
 Zone Information, ALL_ST=SALES AREA_FL=STORY 1_SCH=C,0.0,0.00,0.00,0.00,10.85,50.00,1.90,1,1,1,0.00,25.00,0.00,100.00,0.00,3.80,3.80,7125.00,TARP,TARP,1875.00,0.00,0.00,0.00,6,0,0,Yes
 Zone Information, ALL_ST=SPORTS ARENA - AUDIENCE_FL=STORY 3_SCH=B,0.0,25.00,25.00,7.60,50.00,50.00,9.50,1,1,1,25.00,75.00,25.00,75.00,7.60,11.40,3.80,9500.00,TARP,TARP,2500.00,0.00,0.00,0.00,6,0,0,Yes
 Zone Information, ALL_ST=SPORTS ARENA - COURT C1_FL=STORY 3_SCH=B,0.0,75.00,25.00,7.60,89.15,50.00,9.50,1,1,1,75.00,100.00,0.00,100.00,7.60,11.40,3.80,7125.00,TARP,TARP,1875.00,380.00,285.00,95.00,6,1,0,Yes
 Zone Information, ALL_ST=SPORTS ARENA - COURT C2_FL=STORY 1_SCH=B,0.0,25.00,75.00,0.00,50.00,89.15,1.90,1,1,1,0.00,100.00,75.00,100.00,0.00,3.80,3.80,7125.00,TARP,TARP,1875.00,0.00,0.00,0.00,6,0,0,Yes
 Zone Information, ALL_ST=SPORTS ARENA - COURT C3_FL=STORY 4_SCH=B,0.0,0.00,0.00,11.40,10.85,50.00,13.30,1,1,1,0.00,25.00,0.00,100.00,11.40,15.20,3.80,7125.00,TARP,TARP,1875.00,380.00,285.00,188.75,6,2,0,Yes
 Zone Information, ALL_ST=SPORTS ARENA - COURT C4_FL=STORY 2_SCH=B,0.0,0.00,0.00,3.80,10.85,50.00,5.70,1,1,1,0.00,25.00,0.00,100.00,3.80,7.60,3.80,7125.00,TARP,TARP,1875.00,380.00,285.00,95.00,6,1,0,Yes
 Zone Information, ALL_ST=SPORTS ARENA - RING_FL=STORY 2_SCH=B,0.0,25.00,75.00,3.80,50.00,89.15,5.70,1,1,1,0.00,100.00,75.00,100.00,3.80,7.60,3.80,7125.00,TARP,TARP,1875.00,380.00,285.00,95.00,6,1,0,Yes
 Zone Information, ALL_ST=STORAGE AREA - OCCSENS_FL=STORY 1_SCH=E,0.0,75.00,25.00,0.00,89.15,50.00,1.90,1,1,1,75.00,100.00,0.00,100.00,0.00,3.80,3.80,7125.00,TARP,TARP,1875.00,0.00,0.00,0.00,6,0,0,Yes
 Zone Information, ALL_ST=STORAGE AREA - REFRIGERATED - OCCSENS_FL=STORY 2_SCH=E,0.0,25.00,25.00,3.80,50.00,50.00,5.70,1,1,1,25.00,75.00,25.00,75.00,3.80,7.60,3.80,9500.00,TARP,TARP,2500.00,0.00,0.00,0.00,6,0,0,Yes
 Zone Information, ALL_ST=STORAGE AREA - REFRIGERATED_FL=STORY 1_SCH=E,0.0,0.00,0.00,0.00,50.00,10.85,1.90,1,1,1,0.00,100.00,0.00,25.00,0.00,3.80,3.80,7125.00,TARP,TARP,1875.00,0.00,0.00,0.00,6,0,0,Yes
 Zone Information, ALL_ST=STORAGE AREA_FL=STORY 4_SCH=E,0.0,25.00,25.00,11.40,50.00,50.00,13.30,1,1,1,25.00,75.00,25.00,75.00,11.40,15.20,3.80,9500.00,TARP,TARP,2500.00,0.00,0.00,125.00,6,1,0,Yes
 Zone Information, ALL_ST=TRANSP. BAGGAGE_FL=STORY 2_SCH=H,0.0,75.00,25.00,3.80,89.15,50.00,5.70,1,1,1,75.00,100.00,0.00,100.00,3.80,7.60,3.80,7125.00,TARP,TARP,1875.00,380.00,285.00,95.00,6,1,0,Yes
 Zone Information, ALL_ST=TRANSP. CONCOURSE_FL=STORY 4_SCH=H,0.0,75.00,25.00,11.40,89.15,50.00,13.30,1,1,1,75.00,100.00,0.00,100.00,11.40,15.20,3.80,7125.00,TARP,TARP,1875.00,380.00,285.00,188.75,6,2,0,Yes
 Zone Information, ALL_ST=TRANSP. COUNTER_FL=STORY 1_SCH=H,0.0,25.00,25.00,0.00,50.00,50.00,1.90,1,1,1,25.00,75.00,25.00,75.00,0.00,3.80,3.80,9500.00,TARP,TARP,2500.00,0.00,0.00,0.00,6,0,0,Yes
 Zone Information, ALL_ST=TRANSP. SEATING_FL=STORY 2_SCH=H,0.0,0.00,0.00,3.80,50.00,10.85,5.70,1,1,1,0.00,100.00,0.00,25.00,3.80,7.60,3.80,7125.00,TARP,TARP,1875.00,380.00,285.00,95.00,6,1,0,Yes
! <Zone Internal Gains Nominal>,Zone Name, Floor Area {m2},# Occupants,Area per Occupant {m2/person},Occupant per Area {person/m2},Interior Lighting {W/m2},Electric Load {W/m2},Gas Load {W/m2},Other Load {W/m2},Hot Water Eq {W/m2},Steam Equipment {W/m2},Sum Loads per Area {W/m2},Outdoor Controlled Baseboard Heat
 Zone Internal Gains Nominal, ALL_ST=RELIGIOUS - FELLOWSHIP HALL_FL=STORY 4_SCH=C,1875.00,375.0,5.000,0.200,6.900,1.000,0.000,0.000,0.000,0.000,7.900,No
 Zone Internal Gains Nominal, ALL_ST=RELIGIOUS - PULPIT/CHOIR_FL=STORY 4_SCH=I,1875.00,375.0,5.000,0.200,18.200,1.000,0.000,0.000,0.000,0.000,19.200,No
 Zone Internal Gains Nominal, ALL_ST=RETAIL - DRESSING/FITTING_FL=STORY 3_SCH=C,1875.00,62.6,29.969,3.337E-002,8.460,2.500,0.000,0.000,0.000,0.000,10.960,No
 Zone Internal Gains Nominal, ALL_ST=RETAIL - MALL CONCOURSE_FL=STORY 3_SCH=C,1875.00,93.8,19.979,5.005E-002,11.800,1.000,0.000,0.000,0.000,0.000,12.800,No
 Zone Internal Gains Nominal, ALL_ST=RETAIL - SALES_FL=STORY 3_SCH=C,1875.00,62.6,29.969,3.337E-002,18.100,2.500,0.000,0.000,0.000,0.000,20.600,No
 Zone Internal Gains Nominal, ALL_ST=SALES AREA_FL=STORY 1_SCH=C,1875.00,62.6,29.969,3.337E-002,18.100,2.500,0.000,0.000,0.000,0.000,20.600,No
 Zone Internal Gains Nominal, ALL_ST=SPORTS ARENA - AUDIENCE_FL=STORY 3_SCH=B,2500.00,500.0,5.000,0.200,4.600,0.000,0.000,0.000,0.000,0.000,4.600,No
 Zone Internal Gains Nominal, ALL_ST=SPORTS ARENA - COURT C1_FL=STORY 3_SCH=B,1875.00,375.0,5.000,0.200,32.400,1.500,0.000,0.000,0.000,0.000,33.900,No
 Zone Internal Gains Nominal, ALL_ST=SPORTS ARENA - COURT C2_FL=STORY 1_SCH=B,1875.00,375.0,5.000,0.200,20.700,1.500,0.000,0.000,0.000,0.000,22.200,No
 Zone Internal Gains Nominal, ALL_ST=SPORTS ARENA - COURT C3_FL=STORY 4_SCH=B,1875.00,375.0,5.000,0.200,12.900,1.500,0.000,0.000,0.000,0.000,14.400,No
 Zone Internal Gains Nominal, ALL_ST=SPORTS ARENA - COURT C4_FL=STORY 2_SCH=B,1875.00,375.0,5.000,0.200,7.800,1.500,0.000,0.000,0.000,0.000,9.300,No
 Zone Internal Gains Nominal, ALL_ST=SPORTS ARENA - RING_FL=STORY 2_SCH=B,1875.00,375.0,5.000,0.200,28.800,1.500,0.000,0.000,0.000,0.000,30.300,No
 Zone Internal Gains Nominal, ALL_ST=STORAGE AREA - OCCSENS_FL=STORY 1_SCH=E,1875.00,18.8,99.896,1.001E-002,6.120,1.000,0.000,0.000,0.000,0.000,7.120,No
 Zone Internal Gains Nominal, ALL_ST=STORAGE AREA - REFRIGERATED - OCCSENS_FL=STORY 2_SCH=E,2500.00,25.0,99.896,1.001E-002,6.120,1.000,0.000,0.000,0.000,0.000,7.120,No
 Zone Internal Gains Nominal, ALL_ST=STORAGE AREA - REFRIGERATED_FL=STORY 1_SCH=E,1875.00,18.8,99.896,1.001E-002,6.800,1.000,0.000,0.000,0.000,0.000,7.800,No
 Zone Internal Gains Nominal, ALL_ST=STORAGE AREA_FL=STORY 4_SCH=E,2500.00,25.0,99.896,1.001E-002,6.800,1.000,0.000,0.000,0.000,0.000,7.800,No
 Zone Internal Gains Nominal, ALL_ST=TRANSP. BAGGAGE_FL=STORY 2_SCH=H,1875.00,93.8,19.979,5.005E-002,8.200,2.500,0.000,0.000,0.000,0.000,10.700,No
 Zone Internal Gains Nominal, ALL_ST=TRANSP. CONCOURSE_FL=STORY 4_SCH=H,1875.00,93.8,19.979,5.005E-002,3.900,0.000,0.000,0.000,0.000,0.000,3.900,No
 Zone Internal Gains Nominal, ALL_ST=TRANSP. COUNTER_FL=STORY 1_SCH=H,2500.00,250.0,10.000,10.000E-002,11.600,2.500,0.000,0.000,0.000,0.000,14.100,No
 Zone Internal Gains Nominal, ALL_ST=TRANSP. SEATING_FL=STORY 2_SCH=H,1875.00,187.5,10.000,10.000E-002,5.800,0.000,0.000,0.000,0.000,0.000,5.800,No
! <People Internal Gains Nominal>,Name,Schedule Name,Zone Name,Zone Floor Area {m2},# Zone Occupants,Number of People {},People/Floor Area {person/m2},Floor Area per person {m2/person},Fraction Radiant,Fraction Convected,Sensible Fraction Calculation,Activity level,ASHRAE 55 Warnings,Carbon Dioxide Generation Rate,Nominal Minimum Number of People,Nominal Maximum Number of People
 People Internal Gains Nominal, ALL_ST=RELIGIOUS - FELLOWSHIP HALL_FL=STORY 4_SCH=C SPACE FUNCTION RELIGIOUS - FELLOWSHIP HALL PEOPLE,NECB-C-OCCUPANCY,ALL_ST=RELIGIOUS - FELLOWSHIP HALL_FL=STORY 4_SCH=C,1875.00,375.0,375.0,0.200,5.000,0.300,0.700,AutoCalculate,NECB-ACTIVITY,No,3.8200E-008,0,337
 People Internal Gains Nominal, ALL_ST=RELIGIOUS - PULPIT/CHOIR_FL=STORY 4_SCH=I SPACE FUNCTION RELIGIOUS - PULPIT/CHOIR PEOPLE,NECB-I-OCCUPANCY,ALL_ST=RELIGIOUS - PULPIT/CHOIR_FL=STORY 4_SCH=I,1875.00,375.0,375.0,0.200,5.000,0.300,0.700,AutoCalculate,NECB-ACTIVITY,No,3.8200E-008,0,300
 People Internal Gains Nominal, ALL_ST=RETAIL - DRESSING/FITTING_FL=STORY 3_SCH=C SPACE FUNCTION RETAIL - DRESSING/FITTING PEOPLE,NECB-C-OCCUPANCY,ALL_ST=RETAIL - DRESSING/FITTING_FL=STORY 3_SCH=C,1875.00,62.6,62.6,3.337E-002,29.969,0.300,0.700,AutoCalculate,NECB-ACTIVITY,No,3.8200E-008,0,56
 People Internal Gains Nominal, ALL_ST=RETAIL - MALL CONCOURSE_FL=STORY 3_SCH=C SPACE FUNCTION RETAIL - MALL CONCOURSE PEOPLE,NECB-C-OCCUPANCY,ALL_ST=RETAIL - MALL CONCOURSE_FL=STORY 3_SCH=C,1875.00,93.8,93.8,5.005E-002,19.979,0.300,0.700,AutoCalculate,NECB-ACTIVITY,No,3.8200E-008,0,84
 People Internal Gains Nominal, ALL_ST=RETAIL - SALES_FL=STORY 3_SCH=C SPACE FUNCTION RETAIL - SALES PEOPLE,NECB-C-OCCUPANCY,ALL_ST=RETAIL - SALES_FL=STORY 3_SCH=C,1875.00,62.6,62.6,3.337E-002,29.969,0.300,0.700,AutoCalculate,NECB-ACTIVITY,No,3.8200E-008,0,56
 People Internal Gains Nominal, ALL_ST=SALES AREA_FL=STORY 1_SCH=C SPACE FUNCTION SALES AREA PEOPLE,NECB-C-OCCUPANCY,ALL_ST=SALES AREA_FL=STORY 1_SCH=C,1875.00,62.6,62.6,3.337E-002,29.969,0.300,0.700,AutoCalculate,NECB-ACTIVITY,No,3.8200E-008,0,56
 People Internal Gains Nominal, ALL_ST=SPORTS ARENA - AUDIENCE_FL=STORY 3_SCH=B SPACE FUNCTION SPORTS ARENA - AUDIENCE PEOPLE,NECB-B-OCCUPANCY,ALL_ST=SPORTS ARENA - AUDIENCE_FL=STORY 3_SCH=B,2500.00,500.0,500.0,0.200,5.000,0.300,0.700,AutoCalculate,NECB-ACTIVITY,No,3.8200E-008,0,450
 People Internal Gains Nominal, ALL_ST=SPORTS ARENA - COURT C1_FL=STORY 3_SCH=B SPACE FUNCTION SPORTS ARENA - COURT C1 PEOPLE,NECB-B-OCCUPANCY,ALL_ST=SPORTS ARENA - COURT C1_FL=STORY 3_SCH=B,1875.00,375.0,375.0,0.200,5.000,0.300,0.700,AutoCalculate,NECB-ACTIVITY,No,3.8200E-008,0,337
 People Internal Gains Nominal, ALL_ST=SPORTS ARENA - COURT C2_FL=STORY 1_SCH=B SPACE FUNCTION SPORTS ARENA - COURT C2 PEOPLE,NECB-B-OCCUPANCY,ALL_ST=SPORTS ARENA - COURT C2_FL=STORY 1_SCH=B,1875.00,375.0,375.0,0.200,5.000,0.300,0.700,AutoCalculate,NECB-ACTIVITY,No,3.8200E-008,0,337
 People Internal Gains Nominal, ALL_ST=SPORTS ARENA - COURT C3_FL=STORY 4_SCH=B SPACE FUNCTION SPORTS ARENA - COURT C3 PEOPLE,NECB-B-OCCUPANCY,ALL_ST=SPORTS ARENA - COURT C3_FL=STORY 4_SCH=B,1875.00,375.0,375.0,0.200,5.000,0.300,0.700,AutoCalculate,NECB-ACTIVITY,No,3.8200E-008,0,337
 People Internal Gains Nominal, ALL_ST=SPORTS ARENA - COURT C4_FL=STORY 2_SCH=B SPACE FUNCTION SPORTS ARENA - COURT C4 PEOPLE,NECB-B-OCCUPANCY,ALL_ST=SPORTS ARENA - COURT C4_FL=STORY 2_SCH=B,1875.00,375.0,375.0,0.200,5.000,0.300,0.700,AutoCalculate,NECB-ACTIVITY,No,3.8200E-008,0,337
 People Internal Gains Nominal, ALL_ST=SPORTS ARENA - RING_FL=STORY 2_SCH=B SPACE FUNCTION SPORTS ARENA - RING PEOPLE,NECB-B-OCCUPANCY,ALL_ST=SPORTS ARENA - RING_FL=STORY 2_SCH=B,1875.00,375.0,375.0,0.200,5.000,0.300,0.700,AutoCalculate,NECB-ACTIVITY,No,3.8200E-008,0,337
 People Internal Gains Nominal, ALL_ST=STORAGE AREA_FL=STORY 4_SCH=E SPACE FUNCTION STORAGE AREA PEOPLE,NECB-E-OCCUPANCY,ALL_ST=STORAGE AREA_FL=STORY 4_SCH=E,2500.00,25.0,25.0,1.001E-002,99.896,0.300,0.700,AutoCalculate,NECB-ACTIVITY,No,3.8200E-008,0,23
 People Internal Gains Nominal, ALL_ST=STORAGE AREA - OCCSENS_FL=STORY 1_SCH=E SPACE FUNCTION STORAGE AREA - OCCSENS PEOPLE,NECB-E-OCCUPANCY,ALL_ST=STORAGE AREA - OCCSENS_FL=STORY 1_SCH=E,1875.00,18.8,18.8,1.001E-002,99.896,0.300,0.700,AutoCalculate,NECB-ACTIVITY,No,3.8200E-008,0,17
 People Internal Gains Nominal, ALL_ST=STORAGE AREA - REFRIGERATED_FL=STORY 1_SCH=E SPACE FUNCTION STORAGE AREA - REFRIGERATED PEOPLE,NECB-E-OCCUPANCY,ALL_ST=STORAGE AREA - REFRIGERATED_FL=STORY 1_SCH=E,1875.00,18.8,18.8,1.001E-002,99.896,0.300,0.700,AutoCalculate,NECB-ACTIVITY,No,3.8200E-008,0,17
 People Internal Gains Nominal, ALL_ST=STORAGE AREA - REFRIGERATED - OCCSENS_FL=STORY 2_SCH=E SPACE FUNCTION STORAGE AREA - REFRIGERATED - OCCSENS PEOPLE,NECB-E-OCCUPANCY,ALL_ST=STORAGE AREA - REFRIGERATED - OCCSENS_FL=STORY 2_SCH=E,2500.00,25.0,25.0,1.001E-002,99.896,0.300,0.700,AutoCalculate,NECB-ACTIVITY,No,3.8200E-008,0,23
 People Internal Gains Nominal, ALL_ST=TRANSP. BAGGAGE_FL=STORY 2_SCH=H SPACE FUNCTION TRANSP. BAGGAGE PEOPLE,NECB-H-OCCUPANCY,ALL_ST=TRANSP. BAGGAGE_FL=STORY 2_SCH=H,1875.00,93.8,93.8,5.005E-002,19.979,0.300,0.700,AutoCalculate,NECB-ACTIVITY,No,3.8200E-008,84,84
 People Internal Gains Nominal, ALL_ST=TRANSP. CONCOURSE_FL=STORY 4_SCH=H SPACE FUNCTION TRANSP. CONCOURSE PEOPLE,NECB-H-OCCUPANCY,ALL_ST=TRANSP. CONCOURSE_FL=STORY 4_SCH=H,1875.00,93.8,93.8,5.005E-002,19.979,0.300,0.700,AutoCalculate,NECB-ACTIVITY,No,3.8200E-008,84,84
 People Internal Gains Nominal, ALL_ST=TRANSP. COUNTER_FL=STORY 1_SCH=H SPACE FUNCTION TRANSP. COUNTER PEOPLE,NECB-H-OCCUPANCY,ALL_ST=TRANSP. COUNTER_FL=STORY 1_SCH=H,2500.00,250.0,250.0,10.000E-002,10.000,0.300,0.700,AutoCalculate,NECB-ACTIVITY,No,3.8200E-008,225,225
 People Internal Gains Nominal, ALL_ST=TRANSP. SEATING_FL=STORY 2_SCH=H SPACE FUNCTION TRANSP. SEATING PEOPLE,NECB-H-OCCUPANCY,ALL_ST=TRANSP. SEATING_FL=STORY 2_SCH=H,1875.00,187.5,187.5,10.000E-002,10.000,0.300,0.700,AutoCalculate,NECB-ACTIVITY,No,3.8200E-008,169,169
! <Lights Internal Gains Nominal>,Name,Schedule Name,Zone Name,Zone Floor Area {m2},# Zone Occupants,Lighting Level {W},Lights/Floor Area {W/m2},Lights per person {W/person},Fraction Return Air,Fraction Radiant,Fraction Short Wave,Fraction Convected,Fraction Replaceable,End-Use Category,Nominal Minimum Lighting Level {W},Nominal Maximum Lighting Level {W}
 Lights Internal Gains Nominal, ALL_ST=RELIGIOUS - FELLOWSHIP HALL_FL=STORY 4_SCH=C SPACE FUNCTION RELIGIOUS - FELLOWSHIP HALL LIGHTS,NECB-C-LIGHTING,ALL_ST=RELIGIOUS - FELLOWSHIP HALL_FL=STORY 4_SCH=C,1875.00,375.0,12937.392,6.900,34.501,0.000,0.500,0.200,0.300,1.000,General,646.870,11643.653
 Lights Internal Gains Nominal, ALL_ST=RELIGIOUS - PULPIT/CHOIR_FL=STORY 4_SCH=I SPACE FUNCTION RELIGIOUS - PULPIT/CHOIR LIGHTS,NECB-I-LIGHTING,ALL_ST=RELIGIOUS - PULPIT/CHOIR_FL=STORY 4_SCH=I,1875.00,375.0,34124.716,18.200,91.002,0.000,0.500,0.200,0.300,1.000,General,1706.236,30712.244
 Lights Internal Gains Nominal, ALL_ST=RETAIL - DRESSING/FITTING_FL=STORY 3_SCH=C SPACE FUNCTION RETAIL - DRESSING/FITTING LIGHTS,NECB-C-LIGHTING,ALL_ST=RETAIL - DRESSING/FITTING_FL=STORY 3_SCH=C,1875.00,62.6,15862.368,8.460,253.533,0.000,0.500,0.200,0.300,1.000,General,793.118,14276.131
 Lights Internal Gains Nominal, ALL_ST=RETAIL - MALL CONCOURSE_FL=STORY 3_SCH=C SPACE FUNCTION RETAIL - MALL CONCOURSE LIGHTS,NECB-C-LIGHTING,ALL_ST=RETAIL - MALL CONCOURSE_FL=STORY 3_SCH=C,1875.00,93.8,22124.816,11.800,235.752,0.000,0.500,0.200,0.300,1.000,General,1106.241,19912.334
 Lights Internal Gains Nominal, ALL_ST=RETAIL - SALES_FL=STORY 3_SCH=C SPACE FUNCTION RETAIL - SALES LIGHTS,NECB-C-LIGHTING,ALL_ST=RETAIL - SALES_FL=STORY 3_SCH=C,1875.00,62.6,33937.218,18.100,542.429,0.000,0.500,0.200,0.300,1.000,General,1696.861,30543.496
 Lights Internal Gains Nominal, ALL_ST=SALES AREA_FL=STORY 1_SCH=C SPACE FUNCTION SALES AREA LIGHTS,NECB-C-LIGHTING,ALL_ST=SALES AREA_FL=STORY 1_SCH=C,1875.00,62.6,33937.218,18.100,542.429,0.000,0.500,0.200,0.300,1.000,General,1696.861,30543.496
 Lights Internal Gains Nominal, ALL_ST=SPORTS ARENA - AUDIENCE_FL=STORY 3_SCH=B SPACE FUNCTION SPORTS ARENA - AUDIENCE LIGHTS,NECB-B-LIGHTING,ALL_ST=SPORTS ARENA - AUDIENCE_FL=STORY 3_SCH=B,2500.00,500.0,11499.904,4.600,23.001,0.000,0.500,0.200,0.300,1.000,General,1149.990,10349.914
 Lights Internal Gains Nominal, ALL_ST=SPORTS ARENA - COURT C1_FL=STORY 3_SCH=B SPACE FUNCTION SPORTS ARENA - COURT C1 LIGHTS,NECB-B-LIGHTING,ALL_ST=SPORTS ARENA - COURT C1_FL=STORY 3_SCH=B,1875.00,375.0,60749.494,32.400,162.004,0.000,0.500,0.200,0.300,1.000,General,6074.949,54674.545
 Lights Internal Gains Nominal, ALL_ST=SPORTS ARENA - COURT C2_FL=STORY 1_SCH=B SPACE FUNCTION SPORTS ARENA - COURT C2 LIGHTS,NECB-B-LIGHTING,ALL_ST=SPORTS ARENA - COURT C2_FL=STORY 1_SCH=B,1875.00,375.0,38812.177,20.700,103.503,0.000,0.500,0.200,0.300,1.000,General,3881.218,34930.959
 Lights Internal Gains Nominal, ALL_ST=SPORTS ARENA - COURT C3_FL=STORY 4_SCH=B SPACE FUNCTION SPORTS ARENA - COURT C3 LIGHTS,NECB-B-LIGHTING,ALL_ST=SPORTS ARENA - COURT C3_FL=STORY 4_SCH=B,1875.00,375.0,24187.299,12.900,64.502,0.000,0.500,0.200,0.300,1.000,General,2418.730,21768.569
 Lights Internal Gains Nominal, ALL_ST=SPORTS ARENA - COURT C4_FL=STORY 2_SCH=B SPACE FUNCTION SPORTS ARENA - COURT C4 LIGHTS,NECB-B-LIGHTING,ALL_ST=SPORTS ARENA - COURT C4_FL=STORY 2_SCH=B,1875.00,375.0,14624.878,7.800,39.001,0.000,0.500,0.200,0.300,1.000,General,1462.488,13162.390
 Lights Internal Gains Nominal, ALL_ST=SPORTS ARENA - RING_FL=STORY 2_SCH=B SPACE FUNCTION SPORTS ARENA - RING LIGHTS,NECB-B-LIGHTING,ALL_ST=SPORTS ARENA - RING_FL=STORY 2_SCH=B,1875.00,375.0,53999.551,28.800,144.004,0.000,0.500,0.200,0.300,1.000,General,5399.955,48599.596
 Lights Internal Gains Nominal, ALL_ST=STORAGE AREA_FL=STORY 4_SCH=E SPACE FUNCTION STORAGE AREA LIGHTS,NECB-E-LIGHTING,ALL_ST=STORAGE AREA_FL=STORY 4_SCH=E,2500.00,25.0,16999.859,6.800,679.285,0.000,0.500,0.200,0.300,1.000,General,849.993,15299.873
 Lights Internal Gains Nominal, ALL_ST=STORAGE AREA - OCCSENS_FL=STORY 1_SCH=E SPACE FUNCTION STORAGE AREA - OCCSENS LIGHTS,NECB-E-LIGHTING,ALL_ST=STORAGE AREA - OCCSENS_FL=STORY 1_SCH=E,1875.00,18.8,11474.905,6.120,611.357,0.000,0.500,0.200,0.300,1.000,General,573.745,10327.414
 Lights Internal Gains Nominal, ALL_ST=STORAGE AREA - REFRIGERATED_FL=STORY 1_SCH=E SPACE FUNCTION STORAGE AREA - REFRIGERATED LIGHTS,NECB-E-LIGHTING,ALL_ST=STORAGE AREA - REFRIGERATED_FL=STORY 1_SCH=E,1875.00,18.8,12749.894,6.800,679.285,0.000,0.500,0.200,0.300,1.000,General,637.495,11474.904
 Lights Internal Gains Nominal, ALL_ST=STORAGE AREA - REFRIGERATED - OCCSENS_FL=STORY 2_SCH=E SPACE FUNCTION STORAGE AREA - REFRIGERATED - OCCSENS LIGHTS,NECB-E-LIGHTING,ALL_ST=STORAGE AREA - REFRIGERATED - OCCSENS_FL=STORY 2_SCH=E,2500.00,25.0,15299.873,6.120,611.357,0.000,0.500,0.200,0.300,1.000,General,764.994,13769.885
 Lights Internal Gains Nominal, ALL_ST=TRANSP. BAGGAGE_FL=STORY 2_SCH=H SPACE FUNCTION TRANSP. BAGGAGE LIGHTS,NECB-H-LIGHTING,ALL_ST=TRANSP. BAGGAGE_FL=STORY 2_SCH=H,1875.00,93.8,15374.872,8.200,163.828,0.000,0.500,0.200,0.300,1.000,General,13837.385,13837.385
 Lights Internal Gains Nominal, ALL_ST=TRANSP. CONCOURSE_FL=STORY 4_SCH=H SPACE FUNCTION TRANSP. CONCOURSE LIGHTS,NECB-H-LIGHTING,ALL_ST=TRANSP. CONCOURSE_FL=STORY 4_SCH=H,1875.00,93.8,7312.439,3.900,77.918,0.000,0.500,0.200,0.300,1.000,General,6581.195,6581.195
 Lights Internal Gains Nominal, ALL_ST=TRANSP. COUNTER_FL=STORY 1_SCH=H SPACE FUNCTION TRANSP. COUNTER LIGHTS,NECB-H-LIGHTING,ALL_ST=TRANSP. COUNTER_FL=STORY 1_SCH=H,2500.00,250.0,28999.759,11.600,116.003,0.000,0.500,0.200,0.300,1.000,General,26099.783,26099.783
 Lights Internal Gains Nominal, ALL_ST=TRANSP. SEATING_FL=STORY 2_SCH=H SPACE FUNCTION TRANSP. SEATING LIGHTS,NECB-H-LIGHTING,ALL_ST=TRANSP. SEATING_FL=STORY 2_SCH=H,1875.00,187.5,10874.910,5.800,58.001,0.000,0.500,0.200,0.300,1.000,General,9787.419,9787.419
! <ElectricEquipment Internal Gains Nominal>,Name,Schedule Name,Zone Name,Zone Floor Area {m2},# Zone Occupants,Equipment Level {W},Equipment/Floor Area {W/m2},Equipment per person {W/person},Fraction Latent,Fraction Radiant,Fraction Lost,Fraction Convected,End-Use SubCategory,Nominal Minimum Equipment Level {W},Nominal Maximum Equipment Level {W}
 ElectricEquipment Internal Gains Nominal, ALL_ST=RELIGIOUS - FELLOWSHIP HALL_FL=STORY 4_SCH=C SPACE FUNCTION RELIGIOUS - FELLOWSHIP HALL ELEC EQUIP,NECB-C-ELECTRIC-EQUIPMENT,ALL_ST=RELIGIOUS - FELLOWSHIP HALL_FL=STORY 4_SCH=C,1875.00,375.0,1874.984,1.000,5.000,0.000,0.500,0.000,0.500,General,93.749,1687.486
 ElectricEquipment Internal Gains Nominal, ALL_ST=RELIGIOUS - PULPIT/CHOIR_FL=STORY 4_SCH=I SPACE FUNCTION RELIGIOUS - PULPIT/CHOIR ELEC EQUIP,NECB-I-ELECTRIC-EQUIPMENT,ALL_ST=RELIGIOUS - PULPIT/CHOIR_FL=STORY 4_SCH=I,1875.00,375.0,1874.984,1.000,5.000,0.000,0.500,0.000,0.500,General,187.498,1499.988
 ElectricEquipment Internal Gains Nominal, ALL_ST=RETAIL - DRESSING/FITTING_FL=STORY 3_SCH=C SPACE FUNCTION RETAIL - DRESSING/FITTING ELEC EQUIP,NECB-C-ELECTRIC-EQUIPMENT,ALL_ST=RETAIL - DRESSING/FITTING_FL=STORY 3_SCH=C,1875.00,62.6,4687.461,2.500,74.921,0.000,0.500,0.000,0.500,General,234.373,4218.715
 ElectricEquipment Internal Gains Nominal, ALL_ST=RETAIL - MALL CONCOURSE_FL=STORY 3_SCH=C SPACE FUNCTION RETAIL - MALL CONCOURSE ELEC EQUIP,NECB-C-ELECTRIC-EQUIPMENT,ALL_ST=RETAIL - MALL CONCOURSE_FL=STORY 3_SCH=C,1875.00,93.8,1874.984,1.000,19.979,0.000,0.500,0.000,0.500,General,93.749,1687.486
 ElectricEquipment Internal Gains Nominal, ALL_ST=RETAIL - SALES_FL=STORY 3_SCH=C SPACE FUNCTION RETAIL - SALES ELEC EQUIP,NECB-C-ELECTRIC-EQUIPMENT,ALL_ST=RETAIL - SALES_FL=STORY 3_SCH=C,1875.00,62.6,4687.461,2.500,74.921,0.000,0.500,0.000,0.500,General,234.373,4218.715
 ElectricEquipment Internal Gains Nominal, ALL_ST=SALES AREA_FL=STORY 1_SCH=C SPACE FUNCTION SALES AREA ELEC EQUIP,NECB-C-ELECTRIC-EQUIPMENT,ALL_ST=SALES AREA_FL=STORY 1_SCH=C,1875.00,62.6,4687.461,2.500,74.921,0.000,0.500,0.000,0.500,General,234.373,4218.715
 ElectricEquipment Internal Gains Nominal, ALL_ST=SPORTS ARENA - COURT C1_FL=STORY 3_SCH=B SPACE FUNCTION SPORTS ARENA - COURT C1 ELEC EQUIP,NECB-B-ELECTRIC-EQUIPMENT,ALL_ST=SPORTS ARENA - COURT C1_FL=STORY 3_SCH=B,1875.00,375.0,2812.477,1.500,7.500,0.000,0.500,0.000,0.500,General,281.248,2531.229
 ElectricEquipment Internal Gains Nominal, ALL_ST=SPORTS ARENA - COURT C2_FL=STORY 1_SCH=B SPACE FUNCTION SPORTS ARENA - COURT C2 ELEC EQUIP,NECB-B-ELECTRIC-EQUIPMENT,ALL_ST=SPORTS ARENA - COURT C2_FL=STORY 1_SCH=B,1875.00,375.0,2812.477,1.500,7.500,0.000,0.500,0.000,0.500,General,281.248,2531.229
 ElectricEquipment Internal Gains Nominal, ALL_ST=SPORTS ARENA - COURT C3_FL=STORY 4_SCH=B SPACE FUNCTION SPORTS ARENA - COURT C3 ELEC EQUIP,NECB-B-ELECTRIC-EQUIPMENT,ALL_ST=SPORTS ARENA - COURT C3_FL=STORY 4_SCH=B,1875.00,375.0,2812.477,1.500,7.500,0.000,0.500,0.000,0.500,General,281.248,2531.229
 ElectricEquipment Internal Gains Nominal, ALL_ST=SPORTS ARENA - COURT C4_FL=STORY 2_SCH=B SPACE FUNCTION SPORTS ARENA - COURT C4 ELEC EQUIP,NECB-B-ELECTRIC-EQUIPMENT,ALL_ST=SPORTS ARENA - COURT C4_FL=STORY 2_SCH=B,1875.00,375.0,2812.477,1.500,7.500,0.000,0.500,0.000,0.500,General,281.248,2531.229
 ElectricEquipment Internal Gains Nominal, ALL_ST=SPORTS ARENA - RING_FL=STORY 2_SCH=B SPACE FUNCTION SPORTS ARENA - RING ELEC EQUIP,NECB-B-ELECTRIC-EQUIPMENT,ALL_ST=SPORTS ARENA - RING_FL=STORY 2_SCH=B,1875.00,375.0,2812.477,1.500,7.500,0.000,0.500,0.000,0.500,General,281.248,2531.229
 ElectricEquipment Internal Gains Nominal, ALL_ST=STORAGE AREA_FL=STORY 4_SCH=E SPACE FUNCTION STORAGE AREA ELEC EQUIP,NECB-E-ELECTRIC-EQUIPMENT,ALL_ST=STORAGE AREA_FL=STORY 4_SCH=E,2500.00,25.0,2499.979,1.000,99.895,0.000,0.500,0.000,0.500,General,124.999,2249.981
 ElectricEquipment Internal Gains Nominal, ALL_ST=STORAGE AREA - OCCSENS_FL=STORY 1_SCH=E SPACE FUNCTION STORAGE AREA - OCCSENS ELEC EQUIP,NECB-E-ELECTRIC-EQUIPMENT,ALL_ST=STORAGE AREA - OCCSENS_FL=STORY 1_SCH=E,1875.00,18.8,1874.984,1.000,99.895,0.000,0.500,0.000,0.500,General,93.749,1687.486
 ElectricEquipment Internal Gains Nominal, ALL_ST=STORAGE AREA - REFRIGERATED_FL=STORY 1_SCH=E SPACE FUNCTION STORAGE AREA - REFRIGERATED ELEC EQUIP,NECB-E-ELECTRIC-EQUIPMENT,ALL_ST=STORAGE AREA - REFRIGERATED_FL=STORY 1_SCH=E,1875.00,18.8,1874.984,1.000,99.895,0.000,0.500,0.000,0.500,General,93.749,1687.486
 ElectricEquipment Internal Gains Nominal, ALL_ST=STORAGE AREA - REFRIGERATED - OCCSENS_FL=STORY 2_SCH=E SPACE FUNCTION STORAGE AREA - REFRIGERATED - OCCSENS ELEC EQUIP,NECB-E-ELECTRIC-EQUIPMENT,ALL_ST=STORAGE AREA - REFRIGERATED - OCCSENS_FL=STORY 2_SCH=E,2500.00,25.0,2499.979,1.000,99.895,0.000,0.500,0.000,0.500,General,124.999,2249.981
 ElectricEquipment Internal Gains Nominal, ALL_ST=TRANSP. BAGGAGE_FL=STORY 2_SCH=H SPACE FUNCTION TRANSP. BAGGAGE ELEC EQUIP,NECB-H-ELECTRIC-EQUIPMENT,ALL_ST=TRANSP. BAGGAGE_FL=STORY 2_SCH=H,1875.00,93.8,4687.461,2.500,49.947,0.000,0.500,0.000,0.500,General,4218.715,4218.715
 ElectricEquipment Internal Gains Nominal, ALL_ST=TRANSP. COUNTER_FL=STORY 1_SCH=H SPACE FUNCTION TRANSP. COUNTER ELEC EQUIP,NECB-H-ELECTRIC-EQUIPMENT,ALL_ST=TRANSP. COUNTER_FL=STORY 1_SCH=H,2500.00,250.0,6249.948,2.500,25.001,0.000,0.500,0.000,0.500,General,5624.953,5624.953
! <Shadowing/Sun Position Calculations Annual Simulations>, Calculation Method, Value {days}, Allowable Number Figures in Shadow Overlap {}, Polygon Clipping Algorithm, Sky Diffuse Modeling Algorithm, External Shading Calculation Method, Output External Shading Calculation Results, Disable Self-Shading Within Shading Zone Groups, Disable Self-Shading From Shading Zone Groups to Other Zones
Shadowing/Sun Position Calculations Annual Simulations,AverageOverDaysInFrequency,20,15000,SutherlandHodgman,SimpleSkyDiffuseModeling,InternalCalculation,No,No,No
! <Water Heater Information>,Type,Name,Volume {m3},Maximum Capacity {W},Standard Rated Recovery Efficiency, Standard Rated Energy Factor
! <ZoneInfiltration Airflow Stats Nominal>,Name,Schedule Name,Zone Name, Zone Floor Area {m2}, # Zone Occupants,Design Volume Flow Rate {m3/s},Volume Flow Rate/Floor Area {m3/s/m2},Volume Flow Rate/Exterior Surface Area {m3/s/m2},ACH - Air Changes per Hour,Equation A - Constant Term Coefficient {},Equation B - Temperature Term Coefficient {1/C},Equation C - Velocity Term Coefficient {s/m}, Equation D - Velocity Squared Term Coefficient {s2/m2}
 ZoneInfiltration Airflow Stats Nominal, RELIGIOUS - FELLOWSHIP HALL-SPACE FUNCTION INFILTRATION,ALWAYS ON DISCRETE,ALL_ST=RELIGIOUS - FELLOWSHIP HALL_FL=STORY 4_SCH=C,1875.00,375.0,0.564,3.007E-004,2.500E-004,0.285,0.000,0.000,0.224,0.000
 ZoneInfiltration Airflow Stats Nominal, RELIGIOUS - PULPIT/CHOIR-SPACE FUNCTION INFILTRATION,ALWAYS ON DISCRETE,ALL_ST=RELIGIOUS - PULPIT/CHOIR_FL=STORY 4_SCH=I,1875.00,375.0,0.564,3.007E-004,2.500E-004,0.285,0.000,0.000,0.224,0.000
 ZoneInfiltration Airflow Stats Nominal, RETAIL - DRESSING/FITTING-SPACE FUNCTION INFILTRATION,ALWAYS ON DISCRETE,ALL_ST=RETAIL - DRESSING/FITTING_FL=STORY 3_SCH=C,1875.00,62.6,9.500E-002,5.067E-005,2.500E-004,4.800E-002,0.000,0.000,0.224,0.000
 ZoneInfiltration Airflow Stats Nominal, RETAIL - MALL CONCOURSE-SPACE FUNCTION INFILTRATION,ALWAYS ON DISCRETE,ALL_ST=RETAIL - MALL CONCOURSE_FL=STORY 3_SCH=C,1875.00,93.8,9.500E-002,5.067E-005,2.500E-004,4.800E-002,0.000,0.000,0.224,0.000
 ZoneInfiltration Airflow Stats Nominal, RETAIL - SALES-SPACE FUNCTION INFILTRATION,ALWAYS ON DISCRETE,ALL_ST=RETAIL - SALES_FL=STORY 3_SCH=C,1875.00,62.6,9.500E-002,5.067E-005,2.500E-004,4.800E-002,0.000,0.000,0.224,0.000
 ZoneInfiltration Airflow Stats Nominal, SPORTS ARENA - COURT C1-SPACE FUNCTION INFILTRATION,ALWAYS ON DISCRETE,ALL_ST=SPORTS ARENA - COURT C1_FL=STORY 3_SCH=B,1875.00,375.0,9.500E-002,5.067E-005,2.500E-004,4.800E-002,0.000,0.000,0.224,0.000
 ZoneInfiltration Airflow Stats Nominal, SPORTS ARENA - COURT C3-SPACE FUNCTION INFILTRATION,ALWAYS ON DISCRETE,ALL_ST=SPORTS ARENA - COURT C3_FL=STORY 4_SCH=B,1875.00,375.0,0.564,3.007E-004,2.500E-004,0.285,0.000,0.000,0.224,0.000
 ZoneInfiltration Airflow Stats Nominal, SPORTS ARENA - COURT C4-SPACE FUNCTION INFILTRATION,ALWAYS ON DISCRETE,ALL_ST=SPORTS ARENA - COURT C4_FL=STORY 2_SCH=B,1875.00,375.0,9.500E-002,5.067E-005,2.500E-004,4.800E-002,0.000,0.000,0.224,0.000
 ZoneInfiltration Airflow Stats Nominal, SPORTS ARENA - RING-SPACE FUNCTION INFILTRATION,ALWAYS ON DISCRETE,ALL_ST=SPORTS ARENA - RING_FL=STORY 2_SCH=B,1875.00,375.0,9.500E-002,5.067E-005,2.500E-004,4.800E-002,0.000,0.000,0.224,0.000
 ZoneInfiltration Airflow Stats Nominal, STORAGE AREA-SPACE FUNCTION INFILTRATION,ALWAYS ON DISCRETE,ALL_ST=STORAGE AREA_FL=STORY 4_SCH=E,2500.00,25.0,0.625,2.500E-004,2.500E-004,0.237,0.000,0.000,0.224,0.000
 ZoneInfiltration Airflow Stats Nominal, TRANSP. BAGGAGE-SPACE FUNCTION INFILTRATION,ALWAYS ON DISCRETE,ALL_ST=TRANSP. BAGGAGE_FL=STORY 2_SCH=H,1875.00,93.8,9.500E-002,5.067E-005,2.500E-004,4.800E-002,0.000,0.000,0.224,0.000
 ZoneInfiltration Airflow Stats Nominal, TRANSP. CONCOURSE-SPACE FUNCTION INFILTRATION,ALWAYS ON DISCRETE,ALL_ST=TRANSP. CONCOURSE_FL=STORY 4_SCH=H,1875.00,93.8,0.564,3.007E-004,2.500E-004,0.285,0.000,0.000,0.224,0.000
 ZoneInfiltration Airflow Stats Nominal, TRANSP. SEATING-SPACE FUNCTION INFILTRATION,ALWAYS ON DISCRETE,ALL_ST=TRANSP. SEATING_FL=STORY 2_SCH=H,1875.00,187.5,9.500E-002,5.067E-005,2.500E-004,4.800E-002,0.000,0.000,0.224,0.000
! <AirFlow Model>, Simple
 AirFlow Model, Simple
! <RoomAir Model>, Zone Name, Mixing/Mundt/UCSDDV/UCSDCV/UCSDUFI/UCSDUFE/User Defined
RoomAir Model,ALL_ST=RELIGIOUS - FELLOWSHIP HALL_FL=STORY 4_SCH=C,Mixing/Well-Stirred
RoomAir Model,ALL_ST=RELIGIOUS - PULPIT/CHOIR_FL=STORY 4_SCH=I,Mixing/Well-Stirred
RoomAir Model,ALL_ST=RETAIL - DRESSING/FITTING_FL=STORY 3_SCH=C,Mixing/Well-Stirred
RoomAir Model,ALL_ST=RETAIL - MALL CONCOURSE_FL=STORY 3_SCH=C,Mixing/Well-Stirred
RoomAir Model,ALL_ST=RETAIL - SALES_FL=STORY 3_SCH=C,Mixing/Well-Stirred
RoomAir Model,ALL_ST=SALES AREA_FL=STORY 1_SCH=C,Mixing/Well-Stirred
RoomAir Model,ALL_ST=SPORTS ARENA - AUDIENCE_FL=STORY 3_SCH=B,Mixing/Well-Stirred
RoomAir Model,ALL_ST=SPORTS ARENA - COURT C1_FL=STORY 3_SCH=B,Mixing/Well-Stirred
RoomAir Model,ALL_ST=SPORTS ARENA - COURT C2_FL=STORY 1_SCH=B,Mixing/Well-Stirred
RoomAir Model,ALL_ST=SPORTS ARENA - COURT C3_FL=STORY 4_SCH=B,Mixing/Well-Stirred
RoomAir Model,ALL_ST=SPORTS ARENA - COURT C4_FL=STORY 2_SCH=B,Mixing/Well-Stirred
RoomAir Model,ALL_ST=SPORTS ARENA - RING_FL=STORY 2_SCH=B,Mixing/Well-Stirred
RoomAir Model,ALL_ST=STORAGE AREA - OCCSENS_FL=STORY 1_SCH=E,Mixing/Well-Stirred
RoomAir Model,ALL_ST=STORAGE AREA - REFRIGERATED - OCCSENS_FL=STORY 2_SCH=E,Mixing/Well-Stirred
RoomAir Model,ALL_ST=STORAGE AREA - REFRIGERATED_FL=STORY 1_SCH=E,Mixing/Well-Stirred
RoomAir Model,ALL_ST=STORAGE AREA_FL=STORY 4_SCH=E,Mixing/Well-Stirred
RoomAir Model,ALL_ST=TRANSP. BAGGAGE_FL=STORY 2_SCH=H,Mixing/Well-Stirred
RoomAir Model,ALL_ST=TRANSP. CONCOURSE_FL=STORY 4_SCH=H,Mixing/Well-Stirred
RoomAir Model,ALL_ST=TRANSP. COUNTER_FL=STORY 1_SCH=H,Mixing/Well-Stirred
RoomAir Model,ALL_ST=TRANSP. SEATING_FL=STORY 2_SCH=H,Mixing/Well-Stirred
! <AirflowNetwork Model:Control>, No Multizone or Distribution/Multizone with Distribution/Multizone without Distribution/Multizone with Distribution only during Fan Operation
AirflowNetwork Model:Control,NoMultizoneOrDistribution
! <Zone Volume Capacitance Multiplier>, Sensible Heat Capacity Multiplier, Moisture Capacity Multiplier, Carbon Dioxide Capacity Multiplier, Generic Contaminant Capacity Multiplier
Zone Volume Capacitance Multiplier,   1.000 ,   1.000,   1.000,   1.000
! <Load Timesteps in Zone Design Calculation Averaging Window>, Value
 Load Timesteps in Zone Design Calculation Averaging Window,    6
! <Heating Sizing Factor Information>, Sizing Factor ID, Value
 Heating Sizing Factor Information, Global,   1.3000    
 Heating Sizing Factor Information, Zone ALL_ST=RELIGIOUS - FELLOWSHIP HALL_FL=STORY 4_SCH=C,   1.3000    
 Heating Sizing Factor Information, Zone ALL_ST=RELIGIOUS - PULPIT/CHOIR_FL=STORY 4_SCH=I,   1.3000    
 Heating Sizing Factor Information, Zone ALL_ST=RETAIL - DRESSING/FITTING_FL=STORY 3_SCH=C,   1.3000    
 Heating Sizing Factor Information, Zone ALL_ST=RETAIL - MALL CONCOURSE_FL=STORY 3_SCH=C,   1.3000    
 Heating Sizing Factor Information, Zone ALL_ST=RETAIL - SALES_FL=STORY 3_SCH=C,   1.3000    
 Heating Sizing Factor Information, Zone ALL_ST=SALES AREA_FL=STORY 1_SCH=C,   1.3000    
 Heating Sizing Factor Information, Zone ALL_ST=SPORTS ARENA - AUDIENCE_FL=STORY 3_SCH=B,   1.3000    
 Heating Sizing Factor Information, Zone ALL_ST=SPORTS ARENA - COURT C1_FL=STORY 3_SCH=B,   1.3000    
 Heating Sizing Factor Information, Zone ALL_ST=SPORTS ARENA - COURT C2_FL=STORY 1_SCH=B,   1.3000    
 Heating Sizing Factor Information, Zone ALL_ST=SPORTS ARENA - COURT C3_FL=STORY 4_SCH=B,   1.3000    
 Heating Sizing Factor Information, Zone ALL_ST=SPORTS ARENA - COURT C4_FL=STORY 2_SCH=B,   1.3000    
 Heating Sizing Factor Information, Zone ALL_ST=SPORTS ARENA - RING_FL=STORY 2_SCH=B,   1.3000    
 Heating Sizing Factor Information, Zone ALL_ST=STORAGE AREA - OCCSENS_FL=STORY 1_SCH=E,   1.3000    
 Heating Sizing Factor Information, Zone ALL_ST=STORAGE AREA - REFRIGERATED - OCCSENS_FL=STORY 2_SCH=E,   1.3000    
 Heating Sizing Factor Information, Zone ALL_ST=STORAGE AREA - REFRIGERATED_FL=STORY 1_SCH=E,   1.3000    
 Heating Sizing Factor Information, Zone ALL_ST=STORAGE AREA_FL=STORY 4_SCH=E,   1.3000    
 Heating Sizing Factor Information, Zone ALL_ST=TRANSP. BAGGAGE_FL=STORY 2_SCH=H,   1.3000    
 Heating Sizing Factor Information, Zone ALL_ST=TRANSP. CONCOURSE_FL=STORY 4_SCH=H,   1.3000    
 Heating Sizing Factor Information, Zone ALL_ST=TRANSP. COUNTER_FL=STORY 1_SCH=H,   1.3000    
 Heating Sizing Factor Information, Zone ALL_ST=TRANSP. SEATING_FL=STORY 2_SCH=H,   1.3000    
! <Cooling Sizing Factor Information>, Sizing Factor ID, Value
 Cooling Sizing Factor Information, Global,   1.1000    
 Cooling Sizing Factor Information, Zone ALL_ST=RELIGIOUS - FELLOWSHIP HALL_FL=STORY 4_SCH=C,   1.1000    
 Cooling Sizing Factor Information, Zone ALL_ST=RELIGIOUS - PULPIT/CHOIR_FL=STORY 4_SCH=I,   1.1000    
 Cooling Sizing Factor Information, Zone ALL_ST=RETAIL - DRESSING/FITTING_FL=STORY 3_SCH=C,   1.1000    
 Cooling Sizing Factor Information, Zone ALL_ST=RETAIL - MALL CONCOURSE_FL=STORY 3_SCH=C,   1.1000    
 Cooling Sizing Factor Information, Zone ALL_ST=RETAIL - SALES_FL=STORY 3_SCH=C,   1.1000    
 Cooling Sizing Factor Information, Zone ALL_ST=SALES AREA_FL=STORY 1_SCH=C,   1.1000    
 Cooling Sizing Factor Information, Zone ALL_ST=SPORTS ARENA - AUDIENCE_FL=STORY 3_SCH=B,   1.1000    
 Cooling Sizing Factor Information, Zone ALL_ST=SPORTS ARENA - COURT C1_FL=STORY 3_SCH=B,   1.1000    
 Cooling Sizing Factor Information, Zone ALL_ST=SPORTS ARENA - COURT C2_FL=STORY 1_SCH=B,   1.1000    
 Cooling Sizing Factor Information, Zone ALL_ST=SPORTS ARENA - COURT C3_FL=STORY 4_SCH=B,   1.1000    
 Cooling Sizing Factor Information, Zone ALL_ST=SPORTS ARENA - COURT C4_FL=STORY 2_SCH=B,   1.1000    
 Cooling Sizing Factor Information, Zone ALL_ST=SPORTS ARENA - RING_FL=STORY 2_SCH=B,   1.1000    
 Cooling Sizing Factor Information, Zone ALL_ST=STORAGE AREA - OCCSENS_FL=STORY 1_SCH=E,   1.1000    
 Cooling Sizing Factor Information, Zone ALL_ST=STORAGE AREA - REFRIGERATED - OCCSENS_FL=STORY 2_SCH=E,   1.1000    
 Cooling Sizing Factor Information, Zone ALL_ST=STORAGE AREA - REFRIGERATED_FL=STORY 1_SCH=E,   1.1000    
 Cooling Sizing Factor Information, Zone ALL_ST=STORAGE AREA_FL=STORY 4_SCH=E,   1.1000    
 Cooling Sizing Factor Information, Zone ALL_ST=TRANSP. BAGGAGE_FL=STORY 2_SCH=H,   1.1000    
 Cooling Sizing Factor Information, Zone ALL_ST=TRANSP. CONCOURSE_FL=STORY 4_SCH=H,   1.1000    
 Cooling Sizing Factor Information, Zone ALL_ST=TRANSP. COUNTER_FL=STORY 1_SCH=H,   1.1000    
 Cooling Sizing Factor Information, Zone ALL_ST=TRANSP. SEATING_FL=STORY 2_SCH=H,   1.1000    
! <Zone Sizing Information>, Zone Name, Load Type, Calc Des Load {W}, User Des Load {W}, Calc Des Air Flow Rate {m3/s}, User Des Air Flow Rate {m3/s}, Design Day Name, Date/Time of Peak, Temperature at Peak {C}, Humidity Ratio at Peak {kgWater/kgDryAir}, Floor Area {m2}, # Occupants, Calc Outdoor Air Flow Rate {m3/s}, Calc DOAS Heat Addition Rate {W}
 Zone Sizing Information, ALL_ST=RELIGIOUS - FELLOWSHIP HALL_FL=STORY 4_SCH=C, Cooling, 87728.66665, 96501.53331, 6.78193, 7.46013, FORT MCMURRAY AP ANN CLG .4% CONDNS DB=>MWB, 7/21 13:30:00, 28.59000, 8.76969E-003, 1875.00000, 374.98773, 6.28650, 0.00000
 Zone Sizing Information, ALL_ST=RELIGIOUS - FELLOWSHIP HALL_FL=STORY 4_SCH=C, Heating, 49530.07744, 64389.10067, 1.97447, 6.28650, FORT MCMURRAY AP ANN HTG 99.6% CONDNS DB, 1/21 09:00:00, -36.20000, 1.25811E-004, 1875.00000, 374.98773, 6.28650, 0.00000
 Zone Sizing Information, ALL_ST=RELIGIOUS - PULPIT/CHOIR_FL=STORY 4_SCH=I, Cooling, 102833.07067, 113116.37773, 6.40916, 7.05008, FORT MCMURRAY AP ANN CLG .4% CONDNS DB=>MWB, 7/21 15:00:00, 28.90000, 8.76969E-003, 1875.00000, 374.98773, 6.28650, 0.00000
 Zone Sizing Information, ALL_ST=RELIGIOUS - PULPIT/CHOIR_FL=STORY 4_SCH=I, Heating, 33311.84122, 43305.39359, 1.24346, 6.28650, FORT MCMURRAY AP ANN HTG 99.6% CONDNS DB, 1/21 15:10:00, -36.20000, 1.25811E-004, 1875.00000, 374.98773, 6.28650, 0.00000
 Zone Sizing Information, ALL_ST=RETAIL - DRESSING/FITTING_FL=STORY 3_SCH=C, Cooling, 40444.00450, 44488.40494, 3.12574, 3.43832, FORT MCMURRAY AP ANN CLG .4% CONDNS DB=>MWB, 7/21 14:20:00, 28.90000, 8.76969E-003, 1875.00000, 62.56523, 2.21933, 0.00000
 Zone Sizing Information, ALL_ST=RETAIL - DRESSING/FITTING_FL=STORY 3_SCH=C, Heating, 23152.69628, 30098.50516, 0.90746, 2.21933, FORT MCMURRAY AP ANN HTG 99.6% CONDNS DB, 1/21 09:00:00, -36.20000, 1.25811E-004, 1875.00000, 62.56523, 2.21933, 0.00000
 Zone Sizing Information, ALL_ST=RETAIL - MALL CONCOURSE_FL=STORY 3_SCH=C, Cooling, 46002.19308, 50602.41239, 3.55542, 3.91096, FORT MCMURRAY AP ANN CLG .4% CONDNS DB=>MWB, 7/21 15:20:00, 28.65200, 8.76969E-003, 1875.00000, 93.84784, 3.42900, 0.00000
 Zone Sizing Information, ALL_ST=RETAIL - MALL CONCOURSE_FL=STORY 3_SCH=C, Heating, 13306.07022, 17297.89128, 0.52060, 3.42900, FORT MCMURRAY AP ANN HTG 99.6% CONDNS DB, 1/21 09:00:00, -36.20000, 1.25811E-004, 1875.00000, 93.84784, 3.42900, 0.00000
 Zone Sizing Information, ALL_ST=RETAIL - SALES_FL=STORY 3_SCH=C, Cooling, 60816.15008, 66897.76508, 4.70031, 5.17034, FORT MCMURRAY AP ANN CLG .4% CONDNS DB=>MWB, 7/21 18:00:00, 25.92400, 8.76969E-003, 1875.00000, 62.56523, 2.21933, 0.00000
 Zone Sizing Information, ALL_ST=RETAIL - SALES_FL=STORY 3_SCH=C, Heating, 12975.46206, 16868.10068, 0.50070, 2.21933, FORT MCMURRAY AP ANN HTG 99.6% CONDNS DB, 1/21 09:00:00, -36.20000, 1.25811E-004, 1875.00000, 62.56523, 2.21933, 0.00000
 Zone Sizing Information, ALL_ST=SALES AREA_FL=STORY 1_SCH=C, Cooling, 31941.65018, 35135.81519, 2.46869, 2.71556, FORT MCMURRAY AP ANN CLG .4% CONDNS DB=>MWB, 7/21 18:00:00, 25.92400, 8.76969E-003, 1875.00000, 62.56523, 2.21933, 0.00000
 Zone Sizing Information, ALL_ST=SALES AREA_FL=STORY 1_SCH=C, Heating, 0.00000, 0.00000, 0.00000, 2.21933, FORT MCMURRAY AP ANN HTG 99.6% CONDNS DB, , -36.20000, 1.25811E-004, 1875.00000, 62.56523, 2.21933, 0.00000
 Zone Sizing Information, ALL_ST=SPORTS ARENA - AUDIENCE_FL=STORY 3_SCH=B, Cooling, 47914.30673, 52705.73740, 3.70391, 15.04950, FORT MCMURRAY AP ANN CLG .4% CONDNS DB=>MWB, 7/21 20:00:00, 22.70000, 8.76969E-003, 2500.00000, 499.98364, 15.04950, 0.00000
 Zone Sizing Information, ALL_ST=SPORTS ARENA - AUDIENCE_FL=STORY 3_SCH=B, Heating, 0.00000, 0.00000, 0.00000, 15.04950, FORT MCMURRAY AP ANN HTG 99.6% CONDNS DB, , -36.20000, 1.25811E-004, 2500.00000, 499.98364, 15.04950, 0.00000
 Zone Sizing Information, ALL_ST=SPORTS ARENA - COURT C1_FL=STORY 3_SCH=B, Cooling, 76418.13481, 84059.94829, 5.90761, 6.49837, FORT MCMURRAY AP ANN CLG .4% CONDNS DB=>MWB, 7/21 13:00:00, 28.28000, 8.76969E-003, 1875.00000, 374.98773, 2.85750, 0.00000
 Zone Sizing Information, ALL_ST=SPORTS ARENA - COURT C1_FL=STORY 3_SCH=B, Heating, 998.05643, 1297.47335, 3.98612E-002, 2.85750, FORT MCMURRAY AP ANN HTG 99.6% CONDNS DB, 1/21 09:10:00, -36.20000, 1.25811E-004, 1875.00000, 374.98773, 2.85750, 0.00000
 Zone Sizing Information, ALL_ST=SPORTS ARENA - COURT C2_FL=STORY 1_SCH=B, Cooling, 52643.17259, 57907.48985, 4.06927, 4.47619, FORT MCMURRAY AP ANN CLG .4% CONDNS DB=>MWB, 7/21 22:00:00, 20.46800, 8.76969E-003, 1875.00000, 374.98773, 2.85750, 0.00000
 Zone Sizing Information, ALL_ST=SPORTS ARENA - COURT C2_FL=STORY 1_SCH=B, Heating, 0.00000, 0.00000, 0.00000, 2.85750, FORT MCMURRAY AP ANN HTG 99.6% CONDNS DB, , -36.20000, 1.25811E-004, 1875.00000, 374.98773, 2.85750, 0.00000
 Zone Sizing Information, ALL_ST=SPORTS ARENA - COURT C3_FL=STORY 4_SCH=B, Cooling, 88550.33796, 97405.37175, 6.84599, 7.53059, FORT MCMURRAY AP ANN CLG .4% CONDNS DB=>MWB, 7/21 14:00:00, 28.90000, 8.76969E-003, 1875.00000, 374.98773, 2.85750, 0.00000
 Zone Sizing Information, ALL_ST=SPORTS ARENA - COURT C3_FL=STORY 4_SCH=B, Heating, 42117.05482, 54752.17126, 1.59067, 2.85750, FORT MCMURRAY AP ANN HTG 99.6% CONDNS DB, 1/21 09:20:00, -36.20000, 1.25811E-004, 1875.00000, 374.98773, 2.85750, 0.00000
 Zone Sizing Information, ALL_ST=SPORTS ARENA - COURT C4_FL=STORY 2_SCH=B, Cooling, 55038.53374, 60542.38712, 4.25461, 4.68007, FORT MCMURRAY AP ANN CLG .4% CONDNS DB=>MWB, 7/21 20:00:00, 22.70000, 8.76969E-003, 1875.00000, 374.98773, 2.85750, 0.00000
 Zone Sizing Information, ALL_ST=SPORTS ARENA - COURT C4_FL=STORY 2_SCH=B, Heating, 841.93236, 1094.51206, 3.37514E-002, 2.85750, FORT MCMURRAY AP ANN HTG 99.6% CONDNS DB, 1/21 09:10:00, -36.20000, 1.25811E-004, 1875.00000, 374.98773, 2.85750, 0.00000
 Zone Sizing Information, ALL_ST=SPORTS ARENA - RING_FL=STORY 2_SCH=B, Cooling, 67139.16486, 73853.08135, 5.19045, 5.70950, FORT MCMURRAY AP ANN CLG .4% CONDNS DB=>MWB, 7/21 20:20:00, 22.32800, 8.76969E-003, 1875.00000, 374.98773, 2.85750, 0.00000
 Zone Sizing Information, ALL_ST=SPORTS ARENA - RING_FL=STORY 2_SCH=B, Heating, 0.00000, 0.00000, 0.00000, 2.85750, FORT MCMURRAY AP ANN HTG 99.6% CONDNS DB, , -36.20000, 1.25811E-004, 1875.00000, 374.98773, 2.85750, 0.00000
 Zone Sizing Information, ALL_ST=STORAGE AREA - OCCSENS_FL=STORY 1_SCH=E, Cooling, 17323.46377, 19055.81015, 1.25371, 1.37908, FORT MCMURRAY AP ANN CLG .4% CONDNS DB=>MWB, 7/21 08:00:00, 19.72400, 8.76969E-003, 1875.00000, 18.76957, 0.66675, 0.00000
 Zone Sizing Information, ALL_ST=STORAGE AREA - OCCSENS_FL=STORY 1_SCH=E, Heating, 0.00000, 0.00000, 0.00000, 0.66675, FORT MCMURRAY AP ANN HTG 99.6% CONDNS DB, , -36.20000, 1.25811E-004, 1875.00000, 18.76957, 0.66675, 0.00000
 Zone Sizing Information, ALL_ST=STORAGE AREA - REFRIGERATED - OCCSENS_FL=STORY 2_SCH=E, Cooling, 32013.09031, 35214.39934, 2.28664, 2.51531, FORT MCMURRAY AP ANN CLG .4% CONDNS DB=>MWB, 7/21 08:00:00, 19.72400, 8.76969E-003, 2500.00000, 25.02609, 0.88900, 0.00000
 Zone Sizing Information, ALL_ST=STORAGE AREA - REFRIGERATED - OCCSENS_FL=STORY 2_SCH=E, Heating, 0.00000, 0.00000, 0.00000, 0.88900, FORT MCMURRAY AP ANN HTG 99.6% CONDNS DB, , -36.20000, 1.25811E-004, 2500.00000, 25.02609, 0.88900, 0.00000
 Zone Sizing Information, ALL_ST=STORAGE AREA - REFRIGERATED_FL=STORY 1_SCH=E, Cooling, 14401.91190, 15842.10309, 1.11304, 1.22434, FORT MCMURRAY AP ANN CLG .4% CONDNS DB=>MWB, 7/21 16:20:00, 27.82533, 8.76969E-003, 1875.00000, 18.76957, 0.66675, 0.00000
 Zone Sizing Information, ALL_ST=STORAGE AREA - REFRIGERATED_FL=STORY 1_SCH=E, Heating, 0.00000, 0.00000, 0.00000, 0.66675, FORT MCMURRAY AP ANN HTG 99.6% CONDNS DB, , -36.20000, 1.25811E-004, 1875.00000, 18.76957, 0.66675, 0.00000
 Zone Sizing Information, ALL_ST=STORAGE AREA_FL=STORY 4_SCH=E, Cooling, 69103.55066, 76013.90573, 5.34063, 5.87469, FORT MCMURRAY AP ANN CLG .4% CONDNS DB=>MWB, 7/21 13:50:00, 28.79667, 8.76969E-003, 2500.00000, 25.02609, 0.88900, 0.00000
 Zone Sizing Information, ALL_ST=STORAGE AREA_FL=STORY 4_SCH=E, Heating, 46235.51837, 60106.17388, 1.83172, 2.38124, FORT MCMURRAY AP ANN HTG 99.6% CONDNS DB, 1/21 09:00:00, -36.20000, 1.25811E-004, 2500.00000, 25.02609, 0.88900, 0.00000
 Zone Sizing Information, ALL_ST=TRANSP. BAGGAGE_FL=STORY 2_SCH=H, Cooling, 43633.12269, 47996.43496, 3.37228, 3.70950, FORT MCMURRAY AP ANN CLG .4% CONDNS DB=>MWB, 7/21 09:10:00, 22.43133, 8.76969E-003, 1875.00000, 93.84784, 1.64783, 0.00000
 Zone Sizing Information, ALL_ST=TRANSP. BAGGAGE_FL=STORY 2_SCH=H, Heating, 0.00000, 0.00000, 0.00000, 1.64783, FORT MCMURRAY AP ANN HTG 99.6% CONDNS DB, , -36.20000, 1.25811E-004, 1875.00000, 93.84784, 1.64783, 0.00000
 Zone Sizing Information, ALL_ST=TRANSP. CONCOURSE_FL=STORY 4_SCH=H, Cooling, 67277.36249, 74005.09874, 5.19975, 7.71525, FORT MCMURRAY AP ANN CLG .4% CONDNS DB=>MWB, 7/21 10:20:00, 24.80800, 8.76969E-003, 1875.00000, 93.84784, 7.71525, 0.00000
 Zone Sizing Information, ALL_ST=TRANSP. CONCOURSE_FL=STORY 4_SCH=H, Heating, 37453.93665, 48690.11764, 1.48638, 7.71525, FORT MCMURRAY AP ANN HTG 99.6% CONDNS DB, 1/21 09:00:00, -36.20000, 1.25811E-004, 1875.00000, 93.84784, 7.71525, 0.00000
 Zone Sizing Information, ALL_ST=TRANSP. COUNTER_FL=STORY 1_SCH=H, Cooling, 39480.10588, 43428.11647, 3.05165, 3.35682, FORT MCMURRAY AP ANN CLG .4% CONDNS DB=>MWB, 7/21 07:20:00, 18.31867, 8.76969E-003, 2500.00000, 249.99182, 2.19710, 0.00000
 Zone Sizing Information, ALL_ST=TRANSP. COUNTER_FL=STORY 1_SCH=H, Heating, 0.00000, 0.00000, 0.00000, 2.19710, FORT MCMURRAY AP ANN HTG 99.6% CONDNS DB, , -36.20000, 1.25811E-004, 2500.00000, 249.99182, 2.19710, 0.00000
 Zone Sizing Information, ALL_ST=TRANSP. SEATING_FL=STORY 2_SCH=H, Cooling, 35210.58604, 38731.64465, 2.72179, 7.71525, FORT MCMURRAY AP ANN CLG .4% CONDNS DB=>MWB, 7/21 13:40:00, 28.69333, 8.76969E-003, 1875.00000, 187.49386, 7.71525, 0.00000
 Zone Sizing Information, ALL_ST=TRANSP. SEATING_FL=STORY 2_SCH=H, Heating, 0.00000, 0.00000, 0.00000, 7.71525, FORT MCMURRAY AP ANN HTG 99.6% CONDNS DB, , -36.20000, 1.25811E-004, 1875.00000, 187.49386, 7.71525, 0.00000
! <System Sizing Information>, System Name, Load Type, Peak Load Kind, User Design Capacity, Calc Des Air Flow Rate [m3/s], User Des Air Flow Rate [m3/s], Design Day Name, Date/Time of Peak
 System Sizing Information, SYS_3_PSZ ALL_ST=RELIGIOUS - FELLOWSHIP HALL_FL=STORY 4_SCH=C, Cooling, Sensible, 128451.36, 7.46013, 7.46013, FORT MCMURRAY AP ANN CLG .4% CONDNS DB=>MWB, 7/21 05:00:00
 System Sizing Information, SYS_3_PSZ ALL_ST=RELIGIOUS - FELLOWSHIP HALL_FL=STORY 4_SCH=C, Heating, Sensible, 576623.34, 6.28650, 6.28650, FORT MCMURRAY AP ANN HTG 99.6% CONDNS DB, 1/21 00:10:00
 System Sizing Information, SYS_3_PSZ ALL_ST=RELIGIOUS - PULPIT/CHOIR_FL=STORY 4_SCH=I, Cooling, Sensible, 125570.68, 7.05008, 7.05008, FORT MCMURRAY AP ANN CLG .4% CONDNS DB=>MWB, 7/21 05:00:00
 System Sizing Information, SYS_3_PSZ ALL_ST=RELIGIOUS - PULPIT/CHOIR_FL=STORY 4_SCH=I, Heating, Sensible, 576623.34, 6.28650, 6.28650, FORT MCMURRAY AP ANN HTG 99.6% CONDNS DB, 1/21 00:10:00
 System Sizing Information, SYS_4_PSZ_ALL_ST=STORAGE AREA_FL=STORY 4_SCH=E, Cooling, Sensible, 144905.79, 10.99342, 10.99342, FORT MCMURRAY AP ANN CLG .4% CONDNS DB=>MWB, 7/21 05:00:00
 System Sizing Information, SYS_4_PSZ_ALL_ST=STORAGE AREA_FL=STORY 4_SCH=E, Heating, Sensible, 321889.47, 4.60374, 4.60374, FORT MCMURRAY AP ANN HTG 99.6% CONDNS DB, 1/21 09:00:00
 System Sizing Information, SYS_6_VAV WITH REHEAT, Cooling, Sensible, 110692.37, 10.54857, 10.54857, FORT MCMURRAY AP ANN CLG .4% CONDNS DB=>MWB, 7/21 00:00:00
 System Sizing Information, SYS_6_VAV WITH REHEAT, Heating, Sensible, 415311.40, 7.27393, 7.27393, FORT MCMURRAY AP ANN HTG 99.6% CONDNS DB, 1/21 00:10:00
 System Sizing Information, SYS_6_VAV WITH REHEAT 1, Cooling, Sensible, 289698.39, 21.81432, 21.81432, FORT MCMURRAY AP ANN CLG .4% CONDNS DB=>MWB, 7/21 00:00:00
 System Sizing Information, SYS_6_VAV WITH REHEAT 1, Heating, Sensible, 860896.49, 15.07808, 15.07808, FORT MCMURRAY AP ANN HTG 99.6% CONDNS DB, 1/21 00:10:00
 System Sizing Information, SYS_6_VAV WITH REHEAT 2, Cooling, Sensible, 480628.42, 34.06750, 34.06750, FORT MCMURRAY AP ANN CLG .4% CONDNS DB=>MWB, 7/21 00:00:00
 System Sizing Information, SYS_6_VAV WITH REHEAT 2, Heating, Sensible, 1471627.23, 25.77465, 25.77465, FORT MCMURRAY AP ANN HTG 99.6% CONDNS DB, 1/21 00:10:00
 System Sizing Information, SYS_6_VAV WITH REHEAT 3, Cooling, Sensible, 228853.03, 15.24584, 15.24584, FORT MCMURRAY AP ANN CLG .4% CONDNS DB=>MWB, 7/21 00:00:00
 System Sizing Information, SYS_6_VAV WITH REHEAT 3, Heating, Sensible, 603660.84, 10.57275, 10.57275, FORT MCMURRAY AP ANN HTG 99.6% CONDNS DB, 1/21 00:10:00
! <Component Sizing Information>, Component Type, Component Name, Input Field Description, Value
 Component Sizing Information, AirTerminal:SingleDuct:Uncontrolled, AIR TERMINAL SINGLE DUCT UNCONTROLLED 5, Design Size Maximum Air Flow Rate [m3/s], 7.46013
 Component Sizing Information, ZoneHVAC:Baseboard:Convective:Water, ZONE HVAC BASEBOARD CONVECTIVE WATER 5, Design Size Maximum Water Flow Rate [m3/s], 9.61704E-004
 Component Sizing Information, ZoneHVAC:Baseboard:Convective:Water, ZONE HVAC BASEBOARD CONVECTIVE WATER 5, Design Size U-Factor Times Area Value [W/K], 1962.59944
 Component Sizing Information, AirTerminal:SingleDuct:Uncontrolled, AIR TERMINAL SINGLE DUCT UNCONTROLLED 6, Design Size Maximum Air Flow Rate [m3/s], 7.05008
 Component Sizing Information, ZoneHVAC:Baseboard:Convective:Water, ZONE HVAC BASEBOARD CONVECTIVE WATER 6, Design Size Maximum Water Flow Rate [m3/s], 6.46801E-004
 Component Sizing Information, ZoneHVAC:Baseboard:Convective:Water, ZONE HVAC BASEBOARD CONVECTIVE WATER 6, Design Size U-Factor Times Area Value [W/K], 984.42779
 Component Sizing Information, AirTerminal:SingleDuct:VAV:Reheat, AIR TERMINAL SINGLE DUCT VAV REHEAT 8, Design Size Maximum Air Flow Rate [m3/s], 3.43832
 Component Sizing Information, AirTerminal:SingleDuct:VAV:Reheat, AIR TERMINAL SINGLE DUCT VAV REHEAT 8, Design Size Constant Minimum Air Flow Fraction, 0.41554
 Component Sizing Information, AirTerminal:SingleDuct:VAV:Reheat, AIR TERMINAL SINGLE DUCT VAV REHEAT 8, User-Specified Constant Minimum Air Flow Fraction, 0.30000
 Component Sizing Information, AirTerminal:SingleDuct:VAV:Reheat, AIR TERMINAL SINGLE DUCT VAV REHEAT 8, Design Size Minimum Air Flow Rate [m3/s], 1.03149
 Component Sizing Information, AirTerminal:SingleDuct:VAV:Reheat, AIR TERMINAL SINGLE DUCT VAV REHEAT 8, Design Size Maximum Flow per Zone Floor Area during Reheat [m3/s-m2], 5.50130E-004
 Component Sizing Information, AirTerminal:SingleDuct:VAV:Reheat, AIR TERMINAL SINGLE DUCT VAV REHEAT 8, Design Size Maximum Flow Fraction during Reheat [], 0.30000
 Component Sizing Information, AirTerminal:SingleDuct:VAV:Reheat, AIR TERMINAL SINGLE DUCT VAV REHEAT 8, Design Size Maximum Reheat Water Flow Rate [m3/s], 6.45008E-004
 Component Sizing Information, AirTerminal:SingleDuct:VAV:Reheat, AIR TERMINAL SINGLE DUCT VAV REHEAT 8, Design Size Reheat Coil Sizing Air Volume Flow Rate [m3/s], 1.17970
 Component Sizing Information, AirTerminal:SingleDuct:VAV:Reheat, AIR TERMINAL SINGLE DUCT VAV REHEAT 8, Design Size Reheat Coil Sizing Inlet Air Temperature [C], 13.10000
 Component Sizing Information, AirTerminal:SingleDuct:VAV:Reheat, AIR TERMINAL SINGLE DUCT VAV REHEAT 8, Design Size Reheat Coil Sizing Inlet Air Humidity Ratio [kgWater/kgDryAir], 8.00000E-003
 Component Sizing Information, Coil:Heating:Water, COIL HEATING WATER 11, Design Size Rated Capacity [W], 43185.34721
 Component Sizing Information, Coil:Heating:Water, COIL HEATING WATER 11, Design Size Maximum Water Flow Rate [m3/s], 6.45008E-004
 Component Sizing Information, Coil:Heating:Water, COIL HEATING WATER 11, Design Size U-Factor Times Area Value [W/K], 989.04016
! <Water Heating Coil Capacity Information>,Component Type,Name,Nominal Total Capacity {W}
Water Heating Coil Capacity Information,Coil:Heating:Water,COIL HEATING WATER 11,39126.73
 Component Sizing Information, ZoneHVAC:Baseboard:Convective:Water, ZONE HVAC BASEBOARD CONVECTIVE WATER 14, Design Size Maximum Water Flow Rate [m3/s], 4.49546E-004
 Component Sizing Information, ZoneHVAC:Baseboard:Convective:Water, ZONE HVAC BASEBOARD CONVECTIVE WATER 14, Design Size U-Factor Times Area Value [W/K], 915.97033
 Component Sizing Information, AirTerminal:SingleDuct:VAV:Reheat, AIR TERMINAL SINGLE DUCT VAV REHEAT 9, Design Size Maximum Air Flow Rate [m3/s], 3.91096
 Component Sizing Information, AirTerminal:SingleDuct:VAV:Reheat, AIR TERMINAL SINGLE DUCT VAV REHEAT 9, Design Size Constant Minimum Air Flow Fraction, 0.36532
 Component Sizing Information, AirTerminal:SingleDuct:VAV:Reheat, AIR TERMINAL SINGLE DUCT VAV REHEAT 9, User-Specified Constant Minimum Air Flow Fraction, 0.30000
 Component Sizing Information, AirTerminal:SingleDuct:VAV:Reheat, AIR TERMINAL SINGLE DUCT VAV REHEAT 9, Design Size Minimum Air Flow Rate [m3/s], 1.17329
 Component Sizing Information, AirTerminal:SingleDuct:VAV:Reheat, AIR TERMINAL SINGLE DUCT VAV REHEAT 9, Design Size Maximum Flow per Zone Floor Area during Reheat [m3/s-m2], 6.25754E-004
 Component Sizing Information, AirTerminal:SingleDuct:VAV:Reheat, AIR TERMINAL SINGLE DUCT VAV REHEAT 9, Design Size Maximum Flow Fraction during Reheat [], 0.30000
 Component Sizing Information, AirTerminal:SingleDuct:VAV:Reheat, AIR TERMINAL SINGLE DUCT VAV REHEAT 9, Design Size Maximum Reheat Water Flow Rate [m3/s], 4.51450E-004
 Component Sizing Information, AirTerminal:SingleDuct:VAV:Reheat, AIR TERMINAL SINGLE DUCT VAV REHEAT 9, Design Size Reheat Coil Sizing Air Volume Flow Rate [m3/s], 1.17329
 Component Sizing Information, AirTerminal:SingleDuct:VAV:Reheat, AIR TERMINAL SINGLE DUCT VAV REHEAT 9, Design Size Reheat Coil Sizing Inlet Air Temperature [C], 13.10000
 Component Sizing Information, AirTerminal:SingleDuct:VAV:Reheat, AIR TERMINAL SINGLE DUCT VAV REHEAT 9, Design Size Reheat Coil Sizing Inlet Air Humidity Ratio [kgWater/kgDryAir], 8.00000E-003
 Component Sizing Information, Coil:Heating:Water, COIL HEATING WATER 12, Design Size Rated Capacity [W], 30226.03925
 Component Sizing Information, Coil:Heating:Water, COIL HEATING WATER 12, Design Size Maximum Water Flow Rate [m3/s], 4.51450E-004
 Component Sizing Information, Coil:Heating:Water, COIL HEATING WATER 12, Design Size U-Factor Times Area Value [W/K], 627.79297
Water Heating Coil Capacity Information,Coil:Heating:Water,COIL HEATING WATER 12,28357.76
 Component Sizing Information, ZoneHVAC:Baseboard:Convective:Water, ZONE HVAC BASEBOARD CONVECTIVE WATER 15, Design Size Maximum Water Flow Rate [m3/s], 2.58358E-004
 Component Sizing Information, ZoneHVAC:Baseboard:Convective:Water, ZONE HVAC BASEBOARD CONVECTIVE WATER 15, Design Size U-Factor Times Area Value [W/K], 523.45280
 Component Sizing Information, AirTerminal:SingleDuct:VAV:Reheat, AIR TERMINAL SINGLE DUCT VAV REHEAT 10, Design Size Maximum Air Flow Rate [m3/s], 5.17034
 Component Sizing Information, AirTerminal:SingleDuct:VAV:Reheat, AIR TERMINAL SINGLE DUCT VAV REHEAT 10, Design Size Constant Minimum Air Flow Fraction, 0.27634
 Component Sizing Information, AirTerminal:SingleDuct:VAV:Reheat, AIR TERMINAL SINGLE DUCT VAV REHEAT 10, User-Specified Constant Minimum Air Flow Fraction, 0.30000
 Component Sizing Information, AirTerminal:SingleDuct:VAV:Reheat, AIR TERMINAL SINGLE DUCT VAV REHEAT 10, Design Size Minimum Air Flow Rate [m3/s], 1.55110
 Component Sizing Information, AirTerminal:SingleDuct:VAV:Reheat, AIR TERMINAL SINGLE DUCT VAV REHEAT 10, Design Size Maximum Flow per Zone Floor Area during Reheat [m3/s-m2], 8.27255E-004
 Component Sizing Information, AirTerminal:SingleDuct:VAV:Reheat, AIR TERMINAL SINGLE DUCT VAV REHEAT 10, Design Size Maximum Flow Fraction during Reheat [], 0.30000
 Component Sizing Information, AirTerminal:SingleDuct:VAV:Reheat, AIR TERMINAL SINGLE DUCT VAV REHEAT 10, Design Size Maximum Reheat Water Flow Rate [m3/s], 5.04861E-004
 Component Sizing Information, AirTerminal:SingleDuct:VAV:Reheat, AIR TERMINAL SINGLE DUCT VAV REHEAT 10, Design Size Reheat Coil Sizing Air Volume Flow Rate [m3/s], 1.55110
 Component Sizing Information, AirTerminal:SingleDuct:VAV:Reheat, AIR TERMINAL SINGLE DUCT VAV REHEAT 10, Design Size Reheat Coil Sizing Inlet Air Temperature [C], 13.10000
 Component Sizing Information, AirTerminal:SingleDuct:VAV:Reheat, AIR TERMINAL SINGLE DUCT VAV REHEAT 10, Design Size Reheat Coil Sizing Inlet Air Humidity Ratio [kgWater/kgDryAir], 8.00000E-003
 Component Sizing Information, Coil:Heating:Water, COIL HEATING WATER 13, Design Size Rated Capacity [W], 33802.06293
 Component Sizing Information, Coil:Heating:Water, COIL HEATING WATER 13, Design Size Maximum Water Flow Rate [m3/s], 5.04861E-004
 Component Sizing Information, Coil:Heating:Water, COIL HEATING WATER 13, Design Size U-Factor Times Area Value [W/K], 681.76793
Water Heating Coil Capacity Information,Coil:Heating:Water,COIL HEATING WATER 13,31720.77
 Component Sizing Information, ZoneHVAC:Baseboard:Convective:Water, ZONE HVAC BASEBOARD CONVECTIVE WATER 16, Design Size Maximum Water Flow Rate [m3/s], 2.51939E-004
 Component Sizing Information, ZoneHVAC:Baseboard:Convective:Water, ZONE HVAC BASEBOARD CONVECTIVE WATER 16, Design Size U-Factor Times Area Value [W/K], 511.34339
 Component Sizing Information, AirTerminal:SingleDuct:VAV:Reheat, AIR TERMINAL SINGLE DUCT VAV REHEAT 1, Design Size Maximum Air Flow Rate [m3/s], 2.71556
 Component Sizing Information, AirTerminal:SingleDuct:VAV:Reheat, AIR TERMINAL SINGLE DUCT VAV REHEAT 1, Design Size Constant Minimum Air Flow Fraction, 0.52614
 Component Sizing Information, AirTerminal:SingleDuct:VAV:Reheat, AIR TERMINAL SINGLE DUCT VAV REHEAT 1, User-Specified Constant Minimum Air Flow Fraction, 0.30000
 Component Sizing Information, AirTerminal:SingleDuct:VAV:Reheat, AIR TERMINAL SINGLE DUCT VAV REHEAT 1, Design Size Minimum Air Flow Rate [m3/s], 0.81467
 Component Sizing Information, AirTerminal:SingleDuct:VAV:Reheat, AIR TERMINAL SINGLE DUCT VAV REHEAT 1, Design Size Maximum Flow per Zone Floor Area during Reheat [m3/s-m2], 4.34489E-004
 Component Sizing Information, AirTerminal:SingleDuct:VAV:Reheat, AIR TERMINAL SINGLE DUCT VAV REHEAT 1, Design Size Maximum Flow Fraction during Reheat [], 0.30000
 Component Sizing Information, AirTerminal:SingleDuct:VAV:Reheat, AIR TERMINAL SINGLE DUCT VAV REHEAT 1, Design Size Maximum Reheat Water Flow Rate [m3/s], 1.29433E-004
 Component Sizing Information, AirTerminal:SingleDuct:VAV:Reheat, AIR TERMINAL SINGLE DUCT VAV REHEAT 1, Design Size Reheat Coil Sizing Air Volume Flow Rate [m3/s], 0.81467
 Component Sizing Information, AirTerminal:SingleDuct:VAV:Reheat, AIR TERMINAL SINGLE DUCT VAV REHEAT 1, Design Size Reheat Coil Sizing Inlet Air Temperature [C], 13.10000
 Component Sizing Information, AirTerminal:SingleDuct:VAV:Reheat, AIR TERMINAL SINGLE DUCT VAV REHEAT 1, Design Size Reheat Coil Sizing Inlet Air Humidity Ratio [kgWater/kgDryAir], 8.00000E-003
 Component Sizing Information, Coil:Heating:Water, COIL HEATING WATER 2, Design Size Rated Capacity [W], 8665.91826
 Component Sizing Information, Coil:Heating:Water, COIL HEATING WATER 2, Design Size Maximum Water Flow Rate [m3/s], 1.29433E-004
 Component Sizing Information, Coil:Heating:Water, COIL HEATING WATER 2, Design Size U-Factor Times Area Value [W/K], 156.24939
Water Heating Coil Capacity Information,Coil:Heating:Water,COIL HEATING WATER 2,8125.50
 Component Sizing Information, ZoneHVAC:Baseboard:Convective:Water, ZONE HVAC BASEBOARD CONVECTIVE WATER 7, Design Size Maximum Water Flow Rate [m3/s], 0.00000
 Component Sizing Information, ZoneHVAC:Baseboard:Convective:Water, ZONE HVAC BASEBOARD CONVECTIVE WATER 7, Design Size U-Factor Times Area Value [W/K], 0.00000
 Component Sizing Information, AirTerminal:SingleDuct:VAV:Reheat, AIR TERMINAL SINGLE DUCT VAV REHEAT 11, Design Size Maximum Air Flow Rate [m3/s], 15.04950
 Component Sizing Information, AirTerminal:SingleDuct:VAV:Reheat, AIR TERMINAL SINGLE DUCT VAV REHEAT 11, Design Size Constant Minimum Air Flow Fraction, 0.12658
 Component Sizing Information, AirTerminal:SingleDuct:VAV:Reheat, AIR TERMINAL SINGLE DUCT VAV REHEAT 11, User-Specified Constant Minimum Air Flow Fraction, 0.30000
 Component Sizing Information, AirTerminal:SingleDuct:VAV:Reheat, AIR TERMINAL SINGLE DUCT VAV REHEAT 11, Design Size Minimum Air Flow Rate [m3/s], 4.51485
 Component Sizing Information, AirTerminal:SingleDuct:VAV:Reheat, AIR TERMINAL SINGLE DUCT VAV REHEAT 11, Design Size Maximum Flow per Zone Floor Area during Reheat [m3/s-m2], 1.80594E-003
 Component Sizing Information, AirTerminal:SingleDuct:VAV:Reheat, AIR TERMINAL SINGLE DUCT VAV REHEAT 11, Design Size Maximum Flow Fraction during Reheat [], 0.30000
 Component Sizing Information, AirTerminal:SingleDuct:VAV:Reheat, AIR TERMINAL SINGLE DUCT VAV REHEAT 11, Design Size Maximum Reheat Water Flow Rate [m3/s], 7.17309E-004
 Component Sizing Information, AirTerminal:SingleDuct:VAV:Reheat, AIR TERMINAL SINGLE DUCT VAV REHEAT 11, Design Size Reheat Coil Sizing Air Volume Flow Rate [m3/s], 4.51485
 Component Sizing Information, AirTerminal:SingleDuct:VAV:Reheat, AIR TERMINAL SINGLE DUCT VAV REHEAT 11, Design Size Reheat Coil Sizing Inlet Air Temperature [C], 13.10000
 Component Sizing Information, AirTerminal:SingleDuct:VAV:Reheat, AIR TERMINAL SINGLE DUCT VAV REHEAT 11, Design Size Reheat Coil Sizing Inlet Air Humidity Ratio [kgWater/kgDryAir], 8.00000E-003
 Component Sizing Information, Coil:Heating:Water, COIL HEATING WATER 14, Design Size Rated Capacity [W], 48026.14101
 Component Sizing Information, Coil:Heating:Water, COIL HEATING WATER 14, Design Size Maximum Water Flow Rate [m3/s], 7.17309E-004
 Component Sizing Information, Coil:Heating:Water, COIL HEATING WATER 14, Design Size U-Factor Times Area Value [W/K], 865.92730
Water Heating Coil Capacity Information,Coil:Heating:Water,COIL HEATING WATER 14,45031.17
 Component Sizing Information, ZoneHVAC:Baseboard:Convective:Water, ZONE HVAC BASEBOARD CONVECTIVE WATER 17, Design Size Maximum Water Flow Rate [m3/s], 0.00000
 Component Sizing Information, ZoneHVAC:Baseboard:Convective:Water, ZONE HVAC BASEBOARD CONVECTIVE WATER 17, Design Size U-Factor Times Area Value [W/K], 0.00000
 Component Sizing Information, AirTerminal:SingleDuct:VAV:Reheat, AIR TERMINAL SINGLE DUCT VAV REHEAT 12, Design Size Maximum Air Flow Rate [m3/s], 6.49837
 Component Sizing Information, AirTerminal:SingleDuct:VAV:Reheat, AIR TERMINAL SINGLE DUCT VAV REHEAT 12, Design Size Constant Minimum Air Flow Fraction, 0.21986
 Component Sizing Information, AirTerminal:SingleDuct:VAV:Reheat, AIR TERMINAL SINGLE DUCT VAV REHEAT 12, User-Specified Constant Minimum Air Flow Fraction, 0.30000
 Component Sizing Information, AirTerminal:SingleDuct:VAV:Reheat, AIR TERMINAL SINGLE DUCT VAV REHEAT 12, Design Size Minimum Air Flow Rate [m3/s], 1.94951
 Component Sizing Information, AirTerminal:SingleDuct:VAV:Reheat, AIR TERMINAL SINGLE DUCT VAV REHEAT 12, Design Size Maximum Flow per Zone Floor Area during Reheat [m3/s-m2], 1.03974E-003
 Component Sizing Information, AirTerminal:SingleDuct:VAV:Reheat, AIR TERMINAL SINGLE DUCT VAV REHEAT 12, Design Size Maximum Flow Fraction during Reheat [], 0.30000
 Component Sizing Information, AirTerminal:SingleDuct:VAV:Reheat, AIR TERMINAL SINGLE DUCT VAV REHEAT 12, Design Size Maximum Reheat Water Flow Rate [m3/s], 0.00000
 Component Sizing Information, AirTerminal:SingleDuct:VAV:Reheat, AIR TERMINAL SINGLE DUCT VAV REHEAT 12, Design Size Reheat Coil Sizing Air Volume Flow Rate [m3/s], 1.94951
 Component Sizing Information, AirTerminal:SingleDuct:VAV:Reheat, AIR TERMINAL SINGLE DUCT VAV REHEAT 12, Design Size Reheat Coil Sizing Inlet Air Temperature [C], 13.10000
 Component Sizing Information, AirTerminal:SingleDuct:VAV:Reheat, AIR TERMINAL SINGLE DUCT VAV REHEAT 12, Design Size Reheat Coil Sizing Inlet Air Humidity Ratio [kgWater/kgDryAir], 8.00000E-003
 Component Sizing Information, Coil:Heating:Water, COIL HEATING WATER 15, Design Size Rated Capacity [W], 0.00000
 Component Sizing Information, Coil:Heating:Water, COIL HEATING WATER 15, Design Size Maximum Water Flow Rate [m3/s], 0.00000
 Component Sizing Information, Coil:Heating:Water, COIL HEATING WATER 15, Design Size U-Factor Times Area Value [W/K], 1.00000
Water Heating Coil Capacity Information,Coil:Heating:Water,COIL HEATING WATER 15,0.00
 Component Sizing Information, ZoneHVAC:Baseboard:Convective:Water, ZONE HVAC BASEBOARD CONVECTIVE WATER 18, Design Size Maximum Water Flow Rate [m3/s], 1.93788E-005
 Component Sizing Information, ZoneHVAC:Baseboard:Convective:Water, ZONE HVAC BASEBOARD CONVECTIVE WATER 18, Design Size U-Factor Times Area Value [W/K], 25.44471
 Component Sizing Information, AirTerminal:SingleDuct:VAV:Reheat, AIR TERMINAL SINGLE DUCT VAV REHEAT 2, Design Size Maximum Air Flow Rate [m3/s], 4.47619
 Component Sizing Information, AirTerminal:SingleDuct:VAV:Reheat, AIR TERMINAL SINGLE DUCT VAV REHEAT 2, Design Size Constant Minimum Air Flow Fraction, 0.31919
 Component Sizing Information, AirTerminal:SingleDuct:VAV:Reheat, AIR TERMINAL SINGLE DUCT VAV REHEAT 2, User-Specified Constant Minimum Air Flow Fraction, 0.30000
 Component Sizing Information, AirTerminal:SingleDuct:VAV:Reheat, AIR TERMINAL SINGLE DUCT VAV REHEAT 2, Design Size Minimum Air Flow Rate [m3/s], 1.34286
 Component Sizing Information, AirTerminal:SingleDuct:VAV:Reheat, AIR TERMINAL SINGLE DUCT VAV REHEAT 2, Design Size Maximum Flow per Zone Floor Area during Reheat [m3/s-m2], 7.16191E-004
 Component Sizing Information, AirTerminal:SingleDuct:VAV:Reheat, AIR TERMINAL SINGLE DUCT VAV REHEAT 2, Design Size Maximum Flow Fraction during Reheat [], 0.30000
 Component Sizing Information, AirTerminal:SingleDuct:VAV:Reheat, AIR TERMINAL SINGLE DUCT VAV REHEAT 2, Design Size Maximum Reheat Water Flow Rate [m3/s], 2.13350E-004
 Component Sizing Information, AirTerminal:SingleDuct:VAV:Reheat, AIR TERMINAL SINGLE DUCT VAV REHEAT 2, Design Size Reheat Coil Sizing Air Volume Flow Rate [m3/s], 1.34286
 Component Sizing Information, AirTerminal:SingleDuct:VAV:Reheat, AIR TERMINAL SINGLE DUCT VAV REHEAT 2, Design Size Reheat Coil Sizing Inlet Air Temperature [C], 13.10000
 Component Sizing Information, AirTerminal:SingleDuct:VAV:Reheat, AIR TERMINAL SINGLE DUCT VAV REHEAT 2, Design Size Reheat Coil Sizing Inlet Air Humidity Ratio [kgWater/kgDryAir], 8.00000E-003
 Component Sizing Information, Coil:Heating:Water, COIL HEATING WATER 3, Design Size Rated Capacity [W], 14284.47983
 Component Sizing Information, Coil:Heating:Water, COIL HEATING WATER 3, Design Size Maximum Water Flow Rate [m3/s], 2.13350E-004
 Component Sizing Information, Coil:Heating:Water, COIL HEATING WATER 3, Design Size U-Factor Times Area Value [W/K], 257.55392
Water Heating Coil Capacity Information,Coil:Heating:Water,COIL HEATING WATER 3,13393.68
 Component Sizing Information, ZoneHVAC:Baseboard:Convective:Water, ZONE HVAC BASEBOARD CONVECTIVE WATER 8, Design Size Maximum Water Flow Rate [m3/s], 0.00000
 Component Sizing Information, ZoneHVAC:Baseboard:Convective:Water, ZONE HVAC BASEBOARD CONVECTIVE WATER 8, Design Size U-Factor Times Area Value [W/K], 0.00000
 Component Sizing Information, AirTerminal:SingleDuct:VAV:Reheat, AIR TERMINAL SINGLE DUCT VAV REHEAT 13, Design Size Maximum Air Flow Rate [m3/s], 7.53059
 Component Sizing Information, AirTerminal:SingleDuct:VAV:Reheat, AIR TERMINAL SINGLE DUCT VAV REHEAT 13, Design Size Constant Minimum Air Flow Fraction, 0.18973
 Component Sizing Information, AirTerminal:SingleDuct:VAV:Reheat, AIR TERMINAL SINGLE DUCT VAV REHEAT 13, User-Specified Constant Minimum Air Flow Fraction, 0.30000
 Component Sizing Information, AirTerminal:SingleDuct:VAV:Reheat, AIR TERMINAL SINGLE DUCT VAV REHEAT 13, Design Size Minimum Air Flow Rate [m3/s], 2.25918
 Component Sizing Information, AirTerminal:SingleDuct:VAV:Reheat, AIR TERMINAL SINGLE DUCT VAV REHEAT 13, Design Size Maximum Flow per Zone Floor Area during Reheat [m3/s-m2], 1.20489E-003
 Component Sizing Information, AirTerminal:SingleDuct:VAV:Reheat, AIR TERMINAL SINGLE DUCT VAV REHEAT 13, Design Size Maximum Flow Fraction during Reheat [], 0.30000
 Component Sizing Information, AirTerminal:SingleDuct:VAV:Reheat, AIR TERMINAL SINGLE DUCT VAV REHEAT 13, Design Size Maximum Reheat Water Flow Rate [m3/s], 1.19343E-003
 Component Sizing Information, AirTerminal:SingleDuct:VAV:Reheat, AIR TERMINAL SINGLE DUCT VAV REHEAT 13, Design Size Reheat Coil Sizing Air Volume Flow Rate [m3/s], 2.25918
 Component Sizing Information, AirTerminal:SingleDuct:VAV:Reheat, AIR TERMINAL SINGLE DUCT VAV REHEAT 13, Design Size Reheat Coil Sizing Inlet Air Temperature [C], 13.10000
 Component Sizing Information, AirTerminal:SingleDuct:VAV:Reheat, AIR TERMINAL SINGLE DUCT VAV REHEAT 13, Design Size Reheat Coil Sizing Inlet Air Humidity Ratio [kgWater/kgDryAir], 8.00000E-003
 Component Sizing Information, Coil:Heating:Water, COIL HEATING WATER 17, Design Size Rated Capacity [W], 79903.99822
 Component Sizing Information, Coil:Heating:Water, COIL HEATING WATER 17, Design Size Maximum Water Flow Rate [m3/s], 1.19343E-003
 Component Sizing Information, Coil:Heating:Water, COIL HEATING WATER 17, Design Size U-Factor Times Area Value [W/K], 1807.20529
Water Heating Coil Capacity Information,Coil:Heating:Water,COIL HEATING WATER 17,74925.88
 Component Sizing Information, ZoneHVAC:Baseboard:Convective:Water, ZONE HVAC BASEBOARD CONVECTIVE WATER 19, Design Size Maximum Water Flow Rate [m3/s], 8.17768E-004
 Component Sizing Information, ZoneHVAC:Baseboard:Convective:Water, ZONE HVAC BASEBOARD CONVECTIVE WATER 19, Design Size U-Factor Times Area Value [W/K], 1672.99654
 Component Sizing Information, AirTerminal:SingleDuct:VAV:Reheat, AIR TERMINAL SINGLE DUCT VAV REHEAT 4, Design Size Maximum Air Flow Rate [m3/s], 4.68007
 Component Sizing Information, AirTerminal:SingleDuct:VAV:Reheat, AIR TERMINAL SINGLE DUCT VAV REHEAT 4, Design Size Constant Minimum Air Flow Fraction, 0.30528
 Component Sizing Information, AirTerminal:SingleDuct:VAV:Reheat, AIR TERMINAL SINGLE DUCT VAV REHEAT 4, User-Specified Constant Minimum Air Flow Fraction, 0.30000
 Component Sizing Information, AirTerminal:SingleDuct:VAV:Reheat, AIR TERMINAL SINGLE DUCT VAV REHEAT 4, Design Size Minimum Air Flow Rate [m3/s], 1.40402
 Component Sizing Information, AirTerminal:SingleDuct:VAV:Reheat, AIR TERMINAL SINGLE DUCT VAV REHEAT 4, Design Size Maximum Flow per Zone Floor Area during Reheat [m3/s-m2], 7.48811E-004
 Component Sizing Information, AirTerminal:SingleDuct:VAV:Reheat, AIR TERMINAL SINGLE DUCT VAV REHEAT 4, Design Size Maximum Flow Fraction during Reheat [], 0.30000
 Component Sizing Information, AirTerminal:SingleDuct:VAV:Reheat, AIR TERMINAL SINGLE DUCT VAV REHEAT 4, Design Size Maximum Reheat Water Flow Rate [m3/s], 0.00000
 Component Sizing Information, AirTerminal:SingleDuct:VAV:Reheat, AIR TERMINAL SINGLE DUCT VAV REHEAT 4, Design Size Reheat Coil Sizing Air Volume Flow Rate [m3/s], 1.40402
 Component Sizing Information, AirTerminal:SingleDuct:VAV:Reheat, AIR TERMINAL SINGLE DUCT VAV REHEAT 4, Design Size Reheat Coil Sizing Inlet Air Temperature [C], 13.10000
 Component Sizing Information, AirTerminal:SingleDuct:VAV:Reheat, AIR TERMINAL SINGLE DUCT VAV REHEAT 4, Design Size Reheat Coil Sizing Inlet Air Humidity Ratio [kgWater/kgDryAir], 8.00000E-003
 Component Sizing Information, Coil:Heating:Water, COIL HEATING WATER 6, Design Size Rated Capacity [W], 0.00000
 Component Sizing Information, Coil:Heating:Water, COIL HEATING WATER 6, Design Size Maximum Water Flow Rate [m3/s], 0.00000
 Component Sizing Information, Coil:Heating:Water, COIL HEATING WATER 6, Design Size U-Factor Times Area Value [W/K], 1.00000
Water Heating Coil Capacity Information,Coil:Heating:Water,COIL HEATING WATER 6,0.00
 Component Sizing Information, ZoneHVAC:Baseboard:Convective:Water, ZONE HVAC BASEBOARD CONVECTIVE WATER 10, Design Size Maximum Water Flow Rate [m3/s], 1.63474E-005
 Component Sizing Information, ZoneHVAC:Baseboard:Convective:Water, ZONE HVAC BASEBOARD CONVECTIVE WATER 10, Design Size U-Factor Times Area Value [W/K], 21.46174
 Component Sizing Information, AirTerminal:SingleDuct:VAV:Reheat, AIR TERMINAL SINGLE DUCT VAV REHEAT 5, Design Size Maximum Air Flow Rate [m3/s], 5.70950
 Component Sizing Information, AirTerminal:SingleDuct:VAV:Reheat, AIR TERMINAL SINGLE DUCT VAV REHEAT 5, Design Size Constant Minimum Air Flow Fraction, 0.25024
 Component Sizing Information, AirTerminal:SingleDuct:VAV:Reheat, AIR TERMINAL SINGLE DUCT VAV REHEAT 5, User-Specified Constant Minimum Air Flow Fraction, 0.30000
 Component Sizing Information, AirTerminal:SingleDuct:VAV:Reheat, AIR TERMINAL SINGLE DUCT VAV REHEAT 5, Design Size Minimum Air Flow Rate [m3/s], 1.71285
 Component Sizing Information, AirTerminal:SingleDuct:VAV:Reheat, AIR TERMINAL SINGLE DUCT VAV REHEAT 5, Design Size Maximum Flow per Zone Floor Area during Reheat [m3/s-m2], 9.13520E-004
 Component Sizing Information, AirTerminal:SingleDuct:VAV:Reheat, AIR TERMINAL SINGLE DUCT VAV REHEAT 5, Design Size Maximum Flow Fraction during Reheat [], 0.30000
[...]
 Component Sizing Information, Coil:Cooling:Water, COIL COOLING WATER 3, Design Size Design Inlet Air Humidity Ratio, 9.01441E-003
 Component Sizing Information, Coil:Cooling:Water, COIL COOLING WATER 3, Design Size Design Outlet Air Humidity Ratio, 8.76847E-003
Water Cooling Coil Capacity Information,Coil:Cooling:Water,COIL COOLING WATER 3,777475.17,543168.36,234306.80,0.70,85161.05,863.75
 Component Sizing Information, Coil:Heating:Water, COIL HEATING WATER 10, Design Size Rated Capacity [W], 583534.44351
 Component Sizing Information, Coil:Heating:Water, COIL HEATING WATER 10, Design Size Maximum Water Flow Rate [m3/s], 8.71556E-003
 Component Sizing Information, Coil:Heating:Water, COIL HEATING WATER 10, Design Size U-Factor Times Area Value [W/K], 7120.83124
Water Heating Coil Capacity Information,Coil:Heating:Water,COIL HEATING WATER 10,325118.97
 Component Sizing Information, Fan:VariableVolume, SYS6 SUPPLY FAN 2, Design Size Maximum Flow Rate [m3/s], 34.06750
 Component Sizing Information, Controller:WaterCoil, CONTROLLER WATER COIL 13, Maximum Actuated Flow [m3/s], 2.42578E-002
 Component Sizing Information, Controller:WaterCoil, CONTROLLER WATER COIL 13, Controller Convergence Tolerance, 1.96304E-005
 Component Sizing Information, Controller:WaterCoil, CONTROLLER WATER COIL 12, Maximum Actuated Flow [m3/s], 8.71556E-003
 Component Sizing Information, Controller:WaterCoil, CONTROLLER WATER COIL 12, Controller Convergence Tolerance, 5.46368E-005
 Component Sizing Information, Fan:VariableVolume, SYS6 RETURN FAN 3, Design Size Maximum Flow Rate [m3/s], 15.24584
 Component Sizing Information, Controller:OutdoorAir, CONTROLLER OUTDOOR AIR 7, Maximum Outdoor Air Flow Rate [m3/s], 15.24584
 Component Sizing Information, Controller:OutdoorAir, CONTROLLER OUTDOOR AIR 7, Minimum Outdoor Air Flow Rate [m3/s], 10.57275
 Component Sizing Information, Coil:Cooling:Water, COIL COOLING WATER 4, Design Size Design Coil Load [W], 282511.78675
 Component Sizing Information, Coil:Cooling:Water, COIL COOLING WATER 4, Design Size Design Water Flow Rate [m3/s], 1.12173E-002
 Component Sizing Information, Coil:Cooling:Water, COIL COOLING WATER 4, Design Size Design Air Flow Rate [m3/s], 15.24584
 Component Sizing Information, Coil:Cooling:Water, COIL COOLING WATER 4, Design Size Design Inlet Air Temperature [C], 25.96126
 Component Sizing Information, Coil:Cooling:Water, COIL COOLING WATER 4, Design Size Design Inlet Water Temperature [C], 7.00000
 Component Sizing Information, Coil:Cooling:Water, COIL COOLING WATER 4, Design Size Design Outlet Air Temperature [C], 13.00000
 Component Sizing Information, Coil:Cooling:Water, COIL COOLING WATER 4, Design Size Design Inlet Air Humidity Ratio, 8.86911E-003
 Component Sizing Information, Coil:Cooling:Water, COIL COOLING WATER 4, Design Size Design Outlet Air Humidity Ratio, 8.76847E-003
Water Cooling Coil Capacity Information,Coil:Cooling:Water,COIL COOLING WATER 4,353530.90,245564.46,107966.44,0.69,38630.53,391.81
 Component Sizing Information, Coil:Heating:Water, COIL HEATING WATER 16, Design Size Rated Capacity [W], 261142.60649
 Component Sizing Information, Coil:Heating:Water, COIL HEATING WATER 16, Design Size Maximum Water Flow Rate [m3/s], 3.90038E-003
 Component Sizing Information, Coil:Heating:Water, COIL HEATING WATER 16, Design Size U-Factor Times Area Value [W/K], 3186.70552
Water Heating Coil Capacity Information,Coil:Heating:Water,COIL HEATING WATER 16,145496.84
 Component Sizing Information, Fan:VariableVolume, SYS6 SUPPLY FAN 3, Design Size Maximum Flow Rate [m3/s], 15.24584
 Component Sizing Information, Controller:WaterCoil, CONTROLLER WATER COIL 20, Maximum Actuated Flow [m3/s], 1.12173E-002
 Component Sizing Information, Controller:WaterCoil, CONTROLLER WATER COIL 20, Controller Convergence Tolerance, 4.24515E-005
 Component Sizing Information, Controller:WaterCoil, CONTROLLER WATER COIL 19, Maximum Actuated Flow [m3/s], 3.90038E-003
 Component Sizing Information, Controller:WaterCoil, CONTROLLER WATER COIL 19, Controller Convergence Tolerance, 1.22088E-004
Water Heater Information,WaterHeater:Mixed,1069GAL NATURALGAS WATER HEATER - 2748KBTU/HR,4.0451,805424.8,0.171,0.9880
 Component Sizing Information, PlantLoop, CHILLED WATER LOOP, Maximum Loop Flow Rate [m3/s], 5.65742E-002
 Component Sizing Information, PlantLoop, CHILLED WATER LOOP, Plant Loop Volume [m3], 6.78891
 Component Sizing Information, Pump:ConstantSpeed, PUMP CONSTANT SPEED 1, Design Flow Rate [m3/s], 5.65742E-002
 Component Sizing Information, Pump:ConstantSpeed, PUMP CONSTANT SPEED 1, Design Power Consumption [W], 14453.99446
 Component Sizing Information, Chiller:Electric:EIR, PRIMARY CHILLER WATERCOOLED SCROLL, Design Size Reference Chilled Water Flow Rate [m3/s], 5.65742E-002
 Component Sizing Information, Chiller:Electric:EIR, PRIMARY CHILLER WATERCOOLED SCROLL, Design Size Reference Capacity [W], 1424822.99273
 Component Sizing Information, Chiller:Electric:EIR, PRIMARY CHILLER WATERCOOLED SCROLL, Design Size Reference Condenser Fluid Flow Rate [m3/s], 6.71492E-002
! <Chiller Standard Rating Information>, Component Type, Component Name, IPLV in SI Units {W/W}, IPLV in IP Units {Btu/W-h}
 Chiller Standard Rating Information, Chiller:Electric:EIR, PRIMARY CHILLER WATERCOOLED SCROLL, 7.88, 26.88
 Component Sizing Information, Chiller:Electric:EIR, SECONDARY CHILLER WATERCOOLED SCROLL, Design Size Reference Chilled Water Flow Rate [m3/s], 5.65742E-002
 Component Sizing Information, Chiller:Electric:EIR, SECONDARY CHILLER WATERCOOLED SCROLL, Design Size Reference Capacity [W], 1424822.99273
 Component Sizing Information, Chiller:Electric:EIR, SECONDARY CHILLER WATERCOOLED SCROLL, Design Size Reference Condenser Fluid Flow Rate [m3/s], 6.71492E-002
 Chiller Standard Rating Information, Chiller:Electric:EIR, SECONDARY CHILLER WATERCOOLED SCROLL, 7.88, 26.88
 Component Sizing Information, PlantLoop, CONDENSER WATER LOOP, Maximum Loop Flow Rate [m3/s], 0.13430
 Component Sizing Information, PlantLoop, CONDENSER WATER LOOP, Plant Loop Volume [m3], 16.11581
 Component Sizing Information, Pump:ConstantSpeed, PUMP CONSTANT SPEED 2, Design Flow Rate [m3/s], 0.13430
 Component Sizing Information, Pump:ConstantSpeed, PUMP CONSTANT SPEED 2, Design Power Consumption [W], 34311.51746
 Component Sizing Information, CoolingTower:SingleSpeed, COOLING TOWER SINGLE SPEED 1, Design Water Flow Rate [m3/s], 0.13430
 Component Sizing Information, CoolingTower:SingleSpeed, COOLING TOWER SINGLE SPEED 1, Fan Power at Design Air Flow Rate [W], 29467.36608
 Component Sizing Information, CoolingTower:SingleSpeed, COOLING TOWER SINGLE SPEED 1, Design Air Flow Rate [m3/s], 81.02936
 Component Sizing Information, CoolingTower:SingleSpeed, COOLING TOWER SINGLE SPEED 1, U-Factor Times Area Value at Design Air Flow Rate [W/C], 144696.79417
 Component Sizing Information, CoolingTower:SingleSpeed, COOLING TOWER SINGLE SPEED 1, Free Convection Regime Air Flow Rate [m3/s], 8.10294
 Component Sizing Information, CoolingTower:SingleSpeed, COOLING TOWER SINGLE SPEED 1, Free Convection U-Factor Times Area Value [W/K], 14469.67942
 Component Sizing Information, PlantLoop, HOT WATER LOOP, Maximum Loop Flow Rate [m3/s], 3.18813E-002
 Component Sizing Information, PlantLoop, HOT WATER LOOP, Plant Loop Volume [m3], 3.82575
 Component Sizing Information, Pump:VariableSpeed, PUMP VARIABLE SPEED 1, Design Flow Rate [m3/s], 3.18813E-002
 Component Sizing Information, Pump:VariableSpeed, PUMP VARIABLE SPEED 1, Design Power Consumption [W], 8145.25157
 Component Sizing Information, Boiler:HotWater, PRIMARY BOILER, Design Size Nominal Capacity [W], 2142813.77537
 Component Sizing Information, Boiler:HotWater, PRIMARY BOILER, Design Size Design Water Flow Rate [m3/s], 3.18813E-002
 Component Sizing Information, Boiler:HotWater, SECONDARY BOILER, Design Size Nominal Capacity [W], 2142813.77537
 Component Sizing Information, Boiler:HotWater, SECONDARY BOILER, Design Size Design Water Flow Rate [m3/s], 3.18813E-002
 Component Sizing Information, PlantLoop, MAIN SERVICE WATER LOOP, Maximum Loop Flow Rate [m3/s], 1.52345E-003
 Component Sizing Information, PlantLoop, MAIN SERVICE WATER LOOP, Plant Loop Volume [m3], 0.18281
 Component Sizing Information, Pump:ConstantSpeed, SERVICE WATER LOOP PUMP, Design Flow Rate [m3/s], 1.52345E-003
 Component Sizing Information, Pump:ConstantSpeed, SERVICE WATER LOOP PUMP, Design Power Consumption [W], 2822.49289
 Component Sizing Information, WaterHeater:Mixed, 1069GAL NATURALGAS WATER HEATER - 2748KBTU/HR, Use Side Design Flow Rate [m3/s], 1.52345E-003
! <Environment>,Environment Name,Environment Type, Start Date, End Date, Start DayOfWeek, Duration {#days}, Source:Start DayOfWeek,  Use Daylight Saving, Use Holidays, Apply Weekend Holiday Rule,  Use Rain Values, Use Snow Values
! <Environment:Special Days>, Special Day Name, Special Day Type, Source, Start Date, Duration {#days}
! <Environment:Daylight Saving>, Daylight Saving Indicator, Source, Start Date, End Date
! <Environment:WarmupDays>, NumberofWarmupDays
Environment,FORT MCMURRAY AP ANN CLG .4% CONDNS DB=>MWB,SizingPeriod:DesignDay,07/21,07/21,SummerDesignDay,1,N/A,N/A,N/A,N/A,N/A,N/A
Environment:Daylight Saving,No,SizingPeriod:DesignDay
! <Environment:Design Day Data>, Max Dry-Bulb Temp {C}, Temp Range {dC}, Temp Range Ind Type, Hum Ind Value at Max Temp, Hum Ind Type,Pressure {Pa}, Wind Direction {deg CW from N}, Wind Speed {m/s}, Clearness, Rain, Snow
! <Environment:Design Day Misc>,DayOfYear,ASHRAE A Coeff,ASHRAE B Coeff,ASHRAE C Coeff,Solar Constant-Annual Variation,Eq of Time {minutes}, Solar Declination Angle {deg}, Solar Model
Environment:Design Day Data,28.90,12.40,DefaultMultipliers,96969,250,3.7,0.00,No,No
Environment:Design Day Misc,202,1084.4,0.2082,0.1365,1.0,-6.23,20.6,ASHRAETau
Environment:WarmupDays,  6
! <Tabular Report>,Style,Unit Conversion
Tabular Report,HTML,None
! <Warmup Convergence Information>,Zone Name,Environment Type/Name,Average Warmup Temperature Difference {deltaC},Std Dev Warmup Temperature Difference {deltaC},Max Temperature Pass/Fail Convergence,Min Temperature Pass/Fail Convergence,Average Warmup Load Difference {W},Std Dev Warmup Load Difference {W},Heating Load Pass/Fail Convergence,Cooling Load Pass/Fail Convergence
 Warmup Convergence Information,ALL_ST=RELIGIOUS - FELLOWSHIP HALL_FL=STORY 4_SCH=C,SizingPeriod: FORT MCMURRAY AP ANN CLG .4% CONDNS DB=>MWB,6.4291921271E-002,0.1019270572,Pass,Pass,2.9484123461E-002,4.4293723497E-002,Pass,Pass
 Warmup Convergence Information,ALL_ST=RELIGIOUS - PULPIT/CHOIR_FL=STORY 4_SCH=I,SizingPeriod: FORT MCMURRAY AP ANN CLG .4% CONDNS DB=>MWB,0.1491018120,0.3880955552,Pass,Pass,5.8340286943E-002,0.2014438276,Pass,Pass
 Warmup Convergence Information,ALL_ST=RETAIL - DRESSING/FITTING_FL=STORY 3_SCH=C,SizingPeriod: FORT MCMURRAY AP ANN CLG .4% CONDNS DB=>MWB,2.2099264570E-002,3.7392781867E-002,Pass,Pass,1.5248926090E-002,5.1996550093E-002,Pass,Pass
 Warmup Convergence Information,ALL_ST=RETAIL - MALL CONCOURSE_FL=STORY 3_SCH=C,SizingPeriod: FORT MCMURRAY AP ANN CLG .4% CONDNS DB=>MWB,1.8529306750E-002,3.4343852865E-002,Pass,Pass,1.4916402425E-002,6.2487525050E-002,Pass,Pass
 Warmup Convergence Information,ALL_ST=RETAIL - SALES_FL=STORY 3_SCH=C,SizingPeriod: FORT MCMURRAY AP ANN CLG .4% CONDNS DB=>MWB,2.5421791882E-002,4.7176508815E-002,Pass,Pass,1.6713367575E-002,5.7115971736E-002,Pass,Pass
 Warmup Convergence Information,ALL_ST=SALES AREA_FL=STORY 1_SCH=C,SizingPeriod: FORT MCMURRAY AP ANN CLG .4% CONDNS DB=>MWB,1.2636131294E-002,3.8346079305E-002,Pass,Pass,1.6847658282E-002,8.5661435435E-002,Pass,Pass
 Warmup Convergence Information,ALL_ST=SPORTS ARENA - AUDIENCE_FL=STORY 3_SCH=B,SizingPeriod: FORT MCMURRAY AP ANN CLG .4% CONDNS DB=>MWB,4.5836490519E-002,0.1175448237,Pass,Pass,3.6874697512E-002,0.1387732502,Pass,Pass
 Warmup Convergence Information,ALL_ST=SPORTS ARENA - COURT C1_FL=STORY 3_SCH=B,SizingPeriod: FORT MCMURRAY AP ANN CLG .4% CONDNS DB=>MWB,3.2387933603E-002,9.0405463125E-002,Pass,Pass,2.4528433245E-002,9.4123064084E-002,Pass,Pass
 Warmup Convergence Information,ALL_ST=SPORTS ARENA - COURT C2_FL=STORY 1_SCH=B,SizingPeriod: FORT MCMURRAY AP ANN CLG .4% CONDNS DB=>MWB,3.1112825720E-002,8.4961060184E-002,Pass,Pass,2.5779974237E-002,0.1068853025,Pass,Pass
 Warmup Convergence Information,ALL_ST=SPORTS ARENA - COURT C3_FL=STORY 4_SCH=B,SizingPeriod: FORT MCMURRAY AP ANN CLG .4% CONDNS DB=>MWB,5.2241728619E-002,0.1059879301,Pass,Pass,2.3786168286E-002,2.9943737458E-002,Pass,Pass
 Warmup Convergence Information,ALL_ST=SPORTS ARENA - COURT C4_FL=STORY 2_SCH=B,SizingPeriod: FORT MCMURRAY AP ANN CLG .4% CONDNS DB=>MWB,2.1387809365E-002,5.1661022634E-002,Pass,Pass,2.3247375554E-002,6.4747055604E-002,Pass,Pass
 Warmup Convergence Information,ALL_ST=SPORTS ARENA - RING_FL=STORY 2_SCH=B,SizingPeriod: FORT MCMURRAY AP ANN CLG .4% CONDNS DB=>MWB,3.0276984422E-002,9.1887258952E-002,Pass,Pass,2.4721842815E-002,0.1015936862,Pass,Pass
 Warmup Convergence Information,ALL_ST=STORAGE AREA - OCCSENS_FL=STORY 1_SCH=E,SizingPeriod: FORT MCMURRAY AP ANN CLG .4% CONDNS DB=>MWB,2.3341347229E-002,1.6747321536E-002,Pass,Pass,6.8106203005E-002,0.4017802130,Pass,Pass
 Warmup Convergence Information,ALL_ST=STORAGE AREA - REFRIGERATED - OCCSENS_FL=STORY 2_SCH=E,SizingPeriod: FORT MCMURRAY AP ANN CLG .4% CONDNS DB=>MWB,3.1499101382E-002,2.5630418338E-002,Pass,Pass,0.3529233369,3.4883218999,Pass,Pass
 Warmup Convergence Information,ALL_ST=STORAGE AREA - REFRIGERATED_FL=STORY 1_SCH=E,SizingPeriod: FORT MCMURRAY AP ANN CLG .4% CONDNS DB=>MWB,2.2666050780E-002,1.5756278882E-002,Pass,Pass,0.1005672459,0.6954259213,Pass,Pass
 Warmup Convergence Information,ALL_ST=STORAGE AREA_FL=STORY 4_SCH=E,SizingPeriod: FORT MCMURRAY AP ANN CLG .4% CONDNS DB=>MWB,3.9899984329E-002,5.5182144266E-002,Pass,Pass,0.7506406993,8.3124962409,Pass,Pass
 Warmup Convergence Information,ALL_ST=TRANSP. BAGGAGE_FL=STORY 2_SCH=H,SizingPeriod: FORT MCMURRAY AP ANN CLG .4% CONDNS DB=>MWB,4.8470405021E-005,1.4598255563E-004,Pass,Pass,5.6927068339E-003,6.5469549189E-003,Pass,Pass
 Warmup Convergence Information,ALL_ST=TRANSP. CONCOURSE_FL=STORY 4_SCH=H,SizingPeriod: FORT MCMURRAY AP ANN CLG .4% CONDNS DB=>MWB,3.2075648900E-002,5.0207787663E-002,Pass,Pass,1.3888741051E-002,1.5303634706E-002,Pass,Pass
 Warmup Convergence Information,ALL_ST=TRANSP. COUNTER_FL=STORY 1_SCH=H,SizingPeriod: FORT MCMURRAY AP ANN CLG .4% CONDNS DB=>MWB,1.0755633303E-004,3.1742869082E-004,Pass,Pass,5.6056145832E-004,4.6722669841E-004,Pass,Pass
 Warmup Convergence Information,ALL_ST=TRANSP. SEATING_FL=STORY 2_SCH=H,SizingPeriod: FORT MCMURRAY AP ANN CLG .4% CONDNS DB=>MWB,1.4516916591E-002,1.4149559350E-002,Pass,Pass,1.9336536553E-003,2.2097573112E-003,Pass,Pass
Environment,FORT MCMURRAY AP ANN HTG 99.6% CONDNS DB,SizingPeriod:DesignDay,01/21,01/21,WinterDesignDay,1,N/A,N/A,N/A,N/A,N/A,N/A
Environment:Daylight Saving,No,SizingPeriod:DesignDay
Environment:Design Day Data,-36.20,0.00,DefaultMultipliers,96969,90,1.0,0.00,No,No
Environment:Design Day Misc, 21,1229.0,0.1415,5.7310E-002,1.0,-11.15,-20.1,ASHRAEClearSky
Environment:WarmupDays,  7
 Warmup Convergence Information,ALL_ST=RELIGIOUS - FELLOWSHIP HALL_FL=STORY 4_SCH=C,SizingPeriod: FORT MCMURRAY AP ANN HTG 99.6% CONDNS DB,5.5645510690E-002,0.3335780623,Pass,Pass,3.1868665965E-002,0.1046455605,Pass,Pass
 Warmup Convergence Information,ALL_ST=RELIGIOUS - PULPIT/CHOIR_FL=STORY 4_SCH=I,SizingPeriod: FORT MCMURRAY AP ANN HTG 99.6% CONDNS DB,5.5590554108E-002,0.3234863999,Pass,Pass,8.7870245187E-002,0.3984338735,Pass,Pass
 Warmup Convergence Information,ALL_ST=RETAIL - DRESSING/FITTING_FL=STORY 3_SCH=C,SizingPeriod: FORT MCMURRAY AP ANN HTG 99.6% CONDNS DB,5.7285396851E-002,0.2115100988,Pass,Pass,7.1510451291E-002,0.2900805899,Pass,Pass
 Warmup Convergence Information,ALL_ST=RETAIL - MALL CONCOURSE_FL=STORY 3_SCH=C,SizingPeriod: FORT MCMURRAY AP ANN HTG 99.6% CONDNS DB,4.9847725261E-002,5.6872521144E-002,Pass,Pass,0.5468543461,2.0958309578,Pass,Pass
 Warmup Convergence Information,ALL_ST=RETAIL - SALES_FL=STORY 3_SCH=C,SizingPeriod: FORT MCMURRAY AP ANN HTG 99.6% CONDNS DB,6.0725578405E-002,7.3043425076E-002,Pass,Pass,0.2049940524,0.6347531100,Pass,Pass
 Warmup Convergence Information,ALL_ST=SALES AREA_FL=STORY 1_SCH=C,SizingPeriod: FORT MCMURRAY AP ANN HTG 99.6% CONDNS DB,7.3575657707E-002,0.1186460067,Pass,Pass,4.6878580772E-002,0.1415183568,Pass,Pass
 Warmup Convergence Information,ALL_ST=SPORTS ARENA - AUDIENCE_FL=STORY 3_SCH=B,SizingPeriod: FORT MCMURRAY AP ANN HTG 99.6% CONDNS DB,6.7515990376E-002,8.7988116471E-002,Pass,Pass,1.9771941245E-002,4.2920097562E-002,Pass,Pass
 Warmup Convergence Information,ALL_ST=SPORTS ARENA - COURT C1_FL=STORY 3_SCH=B,SizingPeriod: FORT MCMURRAY AP ANN HTG 99.6% CONDNS DB,0.1059338094,0.1207631524,Pass,Pass,3.1251154528E-002,4.9700200746E-002,Pass,Pass
 Warmup Convergence Information,ALL_ST=SPORTS ARENA - COURT C2_FL=STORY 1_SCH=B,SizingPeriod: FORT MCMURRAY AP ANN HTG 99.6% CONDNS DB,0.1334234532,0.1823450032,Pass,Pass,3.1402884491E-002,9.8944108758E-002,Pass,Pass
 Warmup Convergence Information,ALL_ST=SPORTS ARENA - COURT C3_FL=STORY 4_SCH=B,SizingPeriod: FORT MCMURRAY AP ANN HTG 99.6% CONDNS DB,5.6303857518E-002,0.2896223459,Pass,Pass,5.8358442070E-002,0.1347550534,Pass,Pass
 Warmup Convergence Information,ALL_ST=SPORTS ARENA - COURT C4_FL=STORY 2_SCH=B,SizingPeriod: FORT MCMURRAY AP ANN HTG 99.6% CONDNS DB,8.0811774967E-002,9.1033240322E-002,Pass,Pass,1.2472079423E-002,1.6775101043E-002,Pass,Pass
 Warmup Convergence Information,ALL_ST=SPORTS ARENA - RING_FL=STORY 2_SCH=B,SizingPeriod: FORT MCMURRAY AP ANN HTG 99.6% CONDNS DB,8.7744664258E-002,0.1033133532,Pass,Pass,1.6817572345E-002,2.4397912285E-002,Pass,Pass
 Warmup Convergence Information,ALL_ST=STORAGE AREA - OCCSENS_FL=STORY 1_SCH=E,SizingPeriod: FORT MCMURRAY AP ANN HTG 99.6% CONDNS DB,2.9145744024E-002,9.6659723972E-002,Pass,Pass,4.6949547101E-002,0.2110790105,Pass,Pass
 Warmup Convergence Information,ALL_ST=STORAGE AREA - REFRIGERATED - OCCSENS_FL=STORY 2_SCH=E,SizingPeriod: FORT MCMURRAY AP ANN HTG 99.6% CONDNS DB,2.9764397918E-002,0.1252575251,Pass,Pass,4.1603036510E-002,0.1797404441,Pass,Pass
 Warmup Convergence Information,ALL_ST=STORAGE AREA - REFRIGERATED_FL=STORY 1_SCH=E,SizingPeriod: FORT MCMURRAY AP ANN HTG 99.6% CONDNS DB,3.0058863507E-002,8.8447235216E-002,Pass,Pass,5.0330367884E-002,0.2321493471,Pass,Pass
 Warmup Convergence Information,ALL_ST=STORAGE AREA_FL=STORY 4_SCH=E,SizingPeriod: FORT MCMURRAY AP ANN HTG 99.6% CONDNS DB,5.5586798898E-002,0.3092960855,Pass,Pass,2.7739404169E-002,0.1174680697,Pass,Pass
 Warmup Convergence Information,ALL_ST=TRANSP. BAGGAGE_FL=STORY 2_SCH=H,SizingPeriod: FORT MCMURRAY AP ANN HTG 99.6% CONDNS DB,1.0480420170E-002,7.7799627515E-003,Pass,Pass,7.3752815231E-003,2.1502660615E-002,Pass,Pass
 Warmup Convergence Information,ALL_ST=TRANSP. CONCOURSE_FL=STORY 4_SCH=H,SizingPeriod: FORT MCMURRAY AP ANN HTG 99.6% CONDNS DB,5.6121773966E-002,0.2083797583,Pass,Pass,4.0385076758E-002,0.1749477673,Pass,Pass
 Warmup Convergence Information,ALL_ST=TRANSP. COUNTER_FL=STORY 1_SCH=H,SizingPeriod: FORT MCMURRAY AP ANN HTG 99.6% CONDNS DB,3.9647147640E-002,8.7287176286E-002,Pass,Pass,2.5226513687E-002,7.9739049851E-002,Pass,Pass
 Warmup Convergence Information,ALL_ST=TRANSP. SEATING_FL=STORY 2_SCH=H,SizingPeriod: FORT MCMURRAY AP ANN HTG 99.6% CONDNS DB,1.2901966011E-002,1.4267121954E-002,Pass,Pass,7.3129364504E-003,2.2288314989E-002,Pass,Pass
! <Program Control Information:Threads/Parallel Sims>, Threading Supported,Maximum Number of Threads, Env Set Threads (OMP_NUM_THREADS), EP Env Set Threads (EP_OMP_NUM_THREADS), IDF Set Threads, Number of Threads Used (Interior Radiant Exchange), Number Nominal Surfaces, Number Parallel Sims
Program Control:Threads/Parallel Sims, No,1, N/A, N/A, N/A, N/A, N/A, N/A
End of Data
