Program Version,EnergyPlus, Version 8.9.0-eba93e8e1b, YMD=2019.03.20 17:57,
   ************* Beginning Zone Sizing Calculations
   ** Warning ** ProcessScheduleInput: Schedule:Day:Interval="SCHEDULE DAY 1", Blank Schedule Type Limits Name input -- will not be validated.
   ** Warning ** ProcessScheduleInput: Schedule:Day:Interval="SCHEDULE DAY 2", Blank Schedule Type Limits Name input -- will not be validated.
   ** Warning ** ProcessScheduleInput: Schedule:Constant="ALWAYS OFF DISCRETE", Blank Schedule Type Limits Name input -- will not be validated.
   ** Warning ** ProcessScheduleInput: Schedule:Constant="ALWAYS ON CONTINUOUS", Blank Schedule Type Limits Name input -- will not be validated.
   ** Warning ** CheckUsedConstructions: There are 27 nominally unused constructions in input.
   **   ~~~   ** For explicit details on each unused construction, use Output:Diagnostics,DisplayExtraWarnings;
   ** Warning ** GetInternalHeatGains: People Combination of ZoneList and Object Name generate a name too long.
   **   ~~~   ** Object Name="SPACE FUNCTION HOSPITAL - MEDICAL SUPPLY - OCCSENS PEOPLE".
   **   ~~~   ** ZoneList/Zone Name="HOSPITAL - MEDICAL SUPPLY - OCCSENS-SPACE FUNCTION ZN".
   **   ~~~   ** Item length=[110] > Maximum Length=[100]. You may need to shorten the names.
   **   ~~~   ** Shortening the Object Name by [11] characters will assure uniqueness for this ZoneList.
   **   ~~~   ** name that will be used (may be needed in reporting)="HOSPITAL - MEDICAL SUPPLY - OCCSENS-SPACE FUNCTION ZN SPACE FUNCTION HOSPITAL - MEDICAL SUPPLY - OCCSENS PEOPLE".
   ** Warning ** GetInternalHeatGains: Lights Combination of ZoneList and Object Name generate a name too long.
   **   ~~~   ** Object Name="SPACE FUNCTION HOSPITAL - MEDICAL SUPPLY - OCCSENS LIGHTS".
   **   ~~~   ** ZoneList/Zone Name="HOSPITAL - MEDICAL SUPPLY - OCCSENS-SPACE FUNCTION ZN".
   **   ~~~   ** Item length=[110] > Maximum Length=[100]. You may need to shorten the names.
   **   ~~~   ** Shortening the Object Name by [11] characters will assure uniqueness for this ZoneList.
   **   ~~~   ** name that will be used (may be needed in reporting)="HOSPITAL - MEDICAL SUPPLY - OCCSENS-SPACE FUNCTION ZN SPACE FUNCTION HOSPITAL - MEDICAL SUPPLY - OCCSENS LIGHTS".
   ** Warning ** GetInternalHeatGains: ElectricEquipment Combination of ZoneList and Object Name generate a name too long.
   **   ~~~   ** Object Name="SPACE FUNCTION HOSPITAL - MEDICAL SUPPLY - OCCSENS ELEC EQUIP".
   **   ~~~   ** ZoneList/Zone Name="HOSPITAL - MEDICAL SUPPLY - OCCSENS-SPACE FUNCTION ZN".
   **   ~~~   ** Item length=[114] > Maximum Length=[100]. You may need to shorten the names.
   **   ~~~   ** Shortening the Object Name by [15] characters will assure uniqueness for this ZoneList.
   **   ~~~   ** name that will be used (may be needed in reporting)="HOSPITAL - MEDICAL SUPPLY - OCCSENS-SPACE FUNCTION ZN SPACE FUNCTION HOSPITAL - MEDICAL SUPPLY - OCCSENS ELEC EQUIP".
   ** Warning ** Calculated design heating load for zone=HOSPITAL - EMERGENCY-SPACE FUNCTION ZN is zero.
   **   ~~~   ** Check Sizing:Zone and ZoneControl:Thermostat inputs.
   ** Warning ** Calculated design heating load for zone=HOSPITAL - EXAM-SPACE FUNCTION ZN is zero.
   **   ~~~   ** Check Sizing:Zone and ZoneControl:Thermostat inputs.
   ** Warning ** Calculated design heating load for zone=HOSPITAL - LOUNGE/RECREATION-SPACE FUNCTION ZN is zero.
   **   ~~~   ** Check Sizing:Zone and ZoneControl:Thermostat inputs.
   ** Warning ** Calculated design heating load for zone=HOSPITAL - MEDICAL SUPPLY - OCCSENS-SPACE FUNCTION ZN is zero.
   **   ~~~   ** Check Sizing:Zone and ZoneControl:Thermostat inputs.
   ** Warning ** Calculated design heating load for zone=HOSPITAL - MEDICAL SUPPLY-SPACE FUNCTION ZN is zero.
   **   ~~~   ** Check Sizing:Zone and ZoneControl:Thermostat inputs.
   ** Warning ** Calculated design heating load for zone=HOSPITAL - NURSERY-SPACE FUNCTION ZN is zero.
   **   ~~~   ** Check Sizing:Zone and ZoneControl:Thermostat inputs.
   ** Warning ** Calculated design heating load for zone=HOSPITAL - NURSES STATION-SPACE FUNCTION ZN is zero.
   **   ~~~   ** Check Sizing:Zone and ZoneControl:Thermostat inputs.
   ** Warning ** Calculated design heating load for zone=HOSPITAL - OPERATING ROOM-SPACE FUNCTION ZN is zero.
   **   ~~~   ** Check Sizing:Zone and ZoneControl:Thermostat inputs.
   ** Warning ** Calculated design heating load for zone=HOSPITAL - PATIENT ROOM-SPACE FUNCTION ZN is zero.
   **   ~~~   ** Check Sizing:Zone and ZoneControl:Thermostat inputs.
   ** Warning ** Calculated design heating load for zone=HOSPITAL - PHARMACY-SPACE FUNCTION ZN is zero.
   **   ~~~   ** Check Sizing:Zone and ZoneControl:Thermostat inputs.
   ** Warning ** Calculated design heating load for zone=HOSPITAL - RADIOLOGY/IMAGING-SPACE FUNCTION ZN is zero.
   **   ~~~   ** Check Sizing:Zone and ZoneControl:Thermostat inputs.
   ** Warning ** Calculated design heating load for zone=HOSPITAL CORR. < 2.4M-SCH-C-SPACE FUNCTION ZN is zero.
   **   ~~~   ** Check Sizing:Zone and ZoneControl:Thermostat inputs.
   ** Warning ** Calculated design heating load for zone=HOSPITAL CORR. < 2.4M-SCH-D-SPACE FUNCTION ZN is zero.
   **   ~~~   ** Check Sizing:Zone and ZoneControl:Thermostat inputs.
   ** Warning ** Output:Meter: invalid Key Name="GAS:FACILITY" - not found.
   ** Warning ** Output:Meter:MeterFileOnly: invalid Key Name="GAS:FACILITY" - not found.
   ** Warning ** Output:Meter:MeterFileOnly requested for "Electricity:Facility" (TimeStep), already on "Output:Meter". Will report to both eplusout.eso and eplusout.mtr
   ************* Testing Individual Branch Integrity
   ************* All Branches passed integrity testing
   ************* Testing Individual Supply Air Path Integrity
   ************* All Supply Air Paths passed integrity testing
   ************* Testing Individual Return Air Path Integrity
   ************* All Return Air Paths passed integrity testing
   ************* No node connection errors were found.
   ************* Beginning Simulation
   ** Warning ** Output:Table:Monthly requested with SimulationControl Run Simulation for Weather File Run Periods set to No so Output:Table:Monthly will not be generated
   ************* Simulation Error Summary *************
   ************* There are 8 unused objects in input.
   ************* Use Output:Diagnostics,DisplayUnusedObjects; to see them.
   ************* There are 8 unused schedules in input.
   ************* There are 8 unused week schedules in input.
   ************* There are 17 unused day schedules in input.
   ************* Use Output:Diagnostics,DisplayUnusedSchedules; to see them.
   *************
   ************* ===== Final Error Summary =====
   ************* The following error categories occurred.  Consider correcting or noting.
   ************* Nominally Unused Constructions
   ************* ..The nominally unused constructions warning is provided to alert you to potential conditions that can cause
   ************* ..extra time during simulation. Each construction is calculated by the algorithm indicated in the HeatBalanceAlgorithm
   ************* ..object. You may remove the constructions indicated (when you use the DisplayExtraWarnings option).
   *************
   ************* EnergyPlus Warmup Error Summary. During Warmup: 0 Warning; 0 Severe Errors.
   ************* EnergyPlus Sizing Error Summary. During Sizing: 21 Warning; 0 Severe Errors.
   ************* EnergyPlus Completed Successfully-- 25 Warning; 0 Severe Errors; Elapsed Time=00hr 00min  2.29sec
