Program Version,EnergyPlus, Version 8.9.0-eba93e8e1b, YMD=2019.03.28 13:14
! <Version>, Version ID
 Version, 8.9
! <Timesteps per Hour>, #TimeSteps, Minutes per TimeStep {minutes}
 Timesteps per Hour,  6, 10
! <System Convergence Limits>, Minimum System TimeStep {minutes}, Max HVAC Iterations, Minimum Plant Iterations, Maximum Plant Iterations
 System Convergence Limits, 1, 20, 2, 8
! <Simulation Control>, Do Zone Sizing, Do System Sizing, Do Plant Sizing, Do Design Days, Do Weather Simulation, Do HVAC Sizing Simulation
 Simulation Control, Yes, Yes, Yes, Yes, No, No
! <Output Reporting Tolerances>, Tolerance for Time Heating Setpoint Not Met, Tolerance for Zone Cooling Setpoint Not Met Time
 Output Reporting Tolerances, 1.000, 1.000, 
! <Site:GroundTemperature:BuildingSurface>,Jan{C},Feb{C},Mar{C},Apr{C},May{C},Jun{C},Jul{C},Aug{C},Sep{C},Oct{C},Nov{C},Dec{C}
 Site:GroundTemperature:BuildingSurface,  19.53,  19.50,  19.54,  19.60,  20.00,  21.64,  22.23,  22.38,  21.45,  20.12,  19.80,  19.63
! <Site:GroundTemperature:FCfactorMethod>,Jan{C},Feb{C},Mar{C},Apr{C},May{C},Jun{C},Jul{C},Aug{C},Sep{C},Oct{C},Nov{C},Dec{C}
 Site:GroundTemperature:FCfactorMethod, -12.27, -13.66, -11.19,  -7.33,   2.77,  10.57,  15.83,  17.43,  14.70,   8.65,   0.56,  -6.95
! <Site:GroundTemperature:Shallow>,Jan{C},Feb{C},Mar{C},Apr{C},May{C},Jun{C},Jul{C},Aug{C},Sep{C},Oct{C},Nov{C},Dec{C}
 Site:GroundTemperature:Shallow,  13.00,  13.00,  13.00,  13.00,  13.00,  13.00,  13.00,  13.00,  13.00,  13.00,  13.00,  13.00
! <Site:GroundTemperature:Deep>,Jan{C},Feb{C},Mar{C},Apr{C},May{C},Jun{C},Jul{C},Aug{C},Sep{C},Oct{C},Nov{C},Dec{C}
 Site:GroundTemperature:Deep,  16.00,  16.00,  16.00,  16.00,  16.00,  16.00,  16.00,  16.00,  16.00,  16.00,  16.00,  16.00
! <Site:GroundReflectance>,Jan{dimensionless},Feb{dimensionless},Mar{dimensionless},Apr{dimensionless},May{dimensionless},Jun{dimensionless},Jul{dimensionless},Aug{dimensionless},Sep{dimensionless},Oct{dimensionless},Nov{dimensionless},Dec{dimensionless}
 Site:GroundReflectance,  0.20,  0.20,  0.20,  0.20,  0.20,  0.20,  0.20,  0.20,  0.20,  0.20,  0.20,  0.20
! <Site:GroundReflectance:SnowModifier>, Normal, Daylighting {dimensionless}
 Site:GroundReflectance:SnowModifier,   1.000,   1.000
! <Site:GroundReflectance:Snow>,Jan{dimensionless},Feb{dimensionless},Mar{dimensionless},Apr{dimensionless},May{dimensionless},Jun{dimensionless},Jul{dimensionless},Aug{dimensionless},Sep{dimensionless},Oct{dimensionless},Nov{dimensionless},Dec{dimensionless}
 Site:GroundReflectance:Snow,  0.20,  0.20,  0.20,  0.20,  0.20,  0.20,  0.20,  0.20,  0.20,  0.20,  0.20,  0.20
! <Site:GroundReflectance:Snow:Daylighting>,Jan{dimensionless},Feb{dimensionless},Mar{dimensionless},Apr{dimensionless},May{dimensionless},Jun{dimensionless},Jul{dimensionless},Aug{dimensionless},Sep{dimensionless},Oct{dimensionless},Nov{dimensionless},Dec{dimensionless}
 Site:GroundReflectance:Snow:Daylighting,  0.20,  0.20,  0.20,  0.20,  0.20,  0.20,  0.20,  0.20,  0.20,  0.20,  0.20,  0.20
! <Environment:Weather Station>,Wind Sensor Height Above Ground {m},Wind Speed Profile Exponent {},Wind Speed Profile Boundary Layer Thickness {m},Air Temperature Sensor Height Above Ground {m},Wind Speed Modifier Coefficient-Internal,Temperature Modifier Coefficient-Internal
Environment:Weather Station,10.000,0.140,270.000,1.500,1.586,9.750E-003
! <Site:Location>, Location Name, Latitude {N+/S- Deg}, Longitude {E+/W- Deg},  Time Zone Number {GMT+/-}, Elevation {m},  Standard Pressure at Elevation {Pa}, Standard RhoAir at Elevation
Site:Location,Fort McMurray AP AB CAN CWEC2016 WMO#=716890,56.65,-111.22,-7.00,369.10,96969,1.1525
! <Building Information>, Building Name,North Axis {deg},Terrain,  Loads Convergence Tolerance Value,Temperature Convergence Tolerance Value,  Solar Distribution,Maximum Number of Warmup Days,Minimum Number of Warmup Days
 Building Information,Building 1,0.000,Suburbs,4.00000E-002,0.40000,FullExterior,25,6
! <Inside Convection Algorithm>, Algorithm {Simple | TARP | CeilingDiffuser | AdaptiveConvectionAlgorithm}
Inside Convection Algorithm,TARP
! <Outside Convection Algorithm>, Algorithm {SimpleCombined | TARP | MoWitt | DOE-2 | AdaptiveConvectionAlgorithm}
Outside Convection Algorithm,TARP
! <Sky Radiance Distribution>, Value {Anisotropic}
Sky Radiance Distribution,Anisotropic
! <Zone Air Solution Algorithm>, Value {ThirdOrderBackwardDifference | AnalyticalSolution | EulerMethod}
 Zone Air Solution Algorithm, ThirdOrderBackwardDifference
! <Zone Air Carbon Dioxide Balance Simulation>, Simulation {Yes/No}, Carbon Dioxide Concentration
 Zone Air Carbon Dioxide Balance Simulation, No,N/A
! <Zone Air Generic Contaminant Balance Simulation>, Simulation {Yes/No}, Generic Contaminant Concentration
 Zone Air Generic Contaminant Balance Simulation, No,N/A
! <Zone Air Mass Flow Balance Simulation>, Enforce Mass Balance, Adjust Zone Mixing, Adjust Zone Infiltration {AddInfiltration | AdjustInfiltration | None}, Infiltration Zones {MixingSourceZonesOnly | AllZones}
 Zone Air Mass Flow Balance Simulation, No,N/A,N/A,N/A
! <HVACSystemRootFindingAlgorithm>, Value {RegulaFalsi | Bisection | BisectionThenRegulaFalsi | RegulaFalsiThenBisection}
 HVACSystemRootFindingAlgorithm, RegulaFalsi
! <Environment:Site Atmospheric Variation>,Wind Speed Profile Exponent {},Wind Speed Profile Boundary Layer Thickness {m},Air Temperature Gradient Coefficient {K/m}
Environment:Site Atmospheric Variation,0.220,370.000,6.500000E-003
! <Surface Geometry>,Starting Corner,Vertex Input Direction,Coordinate System,Daylight Reference Point Coordinate System,Rectangular (Simple) Surface Coordinate System
 Surface Geometry,UpperLeftCorner,Counterclockwise,RelativeCoordinateSystem,RelativeCoordinateSystem,RelativeToZoneOrigin
! <Surface Heat Transfer Algorithm>, Value {CTF - ConductionTransferFunction | EMPD - MoisturePenetrationDepthConductionTransferFunction | CondFD - ConductionFiniteDifference | HAMT - CombinedHeatAndMoistureFiniteElement} - Description,Inside Surface Max Temperature Limit{C}, Surface Convection Coefficient Lower Limit {W/m2-K}, Surface Convection Coefficient Upper Limit {W/m2-K}
Surface Heat Transfer Algorithm, CTF - ConductionTransferFunction,200,0.10,1000.0
! <Shading Summary>, Number of Fixed Detached Shades, Number of Building Detached Shades, Number of Attached Shades
 Shading Summary,0,0,0
! <Zone Summary>, Number of Zones, Number of Zone Surfaces, Number of SubSurfaces
 Zone Summary,20,137,17
! <Zone Information>,Zone Name,North Axis {deg},Origin X-Coordinate {m},Origin Y-Coordinate {m},Origin Z-Coordinate {m},Centroid X-Coordinate {m},Centroid Y-Coordinate {m},Centroid Z-Coordinate {m},Type,Zone Multiplier,Zone List Multiplier,Minimum X {m},Maximum X {m},Minimum Y {m},Maximum Y {m},Minimum Z {m},Maximum Z {m},Ceiling Height {m},Volume {m3},Zone Inside Convection Algorithm {Simple-Detailed-CeilingDiffuser-TrombeWall},Zone Outside Convection Algorithm {Simple-Detailed-Tarp-MoWitt-DOE-2-BLAST}, Floor Area {m2},Exterior Gross Wall Area {m2},Exterior Net Wall Area {m2},Exterior Window Area {m2}, Number of Surfaces, Number of SubSurfaces, Number of Shading SubSurfaces,  Part of Total Building Area
 Zone Information, ALL_ST=HOSPITAL - MEDICAL SUPPLY - OCCSENS_FL=STORY 4_SCH=H,0.0,25.00,25.00,11.40,50.00,50.00,13.30,1,1,1,25.00,75.00,25.00,75.00,11.40,15.20,3.80,9500.00,TARP,TARP,2500.00,0.00,0.00,125.00,6,1,0,Yes
 Zone Information, ALL_ST=HOSPITAL - NURSERY_FL=STORY 4_SCH=H,0.0,0.00,0.00,11.40,50.00,10.85,13.30,1,1,1,0.00,100.00,0.00,25.00,11.40,15.20,3.80,7125.00,TARP,TARP,1875.00,380.00,285.00,188.75,6,2,0,Yes
 Zone Information, ALL_ST=HOSPITAL - NURSES STATION_FL=STORY 4_SCH=H,0.0,25.00,75.00,11.40,50.00,89.15,13.30,1,1,1,0.00,100.00,75.00,100.00,11.40,15.20,3.80,7125.00,TARP,TARP,1875.00,380.00,285.00,188.75,6,2,0,Yes
 Zone Information, ALL_ST=HOSPITAL - OPERATING ROOM_FL=STORY 4_SCH=H,0.0,0.00,0.00,11.40,10.85,50.00,13.30,1,1,1,0.00,25.00,0.00,100.00,11.40,15.20,3.80,7125.00,TARP,TARP,1875.00,380.00,285.00,188.75,6,2,0,Yes
 Zone Information, ALL_ST=HOSPITAL - PATIENT ROOM_FL=STORY 3_SCH=H,0.0,25.00,25.00,7.60,50.00,50.00,9.50,1,1,1,25.00,75.00,25.00,75.00,7.60,11.40,3.80,9500.00,TARP,TARP,2500.00,0.00,0.00,0.00,6,0,0,Yes
 Zone Information, ALL_ST=HOSPITAL - PHARMACY_FL=STORY 4_SCH=C,0.0,75.00,25.00,11.40,89.15,50.00,13.30,1,1,1,75.00,100.00,0.00,100.00,11.40,15.20,3.80,7125.00,TARP,TARP,1875.00,380.00,285.00,188.75,6,2,0,Yes
 Zone Information, ALL_ST=HOSPITAL - PHYSICAL THERAPY_FL=STORY 3_SCH=C,0.0,75.00,25.00,7.60,89.15,50.00,9.50,1,1,1,75.00,100.00,0.00,100.00,7.60,11.40,3.80,7125.00,TARP,TARP,1875.00,380.00,285.00,95.00,6,1,0,Yes
 Zone Information, ALL_ST=HOSPITAL - RADIOLOGY/IMAGING_FL=STORY 3_SCH=H,0.0,25.00,75.00,7.60,50.00,89.15,9.50,1,1,1,0.00,100.00,75.00,100.00,7.60,11.40,3.80,7125.00,TARP,TARP,1875.00,380.00,285.00,95.00,6,1,0,Yes
 Zone Information, ALL_ST=HOSPITAL - RECOVERY_FL=STORY 1_SCH=H,0.0,0.00,0.00,0.00,10.85,50.00,1.90,1,1,1,0.00,25.00,0.00,100.00,0.00,3.80,3.80,7125.00,TARP,TARP,1875.00,0.00,0.00,0.00,6,0,0,Yes
 Zone Information, ALL_ST=HOTEL/MOTEL - DINING_FL=STORY 1_SCH=B,0.0,75.00,25.00,0.00,89.15,50.00,1.90,1,1,1,75.00,100.00,0.00,100.00,0.00,3.80,3.80,7125.00,TARP,TARP,1875.00,0.00,0.00,0.00,6,0,0,Yes
 Zone Information, ALL_ST=HOTEL/MOTEL - LOBBY_FL=STORY 3_SCH=H,0.0,0.00,0.00,7.60,10.85,50.00,9.50,1,1,1,0.00,25.00,0.00,100.00,7.60,11.40,3.80,7125.00,TARP,TARP,1875.00,380.00,285.00,95.00,6,1,0,Yes
 Zone Information, ALL_ST=HWAY LODGING - DINING_FL=STORY 1_SCH=B,0.0,25.00,75.00,0.00,50.00,89.15,1.90,1,1,1,0.00,100.00,75.00,100.00,0.00,3.80,3.80,7125.00,TARP,TARP,1875.00,0.00,0.00,0.00,6,0,0,Yes
 Zone Information, ALL_ST=LAB - CLASSROOMS_FL=STORY 1_SCH=D,0.0,25.00,25.00,0.00,50.00,50.00,1.90,1,1,1,25.00,75.00,25.00,75.00,0.00,3.80,3.80,9500.00,TARP,TARP,2500.00,0.00,0.00,0.00,6,0,0,Yes
 Zone Information, ALL_ST=LAB - RESEARCH_FL=STORY 1_SCH=A,0.0,0.00,0.00,0.00,50.00,10.85,1.90,1,1,1,0.00,100.00,0.00,25.00,0.00,3.80,3.80,7125.00,TARP,TARP,1875.00,0.00,0.00,0.00,6,0,0,Yes
 Zone Information, ALL_ST=LIBRARY - CATALOGING_FL=STORY 2_SCH=C,0.0,25.00,75.00,3.80,50.00,89.15,5.70,1,1,1,0.00,100.00,75.00,100.00,3.80,7.60,3.80,7125.00,TARP,TARP,1875.00,380.00,285.00,95.00,6,1,0,Yes
 Zone Information, ALL_ST=LIBRARY - READING_FL=STORY 2_SCH=C,0.0,0.00,0.00,3.80,10.85,50.00,5.70,1,1,1,0.00,25.00,0.00,100.00,3.80,7.60,3.80,7125.00,TARP,TARP,1875.00,380.00,285.00,95.00,6,1,0,Yes
 Zone Information, ALL_ST=LIBRARY - STACKS_FL=STORY 2_SCH=C,0.0,75.00,25.00,3.80,89.15,50.00,5.70,1,1,1,75.00,100.00,0.00,100.00,3.80,7.60,3.80,7125.00,TARP,TARP,1875.00,380.00,285.00,95.00,6,1,0,Yes
 Zone Information, ALL_ST=LOBBY - ELEVATOR_FL=STORY 2_SCH=C,0.0,0.00,0.00,3.80,50.00,10.85,5.70,1,1,1,0.00,100.00,0.00,25.00,3.80,7.60,3.80,7125.00,TARP,TARP,1875.00,380.00,285.00,95.00,6,1,0,Yes
 Zone Information, DU_BT=SPACE FUNCTION_ST=HOTEL/MOTEL - ROOMS_FL=STORY 2_SCHF,0.0,25.00,25.00,3.80,50.00,50.00,5.70,1,1,1,25.00,75.00,25.00,75.00,3.80,7.60,3.80,9500.00,TARP,TARP,2500.00,0.00,0.00,0.00,6,0,0,Yes
 Zone Information, DU_BT=SPACE FUNCTION_ST=HWAY LODGING - ROOMS_FL=STORY 3_SCHF,0.0,0.00,0.00,7.60,50.00,10.85,9.50,1,1,1,0.00,100.00,0.00,25.00,7.60,11.40,3.80,7125.00,TARP,TARP,1875.00,380.00,285.00,95.00,6,1,0,Yes
! <Zone Internal Gains Nominal>,Zone Name, Floor Area {m2},# Occupants,Area per Occupant {m2/person},Occupant per Area {person/m2},Interior Lighting {W/m2},Electric Load {W/m2},Gas Load {W/m2},Other Load {W/m2},Hot Water Eq {W/m2},Steam Equipment {W/m2},Sum Loads per Area {W/m2},Outdoor Controlled Baseboard Heat
 Zone Internal Gains Nominal, ALL_ST=HOSPITAL - MEDICAL SUPPLY - OCCSENS_FL=STORY 4_SCH=H,2500.00,125.1,19.979,5.005E-002,12.330,1.000,0.000,0.000,0.000,0.000,13.330,No
 Zone Internal Gains Nominal, ALL_ST=HOSPITAL - NURSERY_FL=STORY 4_SCH=H,1875.00,93.8,19.979,5.005E-002,9.500,10.000,0.000,0.000,0.000,0.000,19.500,No
 Zone Internal Gains Nominal, ALL_ST=HOSPITAL - NURSES STATION_FL=STORY 4_SCH=H,1875.00,93.8,19.979,5.005E-002,9.400,2.500,0.000,0.000,0.000,0.000,11.900,No
 Zone Internal Gains Nominal, ALL_ST=HOSPITAL - OPERATING ROOM_FL=STORY 4_SCH=H,1875.00,93.8,19.979,5.005E-002,20.300,10.000,0.000,0.000,0.000,0.000,30.300,No
 Zone Internal Gains Nominal, ALL_ST=HOSPITAL - PATIENT ROOM_FL=STORY 3_SCH=H,2500.00,125.1,19.979,5.005E-002,6.700,10.000,0.000,0.000,0.000,0.000,16.700,No
 Zone Internal Gains Nominal, ALL_ST=HOSPITAL - PHARMACY_FL=STORY 4_SCH=C,1875.00,93.8,19.979,5.005E-002,12.300,2.500,0.000,0.000,0.000,0.000,14.800,No
 Zone Internal Gains Nominal, ALL_ST=HOSPITAL - PHYSICAL THERAPY_FL=STORY 3_SCH=C,1875.00,93.8,19.979,5.005E-002,9.800,10.000,0.000,0.000,0.000,0.000,19.800,No
 Zone Internal Gains Nominal, ALL_ST=HOSPITAL - RADIOLOGY/IMAGING_FL=STORY 3_SCH=H,1875.00,93.8,19.979,5.005E-002,14.200,10.000,0.000,0.000,0.000,0.000,24.200,No
 Zone Internal Gains Nominal, ALL_ST=HOSPITAL - RECOVERY_FL=STORY 1_SCH=H,1875.00,93.8,19.979,5.005E-002,12.400,10.000,0.000,0.000,0.000,0.000,22.400,No
 Zone Internal Gains Nominal, ALL_ST=HOTEL/MOTEL - DINING_FL=STORY 1_SCH=B,1875.00,187.5,10.000,10.000E-002,8.800,1.000,0.000,0.000,0.000,0.000,9.800,No
 Zone Internal Gains Nominal, ALL_ST=HOTEL/MOTEL - LOBBY_FL=STORY 3_SCH=H,1875.00,187.5,10.000,10.000E-002,11.400,2.500,0.000,0.000,0.000,0.000,13.900,No
 Zone Internal Gains Nominal, ALL_ST=HWAY LODGING - DINING_FL=STORY 1_SCH=B,1875.00,187.5,10.000,10.000E-002,9.500,1.000,0.000,0.000,0.000,0.000,10.500,No
 Zone Internal Gains Nominal, ALL_ST=LAB - CLASSROOMS_FL=STORY 1_SCH=D,2500.00,125.1,19.979,5.005E-002,17.200,10.000,0.000,0.000,0.000,0.000,27.200,No
 Zone Internal Gains Nominal, ALL_ST=LAB - RESEARCH_FL=STORY 1_SCH=A,1875.00,93.8,19.979,5.005E-002,23.600,10.000,0.000,0.000,0.000,0.000,33.600,No
 Zone Internal Gains Nominal, ALL_ST=LIBRARY - CATALOGING_FL=STORY 2_SCH=C,1875.00,93.8,19.979,5.005E-002,7.800,2.500,0.000,0.000,0.000,0.000,10.300,No
 Zone Internal Gains Nominal, ALL_ST=LIBRARY - READING_FL=STORY 2_SCH=C,1875.00,93.8,19.979,5.005E-002,10.000,1.000,0.000,0.000,0.000,0.000,11.000,No
 Zone Internal Gains Nominal, ALL_ST=LIBRARY - STACKS_FL=STORY 2_SCH=C,1875.00,93.8,19.979,5.005E-002,22.900,0.000,0.000,0.000,0.000,0.000,22.900,No
 Zone Internal Gains Nominal, ALL_ST=LOBBY - ELEVATOR_FL=STORY 2_SCH=C,1875.00,187.5,10.000,10.000E-002,6.900,1.000,0.000,0.000,0.000,0.000,7.900,No
 Zone Internal Gains Nominal, DU_BT=SPACE FUNCTION_ST=HOTEL/MOTEL - ROOMS_FL=STORY 2_SCHF,2500.00,100.1,24.974,4.004E-002,11.900,2.500,0.000,0.000,0.000,0.000,14.400,No
 Zone Internal Gains Nominal, DU_BT=SPACE FUNCTION_ST=HWAY LODGING - ROOMS_FL=STORY 3_SCHF,1875.00,75.1,24.974,4.004E-002,8.100,2.500,0.000,0.000,0.000,0.000,10.600,No
! <People Internal Gains Nominal>,Name,Schedule Name,Zone Name,Zone Floor Area {m2},# Zone Occupants,Number of People {},People/Floor Area {person/m2},Floor Area per person {m2/person},Fraction Radiant,Fraction Convected,Sensible Fraction Calculation,Activity level,ASHRAE 55 Warnings,Carbon Dioxide Generation Rate,Nominal Minimum Number of People,Nominal Maximum Number of People
 People Internal Gains Nominal, ALL_ST=HOSPITAL - MEDICAL SUPPLY - OCCSENS_FL=STORY 4_SCH=H SPACE FUNCTION HOSPITAL - MEDICAL SUPPLY - OCCSENS PEOPLE,NECB-H-OCCUPANCY,ALL_ST=HOSPITAL - MEDICAL SUPPLY - OCCSENS_FL=STORY 4_SCH=H,2500.00,125.1,125.1,5.005E-002,19.979,0.300,0.700,AutoCalculate,NECB-ACTIVITY,No,3.8200E-008,113,113
 People Internal Gains Nominal, ALL_ST=HOSPITAL - NURSERY_FL=STORY 4_SCH=H SPACE FUNCTION HOSPITAL - NURSERY PEOPLE,NECB-H-OCCUPANCY,ALL_ST=HOSPITAL - NURSERY_FL=STORY 4_SCH=H,1875.00,93.8,93.8,5.005E-002,19.979,0.300,0.700,AutoCalculate,NECB-ACTIVITY,No,3.8200E-008,84,84
 People Internal Gains Nominal, ALL_ST=HOSPITAL - NURSES STATION_FL=STORY 4_SCH=H SPACE FUNCTION HOSPITAL - NURSES STATION PEOPLE,NECB-H-OCCUPANCY,ALL_ST=HOSPITAL - NURSES STATION_FL=STORY 4_SCH=H,1875.00,93.8,93.8,5.005E-002,19.979,0.300,0.700,AutoCalculate,NECB-ACTIVITY,No,3.8200E-008,84,84
 People Internal Gains Nominal, ALL_ST=HOSPITAL - OPERATING ROOM_FL=STORY 4_SCH=H SPACE FUNCTION HOSPITAL - OPERATING ROOM PEOPLE,NECB-H-OCCUPANCY,ALL_ST=HOSPITAL - OPERATING ROOM_FL=STORY 4_SCH=H,1875.00,93.8,93.8,5.005E-002,19.979,0.300,0.700,AutoCalculate,NECB-ACTIVITY,No,3.8200E-008,84,84
 People Internal Gains Nominal, ALL_ST=HOSPITAL - PATIENT ROOM_FL=STORY 3_SCH=H SPACE FUNCTION HOSPITAL - PATIENT ROOM PEOPLE,NECB-H-OCCUPANCY,ALL_ST=HOSPITAL - PATIENT ROOM_FL=STORY 3_SCH=H,2500.00,125.1,125.1,5.005E-002,19.979,0.300,0.700,AutoCalculate,NECB-ACTIVITY,No,3.8200E-008,113,113
 People Internal Gains Nominal, ALL_ST=HOSPITAL - PHARMACY_FL=STORY 4_SCH=C SPACE FUNCTION HOSPITAL - PHARMACY PEOPLE,NECB-C-OCCUPANCY,ALL_ST=HOSPITAL - PHARMACY_FL=STORY 4_SCH=C,1875.00,93.8,93.8,5.005E-002,19.979,0.300,0.700,AutoCalculate,NECB-ACTIVITY,No,3.8200E-008,0,84
 People Internal Gains Nominal, ALL_ST=HOSPITAL - PHYSICAL THERAPY_FL=STORY 3_SCH=C SPACE FUNCTION HOSPITAL - PHYSICAL THERAPY PEOPLE,NECB-C-OCCUPANCY,ALL_ST=HOSPITAL - PHYSICAL THERAPY_FL=STORY 3_SCH=C,1875.00,93.8,93.8,5.005E-002,19.979,0.300,0.700,AutoCalculate,NECB-ACTIVITY,No,3.8200E-008,0,84
 People Internal Gains Nominal, ALL_ST=HOSPITAL - RADIOLOGY/IMAGING_FL=STORY 3_SCH=H SPACE FUNCTION HOSPITAL - RADIOLOGY/IMAGING PEOPLE,NECB-H-OCCUPANCY,ALL_ST=HOSPITAL - RADIOLOGY/IMAGING_FL=STORY 3_SCH=H,1875.00,93.8,93.8,5.005E-002,19.979,0.300,0.700,AutoCalculate,NECB-ACTIVITY,No,3.8200E-008,84,84
 People Internal Gains Nominal, ALL_ST=HOSPITAL - RECOVERY_FL=STORY 1_SCH=H SPACE FUNCTION HOSPITAL - RECOVERY PEOPLE,NECB-H-OCCUPANCY,ALL_ST=HOSPITAL - RECOVERY_FL=STORY 1_SCH=H,1875.00,93.8,93.8,5.005E-002,19.979,0.300,0.700,AutoCalculate,NECB-ACTIVITY,No,3.8200E-008,84,84
 People Internal Gains Nominal, ALL_ST=HOTEL/MOTEL - DINING_FL=STORY 1_SCH=B SPACE FUNCTION HOTEL/MOTEL - DINING PEOPLE,NECB-B-OCCUPANCY,ALL_ST=HOTEL/MOTEL - DINING_FL=STORY 1_SCH=B,1875.00,187.5,187.5,10.000E-002,10.000,0.300,0.700,AutoCalculate,NECB-ACTIVITY,No,3.8200E-008,0,169
 People Internal Gains Nominal, ALL_ST=HOTEL/MOTEL - LOBBY_FL=STORY 3_SCH=H SPACE FUNCTION HOTEL/MOTEL - LOBBY PEOPLE,NECB-H-OCCUPANCY,ALL_ST=HOTEL/MOTEL - LOBBY_FL=STORY 3_SCH=H,1875.00,187.5,187.5,10.000E-002,10.000,0.300,0.700,AutoCalculate,NECB-ACTIVITY,No,3.8200E-008,169,169
 People Internal Gains Nominal, DU_BT=SPACE FUNCTION_ST=HOTEL/MOTEL - ROOMS_FL=STORY 2_SCHF SPACE FUNCTION HOTEL/MOTEL - ROOMS PEOPLE,NECB-F-OCCUPANCY,DU_BT=SPACE FUNCTION_ST=HOTEL/MOTEL - ROOMS_FL=STORY 2_SCHF,2500.00,100.1,100.1,4.004E-002,24.974,0.300,0.700,AutoCalculate,NECB-ACTIVITY,No,3.8200E-008,20,90
 People Internal Gains Nominal, ALL_ST=HWAY LODGING - DINING_FL=STORY 1_SCH=B SPACE FUNCTION HWAY LODGING - DINING PEOPLE,NECB-B-OCCUPANCY,ALL_ST=HWAY LODGING - DINING_FL=STORY 1_SCH=B,1875.00,187.5,187.5,10.000E-002,10.000,0.300,0.700,AutoCalculate,NECB-ACTIVITY,No,3.8200E-008,0,169
 People Internal Gains Nominal, DU_BT=SPACE FUNCTION_ST=HWAY LODGING - ROOMS_FL=STORY 3_SCHF SPACE FUNCTION HWAY LODGING - ROOMS PEOPLE,NECB-F-OCCUPANCY,DU_BT=SPACE FUNCTION_ST=HWAY LODGING - ROOMS_FL=STORY 3_SCHF,1875.00,75.1,75.1,4.004E-002,24.974,0.300,0.700,AutoCalculate,NECB-ACTIVITY,No,3.8200E-008,15,68
 People Internal Gains Nominal, ALL_ST=LAB - CLASSROOMS_FL=STORY 1_SCH=D SPACE FUNCTION LAB - CLASSROOMS PEOPLE,NECB-D-OCCUPANCY,ALL_ST=LAB - CLASSROOMS_FL=STORY 1_SCH=D,2500.00,125.1,125.1,5.005E-002,19.979,0.300,0.700,AutoCalculate,NECB-ACTIVITY,No,3.8200E-008,0,113
 People Internal Gains Nominal, ALL_ST=LAB - RESEARCH_FL=STORY 1_SCH=A SPACE FUNCTION LAB - RESEARCH PEOPLE,NECB-A-OCCUPANCY,ALL_ST=LAB - RESEARCH_FL=STORY 1_SCH=A,1875.00,93.8,93.8,5.005E-002,19.979,0.300,0.700,AutoCalculate,NECB-ACTIVITY,No,3.8200E-008,0,84
 People Internal Gains Nominal, ALL_ST=LIBRARY - CATALOGING_FL=STORY 2_SCH=C SPACE FUNCTION LIBRARY - CATALOGING PEOPLE,NECB-C-OCCUPANCY,ALL_ST=LIBRARY - CATALOGING_FL=STORY 2_SCH=C,1875.00,93.8,93.8,5.005E-002,19.979,0.300,0.700,AutoCalculate,NECB-ACTIVITY,No,3.8200E-008,0,84
 People Internal Gains Nominal, ALL_ST=LIBRARY - READING_FL=STORY 2_SCH=C SPACE FUNCTION LIBRARY - READING PEOPLE,NECB-C-OCCUPANCY,ALL_ST=LIBRARY - READING_FL=STORY 2_SCH=C,1875.00,93.8,93.8,5.005E-002,19.979,0.300,0.700,AutoCalculate,NECB-ACTIVITY,No,3.8200E-008,0,84
 People Internal Gains Nominal, ALL_ST=LIBRARY - STACKS_FL=STORY 2_SCH=C SPACE FUNCTION LIBRARY - STACKS PEOPLE,NECB-C-OCCUPANCY,ALL_ST=LIBRARY - STACKS_FL=STORY 2_SCH=C,1875.00,93.8,93.8,5.005E-002,19.979,0.300,0.700,AutoCalculate,NECB-ACTIVITY,No,3.8200E-008,0,84
 People Internal Gains Nominal, ALL_ST=LOBBY - ELEVATOR_FL=STORY 2_SCH=C SPACE FUNCTION LOBBY - ELEVATOR PEOPLE,NECB-C-OCCUPANCY,ALL_ST=LOBBY - ELEVATOR_FL=STORY 2_SCH=C,1875.00,187.5,187.5,10.000E-002,10.000,0.300,0.700,AutoCalculate,NECB-ACTIVITY,No,3.8200E-008,0,169
! <Lights Internal Gains Nominal>,Name,Schedule Name,Zone Name,Zone Floor Area {m2},# Zone Occupants,Lighting Level {W},Lights/Floor Area {W/m2},Lights per person {W/person},Fraction Return Air,Fraction Radiant,Fraction Short Wave,Fraction Convected,Fraction Replaceable,End-Use Category,Nominal Minimum Lighting Level {W},Nominal Maximum Lighting Level {W}
 Lights Internal Gains Nominal, ALL_ST=HOSPITAL - MEDICAL SUPPLY - OCCSENS_FL=STORY 4_SCH=H SPACE FUNCTION HOSPITAL - MEDICAL SUPPLY - OCCSENS LIGHTS,NECB-H-LIGHTING,ALL_ST=HOSPITAL - MEDICAL SUPPLY - OCCSENS_FL=STORY 4_SCH=H,2500.00,125.1,30824.743,12.330,246.341,0.000,0.500,0.200,0.300,1.000,General,27742.269,27742.269
 Lights Internal Gains Nominal, ALL_ST=HOSPITAL - NURSERY_FL=STORY 4_SCH=H SPACE FUNCTION HOSPITAL - NURSERY LIGHTS,NECB-H-LIGHTING,ALL_ST=HOSPITAL - NURSERY_FL=STORY 4_SCH=H,1875.00,93.8,17812.352,9.500,189.800,0.000,0.500,0.200,0.300,1.000,General,16031.117,16031.117
 Lights Internal Gains Nominal, ALL_ST=HOSPITAL - NURSES STATION_FL=STORY 4_SCH=H SPACE FUNCTION HOSPITAL - NURSES STATION LIGHTS,NECB-H-LIGHTING,ALL_ST=HOSPITAL - NURSES STATION_FL=STORY 4_SCH=H,1875.00,93.8,17624.853,9.400,187.802,0.000,0.500,0.200,0.300,1.000,General,15862.368,15862.368
 Lights Internal Gains Nominal, ALL_ST=HOSPITAL - OPERATING ROOM_FL=STORY 4_SCH=H SPACE FUNCTION HOSPITAL - OPERATING ROOM LIGHTS,NECB-H-LIGHTING,ALL_ST=HOSPITAL - OPERATING ROOM_FL=STORY 4_SCH=H,1875.00,93.8,38062.183,20.300,405.573,0.000,0.500,0.200,0.300,1.000,General,34255.965,34255.965
 Lights Internal Gains Nominal, ALL_ST=HOSPITAL - PATIENT ROOM_FL=STORY 3_SCH=H SPACE FUNCTION HOSPITAL - PATIENT ROOM LIGHTS,NECB-H-LIGHTING,ALL_ST=HOSPITAL - PATIENT ROOM_FL=STORY 3_SCH=H,2500.00,125.1,16749.861,6.700,133.859,0.000,0.500,0.200,0.300,1.000,General,15074.875,15074.875
 Lights Internal Gains Nominal, ALL_ST=HOSPITAL - PHARMACY_FL=STORY 4_SCH=C SPACE FUNCTION HOSPITAL - PHARMACY LIGHTS,NECB-C-LIGHTING,ALL_ST=HOSPITAL - PHARMACY_FL=STORY 4_SCH=C,1875.00,93.8,23062.308,12.300,245.741,0.000,0.500,0.200,0.300,1.000,General,1153.115,20756.077
 Lights Internal Gains Nominal, ALL_ST=HOSPITAL - PHYSICAL THERAPY_FL=STORY 3_SCH=C SPACE FUNCTION HOSPITAL - PHYSICAL THERAPY LIGHTS,NECB-C-LIGHTING,ALL_ST=HOSPITAL - PHYSICAL THERAPY_FL=STORY 3_SCH=C,1875.00,93.8,18374.847,9.800,195.794,0.000,0.500,0.200,0.300,1.000,General,918.742,16537.362
 Lights Internal Gains Nominal, ALL_ST=HOSPITAL - RADIOLOGY/IMAGING_FL=STORY 3_SCH=H SPACE FUNCTION HOSPITAL - RADIOLOGY/IMAGING LIGHTS,NECB-H-LIGHTING,ALL_ST=HOSPITAL - RADIOLOGY/IMAGING_FL=STORY 3_SCH=H,1875.00,93.8,26624.778,14.200,283.702,0.000,0.500,0.200,0.300,1.000,General,23962.301,23962.301
 Lights Internal Gains Nominal, ALL_ST=HOSPITAL - RECOVERY_FL=STORY 1_SCH=H SPACE FUNCTION HOSPITAL - RECOVERY LIGHTS,NECB-H-LIGHTING,ALL_ST=HOSPITAL - RECOVERY_FL=STORY 1_SCH=H,1875.00,93.8,23249.807,12.400,247.739,0.000,0.500,0.200,0.300,1.000,General,20924.826,20924.826
 Lights Internal Gains Nominal, ALL_ST=HOTEL/MOTEL - DINING_FL=STORY 1_SCH=B SPACE FUNCTION HOTEL/MOTEL - DINING LIGHTS,NECB-B-LIGHTING,ALL_ST=HOTEL/MOTEL - DINING_FL=STORY 1_SCH=B,1875.00,187.5,16499.863,8.800,88.002,0.000,0.500,0.200,0.300,1.000,General,1649.986,14849.876
 Lights Internal Gains Nominal, ALL_ST=HOTEL/MOTEL - LOBBY_FL=STORY 3_SCH=H SPACE FUNCTION HOTEL/MOTEL - LOBBY LIGHTS,NECB-H-LIGHTING,ALL_ST=HOTEL/MOTEL - LOBBY_FL=STORY 3_SCH=H,1875.00,187.5,21374.822,11.400,114.003,0.000,0.500,0.200,0.300,1.000,General,19237.340,19237.340
 Lights Internal Gains Nominal, DU_BT=SPACE FUNCTION_ST=HOTEL/MOTEL - ROOMS_FL=STORY 2_SCHF SPACE FUNCTION HOTEL/MOTEL - ROOMS LIGHTS,NECB-F-LIGHTING,DU_BT=SPACE FUNCTION_ST=HOTEL/MOTEL - ROOMS_FL=STORY 2_SCHF,2500.00,100.1,29749.752,11.900,297.187,0.000,0.500,0.200,0.300,1.000,General,2974.975,26774.777
 Lights Internal Gains Nominal, ALL_ST=HWAY LODGING - DINING_FL=STORY 1_SCH=B SPACE FUNCTION HWAY LODGING - DINING LIGHTS,NECB-B-LIGHTING,ALL_ST=HWAY LODGING - DINING_FL=STORY 1_SCH=B,1875.00,187.5,17812.352,9.500,95.002,0.000,0.500,0.200,0.300,1.000,General,1781.235,16031.117
 Lights Internal Gains Nominal, DU_BT=SPACE FUNCTION_ST=HWAY LODGING - ROOMS_FL=STORY 3_SCHF SPACE FUNCTION HWAY LODGING - ROOMS LIGHTS,NECB-F-LIGHTING,DU_BT=SPACE FUNCTION_ST=HWAY LODGING - ROOMS_FL=STORY 3_SCHF,1875.00,75.1,15187.374,8.100,202.287,0.000,0.500,0.200,0.300,1.000,General,1518.737,13668.636
 Lights Internal Gains Nominal, ALL_ST=LAB - CLASSROOMS_FL=STORY 1_SCH=D SPACE FUNCTION LAB - CLASSROOMS LIGHTS,NECB-D-LIGHTING,ALL_ST=LAB - CLASSROOMS_FL=STORY 1_SCH=D,2500.00,125.1,42999.642,17.200,343.638,0.000,0.500,0.200,0.300,1.000,General,2149.982,38699.678
 Lights Internal Gains Nominal, ALL_ST=LAB - RESEARCH_FL=STORY 1_SCH=A SPACE FUNCTION LAB - RESEARCH LIGHTS,NECB-A-LIGHTING,ALL_ST=LAB - RESEARCH_FL=STORY 1_SCH=A,1875.00,93.8,44249.632,23.600,471.504,0.000,0.500,0.200,0.300,1.000,General,2212.482,39824.669
 Lights Internal Gains Nominal, ALL_ST=LIBRARY - CATALOGING_FL=STORY 2_SCH=C SPACE FUNCTION LIBRARY - CATALOGING LIGHTS,NECB-C-LIGHTING,ALL_ST=LIBRARY - CATALOGING_FL=STORY 2_SCH=C,1875.00,93.8,14624.878,7.800,155.836,0.000,0.500,0.200,0.300,1.000,General,731.244,13162.390
 Lights Internal Gains Nominal, ALL_ST=LIBRARY - READING_FL=STORY 2_SCH=C SPACE FUNCTION LIBRARY - READING LIGHTS,NECB-C-LIGHTING,ALL_ST=LIBRARY - READING_FL=STORY 2_SCH=C,1875.00,93.8,18749.844,10.000,199.790,0.000,0.500,0.200,0.300,1.000,General,937.492,16874.860
 Lights Internal Gains Nominal, ALL_ST=LIBRARY - STACKS_FL=STORY 2_SCH=C SPACE FUNCTION LIBRARY - STACKS LIGHTS,NECB-C-LIGHTING,ALL_ST=LIBRARY - STACKS_FL=STORY 2_SCH=C,1875.00,93.8,42937.143,22.900,457.519,0.000,0.500,0.200,0.300,1.000,General,2146.857,38643.428
 Lights Internal Gains Nominal, ALL_ST=LOBBY - ELEVATOR_FL=STORY 2_SCH=C SPACE FUNCTION LOBBY - ELEVATOR LIGHTS,NECB-C-LIGHTING,ALL_ST=LOBBY - ELEVATOR_FL=STORY 2_SCH=C,1875.00,187.5,12937.392,6.900,69.002,0.000,0.500,0.200,0.300,1.000,General,646.870,11643.653
! <ElectricEquipment Internal Gains Nominal>,Name,Schedule Name,Zone Name,Zone Floor Area {m2},# Zone Occupants,Equipment Level {W},Equipment/Floor Area {W/m2},Equipment per person {W/person},Fraction Latent,Fraction Radiant,Fraction Lost,Fraction Convected,End-Use SubCategory,Nominal Minimum Equipment Level {W},Nominal Maximum Equipment Level {W}
 ElectricEquipment Internal Gains Nominal, ALL_ST=HOSPITAL - MEDICAL SUPPLY - OCCSENS_FL=STORY 4_SCH=H SPACE FUNCTION HOSPITAL - MEDICAL SUPPLY - OCCSENS ELEC EQUIP,NECB-H-ELECTRIC-EQUIPMENT,ALL_ST=HOSPITAL - MEDICAL SUPPLY - OCCSENS_FL=STORY 4_SCH=H,2500.00,125.1,2499.979,1.000,19.979,0.000,0.500,0.000,0.500,General,2249.981,2249.981
 ElectricEquipment Internal Gains Nominal, ALL_ST=HOSPITAL - NURSERY_FL=STORY 4_SCH=H SPACE FUNCTION HOSPITAL - NURSERY ELEC EQUIP,NECB-H-ELECTRIC-EQUIPMENT,ALL_ST=HOSPITAL - NURSERY_FL=STORY 4_SCH=H,1875.00,93.8,18749.844,10.000,199.790,0.000,0.500,0.000,0.500,General,16874.860,16874.860
 ElectricEquipment Internal Gains Nominal, ALL_ST=HOSPITAL - NURSES STATION_FL=STORY 4_SCH=H SPACE FUNCTION HOSPITAL - NURSES STATION ELEC EQUIP,NECB-H-ELECTRIC-EQUIPMENT,ALL_ST=HOSPITAL - NURSES STATION_FL=STORY 4_SCH=H,1875.00,93.8,4687.461,2.500,49.947,0.000,0.500,0.000,0.500,General,4218.715,4218.715
 ElectricEquipment Internal Gains Nominal, ALL_ST=HOSPITAL - OPERATING ROOM_FL=STORY 4_SCH=H SPACE FUNCTION HOSPITAL - OPERATING ROOM ELEC EQUIP,NECB-H-ELECTRIC-EQUIPMENT,ALL_ST=HOSPITAL - OPERATING ROOM_FL=STORY 4_SCH=H,1875.00,93.8,18749.844,10.000,199.790,0.000,0.500,0.000,0.500,General,16874.860,16874.860
 ElectricEquipment Internal Gains Nominal, ALL_ST=HOSPITAL - PATIENT ROOM_FL=STORY 3_SCH=H SPACE FUNCTION HOSPITAL - PATIENT ROOM ELEC EQUIP,NECB-H-ELECTRIC-EQUIPMENT,ALL_ST=HOSPITAL - PATIENT ROOM_FL=STORY 3_SCH=H,2500.00,125.1,24999.792,10.000,199.790,0.000,0.500,0.000,0.500,General,22499.813,22499.813
 ElectricEquipment Internal Gains Nominal, ALL_ST=HOSPITAL - PHARMACY_FL=STORY 4_SCH=C SPACE FUNCTION HOSPITAL - PHARMACY ELEC EQUIP,NECB-C-ELECTRIC-EQUIPMENT,ALL_ST=HOSPITAL - PHARMACY_FL=STORY 4_SCH=C,1875.00,93.8,4687.461,2.500,49.947,0.000,0.500,0.000,0.500,General,234.373,4218.715
 ElectricEquipment Internal Gains Nominal, ALL_ST=HOSPITAL - PHYSICAL THERAPY_FL=STORY 3_SCH=C SPACE FUNCTION HOSPITAL - PHYSICAL THERAPY ELEC EQUIP,NECB-C-ELECTRIC-EQUIPMENT,ALL_ST=HOSPITAL - PHYSICAL THERAPY_FL=STORY 3_SCH=C,1875.00,93.8,18749.844,10.000,199.790,0.000,0.500,0.000,0.500,General,937.492,16874.860
 ElectricEquipment Internal Gains Nominal, ALL_ST=HOSPITAL - RADIOLOGY/IMAGING_FL=STORY 3_SCH=H SPACE FUNCTION HOSPITAL - RADIOLOGY/IMAGING ELEC EQUIP,NECB-H-ELECTRIC-EQUIPMENT,ALL_ST=HOSPITAL - RADIOLOGY/IMAGING_FL=STORY 3_SCH=H,1875.00,93.8,18749.844,10.000,199.790,0.000,0.500,0.000,0.500,General,16874.860,16874.860
 ElectricEquipment Internal Gains Nominal, ALL_ST=HOSPITAL - RECOVERY_FL=STORY 1_SCH=H SPACE FUNCTION HOSPITAL - RECOVERY ELEC EQUIP,NECB-H-ELECTRIC-EQUIPMENT,ALL_ST=HOSPITAL - RECOVERY_FL=STORY 1_SCH=H,1875.00,93.8,18749.844,10.000,199.790,0.000,0.500,0.000,0.500,General,16874.860,16874.860
 ElectricEquipment Internal Gains Nominal, ALL_ST=HOTEL/MOTEL - DINING_FL=STORY 1_SCH=B SPACE FUNCTION HOTEL/MOTEL - DINING ELEC EQUIP,NECB-B-ELECTRIC-EQUIPMENT,ALL_ST=HOTEL/MOTEL - DINING_FL=STORY 1_SCH=B,1875.00,187.5,1874.984,1.000,10.000,0.000,0.500,0.000,0.500,General,187.498,1687.486
 ElectricEquipment Internal Gains Nominal, ALL_ST=HOTEL/MOTEL - LOBBY_FL=STORY 3_SCH=H SPACE FUNCTION HOTEL/MOTEL - LOBBY ELEC EQUIP,NECB-H-ELECTRIC-EQUIPMENT,ALL_ST=HOTEL/MOTEL - LOBBY_FL=STORY 3_SCH=H,1875.00,187.5,4687.461,2.500,25.001,0.000,0.500,0.000,0.500,General,4218.715,4218.715
 ElectricEquipment Internal Gains Nominal, DU_BT=SPACE FUNCTION_ST=HOTEL/MOTEL - ROOMS_FL=STORY 2_SCHF SPACE FUNCTION HOTEL/MOTEL - ROOMS ELEC EQUIP,NECB-F-ELECTRIC-EQUIPMENT,DU_BT=SPACE FUNCTION_ST=HOTEL/MOTEL - ROOMS_FL=STORY 2_SCHF,2500.00,100.1,6249.948,2.500,62.434,0.000,0.500,0.000,0.500,General,624.995,5624.953
 ElectricEquipment Internal Gains Nominal, ALL_ST=HWAY LODGING - DINING_FL=STORY 1_SCH=B SPACE FUNCTION HWAY LODGING - DINING ELEC EQUIP,NECB-B-ELECTRIC-EQUIPMENT,ALL_ST=HWAY LODGING - DINING_FL=STORY 1_SCH=B,1875.00,187.5,1874.984,1.000,10.000,0.000,0.500,0.000,0.500,General,187.498,1687.486
 ElectricEquipment Internal Gains Nominal, DU_BT=SPACE FUNCTION_ST=HWAY LODGING - ROOMS_FL=STORY 3_SCHF SPACE FUNCTION HWAY LODGING - ROOMS ELEC EQUIP,NECB-F-ELECTRIC-EQUIPMENT,DU_BT=SPACE FUNCTION_ST=HWAY LODGING - ROOMS_FL=STORY 3_SCHF,1875.00,75.1,4687.461,2.500,62.434,0.000,0.500,0.000,0.500,General,468.746,4218.715
 ElectricEquipment Internal Gains Nominal, ALL_ST=LAB - CLASSROOMS_FL=STORY 1_SCH=D SPACE FUNCTION LAB - CLASSROOMS ELEC EQUIP,NECB-D-ELECTRIC-EQUIPMENT,ALL_ST=LAB - CLASSROOMS_FL=STORY 1_SCH=D,2500.00,125.1,24999.792,10.000,199.790,0.000,0.500,0.000,0.500,General,1249.990,22499.813
 ElectricEquipment Internal Gains Nominal, ALL_ST=LAB - RESEARCH_FL=STORY 1_SCH=A SPACE FUNCTION LAB - RESEARCH ELEC EQUIP,NECB-A-ELECTRIC-EQUIPMENT,ALL_ST=LAB - RESEARCH_FL=STORY 1_SCH=A,1875.00,93.8,18749.844,10.000,199.790,0.000,0.500,0.000,0.500,General,3749.969,16874.860
 ElectricEquipment Internal Gains Nominal, ALL_ST=LIBRARY - CATALOGING_FL=STORY 2_SCH=C SPACE FUNCTION LIBRARY - CATALOGING ELEC EQUIP,NECB-C-ELECTRIC-EQUIPMENT,ALL_ST=LIBRARY - CATALOGING_FL=STORY 2_SCH=C,1875.00,93.8,4687.461,2.500,49.947,0.000,0.500,0.000,0.500,General,234.373,4218.715
 ElectricEquipment Internal Gains Nominal, ALL_ST=LIBRARY - READING_FL=STORY 2_SCH=C SPACE FUNCTION LIBRARY - READING ELEC EQUIP,NECB-C-ELECTRIC-EQUIPMENT,ALL_ST=LIBRARY - READING_FL=STORY 2_SCH=C,1875.00,93.8,1874.984,1.000,19.979,0.000,0.500,0.000,0.500,General,93.749,1687.486
 ElectricEquipment Internal Gains Nominal, ALL_ST=LOBBY - ELEVATOR_FL=STORY 2_SCH=C SPACE FUNCTION LOBBY - ELEVATOR ELEC EQUIP,NECB-C-ELECTRIC-EQUIPMENT,ALL_ST=LOBBY - ELEVATOR_FL=STORY 2_SCH=C,1875.00,187.5,1874.984,1.000,10.000,0.000,0.500,0.000,0.500,General,93.749,1687.486
! <Shadowing/Sun Position Calculations Annual Simulations>, Calculation Method, Value {days}, Allowable Number Figures in Shadow Overlap {}, Polygon Clipping Algorithm, Sky Diffuse Modeling Algorithm, External Shading Calculation Method, Output External Shading Calculation Results, Disable Self-Shading Within Shading Zone Groups, Disable Self-Shading From Shading Zone Groups to Other Zones
Shadowing/Sun Position Calculations Annual Simulations,AverageOverDaysInFrequency,20,15000,SutherlandHodgman,SimpleSkyDiffuseModeling,InternalCalculation,No,No,No
! <Water Heater Information>,Type,Name,Volume {m3},Maximum Capacity {W},Standard Rated Recovery Efficiency, Standard Rated Energy Factor
! <ZoneInfiltration Airflow Stats Nominal>,Name,Schedule Name,Zone Name, Zone Floor Area {m2}, # Zone Occupants,Design Volume Flow Rate {m3/s},Volume Flow Rate/Floor Area {m3/s/m2},Volume Flow Rate/Exterior Surface Area {m3/s/m2},ACH - Air Changes per Hour,Equation A - Constant Term Coefficient {},Equation B - Temperature Term Coefficient {1/C},Equation C - Velocity Term Coefficient {s/m}, Equation D - Velocity Squared Term Coefficient {s2/m2}
 ZoneInfiltration Airflow Stats Nominal, HOSPITAL - MEDICAL SUPPLY - OCCSENS-SPACE FUNCTION INFILTRATION,ALWAYS ON DISCRETE,ALL_ST=HOSPITAL - MEDICAL SUPPLY - OCCSENS_FL=STORY 4_SCH=H,2500.00,125.1,0.625,2.500E-004,2.500E-004,0.237,0.000,0.000,0.224,0.000
 ZoneInfiltration Airflow Stats Nominal, HOSPITAL - NURSERY-SPACE FUNCTION INFILTRATION,ALWAYS ON DISCRETE,ALL_ST=HOSPITAL - NURSERY_FL=STORY 4_SCH=H,1875.00,93.8,0.564,3.007E-004,2.500E-004,0.285,0.000,0.000,0.224,0.000
 ZoneInfiltration Airflow Stats Nominal, HOSPITAL - NURSES STATION-SPACE FUNCTION INFILTRATION,ALWAYS ON DISCRETE,ALL_ST=HOSPITAL - NURSES STATION_FL=STORY 4_SCH=H,1875.00,93.8,0.564,3.007E-004,2.500E-004,0.285,0.000,0.000,0.224,0.000
 ZoneInfiltration Airflow Stats Nominal, HOSPITAL - OPERATING ROOM-SPACE FUNCTION INFILTRATION,ALWAYS ON DISCRETE,ALL_ST=HOSPITAL - OPERATING ROOM_FL=STORY 4_SCH=H,1875.00,93.8,0.564,3.007E-004,2.500E-004,0.285,0.000,0.000,0.224,0.000
 ZoneInfiltration Airflow Stats Nominal, HOSPITAL - PHARMACY-SPACE FUNCTION INFILTRATION,ALWAYS ON DISCRETE,ALL_ST=HOSPITAL - PHARMACY_FL=STORY 4_SCH=C,1875.00,93.8,0.564,3.007E-004,2.500E-004,0.285,0.000,0.000,0.224,0.000
 ZoneInfiltration Airflow Stats Nominal, HOSPITAL - PHYSICAL THERAPY-SPACE FUNCTION INFILTRATION,ALWAYS ON DISCRETE,ALL_ST=HOSPITAL - PHYSICAL THERAPY_FL=STORY 3_SCH=C,1875.00,93.8,9.500E-002,5.067E-005,2.500E-004,4.800E-002,0.000,0.000,0.224,0.000
 ZoneInfiltration Airflow Stats Nominal, HOSPITAL - RADIOLOGY/IMAGING-SPACE FUNCTION INFILTRATION,ALWAYS ON DISCRETE,ALL_ST=HOSPITAL - RADIOLOGY/IMAGING_FL=STORY 3_SCH=H,1875.00,93.8,9.500E-002,5.067E-005,2.500E-004,4.800E-002,0.000,0.000,0.224,0.000
 ZoneInfiltration Airflow Stats Nominal, HOTEL/MOTEL - LOBBY-SPACE FUNCTION INFILTRATION,ALWAYS ON DISCRETE,ALL_ST=HOTEL/MOTEL - LOBBY_FL=STORY 3_SCH=H,1875.00,187.5,9.500E-002,5.067E-005,2.500E-004,4.800E-002,0.000,0.000,0.224,0.000
 ZoneInfiltration Airflow Stats Nominal, LIBRARY - CATALOGING-SPACE FUNCTION INFILTRATION,ALWAYS ON DISCRETE,ALL_ST=LIBRARY - CATALOGING_FL=STORY 2_SCH=C,1875.00,93.8,9.500E-002,5.067E-005,2.500E-004,4.800E-002,0.000,0.000,0.224,0.000
 ZoneInfiltration Airflow Stats Nominal, LIBRARY - READING-SPACE FUNCTION INFILTRATION,ALWAYS ON DISCRETE,ALL_ST=LIBRARY - READING_FL=STORY 2_SCH=C,1875.00,93.8,9.500E-002,5.067E-005,2.500E-004,4.800E-002,0.000,0.000,0.224,0.000
 ZoneInfiltration Airflow Stats Nominal, LIBRARY - STACKS-SPACE FUNCTION INFILTRATION,ALWAYS ON DISCRETE,ALL_ST=LIBRARY - STACKS_FL=STORY 2_SCH=C,1875.00,93.8,9.500E-002,5.067E-005,2.500E-004,4.800E-002,0.000,0.000,0.224,0.000
 ZoneInfiltration Airflow Stats Nominal, LOBBY - ELEVATOR-SPACE FUNCTION INFILTRATION,ALWAYS ON DISCRETE,ALL_ST=LOBBY - ELEVATOR_FL=STORY 2_SCH=C,1875.00,187.5,9.500E-002,5.067E-005,2.500E-004,4.800E-002,0.000,0.000,0.224,0.000
 ZoneInfiltration Airflow Stats Nominal, HWAY LODGING - ROOMS-SPACE FUNCTION INFILTRATION,ALWAYS ON DISCRETE,DU_BT=SPACE FUNCTION_ST=HWAY LODGING - ROOMS_FL=STORY 3_SCHF,1875.00,75.1,9.500E-002,5.067E-005,2.500E-004,4.800E-002,0.000,0.000,0.224,0.000
! <AirFlow Model>, Simple
 AirFlow Model, Simple
! <RoomAir Model>, Zone Name, Mixing/Mundt/UCSDDV/UCSDCV/UCSDUFI/UCSDUFE/User Defined
RoomAir Model,ALL_ST=HOSPITAL - MEDICAL SUPPLY - OCCSENS_FL=STORY 4_SCH=H,Mixing/Well-Stirred
RoomAir Model,ALL_ST=HOSPITAL - NURSERY_FL=STORY 4_SCH=H,Mixing/Well-Stirred
RoomAir Model,ALL_ST=HOSPITAL - NURSES STATION_FL=STORY 4_SCH=H,Mixing/Well-Stirred
RoomAir Model,ALL_ST=HOSPITAL - OPERATING ROOM_FL=STORY 4_SCH=H,Mixing/Well-Stirred
RoomAir Model,ALL_ST=HOSPITAL - PATIENT ROOM_FL=STORY 3_SCH=H,Mixing/Well-Stirred
RoomAir Model,ALL_ST=HOSPITAL - PHARMACY_FL=STORY 4_SCH=C,Mixing/Well-Stirred
RoomAir Model,ALL_ST=HOSPITAL - PHYSICAL THERAPY_FL=STORY 3_SCH=C,Mixing/Well-Stirred
RoomAir Model,ALL_ST=HOSPITAL - RADIOLOGY/IMAGING_FL=STORY 3_SCH=H,Mixing/Well-Stirred
RoomAir Model,ALL_ST=HOSPITAL - RECOVERY_FL=STORY 1_SCH=H,Mixing/Well-Stirred
RoomAir Model,ALL_ST=HOTEL/MOTEL - DINING_FL=STORY 1_SCH=B,Mixing/Well-Stirred
RoomAir Model,ALL_ST=HOTEL/MOTEL - LOBBY_FL=STORY 3_SCH=H,Mixing/Well-Stirred
RoomAir Model,ALL_ST=HWAY LODGING - DINING_FL=STORY 1_SCH=B,Mixing/Well-Stirred
RoomAir Model,ALL_ST=LAB - CLASSROOMS_FL=STORY 1_SCH=D,Mixing/Well-Stirred
RoomAir Model,ALL_ST=LAB - RESEARCH_FL=STORY 1_SCH=A,Mixing/Well-Stirred
RoomAir Model,ALL_ST=LIBRARY - CATALOGING_FL=STORY 2_SCH=C,Mixing/Well-Stirred
RoomAir Model,ALL_ST=LIBRARY - READING_FL=STORY 2_SCH=C,Mixing/Well-Stirred
RoomAir Model,ALL_ST=LIBRARY - STACKS_FL=STORY 2_SCH=C,Mixing/Well-Stirred
RoomAir Model,ALL_ST=LOBBY - ELEVATOR_FL=STORY 2_SCH=C,Mixing/Well-Stirred
RoomAir Model,DU_BT=SPACE FUNCTION_ST=HOTEL/MOTEL - ROOMS_FL=STORY 2_SCHF,Mixing/Well-Stirred
RoomAir Model,DU_BT=SPACE FUNCTION_ST=HWAY LODGING - ROOMS_FL=STORY 3_SCHF,Mixing/Well-Stirred
! <AirflowNetwork Model:Control>, No Multizone or Distribution/Multizone with Distribution/Multizone without Distribution/Multizone with Distribution only during Fan Operation
AirflowNetwork Model:Control,NoMultizoneOrDistribution
! <Zone Volume Capacitance Multiplier>, Sensible Heat Capacity Multiplier, Moisture Capacity Multiplier, Carbon Dioxide Capacity Multiplier, Generic Contaminant Capacity Multiplier
Zone Volume Capacitance Multiplier,   1.000 ,   1.000,   1.000,   1.000
! <Load Timesteps in Zone Design Calculation Averaging Window>, Value
 Load Timesteps in Zone Design Calculation Averaging Window,    6
! <Heating Sizing Factor Information>, Sizing Factor ID, Value
 Heating Sizing Factor Information, Global,   1.3000    
 Heating Sizing Factor Information, Zone ALL_ST=HOSPITAL - MEDICAL SUPPLY - OCCSENS_FL=STORY 4_SCH=H,   1.3000    
 Heating Sizing Factor Information, Zone ALL_ST=HOSPITAL - NURSERY_FL=STORY 4_SCH=H,   1.3000    
 Heating Sizing Factor Information, Zone ALL_ST=HOSPITAL - NURSES STATION_FL=STORY 4_SCH=H,   1.3000    
 Heating Sizing Factor Information, Zone ALL_ST=HOSPITAL - OPERATING ROOM_FL=STORY 4_SCH=H,   1.3000    
 Heating Sizing Factor Information, Zone ALL_ST=HOSPITAL - PATIENT ROOM_FL=STORY 3_SCH=H,   1.3000    
 Heating Sizing Factor Information, Zone ALL_ST=HOSPITAL - PHARMACY_FL=STORY 4_SCH=C,   1.3000    
 Heating Sizing Factor Information, Zone ALL_ST=HOSPITAL - PHYSICAL THERAPY_FL=STORY 3_SCH=C,   1.3000    
 Heating Sizing Factor Information, Zone ALL_ST=HOSPITAL - RADIOLOGY/IMAGING_FL=STORY 3_SCH=H,   1.3000    
 Heating Sizing Factor Information, Zone ALL_ST=HOSPITAL - RECOVERY_FL=STORY 1_SCH=H,   1.3000    
 Heating Sizing Factor Information, Zone ALL_ST=HOTEL/MOTEL - DINING_FL=STORY 1_SCH=B,   1.3000    
 Heating Sizing Factor Information, Zone ALL_ST=HOTEL/MOTEL - LOBBY_FL=STORY 3_SCH=H,   1.3000    
 Heating Sizing Factor Information, Zone ALL_ST=HWAY LODGING - DINING_FL=STORY 1_SCH=B,   1.3000    
 Heating Sizing Factor Information, Zone ALL_ST=LAB - CLASSROOMS_FL=STORY 1_SCH=D,   1.3000    
 Heating Sizing Factor Information, Zone ALL_ST=LAB - RESEARCH_FL=STORY 1_SCH=A,   1.3000    
 Heating Sizing Factor Information, Zone ALL_ST=LIBRARY - CATALOGING_FL=STORY 2_SCH=C,   1.3000    
 Heating Sizing Factor Information, Zone ALL_ST=LIBRARY - READING_FL=STORY 2_SCH=C,   1.3000    
 Heating Sizing Factor Information, Zone ALL_ST=LIBRARY - STACKS_FL=STORY 2_SCH=C,   1.3000    
 Heating Sizing Factor Information, Zone ALL_ST=LOBBY - ELEVATOR_FL=STORY 2_SCH=C,   1.3000    
 Heating Sizing Factor Information, Zone DU_BT=SPACE FUNCTION_ST=HOTEL/MOTEL - ROOMS_FL=STORY 2_SCHF,   1.3000    
 Heating Sizing Factor Information, Zone DU_BT=SPACE FUNCTION_ST=HWAY LODGING - ROOMS_FL=STORY 3_SCHF,   1.3000    
! <Cooling Sizing Factor Information>, Sizing Factor ID, Value
 Cooling Sizing Factor Information, Global,   1.1000    
 Cooling Sizing Factor Information, Zone ALL_ST=HOSPITAL - MEDICAL SUPPLY - OCCSENS_FL=STORY 4_SCH=H,   1.1000    
 Cooling Sizing Factor Information, Zone ALL_ST=HOSPITAL - NURSERY_FL=STORY 4_SCH=H,   1.1000    
 Cooling Sizing Factor Information, Zone ALL_ST=HOSPITAL - NURSES STATION_FL=STORY 4_SCH=H,   1.1000    
 Cooling Sizing Factor Information, Zone ALL_ST=HOSPITAL - OPERATING ROOM_FL=STORY 4_SCH=H,   1.1000    
 Cooling Sizing Factor Information, Zone ALL_ST=HOSPITAL - PATIENT ROOM_FL=STORY 3_SCH=H,   1.1000    
 Cooling Sizing Factor Information, Zone ALL_ST=HOSPITAL - PHARMACY_FL=STORY 4_SCH=C,   1.1000    
 Cooling Sizing Factor Information, Zone ALL_ST=HOSPITAL - PHYSICAL THERAPY_FL=STORY 3_SCH=C,   1.1000    
 Cooling Sizing Factor Information, Zone ALL_ST=HOSPITAL - RADIOLOGY/IMAGING_FL=STORY 3_SCH=H,   1.1000    
 Cooling Sizing Factor Information, Zone ALL_ST=HOSPITAL - RECOVERY_FL=STORY 1_SCH=H,   1.1000    
 Cooling Sizing Factor Information, Zone ALL_ST=HOTEL/MOTEL - DINING_FL=STORY 1_SCH=B,   1.1000    
 Cooling Sizing Factor Information, Zone ALL_ST=HOTEL/MOTEL - LOBBY_FL=STORY 3_SCH=H,   1.1000    
 Cooling Sizing Factor Information, Zone ALL_ST=HWAY LODGING - DINING_FL=STORY 1_SCH=B,   1.1000    
 Cooling Sizing Factor Information, Zone ALL_ST=LAB - CLASSROOMS_FL=STORY 1_SCH=D,   1.1000    
 Cooling Sizing Factor Information, Zone ALL_ST=LAB - RESEARCH_FL=STORY 1_SCH=A,   1.1000    
 Cooling Sizing Factor Information, Zone ALL_ST=LIBRARY - CATALOGING_FL=STORY 2_SCH=C,   1.1000    
 Cooling Sizing Factor Information, Zone ALL_ST=LIBRARY - READING_FL=STORY 2_SCH=C,   1.1000    
 Cooling Sizing Factor Information, Zone ALL_ST=LIBRARY - STACKS_FL=STORY 2_SCH=C,   1.1000    
 Cooling Sizing Factor Information, Zone ALL_ST=LOBBY - ELEVATOR_FL=STORY 2_SCH=C,   1.1000    
 Cooling Sizing Factor Information, Zone DU_BT=SPACE FUNCTION_ST=HOTEL/MOTEL - ROOMS_FL=STORY 2_SCHF,   1.1000    
 Cooling Sizing Factor Information, Zone DU_BT=SPACE FUNCTION_ST=HWAY LODGING - ROOMS_FL=STORY 3_SCHF,   1.1000    
! <Zone Sizing Information>, Zone Name, Load Type, Calc Des Load {W}, User Des Load {W}, Calc Des Air Flow Rate {m3/s}, User Des Air Flow Rate {m3/s}, Design Day Name, Date/Time of Peak, Temperature at Peak {C}, Humidity Ratio at Peak {kgWater/kgDryAir}, Floor Area {m2}, # Occupants, Calc Outdoor Air Flow Rate {m3/s}, Calc DOAS Heat Addition Rate {W}
 Zone Sizing Information, ALL_ST=HOSPITAL - MEDICAL SUPPLY - OCCSENS_FL=STORY 4_SCH=H, Cooling, 85695.13882, 94264.65270, 6.62344, 7.28578, FORT MCMURRAY AP ANN CLG .4% CONDNS DB=>MWB, 7/21 13:40:00, 28.69333, 8.76969E-003, 2500.00000, 125.13046, 3.81000, 0.00000
 Zone Sizing Information, ALL_ST=HOSPITAL - MEDICAL SUPPLY - OCCSENS_FL=STORY 4_SCH=H, Heating, 0.00000, 0.00000, 0.00000, 3.81000, FORT MCMURRAY AP ANN HTG 99.6% CONDNS DB, , -36.20000, 1.25811E-004, 2500.00000, 125.13046, 3.81000, 0.00000
 Zone Sizing Information, ALL_ST=HOSPITAL - NURSERY_FL=STORY 4_SCH=H, Cooling, 92675.46360, 101943.00996, 7.16294, 7.87923, FORT MCMURRAY AP ANN CLG .4% CONDNS DB=>MWB, 7/21 13:30:00, 28.59000, 8.76969E-003, 1875.00000, 93.84784, 2.85750, 0.00000
 Zone Sizing Information, ALL_ST=HOSPITAL - NURSERY_FL=STORY 4_SCH=H, Heating, 18810.45174, 24453.58726, 0.73197, 2.85750, FORT MCMURRAY AP ANN HTG 99.6% CONDNS DB, 1/21 09:00:00, -36.20000, 1.25811E-004, 1875.00000, 93.84784, 2.85750, 0.00000
 Zone Sizing Information, ALL_ST=HOSPITAL - NURSES STATION_FL=STORY 4_SCH=H, Cooling, 68941.63387, 75835.79725, 5.32854, 5.86139, FORT MCMURRAY AP ANN CLG .4% CONDNS DB=>MWB, 7/21 13:40:00, 28.69333, 8.76969E-003, 1875.00000, 93.84784, 2.85750, 0.00000
 Zone Sizing Information, ALL_ST=HOSPITAL - NURSES STATION_FL=STORY 4_SCH=H, Heating, 22714.37416, 29528.68640, 0.88918, 2.85750, FORT MCMURRAY AP ANN HTG 99.6% CONDNS DB, 1/21 09:00:00, -36.20000, 1.25811E-004, 1875.00000, 93.84784, 2.85750, 0.00000
 Zone Sizing Information, ALL_ST=HOSPITAL - OPERATING ROOM_FL=STORY 4_SCH=H, Cooling, 105240.49288, 115764.54217, 8.13410, 8.94751, FORT MCMURRAY AP ANN CLG .4% CONDNS DB=>MWB, 7/21 16:10:00, 27.99067, 8.76969E-003, 1875.00000, 93.84784, 8.57250, 0.00000
 Zone Sizing Information, ALL_ST=HOSPITAL - OPERATING ROOM_FL=STORY 4_SCH=H, Heating, 0.00000, 0.00000, 0.00000, 8.57250, FORT MCMURRAY AP ANN HTG 99.6% CONDNS DB, , -36.20000, 1.25811E-004, 1875.00000, 93.84784, 8.57250, 0.00000
 Zone Sizing Information, ALL_ST=HOSPITAL - PATIENT ROOM_FL=STORY 3_SCH=H, Cooling, 50723.32922, 55795.66214, 3.92047, 4.31252, FORT MCMURRAY AP ANN CLG .4% CONDNS DB=>MWB, 7/21 17:30:00, 26.54400, 8.76969E-003, 2500.00000, 125.13046, 3.81000, 0.00000
 Zone Sizing Information, ALL_ST=HOSPITAL - PATIENT ROOM_FL=STORY 3_SCH=H, Heating, 0.00000, 0.00000, 0.00000, 3.81000, FORT MCMURRAY AP ANN HTG 99.6% CONDNS DB, , -36.20000, 1.25811E-004, 2500.00000, 125.13046, 3.81000, 0.00000
 Zone Sizing Information, ALL_ST=HOSPITAL - PHARMACY_FL=STORY 4_SCH=C, Cooling, 75548.88145, 83103.76959, 5.83878, 6.42266, FORT MCMURRAY AP ANN CLG .4% CONDNS DB=>MWB, 7/21 10:40:00, 25.42800, 8.76969E-003, 1875.00000, 93.84784, 4.28625, 0.00000
 Zone Sizing Information, ALL_ST=HOSPITAL - PHARMACY_FL=STORY 4_SCH=C, Heating, 42174.57552, 54826.94818, 1.65819, 4.28625, FORT MCMURRAY AP ANN HTG 99.6% CONDNS DB, 1/21 08:50:00, -36.20000, 1.25811E-004, 1875.00000, 93.84784, 4.28625, 0.00000
 Zone Sizing Information, ALL_ST=HOSPITAL - PHYSICAL THERAPY_FL=STORY 3_SCH=C, Cooling, 55083.11412, 60591.42554, 3.84910, 4.28625, FORT MCMURRAY AP ANN CLG .4% CONDNS DB=>MWB, 7/21 08:00:00, 19.72400, 8.76969E-003, 1875.00000, 93.84784, 4.28625, 0.00000
 Zone Sizing Information, ALL_ST=HOSPITAL - PHYSICAL THERAPY_FL=STORY 3_SCH=C, Heating, 13879.68054, 18043.58470, 0.53321, 4.28625, FORT MCMURRAY AP ANN HTG 99.6% CONDNS DB, 1/21 09:00:00, -36.20000, 1.25811E-004, 1875.00000, 93.84784, 4.28625, 0.00000
 Zone Sizing Information, ALL_ST=HOSPITAL - RADIOLOGY/IMAGING_FL=STORY 3_SCH=H, Cooling, 50219.49575, 55241.44533, 3.88151, 4.28625, FORT MCMURRAY AP ANN CLG .4% CONDNS DB=>MWB, 7/21 16:50:00, 27.32933, 8.76969E-003, 1875.00000, 93.84784, 4.28625, 0.00000
 Zone Sizing Information, ALL_ST=HOSPITAL - RADIOLOGY/IMAGING_FL=STORY 3_SCH=H, Heating, 0.00000, 0.00000, 0.00000, 4.28625, FORT MCMURRAY AP ANN HTG 99.6% CONDNS DB, , -36.20000, 1.25811E-004, 1875.00000, 93.84784, 4.28625, 0.00000
 Zone Sizing Information, ALL_ST=HOSPITAL - RECOVERY_FL=STORY 1_SCH=H, Cooling, 39396.55101, 43336.20611, 3.04501, 8.57250, FORT MCMURRAY AP ANN CLG .4% CONDNS DB=>MWB, 7/21 20:40:00, 21.95600, 8.76969E-003, 1875.00000, 93.84784, 8.57250, 0.00000
 Zone Sizing Information, ALL_ST=HOSPITAL - RECOVERY_FL=STORY 1_SCH=H, Heating, 0.00000, 0.00000, 0.00000, 8.57250, FORT MCMURRAY AP ANN HTG 99.6% CONDNS DB, , -36.20000, 1.25811E-004, 1875.00000, 93.84784, 8.57250, 0.00000
 Zone Sizing Information, ALL_ST=HOTEL/MOTEL - DINING_FL=STORY 1_SCH=B, Cooling, 28753.95393, 31629.34932, 2.22248, 6.71513, FORT MCMURRAY AP ANN CLG .4% CONDNS DB=>MWB, 7/21 13:00:00, 28.28000, 8.76969E-003, 1875.00000, 187.49386, 6.71513, 0.00000
 Zone Sizing Information, ALL_ST=HOTEL/MOTEL - DINING_FL=STORY 1_SCH=B, Heating, 0.00000, 0.00000, 0.00000, 6.71513, FORT MCMURRAY AP ANN HTG 99.6% CONDNS DB, , -36.20000, 1.25811E-004, 1875.00000, 187.49386, 6.71513, 0.00000
 Zone Sizing Information, ALL_ST=HOTEL/MOTEL - LOBBY_FL=STORY 3_SCH=H, Cooling, 63522.99076, 69875.28983, 4.91027, 5.40130, FORT MCMURRAY AP ANN CLG .4% CONDNS DB=>MWB, 7/21 18:20:00, 25.30400, 8.76968E-003, 1875.00000, 187.49386, 2.71463, 0.00000
 Zone Sizing Information, ALL_ST=HOTEL/MOTEL - LOBBY_FL=STORY 3_SCH=H, Heating, 0.00000, 0.00000, 0.00000, 2.71463, FORT MCMURRAY AP ANN HTG 99.6% CONDNS DB, , -36.20000, 1.25811E-004, 1875.00000, 187.49386, 2.71463, 0.00000
 Zone Sizing Information, ALL_ST=HWAY LODGING - DINING_FL=STORY 1_SCH=B, Cooling, 25669.28147, 28236.20961, 1.98407, 6.71513, FORT MCMURRAY AP ANN CLG .4% CONDNS DB=>MWB, 7/21 21:40:00, 20.84000, 8.76969E-003, 1875.00000, 187.49386, 6.71513, 0.00000
 Zone Sizing Information, ALL_ST=HWAY LODGING - DINING_FL=STORY 1_SCH=B, Heating, 0.00000, 0.00000, 0.00000, 6.71513, FORT MCMURRAY AP ANN HTG 99.6% CONDNS DB, , -36.20000, 1.25811E-004, 1875.00000, 187.49386, 6.71513, 0.00000
 Zone Sizing Information, ALL_ST=LAB - CLASSROOMS_FL=STORY 1_SCH=D, Cooling, 49188.51298, 54107.36428, 3.80180, 5.46100, FORT MCMURRAY AP ANN CLG .4% CONDNS DB=>MWB, 7/21 16:00:00, 28.15600, 8.76969E-003, 2500.00000, 125.13046, 5.46100, 0.00000
 Zone Sizing Information, ALL_ST=LAB - CLASSROOMS_FL=STORY 1_SCH=D, Heating, 0.00000, 0.00000, 0.00000, 5.46100, FORT MCMURRAY AP ANN HTG 99.6% CONDNS DB, , -36.20000, 1.25811E-004, 2500.00000, 125.13046, 5.46100, 0.00000
 Zone Sizing Information, ALL_ST=LAB - RESEARCH_FL=STORY 1_SCH=A, Cooling, 49037.53472, 53941.28820, 3.79016, 4.16918, FORT MCMURRAY AP ANN CLG .4% CONDNS DB=>MWB, 7/21 17:00:00, 27.16400, 8.76969E-003, 1875.00000, 93.84784, 4.09575, 0.00000
 Zone Sizing Information, ALL_ST=LAB - RESEARCH_FL=STORY 1_SCH=A, Heating, 0.00000, 0.00000, 0.00000, 4.09575, FORT MCMURRAY AP ANN HTG 99.6% CONDNS DB, , -36.20000, 1.25811E-004, 1875.00000, 93.84784, 4.09575, 0.00000
 Zone Sizing Information, ALL_ST=LIBRARY - CATALOGING_FL=STORY 2_SCH=C, Cooling, 27869.02186, 30655.92405, 2.15398, 2.36938, FORT MCMURRAY AP ANN CLG .4% CONDNS DB=>MWB, 7/21 17:00:00, 27.16400, 8.76969E-003, 1875.00000, 93.84784, 1.61925, 0.00000
 Zone Sizing Information, ALL_ST=LIBRARY - CATALOGING_FL=STORY 2_SCH=C, Heating, 0.00000, 0.00000, 0.00000, 1.61925, FORT MCMURRAY AP ANN HTG 99.6% CONDNS DB, , -36.20000, 1.25811E-004, 1875.00000, 93.84784, 1.61925, 0.00000
 Zone Sizing Information, ALL_ST=LIBRARY - READING_FL=STORY 2_SCH=C, Cooling, 45349.61980, 49884.58179, 3.50506, 3.85557, FORT MCMURRAY AP ANN CLG .4% CONDNS DB=>MWB, 7/21 18:00:00, 25.92400, 8.76969E-003, 1875.00000, 93.84784, 1.61925, 0.00000
 Zone Sizing Information, ALL_ST=LIBRARY - READING_FL=STORY 2_SCH=C, Heating, 0.00000, 0.00000, 0.00000, 1.61925, FORT MCMURRAY AP ANN HTG 99.6% CONDNS DB, , -36.20000, 1.25811E-004, 1875.00000, 93.84784, 1.61925, 0.00000
 Zone Sizing Information, ALL_ST=LIBRARY - STACKS_FL=STORY 2_SCH=C, Cooling, 50552.37996, 55607.61795, 3.53116, 3.88428, FORT MCMURRAY AP ANN CLG .4% CONDNS DB=>MWB, 7/21 08:00:00, 19.72400, 8.76969E-003, 1875.00000, 93.84784, 1.61925, 0.00000
 Zone Sizing Information, ALL_ST=LIBRARY - STACKS_FL=STORY 2_SCH=C, Heating, 1153.95124, 1500.13661, 4.60792E-002, 1.61925, FORT MCMURRAY AP ANN HTG 99.6% CONDNS DB, 1/21 08:10:00, -36.20000, 1.25811E-004, 1875.00000, 93.84784, 1.61925, 0.00000
 Zone Sizing Information, ALL_ST=LOBBY - ELEVATOR_FL=STORY 2_SCH=C, Cooling, 38783.73334, 42662.10667, 2.99779, 7.71525, FORT MCMURRAY AP ANN CLG .4% CONDNS DB=>MWB, 7/21 13:50:00, 28.79667, 8.76969E-003, 1875.00000, 187.49386, 7.71525, 0.00000
 Zone Sizing Information, ALL_ST=LOBBY - ELEVATOR_FL=STORY 2_SCH=C, Heating, 1483.72225, 1928.83892, 5.90961E-002, 7.71525, FORT MCMURRAY AP ANN HTG 99.6% CONDNS DB, 1/21 08:10:00, -36.20000, 1.25811E-004, 1875.00000, 187.49386, 7.71525, 0.00000
 Zone Sizing Information, DU_BT=SPACE FUNCTION_ST=HOTEL/MOTEL - ROOMS_FL=STORY 2_SCHF, Cooling, 34422.33709, 37864.57080, 2.66034, 2.92637, FORT MCMURRAY AP ANN CLG .4% CONDNS DB=>MWB, 7/21 22:00:00, 20.46800, 8.76969E-003, 2500.00000, 100.10437, 1.39700, 0.00000
 Zone Sizing Information, DU_BT=SPACE FUNCTION_ST=HOTEL/MOTEL - ROOMS_FL=STORY 2_SCHF, Heating, 0.00000, 0.00000, 0.00000, 1.39700, FORT MCMURRAY AP ANN HTG 99.6% CONDNS DB, , -36.20000, 1.25811E-004, 2500.00000, 100.10437, 1.39700, 0.00000
 Zone Sizing Information, DU_BT=SPACE FUNCTION_ST=HWAY LODGING - ROOMS_FL=STORY 3_SCHF, Cooling, 32247.88740, 35472.67614, 2.49225, 2.74148, FORT MCMURRAY AP ANN CLG .4% CONDNS DB=>MWB, 7/21 14:10:00, 28.90000, 8.76969E-003, 1875.00000, 75.07828, 1.04775, 0.00000
 Zone Sizing Information, DU_BT=SPACE FUNCTION_ST=HWAY LODGING - ROOMS_FL=STORY 3_SCHF, Heating, 4749.43499, 6174.26548, 0.19246, 1.04775, FORT MCMURRAY AP ANN HTG 99.6% CONDNS DB, 1/21 13:00:00, -36.20000, 1.25811E-004, 1875.00000, 75.07828, 1.04775, 0.00000
! <System Sizing Information>, System Name, Load Type, Peak Load Kind, User Design Capacity, Calc Des Air Flow Rate [m3/s], User Des Air Flow Rate [m3/s], Design Day Name, Date/Time of Peak
 System Sizing Information, SYS_1_MAKE-UP AIR UNIT, Cooling, Sensible, 12082.56, 2.92637, 1.39700, FORT MCMURRAY AP ANN CLG .4% CONDNS DB=>MWB, 7/21 05:00:00
 System Sizing Information, SYS_1_MAKE-UP AIR UNIT, Heating, Sensible, 128138.52, 1.39700, 1.39700, FORT MCMURRAY AP ANN HTG 99.6% CONDNS DB, 1/21 00:10:00
 System Sizing Information, SYS_1_MAKE-UP AIR UNIT 1, Cooling, Sensible, 19293.58, 2.74148, 1.04775, FORT MCMURRAY AP ANN CLG .4% CONDNS DB=>MWB, 7/21 05:00:00
 System Sizing Information, SYS_1_MAKE-UP AIR UNIT 1, Heating, Sensible, 96103.89, 1.04775, 1.04775, FORT MCMURRAY AP ANN HTG 99.6% CONDNS DB, 1/21 00:10:00
 System Sizing Information, SYS_3_PSZ ALL_ST=HOSPITAL - MEDICAL SUPPLY - OCCSENS_FL=STORY 4_SCH=H, Cooling, Sensible, 113521.44, 7.28578, 7.28578, FORT MCMURRAY AP ANN CLG .4% CONDNS DB=>MWB, 7/21 05:00:00
 System Sizing Information, SYS_3_PSZ ALL_ST=HOSPITAL - MEDICAL SUPPLY - OCCSENS_FL=STORY 4_SCH=H, Heating, Sensible, 349468.69, 3.81000, 3.81000, FORT MCMURRAY AP ANN HTG 99.6% CONDNS DB, 1/21 00:10:00
 System Sizing Information, SYS_3_PSZ ALL_ST=HOSPITAL - NURSERY_FL=STORY 4_SCH=H, Cooling, Sensible, 115560.41, 7.87923, 7.87923, FORT MCMURRAY AP ANN CLG .4% CONDNS DB=>MWB, 7/21 05:00:00
 System Sizing Information, SYS_3_PSZ ALL_ST=HOSPITAL - NURSERY_FL=STORY 4_SCH=H, Heating, Sensible, 262101.52, 2.85750, 2.85750, FORT MCMURRAY AP ANN HTG 99.6% CONDNS DB, 1/21 00:10:00
 System Sizing Information, SYS_3_PSZ ALL_ST=HOSPITAL - NURSES STATION_FL=STORY 4_SCH=H, Cooling, Sensible, 90198.88, 5.86139, 5.86139, FORT MCMURRAY AP ANN CLG .4% CONDNS DB=>MWB, 7/21 05:00:00
 System Sizing Information, SYS_3_PSZ ALL_ST=HOSPITAL - NURSES STATION_FL=STORY 4_SCH=H, Heating, Sensible, 262101.52, 2.85750, 2.85750, FORT MCMURRAY AP ANN HTG 99.6% CONDNS DB, 1/21 00:10:00
 System Sizing Information, SYS_3_PSZ ALL_ST=HOSPITAL - OPERATING ROOM_FL=STORY 4_SCH=H, Cooling, Sensible, 153605.55, 8.94751, 8.94751, FORT MCMURRAY AP ANN CLG .4% CONDNS DB=>MWB, 7/21 05:00:00
 System Sizing Information, SYS_3_PSZ ALL_ST=HOSPITAL - OPERATING ROOM_FL=STORY 4_SCH=H, Heating, Sensible, 786304.56, 8.57250, 8.57250, FORT MCMURRAY AP ANN HTG 99.6% CONDNS DB, 1/21 00:10:00
 System Sizing Information, SYS_3_PSZ ALL_ST=HOSPITAL - PATIENT ROOM_FL=STORY 3_SCH=H, Cooling, Sensible, 66163.77, 4.31252, 4.31252, FORT MCMURRAY AP ANN CLG .4% CONDNS DB=>MWB, 7/21 05:00:00
 System Sizing Information, SYS_3_PSZ ALL_ST=HOSPITAL - PATIENT ROOM_FL=STORY 3_SCH=H, Heating, Sensible, 349468.69, 3.81000, 3.81000, FORT MCMURRAY AP ANN HTG 99.6% CONDNS DB, 1/21 00:10:00
 System Sizing Information, SYS_3_PSZ ALL_ST=HOSPITAL - PHARMACY_FL=STORY 4_SCH=C, Cooling, Sensible, 88909.01, 6.42266, 6.42266, FORT MCMURRAY AP ANN CLG .4% CONDNS DB=>MWB, 7/21 05:00:00
 System Sizing Information, SYS_3_PSZ ALL_ST=HOSPITAL - PHARMACY_FL=STORY 4_SCH=C, Heating, Sensible, 393152.28, 4.28625, 4.28625, FORT MCMURRAY AP ANN HTG 99.6% CONDNS DB, 1/21 00:10:00
 System Sizing Information, SYS_3_PSZ ALL_ST=HOSPITAL - PHYSICAL THERAPY_FL=STORY 3_SCH=C, Cooling, Sensible, 33378.23, 4.28625, 4.28625, FORT MCMURRAY AP ANN CLG .4% CONDNS DB=>MWB, 7/21 05:00:00
 System Sizing Information, SYS_3_PSZ ALL_ST=HOSPITAL - PHYSICAL THERAPY_FL=STORY 3_SCH=C, Heating, Sensible, 393152.28, 4.28625, 4.28625, FORT MCMURRAY AP ANN HTG 99.6% CONDNS DB, 1/21 00:10:00
 System Sizing Information, SYS_3_PSZ ALL_ST=HOSPITAL - RADIOLOGY/IMAGING_FL=STORY 3_SCH=H, Cooling, Sensible, 71131.44, 4.28625, 4.28625, FORT MCMURRAY AP ANN CLG .4% CONDNS DB=>MWB, 7/21 05:00:00
 System Sizing Information, SYS_3_PSZ ALL_ST=HOSPITAL - RADIOLOGY/IMAGING_FL=STORY 3_SCH=H, Heating, Sensible, 393152.28, 4.28625, 4.28625, FORT MCMURRAY AP ANN HTG 99.6% CONDNS DB, 1/21 00:10:00
 System Sizing Information, SYS_3_PSZ ALL_ST=HOSPITAL - RECOVERY_FL=STORY 1_SCH=H, Cooling, Sensible, 88915.95, 8.57250, 8.57250, FORT MCMURRAY AP ANN CLG .4% CONDNS DB=>MWB, 7/21 05:00:00
 System Sizing Information, SYS_3_PSZ ALL_ST=HOSPITAL - RECOVERY_FL=STORY 1_SCH=H, Heating, Sensible, 786304.56, 8.57250, 8.57250, FORT MCMURRAY AP ANN HTG 99.6% CONDNS DB, 1/21 00:10:00
 System Sizing Information, SYS_3_PSZ ALL_ST=HOTEL/MOTEL - DINING_FL=STORY 1_SCH=B, Cooling, Sensible, 118832.59, 6.71513, 6.71513, FORT MCMURRAY AP ANN CLG .4% CONDNS DB=>MWB, 7/21 05:00:00
 System Sizing Information, SYS_3_PSZ ALL_ST=HOTEL/MOTEL - DINING_FL=STORY 1_SCH=B, Heating, Sensible, 615938.57, 6.71513, 6.71513, FORT MCMURRAY AP ANN HTG 99.6% CONDNS DB, 1/21 00:10:00
 System Sizing Information, SYS_3_PSZ ALL_ST=HOTEL/MOTEL - LOBBY_FL=STORY 3_SCH=H, Cooling, Sensible, 72901.86, 5.40130, 5.40130, FORT MCMURRAY AP ANN CLG .4% CONDNS DB=>MWB, 7/21 05:00:00
 System Sizing Information, SYS_3_PSZ ALL_ST=HOTEL/MOTEL - LOBBY_FL=STORY 3_SCH=H, Heating, Sensible, 248996.44, 2.71463, 2.71463, FORT MCMURRAY AP ANN HTG 99.6% CONDNS DB, 1/21 00:10:00
 System Sizing Information, SYS_3_PSZ ALL_ST=HWAY LODGING - DINING_FL=STORY 1_SCH=B, Cooling, Sensible, 60971.70, 6.71513, 6.71513, FORT MCMURRAY AP ANN CLG .4% CONDNS DB=>MWB, 7/21 05:00:00
 System Sizing Information, SYS_3_PSZ ALL_ST=HWAY LODGING - DINING_FL=STORY 1_SCH=B, Heating, Sensible, 615938.57, 6.71513, 6.71513, FORT MCMURRAY AP ANN HTG 99.6% CONDNS DB, 1/21 00:10:00
 System Sizing Information, SYS_3_PSZ ALL_ST=LAB - CLASSROOMS_FL=STORY 1_SCH=D, Cooling, Sensible, 95855.03, 5.46100, 5.46100, FORT MCMURRAY AP ANN CLG .4% CONDNS DB=>MWB, 7/21 05:00:00
 System Sizing Information, SYS_3_PSZ ALL_ST=LAB - CLASSROOMS_FL=STORY 1_SCH=D, Heating, Sensible, 500905.13, 5.46100, 5.46100, FORT MCMURRAY AP ANN HTG 99.6% CONDNS DB, 1/21 00:10:00
 System Sizing Information, SYS_3_PSZ ALL_ST=LAB - RESEARCH_FL=STORY 1_SCH=A, Cooling, Sensible, 68121.16, 4.16918, 4.16918, FORT MCMURRAY AP ANN CLG .4% CONDNS DB=>MWB, 7/21 05:00:00
 System Sizing Information, SYS_3_PSZ ALL_ST=LAB - RESEARCH_FL=STORY 1_SCH=A, Heating, Sensible, 375678.85, 4.09575, 4.09575, FORT MCMURRAY AP ANN HTG 99.6% CONDNS DB, 1/21 00:10:00
 System Sizing Information, SYS_3_PSZ ALL_ST=LOBBY - ELEVATOR_FL=STORY 2_SCH=C, Cooling, Sensible, 141147.63, 7.71525, 7.71525, FORT MCMURRAY AP ANN CLG .4% CONDNS DB=>MWB, 7/21 05:00:00
 System Sizing Information, SYS_3_PSZ ALL_ST=LOBBY - ELEVATOR_FL=STORY 2_SCH=C, Heating, Sensible, 707674.10, 7.71525, 7.71525, FORT MCMURRAY AP ANN HTG 99.6% CONDNS DB, 1/21 00:10:00
 System Sizing Information, SYS_6_VAV WITH REHEAT, Cooling, Sensible, 127697.63, 10.10922, 10.10922, FORT MCMURRAY AP ANN CLG .4% CONDNS DB=>MWB, 7/21 00:00:00
 System Sizing Information, SYS_6_VAV WITH REHEAT, Heating, Sensible, 277357.68, 4.85775, 4.85775, FORT MCMURRAY AP ANN HTG 99.6% CONDNS DB, 1/21 00:10:00
! <Component Sizing Information>, Component Type, Component Name, Input Field Description, Value
 Component Sizing Information, AirTerminal:SingleDuct:Uncontrolled, AIR TERMINAL SINGLE DUCT UNCONTROLLED 3, Design Size Maximum Air Flow Rate [m3/s], 7.28578
 Component Sizing Information, ZoneHVAC:Baseboard:Convective:Water, ZONE HVAC BASEBOARD CONVECTIVE WATER 3, Design Size Maximum Water Flow Rate [m3/s], 0.00000
 Component Sizing Information, ZoneHVAC:Baseboard:Convective:Water, ZONE HVAC BASEBOARD CONVECTIVE WATER 3, Design Size U-Factor Times Area Value [W/K], 0.00000
 Component Sizing Information, AirTerminal:SingleDuct:Uncontrolled, AIR TERMINAL SINGLE DUCT UNCONTROLLED 4, Design Size Maximum Air Flow Rate [m3/s], 7.87923
 Component Sizing Information, ZoneHVAC:Baseboard:Convective:Water, ZONE HVAC BASEBOARD CONVECTIVE WATER 4, Design Size Maximum Water Flow Rate [m3/s], 3.65234E-004
 Component Sizing Information, ZoneHVAC:Baseboard:Convective:Water, ZONE HVAC BASEBOARD CONVECTIVE WATER 4, Design Size U-Factor Times Area Value [W/K], 743.96241
 Component Sizing Information, AirTerminal:SingleDuct:Uncontrolled, AIR TERMINAL SINGLE DUCT UNCONTROLLED 5, Design Size Maximum Air Flow Rate [m3/s], 5.86139
 Component Sizing Information, ZoneHVAC:Baseboard:Convective:Water, ZONE HVAC BASEBOARD CONVECTIVE WATER 5, Design Size Maximum Water Flow Rate [m3/s], 4.41035E-004
 Component Sizing Information, ZoneHVAC:Baseboard:Convective:Water, ZONE HVAC BASEBOARD CONVECTIVE WATER 5, Design Size U-Factor Times Area Value [W/K], 898.78395
 Component Sizing Information, AirTerminal:SingleDuct:Uncontrolled, AIR TERMINAL SINGLE DUCT UNCONTROLLED 6, Design Size Maximum Air Flow Rate [m3/s], 8.94751
 Component Sizing Information, ZoneHVAC:Baseboard:Convective:Water, ZONE HVAC BASEBOARD CONVECTIVE WATER 6, Design Size Maximum Water Flow Rate [m3/s], 0.00000
 Component Sizing Information, ZoneHVAC:Baseboard:Convective:Water, ZONE HVAC BASEBOARD CONVECTIVE WATER 6, Design Size U-Factor Times Area Value [W/K], 0.00000
 Component Sizing Information, AirTerminal:SingleDuct:Uncontrolled, AIR TERMINAL SINGLE DUCT UNCONTROLLED 7, Design Size Maximum Air Flow Rate [m3/s], 4.31252
 Component Sizing Information, ZoneHVAC:Baseboard:Convective:Water, ZONE HVAC BASEBOARD CONVECTIVE WATER 7, Design Size Maximum Water Flow Rate [m3/s], 0.00000
 Component Sizing Information, ZoneHVAC:Baseboard:Convective:Water, ZONE HVAC BASEBOARD CONVECTIVE WATER 7, Design Size U-Factor Times Area Value [W/K], 0.00000
 Component Sizing Information, AirTerminal:SingleDuct:Uncontrolled, AIR TERMINAL SINGLE DUCT UNCONTROLLED 8, Design Size Maximum Air Flow Rate [m3/s], 6.42266
 Component Sizing Information, ZoneHVAC:Baseboard:Convective:Water, ZONE HVAC BASEBOARD CONVECTIVE WATER 8, Design Size Maximum Water Flow Rate [m3/s], 8.18885E-004
 Component Sizing Information, ZoneHVAC:Baseboard:Convective:Water, ZONE HVAC BASEBOARD CONVECTIVE WATER 8, Design Size U-Factor Times Area Value [W/K], 1671.62198
 Component Sizing Information, AirTerminal:SingleDuct:Uncontrolled, AIR TERMINAL SINGLE DUCT UNCONTROLLED 9, Design Size Maximum Air Flow Rate [m3/s], 4.28625
 Component Sizing Information, ZoneHVAC:Baseboard:Convective:Water, ZONE HVAC BASEBOARD CONVECTIVE WATER 9, Design Size Maximum Water Flow Rate [m3/s], 2.69496E-004
 Component Sizing Information, ZoneHVAC:Baseboard:Convective:Water, ZONE HVAC BASEBOARD CONVECTIVE WATER 9, Design Size U-Factor Times Area Value [W/K], 547.25397
 Component Sizing Information, AirTerminal:SingleDuct:Uncontrolled, AIR TERMINAL SINGLE DUCT UNCONTROLLED 10, Design Size Maximum Air Flow Rate [m3/s], 4.28625
 Component Sizing Information, ZoneHVAC:Baseboard:Convective:Water, ZONE HVAC BASEBOARD CONVECTIVE WATER 10, Design Size Maximum Water Flow Rate [m3/s], 0.00000
 Component Sizing Information, ZoneHVAC:Baseboard:Convective:Water, ZONE HVAC BASEBOARD CONVECTIVE WATER 10, Design Size U-Factor Times Area Value [W/K], 0.00000
 Component Sizing Information, AirTerminal:SingleDuct:Uncontrolled, AIR TERMINAL SINGLE DUCT UNCONTROLLED 11, Design Size Maximum Air Flow Rate [m3/s], 8.57250
 Component Sizing Information, ZoneHVAC:Baseboard:Convective:Water, ZONE HVAC BASEBOARD CONVECTIVE WATER 11, Design Size Maximum Water Flow Rate [m3/s], 0.00000
 Component Sizing Information, ZoneHVAC:Baseboard:Convective:Water, ZONE HVAC BASEBOARD CONVECTIVE WATER 11, Design Size U-Factor Times Area Value [W/K], 0.00000
 Component Sizing Information, AirTerminal:SingleDuct:Uncontrolled, AIR TERMINAL SINGLE DUCT UNCONTROLLED 12, Design Size Maximum Air Flow Rate [m3/s], 6.71513
 Component Sizing Information, ZoneHVAC:Baseboard:Convective:Water, ZONE HVAC BASEBOARD CONVECTIVE WATER 12, Design Size Maximum Water Flow Rate [m3/s], 0.00000
 Component Sizing Information, ZoneHVAC:Baseboard:Convective:Water, ZONE HVAC BASEBOARD CONVECTIVE WATER 12, Design Size U-Factor Times Area Value [W/K], 0.00000
 Component Sizing Information, AirTerminal:SingleDuct:Uncontrolled, AIR TERMINAL SINGLE DUCT UNCONTROLLED 13, Design Size Maximum Air Flow Rate [m3/s], 5.40130
 Component Sizing Information, ZoneHVAC:Baseboard:Convective:Water, ZONE HVAC BASEBOARD CONVECTIVE WATER 13, Design Size Maximum Water Flow Rate [m3/s], 0.00000
 Component Sizing Information, ZoneHVAC:Baseboard:Convective:Water, ZONE HVAC BASEBOARD CONVECTIVE WATER 13, Design Size U-Factor Times Area Value [W/K], 0.00000
 Component Sizing Information, AirTerminal:SingleDuct:Uncontrolled, AIR TERMINAL SINGLE DUCT UNCONTROLLED 14, Design Size Maximum Air Flow Rate [m3/s], 6.71513
 Component Sizing Information, ZoneHVAC:Baseboard:Convective:Water, ZONE HVAC BASEBOARD CONVECTIVE WATER 14, Design Size Maximum Water Flow Rate [m3/s], 0.00000
 Component Sizing Information, ZoneHVAC:Baseboard:Convective:Water, ZONE HVAC BASEBOARD CONVECTIVE WATER 14, Design Size U-Factor Times Area Value [W/K], 0.00000
 Component Sizing Information, AirTerminal:SingleDuct:Uncontrolled, AIR TERMINAL SINGLE DUCT UNCONTROLLED 15, Design Size Maximum Air Flow Rate [m3/s], 5.46100
 Component Sizing Information, ZoneHVAC:Baseboard:Convective:Water, ZONE HVAC BASEBOARD CONVECTIVE WATER 15, Design Size Maximum Water Flow Rate [m3/s], 0.00000
 Component Sizing Information, ZoneHVAC:Baseboard:Convective:Water, ZONE HVAC BASEBOARD CONVECTIVE WATER 15, Design Size U-Factor Times Area Value [W/K], 0.00000
 Component Sizing Information, AirTerminal:SingleDuct:Uncontrolled, AIR TERMINAL SINGLE DUCT UNCONTROLLED 16, Design Size Maximum Air Flow Rate [m3/s], 4.16918
 Component Sizing Information, ZoneHVAC:Baseboard:Convective:Water, ZONE HVAC BASEBOARD CONVECTIVE WATER 16, Design Size Maximum Water Flow Rate [m3/s], 0.00000
 Component Sizing Information, ZoneHVAC:Baseboard:Convective:Water, ZONE HVAC BASEBOARD CONVECTIVE WATER 16, Design Size U-Factor Times Area Value [W/K], 0.00000
 Component Sizing Information, AirTerminal:SingleDuct:VAV:Reheat, AIR TERMINAL SINGLE DUCT VAV REHEAT 1, Design Size Maximum Air Flow Rate [m3/s], 2.36938
 Component Sizing Information, AirTerminal:SingleDuct:VAV:Reheat, AIR TERMINAL SINGLE DUCT VAV REHEAT 1, Design Size Constant Minimum Air Flow Fraction, 0.60301
 Component Sizing Information, AirTerminal:SingleDuct:VAV:Reheat, AIR TERMINAL SINGLE DUCT VAV REHEAT 1, User-Specified Constant Minimum Air Flow Fraction, 0.30000
 Component Sizing Information, AirTerminal:SingleDuct:VAV:Reheat, AIR TERMINAL SINGLE DUCT VAV REHEAT 1, Design Size Minimum Air Flow Rate [m3/s], 0.71081
 Component Sizing Information, AirTerminal:SingleDuct:VAV:Reheat, AIR TERMINAL SINGLE DUCT VAV REHEAT 1, Design Size Maximum Flow per Zone Floor Area during Reheat [m3/s-m2], 3.79101E-004
 Component Sizing Information, AirTerminal:SingleDuct:VAV:Reheat, AIR TERMINAL SINGLE DUCT VAV REHEAT 1, Design Size Maximum Flow Fraction during Reheat [], 0.30000
 Component Sizing Information, AirTerminal:SingleDuct:VAV:Reheat, AIR TERMINAL SINGLE DUCT VAV REHEAT 1, Design Size Maximum Reheat Water Flow Rate [m3/s], 1.12933E-004
 Component Sizing Information, AirTerminal:SingleDuct:VAV:Reheat, AIR TERMINAL SINGLE DUCT VAV REHEAT 1, Design Size Reheat Coil Sizing Air Volume Flow Rate [m3/s], 0.71081
 Component Sizing Information, AirTerminal:SingleDuct:VAV:Reheat, AIR TERMINAL SINGLE DUCT VAV REHEAT 1, Design Size Reheat Coil Sizing Inlet Air Temperature [C], 13.10000
 Component Sizing Information, AirTerminal:SingleDuct:VAV:Reheat, AIR TERMINAL SINGLE DUCT VAV REHEAT 1, Design Size Reheat Coil Sizing Inlet Air Humidity Ratio [kgWater/kgDryAir], 8.00000E-003
 Component Sizing Information, Coil:Heating:Water, COIL HEATING WATER 4, Design Size Rated Capacity [W], 7561.19201
 Component Sizing Information, Coil:Heating:Water, COIL HEATING WATER 4, Design Size Maximum Water Flow Rate [m3/s], 1.12933E-004
 Component Sizing Information, Coil:Heating:Water, COIL HEATING WATER 4, Design Size U-Factor Times Area Value [W/K], 136.33081
! <Water Heating Coil Capacity Information>,Component Type,Name,Nominal Total Capacity {W}
Water Heating Coil Capacity Information,Coil:Heating:Water,COIL HEATING WATER 4,7089.67
 Component Sizing Information, ZoneHVAC:Baseboard:Convective:Water, ZONE HVAC BASEBOARD CONVECTIVE WATER 18, Design Size Maximum Water Flow Rate [m3/s], 0.00000
 Component Sizing Information, ZoneHVAC:Baseboard:Convective:Water, ZONE HVAC BASEBOARD CONVECTIVE WATER 18, Design Size U-Factor Times Area Value [W/K], 0.00000
 Component Sizing Information, AirTerminal:SingleDuct:VAV:Reheat, AIR TERMINAL SINGLE DUCT VAV REHEAT 2, Design Size Maximum Air Flow Rate [m3/s], 3.85557
 Component Sizing Information, AirTerminal:SingleDuct:VAV:Reheat, AIR TERMINAL SINGLE DUCT VAV REHEAT 2, Design Size Constant Minimum Air Flow Fraction, 0.37057
 Component Sizing Information, AirTerminal:SingleDuct:VAV:Reheat, AIR TERMINAL SINGLE DUCT VAV REHEAT 2, User-Specified Constant Minimum Air Flow Fraction, 0.30000
 Component Sizing Information, AirTerminal:SingleDuct:VAV:Reheat, AIR TERMINAL SINGLE DUCT VAV REHEAT 2, Design Size Minimum Air Flow Rate [m3/s], 1.15667
 Component Sizing Information, AirTerminal:SingleDuct:VAV:Reheat, AIR TERMINAL SINGLE DUCT VAV REHEAT 2, Design Size Maximum Flow per Zone Floor Area during Reheat [m3/s-m2], 6.16891E-004
 Component Sizing Information, AirTerminal:SingleDuct:VAV:Reheat, AIR TERMINAL SINGLE DUCT VAV REHEAT 2, Design Size Maximum Flow Fraction during Reheat [], 0.30000
 Component Sizing Information, AirTerminal:SingleDuct:VAV:Reheat, AIR TERMINAL SINGLE DUCT VAV REHEAT 2, Design Size Maximum Reheat Water Flow Rate [m3/s], 1.83769E-004
 Component Sizing Information, AirTerminal:SingleDuct:VAV:Reheat, AIR TERMINAL SINGLE DUCT VAV REHEAT 2, Design Size Reheat Coil Sizing Air Volume Flow Rate [m3/s], 1.15667
 Component Sizing Information, AirTerminal:SingleDuct:VAV:Reheat, AIR TERMINAL SINGLE DUCT VAV REHEAT 2, Design Size Reheat Coil Sizing Inlet Air Temperature [C], 13.10000
 Component Sizing Information, AirTerminal:SingleDuct:VAV:Reheat, AIR TERMINAL SINGLE DUCT VAV REHEAT 2, Design Size Reheat Coil Sizing Inlet Air Humidity Ratio [kgWater/kgDryAir], 8.00000E-003
 Component Sizing Information, Coil:Heating:Water, COIL HEATING WATER 5, Design Size Rated Capacity [W], 12303.92996
 Component Sizing Information, Coil:Heating:Water, COIL HEATING WATER 5, Design Size Maximum Water Flow Rate [m3/s], 1.83769E-004
 Component Sizing Information, Coil:Heating:Water, COIL HEATING WATER 5, Design Size U-Factor Times Area Value [W/K], 221.84395
Water Heating Coil Capacity Information,Coil:Heating:Water,COIL HEATING WATER 5,11536.64
 Component Sizing Information, ZoneHVAC:Baseboard:Convective:Water, ZONE HVAC BASEBOARD CONVECTIVE WATER 19, Design Size Maximum Water Flow Rate [m3/s], 0.00000
 Component Sizing Information, ZoneHVAC:Baseboard:Convective:Water, ZONE HVAC BASEBOARD CONVECTIVE WATER 19, Design Size U-Factor Times Area Value [W/K], 0.00000
 Component Sizing Information, AirTerminal:SingleDuct:VAV:Reheat, AIR TERMINAL SINGLE DUCT VAV REHEAT 3, Design Size Maximum Air Flow Rate [m3/s], 3.88428
 Component Sizing Information, AirTerminal:SingleDuct:VAV:Reheat, AIR TERMINAL SINGLE DUCT VAV REHEAT 3, Design Size Constant Minimum Air Flow Fraction, 0.36783
 Component Sizing Information, AirTerminal:SingleDuct:VAV:Reheat, AIR TERMINAL SINGLE DUCT VAV REHEAT 3, User-Specified Constant Minimum Air Flow Fraction, 0.30000
 Component Sizing Information, AirTerminal:SingleDuct:VAV:Reheat, AIR TERMINAL SINGLE DUCT VAV REHEAT 3, Design Size Minimum Air Flow Rate [m3/s], 1.16528
 Component Sizing Information, AirTerminal:SingleDuct:VAV:Reheat, AIR TERMINAL SINGLE DUCT VAV REHEAT 3, Design Size Maximum Flow per Zone Floor Area during Reheat [m3/s-m2], 6.21484E-004
 Component Sizing Information, AirTerminal:SingleDuct:VAV:Reheat, AIR TERMINAL SINGLE DUCT VAV REHEAT 3, Design Size Maximum Flow Fraction during Reheat [], 0.30000
 Component Sizing Information, AirTerminal:SingleDuct:VAV:Reheat, AIR TERMINAL SINGLE DUCT VAV REHEAT 3, Design Size Maximum Reheat Water Flow Rate [m3/s], 0.00000
 Component Sizing Information, AirTerminal:SingleDuct:VAV:Reheat, AIR TERMINAL SINGLE DUCT VAV REHEAT 3, Design Size Reheat Coil Sizing Air Volume Flow Rate [m3/s], 1.16528
 Component Sizing Information, AirTerminal:SingleDuct:VAV:Reheat, AIR TERMINAL SINGLE DUCT VAV REHEAT 3, Design Size Reheat Coil Sizing Inlet Air Temperature [C], 13.10000
 Component Sizing Information, AirTerminal:SingleDuct:VAV:Reheat, AIR TERMINAL SINGLE DUCT VAV REHEAT 3, Design Size Reheat Coil Sizing Inlet Air Humidity Ratio [kgWater/kgDryAir], 8.00000E-003
 Component Sizing Information, Coil:Heating:Water, COIL HEATING WATER 6, Design Size Rated Capacity [W], 0.00000
 Component Sizing Information, Coil:Heating:Water, COIL HEATING WATER 6, Design Size Maximum Water Flow Rate [m3/s], 0.00000
 Component Sizing Information, Coil:Heating:Water, COIL HEATING WATER 6, Design Size U-Factor Times Area Value [W/K], 1.00000
Water Heating Coil Capacity Information,Coil:Heating:Water,COIL HEATING WATER 6,0.00
 Component Sizing Information, ZoneHVAC:Baseboard:Convective:Water, ZONE HVAC BASEBOARD CONVECTIVE WATER 20, Design Size Maximum Water Flow Rate [m3/s], 2.24058E-005
 Component Sizing Information, ZoneHVAC:Baseboard:Convective:Water, ZONE HVAC BASEBOARD CONVECTIVE WATER 20, Design Size U-Factor Times Area Value [W/K], 29.13156
 Component Sizing Information, AirTerminal:SingleDuct:Uncontrolled, AIR TERMINAL SINGLE DUCT UNCONTROLLED 17, Design Size Maximum Air Flow Rate [m3/s], 7.71525
 Component Sizing Information, ZoneHVAC:Baseboard:Convective:Water, ZONE HVAC BASEBOARD CONVECTIVE WATER 17, Design Size Maximum Water Flow Rate [m3/s], 2.88088E-005
 Component Sizing Information, ZoneHVAC:Baseboard:Convective:Water, ZONE HVAC BASEBOARD CONVECTIVE WATER 17, Design Size U-Factor Times Area Value [W/K], 37.42588
 Component Sizing Information, ZoneHVAC:PackagedTerminalAirConditioner, DU_BT=SPACE FUNCTION_ST=HOTEL/MOTEL - ROOMS_FL=STORY 2_SCHF PTAC, Design Size Cooling Supply Air Flow Rate [m3/s], 2.92637
 Component Sizing Information, ZoneHVAC:PackagedTerminalAirConditioner, DU_BT=SPACE FUNCTION_ST=HOTEL/MOTEL - ROOMS_FL=STORY 2_SCHF PTAC, Design Size Heating Supply Air Flow Rate [m3/s], 2.92637
 Component Sizing Information, ZoneHVAC:PackagedTerminalAirConditioner, DU_BT=SPACE FUNCTION_ST=HOTEL/MOTEL - ROOMS_FL=STORY 2_SCHF PTAC, Design Size No Load Supply Air Flow Rate [m3/s], 2.92637
 Component Sizing Information, ZoneHVAC:PackagedTerminalAirConditioner, DU_BT=SPACE FUNCTION_ST=HOTEL/MOTEL - ROOMS_FL=STORY 2_SCHF PTAC, Design Size Outdoor Air Flow Rate During Cooling Operation [m3/s], 1.39700
 Component Sizing Information, ZoneHVAC:PackagedTerminalAirConditioner, DU_BT=SPACE FUNCTION_ST=HOTEL/MOTEL - ROOMS_FL=STORY 2_SCHF PTAC, Design Size Outdoor Air Flow Rate During Heating Operation [m3/s], 1.39700
 Component Sizing Information, ZoneHVAC:PackagedTerminalAirConditioner, DU_BT=SPACE FUNCTION_ST=HOTEL/MOTEL - ROOMS_FL=STORY 2_SCHF PTAC, Design Size Outdoor Air Flow Rate When No Cooling or Heating is Needed [m3/s], 1.39700
 Component Sizing Information, Coil:Cooling:DX:SingleSpeed, COIL COOLING DX SINGLE SPEED 2, Design Size Rated Air Flow Rate [m3/s], 2.92637
 Component Sizing Information, Coil:Cooling:DX:SingleSpeed, COIL COOLING DX SINGLE SPEED 2, Design Size Gross Rated Total Cooling Capacity [W], 48441.87477
 Component Sizing Information, Coil:Cooling:DX:SingleSpeed, COIL COOLING DX SINGLE SPEED 2, Design Size Gross Rated Sensible Heat Ratio, 0.80066
! <DX Cooling Coil Standard Rating Information>, Component Type, Component Name, Standard Rating (Net) Cooling Capacity {W}, Standard Rated Net COP {W/W}, EER {Btu/W-h}, SEER {Btu/W-h}, IEER {Btu/W-h}
 DX Cooling Coil Standard Rating Information, Coil:Cooling:DX:SingleSpeed, COIL COOLING DX SINGLE SPEED 2, 46169.8, 2.51, 8.56, 9.04, 8.63
 Component Sizing Information, Coil:Heating:Electric, COIL HEATING ELECTRIC 1, Design Size Nominal Capacity [W], 34478.33063
 Component Sizing Information, Fan:ConstantVolume, FAN CONSTANT VOLUME 2, Design Size Maximum Flow Rate [m3/s], 2.92637
 Component Sizing Information, ZoneHVAC:Baseboard:Convective:Water, ZONE HVAC BASEBOARD CONVECTIVE WATER 1, Design Size Maximum Water Flow Rate [m3/s], 0.00000
 Component Sizing Information, ZoneHVAC:Baseboard:Convective:Water, ZONE HVAC BASEBOARD CONVECTIVE WATER 1, Design Size U-Factor Times Area Value [W/K], 0.00000
 Component Sizing Information, AirTerminal:SingleDuct:Uncontrolled, AIR TERMINAL SINGLE DUCT UNCONTROLLED 1, Design Size Maximum Air Flow Rate [m3/s], 1.39700
 Component Sizing Information, ZoneHVAC:PackagedTerminalAirConditioner, DU_BT=SPACE FUNCTION_ST=HWAY LODGING - ROOMS_FL=STORY 3_SCHF PTAC, Design Size Cooling Supply Air Flow Rate [m3/s], 2.74148
 Component Sizing Information, ZoneHVAC:PackagedTerminalAirConditioner, DU_BT=SPACE FUNCTION_ST=HWAY LODGING - ROOMS_FL=STORY 3_SCHF PTAC, Design Size Heating Supply Air Flow Rate [m3/s], 2.74148
 Component Sizing Information, ZoneHVAC:PackagedTerminalAirConditioner, DU_BT=SPACE FUNCTION_ST=HWAY LODGING - ROOMS_FL=STORY 3_SCHF PTAC, Design Size No Load Supply Air Flow Rate [m3/s], 2.74148
 Component Sizing Information, ZoneHVAC:PackagedTerminalAirConditioner, DU_BT=SPACE FUNCTION_ST=HWAY LODGING - ROOMS_FL=STORY 3_SCHF PTAC, Design Size Outdoor Air Flow Rate During Cooling Operation [m3/s], 1.04775
 Component Sizing Information, ZoneHVAC:PackagedTerminalAirConditioner, DU_BT=SPACE FUNCTION_ST=HWAY LODGING - ROOMS_FL=STORY 3_SCHF PTAC, Design Size Outdoor Air Flow Rate During Heating Operation [m3/s], 1.04775
 Component Sizing Information, ZoneHVAC:PackagedTerminalAirConditioner, DU_BT=SPACE FUNCTION_ST=HWAY LODGING - ROOMS_FL=STORY 3_SCHF PTAC, Design Size Outdoor Air Flow Rate When No Cooling or Heating is Needed [m3/s], 1.04775
 Component Sizing Information, Coil:Cooling:DX:SingleSpeed, COIL COOLING DX SINGLE SPEED 4, Design Size Rated Air Flow Rate [m3/s], 2.74148
 Component Sizing Information, Coil:Cooling:DX:SingleSpeed, COIL COOLING DX SINGLE SPEED 4, Design Size Gross Rated Total Cooling Capacity [W], 45381.17201
[...]
 Component Sizing Information, Fan:ConstantVolume, FAN CONSTANT VOLUME 18, Design Size Maximum Flow Rate [m3/s], 4.16918
 Component Sizing Information, Controller:OutdoorAir, CONTROLLER OUTDOOR AIR 17, Maximum Outdoor Air Flow Rate [m3/s], 7.71525
 Component Sizing Information, Controller:OutdoorAir, CONTROLLER OUTDOOR AIR 17, Minimum Outdoor Air Flow Rate [m3/s], 7.71525
 Component Sizing Information, Coil:Cooling:DX:SingleSpeed, COIL COOLING DX SINGLE SPEED 19, Design Size Rated Air Flow Rate [m3/s], 7.71525
 Component Sizing Information, Coil:Cooling:DX:SingleSpeed, COIL COOLING DX SINGLE SPEED 19, Design Size Gross Rated Total Cooling Capacity [W], 144523.68965
 Component Sizing Information, Coil:Cooling:DX:SingleSpeed, COIL COOLING DX SINGLE SPEED 19, Design Size Gross Rated Sensible Heat Ratio, 0.79889
 DX Cooling Coil Standard Rating Information, Coil:Cooling:DX:SingleSpeed, COIL COOLING DX SINGLE SPEED 19, 138534.3, 2.56, 8.73, 9.27, 8.97
 Component Sizing Information, Coil:Heating:Fuel, COIL HEATING GAS 15, Design Size Nominal Capacity [W], 707674.10357
 Component Sizing Information, Fan:ConstantVolume, FAN CONSTANT VOLUME 19, Design Size Maximum Flow Rate [m3/s], 7.71525
 Component Sizing Information, Fan:VariableVolume, SYS6 RETURN FAN, Design Size Maximum Flow Rate [m3/s], 10.10922
 Component Sizing Information, Controller:OutdoorAir, CONTROLLER OUTDOOR AIR 18, Maximum Outdoor Air Flow Rate [m3/s], 10.10922
 Component Sizing Information, Controller:OutdoorAir, CONTROLLER OUTDOOR AIR 18, Minimum Outdoor Air Flow Rate [m3/s], 4.85775
 Component Sizing Information, Coil:Cooling:Water, COIL COOLING WATER 1, Design Size Design Coil Load [W], 164600.78288
 Component Sizing Information, Coil:Cooling:Water, COIL COOLING WATER 1, Design Size Design Water Flow Rate [m3/s], 6.53556E-003
 Component Sizing Information, Coil:Cooling:Water, COIL COOLING WATER 1, Design Size Design Air Flow Rate [m3/s], 10.10922
 Component Sizing Information, Coil:Cooling:Water, COIL COOLING WATER 1, Design Size Design Inlet Air Temperature [C], 23.90704
 Component Sizing Information, Coil:Cooling:Water, COIL COOLING WATER 1, Design Size Design Inlet Water Temperature [C], 7.00000
 Component Sizing Information, Coil:Cooling:Water, COIL COOLING WATER 1, Design Size Design Outlet Air Temperature [C], 13.00000
 Component Sizing Information, Coil:Cooling:Water, COIL COOLING WATER 1, Design Size Design Inlet Air Humidity Ratio, 8.80482E-003
 Component Sizing Information, Coil:Cooling:Water, COIL COOLING WATER 1, Design Size Design Outlet Air Humidity Ratio, 8.76847E-003
! <Water Cooling Coil Capacity Information>,Component Type,Name,Nominal Total Capacity {W},Nominal Sensible Capacity {W},Nominal Latent Capacity {W},Nominal Sensible Heat Ratio, Nominal Coil UA Value {W/C}, Nominal Coil Surface Area {m2}
Water Cooling Coil Capacity Information,Coil:Cooling:Water,COIL COOLING WATER 1,224862.61,159048.07,65814.54,0.71,25615.86,259.81
 Component Sizing Information, Coil:Heating:Water, COIL HEATING WATER 3, Design Size Rated Capacity [W], 173158.58626
 Component Sizing Information, Coil:Heating:Water, COIL HEATING WATER 3, Design Size Maximum Water Flow Rate [m3/s], 2.58626E-003
 Component Sizing Information, Coil:Heating:Water, COIL HEATING WATER 3, Design Size U-Factor Times Area Value [W/K], 2113.04248
Water Heating Coil Capacity Information,Coil:Heating:Water,COIL HEATING WATER 3,96476.12
 Component Sizing Information, Fan:VariableVolume, SYS6 SUPPLY FAN, Design Size Maximum Flow Rate [m3/s], 10.10922
 Component Sizing Information, Controller:WaterCoil, CONTROLLER WATER COIL 4, Maximum Actuated Flow [m3/s], 6.53556E-003
 Component Sizing Information, Controller:WaterCoil, CONTROLLER WATER COIL 4, Controller Convergence Tolerance, 7.28615E-005
 Component Sizing Information, Controller:WaterCoil, CONTROLLER WATER COIL 3, Maximum Actuated Flow [m3/s], 2.58626E-003
 Component Sizing Information, Controller:WaterCoil, CONTROLLER WATER COIL 3, Controller Convergence Tolerance, 1.84123E-004
Water Heater Information,WaterHeater:Mixed,1102GAL NATURALGAS WATER HEATER - 2551KBTU/HR,4.1727,747564.6,0.165,0.9578
 Component Sizing Information, PlantLoop, CHILLED WATER LOOP, Maximum Loop Flow Rate [m3/s], 6.53556E-003
 Component Sizing Information, PlantLoop, CHILLED WATER LOOP, Plant Loop Volume [m3], 0.78427
 Component Sizing Information, Pump:ConstantSpeed, PUMP CONSTANT SPEED 1, Design Flow Rate [m3/s], 6.53556E-003
 Component Sizing Information, Pump:ConstantSpeed, PUMP CONSTANT SPEED 1, Design Power Consumption [W], 1669.75066
 Component Sizing Information, Chiller:Electric:EIR, PRIMARY CHILLER WATERCOOLED SCROLL, Design Size Reference Chilled Water Flow Rate [m3/s], 6.53556E-003
 Component Sizing Information, Chiller:Electric:EIR, PRIMARY CHILLER WATERCOOLED SCROLL, Design Size Reference Capacity [W], 164598.03823
 Component Sizing Information, Chiller:Electric:EIR, PRIMARY CHILLER WATERCOOLED SCROLL, Design Size Reference Condenser Fluid Flow Rate [m3/s], 7.75719E-003
! <Chiller Standard Rating Information>, Component Type, Component Name, IPLV in SI Units {W/W}, IPLV in IP Units {Btu/W-h}
 Chiller Standard Rating Information, Chiller:Electric:EIR, PRIMARY CHILLER WATERCOOLED SCROLL, 7.88, 26.88
 Component Sizing Information, Chiller:Electric:EIR, SECONDARY CHILLER WATERCOOLED SCROLL, Design Size Reference Chilled Water Flow Rate [m3/s], 6.53556E-003
 Component Sizing Information, Chiller:Electric:EIR, SECONDARY CHILLER WATERCOOLED SCROLL, Design Size Reference Capacity [W], 164598.03823
 Component Sizing Information, Chiller:Electric:EIR, SECONDARY CHILLER WATERCOOLED SCROLL, Design Size Reference Condenser Fluid Flow Rate [m3/s], 7.75719E-003
 Chiller Standard Rating Information, Chiller:Electric:EIR, SECONDARY CHILLER WATERCOOLED SCROLL, 7.88, 26.88
 Component Sizing Information, PlantLoop, CONDENSER WATER LOOP, Maximum Loop Flow Rate [m3/s], 1.55144E-002
 Component Sizing Information, PlantLoop, CONDENSER WATER LOOP, Plant Loop Volume [m3], 1.86173
 Component Sizing Information, Pump:ConstantSpeed, PUMP CONSTANT SPEED 2, Design Flow Rate [m3/s], 1.55144E-002
 Component Sizing Information, Pump:ConstantSpeed, PUMP CONSTANT SPEED 2, Design Power Consumption [W], 3963.72637
 Component Sizing Information, CoolingTower:SingleSpeed, COOLING TOWER SINGLE SPEED 1, Design Water Flow Rate [m3/s], 1.55144E-002
 Component Sizing Information, CoolingTower:SingleSpeed, COOLING TOWER SINGLE SPEED 1, Fan Power at Design Air Flow Rate [W], 3404.12155
 Component Sizing Information, CoolingTower:SingleSpeed, COOLING TOWER SINGLE SPEED 1, Design Air Flow Rate [m3/s], 9.36065
 Component Sizing Information, CoolingTower:SingleSpeed, COOLING TOWER SINGLE SPEED 1, U-Factor Times Area Value at Design Air Flow Rate [W/C], 16715.62614
 Component Sizing Information, CoolingTower:SingleSpeed, COOLING TOWER SINGLE SPEED 1, Free Convection Regime Air Flow Rate [m3/s], 0.93607
 Component Sizing Information, CoolingTower:SingleSpeed, COOLING TOWER SINGLE SPEED 1, Free Convection U-Factor Times Area Value [W/K], 1671.56261
 Component Sizing Information, PlantLoop, HOT WATER LOOP, Maximum Loop Flow Rate [m3/s], 8.27029E-003
 Component Sizing Information, PlantLoop, HOT WATER LOOP, Plant Loop Volume [m3], 0.99243
 Component Sizing Information, Pump:VariableSpeed, PUMP VARIABLE SPEED 1, Design Flow Rate [m3/s], 8.27029E-003
 Component Sizing Information, Pump:VariableSpeed, PUMP VARIABLE SPEED 1, Design Power Consumption [W], 2112.95320
 Component Sizing Information, Boiler:HotWater, PRIMARY BOILER, Design Size Nominal Capacity [W], 555865.60785
 Component Sizing Information, Boiler:HotWater, PRIMARY BOILER, Design Size Design Water Flow Rate [m3/s], 8.27029E-003
 Component Sizing Information, Boiler:HotWater, SECONDARY BOILER, Design Size Nominal Capacity [W], 555865.60785
 Component Sizing Information, Boiler:HotWater, SECONDARY BOILER, Design Size Design Water Flow Rate [m3/s], 8.27029E-003
 Component Sizing Information, PlantLoop, MAIN SERVICE WATER LOOP, Maximum Loop Flow Rate [m3/s], 1.63635E-003
 Component Sizing Information, PlantLoop, MAIN SERVICE WATER LOOP, Plant Loop Volume [m3], 0.19636
 Component Sizing Information, Pump:ConstantSpeed, SERVICE WATER LOOP PUMP, Design Flow Rate [m3/s], 1.63635E-003
 Component Sizing Information, Pump:ConstantSpeed, SERVICE WATER LOOP PUMP, Design Power Consumption [W], 3421.18790
 Component Sizing Information, WaterHeater:Mixed, 1102GAL NATURALGAS WATER HEATER - 2551KBTU/HR, Use Side Design Flow Rate [m3/s], 1.63635E-003
! <Environment>,Environment Name,Environment Type, Start Date, End Date, Start DayOfWeek, Duration {#days}, Source:Start DayOfWeek,  Use Daylight Saving, Use Holidays, Apply Weekend Holiday Rule,  Use Rain Values, Use Snow Values
! <Environment:Special Days>, Special Day Name, Special Day Type, Source, Start Date, Duration {#days}
! <Environment:Daylight Saving>, Daylight Saving Indicator, Source, Start Date, End Date
! <Environment:WarmupDays>, NumberofWarmupDays
Environment,FORT MCMURRAY AP ANN CLG .4% CONDNS DB=>MWB,SizingPeriod:DesignDay,07/21,07/21,SummerDesignDay,1,N/A,N/A,N/A,N/A,N/A,N/A
Environment:Daylight Saving,No,SizingPeriod:DesignDay
! <Environment:Design Day Data>, Max Dry-Bulb Temp {C}, Temp Range {dC}, Temp Range Ind Type, Hum Ind Value at Max Temp, Hum Ind Type,Pressure {Pa}, Wind Direction {deg CW from N}, Wind Speed {m/s}, Clearness, Rain, Snow
! <Environment:Design Day Misc>,DayOfYear,ASHRAE A Coeff,ASHRAE B Coeff,ASHRAE C Coeff,Solar Constant-Annual Variation,Eq of Time {minutes}, Solar Declination Angle {deg}, Solar Model
Environment:Design Day Data,28.90,12.40,DefaultMultipliers,96969,250,3.7,0.00,No,No
Environment:Design Day Misc,202,1084.4,0.2082,0.1365,1.0,-6.23,20.6,ASHRAETau
Environment:WarmupDays,  6
! <Tabular Report>,Style,Unit Conversion
Tabular Report,HTML,None
! <Warmup Convergence Information>,Zone Name,Environment Type/Name,Average Warmup Temperature Difference {deltaC},Std Dev Warmup Temperature Difference {deltaC},Max Temperature Pass/Fail Convergence,Min Temperature Pass/Fail Convergence,Average Warmup Load Difference {W},Std Dev Warmup Load Difference {W},Heating Load Pass/Fail Convergence,Cooling Load Pass/Fail Convergence
 Warmup Convergence Information,ALL_ST=HOSPITAL - MEDICAL SUPPLY - OCCSENS_FL=STORY 4_SCH=H,SizingPeriod: FORT MCMURRAY AP ANN CLG .4% CONDNS DB=>MWB,1.9212171215E-003,6.4970365433E-003,Pass,Pass,1.5057008885E-002,1.0756426256E-002,Pass,Pass
 Warmup Convergence Information,ALL_ST=HOSPITAL - NURSERY_FL=STORY 4_SCH=H,SizingPeriod: FORT MCMURRAY AP ANN CLG .4% CONDNS DB=>MWB,5.0261401495E-005,1.1106342173E-004,Pass,Pass,1.6379783239E-002,1.0016719853E-002,Pass,Pass
 Warmup Convergence Information,ALL_ST=HOSPITAL - NURSES STATION_FL=STORY 4_SCH=H,SizingPeriod: FORT MCMURRAY AP ANN CLG .4% CONDNS DB=>MWB,2.1115531946E-003,8.0403024877E-003,Pass,Pass,1.6334702497E-002,1.1763700797E-002,Pass,Pass
 Warmup Convergence Information,ALL_ST=HOSPITAL - OPERATING ROOM_FL=STORY 4_SCH=H,SizingPeriod: FORT MCMURRAY AP ANN CLG .4% CONDNS DB=>MWB,1.9082804036E-002,3.6752968585E-002,Pass,Pass,1.0822364568E-002,1.0553935140E-002,Pass,Pass
 Warmup Convergence Information,ALL_ST=HOSPITAL - PATIENT ROOM_FL=STORY 3_SCH=H,SizingPeriod: FORT MCMURRAY AP ANN CLG .4% CONDNS DB=>MWB,5.6039231500E-004,2.1438638912E-003,Pass,Pass,2.0265067421E-003,1.3161601306E-003,Pass,Pass
 Warmup Convergence Information,ALL_ST=HOSPITAL - PHARMACY_FL=STORY 4_SCH=C,SizingPeriod: FORT MCMURRAY AP ANN CLG .4% CONDNS DB=>MWB,4.9130228595E-002,7.0010600743E-002,Pass,Pass,2.7920014227E-002,7.1354890088E-002,Pass,Pass
 Warmup Convergence Information,ALL_ST=HOSPITAL - PHYSICAL THERAPY_FL=STORY 3_SCH=C,SizingPeriod: FORT MCMURRAY AP ANN CLG .4% CONDNS DB=>MWB,3.8076068776E-002,5.2108546457E-002,Pass,Pass,2.5340990378E-002,0.1077679548,Pass,Pass
 Warmup Convergence Information,ALL_ST=HOSPITAL - RADIOLOGY/IMAGING_FL=STORY 3_SCH=H,SizingPeriod: FORT MCMURRAY AP ANN CLG .4% CONDNS DB=>MWB,7.6355713907E-005,2.0027578166E-004,Pass,Pass,3.1315373792E-003,2.0011326987E-003,Pass,Pass
 Warmup Convergence Information,ALL_ST=HOSPITAL - RECOVERY_FL=STORY 1_SCH=H,SizingPeriod: FORT MCMURRAY AP ANN CLG .4% CONDNS DB=>MWB,3.0002766218E-002,4.9995120637E-002,Pass,Pass,8.4178546615E-003,1.4893286441E-002,Pass,Pass
 Warmup Convergence Information,ALL_ST=HOTEL/MOTEL - DINING_FL=STORY 1_SCH=B,SizingPeriod: FORT MCMURRAY AP ANN CLG .4% CONDNS DB=>MWB,5.3122443058E-002,9.1131749097E-002,Pass,Pass,4.8644732817E-002,9.2957606728E-002,Pass,Pass
 Warmup Convergence Information,ALL_ST=HOTEL/MOTEL - LOBBY_FL=STORY 3_SCH=H,SizingPeriod: FORT MCMURRAY AP ANN CLG .4% CONDNS DB=>MWB,7.3327846905E-005,1.8537383288E-004,Pass,Pass,6.5978779941E-003,5.1569390023E-003,Pass,Pass
 Warmup Convergence Information,ALL_ST=HWAY LODGING - DINING_FL=STORY 1_SCH=B,SizingPeriod: FORT MCMURRAY AP ANN CLG .4% CONDNS DB=>MWB,5.3214737774E-002,9.2210388779E-002,Pass,Pass,5.2744702629E-002,0.1105765480,Pass,Pass
 Warmup Convergence Information,ALL_ST=LAB - CLASSROOMS_FL=STORY 1_SCH=D,SizingPeriod: FORT MCMURRAY AP ANN CLG .4% CONDNS DB=>MWB,4.0054318885E-002,7.3200843037E-002,Pass,Pass,3.4971735847E-002,0.1180321945,Pass,Pass
 Warmup Convergence Information,ALL_ST=LAB - RESEARCH_FL=STORY 1_SCH=A,SizingPeriod: FORT MCMURRAY AP ANN CLG .4% CONDNS DB=>MWB,4.1461512217E-002,9.7566140742E-002,Pass,Pass,3.3144821215E-002,8.4316346185E-002,Pass,Pass
 Warmup Convergence Information,ALL_ST=LIBRARY - CATALOGING_FL=STORY 2_SCH=C,SizingPeriod: FORT MCMURRAY AP ANN CLG .4% CONDNS DB=>MWB,8.8173769505E-003,1.9329339406E-002,Pass,Pass,1.7942798222E-002,7.9688459066E-002,Pass,Pass
 Warmup Convergence Information,ALL_ST=LIBRARY - READING_FL=STORY 2_SCH=C,SizingPeriod: FORT MCMURRAY AP ANN CLG .4% CONDNS DB=>MWB,1.1634711117E-002,2.9101649217E-002,Pass,Pass,1.7762549474E-002,6.4402708113E-002,Pass,Pass
 Warmup Convergence Information,ALL_ST=LIBRARY - STACKS_FL=STORY 2_SCH=C,SizingPeriod: FORT MCMURRAY AP ANN CLG .4% CONDNS DB=>MWB,1.3108495692E-002,1.8955796377E-002,Pass,Pass,1.5554967621E-002,6.4019657269E-002,Pass,Pass
 Warmup Convergence Information,ALL_ST=LOBBY - ELEVATOR_FL=STORY 2_SCH=C,SizingPeriod: FORT MCMURRAY AP ANN CLG .4% CONDNS DB=>MWB,5.1839798410E-002,8.0114119239E-002,Pass,Pass,3.0466056253E-002,5.0563435185E-002,Pass,Pass
 Warmup Convergence Information,DU_BT=SPACE FUNCTION_ST=HOTEL/MOTEL - ROOMS_FL=STORY 2_SCHF,SizingPeriod: FORT MCMURRAY AP ANN CLG .4% CONDNS DB=>MWB,5.1542632236E-003,1.7849263181E-002,Pass,Pass,3.0236530671E-002,4.5761646420E-002,Pass,Pass
 Warmup Convergence Information,DU_BT=SPACE FUNCTION_ST=HWAY LODGING - ROOMS_FL=STORY 3_SCHF,SizingPeriod: FORT MCMURRAY AP ANN CLG .4% CONDNS DB=>MWB,4.9741474902E-003,1.7075592362E-002,Pass,Pass,2.6768792929E-002,3.5520183560E-002,Pass,Pass
Environment,FORT MCMURRAY AP ANN HTG 99.6% CONDNS DB,SizingPeriod:DesignDay,01/21,01/21,WinterDesignDay,1,N/A,N/A,N/A,N/A,N/A,N/A
Environment:Daylight Saving,No,SizingPeriod:DesignDay
Environment:Design Day Data,-36.20,0.00,DefaultMultipliers,96969,90,1.0,0.00,No,No
Environment:Design Day Misc, 21,1229.0,0.1415,5.7310E-002,1.0,-11.15,-20.1,ASHRAEClearSky
Environment:WarmupDays,  6
 Warmup Convergence Information,ALL_ST=HOSPITAL - MEDICAL SUPPLY - OCCSENS_FL=STORY 4_SCH=H,SizingPeriod: FORT MCMURRAY AP ANN HTG 99.6% CONDNS DB,5.5561701403E-002,0.2747688099,Pass,Pass,0.2025428369,1.1796537116,Pass,Pass
 Warmup Convergence Information,ALL_ST=HOSPITAL - NURSERY_FL=STORY 4_SCH=H,SizingPeriod: FORT MCMURRAY AP ANN HTG 99.6% CONDNS DB,5.5567110397E-002,0.3103189063,Pass,Pass,9.5956962877E-002,0.3374560585,Pass,Pass
 Warmup Convergence Information,ALL_ST=HOSPITAL - NURSES STATION_FL=STORY 4_SCH=H,SizingPeriod: FORT MCMURRAY AP ANN HTG 99.6% CONDNS DB,5.5574504064E-002,0.2965354206,Pass,Pass,0.2367507679,0.9214093834,Pass,Pass
 Warmup Convergence Information,ALL_ST=HOSPITAL - OPERATING ROOM_FL=STORY 4_SCH=H,SizingPeriod: FORT MCMURRAY AP ANN HTG 99.6% CONDNS DB,5.5605706575E-002,0.3057171246,Pass,Pass,0.1162987640,0.5816380816,Pass,Pass
 Warmup Convergence Information,ALL_ST=HOSPITAL - PATIENT ROOM_FL=STORY 3_SCH=H,SizingPeriod: FORT MCMURRAY AP ANN HTG 99.6% CONDNS DB,1.6660295919E-002,9.6009716060E-002,Pass,Pass,7.2989147823E-003,3.1690772236E-002,Pass,Pass
 Warmup Convergence Information,ALL_ST=HOSPITAL - PHARMACY_FL=STORY 4_SCH=C,SizingPeriod: FORT MCMURRAY AP ANN HTG 99.6% CONDNS DB,5.5562643393E-002,0.3212704806,Pass,Pass,4.1323755566E-002,0.1315913734,Pass,Pass
 Warmup Convergence Information,ALL_ST=HOSPITAL - PHYSICAL THERAPY_FL=STORY 3_SCH=C,SizingPeriod: FORT MCMURRAY AP ANN HTG 99.6% CONDNS DB,5.5560259857E-002,0.2758620386,Pass,Pass,0.2275990347,0.4883584618,Pass,Pass
 Warmup Convergence Information,ALL_ST=HOSPITAL - RADIOLOGY/IMAGING_FL=STORY 3_SCH=H,SizingPeriod: FORT MCMURRAY AP ANN HTG 99.6% CONDNS DB,4.4279068140E-002,0.2037749624,Pass,Pass,0.3222393106,3.2990874522,Pass,Pass
 Warmup Convergence Information,ALL_ST=HOSPITAL - RECOVERY_FL=STORY 1_SCH=H,SizingPeriod: FORT MCMURRAY AP ANN HTG 99.6% CONDNS DB,5.7441125993E-002,0.2809313381,Pass,Pass,3.3838947108E-002,0.1384706533,Pass,Pass
 Warmup Convergence Information,ALL_ST=HOTEL/MOTEL - DINING_FL=STORY 1_SCH=B,SizingPeriod: FORT MCMURRAY AP ANN HTG 99.6% CONDNS DB,5.5589023366E-002,0.3145646463,Pass,Pass,0.3733260584,1.2683559942,Pass,Pass
 Warmup Convergence Information,ALL_ST=HOTEL/MOTEL - LOBBY_FL=STORY 3_SCH=H,SizingPeriod: FORT MCMURRAY AP ANN HTG 99.6% CONDNS DB,5.0935149872E-002,0.2328935825,Pass,Pass,9.8308054177E-002,0.6295096123,Pass,Pass
 Warmup Convergence Information,ALL_ST=HWAY LODGING - DINING_FL=STORY 1_SCH=B,SizingPeriod: FORT MCMURRAY AP ANN HTG 99.6% CONDNS DB,5.5600388347E-002,0.3131345858,Pass,Pass,0.7524967664,5.8184912541,Pass,Pass
 Warmup Convergence Information,ALL_ST=LAB - CLASSROOMS_FL=STORY 1_SCH=D,SizingPeriod: FORT MCMURRAY AP ANN HTG 99.6% CONDNS DB,5.5597424543E-002,0.2540246978,Pass,Pass,0.1917500693,1.3936663929,Pass,Pass
 Warmup Convergence Information,ALL_ST=LAB - RESEARCH_FL=STORY 1_SCH=A,SizingPeriod: FORT MCMURRAY AP ANN HTG 99.6% CONDNS DB,5.5600024304E-002,0.2441859732,Pass,Pass,0.4446748569,2.7722557238,Pass,Pass
 Warmup Convergence Information,ALL_ST=LIBRARY - CATALOGING_FL=STORY 2_SCH=C,SizingPeriod: FORT MCMURRAY AP ANN HTG 99.6% CONDNS DB,3.2785039372E-002,6.3029991294E-002,Pass,Pass,6.4299470911E-002,0.3790907658,Pass,Pass
 Warmup Convergence Information,ALL_ST=LIBRARY - READING_FL=STORY 2_SCH=C,SizingPeriod: FORT MCMURRAY AP ANN HTG 99.6% CONDNS DB,5.5310246827E-002,0.1048498919,Pass,Pass,4.4186022740E-002,0.1386331785,Pass,Pass
 Warmup Convergence Information,ALL_ST=LIBRARY - STACKS_FL=STORY 2_SCH=C,SizingPeriod: FORT MCMURRAY AP ANN HTG 99.6% CONDNS DB,7.3051257525E-002,0.1532547920,Pass,Pass,6.1425107616E-002,0.3508801961,Pass,Pass
 Warmup Convergence Information,ALL_ST=LOBBY - ELEVATOR_FL=STORY 2_SCH=C,SizingPeriod: FORT MCMURRAY AP ANN HTG 99.6% CONDNS DB,5.5557998337E-002,0.3093586228,Pass,Pass,0.2172432782,0.6683418487,Pass,Pass
 Warmup Convergence Information,DU_BT=SPACE FUNCTION_ST=HOTEL/MOTEL - ROOMS_FL=STORY 2_SCHF,SizingPeriod: FORT MCMURRAY AP ANN HTG 99.6% CONDNS DB,2.4041617824E-002,2.8818306916E-002,Pass,Pass,6.5503065319E-002,0.1320790400,Pass,Pass
 Warmup Convergence Information,DU_BT=SPACE FUNCTION_ST=HWAY LODGING - ROOMS_FL=STORY 3_SCHF,SizingPeriod: FORT MCMURRAY AP ANN HTG 99.6% CONDNS DB,3.5365159519E-002,4.3327913699E-002,Pass,Pass,9.8308555713E-002,0.2926054270,Pass,Pass
! <Program Control Information:Threads/Parallel Sims>, Threading Supported,Maximum Number of Threads, Env Set Threads (OMP_NUM_THREADS), EP Env Set Threads (EP_OMP_NUM_THREADS), IDF Set Threads, Number of Threads Used (Interior Radiant Exchange), Number Nominal Surfaces, Number Parallel Sims
Program Control:Threads/Parallel Sims, No,1, N/A, N/A, N/A, N/A, N/A, N/A
End of Data
