{
   "completed_at" : "20190320T200726Z",
   "completed_status" : "Success",
   "created_at" : "20190320T200720Z",
   "current_step" : 0,
   "eplusout_err" : "Program Version,EnergyPlus, Version 8.9.0-eba93e8e1b, YMD=2019.03.20 20:07,\n   ************* Beginning Zone Sizing Calculations\n   ** Warning ** ProcessScheduleInput: Schedule:Day:Interval=\"SCHEDULE DAY 1\", Blank Schedule Type Limits Name input -- will not be validated.\n   ** Warning ** ProcessScheduleInput: Schedule:Day:Interval=\"SCHEDULE DAY 10\", Blank Schedule Type Limits Name input -- will not be validated.\n   ** Warning ** ProcessScheduleInput: Schedule:Day:Interval=\"SCHEDULE DAY 11\", Blank Schedule Type Limits Name input -- will not be validated.\n   ** Warning ** ProcessScheduleInput: Schedule:Day:Interval=\"SCHEDULE DAY 12\", Blank Schedule Type Limits Name input -- will not be validated.\n   ** Warning ** ProcessScheduleInput: Schedule:Day:Interval=\"SCHEDULE DAY 13\", Blank Schedule Type Limits Name input -- will not be validated.\n   ** Warning ** ProcessScheduleInput: Schedule:Day:Interval=\"SCHEDULE DAY 14\", Blank Schedule Type Limits Name input -- will not be validated.\n   ** Warning ** ProcessScheduleInput: Schedule:Day:Interval=\"SCHEDULE DAY 2\", Blank Schedule Type Limits Name input -- will not be validated.\n   ** Warning ** ProcessScheduleInput: Schedule:Day:Interval=\"SCHEDULE DAY 6\", Blank Schedule Type Limits Name input -- will not be validated.\n   ** Warning ** ProcessScheduleInput: Schedule:Day:Interval=\"SCHEDULE DAY 7\", Blank Schedule Type Limits Name input -- will not be validated.\n   ** Warning ** ProcessScheduleInput: Schedule:Day:Interval=\"SCHEDULE DAY 8\", Blank Schedule Type Limits Name input -- will not be validated.\n   ** Warning ** ProcessScheduleInput: Schedule:Day:Interval=\"SCHEDULE DAY 9\", Blank Schedule Type Limits Name input -- will not be validated.\n   ** Warning ** ProcessScheduleInput: Schedule:Year=\"SCHEDULE RULESET 10\", Blank Schedule Type Limits Name input -- will not be validated.\n   ** Warning ** ProcessScheduleInput: Schedule:Year=\"SCHEDULE RULESET 11\", Blank Schedule Type Limits Name input -- will not be validated.\n   ** Warning ** ProcessScheduleInput: Schedule:Year=\"SCHEDULE RULESET 3\", Blank Schedule Type Limits Name input -- will not be validated.\n   ** Warning ** ProcessScheduleInput: Schedule:Year=\"SCHEDULE RULESET 4\", Blank Schedule Type Limits Name input -- will not be validated.\n   ** Warning ** ProcessScheduleInput: Schedule:Year=\"SCHEDULE RULESET 5\", Blank Schedule Type Limits Name input -- will not be validated.\n   ** Warning ** ProcessScheduleInput: Schedule:Year=\"SCHEDULE RULESET 6\", Blank Schedule Type Limits Name input -- will not be validated.\n   ** Warning ** ProcessScheduleInput: Schedule:Year=\"SCHEDULE RULESET 7\", Blank Schedule Type Limits Name input -- will not be validated.\n   ** Warning ** ProcessScheduleInput: Schedule:Year=\"SCHEDULE RULESET 8\", Blank Schedule Type Limits Name input -- will not be validated.\n   ** Warning ** ProcessScheduleInput: Schedule:Year=\"SCHEDULE RULESET 9\", Blank Schedule Type Limits Name input -- will not be validated.\n   ** Warning ** ProcessScheduleInput: Schedule:Constant=\"ALWAYS OFF DISCRETE\", Blank Schedule Type Limits Name input -- will not be validated.\n   ** Warning ** ProcessScheduleInput: Schedule:Constant=\"ALWAYS ON CONTINUOUS\", Blank Schedule Type Limits Name input -- will not be validated.\n   ** Warning ** CheckUsedConstructions: There are 32 nominally unused constructions in input.\n   **   ~~~   ** For explicit details on each unused construction, use Output:Diagnostics,DisplayExtraWarnings;\n   ** Warning ** GetInternalHeatGains: People Combination of ZoneList and Object Name generate a name too long.\n   **   ~~~   ** Object Name=\"SPACE FUNCTION ELECTRICAL/MECHANICAL ROOM-SCH-C PEOPLE\".\n   **   ~~~   ** ZoneList/Zone Name=\"SP-ELECTRICAL/MECHANICAL ROOM-SCH-C-SPACE FUNCTION SYS-3 FLR-1 SCH-C HPLCMT-CORE ZN\".\n   **   ~~~   ** Item length=[137] > Maximum Length=[100]. You may need to shorten the names.\n   **   ~~~   ** Shortening the Object Name by [38] characters will assure uniqueness for this ZoneList.\n   **   ~~~   ** name that will be used (may be needed in reporting)=\"SP-ELECTRICAL/MECHANICAL ROOM-SCH-C-SPACE FUNCTION SYS-3 FLR-1 SCH-C HPLCMT-CORE ZN SPACE FUNCTION ELECTRICAL/MECHANICAL ROOM-SCH-C PEOPLE\".\n   ** Warning ** GetInternalHeatGains: People Combination of ZoneList and Object Name generate a name too long.\n   **   ~~~   ** Object Name=\"SPACE FUNCTION ELECTRICAL/MECHANICAL ROOM-SCH-D PEOPLE\".\n   **   ~~~   ** ZoneList/Zone Name=\"SP-ELECTRICAL/MECHANICAL ROOM-SCH-D-SPACE FUNCTION SYS-3 FLR-1 SCH-D HPLCMT-SOUTH ZN\".\n   **   ~~~   ** Item length=[138] > Maximum Length=[100]. You may need to shorten the names.\n   **   ~~~   ** Shortening the Object Name by [39] characters will assure uniqueness for this ZoneList.\n   **   ~~~   ** name that will be used (may be needed in reporting)=\"SP-ELECTRICAL/MECHANICAL ROOM-SCH-D-SPACE FUNCTION SYS-3 FLR-1 SCH-D HPLCMT-SOUTH ZN SPACE FUNCTION ELECTRICAL/MECHANICAL ROOM-SCH-D PEOPLE\".\n   ** Warning ** GetInternalHeatGains: People Combination of ZoneList and Object Name generate a name too long.\n   **   ~~~   ** Object Name=\"SPACE FUNCTION FOOD PREPARATION AREA PEOPLE\".\n   **   ~~~   ** ZoneList/Zone Name=\"SP-FOOD PREPARATION AREA-SPACE FUNCTION SYS-3 FLR-1 SCH-B HPLCMT-EAST ZN\".\n   **   ~~~   ** Item length=[115] > Maximum Length=[100]. You may need to shorten the names.\n   **   ~~~   ** Shortening the Object Name by [16] characters will assure uniqueness for this ZoneList.\n   **   ~~~   ** name that will be used (may be needed in reporting)=\"SP-FOOD PREPARATION AREA-SPACE FUNCTION SYS-3 FLR-1 SCH-B HPLCMT-EAST ZN SPACE FUNCTION FOOD PREPARATION AREA PEOPLE\".\n   ** Warning ** GetInternalHeatGains: People Combination of ZoneList and Object Name generate a name too long.\n   **   ~~~   ** Object Name=\"SPACE FUNCTION LABORATORY - CLASSROOMS PEOPLE\".\n   **   ~~~   ** ZoneList/Zone Name=\"SP-LABORATORY - CLASSROOMS-SPACE FUNCTION SYS-3 FLR-1 SCH-D HPLCMT-WEST ZN\".\n   **   ~~~   ** Item length=[119] > Maximum Length=[100]. You may need to shorten the names.\n   **   ~~~   ** Shortening the Object Name by [20] characters will assure uniqueness for this ZoneList.\n   **   ~~~   ** name that will be used (may be needed in reporting)=\"SP-LABORATORY - CLASSROOMS-SPACE FUNCTION SYS-3 FLR-1 SCH-D HPLCMT-WEST ZN SPACE FUNCTION LABORATORY - CLASSROOMS PEOPLE\".\n   ** Warning ** GetInternalHeatGains: Lights Combination of ZoneList and Object Name generate a name too long.\n   **   ~~~   ** Object Name=\"SPACE FUNCTION ELECTRICAL/MECHANICAL ROOM-SCH-C LIGHTS\".\n   **   ~~~   ** ZoneList/Zone Name=\"SP-ELECTRICAL/MECHANICAL ROOM-SCH-C-SPACE FUNCTION SYS-3 FLR-1 SCH-C HPLCMT-CORE ZN\".\n   **   ~~~   ** Item length=[137] > Maximum Length=[100]. You may need to shorten the names.\n   **   ~~~   ** Shortening the Object Name by [38] characters will assure uniqueness for this ZoneList.\n   **   ~~~   ** name that will be used (may be needed in reporting)=\"SP-ELECTRICAL/MECHANICAL ROOM-SCH-C-SPACE FUNCTION SYS-3 FLR-1 SCH-C HPLCMT-CORE ZN SPACE FUNCTION ELECTRICAL/MECHANICAL ROOM-SCH-C LIGHTS\".\n   ** Warning ** GetInternalHeatGains: Lights Combination of ZoneList and Object Name generate a name too long.\n   **   ~~~   ** Object Name=\"SPACE FUNCTION ELECTRICAL/MECHANICAL ROOM-SCH-D LIGHTS\".\n   **   ~~~   ** ZoneList/Zone Name=\"SP-ELECTRICAL/MECHANICAL ROOM-SCH-D-SPACE FUNCTION SYS-3 FLR-1 SCH-D HPLCMT-SOUTH ZN\".\n   **   ~~~   ** Item length=[138] > Maximum Length=[100]. You may need to shorten the names.\n   **   ~~~   ** Shortening the Object Name by [39] characters will assure uniqueness for this ZoneList.\n   **   ~~~   ** name that will be used (may be needed in reporting)=\"SP-ELECTRICAL/MECHANICAL ROOM-SCH-D-SPACE FUNCTION SYS-3 FLR-1 SCH-D HPLCMT-SOUTH ZN SPACE FUNCTION ELECTRICAL/MECHANICAL ROOM-SCH-D LIGHTS\".\n   ** Warning ** GetInternalHeatGains: Lights Combination of ZoneList and Object Name generate a name too long.\n   **   ~~~   ** Object Name=\"SPACE FUNCTION FOOD PREPARATION AREA LIGHTS\".\n   **   ~~~   ** ZoneList/Zone Name=\"SP-FOOD PREPARATION AREA-SPACE FUNCTION SYS-3 FLR-1 SCH-B HPLCMT-EAST ZN\".\n   **   ~~~   ** Item length=[115] > Maximum Length=[100]. You may need to shorten the names.\n   **   ~~~   ** Shortening the Object Name by [16] characters will assure uniqueness for this ZoneList.\n   **   ~~~   ** name that will be used (may be needed in reporting)=\"SP-FOOD PREPARATION AREA-SPACE FUNCTION SYS-3 FLR-1 SCH-B HPLCMT-EAST ZN SPACE FUNCTION FOOD PREPARATION AREA LIGHTS\".\n   ** Warning ** GetInternalHeatGains: Lights Combination of ZoneList and Object Name generate a name too long.\n   **   ~~~   ** Object Name=\"SPACE FUNCTION LABORATORY - CLASSROOMS LIGHTS\".\n   **   ~~~   ** ZoneList/Zone Name=\"SP-LABORATORY - CLASSROOMS-SPACE FUNCTION SYS-3 FLR-1 SCH-D HPLCMT-WEST ZN\".\n   **   ~~~   ** Item length=[119] > Maximum Length=[100]. You may need to shorten the names.\n   **   ~~~   ** Shortening the Object Name by [20] characters will assure uniqueness for this ZoneList.\n   **   ~~~   ** name that will be used (may be needed in reporting)=\"SP-LABORATORY - CLASSROOMS-SPACE FUNCTION SYS-3 FLR-1 SCH-D HPLCMT-WEST ZN SPACE FUNCTION LABORATORY - CLASSROOMS LIGHTS\".\n   ** Warning ** GetInternalHeatGains: ElectricEquipment Combination of ZoneList and Object Name generate a name too long.\n   **   ~~~   ** Object Name=\"SPACE FUNCTION ELECTRICAL/MECHANICAL ROOM-SCH-C ELEC EQUIP\".\n   **   ~~~   ** ZoneList/Zone Name=\"SP-ELECTRICAL/MECHANICAL ROOM-SCH-C-SPACE FUNCTION SYS-3 FLR-1 SCH-C HPLCMT-CORE ZN\".\n   **   ~~~   ** Item length=[141] > Maximum Length=[100]. You may need to shorten the names.\n   **   ~~~   ** Shortening the Object Name by [42] characters will assure uniqueness for this ZoneList.\n   **   ~~~   ** name that will be used (may be needed in reporting)=\"SP-ELECTRICAL/MECHANICAL ROOM-SCH-C-SPACE FUNCTION SYS-3 FLR-1 SCH-C HPLCMT-CORE ZN SPACE FUNCTION ELECTRICAL/MECHANICAL ROOM-SCH-C ELEC EQUIP\".\n   ** Warning ** GetInternalHeatGains: ElectricEquipment Combination of ZoneList and Object Name generate a name too long.\n   **   ~~~   ** Object Name=\"SPACE FUNCTION ELECTRICAL/MECHANICAL ROOM-SCH-D ELEC EQUIP\".\n   **   ~~~   ** ZoneList/Zone Name=\"SP-ELECTRICAL/MECHANICAL ROOM-SCH-D-SPACE FUNCTION SYS-3 FLR-1 SCH-D HPLCMT-SOUTH ZN\".\n   **   ~~~   ** Item length=[142] > Maximum Length=[100]. You may need to shorten the names.\n   **   ~~~   ** Shortening the Object Name by [43] characters will assure uniqueness for this ZoneList.\n   **   ~~~   ** name that will be used (may be needed in reporting)=\"SP-ELECTRICAL/MECHANICAL ROOM-SCH-D-SPACE FUNCTION SYS-3 FLR-1 SCH-D HPLCMT-SOUTH ZN SPACE FUNCTION ELECTRICAL/MECHANICAL ROOM-SCH-D ELEC EQUIP\".\n   ** Warning ** GetInternalHeatGains: ElectricEquipment Combination of ZoneList and Object Name generate a name too long.\n   **   ~~~   ** Object Name=\"SPACE FUNCTION FOOD PREPARATION AREA ELEC EQUIP\".\n   **   ~~~   ** ZoneList/Zone Name=\"SP-FOOD PREPARATION AREA-SPACE FUNCTION SYS-3 FLR-1 SCH-B HPLCMT-EAST ZN\".\n   **   ~~~   ** Item length=[119] > Maximum Length=[100]. You may need to shorten the names.\n   **   ~~~   ** Shortening the Object Name by [20] characters will assure uniqueness for this ZoneList.\n   **   ~~~   ** name that will be used (may be needed in reporting)=\"SP-FOOD PREPARATION AREA-SPACE FUNCTION SYS-3 FLR-1 SCH-B HPLCMT-EAST ZN SPACE FUNCTION FOOD PREPARATION AREA ELEC EQUIP\".\n   ** Warning ** GetInternalHeatGains: ElectricEquipment Combination of ZoneList and Object Name generate a name too long.\n   **   ~~~   ** Object Name=\"SPACE FUNCTION LABORATORY - CLASSROOMS ELEC EQUIP\".\n   **   ~~~   ** ZoneList/Zone Name=\"SP-LABORATORY - CLASSROOMS-SPACE FUNCTION SYS-3 FLR-1 SCH-D HPLCMT-WEST ZN\".\n   **   ~~~   ** Item length=[123] > Maximum Length=[100]. You may need to shorten the names.\n   **   ~~~   ** Shortening the Object Name by [24] characters will assure uniqueness for this ZoneList.\n   **   ~~~   ** name that will be used (may be needed in reporting)=\"SP-LABORATORY - CLASSROOMS-SPACE FUNCTION SYS-3 FLR-1 SCH-D HPLCMT-WEST ZN SPACE FUNCTION LABORATORY - CLASSROOMS ELEC EQUIP\".\n   ** Warning ** Calculated design heating load for zone=SP-FOOD PREPARATION AREA-SPACE FUNCTION SYS-3 FLR-1 SCH-B HPLCMT-EAST ZN is zero.\n   **   ~~~   ** Check Sizing:Zone and ZoneControl:Thermostat inputs.\n   ** Warning ** Calculated design heating load for zone=SP-GUEST ROOM-SPACE FUNCTION SYS-1 FLR-1 SCH-F HPLCMT-NORTH ZN is zero.\n   **   ~~~   ** Check Sizing:Zone and ZoneControl:Thermostat inputs.\n   ************* Beginning System Sizing Calculations\n   ** Warning ** GetDXCoils: Coil:Cooling:DX:SingleSpeed=\"COIL COOLING DX SINGLE SPEED 2\", invalid\n   **   ~~~   ** ...Part Load Fraction Correlation Curve Name = CURVE CUBIC 2 has out of range value.\n   **   ~~~   ** ...Curve maximum must be <= 1.0, curve max at PLR = 0.99 is 1.015\n   **   ~~~   ** ...Setting curve maximum to 1.0 and simulation continues.\n   ** Warning ** GetDXCoils: Coil:Cooling:DX:SingleSpeed=\"COIL COOLING DX SINGLE SPEED 1\", invalid\n   **   ~~~   ** ...Part Load Fraction Correlation Curve Name = CURVE CUBIC 1 has out of range value.\n   **   ~~~   ** ...Curve maximum must be <= 1.0, curve max at PLR = 0.99 is 1.015\n   **   ~~~   ** ...Setting curve maximum to 1.0 and simulation continues.\n   ************* Beginning Plant Sizing Calculations\n   ** Warning ** The Standard Ratings is calculated for Coil:Cooling:DX:SingleSpeed = COIL COOLING DX SINGLE SPEED 2 but not at the AHRI test condition due to curve out of bound.\n   **   ~~~   **  Review the Standard Ratings calculations in the Engineering Reference for this coil type. Also, use Output:Diagnostics, DisplayExtraWarnings for further guidance.\n   ** Warning ** The Standard Ratings is calculated for Coil:Cooling:DX:SingleSpeed = COIL COOLING DX SINGLE SPEED 1 but not at the AHRI test condition due to curve out of bound.\n   **   ~~~   **  Review the Standard Ratings calculations in the Engineering Reference for this coil type. Also, use Output:Diagnostics, DisplayExtraWarnings for further guidance.\n   ** Warning ** The Standard Ratings is calculated for Coil:Cooling:DX:SingleSpeed = COIL COOLING DX SINGLE SPEED 3 but not at the AHRI test condition due to curve out of bound.\n   **   ~~~   **  Review the Standard Ratings calculations in the Engineering Reference for this coil type. Also, use Output:Diagnostics, DisplayExtraWarnings for further guidance.\n   ** Warning ** The Standard Ratings is calculated for Coil:Cooling:DX:SingleSpeed = COIL COOLING DX SINGLE SPEED 5 but not at the AHRI test condition due to curve out of bound.\n   **   ~~~   **  Review the Standard Ratings calculations in the Engineering Reference for this coil type. Also, use Output:Diagnostics, DisplayExtraWarnings for further guidance.\n   ** Warning ** The Standard Ratings is calculated for Coil:Cooling:DX:SingleSpeed = COIL COOLING DX SINGLE SPEED 6 but not at the AHRI test condition due to curve out of bound.\n   **   ~~~   **  Review the Standard Ratings calculations in the Engineering Reference for this coil type. Also, use Output:Diagnostics, DisplayExtraWarnings for further guidance.\n   ** Warning ** The Standard Ratings is calculated for Coil:Cooling:DX:SingleSpeed = COIL COOLING DX SINGLE SPEED 4 but not at the AHRI test condition due to curve out of bound.\n   **   ~~~   **  Review the Standard Ratings calculations in the Engineering Reference for this coil type. Also, use Output:Diagnostics, DisplayExtraWarnings for further guidance.\n   ** Warning ** Output:Meter: invalid Key Name=\"DISTRICTCOOLING:FACILITY\" - not found.\n   ** Warning ** Output:Meter: invalid Key Name=\"DISTRICTHEATING:FACILITY\" - not found.\n   ** Warning ** Output:Meter:MeterFileOnly requested for \"Electricity:Facility\" (TimeStep), already on \"Output:Meter\". Will report to both eplusout.eso and eplusout.mtr\n   ************* Testing Individual Branch Integrity\n   ************* All Branches passed integrity testing\n   ************* Testing Individual Supply Air Path Integrity\n   ************* All Supply Air Paths passed integrity testing\n   ************* Testing Individual Return Air Path Integrity\n   ************* All Return Air Paths passed integrity testing\n   ************* No node connection errors were found.\n   ************* Beginning Simulation\n   ** Warning ** Output:Table:Monthly requested with SimulationControl Run Simulation for Weather File Run Periods set to No so Output:Table:Monthly will not be generated\n   ************* Simulation Error Summary *************\n   ************* There are 8 unused objects in input.\n   ************* Use Output:Diagnostics,DisplayUnusedObjects; to see them.\n   ************* There are 8 unused schedules in input.\n   ************* There are 8 unused week schedules in input.\n   ************* There are 14 unused day schedules in input.\n   ************* Use Output:Diagnostics,DisplayUnusedSchedules; to see them.\n   *************\n   ************* ===== Final Error Summary =====\n   ************* The following error categories occurred.  Consider correcting or noting.\n   ************* Nominally Unused Constructions\n   ************* ..The nominally unused constructions warning is provided to alert you to potential conditions that can cause\n   ************* ..extra time during simulation. Each construction is calculated by the algorithm indicated in the HeatBalanceAlgorithm\n   ************* ..object. You may remove the constructions indicated (when you use the DisplayExtraWarnings option).\n   *************\n   ************* EnergyPlus Warmup Error Summary. During Warmup: 0 Warning; 0 Severe Errors.\n   ************* EnergyPlus Sizing Error Summary. During Sizing: 39 Warning; 0 Severe Errors.\n   ************* EnergyPlus Completed Successfully-- 49 Warning; 0 Severe Errors; Elapsed Time=00hr 00min  2.06sec\n",
   "hash" : "FF9DE185",
   "seed_file" : "in.osm",
   "started_at" : "20190320T200723Z",
   "steps" : [],
   "updated_at" : "20190320T200726Z",
   "weather_file" : "in.epw"
}
