Program Version,EnergyPlus, Version 8.9.0-eba93e8e1b, YMD=2019.03.20 18:03
! <Version>, Version ID
 Version, 8.9
! <Timesteps per Hour>, #TimeSteps, Minutes per TimeStep {minutes}
 Timesteps per Hour,  6, 10
! <System Convergence Limits>, Minimum System TimeStep {minutes}, Max HVAC Iterations, Minimum Plant Iterations, Maximum Plant Iterations
 System Convergence Limits, 1, 20, 2, 8
! <Simulation Control>, Do Zone Sizing, Do System Sizing, Do Plant Sizing, Do Design Days, Do Weather Simulation, Do HVAC Sizing Simulation
 Simulation Control, Yes, Yes, Yes, Yes, No, No
! <Output Reporting Tolerances>, Tolerance for Time Heating Setpoint Not Met, Tolerance for Zone Cooling Setpoint Not Met Time
 Output Reporting Tolerances, 1.000, 1.000, 
! <Site:GroundTemperature:BuildingSurface>,Jan{C},Feb{C},Mar{C},Apr{C},May{C},Jun{C},Jul{C},Aug{C},Sep{C},Oct{C},Nov{C},Dec{C}
 Site:GroundTemperature:BuildingSurface,  19.53,  19.50,  19.54,  19.60,  20.00,  21.64,  22.23,  22.38,  21.45,  20.12,  19.80,  19.63
! <Site:GroundTemperature:FCfactorMethod>,Jan{C},Feb{C},Mar{C},Apr{C},May{C},Jun{C},Jul{C},Aug{C},Sep{C},Oct{C},Nov{C},Dec{C}
 Site:GroundTemperature:FCfactorMethod, -12.27, -13.66, -11.19,  -7.33,   2.77,  10.57,  15.83,  17.43,  14.70,   8.65,   0.56,  -6.95
! <Site:GroundTemperature:Shallow>,Jan{C},Feb{C},Mar{C},Apr{C},May{C},Jun{C},Jul{C},Aug{C},Sep{C},Oct{C},Nov{C},Dec{C}
 Site:GroundTemperature:Shallow,  13.00,  13.00,  13.00,  13.00,  13.00,  13.00,  13.00,  13.00,  13.00,  13.00,  13.00,  13.00
! <Site:GroundTemperature:Deep>,Jan{C},Feb{C},Mar{C},Apr{C},May{C},Jun{C},Jul{C},Aug{C},Sep{C},Oct{C},Nov{C},Dec{C}
 Site:GroundTemperature:Deep,  16.00,  16.00,  16.00,  16.00,  16.00,  16.00,  16.00,  16.00,  16.00,  16.00,  16.00,  16.00
! <Site:GroundReflectance>,Jan{dimensionless},Feb{dimensionless},Mar{dimensionless},Apr{dimensionless},May{dimensionless},Jun{dimensionless},Jul{dimensionless},Aug{dimensionless},Sep{dimensionless},Oct{dimensionless},Nov{dimensionless},Dec{dimensionless}
 Site:GroundReflectance,  0.20,  0.20,  0.20,  0.20,  0.20,  0.20,  0.20,  0.20,  0.20,  0.20,  0.20,  0.20
! <Site:GroundReflectance:SnowModifier>, Normal, Daylighting {dimensionless}
 Site:GroundReflectance:SnowModifier,   1.000,   1.000
! <Site:GroundReflectance:Snow>,Jan{dimensionless},Feb{dimensionless},Mar{dimensionless},Apr{dimensionless},May{dimensionless},Jun{dimensionless},Jul{dimensionless},Aug{dimensionless},Sep{dimensionless},Oct{dimensionless},Nov{dimensionless},Dec{dimensionless}
 Site:GroundReflectance:Snow,  0.20,  0.20,  0.20,  0.20,  0.20,  0.20,  0.20,  0.20,  0.20,  0.20,  0.20,  0.20
! <Site:GroundReflectance:Snow:Daylighting>,Jan{dimensionless},Feb{dimensionless},Mar{dimensionless},Apr{dimensionless},May{dimensionless},Jun{dimensionless},Jul{dimensionless},Aug{dimensionless},Sep{dimensionless},Oct{dimensionless},Nov{dimensionless},Dec{dimensionless}
 Site:GroundReflectance:Snow:Daylighting,  0.20,  0.20,  0.20,  0.20,  0.20,  0.20,  0.20,  0.20,  0.20,  0.20,  0.20,  0.20
! <Environment:Weather Station>,Wind Sensor Height Above Ground {m},Wind Speed Profile Exponent {},Wind Speed Profile Boundary Layer Thickness {m},Air Temperature Sensor Height Above Ground {m},Wind Speed Modifier Coefficient-Internal,Temperature Modifier Coefficient-Internal
Environment:Weather Station,10.000,0.140,270.000,1.500,1.586,9.750E-003
! <Site:Location>, Location Name, Latitude {N+/S- Deg}, Longitude {E+/W- Deg},  Time Zone Number {GMT+/-}, Elevation {m},  Standard Pressure at Elevation {Pa}, Standard RhoAir at Elevation
Site:Location,Fort McMurray AP AB CAN CWEC2016 WMO#=716890,56.65,-111.22,-7.00,369.10,96969,1.1525
! <Building Information>, Building Name,North Axis {deg},Terrain,  Loads Convergence Tolerance Value,Temperature Convergence Tolerance Value,  Solar Distribution,Maximum Number of Warmup Days,Minimum Number of Warmup Days
 Building Information,Building 1,0.000,Suburbs,4.00000E-002,0.40000,FullExterior,25,6
! <Inside Convection Algorithm>, Algorithm {Simple | TARP | CeilingDiffuser | AdaptiveConvectionAlgorithm}
Inside Convection Algorithm,TARP
! <Outside Convection Algorithm>, Algorithm {SimpleCombined | TARP | MoWitt | DOE-2 | AdaptiveConvectionAlgorithm}
Outside Convection Algorithm,TARP
! <Sky Radiance Distribution>, Value {Anisotropic}
Sky Radiance Distribution,Anisotropic
! <Zone Air Solution Algorithm>, Value {ThirdOrderBackwardDifference | AnalyticalSolution | EulerMethod}
 Zone Air Solution Algorithm, ThirdOrderBackwardDifference
! <Zone Air Carbon Dioxide Balance Simulation>, Simulation {Yes/No}, Carbon Dioxide Concentration
 Zone Air Carbon Dioxide Balance Simulation, No,N/A
! <Zone Air Generic Contaminant Balance Simulation>, Simulation {Yes/No}, Generic Contaminant Concentration
 Zone Air Generic Contaminant Balance Simulation, No,N/A
! <Zone Air Mass Flow Balance Simulation>, Enforce Mass Balance, Adjust Zone Mixing, Adjust Zone Infiltration {AddInfiltration | AdjustInfiltration | None}, Infiltration Zones {MixingSourceZonesOnly | AllZones}
 Zone Air Mass Flow Balance Simulation, No,N/A,N/A,N/A
! <HVACSystemRootFindingAlgorithm>, Value {RegulaFalsi | Bisection | BisectionThenRegulaFalsi | RegulaFalsiThenBisection}
 HVACSystemRootFindingAlgorithm, RegulaFalsi
! <Environment:Site Atmospheric Variation>,Wind Speed Profile Exponent {},Wind Speed Profile Boundary Layer Thickness {m},Air Temperature Gradient Coefficient {K/m}
Environment:Site Atmospheric Variation,0.220,370.000,6.500000E-003
! <Surface Geometry>,Starting Corner,Vertex Input Direction,Coordinate System,Daylight Reference Point Coordinate System,Rectangular (Simple) Surface Coordinate System
 Surface Geometry,UpperLeftCorner,Counterclockwise,RelativeCoordinateSystem,RelativeCoordinateSystem,RelativeToZoneOrigin
! <Surface Heat Transfer Algorithm>, Value {CTF - ConductionTransferFunction | EMPD - MoisturePenetrationDepthConductionTransferFunction | CondFD - ConductionFiniteDifference | HAMT - CombinedHeatAndMoistureFiniteElement} - Description,Inside Surface Max Temperature Limit{C}, Surface Convection Coefficient Lower Limit {W/m2-K}, Surface Convection Coefficient Upper Limit {W/m2-K}
Surface Heat Transfer Algorithm, CTF - ConductionTransferFunction,200,0.10,1000.0
! <Shading Summary>, Number of Fixed Detached Shades, Number of Building Detached Shades, Number of Attached Shades
 Shading Summary,0,0,0
! <Zone Summary>, Number of Zones, Number of Zone Surfaces, Number of SubSurfaces
 Zone Summary,20,137,17
! <Zone Information>,Zone Name,North Axis {deg},Origin X-Coordinate {m},Origin Y-Coordinate {m},Origin Z-Coordinate {m},Centroid X-Coordinate {m},Centroid Y-Coordinate {m},Centroid Z-Coordinate {m},Type,Zone Multiplier,Zone List Multiplier,Minimum X {m},Maximum X {m},Minimum Y {m},Maximum Y {m},Minimum Z {m},Maximum Z {m},Ceiling Height {m},Volume {m3},Zone Inside Convection Algorithm {Simple-Detailed-CeilingDiffuser-TrombeWall},Zone Outside Convection Algorithm {Simple-Detailed-Tarp-MoWitt-DOE-2-BLAST}, Floor Area {m2},Exterior Gross Wall Area {m2},Exterior Net Wall Area {m2},Exterior Window Area {m2}, Number of Surfaces, Number of SubSurfaces, Number of Shading SubSurfaces,  Part of Total Building Area
 Zone Information, ALL_ST=WHOLEBUILDING_FL=STORY 1_SCH=A,0.0,25.00,75.00,0.00,50.00,89.15,1.90,1,1,1,0.00,100.00,75.00,100.00,0.00,3.80,3.80,7125.00,TARP,TARP,1875.00,0.00,0.00,0.00,6,0,0,Yes
 Zone Information, ALL_ST=WHOLEBUILDING_FL=STORY 1_SCH=D,0.0,0.00,0.00,0.00,10.85,50.00,1.90,1,1,1,0.00,25.00,0.00,100.00,0.00,3.80,3.80,7125.00,TARP,TARP,1875.00,0.00,0.00,0.00,6,0,0,Yes
 Zone Information, ALL_ST=WHOLEBUILDING_FL=STORY 1_SCH=E,0.0,75.00,25.00,0.00,89.15,50.00,1.90,1,1,1,75.00,100.00,0.00,100.00,0.00,3.80,3.80,7125.00,TARP,TARP,1875.00,0.00,0.00,0.00,6,0,0,Yes
 Zone Information, ALL_ST=WHOLEBUILDING_FL=STORY 1_SCH=E 1,0.0,25.00,25.00,0.00,50.00,50.00,1.90,1,1,1,25.00,75.00,25.00,75.00,0.00,3.80,3.80,9500.00,TARP,TARP,2500.00,0.00,0.00,0.00,6,0,0,Yes
 Zone Information, ALL_ST=WHOLEBUILDING_FL=STORY 1_SCH=E 2,0.0,0.00,0.00,0.00,50.00,10.85,1.90,1,1,1,0.00,100.00,0.00,25.00,0.00,3.80,3.80,7125.00,TARP,TARP,1875.00,0.00,0.00,0.00,6,0,0,Yes
 Zone Information, ALL_ST=WHOLEBUILDING_FL=STORY 2_SCH=A,0.0,25.00,75.00,3.80,50.00,89.15,5.70,1,1,1,0.00,100.00,75.00,100.00,3.80,7.60,3.80,7125.00,TARP,TARP,1875.00,380.00,285.00,95.00,6,1,0,Yes
 Zone Information, ALL_ST=WHOLEBUILDING_FL=STORY 2_SCH=E,0.0,25.00,25.00,3.80,50.00,50.00,5.70,1,1,1,25.00,75.00,25.00,75.00,3.80,7.60,3.80,9500.00,TARP,TARP,2500.00,0.00,0.00,0.00,6,0,0,Yes
 Zone Information, ALL_ST=WHOLEBUILDING_FL=STORY 2_SCH=E 1,0.0,75.00,25.00,3.80,89.15,50.00,5.70,1,1,1,75.00,100.00,0.00,100.00,3.80,7.60,3.80,7125.00,TARP,TARP,1875.00,380.00,285.00,95.00,6,1,0,Yes
 Zone Information, ALL_ST=WHOLEBUILDING_FL=STORY 2_SCH=E 2,0.0,0.00,0.00,3.80,50.00,10.85,5.70,1,1,1,0.00,100.00,0.00,25.00,3.80,7.60,3.80,7125.00,TARP,TARP,1875.00,380.00,285.00,95.00,6,1,0,Yes
 Zone Information, ALL_ST=WHOLEBUILDING_FL=STORY 2_SCH=H,0.0,0.00,0.00,3.80,10.85,50.00,5.70,1,1,1,0.00,25.00,0.00,100.00,3.80,7.60,3.80,7125.00,TARP,TARP,1875.00,380.00,285.00,95.00,6,1,0,Yes
 Zone Information, ALL_ST=WHOLEBUILDING_FL=STORY 3_SCH=B,0.0,25.00,75.00,7.60,50.00,89.15,9.50,1,1,1,0.00,100.00,75.00,100.00,7.60,11.40,3.80,7125.00,TARP,TARP,1875.00,380.00,285.00,95.00,6,1,0,Yes
 Zone Information, ALL_ST=WHOLEBUILDING_FL=STORY 4_SCH=A,0.0,0.00,0.00,11.40,10.85,50.00,13.30,1,1,1,0.00,25.00,0.00,100.00,11.40,15.20,3.80,7125.00,TARP,TARP,1875.00,380.00,285.00,188.75,6,2,0,Yes
 Zone Information, ALL_ST=WORKSHOP SPACE_FL=STORY 3_SCH=A,0.0,0.00,0.00,7.60,10.85,50.00,9.50,1,1,1,0.00,25.00,0.00,100.00,7.60,11.40,3.80,7125.00,TARP,TARP,1875.00,380.00,285.00,95.00,6,1,0,Yes
 Zone Information, WET_ST=WASHROOM-SCH-C_FL=STORY 4_SCHE,0.0,25.00,25.00,11.40,50.00,50.00,13.30,1,1,1,25.00,75.00,25.00,75.00,11.40,15.20,3.80,9500.00,TARP,TARP,2500.00,0.00,0.00,125.00,6,1,0,Yes
 Zone Information, WET_ST=WASHROOM-SCH-D_FL=STORY 4_SCHE,0.0,0.00,0.00,11.40,50.00,10.85,13.30,1,1,1,0.00,100.00,0.00,25.00,11.40,15.20,3.80,7125.00,TARP,TARP,1875.00,380.00,285.00,188.75,6,2,0,Yes
 Zone Information, WET_ST=WASHROOM-SCH-E_FL=STORY 4_SCHE,0.0,75.00,25.00,11.40,89.15,50.00,13.30,1,1,1,75.00,100.00,0.00,100.00,11.40,15.20,3.80,7125.00,TARP,TARP,1875.00,380.00,285.00,188.75,6,2,0,Yes
 Zone Information, WET_ST=WASHROOM-SCH-F_FL=STORY 3_SCHE,0.0,25.00,25.00,7.60,50.00,50.00,9.50,1,1,1,25.00,75.00,25.00,75.00,7.60,11.40,3.80,9500.00,TARP,TARP,2500.00,0.00,0.00,0.00,6,0,0,Yes
 Zone Information, WET_ST=WASHROOM-SCH-G_FL=STORY 3_SCHE,0.0,0.00,0.00,7.60,50.00,10.85,9.50,1,1,1,0.00,100.00,0.00,25.00,7.60,11.40,3.80,7125.00,TARP,TARP,1875.00,380.00,285.00,95.00,6,1,0,Yes
 Zone Information, WET_ST=WASHROOM-SCH-H_FL=STORY 4_SCHE,0.0,25.00,75.00,11.40,50.00,89.15,13.30,1,1,1,0.00,100.00,75.00,100.00,11.40,15.20,3.80,7125.00,TARP,TARP,1875.00,380.00,285.00,188.75,6,2,0,Yes
 Zone Information, WET_ST=WASHROOM-SCH-I_FL=STORY 3_SCHE,0.0,75.00,25.00,7.60,89.15,50.00,9.50,1,1,1,75.00,100.00,0.00,100.00,7.60,11.40,3.80,7125.00,TARP,TARP,1875.00,380.00,285.00,95.00,6,1,0,Yes
! <Zone Internal Gains Nominal>,Zone Name, Floor Area {m2},# Occupants,Area per Occupant {m2/person},Occupant per Area {person/m2},Interior Lighting {W/m2},Electric Load {W/m2},Gas Load {W/m2},Other Load {W/m2},Hot Water Eq {W/m2},Steam Equipment {W/m2},Sum Loads per Area {W/m2},Outdoor Controlled Baseboard Heat
 Zone Internal Gains Nominal, ALL_ST=WHOLEBUILDING_FL=STORY 1_SCH=A,1875.00,1.2,1548.384,6.458E-004,7.100,1.000,0.000,0.000,0.000,0.000,8.100,No
 Zone Internal Gains Nominal, ALL_ST=WHOLEBUILDING_FL=STORY 1_SCH=D,1875.00,75.1,24.974,4.004E-002,9.900,7.500,0.000,0.000,0.000,0.000,17.400,No
 Zone Internal Gains Nominal, ALL_ST=WHOLEBUILDING_FL=STORY 1_SCH=E,1875.00,93.8,19.979,5.005E-002,8.800,5.000,0.000,0.000,0.000,0.000,13.800,No
 Zone Internal Gains Nominal, ALL_ST=WHOLEBUILDING_FL=STORY 1_SCH=E 1,2500.00,125.1,19.979,5.005E-002,8.800,5.000,0.000,0.000,0.000,0.000,13.800,No
 Zone Internal Gains Nominal, ALL_ST=WHOLEBUILDING_FL=STORY 1_SCH=E 2,1875.00,93.8,19.979,5.005E-002,8.800,5.000,0.000,0.000,0.000,0.000,13.800,No
 Zone Internal Gains Nominal, ALL_ST=WHOLEBUILDING_FL=STORY 2_SCH=A,1875.00,1.2,1548.384,6.458E-004,7.100,1.000,0.000,0.000,0.000,0.000,8.100,No
 Zone Internal Gains Nominal, ALL_ST=WHOLEBUILDING_FL=STORY 2_SCH=E,2500.00,125.1,19.979,5.005E-002,8.800,5.000,0.000,0.000,0.000,0.000,13.800,No
 Zone Internal Gains Nominal, ALL_ST=WHOLEBUILDING_FL=STORY 2_SCH=E 1,1875.00,93.8,19.979,5.005E-002,8.800,5.000,0.000,0.000,0.000,0.000,13.800,No
 Zone Internal Gains Nominal, ALL_ST=WHOLEBUILDING_FL=STORY 2_SCH=E 2,1875.00,93.8,19.979,5.005E-002,8.800,5.000,0.000,0.000,0.000,0.000,13.800,No
 Zone Internal Gains Nominal, ALL_ST=WHOLEBUILDING_FL=STORY 2_SCH=H,1875.00,124.9,15.009,6.663E-002,8.300,1.000,0.000,0.000,0.000,0.000,9.300,No
 Zone Internal Gains Nominal, ALL_ST=WHOLEBUILDING_FL=STORY 3_SCH=B,1875.00,187.5,10.000,10.000E-002,8.400,1.000,0.000,0.000,0.000,0.000,9.400,No
 Zone Internal Gains Nominal, ALL_ST=WHOLEBUILDING_FL=STORY 4_SCH=A,1875.00,62.6,29.969,3.337E-002,12.900,10.000,0.000,0.000,0.000,0.000,22.900,No
 Zone Internal Gains Nominal, ALL_ST=WORKSHOP SPACE_FL=STORY 3_SCH=A,1875.00,62.6,29.969,3.337E-002,17.100,10.000,0.000,0.000,0.000,0.000,27.100,No
 Zone Internal Gains Nominal, WET_ST=WASHROOM-SCH-C_FL=STORY 4_SCHE,2500.00,83.4,29.969,3.337E-002,9.450,1.000,0.000,0.000,0.000,0.000,10.450,No
 Zone Internal Gains Nominal, WET_ST=WASHROOM-SCH-D_FL=STORY 4_SCHE,1875.00,62.6,29.969,3.337E-002,9.450,1.000,0.000,0.000,0.000,0.000,10.450,No
 Zone Internal Gains Nominal, WET_ST=WASHROOM-SCH-E_FL=STORY 4_SCHE,1875.00,62.6,29.969,3.337E-002,9.450,1.000,0.000,0.000,0.000,0.000,10.450,No
 Zone Internal Gains Nominal, WET_ST=WASHROOM-SCH-F_FL=STORY 3_SCHE,2500.00,83.4,29.969,3.337E-002,9.450,1.000,0.000,0.000,0.000,0.000,10.450,No
 Zone Internal Gains Nominal, WET_ST=WASHROOM-SCH-G_FL=STORY 3_SCHE,1875.00,62.6,29.969,3.337E-002,9.450,1.000,0.000,0.000,0.000,0.000,10.450,No
 Zone Internal Gains Nominal, WET_ST=WASHROOM-SCH-H_FL=STORY 4_SCHE,1875.00,62.6,29.969,3.337E-002,9.450,1.000,0.000,0.000,0.000,0.000,10.450,No
 Zone Internal Gains Nominal, WET_ST=WASHROOM-SCH-I_FL=STORY 3_SCHE,1875.00,62.6,29.969,3.337E-002,9.450,1.000,0.000,0.000,0.000,0.000,10.450,No
! <People Internal Gains Nominal>,Name,Schedule Name,Zone Name,Zone Floor Area {m2},# Zone Occupants,Number of People {},People/Floor Area {person/m2},Floor Area per person {m2/person},Fraction Radiant,Fraction Convected,Sensible Fraction Calculation,Activity level,ASHRAE 55 Warnings,Carbon Dioxide Generation Rate,Nominal Minimum Number of People,Nominal Maximum Number of People
 People Internal Gains Nominal, ALL_ST=WHOLEBUILDING_FL=STORY 1_SCH=E AUTOMOTIVE FACILITY WHOLEBUILDING PEOPLE,NECB-E-OCCUPANCY,ALL_ST=WHOLEBUILDING_FL=STORY 1_SCH=E,1875.00,93.8,93.8,5.005E-002,19.979,0.300,0.700,AutoCalculate,NECB-ACTIVITY,No,3.8200E-008,0,84
 People Internal Gains Nominal, ALL_ST=WHOLEBUILDING_FL=STORY 1_SCH=E 1 AUTOMOTIVE FACILITY WHOLEBUILDING 1 PEOPLE,NECB-E-OCCUPANCY,ALL_ST=WHOLEBUILDING_FL=STORY 1_SCH=E 1,2500.00,125.1,125.1,5.005E-002,19.979,0.300,0.700,AutoCalculate,NECB-ACTIVITY,No,3.8200E-008,0,113
 People Internal Gains Nominal, ALL_ST=WHOLEBUILDING_FL=STORY 2_SCH=E AUTOMOTIVE FACILITY WHOLEBUILDING 2 PEOPLE,NECB-E-OCCUPANCY,ALL_ST=WHOLEBUILDING_FL=STORY 2_SCH=E,2500.00,125.1,125.1,5.005E-002,19.979,0.300,0.700,AutoCalculate,NECB-ACTIVITY,No,3.8200E-008,0,113
 People Internal Gains Nominal, ALL_ST=WHOLEBUILDING_FL=STORY 2_SCH=E 1 AUTOMOTIVE FACILITY WHOLEBUILDING 3 PEOPLE,NECB-E-OCCUPANCY,ALL_ST=WHOLEBUILDING_FL=STORY 2_SCH=E 1,1875.00,93.8,93.8,5.005E-002,19.979,0.300,0.700,AutoCalculate,NECB-ACTIVITY,No,3.8200E-008,0,84
 People Internal Gains Nominal, ALL_ST=WHOLEBUILDING_FL=STORY 1_SCH=E 2 AUTOMOTIVE FACILITY WHOLEBUILDING 4 PEOPLE,NECB-E-OCCUPANCY,ALL_ST=WHOLEBUILDING_FL=STORY 1_SCH=E 2,1875.00,93.8,93.8,5.005E-002,19.979,0.300,0.700,AutoCalculate,NECB-ACTIVITY,No,3.8200E-008,0,84
 People Internal Gains Nominal, ALL_ST=WHOLEBUILDING_FL=STORY 2_SCH=E 2 AUTOMOTIVE FACILITY WHOLEBUILDING 5 PEOPLE,NECB-E-OCCUPANCY,ALL_ST=WHOLEBUILDING_FL=STORY 2_SCH=E 2,1875.00,93.8,93.8,5.005E-002,19.979,0.300,0.700,AutoCalculate,NECB-ACTIVITY,No,3.8200E-008,0,84
 People Internal Gains Nominal, WET_ST=WASHROOM-SCH-C_FL=STORY 4_SCHE SPACE FUNCTION WASHROOM-SCH-E PEOPLE,NECB-E-OCCUPANCY,WET_ST=WASHROOM-SCH-C_FL=STORY 4_SCHE,2500.00,83.4,83.4,3.337E-002,29.969,0.300,0.700,AutoCalculate,NECB-ACTIVITY,No,3.8200E-008,0,75
 People Internal Gains Nominal, WET_ST=WASHROOM-SCH-D_FL=STORY 4_SCHE SPACE FUNCTION WASHROOM-SCH-E PEOPLE,NECB-E-OCCUPANCY,WET_ST=WASHROOM-SCH-D_FL=STORY 4_SCHE,1875.00,62.6,62.6,3.337E-002,29.969,0.300,0.700,AutoCalculate,NECB-ACTIVITY,No,3.8200E-008,0,56
 People Internal Gains Nominal, WET_ST=WASHROOM-SCH-E_FL=STORY 4_SCHE SPACE FUNCTION WASHROOM-SCH-E PEOPLE,NECB-E-OCCUPANCY,WET_ST=WASHROOM-SCH-E_FL=STORY 4_SCHE,1875.00,62.6,62.6,3.337E-002,29.969,0.300,0.700,AutoCalculate,NECB-ACTIVITY,No,3.8200E-008,0,56
 People Internal Gains Nominal, WET_ST=WASHROOM-SCH-F_FL=STORY 3_SCHE SPACE FUNCTION WASHROOM-SCH-E PEOPLE,NECB-E-OCCUPANCY,WET_ST=WASHROOM-SCH-F_FL=STORY 3_SCHE,2500.00,83.4,83.4,3.337E-002,29.969,0.300,0.700,AutoCalculate,NECB-ACTIVITY,No,3.8200E-008,0,75
 People Internal Gains Nominal, WET_ST=WASHROOM-SCH-G_FL=STORY 3_SCHE SPACE FUNCTION WASHROOM-SCH-E PEOPLE,NECB-E-OCCUPANCY,WET_ST=WASHROOM-SCH-G_FL=STORY 3_SCHE,1875.00,62.6,62.6,3.337E-002,29.969,0.300,0.700,AutoCalculate,NECB-ACTIVITY,No,3.8200E-008,0,56
 People Internal Gains Nominal, WET_ST=WASHROOM-SCH-H_FL=STORY 4_SCHE SPACE FUNCTION WASHROOM-SCH-E PEOPLE,NECB-E-OCCUPANCY,WET_ST=WASHROOM-SCH-H_FL=STORY 4_SCHE,1875.00,62.6,62.6,3.337E-002,29.969,0.300,0.700,AutoCalculate,NECB-ACTIVITY,No,3.8200E-008,0,56
 People Internal Gains Nominal, WET_ST=WASHROOM-SCH-I_FL=STORY 3_SCHE SPACE FUNCTION WASHROOM-SCH-E PEOPLE,NECB-E-OCCUPANCY,WET_ST=WASHROOM-SCH-I_FL=STORY 3_SCHE,1875.00,62.6,62.6,3.337E-002,29.969,0.300,0.700,AutoCalculate,NECB-ACTIVITY,No,3.8200E-008,0,56
 People Internal Gains Nominal, ALL_ST=WORKSHOP SPACE_FL=STORY 3_SCH=A SPACE FUNCTION WORKSHOP SPACE PEOPLE,NECB-A-OCCUPANCY,ALL_ST=WORKSHOP SPACE_FL=STORY 3_SCH=A,1875.00,62.6,62.6,3.337E-002,29.969,0.300,0.700,AutoCalculate,NECB-ACTIVITY,No,3.8200E-008,0,56
 People Internal Gains Nominal, ALL_ST=WHOLEBUILDING_FL=STORY 3_SCH=B SPORTS ARENA WHOLEBUILDING PEOPLE,NECB-B-OCCUPANCY,ALL_ST=WHOLEBUILDING_FL=STORY 3_SCH=B,1875.00,187.5,187.5,10.000E-002,10.000,0.300,0.700,AutoCalculate,NECB-ACTIVITY,No,3.8200E-008,0,169
 People Internal Gains Nominal, ALL_ST=WHOLEBUILDING_FL=STORY 1_SCH=D TOWN HALL WHOLEBUILDING PEOPLE,NECB-D-OCCUPANCY,ALL_ST=WHOLEBUILDING_FL=STORY 1_SCH=D,1875.00,75.1,75.1,4.004E-002,24.974,0.300,0.700,AutoCalculate,NECB-ACTIVITY,No,3.8200E-008,0,68
 People Internal Gains Nominal, ALL_ST=WHOLEBUILDING_FL=STORY 2_SCH=H TRANSPORTATION WHOLEBUILDING PEOPLE,NECB-H-OCCUPANCY,ALL_ST=WHOLEBUILDING_FL=STORY 2_SCH=H,1875.00,124.9,124.9,6.663E-002,15.009,0.300,0.700,AutoCalculate,NECB-ACTIVITY,No,3.8200E-008,112,112
 People Internal Gains Nominal, ALL_ST=WHOLEBUILDING_FL=STORY 2_SCH=A WAREHOUSE - REFRIGERATED WHOLEBUILDING PEOPLE,NECB-A-OCCUPANCY,ALL_ST=WHOLEBUILDING_FL=STORY 2_SCH=A,1875.00,1.2,1.2,6.458E-004,1548.384,0.300,0.700,AutoCalculate,NECB-ACTIVITY,No,3.8200E-008,0,1
 People Internal Gains Nominal, ALL_ST=WHOLEBUILDING_FL=STORY 1_SCH=A WAREHOUSE WHOLEBUILDING PEOPLE,NECB-A-OCCUPANCY,ALL_ST=WHOLEBUILDING_FL=STORY 1_SCH=A,1875.00,1.2,1.2,6.458E-004,1548.384,0.300,0.700,AutoCalculate,NECB-ACTIVITY,No,3.8200E-008,0,1
 People Internal Gains Nominal, ALL_ST=WHOLEBUILDING_FL=STORY 4_SCH=A WORKSHOP WHOLEBUILDING PEOPLE,NECB-A-OCCUPANCY,ALL_ST=WHOLEBUILDING_FL=STORY 4_SCH=A,1875.00,62.6,62.6,3.337E-002,29.969,0.300,0.700,AutoCalculate,NECB-ACTIVITY,No,3.8200E-008,0,56
! <Lights Internal Gains Nominal>,Name,Schedule Name,Zone Name,Zone Floor Area {m2},# Zone Occupants,Lighting Level {W},Lights/Floor Area {W/m2},Lights per person {W/person},Fraction Return Air,Fraction Radiant,Fraction Short Wave,Fraction Convected,Fraction Replaceable,End-Use Category,Nominal Minimum Lighting Level {W},Nominal Maximum Lighting Level {W}
 Lights Internal Gains Nominal, ALL_ST=WHOLEBUILDING_FL=STORY 1_SCH=E AUTOMOTIVE FACILITY WHOLEBUILDING LIGHTS,NECB-E-LIGHTING,ALL_ST=WHOLEBUILDING_FL=STORY 1_SCH=E,1875.00,93.8,16499.863,8.800,175.815,0.000,0.500,0.200,0.300,1.000,General,824.993,14849.876
 Lights Internal Gains Nominal, ALL_ST=WHOLEBUILDING_FL=STORY 1_SCH=E 1 AUTOMOTIVE FACILITY WHOLEBUILDING 1 LIGHTS,NECB-E-LIGHTING,ALL_ST=WHOLEBUILDING_FL=STORY 1_SCH=E 1,2500.00,125.1,21999.817,8.800,175.815,0.000,0.500,0.200,0.300,1.000,General,1099.991,19799.835
 Lights Internal Gains Nominal, ALL_ST=WHOLEBUILDING_FL=STORY 2_SCH=E AUTOMOTIVE FACILITY WHOLEBUILDING 2 LIGHTS,NECB-E-LIGHTING,ALL_ST=WHOLEBUILDING_FL=STORY 2_SCH=E,2500.00,125.1,21999.817,8.800,175.815,0.000,0.500,0.200,0.300,1.000,General,1099.991,19799.835
 Lights Internal Gains Nominal, ALL_ST=WHOLEBUILDING_FL=STORY 2_SCH=E 1 AUTOMOTIVE FACILITY WHOLEBUILDING 3 LIGHTS,NECB-E-LIGHTING,ALL_ST=WHOLEBUILDING_FL=STORY 2_SCH=E 1,1875.00,93.8,16499.863,8.800,175.815,0.000,0.500,0.200,0.300,1.000,General,824.993,14849.876
 Lights Internal Gains Nominal, ALL_ST=WHOLEBUILDING_FL=STORY 1_SCH=E 2 AUTOMOTIVE FACILITY WHOLEBUILDING 4 LIGHTS,NECB-E-LIGHTING,ALL_ST=WHOLEBUILDING_FL=STORY 1_SCH=E 2,1875.00,93.8,16499.863,8.800,175.815,0.000,0.500,0.200,0.300,1.000,General,824.993,14849.876
 Lights Internal Gains Nominal, ALL_ST=WHOLEBUILDING_FL=STORY 2_SCH=E 2 AUTOMOTIVE FACILITY WHOLEBUILDING 5 LIGHTS,NECB-E-LIGHTING,ALL_ST=WHOLEBUILDING_FL=STORY 2_SCH=E 2,1875.00,93.8,16499.863,8.800,175.815,0.000,0.500,0.200,0.300,1.000,General,824.993,14849.876
 Lights Internal Gains Nominal, WET_ST=WASHROOM-SCH-C_FL=STORY 4_SCHE SPACE FUNCTION WASHROOM-SCH-E LIGHTS,NECB-E-LIGHTING,WET_ST=WASHROOM-SCH-C_FL=STORY 4_SCHE,2500.00,83.4,23624.803,9.450,283.202,0.000,0.500,0.200,0.300,1.000,General,1181.240,21262.323
 Lights Internal Gains Nominal, WET_ST=WASHROOM-SCH-D_FL=STORY 4_SCHE SPACE FUNCTION WASHROOM-SCH-E LIGHTS,NECB-E-LIGHTING,WET_ST=WASHROOM-SCH-D_FL=STORY 4_SCHE,1875.00,62.6,17718.603,9.450,283.202,0.000,0.500,0.200,0.300,1.000,General,885.930,15946.742
 Lights Internal Gains Nominal, WET_ST=WASHROOM-SCH-E_FL=STORY 4_SCHE SPACE FUNCTION WASHROOM-SCH-E LIGHTS,NECB-E-LIGHTING,WET_ST=WASHROOM-SCH-E_FL=STORY 4_SCHE,1875.00,62.6,17718.603,9.450,283.202,0.000,0.500,0.200,0.300,1.000,General,885.930,15946.742
 Lights Internal Gains Nominal, WET_ST=WASHROOM-SCH-F_FL=STORY 3_SCHE SPACE FUNCTION WASHROOM-SCH-E LIGHTS,NECB-E-LIGHTING,WET_ST=WASHROOM-SCH-F_FL=STORY 3_SCHE,2500.00,83.4,23624.803,9.450,283.202,0.000,0.500,0.200,0.300,1.000,General,1181.240,21262.323
 Lights Internal Gains Nominal, WET_ST=WASHROOM-SCH-G_FL=STORY 3_SCHE SPACE FUNCTION WASHROOM-SCH-E LIGHTS,NECB-E-LIGHTING,WET_ST=WASHROOM-SCH-G_FL=STORY 3_SCHE,1875.00,62.6,17718.603,9.450,283.202,0.000,0.500,0.200,0.300,1.000,General,885.930,15946.742
 Lights Internal Gains Nominal, WET_ST=WASHROOM-SCH-H_FL=STORY 4_SCHE SPACE FUNCTION WASHROOM-SCH-E LIGHTS,NECB-E-LIGHTING,WET_ST=WASHROOM-SCH-H_FL=STORY 4_SCHE,1875.00,62.6,17718.603,9.450,283.202,0.000,0.500,0.200,0.300,1.000,General,885.930,15946.742
 Lights Internal Gains Nominal, WET_ST=WASHROOM-SCH-I_FL=STORY 3_SCHE SPACE FUNCTION WASHROOM-SCH-E LIGHTS,NECB-E-LIGHTING,WET_ST=WASHROOM-SCH-I_FL=STORY 3_SCHE,1875.00,62.6,17718.603,9.450,283.202,0.000,0.500,0.200,0.300,1.000,General,885.930,15946.742
 Lights Internal Gains Nominal, ALL_ST=WORKSHOP SPACE_FL=STORY 3_SCH=A SPACE FUNCTION WORKSHOP SPACE LIGHTS,NECB-A-LIGHTING,ALL_ST=WORKSHOP SPACE_FL=STORY 3_SCH=A,1875.00,62.6,32062.233,17.100,512.461,0.000,0.500,0.200,0.300,1.000,General,1603.112,28856.010
 Lights Internal Gains Nominal, ALL_ST=WHOLEBUILDING_FL=STORY 3_SCH=B SPORTS ARENA WHOLEBUILDING LIGHTS,NECB-B-LIGHTING,ALL_ST=WHOLEBUILDING_FL=STORY 3_SCH=B,1875.00,187.5,15749.869,8.400,84.002,0.000,0.500,0.200,0.300,1.000,General,1574.987,14174.882
 Lights Internal Gains Nominal, ALL_ST=WHOLEBUILDING_FL=STORY 1_SCH=D TOWN HALL WHOLEBUILDING LIGHTS,NECB-D-LIGHTING,ALL_ST=WHOLEBUILDING_FL=STORY 1_SCH=D,1875.00,75.1,18562.346,9.900,247.240,0.000,0.500,0.200,0.300,1.000,General,928.117,16706.111
 Lights Internal Gains Nominal, ALL_ST=WHOLEBUILDING_FL=STORY 2_SCH=H TRANSPORTATION WHOLEBUILDING LIGHTS,NECB-H-LIGHTING,ALL_ST=WHOLEBUILDING_FL=STORY 2_SCH=H,1875.00,124.9,15562.370,8.300,124.570,0.000,0.500,0.200,0.300,1.000,General,14006.133,14006.133
 Lights Internal Gains Nominal, ALL_ST=WHOLEBUILDING_FL=STORY 2_SCH=A WAREHOUSE - REFRIGERATED WHOLEBUILDING LIGHTS,NECB-A-LIGHTING,ALL_ST=WHOLEBUILDING_FL=STORY 2_SCH=A,1875.00,1.2,13312.389,7.100,10993.435,0.000,0.500,0.200,0.300,1.000,General,665.619,11981.150
 Lights Internal Gains Nominal, ALL_ST=WHOLEBUILDING_FL=STORY 1_SCH=A WAREHOUSE WHOLEBUILDING LIGHTS,NECB-A-LIGHTING,ALL_ST=WHOLEBUILDING_FL=STORY 1_SCH=A,1875.00,1.2,13312.389,7.100,10993.435,0.000,0.500,0.200,0.300,1.000,General,665.619,11981.150
 Lights Internal Gains Nominal, ALL_ST=WHOLEBUILDING_FL=STORY 4_SCH=A WORKSHOP WHOLEBUILDING LIGHTS,NECB-A-LIGHTING,ALL_ST=WHOLEBUILDING_FL=STORY 4_SCH=A,1875.00,62.6,24187.299,12.900,386.593,0.000,0.500,0.200,0.300,1.000,General,1209.365,21768.569
! <ElectricEquipment Internal Gains Nominal>,Name,Schedule Name,Zone Name,Zone Floor Area {m2},# Zone Occupants,Equipment Level {W},Equipment/Floor Area {W/m2},Equipment per person {W/person},Fraction Latent,Fraction Radiant,Fraction Lost,Fraction Convected,End-Use SubCategory,Nominal Minimum Equipment Level {W},Nominal Maximum Equipment Level {W}
 ElectricEquipment Internal Gains Nominal, ALL_ST=WHOLEBUILDING_FL=STORY 1_SCH=E AUTOMOTIVE FACILITY WHOLEBUILDING ELEC EQUIP,NECB-E-ELECTRIC-EQUIPMENT,ALL_ST=WHOLEBUILDING_FL=STORY 1_SCH=E,1875.00,93.8,9374.922,5.000,99.895,0.000,0.500,0.000,0.500,General,468.746,8437.430
 ElectricEquipment Internal Gains Nominal, ALL_ST=WHOLEBUILDING_FL=STORY 1_SCH=E 1 AUTOMOTIVE FACILITY WHOLEBUILDING 1 ELEC EQUIP,NECB-E-ELECTRIC-EQUIPMENT,ALL_ST=WHOLEBUILDING_FL=STORY 1_SCH=E 1,2500.00,125.1,12499.896,5.000,99.895,0.000,0.500,0.000,0.500,General,624.995,11249.906
 ElectricEquipment Internal Gains Nominal, ALL_ST=WHOLEBUILDING_FL=STORY 2_SCH=E AUTOMOTIVE FACILITY WHOLEBUILDING 2 ELEC EQUIP,NECB-E-ELECTRIC-EQUIPMENT,ALL_ST=WHOLEBUILDING_FL=STORY 2_SCH=E,2500.00,125.1,12499.896,5.000,99.895,0.000,0.500,0.000,0.500,General,624.995,11249.906
 ElectricEquipment Internal Gains Nominal, ALL_ST=WHOLEBUILDING_FL=STORY 2_SCH=E 1 AUTOMOTIVE FACILITY WHOLEBUILDING 3 ELEC EQUIP,NECB-E-ELECTRIC-EQUIPMENT,ALL_ST=WHOLEBUILDING_FL=STORY 2_SCH=E 1,1875.00,93.8,9374.922,5.000,99.895,0.000,0.500,0.000,0.500,General,468.746,8437.430
 ElectricEquipment Internal Gains Nominal, ALL_ST=WHOLEBUILDING_FL=STORY 1_SCH=E 2 AUTOMOTIVE FACILITY WHOLEBUILDING 4 ELEC EQUIP,NECB-E-ELECTRIC-EQUIPMENT,ALL_ST=WHOLEBUILDING_FL=STORY 1_SCH=E 2,1875.00,93.8,9374.922,5.000,99.895,0.000,0.500,0.000,0.500,General,468.746,8437.430
 ElectricEquipment Internal Gains Nominal, ALL_ST=WHOLEBUILDING_FL=STORY 2_SCH=E 2 AUTOMOTIVE FACILITY WHOLEBUILDING 5 ELEC EQUIP,NECB-E-ELECTRIC-EQUIPMENT,ALL_ST=WHOLEBUILDING_FL=STORY 2_SCH=E 2,1875.00,93.8,9374.922,5.000,99.895,0.000,0.500,0.000,0.500,General,468.746,8437.430
 ElectricEquipment Internal Gains Nominal, WET_ST=WASHROOM-SCH-C_FL=STORY 4_SCHE SPACE FUNCTION WASHROOM-SCH-E ELEC EQUIP,NECB-E-ELECTRIC-EQUIPMENT,WET_ST=WASHROOM-SCH-C_FL=STORY 4_SCHE,2500.00,83.4,2499.979,1.000,29.968,0.000,0.500,0.000,0.500,General,124.999,2249.981
 ElectricEquipment Internal Gains Nominal, WET_ST=WASHROOM-SCH-D_FL=STORY 4_SCHE SPACE FUNCTION WASHROOM-SCH-E ELEC EQUIP,NECB-E-ELECTRIC-EQUIPMENT,WET_ST=WASHROOM-SCH-D_FL=STORY 4_SCHE,1875.00,62.6,1874.984,1.000,29.968,0.000,0.500,0.000,0.500,General,93.749,1687.486
 ElectricEquipment Internal Gains Nominal, WET_ST=WASHROOM-SCH-E_FL=STORY 4_SCHE SPACE FUNCTION WASHROOM-SCH-E ELEC EQUIP,NECB-E-ELECTRIC-EQUIPMENT,WET_ST=WASHROOM-SCH-E_FL=STORY 4_SCHE,1875.00,62.6,1874.984,1.000,29.968,0.000,0.500,0.000,0.500,General,93.749,1687.486
 ElectricEquipment Internal Gains Nominal, WET_ST=WASHROOM-SCH-F_FL=STORY 3_SCHE SPACE FUNCTION WASHROOM-SCH-E ELEC EQUIP,NECB-E-ELECTRIC-EQUIPMENT,WET_ST=WASHROOM-SCH-F_FL=STORY 3_SCHE,2500.00,83.4,2499.979,1.000,29.968,0.000,0.500,0.000,0.500,General,124.999,2249.981
 ElectricEquipment Internal Gains Nominal, WET_ST=WASHROOM-SCH-G_FL=STORY 3_SCHE SPACE FUNCTION WASHROOM-SCH-E ELEC EQUIP,NECB-E-ELECTRIC-EQUIPMENT,WET_ST=WASHROOM-SCH-G_FL=STORY 3_SCHE,1875.00,62.6,1874.984,1.000,29.968,0.000,0.500,0.000,0.500,General,93.749,1687.486
 ElectricEquipment Internal Gains Nominal, WET_ST=WASHROOM-SCH-H_FL=STORY 4_SCHE SPACE FUNCTION WASHROOM-SCH-E ELEC EQUIP,NECB-E-ELECTRIC-EQUIPMENT,WET_ST=WASHROOM-SCH-H_FL=STORY 4_SCHE,1875.00,62.6,1874.984,1.000,29.968,0.000,0.500,0.000,0.500,General,93.749,1687.486
 ElectricEquipment Internal Gains Nominal, WET_ST=WASHROOM-SCH-I_FL=STORY 3_SCHE SPACE FUNCTION WASHROOM-SCH-E ELEC EQUIP,NECB-E-ELECTRIC-EQUIPMENT,WET_ST=WASHROOM-SCH-I_FL=STORY 3_SCHE,1875.00,62.6,1874.984,1.000,29.968,0.000,0.500,0.000,0.500,General,93.749,1687.486
 ElectricEquipment Internal Gains Nominal, ALL_ST=WORKSHOP SPACE_FL=STORY 3_SCH=A SPACE FUNCTION WORKSHOP SPACE ELEC EQUIP,NECB-A-ELECTRIC-EQUIPMENT,ALL_ST=WORKSHOP SPACE_FL=STORY 3_SCH=A,1875.00,62.6,18749.844,10.000,299.685,0.000,0.500,0.000,0.500,General,3749.969,16874.860
 ElectricEquipment Internal Gains Nominal, ALL_ST=WHOLEBUILDING_FL=STORY 3_SCH=B SPORTS ARENA WHOLEBUILDING ELEC EQUIP,NECB-B-ELECTRIC-EQUIPMENT,ALL_ST=WHOLEBUILDING_FL=STORY 3_SCH=B,1875.00,187.5,1874.984,1.000,10.000,0.000,0.500,0.000,0.500,General,187.498,1687.486
 ElectricEquipment Internal Gains Nominal, ALL_ST=WHOLEBUILDING_FL=STORY 1_SCH=D TOWN HALL WHOLEBUILDING ELEC EQUIP,NECB-D-ELECTRIC-EQUIPMENT,ALL_ST=WHOLEBUILDING_FL=STORY 1_SCH=D,1875.00,75.1,14062.383,7.500,187.303,0.000,0.500,0.000,0.500,General,703.119,12656.145
 ElectricEquipment Internal Gains Nominal, ALL_ST=WHOLEBUILDING_FL=STORY 2_SCH=H TRANSPORTATION WHOLEBUILDING ELEC EQUIP,NECB-H-ELECTRIC-EQUIPMENT,ALL_ST=WHOLEBUILDING_FL=STORY 2_SCH=H,1875.00,124.9,1874.984,1.000,15.008,0.000,0.500,0.000,0.500,General,1687.486,1687.486
 ElectricEquipment Internal Gains Nominal, ALL_ST=WHOLEBUILDING_FL=STORY 2_SCH=A WAREHOUSE - REFRIGERATED WHOLEBUILDING ELEC EQUIP,NECB-A-ELECTRIC-EQUIPMENT,ALL_ST=WHOLEBUILDING_FL=STORY 2_SCH=A,1875.00,1.2,1874.984,1.000,1548.371,0.000,0.500,0.000,0.500,General,374.997,1687.486
 ElectricEquipment Internal Gains Nominal, ALL_ST=WHOLEBUILDING_FL=STORY 1_SCH=A WAREHOUSE WHOLEBUILDING ELEC EQUIP,NECB-A-ELECTRIC-EQUIPMENT,ALL_ST=WHOLEBUILDING_FL=STORY 1_SCH=A,1875.00,1.2,1874.984,1.000,1548.371,0.000,0.500,0.000,0.500,General,374.997,1687.486
 ElectricEquipment Internal Gains Nominal, ALL_ST=WHOLEBUILDING_FL=STORY 4_SCH=A WORKSHOP WHOLEBUILDING ELEC EQUIP,NECB-A-ELECTRIC-EQUIPMENT,ALL_ST=WHOLEBUILDING_FL=STORY 4_SCH=A,1875.00,62.6,18749.844,10.000,299.685,0.000,0.500,0.000,0.500,General,3749.969,16874.860
! <Shadowing/Sun Position Calculations Annual Simulations>, Calculation Method, Value {days}, Allowable Number Figures in Shadow Overlap {}, Polygon Clipping Algorithm, Sky Diffuse Modeling Algorithm, External Shading Calculation Method, Output External Shading Calculation Results, Disable Self-Shading Within Shading Zone Groups, Disable Self-Shading From Shading Zone Groups to Other Zones
Shadowing/Sun Position Calculations Annual Simulations,AverageOverDaysInFrequency,20,15000,SutherlandHodgman,SimpleSkyDiffuseModeling,InternalCalculation,No,No,No
! <Water Heater Information>,Type,Name,Volume {m3},Maximum Capacity {W},Standard Rated Recovery Efficiency, Standard Rated Energy Factor
! <ZoneInfiltration Airflow Stats Nominal>,Name,Schedule Name,Zone Name, Zone Floor Area {m2}, # Zone Occupants,Design Volume Flow Rate {m3/s},Volume Flow Rate/Floor Area {m3/s/m2},Volume Flow Rate/Exterior Surface Area {m3/s/m2},ACH - Air Changes per Hour,Equation A - Constant Term Coefficient {},Equation B - Temperature Term Coefficient {1/C},Equation C - Velocity Term Coefficient {s/m}, Equation D - Velocity Squared Term Coefficient {s2/m2}
 ZoneInfiltration Airflow Stats Nominal, WHOLEBUILDING-WAREHOUSE - REFRIGERATED INFILTRATION,ALWAYS ON DISCRETE,ALL_ST=WHOLEBUILDING_FL=STORY 2_SCH=A,1875.00,1.2,9.500E-002,5.067E-005,2.500E-004,4.800E-002,0.000,0.000,0.224,0.000
 ZoneInfiltration Airflow Stats Nominal, WHOLEBUILDING-AUTOMOTIVE FACILITY 3 INFILTRATION,ALWAYS ON DISCRETE,ALL_ST=WHOLEBUILDING_FL=STORY 2_SCH=E 1,1875.00,93.8,9.500E-002,5.067E-005,2.500E-004,4.800E-002,0.000,0.000,0.224,0.000
 ZoneInfiltration Airflow Stats Nominal, WHOLEBUILDING-AUTOMOTIVE FACILITY 5 INFILTRATION,ALWAYS ON DISCRETE,ALL_ST=WHOLEBUILDING_FL=STORY 2_SCH=E 2,1875.00,93.8,9.500E-002,5.067E-005,2.500E-004,4.800E-002,0.000,0.000,0.224,0.000
 ZoneInfiltration Airflow Stats Nominal, WHOLEBUILDING-TRANSPORTATION INFILTRATION,ALWAYS ON DISCRETE,ALL_ST=WHOLEBUILDING_FL=STORY 2_SCH=H,1875.00,124.9,9.500E-002,5.067E-005,2.500E-004,4.800E-002,0.000,0.000,0.224,0.000
 ZoneInfiltration Airflow Stats Nominal, WHOLEBUILDING-SPORTS ARENA INFILTRATION,ALWAYS ON DISCRETE,ALL_ST=WHOLEBUILDING_FL=STORY 3_SCH=B,1875.00,187.5,9.500E-002,5.067E-005,2.500E-004,4.800E-002,0.000,0.000,0.224,0.000
 ZoneInfiltration Airflow Stats Nominal, WHOLEBUILDING-WORKSHOP INFILTRATION,ALWAYS ON DISCRETE,ALL_ST=WHOLEBUILDING_FL=STORY 4_SCH=A,1875.00,62.6,0.564,3.007E-004,2.500E-004,0.285,0.000,0.000,0.224,0.000
 ZoneInfiltration Airflow Stats Nominal, WORKSHOP SPACE-SPACE FUNCTION INFILTRATION,ALWAYS ON DISCRETE,ALL_ST=WORKSHOP SPACE_FL=STORY 3_SCH=A,1875.00,62.6,9.500E-002,5.067E-005,2.500E-004,4.800E-002,0.000,0.000,0.224,0.000
 ZoneInfiltration Airflow Stats Nominal, WASHROOM-SCH-C-SPACE FUNCTION INFILTRATION,ALWAYS ON DISCRETE,WET_ST=WASHROOM-SCH-C_FL=STORY 4_SCHE,2500.00,83.4,0.625,2.500E-004,2.500E-004,0.237,0.000,0.000,0.224,0.000
 ZoneInfiltration Airflow Stats Nominal, WASHROOM-SCH-D-SPACE FUNCTION INFILTRATION,ALWAYS ON DISCRETE,WET_ST=WASHROOM-SCH-D_FL=STORY 4_SCHE,1875.00,62.6,0.564,3.007E-004,2.500E-004,0.285,0.000,0.000,0.224,0.000
 ZoneInfiltration Airflow Stats Nominal, WASHROOM-SCH-E-SPACE FUNCTION INFILTRATION,ALWAYS ON DISCRETE,WET_ST=WASHROOM-SCH-E_FL=STORY 4_SCHE,1875.00,62.6,0.564,3.007E-004,2.500E-004,0.285,0.000,0.000,0.224,0.000
 ZoneInfiltration Airflow Stats Nominal, WASHROOM-SCH-G-SPACE FUNCTION INFILTRATION,ALWAYS ON DISCRETE,WET_ST=WASHROOM-SCH-G_FL=STORY 3_SCHE,1875.00,62.6,9.500E-002,5.067E-005,2.500E-004,4.800E-002,0.000,0.000,0.224,0.000
 ZoneInfiltration Airflow Stats Nominal, WASHROOM-SCH-H-SPACE FUNCTION INFILTRATION,ALWAYS ON DISCRETE,WET_ST=WASHROOM-SCH-H_FL=STORY 4_SCHE,1875.00,62.6,0.564,3.007E-004,2.500E-004,0.285,0.000,0.000,0.224,0.000
 ZoneInfiltration Airflow Stats Nominal, WASHROOM-SCH-I-SPACE FUNCTION INFILTRATION,ALWAYS ON DISCRETE,WET_ST=WASHROOM-SCH-I_FL=STORY 3_SCHE,1875.00,62.6,9.500E-002,5.067E-005,2.500E-004,4.800E-002,0.000,0.000,0.224,0.000
! <AirFlow Model>, Simple
 AirFlow Model, Simple
! <RoomAir Model>, Zone Name, Mixing/Mundt/UCSDDV/UCSDCV/UCSDUFI/UCSDUFE/User Defined
RoomAir Model,ALL_ST=WHOLEBUILDING_FL=STORY 1_SCH=A,Mixing/Well-Stirred
RoomAir Model,ALL_ST=WHOLEBUILDING_FL=STORY 1_SCH=D,Mixing/Well-Stirred
RoomAir Model,ALL_ST=WHOLEBUILDING_FL=STORY 1_SCH=E,Mixing/Well-Stirred
RoomAir Model,ALL_ST=WHOLEBUILDING_FL=STORY 1_SCH=E 1,Mixing/Well-Stirred
RoomAir Model,ALL_ST=WHOLEBUILDING_FL=STORY 1_SCH=E 2,Mixing/Well-Stirred
RoomAir Model,ALL_ST=WHOLEBUILDING_FL=STORY 2_SCH=A,Mixing/Well-Stirred
RoomAir Model,ALL_ST=WHOLEBUILDING_FL=STORY 2_SCH=E,Mixing/Well-Stirred
RoomAir Model,ALL_ST=WHOLEBUILDING_FL=STORY 2_SCH=E 1,Mixing/Well-Stirred
RoomAir Model,ALL_ST=WHOLEBUILDING_FL=STORY 2_SCH=E 2,Mixing/Well-Stirred
RoomAir Model,ALL_ST=WHOLEBUILDING_FL=STORY 2_SCH=H,Mixing/Well-Stirred
RoomAir Model,ALL_ST=WHOLEBUILDING_FL=STORY 3_SCH=B,Mixing/Well-Stirred
RoomAir Model,ALL_ST=WHOLEBUILDING_FL=STORY 4_SCH=A,Mixing/Well-Stirred
RoomAir Model,ALL_ST=WORKSHOP SPACE_FL=STORY 3_SCH=A,Mixing/Well-Stirred
RoomAir Model,WET_ST=WASHROOM-SCH-C_FL=STORY 4_SCHE,Mixing/Well-Stirred
RoomAir Model,WET_ST=WASHROOM-SCH-D_FL=STORY 4_SCHE,Mixing/Well-Stirred
RoomAir Model,WET_ST=WASHROOM-SCH-E_FL=STORY 4_SCHE,Mixing/Well-Stirred
RoomAir Model,WET_ST=WASHROOM-SCH-F_FL=STORY 3_SCHE,Mixing/Well-Stirred
RoomAir Model,WET_ST=WASHROOM-SCH-G_FL=STORY 3_SCHE,Mixing/Well-Stirred
RoomAir Model,WET_ST=WASHROOM-SCH-H_FL=STORY 4_SCHE,Mixing/Well-Stirred
RoomAir Model,WET_ST=WASHROOM-SCH-I_FL=STORY 3_SCHE,Mixing/Well-Stirred
! <AirflowNetwork Model:Control>, No Multizone or Distribution/Multizone with Distribution/Multizone without Distribution/Multizone with Distribution only during Fan Operation
AirflowNetwork Model:Control,NoMultizoneOrDistribution
! <Zone Volume Capacitance Multiplier>, Sensible Heat Capacity Multiplier, Moisture Capacity Multiplier, Carbon Dioxide Capacity Multiplier, Generic Contaminant Capacity Multiplier
Zone Volume Capacitance Multiplier,   1.000 ,   1.000,   1.000,   1.000
! <Load Timesteps in Zone Design Calculation Averaging Window>, Value
 Load Timesteps in Zone Design Calculation Averaging Window,    6
! <Heating Sizing Factor Information>, Sizing Factor ID, Value
 Heating Sizing Factor Information, Global,   1.3000    
 Heating Sizing Factor Information, Zone ALL_ST=WHOLEBUILDING_FL=STORY 1_SCH=A,   1.3000    
 Heating Sizing Factor Information, Zone ALL_ST=WHOLEBUILDING_FL=STORY 1_SCH=D,   1.3000    
 Heating Sizing Factor Information, Zone ALL_ST=WHOLEBUILDING_FL=STORY 1_SCH=E,   1.3000    
 Heating Sizing Factor Information, Zone ALL_ST=WHOLEBUILDING_FL=STORY 1_SCH=E 1,   1.3000    
 Heating Sizing Factor Information, Zone ALL_ST=WHOLEBUILDING_FL=STORY 1_SCH=E 2,   1.3000    
 Heating Sizing Factor Information, Zone ALL_ST=WHOLEBUILDING_FL=STORY 2_SCH=A,   1.3000    
 Heating Sizing Factor Information, Zone ALL_ST=WHOLEBUILDING_FL=STORY 2_SCH=E,   1.3000    
 Heating Sizing Factor Information, Zone ALL_ST=WHOLEBUILDING_FL=STORY 2_SCH=E 1,   1.3000    
 Heating Sizing Factor Information, Zone ALL_ST=WHOLEBUILDING_FL=STORY 2_SCH=E 2,   1.3000    
 Heating Sizing Factor Information, Zone ALL_ST=WHOLEBUILDING_FL=STORY 2_SCH=H,   1.3000    
 Heating Sizing Factor Information, Zone ALL_ST=WHOLEBUILDING_FL=STORY 3_SCH=B,   1.3000    
 Heating Sizing Factor Information, Zone ALL_ST=WHOLEBUILDING_FL=STORY 4_SCH=A,   1.3000    
 Heating Sizing Factor Information, Zone ALL_ST=WORKSHOP SPACE_FL=STORY 3_SCH=A,   1.3000    
 Heating Sizing Factor Information, Zone WET_ST=WASHROOM-SCH-C_FL=STORY 4_SCHE,   1.3000    
 Heating Sizing Factor Information, Zone WET_ST=WASHROOM-SCH-D_FL=STORY 4_SCHE,   1.3000    
 Heating Sizing Factor Information, Zone WET_ST=WASHROOM-SCH-E_FL=STORY 4_SCHE,   1.3000    
 Heating Sizing Factor Information, Zone WET_ST=WASHROOM-SCH-F_FL=STORY 3_SCHE,   1.3000    
 Heating Sizing Factor Information, Zone WET_ST=WASHROOM-SCH-G_FL=STORY 3_SCHE,   1.3000    
 Heating Sizing Factor Information, Zone WET_ST=WASHROOM-SCH-H_FL=STORY 4_SCHE,   1.3000    
 Heating Sizing Factor Information, Zone WET_ST=WASHROOM-SCH-I_FL=STORY 3_SCHE,   1.3000    
! <Cooling Sizing Factor Information>, Sizing Factor ID, Value
 Cooling Sizing Factor Information, Global,   1.1000    
 Cooling Sizing Factor Information, Zone ALL_ST=WHOLEBUILDING_FL=STORY 1_SCH=A,   1.1000    
 Cooling Sizing Factor Information, Zone ALL_ST=WHOLEBUILDING_FL=STORY 1_SCH=D,   1.1000    
 Cooling Sizing Factor Information, Zone ALL_ST=WHOLEBUILDING_FL=STORY 1_SCH=E,   1.1000    
 Cooling Sizing Factor Information, Zone ALL_ST=WHOLEBUILDING_FL=STORY 1_SCH=E 1,   1.1000    
 Cooling Sizing Factor Information, Zone ALL_ST=WHOLEBUILDING_FL=STORY 1_SCH=E 2,   1.1000    
 Cooling Sizing Factor Information, Zone ALL_ST=WHOLEBUILDING_FL=STORY 2_SCH=A,   1.1000    
 Cooling Sizing Factor Information, Zone ALL_ST=WHOLEBUILDING_FL=STORY 2_SCH=E,   1.1000    
 Cooling Sizing Factor Information, Zone ALL_ST=WHOLEBUILDING_FL=STORY 2_SCH=E 1,   1.1000    
 Cooling Sizing Factor Information, Zone ALL_ST=WHOLEBUILDING_FL=STORY 2_SCH=E 2,   1.1000    
 Cooling Sizing Factor Information, Zone ALL_ST=WHOLEBUILDING_FL=STORY 2_SCH=H,   1.1000    
 Cooling Sizing Factor Information, Zone ALL_ST=WHOLEBUILDING_FL=STORY 3_SCH=B,   1.1000    
 Cooling Sizing Factor Information, Zone ALL_ST=WHOLEBUILDING_FL=STORY 4_SCH=A,   1.1000    
 Cooling Sizing Factor Information, Zone ALL_ST=WORKSHOP SPACE_FL=STORY 3_SCH=A,   1.1000    
 Cooling Sizing Factor Information, Zone WET_ST=WASHROOM-SCH-C_FL=STORY 4_SCHE,   1.1000    
 Cooling Sizing Factor Information, Zone WET_ST=WASHROOM-SCH-D_FL=STORY 4_SCHE,   1.1000    
 Cooling Sizing Factor Information, Zone WET_ST=WASHROOM-SCH-E_FL=STORY 4_SCHE,   1.1000    
 Cooling Sizing Factor Information, Zone WET_ST=WASHROOM-SCH-F_FL=STORY 3_SCHE,   1.1000    
 Cooling Sizing Factor Information, Zone WET_ST=WASHROOM-SCH-G_FL=STORY 3_SCHE,   1.1000    
 Cooling Sizing Factor Information, Zone WET_ST=WASHROOM-SCH-H_FL=STORY 4_SCHE,   1.1000    
 Cooling Sizing Factor Information, Zone WET_ST=WASHROOM-SCH-I_FL=STORY 3_SCHE,   1.1000    
! <Zone Sizing Information>, Zone Name, Load Type, Calc Des Load {W}, User Des Load {W}, Calc Des Air Flow Rate {m3/s}, User Des Air Flow Rate {m3/s}, Design Day Name, Date/Time of Peak, Temperature at Peak {C}, Humidity Ratio at Peak {kgWater/kgDryAir}, Floor Area {m2}, # Occupants, Calc Outdoor Air Flow Rate {m3/s}, Calc DOAS Heat Addition Rate {W}
 Zone Sizing Information, ALL_ST=WHOLEBUILDING_FL=STORY 1_SCH=A, Cooling, 11474.70692, 12622.17761, 0.88680, 0.97547, FORT MCMURRAY AP ANN CLG .4% CONDNS DB=>MWB, 7/21 17:00:00, 27.16400, 8.76969E-003, 1875.00000, 1.21094, 0.58103, 0.00000
 Zone Sizing Information, ALL_ST=WHOLEBUILDING_FL=STORY 1_SCH=A, Heating, 1571.05183, 2042.36737, 6.31023E-002, 0.58103, FORT MCMURRAY AP ANN HTG 99.6% CONDNS DB, 1/21 07:40:00, -36.20000, 1.25811E-004, 1875.00000, 1.21094, 0.58103, 0.00000
 Zone Sizing Information, ALL_ST=WHOLEBUILDING_FL=STORY 1_SCH=D, Cooling, 27867.53060, 30654.28366, 2.15385, 2.36924, FORT MCMURRAY AP ANN CLG .4% CONDNS DB=>MWB, 7/21 16:00:00, 28.15600, 8.76969E-003, 1875.00000, 75.07828, 0.75248, 0.00000
 Zone Sizing Information, ALL_ST=WHOLEBUILDING_FL=STORY 1_SCH=D, Heating, 0.00000, 0.00000, 0.00000, 0.75248, FORT MCMURRAY AP ANN HTG 99.6% CONDNS DB, , -36.20000, 1.25811E-004, 1875.00000, 75.07828, 0.75248, 0.00000
 Zone Sizing Information, ALL_ST=WHOLEBUILDING_FL=STORY 1_SCH=E, Cooling, 26527.61932, 29180.38126, 2.05035, 2.25539, FORT MCMURRAY AP ANN CLG .4% CONDNS DB=>MWB, 7/21 14:00:00, 28.90000, 8.76969E-003, 1875.00000, 93.84784, 2.15265, 0.00000
 Zone Sizing Information, ALL_ST=WHOLEBUILDING_FL=STORY 1_SCH=E, Heating, 642.62522, 835.41278, 2.58194E-002, 2.15265, FORT MCMURRAY AP ANN HTG 99.6% CONDNS DB, 1/21 08:10:00, -36.20000, 1.25811E-004, 1875.00000, 93.84784, 2.15265, 0.00000
 Zone Sizing Information, ALL_ST=WHOLEBUILDING_FL=STORY 1_SCH=E 1, Cooling, 30621.25630, 33683.38193, 2.36672, 2.87020, FORT MCMURRAY AP ANN CLG .4% CONDNS DB=>MWB, 7/21 16:00:00, 28.15600, 8.76969E-003, 2500.00000, 125.13046, 2.87020, 0.00000
 Zone Sizing Information, ALL_ST=WHOLEBUILDING_FL=STORY 1_SCH=E 1, Heating, 0.00000, 0.00000, 0.00000, 2.87020, FORT MCMURRAY AP ANN HTG 99.6% CONDNS DB, , -36.20000, 1.25811E-004, 2500.00000, 125.13046, 2.87020, 0.00000
 Zone Sizing Information, ALL_ST=WHOLEBUILDING_FL=STORY 1_SCH=E 2, Cooling, 26256.98621, 28882.68483, 2.02939, 2.23233, FORT MCMURRAY AP ANN CLG .4% CONDNS DB=>MWB, 7/21 16:00:00, 28.15600, 8.76969E-003, 1875.00000, 93.84784, 2.15265, 0.00000
 Zone Sizing Information, ALL_ST=WHOLEBUILDING_FL=STORY 1_SCH=E 2, Heating, 0.00000, 0.00000, 0.00000, 2.15265, FORT MCMURRAY AP ANN HTG 99.6% CONDNS DB, , -36.20000, 1.25811E-004, 1875.00000, 93.84784, 2.15265, 0.00000
 Zone Sizing Information, ALL_ST=WHOLEBUILDING_FL=STORY 2_SCH=A, Cooling, 17523.77721, 19276.15493, 1.35428, 1.48971, FORT MCMURRAY AP ANN CLG .4% CONDNS DB=>MWB, 7/21 15:50:00, 28.28000, 8.76969E-003, 1875.00000, 1.21094, 0.58103, 0.00000
 Zone Sizing Information, ALL_ST=WHOLEBUILDING_FL=STORY 2_SCH=A, Heating, 21339.03033, 27740.73943, 0.83411, 1.08434, FORT MCMURRAY AP ANN HTG 99.6% CONDNS DB, 1/21 08:00:00, -36.20000, 1.25811E-004, 1875.00000, 1.21094, 0.58103, 0.00000
 Zone Sizing Information, ALL_ST=WHOLEBUILDING_FL=STORY 2_SCH=E, Cooling, 35804.83301, 39385.31631, 2.76734, 3.04408, FORT MCMURRAY AP ANN CLG .4% CONDNS DB=>MWB, 7/21 16:00:00, 28.15600, 8.76969E-003, 2500.00000, 125.13046, 2.87020, 0.00000
 Zone Sizing Information, ALL_ST=WHOLEBUILDING_FL=STORY 2_SCH=E, Heating, 0.00000, 0.00000, 0.00000, 2.87020, FORT MCMURRAY AP ANN HTG 99.6% CONDNS DB, , -36.20000, 1.25811E-004, 2500.00000, 125.13046, 2.87020, 0.00000
 Zone Sizing Information, ALL_ST=WHOLEBUILDING_FL=STORY 2_SCH=E 1, Cooling, 45606.50413, 50167.15454, 3.20703, 3.52773, FORT MCMURRAY AP ANN CLG .4% CONDNS DB=>MWB, 7/21 08:00:00, 19.72400, 8.76969E-003, 1875.00000, 93.84784, 2.15265, 0.00000
 Zone Sizing Information, ALL_ST=WHOLEBUILDING_FL=STORY 2_SCH=E 1, Heating, 19351.80843, 25157.35095, 0.75400, 2.15265, FORT MCMURRAY AP ANN HTG 99.6% CONDNS DB, 1/21 09:00:00, -36.20000, 1.25811E-004, 1875.00000, 93.84784, 2.15265, 0.00000
 Zone Sizing Information, ALL_ST=WHOLEBUILDING_FL=STORY 2_SCH=E 2, Cooling, 40949.49978, 45044.44975, 3.16503, 3.48154, FORT MCMURRAY AP ANN CLG .4% CONDNS DB=>MWB, 7/21 13:50:00, 28.79667, 8.76969E-003, 1875.00000, 93.84784, 2.15265, 0.00000
 Zone Sizing Information, ALL_ST=WHOLEBUILDING_FL=STORY 2_SCH=E 2, Heating, 18258.15621, 23735.60307, 0.70960, 2.15265, FORT MCMURRAY AP ANN HTG 99.6% CONDNS DB, 1/21 09:00:00, -36.20000, 1.25811E-004, 1875.00000, 93.84784, 2.15265, 0.00000
 Zone Sizing Information, ALL_ST=WHOLEBUILDING_FL=STORY 2_SCH=H, Cooling, 44558.24945, 49014.07440, 3.44408, 3.78849, FORT MCMURRAY AP ANN CLG .4% CONDNS DB=>MWB, 7/21 18:10:00, 25.61400, 8.76969E-003, 1875.00000, 124.92864, 1.00965, 0.00000
 Zone Sizing Information, ALL_ST=WHOLEBUILDING_FL=STORY 2_SCH=H, Heating, 0.00000, 0.00000, 0.00000, 1.00965, FORT MCMURRAY AP ANN HTG 99.6% CONDNS DB, , -36.20000, 1.25811E-004, 1875.00000, 124.92864, 1.00965, 0.00000
 Zone Sizing Information, ALL_ST=WHOLEBUILDING_FL=STORY 3_SCH=B, Cooling, 34182.71033, 37600.98136, 2.64202, 2.90622, FORT MCMURRAY AP ANN CLG .4% CONDNS DB=>MWB, 7/21 20:10:00, 22.51400, 8.76969E-003, 1875.00000, 187.49386, 1.23825, 0.00000
 Zone Sizing Information, ALL_ST=WHOLEBUILDING_FL=STORY 3_SCH=B, Heating, 26556.11944, 34522.95527, 1.04663, 1.36063, FORT MCMURRAY AP ANN HTG 99.6% CONDNS DB, 1/21 10:00:00, -36.20000, 1.25811E-004, 1875.00000, 187.49386, 1.23825, 0.00000
 Zone Sizing Information, ALL_ST=WHOLEBUILDING_FL=STORY 4_SCH=A, Cooling, 94217.86180, 103639.64798, 7.28191, 8.01010, FORT MCMURRAY AP ANN CLG .4% CONDNS DB=>MWB, 7/21 16:10:00, 27.99067, 8.76969E-003, 1875.00000, 62.56523, 2.00978, 0.00000
 Zone Sizing Information, ALL_ST=WHOLEBUILDING_FL=STORY 4_SCH=A, Heating, 44771.09893, 58202.42862, 1.78258, 2.31736, FORT MCMURRAY AP ANN HTG 99.6% CONDNS DB, 1/21 08:00:00, -36.20000, 1.25811E-004, 1875.00000, 62.56523, 2.00978, 0.00000
 Zone Sizing Information, ALL_ST=WORKSHOP SPACE_FL=STORY 3_SCH=A, Cooling, 67526.00859, 74278.60944, 5.21895, 5.74085, FORT MCMURRAY AP ANN CLG .4% CONDNS DB=>MWB, 7/21 17:30:00, 26.54400, 8.76969E-003, 1875.00000, 62.56523, 3.61950, 0.00000
 Zone Sizing Information, ALL_ST=WORKSHOP SPACE_FL=STORY 3_SCH=A, Heating, 12343.31585, 16046.31061, 0.48358, 3.61950, FORT MCMURRAY AP ANN HTG 99.6% CONDNS DB, 1/21 08:00:00, -36.20000, 1.25811E-004, 1875.00000, 62.56523, 3.61950, 0.00000
 Zone Sizing Information, WET_ST=WASHROOM-SCH-C_FL=STORY 4_SCHE, Cooling, 75476.01399, 83023.61539, 5.83340, 6.41674, FORT MCMURRAY AP ANN CLG .4% CONDNS DB=>MWB, 7/21 13:40:00, 28.69333, 8.76969E-003, 2500.00000, 83.42031, 0.76200, 0.00000
 Zone Sizing Information, WET_ST=WASHROOM-SCH-C_FL=STORY 4_SCHE, Heating, 46574.34977, 60546.65471, 1.84536, 2.39896, FORT MCMURRAY AP ANN HTG 99.6% CONDNS DB, 1/21 09:00:00, -36.20000, 1.25811E-004, 2500.00000, 83.42031, 0.76200, 0.00000
 Zone Sizing Information, WET_ST=WASHROOM-SCH-D_FL=STORY 4_SCHE, Cooling, 79036.49717, 86940.14689, 6.10857, 6.71943, FORT MCMURRAY AP ANN CLG .4% CONDNS DB=>MWB, 7/21 13:30:00, 28.59000, 8.76969E-003, 1875.00000, 62.56523, 0.57150, 0.00000
 Zone Sizing Information, WET_ST=WASHROOM-SCH-D_FL=STORY 4_SCHE, Heating, 54164.65136, 70414.04677, 2.16131, 2.80970, FORT MCMURRAY AP ANN HTG 99.6% CONDNS DB, 1/21 09:00:00, -36.20000, 1.25811E-004, 1875.00000, 62.56523, 0.57150, 0.00000
 Zone Sizing Information, WET_ST=WASHROOM-SCH-E_FL=STORY 4_SCHE, Cooling, 68224.83666, 75047.32032, 5.27290, 5.80019, FORT MCMURRAY AP ANN CLG .4% CONDNS DB=>MWB, 7/21 11:00:00, 26.04800, 8.76969E-003, 1875.00000, 62.56523, 0.57150, 0.00000
 Zone Sizing Information, WET_ST=WASHROOM-SCH-E_FL=STORY 4_SCHE, Heating, 54921.15775, 71397.50508, 2.19190, 2.84947, FORT MCMURRAY AP ANN HTG 99.6% CONDNS DB, 1/21 09:00:00, -36.20000, 1.25811E-004, 1875.00000, 62.56523, 0.57150, 0.00000
 Zone Sizing Information, WET_ST=WASHROOM-SCH-F_FL=STORY 3_SCHE, Cooling, 36246.86367, 39871.55004, 2.80144, 3.08158, FORT MCMURRAY AP ANN CLG .4% CONDNS DB=>MWB, 7/21 17:50:00, 26.13067, 8.76969E-003, 2500.00000, 83.42031, 0.76200, 0.00000
 Zone Sizing Information, WET_ST=WASHROOM-SCH-F_FL=STORY 3_SCHE, Heating, 5693.68251, 7401.78726, 0.22587, 0.76200, FORT MCMURRAY AP ANN HTG 99.6% CONDNS DB, 1/21 09:00:00, -36.20000, 1.25811E-004, 2500.00000, 83.42031, 0.76200, 0.00000
 Zone Sizing Information, WET_ST=WASHROOM-SCH-G_FL=STORY 3_SCHE, Cooling, 41907.60767, 46098.36844, 3.23897, 3.56286, FORT MCMURRAY AP ANN CLG .4% CONDNS DB=>MWB, 7/21 14:00:00, 28.90000, 8.76969E-003, 1875.00000, 62.56523, 0.57150, 0.00000
 Zone Sizing Information, WET_ST=WASHROOM-SCH-G_FL=STORY 3_SCHE, Heating, 31960.57055, 41548.74172, 1.26417, 1.64342, FORT MCMURRAY AP ANN HTG 99.6% CONDNS DB, 1/21 09:00:00, -36.20000, 1.25811E-004, 1875.00000, 62.56523, 0.57150, 0.00000
 Zone Sizing Information, WET_ST=WASHROOM-SCH-H_FL=STORY 4_SCHE, Cooling, 60680.37537, 66748.41291, 4.68987, 5.15885, FORT MCMURRAY AP ANN CLG .4% CONDNS DB=>MWB, 7/21 13:50:00, 28.79667, 8.76969E-003, 1875.00000, 62.56523, 0.57150, 0.00000
 Zone Sizing Information, WET_ST=WASHROOM-SCH-H_FL=STORY 4_SCHE, Heating, 52178.85252, 67832.50828, 2.08133, 2.70573, FORT MCMURRAY AP ANN HTG 99.6% CONDNS DB, 1/21 09:00:00, -36.20000, 1.25811E-004, 1875.00000, 62.56523, 0.57150, 0.00000
 Zone Sizing Information, WET_ST=WASHROOM-SCH-I_FL=STORY 3_SCHE, Cooling, 49560.88168, 54516.96984, 3.48450, 3.83295, FORT MCMURRAY AP ANN CLG .4% CONDNS DB=>MWB, 7/21 08:00:00, 19.72400, 8.76969E-003, 1875.00000, 62.56523, 0.57150, 0.00000
 Zone Sizing Information, WET_ST=WASHROOM-SCH-I_FL=STORY 3_SCHE, Heating, 33275.99293, 43258.79081, 1.31752, 1.71278, FORT MCMURRAY AP ANN HTG 99.6% CONDNS DB, 1/21 09:00:00, -36.20000, 1.25811E-004, 1875.00000, 62.56523, 0.57150, 0.00000
! <System Sizing Information>, System Name, Load Type, Peak Load Kind, User Design Capacity, Calc Des Air Flow Rate [m3/s], User Des Air Flow Rate [m3/s], Design Day Name, Date/Time of Peak
 System Sizing Information, SYS_2_MAKE-UP AIR UNIT, Cooling, Sensible, 21858.13, 1.48971, 1.48971, FORT MCMURRAY AP ANN CLG .4% CONDNS DB=>MWB, 7/21 00:00:00
 System Sizing Information, SYS_2_MAKE-UP AIR UNIT, Heating, Sensible, 28244.15, 1.08434, 1.08434, FORT MCMURRAY AP ANN HTG 99.6% CONDNS DB, 1/21 00:10:00
 System Sizing Information, SYS_3_PSZ ALL_ST=WHOLEBUILDING_FL=STORY 1_SCH=D, Cooling, Sensible, 33802.88, 2.36924, 2.36924, FORT MCMURRAY AP ANN CLG .4% CONDNS DB=>MWB, 7/21 05:00:00
 System Sizing Information, SYS_3_PSZ ALL_ST=WHOLEBUILDING_FL=STORY 1_SCH=D, Heating, Sensible, 69020.07, 0.75248, 0.75248, FORT MCMURRAY AP ANN HTG 99.6% CONDNS DB, 1/21 00:10:00
 System Sizing Information, SYS_3_PSZ ALL_ST=WHOLEBUILDING_FL=STORY 4_SCH=A, Cooling, Sensible, 111327.48, 8.01010, 8.01010, FORT MCMURRAY AP ANN CLG .4% CONDNS DB=>MWB, 7/21 05:00:00
 System Sizing Information, SYS_3_PSZ ALL_ST=WHOLEBUILDING_FL=STORY 4_SCH=A, Heating, Sensible, 191886.88, 2.31736, 2.31736, FORT MCMURRAY AP ANN HTG 99.6% CONDNS DB, 1/21 08:00:00
 System Sizing Information, SYS_3_PSZ ALL_ST=WORKSHOP SPACE_FL=STORY 3_SCH=A, Cooling, Sensible, 83797.44, 5.74085, 5.74085, FORT MCMURRAY AP ANN CLG .4% CONDNS DB=>MWB, 7/21 05:00:00
 System Sizing Information, SYS_3_PSZ ALL_ST=WORKSHOP SPACE_FL=STORY 3_SCH=A, Heating, Sensible, 331995.26, 3.61950, 3.61950, FORT MCMURRAY AP ANN HTG 99.6% CONDNS DB, 1/21 00:10:00
 System Sizing Information, SYS_4_PSZ_ALL_ST=WHOLEBUILDING_FL=STORY 1_SCH=A, Cooling, Sensible, 14556.07, 0.97547, 0.97547, FORT MCMURRAY AP ANN CLG .4% CONDNS DB=>MWB, 7/21 05:00:00
 System Sizing Information, SYS_4_PSZ_ALL_ST=WHOLEBUILDING_FL=STORY 1_SCH=A, Heating, Sensible, 53293.98, 0.58103, 0.58103, FORT MCMURRAY AP ANN HTG 99.6% CONDNS DB, 1/21 00:10:00
 System Sizing Information, SYS_4_PSZ_ALL_ST=WHOLEBUILDING_FL=STORY 1_SCH=E, Cooling, Sensible, 40948.25, 2.25539, 2.25539, FORT MCMURRAY AP ANN CLG .4% CONDNS DB=>MWB, 7/21 05:00:00
 System Sizing Information, SYS_4_PSZ_ALL_ST=WHOLEBUILDING_FL=STORY 1_SCH=E, Heating, Sensible, 197449.81, 2.15265, 2.15265, FORT MCMURRAY AP ANN HTG 99.6% CONDNS DB, 1/21 00:10:00
 System Sizing Information, SYS_4_PSZ_ALL_ST=WHOLEBUILDING_FL=STORY 1_SCH=E 1, Cooling, Sensible, 50379.62, 2.87020, 2.87020, FORT MCMURRAY AP ANN CLG .4% CONDNS DB=>MWB, 7/21 05:00:00
 System Sizing Information, SYS_4_PSZ_ALL_ST=WHOLEBUILDING_FL=STORY 1_SCH=E 1, Heating, Sensible, 263266.42, 2.87020, 2.87020, FORT MCMURRAY AP ANN HTG 99.6% CONDNS DB, 1/21 00:10:00
 System Sizing Information, SYS_4_PSZ_ALL_ST=WHOLEBUILDING_FL=STORY 1_SCH=E 2, Cooling, Sensible, 38799.75, 2.23233, 2.23233, FORT MCMURRAY AP ANN CLG .4% CONDNS DB=>MWB, 7/21 05:00:00
 System Sizing Information, SYS_4_PSZ_ALL_ST=WHOLEBUILDING_FL=STORY 1_SCH=E 2, Heating, Sensible, 197449.81, 2.15265, 2.15265, FORT MCMURRAY AP ANN HTG 99.6% CONDNS DB, 1/21 00:10:00
 System Sizing Information, SYS_4_PSZ_ALL_ST=WHOLEBUILDING_FL=STORY 2_SCH=E, Cooling, Sensible, 52594.52, 3.04408, 3.04408, FORT MCMURRAY AP ANN CLG .4% CONDNS DB=>MWB, 7/21 05:00:00
 System Sizing Information, SYS_4_PSZ_ALL_ST=WHOLEBUILDING_FL=STORY 2_SCH=E, Heating, Sensible, 263266.42, 2.87020, 2.87020, FORT MCMURRAY AP ANN HTG 99.6% CONDNS DB, 1/21 00:10:00
 System Sizing Information, SYS_4_PSZ_ALL_ST=WHOLEBUILDING_FL=STORY 2_SCH=E 1, Cooling, Sensible, 34173.14, 3.52773, 3.52773, FORT MCMURRAY AP ANN CLG .4% CONDNS DB=>MWB, 7/21 05:00:00
 System Sizing Information, SYS_4_PSZ_ALL_ST=WHOLEBUILDING_FL=STORY 2_SCH=E 1, Heating, Sensible, 197449.81, 2.15265, 2.15265, FORT MCMURRAY AP ANN HTG 99.6% CONDNS DB, 1/21 00:10:00
 System Sizing Information, SYS_4_PSZ_ALL_ST=WHOLEBUILDING_FL=STORY 2_SCH=E 2, Cooling, Sensible, 56309.33, 3.48154, 3.48154, FORT MCMURRAY AP ANN CLG .4% CONDNS DB=>MWB, 7/21 05:00:00
 System Sizing Information, SYS_4_PSZ_ALL_ST=WHOLEBUILDING_FL=STORY 2_SCH=E 2, Heating, Sensible, 197449.81, 2.15265, 2.15265, FORT MCMURRAY AP ANN HTG 99.6% CONDNS DB, 1/21 00:10:00
 System Sizing Information, SYS_4_PSZ_WET_ST=WASHROOM-SCH-C_FL=STORY 4_SCHE, Cooling, Sensible, 455649.92, 34.57262, 34.57262, FORT MCMURRAY AP ANN CLG .4% CONDNS DB=>MWB, 7/21 05:00:00
 System Sizing Information, SYS_4_PSZ_WET_ST=WASHROOM-SCH-C_FL=STORY 4_SCHE, Heating, Sensible, 659679.78, 14.88207, 14.88207, FORT MCMURRAY AP ANN HTG 99.6% CONDNS DB, 1/21 09:00:00
 System Sizing Information, SYS_6_VAV WITH REHEAT, Cooling, Sensible, 50145.33, 3.78849, 3.78849, FORT MCMURRAY AP ANN CLG .4% CONDNS DB=>MWB, 7/21 00:00:00
 System Sizing Information, SYS_6_VAV WITH REHEAT, Heating, Sensible, 57646.89, 1.00965, 1.00965, FORT MCMURRAY AP ANN HTG 99.6% CONDNS DB, 1/21 00:10:00
 System Sizing Information, SYS_6_VAV WITH REHEAT 1, Cooling, Sensible, 34890.27, 2.90622, 2.90622, FORT MCMURRAY AP ANN CLG .4% CONDNS DB=>MWB, 7/21 00:00:00
 System Sizing Information, SYS_6_VAV WITH REHEAT 1, Heating, Sensible, 69476.95, 1.36063, 1.36063, FORT MCMURRAY AP ANN HTG 99.6% CONDNS DB, 1/21 00:20:00
! <Component Sizing Information>, Component Type, Component Name, Input Field Description, Value
 Component Sizing Information, AirTerminal:SingleDuct:Uncontrolled, AIR TERMINAL SINGLE DUCT UNCONTROLLED 11, Design Size Maximum Air Flow Rate [m3/s], 0.97547
 Component Sizing Information, ZoneHVAC:Baseboard:Convective:Water, ZONE HVAC BASEBOARD CONVECTIVE WATER 13, Design Size Maximum Water Flow Rate [m3/s], 3.05044E-005
 Component Sizing Information, ZoneHVAC:Baseboard:Convective:Water, ZONE HVAC BASEBOARD CONVECTIVE WATER 13, Design Size U-Factor Times Area Value [W/K], 62.63976
 Component Sizing Information, AirTerminal:SingleDuct:Uncontrolled, AIR TERMINAL SINGLE DUCT UNCONTROLLED 9, Design Size Maximum Air Flow Rate [m3/s], 2.36924
 Component Sizing Information, ZoneHVAC:Baseboard:Convective:Water, ZONE HVAC BASEBOARD CONVECTIVE WATER 9, Design Size Maximum Water Flow Rate [m3/s], 0.00000
 Component Sizing Information, ZoneHVAC:Baseboard:Convective:Water, ZONE HVAC BASEBOARD CONVECTIVE WATER 9, Design Size U-Factor Times Area Value [W/K], 0.00000
 Component Sizing Information, AirTerminal:SingleDuct:Uncontrolled, AIR TERMINAL SINGLE DUCT UNCONTROLLED 12, Design Size Maximum Air Flow Rate [m3/s], 2.25539
 Component Sizing Information, ZoneHVAC:Baseboard:Convective:Water, ZONE HVAC BASEBOARD CONVECTIVE WATER 14, Design Size Maximum Water Flow Rate [m3/s], 1.24776E-005
 Component Sizing Information, ZoneHVAC:Baseboard:Convective:Water, ZONE HVAC BASEBOARD CONVECTIVE WATER 14, Design Size U-Factor Times Area Value [W/K], 16.22508
 Component Sizing Information, AirTerminal:SingleDuct:Uncontrolled, AIR TERMINAL SINGLE DUCT UNCONTROLLED 13, Design Size Maximum Air Flow Rate [m3/s], 2.87020
 Component Sizing Information, ZoneHVAC:Baseboard:Convective:Water, ZONE HVAC BASEBOARD CONVECTIVE WATER 15, Design Size Maximum Water Flow Rate [m3/s], 0.00000
 Component Sizing Information, ZoneHVAC:Baseboard:Convective:Water, ZONE HVAC BASEBOARD CONVECTIVE WATER 15, Design Size U-Factor Times Area Value [W/K], 0.00000
 Component Sizing Information, AirTerminal:SingleDuct:Uncontrolled, AIR TERMINAL SINGLE DUCT UNCONTROLLED 16, Design Size Maximum Air Flow Rate [m3/s], 2.23233
 Component Sizing Information, ZoneHVAC:Baseboard:Convective:Water, ZONE HVAC BASEBOARD CONVECTIVE WATER 18, Design Size Maximum Water Flow Rate [m3/s], 0.00000
 Component Sizing Information, ZoneHVAC:Baseboard:Convective:Water, ZONE HVAC BASEBOARD CONVECTIVE WATER 18, Design Size U-Factor Times Area Value [W/K], 0.00000
 Component Sizing Information, ZoneHVAC:FourPipeFanCoil, ZONE HVAC FOUR PIPE FAN COIL 1, Design Size Maximum Supply Air Flow Rate [m3/s], 1.48971
 Component Sizing Information, Fan:ConstantVolume, FAN CONSTANT VOLUME 13, Design Size Maximum Flow Rate [m3/s], 1.48971
 Component Sizing Information, ZoneHVAC:FourPipeFanCoil, ZONE HVAC FOUR PIPE FAN COIL 1, Design Size Maximum Outdoor Air Flow Rate [m3/s], 0.58103
 Component Sizing Information, ZoneHVAC:FourPipeFanCoil, ZONE HVAC FOUR PIPE FAN COIL 1, Design Size Maximum Hot Water Flow [m3/s], 9.30270E-004
 Component Sizing Information, ZoneHVAC:FourPipeFanCoil, ZONE HVAC FOUR PIPE FAN COIL 1, Design Size Maximum Cold Water Flow [m3/s], 8.84700E-004
 Component Sizing Information, Coil:Cooling:Water, COIL COOLING WATER 3, Design Size Design Water Flow Rate [m3/s], 8.84700E-004
 Component Sizing Information, Coil:Cooling:Water, COIL COOLING WATER 3, Design Size Design Air Flow Rate [m3/s], 1.48971
 Component Sizing Information, Coil:Cooling:Water, COIL COOLING WATER 3, User-Specified Design Air Flow Rate [m3/s], 1.48971
 Component Sizing Information, Coil:Cooling:Water, COIL COOLING WATER 3, Design Size Design Inlet Air Temperature [C], 25.66929
 Component Sizing Information, Coil:Cooling:Water, COIL COOLING WATER 3, Design Size Design Inlet Water Temperature [C], 7.00000
 Component Sizing Information, Coil:Cooling:Water, COIL COOLING WATER 3, Design Size Design Inlet Air Humidity Ratio, 8.61952E-003
 Component Sizing Information, Coil:Cooling:Water, COIL COOLING WATER 3, Design Size Design Outlet Air Temperature [C], 13.00000
 Component Sizing Information, Coil:Cooling:Water, COIL COOLING WATER 3, Design Size Design Outlet Air Humidity Ratio, 8.50000E-003
! <Water Cooling Coil Capacity Information>,Component Type,Name,Nominal Total Capacity {W},Nominal Sensible Capacity {W},Nominal Latent Capacity {W},Nominal Sensible Heat Ratio, Nominal Coil UA Value {W/C}, Nominal Coil Surface Area {m2}
Water Cooling Coil Capacity Information,Coil:Cooling:Water,COIL COOLING WATER 3,30718.34,22202.12,8516.21,0.72,3296.59,33.44
 Component Sizing Information, Coil:Heating:Water, COIL HEATING WATER 5, Design Size Rated Capacity [W], 62284.55403
 Component Sizing Information, Coil:Heating:Water, COIL HEATING WATER 5, Design Size Maximum Water Flow Rate [m3/s], 9.30270E-004
 Component Sizing Information, Coil:Heating:Water, COIL HEATING WATER 5, Design Size U-Factor Times Area Value [W/K], 1107.41436
! <Water Heating Coil Capacity Information>,Component Type,Name,Nominal Total Capacity {W}
Water Heating Coil Capacity Information,Coil:Heating:Water,COIL HEATING WATER 5,44201.14
 Component Sizing Information, AirTerminal:SingleDuct:Uncontrolled, AIR TERMINAL SINGLE DUCT UNCONTROLLED 18, Design Size Maximum Air Flow Rate [m3/s], 1.48971
 Component Sizing Information, AirTerminal:SingleDuct:Uncontrolled, AIR TERMINAL SINGLE DUCT UNCONTROLLED 14, Design Size Maximum Air Flow Rate [m3/s], 3.04408
 Component Sizing Information, ZoneHVAC:Baseboard:Convective:Water, ZONE HVAC BASEBOARD CONVECTIVE WATER 16, Design Size Maximum Water Flow Rate [m3/s], 0.00000
 Component Sizing Information, ZoneHVAC:Baseboard:Convective:Water, ZONE HVAC BASEBOARD CONVECTIVE WATER 16, Design Size U-Factor Times Area Value [W/K], 0.00000
 Component Sizing Information, AirTerminal:SingleDuct:Uncontrolled, AIR TERMINAL SINGLE DUCT UNCONTROLLED 15, Design Size Maximum Air Flow Rate [m3/s], 3.52773
 Component Sizing Information, ZoneHVAC:Baseboard:Convective:Water, ZONE HVAC BASEBOARD CONVECTIVE WATER 17, Design Size Maximum Water Flow Rate [m3/s], 3.75745E-004
 Component Sizing Information, ZoneHVAC:Baseboard:Convective:Water, ZONE HVAC BASEBOARD CONVECTIVE WATER 17, Design Size U-Factor Times Area Value [W/K], 762.52905
 Component Sizing Information, AirTerminal:SingleDuct:Uncontrolled, AIR TERMINAL SINGLE DUCT UNCONTROLLED 17, Design Size Maximum Air Flow Rate [m3/s], 3.48154
 Component Sizing Information, ZoneHVAC:Baseboard:Convective:Water, ZONE HVAC BASEBOARD CONVECTIVE WATER 19, Design Size Maximum Water Flow Rate [m3/s], 3.54511E-004
 Component Sizing Information, ZoneHVAC:Baseboard:Convective:Water, ZONE HVAC BASEBOARD CONVECTIVE WATER 19, Design Size U-Factor Times Area Value [W/K], 719.18856
 Component Sizing Information, AirTerminal:SingleDuct:VAV:Reheat, AIR TERMINAL SINGLE DUCT VAV REHEAT 1, Design Size Maximum Air Flow Rate [m3/s], 3.78849
 Component Sizing Information, AirTerminal:SingleDuct:VAV:Reheat, AIR TERMINAL SINGLE DUCT VAV REHEAT 1, Design Size Constant Minimum Air Flow Fraction, 0.37713
 Component Sizing Information, AirTerminal:SingleDuct:VAV:Reheat, AIR TERMINAL SINGLE DUCT VAV REHEAT 1, User-Specified Constant Minimum Air Flow Fraction, 0.30000
 Component Sizing Information, AirTerminal:SingleDuct:VAV:Reheat, AIR TERMINAL SINGLE DUCT VAV REHEAT 1, Design Size Minimum Air Flow Rate [m3/s], 1.13655
 Component Sizing Information, AirTerminal:SingleDuct:VAV:Reheat, AIR TERMINAL SINGLE DUCT VAV REHEAT 1, Design Size Maximum Flow per Zone Floor Area during Reheat [m3/s-m2], 6.06159E-004
 Component Sizing Information, AirTerminal:SingleDuct:VAV:Reheat, AIR TERMINAL SINGLE DUCT VAV REHEAT 1, Design Size Maximum Flow Fraction during Reheat [], 0.30000
 Component Sizing Information, AirTerminal:SingleDuct:VAV:Reheat, AIR TERMINAL SINGLE DUCT VAV REHEAT 1, Design Size Maximum Reheat Water Flow Rate [m3/s], 1.80572E-004
 Component Sizing Information, AirTerminal:SingleDuct:VAV:Reheat, AIR TERMINAL SINGLE DUCT VAV REHEAT 1, Design Size Reheat Coil Sizing Air Volume Flow Rate [m3/s], 1.13655
 Component Sizing Information, AirTerminal:SingleDuct:VAV:Reheat, AIR TERMINAL SINGLE DUCT VAV REHEAT 1, Design Size Reheat Coil Sizing Inlet Air Temperature [C], 13.10000
 Component Sizing Information, AirTerminal:SingleDuct:VAV:Reheat, AIR TERMINAL SINGLE DUCT VAV REHEAT 1, Design Size Reheat Coil Sizing Inlet Air Humidity Ratio [kgWater/kgDryAir], 8.00000E-003
 Component Sizing Information, Coil:Heating:Water, COIL HEATING WATER 2, Design Size Rated Capacity [W], 12089.88290
 Component Sizing Information, Coil:Heating:Water, COIL HEATING WATER 2, Design Size Maximum Water Flow Rate [m3/s], 1.80572E-004
 Component Sizing Information, Coil:Heating:Water, COIL HEATING WATER 2, Design Size U-Factor Times Area Value [W/K], 217.98461
Water Heating Coil Capacity Information,Coil:Heating:Water,COIL HEATING WATER 2,11335.94
 Component Sizing Information, ZoneHVAC:Baseboard:Convective:Water, ZONE HVAC BASEBOARD CONVECTIVE WATER 11, Design Size Maximum Water Flow Rate [m3/s], 0.00000
 Component Sizing Information, ZoneHVAC:Baseboard:Convective:Water, ZONE HVAC BASEBOARD CONVECTIVE WATER 11, Design Size U-Factor Times Area Value [W/K], 0.00000
 Component Sizing Information, AirTerminal:SingleDuct:VAV:Reheat, AIR TERMINAL SINGLE DUCT VAV REHEAT 2, Design Size Maximum Air Flow Rate [m3/s], 2.90622
 Component Sizing Information, AirTerminal:SingleDuct:VAV:Reheat, AIR TERMINAL SINGLE DUCT VAV REHEAT 2, Design Size Constant Minimum Air Flow Fraction, 0.49162
 Component Sizing Information, AirTerminal:SingleDuct:VAV:Reheat, AIR TERMINAL SINGLE DUCT VAV REHEAT 2, User-Specified Constant Minimum Air Flow Fraction, 0.30000
 Component Sizing Information, AirTerminal:SingleDuct:VAV:Reheat, AIR TERMINAL SINGLE DUCT VAV REHEAT 2, Design Size Minimum Air Flow Rate [m3/s], 0.87187
 Component Sizing Information, AirTerminal:SingleDuct:VAV:Reheat, AIR TERMINAL SINGLE DUCT VAV REHEAT 2, Design Size Maximum Flow per Zone Floor Area during Reheat [m3/s-m2], 4.64995E-004
 Component Sizing Information, AirTerminal:SingleDuct:VAV:Reheat, AIR TERMINAL SINGLE DUCT VAV REHEAT 2, Design Size Maximum Flow Fraction during Reheat [], 0.30000
 Component Sizing Information, AirTerminal:SingleDuct:VAV:Reheat, AIR TERMINAL SINGLE DUCT VAV REHEAT 2, Design Size Maximum Reheat Water Flow Rate [m3/s], 7.41900E-004
 Component Sizing Information, AirTerminal:SingleDuct:VAV:Reheat, AIR TERMINAL SINGLE DUCT VAV REHEAT 2, Design Size Reheat Coil Sizing Air Volume Flow Rate [m3/s], 1.36063
 Component Sizing Information, AirTerminal:SingleDuct:VAV:Reheat, AIR TERMINAL SINGLE DUCT VAV REHEAT 2, Design Size Reheat Coil Sizing Inlet Air Temperature [C], 13.10000
 Component Sizing Information, AirTerminal:SingleDuct:VAV:Reheat, AIR TERMINAL SINGLE DUCT VAV REHEAT 2, Design Size Reheat Coil Sizing Inlet Air Humidity Ratio [kgWater/kgDryAir], 8.00000E-003
 Component Sizing Information, Coil:Heating:Water, COIL HEATING WATER 4, Design Size Rated Capacity [W], 49672.54918
 Component Sizing Information, Coil:Heating:Water, COIL HEATING WATER 4, Design Size Maximum Water Flow Rate [m3/s], 7.41900E-004
 Component Sizing Information, Coil:Heating:Water, COIL HEATING WATER 4, Design Size U-Factor Times Area Value [W/K], 1136.44669
Water Heating Coil Capacity Information,Coil:Heating:Water,COIL HEATING WATER 4,40723.17
 Component Sizing Information, ZoneHVAC:Baseboard:Convective:Water, ZONE HVAC BASEBOARD CONVECTIVE WATER 12, Design Size Maximum Water Flow Rate [m3/s], 5.15628E-004
 Component Sizing Information, ZoneHVAC:Baseboard:Convective:Water, ZONE HVAC BASEBOARD CONVECTIVE WATER 12, Design Size U-Factor Times Area Value [W/K], 1048.44025
 Component Sizing Information, AirTerminal:SingleDuct:Uncontrolled, AIR TERMINAL SINGLE DUCT UNCONTROLLED 10, Design Size Maximum Air Flow Rate [m3/s], 8.01010
 Component Sizing Information, ZoneHVAC:Baseboard:Convective:Water, ZONE HVAC BASEBOARD CONVECTIVE WATER 10, Design Size Maximum Water Flow Rate [m3/s], 8.69301E-004
 Component Sizing Information, ZoneHVAC:Baseboard:Convective:Water, ZONE HVAC BASEBOARD CONVECTIVE WATER 10, Design Size U-Factor Times Area Value [W/K], 1774.49178
 Component Sizing Information, AirTerminal:SingleDuct:Uncontrolled, AIR TERMINAL SINGLE DUCT UNCONTROLLED 8, Design Size Maximum Air Flow Rate [m3/s], 5.74085
 Component Sizing Information, ZoneHVAC:Baseboard:Convective:Water, ZONE HVAC BASEBOARD CONVECTIVE WATER 8, Design Size Maximum Water Flow Rate [m3/s], 2.39665E-004
 Component Sizing Information, ZoneHVAC:Baseboard:Convective:Water, ZONE HVAC BASEBOARD CONVECTIVE WATER 8, Design Size U-Factor Times Area Value [W/K], 488.37033
 Component Sizing Information, AirTerminal:SingleDuct:Uncontrolled, AIR TERMINAL SINGLE DUCT UNCONTROLLED 1, Design Size Maximum Air Flow Rate [m3/s], 6.41674
 Component Sizing Information, ZoneHVAC:Baseboard:Convective:Water, ZONE HVAC BASEBOARD CONVECTIVE WATER 1, Design Size Maximum Water Flow Rate [m3/s], 9.04313E-004
 Component Sizing Information, ZoneHVAC:Baseboard:Convective:Water, ZONE HVAC BASEBOARD CONVECTIVE WATER 1, Design Size U-Factor Times Area Value [W/K], 1846.23433
 Component Sizing Information, AirTerminal:SingleDuct:Uncontrolled, AIR TERMINAL SINGLE DUCT UNCONTROLLED 2, Design Size Maximum Air Flow Rate [m3/s], 6.71943
 Component Sizing Information, ZoneHVAC:Baseboard:Convective:Water, ZONE HVAC BASEBOARD CONVECTIVE WATER 2, Design Size Maximum Water Flow Rate [m3/s], 1.05169E-003
 Component Sizing Information, ZoneHVAC:Baseboard:Convective:Water, ZONE HVAC BASEBOARD CONVECTIVE WATER 2, Design Size U-Factor Times Area Value [W/K], 2146.35611
 Component Sizing Information, AirTerminal:SingleDuct:Uncontrolled, AIR TERMINAL SINGLE DUCT UNCONTROLLED 3, Design Size Maximum Air Flow Rate [m3/s], 5.80019
 Component Sizing Information, ZoneHVAC:Baseboard:Convective:Water, ZONE HVAC BASEBOARD CONVECTIVE WATER 3, Design Size Maximum Water Flow Rate [m3/s], 1.06638E-003
 Component Sizing Information, ZoneHVAC:Baseboard:Convective:Water, ZONE HVAC BASEBOARD CONVECTIVE WATER 3, Design Size U-Factor Times Area Value [W/K], 2176.31423
 Component Sizing Information, AirTerminal:SingleDuct:Uncontrolled, AIR TERMINAL SINGLE DUCT UNCONTROLLED 4, Design Size Maximum Air Flow Rate [m3/s], 3.08158
 Component Sizing Information, ZoneHVAC:Baseboard:Convective:Water, ZONE HVAC BASEBOARD CONVECTIVE WATER 4, Design Size Maximum Water Flow Rate [m3/s], 1.10552E-004
 Component Sizing Information, ZoneHVAC:Baseboard:Convective:Water, ZONE HVAC BASEBOARD CONVECTIVE WATER 4, Design Size U-Factor Times Area Value [W/K], 223.60635
 Component Sizing Information, AirTerminal:SingleDuct:Uncontrolled, AIR TERMINAL SINGLE DUCT UNCONTROLLED 5, Design Size Maximum Air Flow Rate [m3/s], 3.56286
 Component Sizing Information, ZoneHVAC:Baseboard:Convective:Water, ZONE HVAC BASEBOARD CONVECTIVE WATER 5, Design Size Maximum Water Flow Rate [m3/s], 6.20564E-004
 Component Sizing Information, ZoneHVAC:Baseboard:Convective:Water, ZONE HVAC BASEBOARD CONVECTIVE WATER 5, Design Size U-Factor Times Area Value [W/K], 1265.46826
 Component Sizing Information, AirTerminal:SingleDuct:Uncontrolled, AIR TERMINAL SINGLE DUCT UNCONTROLLED 6, Design Size Maximum Air Flow Rate [m3/s], 5.15885
 Component Sizing Information, ZoneHVAC:Baseboard:Convective:Water, ZONE HVAC BASEBOARD CONVECTIVE WATER 6, Design Size Maximum Water Flow Rate [m3/s], 1.01313E-003
 Component Sizing Information, ZoneHVAC:Baseboard:Convective:Water, ZONE HVAC BASEBOARD CONVECTIVE WATER 6, Design Size U-Factor Times Area Value [W/K], 2067.73813
 Component Sizing Information, AirTerminal:SingleDuct:Uncontrolled, AIR TERMINAL SINGLE DUCT UNCONTROLLED 7, Design Size Maximum Air Flow Rate [m3/s], 3.83295
 Component Sizing Information, ZoneHVAC:Baseboard:Convective:Water, ZONE HVAC BASEBOARD CONVECTIVE WATER 7, Design Size Maximum Water Flow Rate [m3/s], 6.46105E-004
 Component Sizing Information, ZoneHVAC:Baseboard:Convective:Water, ZONE HVAC BASEBOARD CONVECTIVE WATER 7, Design Size U-Factor Times Area Value [W/K], 1317.63964
 Component Sizing Information, AirLoopHVAC, SYS_2_MAKE-UP AIR UNIT, Sum of Air Terminal Maximum Heating Flow Rates [m3/s], 1.48971
 Component Sizing Information, AirLoopHVAC, SYS_2_MAKE-UP AIR UNIT, Sum of Air Terminal Minimum Heating Flow Rates [m3/s], 1.48971
 Component Sizing Information, AirLoopHVAC, SYS_2_MAKE-UP AIR UNIT, Sum of Air Terminal Maximum Flow Rates [m3/s], 1.48971
 Component Sizing Information, AirLoopHVAC, SYS_2_MAKE-UP AIR UNIT, Adjusted Heating Design Air Flow Rate [m3/s], 1.48971
 Component Sizing Information, AirLoopHVAC, SYS_2_MAKE-UP AIR UNIT, Adjusted Cooling Design Air Flow Rate [m3/s], 1.48971
 Component Sizing Information, AirLoopHVAC, SYS_2_MAKE-UP AIR UNIT, Adjusted Main Design Air Flow Rate [m3/s], 1.48971
 Component Sizing Information, AirLoopHVAC, SYS_2_MAKE-UP AIR UNIT, User Heating Air Flow Ratio [], 1.00000
 Component Sizing Information, AirLoopHVAC, SYS_2_MAKE-UP AIR UNIT, Calculated Heating Air Flow Ratio [], 1.00000
 Component Sizing Information, AirLoopHVAC, SYS_3_PSZ ALL_ST=WHOLEBUILDING_FL=STORY 1_SCH=D, Sum of Air Terminal Maximum Heating Flow Rates [m3/s], 2.36924
 Component Sizing Information, AirLoopHVAC, SYS_3_PSZ ALL_ST=WHOLEBUILDING_FL=STORY 1_SCH=D, Sum of Air Terminal Minimum Heating Flow Rates [m3/s], 2.36924
 Component Sizing Information, AirLoopHVAC, SYS_3_PSZ ALL_ST=WHOLEBUILDING_FL=STORY 1_SCH=D, Sum of Air Terminal Maximum Flow Rates [m3/s], 2.36924
 Component Sizing Information, AirLoopHVAC, SYS_3_PSZ ALL_ST=WHOLEBUILDING_FL=STORY 1_SCH=D, Adjusted Heating Design Air Flow Rate [m3/s], 2.36924
 Component Sizing Information, AirLoopHVAC, SYS_3_PSZ ALL_ST=WHOLEBUILDING_FL=STORY 1_SCH=D, Adjusted Cooling Design Air Flow Rate [m3/s], 2.36924
 Component Sizing Information, AirLoopHVAC, SYS_3_PSZ ALL_ST=WHOLEBUILDING_FL=STORY 1_SCH=D, Adjusted Main Design Air Flow Rate [m3/s], 2.36924
 Component Sizing Information, AirLoopHVAC, SYS_3_PSZ ALL_ST=WHOLEBUILDING_FL=STORY 1_SCH=D, User Heating Air Flow Ratio [], 1.00000
 Component Sizing Information, AirLoopHVAC, SYS_3_PSZ ALL_ST=WHOLEBUILDING_FL=STORY 1_SCH=D, Calculated Heating Air Flow Ratio [], 1.00000
 Component Sizing Information, AirLoopHVAC, SYS_3_PSZ ALL_ST=WHOLEBUILDING_FL=STORY 4_SCH=A, Sum of Air Terminal Maximum Heating Flow Rates [m3/s], 8.01010
 Component Sizing Information, AirLoopHVAC, SYS_3_PSZ ALL_ST=WHOLEBUILDING_FL=STORY 4_SCH=A, Sum of Air Terminal Minimum Heating Flow Rates [m3/s], 8.01010
 Component Sizing Information, AirLoopHVAC, SYS_3_PSZ ALL_ST=WHOLEBUILDING_FL=STORY 4_SCH=A, Sum of Air Terminal Maximum Flow Rates [m3/s], 8.01010
 Component Sizing Information, AirLoopHVAC, SYS_3_PSZ ALL_ST=WHOLEBUILDING_FL=STORY 4_SCH=A, Adjusted Heating Design Air Flow Rate [m3/s], 8.01010
 Component Sizing Information, AirLoopHVAC, SYS_3_PSZ ALL_ST=WHOLEBUILDING_FL=STORY 4_SCH=A, Adjusted Cooling Design Air Flow Rate [m3/s], 8.01010
 Component Sizing Information, AirLoopHVAC, SYS_3_PSZ ALL_ST=WHOLEBUILDING_FL=STORY 4_SCH=A, Adjusted Main Design Air Flow Rate [m3/s], 8.01010
 Component Sizing Information, AirLoopHVAC, SYS_3_PSZ ALL_ST=WHOLEBUILDING_FL=STORY 4_SCH=A, User Heating Air Flow Ratio [], 1.00000
 Component Sizing Information, AirLoopHVAC, SYS_3_PSZ ALL_ST=WHOLEBUILDING_FL=STORY 4_SCH=A, Calculated Heating Air Flow Ratio [], 1.00000
 Component Sizing Information, AirLoopHVAC, SYS_3_PSZ ALL_ST=WORKSHOP SPACE_FL=STORY 3_SCH=A, Sum of Air Terminal Maximum Heating Flow Rates [m3/s], 5.74085
 Component Sizing Information, AirLoopHVAC, SYS_3_PSZ ALL_ST=WORKSHOP SPACE_FL=STORY 3_SCH=A, Sum of Air Terminal Minimum Heating Flow Rates [m3/s], 5.74085
 Component Sizing Information, AirLoopHVAC, SYS_3_PSZ ALL_ST=WORKSHOP SPACE_FL=STORY 3_SCH=A, Sum of Air Terminal Maximum Flow Rates [m3/s], 5.74085
 Component Sizing Information, AirLoopHVAC, SYS_3_PSZ ALL_ST=WORKSHOP SPACE_FL=STORY 3_SCH=A, Adjusted Heating Design Air Flow Rate [m3/s], 5.74085
 Component Sizing Information, AirLoopHVAC, SYS_3_PSZ ALL_ST=WORKSHOP SPACE_FL=STORY 3_SCH=A, Adjusted Cooling Design Air Flow Rate [m3/s], 5.74085
 Component Sizing Information, AirLoopHVAC, SYS_3_PSZ ALL_ST=WORKSHOP SPACE_FL=STORY 3_SCH=A, Adjusted Main Design Air Flow Rate [m3/s], 5.74085
 Component Sizing Information, AirLoopHVAC, SYS_3_PSZ ALL_ST=WORKSHOP SPACE_FL=STORY 3_SCH=A, User Heating Air Flow Ratio [], 1.00000
 Component Sizing Information, AirLoopHVAC, SYS_3_PSZ ALL_ST=WORKSHOP SPACE_FL=STORY 3_SCH=A, Calculated Heating Air Flow Ratio [], 1.00000
 Component Sizing Information, AirLoopHVAC, SYS_4_PSZ_ALL_ST=WHOLEBUILDING_FL=STORY 1_SCH=A, Sum of Air Terminal Maximum Heating Flow Rates [m3/s], 0.97547
 Component Sizing Information, AirLoopHVAC, SYS_4_PSZ_ALL_ST=WHOLEBUILDING_FL=STORY 1_SCH=A, Sum of Air Terminal Minimum Heating Flow Rates [m3/s], 0.97547
 Component Sizing Information, AirLoopHVAC, SYS_4_PSZ_ALL_ST=WHOLEBUILDING_FL=STORY 1_SCH=A, Sum of Air Terminal Maximum Flow Rates [m3/s], 0.97547
 Component Sizing Information, AirLoopHVAC, SYS_4_PSZ_ALL_ST=WHOLEBUILDING_FL=STORY 1_SCH=A, Adjusted Heating Design Air Flow Rate [m3/s], 0.97547
 Component Sizing Information, AirLoopHVAC, SYS_4_PSZ_ALL_ST=WHOLEBUILDING_FL=STORY 1_SCH=A, Adjusted Cooling Design Air Flow Rate [m3/s], 0.97547
 Component Sizing Information, AirLoopHVAC, SYS_4_PSZ_ALL_ST=WHOLEBUILDING_FL=STORY 1_SCH=A, Adjusted Main Design Air Flow Rate [m3/s], 0.97547
 Component Sizing Information, AirLoopHVAC, SYS_4_PSZ_ALL_ST=WHOLEBUILDING_FL=STORY 1_SCH=A, User Heating Air Flow Ratio [], 1.00000
 Component Sizing Information, AirLoopHVAC, SYS_4_PSZ_ALL_ST=WHOLEBUILDING_FL=STORY 1_SCH=A, Calculated Heating Air Flow Ratio [], 1.00000
 Component Sizing Information, AirLoopHVAC, SYS_4_PSZ_ALL_ST=WHOLEBUILDING_FL=STORY 1_SCH=E, Sum of Air Terminal Maximum Heating Flow Rates [m3/s], 2.25539
 Component Sizing Information, AirLoopHVAC, SYS_4_PSZ_ALL_ST=WHOLEBUILDING_FL=STORY 1_SCH=E, Sum of Air Terminal Minimum Heating Flow Rates [m3/s], 2.25539
 Component Sizing Information, AirLoopHVAC, SYS_4_PSZ_ALL_ST=WHOLEBUILDING_FL=STORY 1_SCH=E, Sum of Air Terminal Maximum Flow Rates [m3/s], 2.25539
 Component Sizing Information, AirLoopHVAC, SYS_4_PSZ_ALL_ST=WHOLEBUILDING_FL=STORY 1_SCH=E, Adjusted Heating Design Air Flow Rate [m3/s], 2.25539
 Component Sizing Information, AirLoopHVAC, SYS_4_PSZ_ALL_ST=WHOLEBUILDING_FL=STORY 1_SCH=E, Adjusted Cooling Design Air Flow Rate [m3/s], 2.25539
 Component Sizing Information, AirLoopHVAC, SYS_4_PSZ_ALL_ST=WHOLEBUILDING_FL=STORY 1_SCH=E, Adjusted Main Design Air Flow Rate [m3/s], 2.25539
 Component Sizing Information, AirLoopHVAC, SYS_4_PSZ_ALL_ST=WHOLEBUILDING_FL=STORY 1_SCH=E, User Heating Air Flow Ratio [], 1.00000
 Component Sizing Information, AirLoopHVAC, SYS_4_PSZ_ALL_ST=WHOLEBUILDING_FL=STORY 1_SCH=E, Calculated Heating Air Flow Ratio [], 1.00000
 Component Sizing Information, AirLoopHVAC, SYS_4_PSZ_ALL_ST=WHOLEBUILDING_FL=STORY 1_SCH=E 1, Sum of Air Terminal Maximum Heating Flow Rates [m3/s], 2.87020
 Component Sizing Information, AirLoopHVAC, SYS_4_PSZ_ALL_ST=WHOLEBUILDING_FL=STORY 1_SCH=E 1, Sum of Air Terminal Minimum Heating Flow Rates [m3/s], 2.87020
 Component Sizing Information, AirLoopHVAC, SYS_4_PSZ_ALL_ST=WHOLEBUILDING_FL=STORY 1_SCH=E 1, Sum of Air Terminal Maximum Flow Rates [m3/s], 2.87020
[...]
 Component Sizing Information, Coil:Cooling:Water, COIL COOLING WATER 2, Design Size Design Inlet Water Temperature [C], 7.00000
 Component Sizing Information, Coil:Cooling:Water, COIL COOLING WATER 2, Design Size Design Outlet Air Temperature [C], 13.00000
 Component Sizing Information, Coil:Cooling:Water, COIL COOLING WATER 2, Design Size Design Inlet Air Humidity Ratio, 9.23057E-003
 Component Sizing Information, Coil:Cooling:Water, COIL COOLING WATER 2, Design Size Design Outlet Air Humidity Ratio, 8.76847E-003
Water Cooling Coil Capacity Information,Coil:Cooling:Water,COIL COOLING WATER 2,66351.32,46530.23,19821.09,0.70,7644.65,77.54
 Component Sizing Information, Coil:Heating:Water, COIL HEATING WATER 3, Design Size Rated Capacity [W], 49779.94078
 Component Sizing Information, Coil:Heating:Water, COIL HEATING WATER 3, Design Size Maximum Water Flow Rate [m3/s], 7.43504E-004
 Component Sizing Information, Coil:Heating:Water, COIL HEATING WATER 3, Design Size U-Factor Times Area Value [W/K], 607.46124
Water Heating Coil Capacity Information,Coil:Heating:Water,COIL HEATING WATER 3,27735.13
 Component Sizing Information, Fan:VariableVolume, SYS6 SUPPLY FAN 1, Design Size Maximum Flow Rate [m3/s], 2.90622
 Component Sizing Information, Controller:WaterCoil, CONTROLLER WATER COIL 5, Maximum Actuated Flow [m3/s], 1.96004E-003
 Component Sizing Information, Controller:WaterCoil, CONTROLLER WATER COIL 5, Controller Convergence Tolerance, 2.42949E-004
 Component Sizing Information, Controller:WaterCoil, CONTROLLER WATER COIL 4, Maximum Actuated Flow [m3/s], 7.43504E-004
 Component Sizing Information, Controller:WaterCoil, CONTROLLER WATER COIL 4, Controller Convergence Tolerance, 6.40468E-004
Water Heater Information,WaterHeater:Mixed,319GAL NATURALGAS WATER HEATER - 215KBTU/HR,1.2074,63086.8,0.471,0.6036
 Component Sizing Information, PlantLoop, CHILLED WATER LOOP, Maximum Loop Flow Rate [m3/s], 4.66650E-003
 Component Sizing Information, PlantLoop, CHILLED WATER LOOP, Plant Loop Volume [m3], 0.55998
 Component Sizing Information, Pump:ConstantSpeed, PUMP CONSTANT SPEED 1, Design Flow Rate [m3/s], 4.66650E-003
 Component Sizing Information, Pump:ConstantSpeed, PUMP CONSTANT SPEED 1, Design Power Consumption [W], 1192.22995
 Component Sizing Information, Chiller:Electric:EIR, PRIMARY CHILLER WATERCOOLED SCROLL, Design Size Reference Chilled Water Flow Rate [m3/s], 4.66650E-003
 Component Sizing Information, Chiller:Electric:EIR, PRIMARY CHILLER WATERCOOLED SCROLL, Design Size Reference Capacity [W], 117525.75728
 Component Sizing Information, Chiller:Electric:EIR, PRIMARY CHILLER WATERCOOLED SCROLL, Design Size Reference Condenser Fluid Flow Rate [m3/s], 5.53877E-003
! <Chiller Standard Rating Information>, Component Type, Component Name, IPLV in SI Units {W/W}, IPLV in IP Units {Btu/W-h}
 Chiller Standard Rating Information, Chiller:Electric:EIR, PRIMARY CHILLER WATERCOOLED SCROLL, 7.88, 26.88
 Component Sizing Information, Chiller:Electric:EIR, SECONDARY CHILLER WATERCOOLED SCROLL, Design Size Reference Chilled Water Flow Rate [m3/s], 4.66650E-003
 Component Sizing Information, Chiller:Electric:EIR, SECONDARY CHILLER WATERCOOLED SCROLL, Design Size Reference Capacity [W], 117525.75728
 Component Sizing Information, Chiller:Electric:EIR, SECONDARY CHILLER WATERCOOLED SCROLL, Design Size Reference Condenser Fluid Flow Rate [m3/s], 5.53877E-003
 Chiller Standard Rating Information, Chiller:Electric:EIR, SECONDARY CHILLER WATERCOOLED SCROLL, 7.88, 26.88
 Component Sizing Information, PlantLoop, CHILLED WATER LOOP 1, Maximum Loop Flow Rate [m3/s], 8.84700E-004
 Component Sizing Information, PlantLoop, CHILLED WATER LOOP 1, Plant Loop Volume [m3], 0.10616
 Component Sizing Information, Pump:ConstantSpeed, PUMP CONSTANT SPEED 3, Design Flow Rate [m3/s], 8.84700E-004
 Component Sizing Information, Pump:ConstantSpeed, PUMP CONSTANT SPEED 3, Design Power Consumption [W], 226.02962
 Component Sizing Information, Chiller:Electric:EIR, PRIMARY CHILLER WATERCOOLED SCROLL 1, Design Size Reference Chilled Water Flow Rate [m3/s], 8.84700E-004
 Component Sizing Information, Chiller:Electric:EIR, PRIMARY CHILLER WATERCOOLED SCROLL 1, Design Size Reference Capacity [W], 22281.18987
 Component Sizing Information, Chiller:Electric:EIR, PRIMARY CHILLER WATERCOOLED SCROLL 1, Design Size Reference Condenser Fluid Flow Rate [m3/s], 1.05007E-003
 Chiller Standard Rating Information, Chiller:Electric:EIR, PRIMARY CHILLER WATERCOOLED SCROLL 1, 7.88, 26.88
 Component Sizing Information, Chiller:Electric:EIR, SECONDARY CHILLER WATERCOOLED SCROLL 1, Design Size Reference Chilled Water Flow Rate [m3/s], 8.84700E-004
 Component Sizing Information, Chiller:Electric:EIR, SECONDARY CHILLER WATERCOOLED SCROLL 1, Design Size Reference Capacity [W], 22281.18987
 Component Sizing Information, Chiller:Electric:EIR, SECONDARY CHILLER WATERCOOLED SCROLL 1, Design Size Reference Condenser Fluid Flow Rate [m3/s], 1.05007E-003
 Chiller Standard Rating Information, Chiller:Electric:EIR, SECONDARY CHILLER WATERCOOLED SCROLL 1, 7.88, 26.88
 Component Sizing Information, PlantLoop, CONDENSER WATER LOOP, Maximum Loop Flow Rate [m3/s], 1.10775E-002
 Component Sizing Information, PlantLoop, CONDENSER WATER LOOP, Plant Loop Volume [m3], 1.32930
 Component Sizing Information, Pump:ConstantSpeed, PUMP CONSTANT SPEED 2, Design Flow Rate [m3/s], 1.10775E-002
 Component Sizing Information, Pump:ConstantSpeed, PUMP CONSTANT SPEED 2, Design Power Consumption [W], 2830.16704
 Component Sizing Information, CoolingTower:SingleSpeed, COOLING TOWER SINGLE SPEED 1, Design Water Flow Rate [m3/s], 1.10775E-002
 Component Sizing Information, CoolingTower:SingleSpeed, COOLING TOWER SINGLE SPEED 1, Fan Power at Design Air Flow Rate [W], 2430.59982
 Component Sizing Information, CoolingTower:SingleSpeed, COOLING TOWER SINGLE SPEED 1, Design Air Flow Rate [m3/s], 6.68366
 Component Sizing Information, CoolingTower:SingleSpeed, COOLING TOWER SINGLE SPEED 1, U-Factor Times Area Value at Design Air Flow Rate [W/C], 11935.23715
 Component Sizing Information, CoolingTower:SingleSpeed, COOLING TOWER SINGLE SPEED 1, Free Convection Regime Air Flow Rate [m3/s], 0.66837
 Component Sizing Information, CoolingTower:SingleSpeed, COOLING TOWER SINGLE SPEED 1, Free Convection U-Factor Times Area Value [W/K], 1193.52371
 Component Sizing Information, PlantLoop, CONDENSER WATER LOOP 1, Maximum Loop Flow Rate [m3/s], 2.10014E-003
 Component Sizing Information, PlantLoop, CONDENSER WATER LOOP 1, Plant Loop Volume [m3], 0.25202
 Component Sizing Information, Pump:ConstantSpeed, PUMP CONSTANT SPEED 4, Design Flow Rate [m3/s], 2.10014E-003
 Component Sizing Information, Pump:ConstantSpeed, PUMP CONSTANT SPEED 4, Design Power Consumption [W], 536.55888
 Component Sizing Information, CoolingTower:SingleSpeed, COOLING TOWER SINGLE SPEED 2, Design Water Flow Rate [m3/s], 2.10014E-003
 Component Sizing Information, CoolingTower:SingleSpeed, COOLING TOWER SINGLE SPEED 2, Fan Power at Design Air Flow Rate [W], 460.80670
 Component Sizing Information, CoolingTower:SingleSpeed, COOLING TOWER SINGLE SPEED 2, Design Air Flow Rate [m3/s], 1.26713
 Component Sizing Information, CoolingTower:SingleSpeed, COOLING TOWER SINGLE SPEED 2, U-Factor Times Area Value at Design Air Flow Rate [W/C], 2262.74896
 Component Sizing Information, CoolingTower:SingleSpeed, COOLING TOWER SINGLE SPEED 2, Free Convection Regime Air Flow Rate [m3/s], 0.12671
 Component Sizing Information, CoolingTower:SingleSpeed, COOLING TOWER SINGLE SPEED 2, Free Convection U-Factor Times Area Value [W/K], 226.27490
 Component Sizing Information, PlantLoop, HOT WATER LOOP, Maximum Loop Flow Rate [m3/s], 1.12483E-002
 Component Sizing Information, PlantLoop, HOT WATER LOOP, Plant Loop Volume [m3], 1.34979
 Component Sizing Information, Pump:VariableSpeed, PUMP VARIABLE SPEED 1, Design Flow Rate [m3/s], 1.12483E-002
 Component Sizing Information, Pump:VariableSpeed, PUMP VARIABLE SPEED 1, Design Power Consumption [W], 2873.79245
 Component Sizing Information, Boiler:HotWater, PRIMARY BOILER, Design Size Nominal Capacity [W], 756023.55481
 Component Sizing Information, Boiler:HotWater, PRIMARY BOILER, Design Size Design Water Flow Rate [m3/s], 1.12483E-002
 Component Sizing Information, Boiler:HotWater, SECONDARY BOILER, Design Size Nominal Capacity [W], 756023.55481
 Component Sizing Information, Boiler:HotWater, SECONDARY BOILER, Design Size Design Water Flow Rate [m3/s], 1.12483E-002
 Component Sizing Information, PlantLoop, MAIN SERVICE WATER LOOP, Maximum Loop Flow Rate [m3/s], 2.80548E-004
 Component Sizing Information, PlantLoop, MAIN SERVICE WATER LOOP, Plant Loop Volume [m3], 3.36658E-002
 Component Sizing Information, Pump:ConstantSpeed, SERVICE WATER LOOP PUMP, Design Flow Rate [m3/s], 2.80548E-004
 Component Sizing Information, Pump:ConstantSpeed, SERVICE WATER LOOP PUMP, Design Power Consumption [W], 0.35456
 Component Sizing Information, WaterHeater:Mixed, 319GAL NATURALGAS WATER HEATER - 215KBTU/HR, Use Side Design Flow Rate [m3/s], 2.80548E-004
! <Environment>,Environment Name,Environment Type, Start Date, End Date, Start DayOfWeek, Duration {#days}, Source:Start DayOfWeek,  Use Daylight Saving, Use Holidays, Apply Weekend Holiday Rule,  Use Rain Values, Use Snow Values
! <Environment:Special Days>, Special Day Name, Special Day Type, Source, Start Date, Duration {#days}
! <Environment:Daylight Saving>, Daylight Saving Indicator, Source, Start Date, End Date
! <Environment:WarmupDays>, NumberofWarmupDays
Environment,FORT MCMURRAY AP ANN CLG .4% CONDNS DB=>MWB,SizingPeriod:DesignDay,07/21,07/21,SummerDesignDay,1,N/A,N/A,N/A,N/A,N/A,N/A
Environment:Daylight Saving,No,SizingPeriod:DesignDay
! <Environment:Design Day Data>, Max Dry-Bulb Temp {C}, Temp Range {dC}, Temp Range Ind Type, Hum Ind Value at Max Temp, Hum Ind Type,Pressure {Pa}, Wind Direction {deg CW from N}, Wind Speed {m/s}, Clearness, Rain, Snow
! <Environment:Design Day Misc>,DayOfYear,ASHRAE A Coeff,ASHRAE B Coeff,ASHRAE C Coeff,Solar Constant-Annual Variation,Eq of Time {minutes}, Solar Declination Angle {deg}, Solar Model
Environment:Design Day Data,28.90,12.40,DefaultMultipliers,96969,250,3.7,0.00,No,No
Environment:Design Day Misc,202,1084.4,0.2082,0.1365,1.0,-6.23,20.6,ASHRAETau
Environment:WarmupDays,  7
! <Tabular Report>,Style,Unit Conversion
Tabular Report,HTML,None
! <Warmup Convergence Information>,Zone Name,Environment Type/Name,Average Warmup Temperature Difference {deltaC},Std Dev Warmup Temperature Difference {deltaC},Max Temperature Pass/Fail Convergence,Min Temperature Pass/Fail Convergence,Average Warmup Load Difference {W},Std Dev Warmup Load Difference {W},Heating Load Pass/Fail Convergence,Cooling Load Pass/Fail Convergence
 Warmup Convergence Information,ALL_ST=WHOLEBUILDING_FL=STORY 1_SCH=A,SizingPeriod: FORT MCMURRAY AP ANN CLG .4% CONDNS DB=>MWB,1.1784593937E-002,2.9067219574E-002,Pass,Pass,4.2813196378E-002,0.2766879367,Pass,Pass
 Warmup Convergence Information,ALL_ST=WHOLEBUILDING_FL=STORY 1_SCH=D,SizingPeriod: FORT MCMURRAY AP ANN CLG .4% CONDNS DB=>MWB,1.1579708295E-002,3.4802492222E-002,Pass,Pass,4.5952232855E-002,0.2111234567,Pass,Pass
 Warmup Convergence Information,ALL_ST=WHOLEBUILDING_FL=STORY 1_SCH=E,SizingPeriod: FORT MCMURRAY AP ANN CLG .4% CONDNS DB=>MWB,3.4558560952E-002,5.1270286373E-002,Pass,Pass,0.1048733352,0.7803045055,Pass,Pass
 Warmup Convergence Information,ALL_ST=WHOLEBUILDING_FL=STORY 1_SCH=E 1,SizingPeriod: FORT MCMURRAY AP ANN CLG .4% CONDNS DB=>MWB,3.4875706676E-002,5.1608015621E-002,Pass,Pass,0.1164879786,0.8363121923,Pass,Pass
 Warmup Convergence Information,ALL_ST=WHOLEBUILDING_FL=STORY 1_SCH=E 2,SizingPeriod: FORT MCMURRAY AP ANN CLG .4% CONDNS DB=>MWB,3.4753788236E-002,5.0922215876E-002,Pass,Pass,0.1082563850,0.7876699765,Pass,Pass
 Warmup Convergence Information,ALL_ST=WHOLEBUILDING_FL=STORY 2_SCH=A,SizingPeriod: FORT MCMURRAY AP ANN CLG .4% CONDNS DB=>MWB,5.3716264349E-002,4.0395673375E-002,Pass,Pass,0.1732965347,0.6211337599,Pass,Pass
 Warmup Convergence Information,ALL_ST=WHOLEBUILDING_FL=STORY 2_SCH=E,SizingPeriod: FORT MCMURRAY AP ANN CLG .4% CONDNS DB=>MWB,3.0825647780E-002,4.6548280716E-002,Pass,Pass,9.8062684862E-002,0.7165763234,Pass,Pass
 Warmup Convergence Information,ALL_ST=WHOLEBUILDING_FL=STORY 2_SCH=E 1,SizingPeriod: FORT MCMURRAY AP ANN CLG .4% CONDNS DB=>MWB,3.1951448734E-002,5.0827930520E-002,Pass,Pass,8.3983269791E-002,0.7021436626,Pass,Pass
 Warmup Convergence Information,ALL_ST=WHOLEBUILDING_FL=STORY 2_SCH=E 2,SizingPeriod: FORT MCMURRAY AP ANN CLG .4% CONDNS DB=>MWB,3.2992018037E-002,5.4550163048E-002,Pass,Pass,9.9108172052E-002,0.7230446395,Pass,Pass
 Warmup Convergence Information,ALL_ST=WHOLEBUILDING_FL=STORY 2_SCH=H,SizingPeriod: FORT MCMURRAY AP ANN CLG .4% CONDNS DB=>MWB,4.3733149848E-005,1.3430807198E-004,Pass,Pass,7.6442800823E-003,7.0370111439E-003,Pass,Pass
 Warmup Convergence Information,ALL_ST=WHOLEBUILDING_FL=STORY 3_SCH=B,SizingPeriod: FORT MCMURRAY AP ANN CLG .4% CONDNS DB=>MWB,1.5286327558E-002,4.4701836601E-002,Pass,Pass,2.3501873965E-002,9.7410688508E-002,Pass,Pass
 Warmup Convergence Information,ALL_ST=WHOLEBUILDING_FL=STORY 4_SCH=A,SizingPeriod: FORT MCMURRAY AP ANN CLG .4% CONDNS DB=>MWB,3.5519449783E-002,6.2040469905E-002,Pass,Pass,4.0952812886E-002,0.1417973160,Pass,Pass
 Warmup Convergence Information,ALL_ST=WORKSHOP SPACE_FL=STORY 3_SCH=A,SizingPeriod: FORT MCMURRAY AP ANN CLG .4% CONDNS DB=>MWB,3.6376716883E-002,7.8741479005E-002,Pass,Pass,2.8070840601E-002,0.1088762316,Pass,Pass
 Warmup Convergence Information,WET_ST=WASHROOM-SCH-C_FL=STORY 4_SCHE,SizingPeriod: FORT MCMURRAY AP ANN CLG .4% CONDNS DB=>MWB,3.7409914222E-002,7.3429750439E-002,Pass,Pass,0.9477371343,8.8793080362,Pass,Pass
 Warmup Convergence Information,WET_ST=WASHROOM-SCH-D_FL=STORY 4_SCHE,SizingPeriod: FORT MCMURRAY AP ANN CLG .4% CONDNS DB=>MWB,5.5952707068E-002,9.1352111101E-002,Pass,Pass,0.3690703258,3.3520221242,Pass,Pass
 Warmup Convergence Information,WET_ST=WASHROOM-SCH-E_FL=STORY 4_SCHE,SizingPeriod: FORT MCMURRAY AP ANN CLG .4% CONDNS DB=>MWB,6.5799322493E-002,8.4476190059E-002,Pass,Pass,0.1723186111,1.2891508232,Pass,Pass
 Warmup Convergence Information,WET_ST=WASHROOM-SCH-F_FL=STORY 3_SCHE,SizingPeriod: FORT MCMURRAY AP ANN CLG .4% CONDNS DB=>MWB,3.9592082276E-002,4.2620782527E-002,Pass,Pass,0.1103561922,0.6356299360,Pass,Pass
 Warmup Convergence Information,WET_ST=WASHROOM-SCH-G_FL=STORY 3_SCHE,SizingPeriod: FORT MCMURRAY AP ANN CLG .4% CONDNS DB=>MWB,4.5906195492E-002,5.8306258032E-002,Pass,Pass,7.8282030797E-002,0.3894977103,Pass,Pass
 Warmup Convergence Information,WET_ST=WASHROOM-SCH-H_FL=STORY 4_SCHE,SizingPeriod: FORT MCMURRAY AP ANN CLG .4% CONDNS DB=>MWB,4.3060620845E-002,7.7579433393E-002,Pass,Pass,0.1548182400,0.9486841974,Pass,Pass
 Warmup Convergence Information,WET_ST=WASHROOM-SCH-I_FL=STORY 3_SCHE,SizingPeriod: FORT MCMURRAY AP ANN CLG .4% CONDNS DB=>MWB,5.8882917497E-002,5.9201909350E-002,Pass,Pass,6.4873975923E-002,0.3758530052,Pass,Pass
Environment,FORT MCMURRAY AP ANN HTG 99.6% CONDNS DB,SizingPeriod:DesignDay,01/21,01/21,WinterDesignDay,1,N/A,N/A,N/A,N/A,N/A,N/A
Environment:Daylight Saving,No,SizingPeriod:DesignDay
Environment:Design Day Data,-36.20,0.00,DefaultMultipliers,96969,90,1.0,0.00,No,No
Environment:Design Day Misc, 21,1229.0,0.1415,5.7310E-002,1.0,-11.15,-20.1,ASHRAEClearSky
Environment:WarmupDays,  6
 Warmup Convergence Information,ALL_ST=WHOLEBUILDING_FL=STORY 1_SCH=A,SizingPeriod: FORT MCMURRAY AP ANN HTG 99.6% CONDNS DB,5.5557515369E-002,0.1578311657,Pass,Pass,0.1255528135,0.4061523659,Pass,Pass
 Warmup Convergence Information,ALL_ST=WHOLEBUILDING_FL=STORY 1_SCH=D,SizingPeriod: FORT MCMURRAY AP ANN HTG 99.6% CONDNS DB,5.5853920406E-002,0.2103727440,Pass,Pass,0.4911073694,2.7730286759,Pass,Pass
 Warmup Convergence Information,ALL_ST=WHOLEBUILDING_FL=STORY 1_SCH=E,SizingPeriod: FORT MCMURRAY AP ANN HTG 99.6% CONDNS DB,5.6583850758E-002,0.2142841520,Pass,Pass,0.2815300727,1.2022002690,Pass,Pass
 Warmup Convergence Information,ALL_ST=WHOLEBUILDING_FL=STORY 1_SCH=E 1,SizingPeriod: FORT MCMURRAY AP ANN HTG 99.6% CONDNS DB,5.7189941009E-002,0.2092819573,Pass,Pass,0.2266706101,0.9715773517,Pass,Pass
 Warmup Convergence Information,ALL_ST=WHOLEBUILDING_FL=STORY 1_SCH=E 2,SizingPeriod: FORT MCMURRAY AP ANN HTG 99.6% CONDNS DB,5.6694378243E-002,0.2125642454,Pass,Pass,0.3918460955,2.3160984233,Pass,Pass
 Warmup Convergence Information,ALL_ST=WHOLEBUILDING_FL=STORY 2_SCH=A,SizingPeriod: FORT MCMURRAY AP ANN HTG 99.6% CONDNS DB,1.7475373309E-002,1.1771916852E-002,Pass,Pass,6.8544930418E-004,7.7882970006E-004,Pass,Pass
 Warmup Convergence Information,ALL_ST=WHOLEBUILDING_FL=STORY 2_SCH=E,SizingPeriod: FORT MCMURRAY AP ANN HTG 99.6% CONDNS DB,5.6838327540E-002,0.2111681141,Pass,Pass,0.2561715027,1.0633578681,Pass,Pass
 Warmup Convergence Information,ALL_ST=WHOLEBUILDING_FL=STORY 2_SCH=E 1,SizingPeriod: FORT MCMURRAY AP ANN HTG 99.6% CONDNS DB,5.5561552782E-002,0.2577947329,Pass,Pass,0.2234869305,0.4446428939,Pass,Pass
 Warmup Convergence Information,ALL_ST=WHOLEBUILDING_FL=STORY 2_SCH=E 2,SizingPeriod: FORT MCMURRAY AP ANN HTG 99.6% CONDNS DB,5.5561126735E-002,0.2550011614,Pass,Pass,0.2786890004,1.2527242825,Pass,Pass
 Warmup Convergence Information,ALL_ST=WHOLEBUILDING_FL=STORY 2_SCH=H,SizingPeriod: FORT MCMURRAY AP ANN HTG 99.6% CONDNS DB,3.8987009575E-002,8.6825800671E-002,Pass,Pass,0.1223986222,0.6966254956,Pass,Pass
 Warmup Convergence Information,ALL_ST=WHOLEBUILDING_FL=STORY 3_SCH=B,SizingPeriod: FORT MCMURRAY AP ANN HTG 99.6% CONDNS DB,5.6372200862E-002,0.2530906350,Pass,Pass,0.2544614065,1.6289192270,Pass,Pass
 Warmup Convergence Information,ALL_ST=WHOLEBUILDING_FL=STORY 4_SCH=A,SizingPeriod: FORT MCMURRAY AP ANN HTG 99.6% CONDNS DB,5.5563701282E-002,0.3298901028,Pass,Pass,6.7075240734E-002,0.2341907908,Pass,Pass
 Warmup Convergence Information,ALL_ST=WORKSHOP SPACE_FL=STORY 3_SCH=A,SizingPeriod: FORT MCMURRAY AP ANN HTG 99.6% CONDNS DB,5.5558000492E-002,0.2830500933,Pass,Pass,0.1539058248,0.5216608790,Pass,Pass
 Warmup Convergence Information,WET_ST=WASHROOM-SCH-C_FL=STORY 4_SCHE,SizingPeriod: FORT MCMURRAY AP ANN HTG 99.6% CONDNS DB,5.5560212073E-002,0.2915687426,Pass,Pass,0.1939957500,1.2435937043,Pass,Pass
 Warmup Convergence Information,WET_ST=WASHROOM-SCH-D_FL=STORY 4_SCHE,SizingPeriod: FORT MCMURRAY AP ANN HTG 99.6% CONDNS DB,5.7919998543E-002,0.3266244339,Pass,Pass,0.1811212206,1.4754861751,Pass,Pass
 Warmup Convergence Information,WET_ST=WASHROOM-SCH-E_FL=STORY 4_SCHE,SizingPeriod: FORT MCMURRAY AP ANN HTG 99.6% CONDNS DB,5.5673428058E-002,0.3130643527,Pass,Pass,9.8310041922E-002,0.5264755828,Pass,Pass
 Warmup Convergence Information,WET_ST=WASHROOM-SCH-F_FL=STORY 3_SCHE,SizingPeriod: FORT MCMURRAY AP ANN HTG 99.6% CONDNS DB,4.3044658261E-002,0.1360286755,Pass,Pass,0.2400625524,0.6431459669,Pass,Pass
 Warmup Convergence Information,WET_ST=WASHROOM-SCH-G_FL=STORY 3_SCHE,SizingPeriod: FORT MCMURRAY AP ANN HTG 99.6% CONDNS DB,4.7911567970E-002,0.2238947352,Pass,Pass,0.2840659095,1.5083690247,Pass,Pass
 Warmup Convergence Information,WET_ST=WASHROOM-SCH-H_FL=STORY 4_SCHE,SizingPeriod: FORT MCMURRAY AP ANN HTG 99.6% CONDNS DB,5.5715398319E-002,0.3072859830,Pass,Pass,5.6891993472E-002,0.1777938929,Pass,Pass
 Warmup Convergence Information,WET_ST=WASHROOM-SCH-I_FL=STORY 3_SCHE,SizingPeriod: FORT MCMURRAY AP ANN HTG 99.6% CONDNS DB,5.0021108747E-002,0.2300096991,Pass,Pass,0.3545043098,2.3747618841,Pass,Pass
! <Program Control Information:Threads/Parallel Sims>, Threading Supported,Maximum Number of Threads, Env Set Threads (OMP_NUM_THREADS), EP Env Set Threads (EP_OMP_NUM_THREADS), IDF Set Threads, Number of Threads Used (Interior Radiant Exchange), Number Nominal Surfaces, Number Parallel Sims
Program Control:Threads/Parallel Sims, No,1, N/A, N/A, N/A, N/A, N/A, N/A
End of Data
