! Program Version,EnergyPlus, Version 8.9.0-eba93e8e1b, YMD=2019.03.19 18:41,
! Output:Meter Objects (applicable to this run)
Output:Meter,Electricity:Facility,hourly; !- [J]
Output:Meter:Cumulative,Electricity:Facility,hourly; !- [J]
Output:Meter,Electricity:Building,hourly; !- [J]
Output:Meter:Cumulative,Electricity:Building,hourly; !- [J]
Output:Meter,Electricity:Zone:MFG - CORR. < 2.4M-SCH-I-SPACE FUNCTION ZN,hourly; !- [J]
Output:Meter:Cumulative,Electricity:Zone:MFG - CORR. < 2.4M-SCH-I-SPACE FUNCTION ZN,hourly; !- [J]
Output:Meter,InteriorLights:Electricity,hourly; !- [J]
Output:Meter:Cumulative,InteriorLights:Electricity,hourly; !- [J]
Output:Meter,InteriorLights:Electricity:Zone:MFG - CORR. < 2.4M-SCH-I-SPACE FUNCTION ZN,hourly; !- [J]
Output:Meter:Cumulative,InteriorLights:Electricity:Zone:MFG - CORR. < 2.4M-SCH-I-SPACE FUNCTION ZN,hourly; !- [J]
Output:Meter,General:InteriorLights:Electricity,hourly; !- [J]
Output:Meter:Cumulative,General:InteriorLights:Electricity,hourly; !- [J]
Output:Meter,Electricity:Zone:MFG - CORR. >= 2.4M-SCH-A-SPACE FUNCTION ZN,hourly; !- [J]
Output:Meter:Cumulative,Electricity:Zone:MFG - CORR. >= 2.4M-SCH-A-SPACE FUNCTION ZN,hourly; !- [J]
Output:Meter,InteriorLights:Electricity:Zone:MFG - CORR. >= 2.4M-SCH-A-SPACE FUNCTION ZN,hourly; !- [J]
Output:Meter:Cumulative,InteriorLights:Electricity:Zone:MFG - CORR. >= 2.4M-SCH-A-SPACE FUNCTION ZN,hourly; !- [J]
Output:Meter,Electricity:Zone:MFG - CORR. >= 2.4M-SCH-B-SPACE FUNCTION ZN,hourly; !- [J]
Output:Meter:Cumulative,Electricity:Zone:MFG - CORR. >= 2.4M-SCH-B-SPACE FUNCTION ZN,hourly; !- [J]
Output:Meter,InteriorLights:Electricity:Zone:MFG - CORR. >= 2.4M-SCH-B-SPACE FUNCTION ZN,hourly; !- [J]
Output:Meter:Cumulative,InteriorLights:Electricity:Zone:MFG - CORR. >= 2.4M-SCH-B-SPACE FUNCTION ZN,hourly; !- [J]
Output:Meter,Electricity:Zone:MFG - CORR. >= 2.4M-SCH-C-SPACE FUNCTION ZN,hourly; !- [J]
Output:Meter:Cumulative,Electricity:Zone:MFG - CORR. >= 2.4M-SCH-C-SPACE FUNCTION ZN,hourly; !- [J]
Output:Meter,InteriorLights:Electricity:Zone:MFG - CORR. >= 2.4M-SCH-C-SPACE FUNCTION ZN,hourly; !- [J]
Output:Meter:Cumulative,InteriorLights:Electricity:Zone:MFG - CORR. >= 2.4M-SCH-C-SPACE FUNCTION ZN,hourly; !- [J]
Output:Meter,Electricity:Zone:MFG - CORR. >= 2.4M-SCH-D-SPACE FUNCTION ZN,hourly; !- [J]
Output:Meter:Cumulative,Electricity:Zone:MFG - CORR. >= 2.4M-SCH-D-SPACE FUNCTION ZN,hourly; !- [J]
Output:Meter,InteriorLights:Electricity:Zone:MFG - CORR. >= 2.4M-SCH-D-SPACE FUNCTION ZN,hourly; !- [J]
Output:Meter:Cumulative,InteriorLights:Electricity:Zone:MFG - CORR. >= 2.4M-SCH-D-SPACE FUNCTION ZN,hourly; !- [J]
Output:Meter,Electricity:Zone:MFG - CORR. >= 2.4M-SCH-E-SPACE FUNCTION ZN,hourly; !- [J]
Output:Meter:Cumulative,Electricity:Zone:MFG - CORR. >= 2.4M-SCH-E-SPACE FUNCTION ZN,hourly; !- [J]
Output:Meter,InteriorLights:Electricity:Zone:MFG - CORR. >= 2.4M-SCH-E-SPACE FUNCTION ZN,hourly; !- [J]
Output:Meter:Cumulative,InteriorLights:Electricity:Zone:MFG - CORR. >= 2.4M-SCH-E-SPACE FUNCTION ZN,hourly; !- [J]
Output:Meter,Electricity:Zone:MFG - CORR. >= 2.4M-SCH-F-SPACE FUNCTION ZN,hourly; !- [J]
Output:Meter:Cumulative,Electricity:Zone:MFG - CORR. >= 2.4M-SCH-F-SPACE FUNCTION ZN,hourly; !- [J]
Output:Meter,InteriorLights:Electricity:Zone:MFG - CORR. >= 2.4M-SCH-F-SPACE FUNCTION ZN,hourly; !- [J]
Output:Meter:Cumulative,InteriorLights:Electricity:Zone:MFG - CORR. >= 2.4M-SCH-F-SPACE FUNCTION ZN,hourly; !- [J]
Output:Meter,Electricity:Zone:MFG - CORR. >= 2.4M-SCH-G-SPACE FUNCTION ZN,hourly; !- [J]
Output:Meter:Cumulative,Electricity:Zone:MFG - CORR. >= 2.4M-SCH-G-SPACE FUNCTION ZN,hourly; !- [J]
Output:Meter,InteriorLights:Electricity:Zone:MFG - CORR. >= 2.4M-SCH-G-SPACE FUNCTION ZN,hourly; !- [J]
Output:Meter:Cumulative,InteriorLights:Electricity:Zone:MFG - CORR. >= 2.4M-SCH-G-SPACE FUNCTION ZN,hourly; !- [J]
Output:Meter,Electricity:Zone:MFG - CORR. >= 2.4M-SCH-H-SPACE FUNCTION ZN,hourly; !- [J]
Output:Meter:Cumulative,Electricity:Zone:MFG - CORR. >= 2.4M-SCH-H-SPACE FUNCTION ZN,hourly; !- [J]
Output:Meter,InteriorLights:Electricity:Zone:MFG - CORR. >= 2.4M-SCH-H-SPACE FUNCTION ZN,hourly; !- [J]
Output:Meter:Cumulative,InteriorLights:Electricity:Zone:MFG - CORR. >= 2.4M-SCH-H-SPACE FUNCTION ZN,hourly; !- [J]
Output:Meter,Electricity:Zone:MFG - CORR. >= 2.4M-SCH-I-SPACE FUNCTION ZN,hourly; !- [J]
Output:Meter:Cumulative,Electricity:Zone:MFG - CORR. >= 2.4M-SCH-I-SPACE FUNCTION ZN,hourly; !- [J]
Output:Meter,InteriorLights:Electricity:Zone:MFG - CORR. >= 2.4M-SCH-I-SPACE FUNCTION ZN,hourly; !- [J]
Output:Meter:Cumulative,InteriorLights:Electricity:Zone:MFG - CORR. >= 2.4M-SCH-I-SPACE FUNCTION ZN,hourly; !- [J]
Output:Meter,Electricity:Zone:MFG - DETAILED-SPACE FUNCTION ZN,hourly; !- [J]
Output:Meter:Cumulative,Electricity:Zone:MFG - DETAILED-SPACE FUNCTION ZN,hourly; !- [J]
Output:Meter,InteriorLights:Electricity:Zone:MFG - DETAILED-SPACE FUNCTION ZN,hourly; !- [J]
Output:Meter:Cumulative,InteriorLights:Electricity:Zone:MFG - DETAILED-SPACE FUNCTION ZN,hourly; !- [J]
Output:Meter,Electricity:Zone:MFG - EQUIPMENT-SPACE FUNCTION ZN,hourly; !- [J]
Output:Meter:Cumulative,Electricity:Zone:MFG - EQUIPMENT-SPACE FUNCTION ZN,hourly; !- [J]
Output:Meter,InteriorLights:Electricity:Zone:MFG - EQUIPMENT-SPACE FUNCTION ZN,hourly; !- [J]
Output:Meter:Cumulative,InteriorLights:Electricity:Zone:MFG - EQUIPMENT-SPACE FUNCTION ZN,hourly; !- [J]
Output:Meter,Electricity:Zone:MUSEUM - EXHIBITION-SPACE FUNCTION ZN,hourly; !- [J]
Output:Meter:Cumulative,Electricity:Zone:MUSEUM - EXHIBITION-SPACE FUNCTION ZN,hourly; !- [J]
Output:Meter,InteriorLights:Electricity:Zone:MUSEUM - EXHIBITION-SPACE FUNCTION ZN,hourly; !- [J]
Output:Meter:Cumulative,InteriorLights:Electricity:Zone:MUSEUM - EXHIBITION-SPACE FUNCTION ZN,hourly; !- [J]
Output:Meter,Electricity:Zone:MUSEUM - RESTORATION-SPACE FUNCTION ZN,hourly; !- [J]
Output:Meter:Cumulative,Electricity:Zone:MUSEUM - RESTORATION-SPACE FUNCTION ZN,hourly; !- [J]
Output:Meter,InteriorLights:Electricity:Zone:MUSEUM - RESTORATION-SPACE FUNCTION ZN,hourly; !- [J]
Output:Meter:Cumulative,InteriorLights:Electricity:Zone:MUSEUM - RESTORATION-SPACE FUNCTION ZN,hourly; !- [J]
Output:Meter,Electricity:Zone:OFFICE - ENCLOSED-SPACE FUNCTION ZN,hourly; !- [J]
Output:Meter:Cumulative,Electricity:Zone:OFFICE - ENCLOSED-SPACE FUNCTION ZN,hourly; !- [J]
Output:Meter,InteriorLights:Electricity:Zone:OFFICE - ENCLOSED-SPACE FUNCTION ZN,hourly; !- [J]
Output:Meter:Cumulative,InteriorLights:Electricity:Zone:OFFICE - ENCLOSED-SPACE FUNCTION ZN,hourly; !- [J]
Output:Meter,Electricity:Zone:OFFICE - ENCLOSED - OCCSENS-SPACE FUNCTION ZN,hourly; !- [J]
Output:Meter:Cumulative,Electricity:Zone:OFFICE - ENCLOSED - OCCSENS-SPACE FUNCTION ZN,hourly; !- [J]
Output:Meter,InteriorLights:Electricity:Zone:OFFICE - ENCLOSED - OCCSENS-SPACE FUNCTION ZN,hourly; !- [J]
Output:Meter:Cumulative,InteriorLights:Electricity:Zone:OFFICE - ENCLOSED - OCCSENS-SPACE FUNCTION ZN,hourly; !- [J]
Output:Meter,Electricity:Zone:OFFICE - OPEN PLAN-SPACE FUNCTION ZN,hourly; !- [J]
Output:Meter:Cumulative,Electricity:Zone:OFFICE - OPEN PLAN-SPACE FUNCTION ZN,hourly; !- [J]
Output:Meter,InteriorLights:Electricity:Zone:OFFICE - OPEN PLAN-SPACE FUNCTION ZN,hourly; !- [J]
Output:Meter:Cumulative,InteriorLights:Electricity:Zone:OFFICE - OPEN PLAN-SPACE FUNCTION ZN,hourly; !- [J]
Output:Meter,Electricity:Zone:PARKING GARAGE SPACE-SPACE FUNCTION ZN,hourly; !- [J]
Output:Meter:Cumulative,Electricity:Zone:PARKING GARAGE SPACE-SPACE FUNCTION ZN,hourly; !- [J]
Output:Meter,InteriorLights:Electricity:Zone:PARKING GARAGE SPACE-SPACE FUNCTION ZN,hourly; !- [J]
Output:Meter:Cumulative,InteriorLights:Electricity:Zone:PARKING GARAGE SPACE-SPACE FUNCTION ZN,hourly; !- [J]
Output:Meter,Electricity:Zone:PENITENTIARY - AUDIENCE-SPACE FUNCTION ZN,hourly; !- [J]
Output:Meter:Cumulative,Electricity:Zone:PENITENTIARY - AUDIENCE-SPACE FUNCTION ZN,hourly; !- [J]
Output:Meter,InteriorLights:Electricity:Zone:PENITENTIARY - AUDIENCE-SPACE FUNCTION ZN,hourly; !- [J]
Output:Meter:Cumulative,InteriorLights:Electricity:Zone:PENITENTIARY - AUDIENCE-SPACE FUNCTION ZN,hourly; !- [J]
Output:Meter,Electricity:Zone:PENITENTIARY - CLASSROOM-SPACE FUNCTION ZN,hourly; !- [J]
Output:Meter:Cumulative,Electricity:Zone:PENITENTIARY - CLASSROOM-SPACE FUNCTION ZN,hourly; !- [J]
Output:Meter,InteriorLights:Electricity:Zone:PENITENTIARY - CLASSROOM-SPACE FUNCTION ZN,hourly; !- [J]
Output:Meter:Cumulative,InteriorLights:Electricity:Zone:PENITENTIARY - CLASSROOM-SPACE FUNCTION ZN,hourly; !- [J]
Output:Meter,InteriorEquipment:Electricity,hourly; !- [J]
Output:Meter:Cumulative,InteriorEquipment:Electricity,hourly; !- [J]
Output:Meter,InteriorEquipment:Electricity:Zone:MFG - EQUIPMENT-SPACE FUNCTION ZN,hourly; !- [J]
Output:Meter:Cumulative,InteriorEquipment:Electricity:Zone:MFG - EQUIPMENT-SPACE FUNCTION ZN,hourly; !- [J]
Output:Meter,General:InteriorEquipment:Electricity,hourly; !- [J]
Output:Meter:Cumulative,General:InteriorEquipment:Electricity,hourly; !- [J]
Output:Meter,InteriorEquipment:Electricity:Zone:MUSEUM - EXHIBITION-SPACE FUNCTION ZN,hourly; !- [J]
Output:Meter:Cumulative,InteriorEquipment:Electricity:Zone:MUSEUM - EXHIBITION-SPACE FUNCTION ZN,hourly; !- [J]
Output:Meter,InteriorEquipment:Electricity:Zone:MUSEUM - RESTORATION-SPACE FUNCTION ZN,hourly; !- [J]
Output:Meter:Cumulative,InteriorEquipment:Electricity:Zone:MUSEUM - RESTORATION-SPACE FUNCTION ZN,hourly; !- [J]
Output:Meter,InteriorEquipment:Electricity:Zone:OFFICE - ENCLOSED-SPACE FUNCTION ZN,hourly; !- [J]
Output:Meter:Cumulative,InteriorEquipment:Electricity:Zone:OFFICE - ENCLOSED-SPACE FUNCTION ZN,hourly; !- [J]
Output:Meter,InteriorEquipment:Electricity:Zone:OFFICE - ENCLOSED - OCCSENS-SPACE FUNCTION ZN,hourly; !- [J]
Output:Meter:Cumulative,InteriorEquipment:Electricity:Zone:OFFICE - ENCLOSED - OCCSENS-SPACE FUNCTION ZN,hourly; !- [J]
Output:Meter,InteriorEquipment:Electricity:Zone:OFFICE - OPEN PLAN-SPACE FUNCTION ZN,hourly; !- [J]
Output:Meter:Cumulative,InteriorEquipment:Electricity:Zone:OFFICE - OPEN PLAN-SPACE FUNCTION ZN,hourly; !- [J]
Output:Meter,InteriorEquipment:Electricity:Zone:PENITENTIARY - AUDIENCE-SPACE FUNCTION ZN,hourly; !- [J]
Output:Meter:Cumulative,InteriorEquipment:Electricity:Zone:PENITENTIARY - AUDIENCE-SPACE FUNCTION ZN,hourly; !- [J]
Output:Meter,InteriorEquipment:Electricity:Zone:PENITENTIARY - CLASSROOM-SPACE FUNCTION ZN,hourly; !- [J]
Output:Meter:Cumulative,InteriorEquipment:Electricity:Zone:PENITENTIARY - CLASSROOM-SPACE FUNCTION ZN,hourly; !- [J]
Output:Meter,EnergyTransfer:Facility,hourly; !- [J]
Output:Meter:Cumulative,EnergyTransfer:Facility,hourly; !- [J]
Output:Meter,EnergyTransfer:Building,hourly; !- [J]
Output:Meter:Cumulative,EnergyTransfer:Building,hourly; !- [J]
Output:Meter,EnergyTransfer:Zone:MFG - CORR. < 2.4M-SCH-I-SPACE FUNCTION ZN,hourly; !- [J]
Output:Meter:Cumulative,EnergyTransfer:Zone:MFG - CORR. < 2.4M-SCH-I-SPACE FUNCTION ZN,hourly; !- [J]
Output:Meter,Heating:EnergyTransfer,hourly; !- [J]
Output:Meter:Cumulative,Heating:EnergyTransfer,hourly; !- [J]
Output:Meter,Heating:EnergyTransfer:Zone:MFG - CORR. < 2.4M-SCH-I-SPACE FUNCTION ZN,hourly; !- [J]
Output:Meter:Cumulative,Heating:EnergyTransfer:Zone:MFG - CORR. < 2.4M-SCH-I-SPACE FUNCTION ZN,hourly; !- [J]
Output:Meter,Cooling:EnergyTransfer,hourly; !- [J]
Output:Meter:Cumulative,Cooling:EnergyTransfer,hourly; !- [J]
Output:Meter,Cooling:EnergyTransfer:Zone:MFG - CORR. < 2.4M-SCH-I-SPACE FUNCTION ZN,hourly; !- [J]
Output:Meter:Cumulative,Cooling:EnergyTransfer:Zone:MFG - CORR. < 2.4M-SCH-I-SPACE FUNCTION ZN,hourly; !- [J]
Output:Meter,EnergyTransfer:Zone:MFG - CORR. >= 2.4M-SCH-A-SPACE FUNCTION ZN,hourly; !- [J]
Output:Meter:Cumulative,EnergyTransfer:Zone:MFG - CORR. >= 2.4M-SCH-A-SPACE FUNCTION ZN,hourly; !- [J]
Output:Meter,Heating:EnergyTransfer:Zone:MFG - CORR. >= 2.4M-SCH-A-SPACE FUNCTION ZN,hourly; !- [J]
Output:Meter:Cumulative,Heating:EnergyTransfer:Zone:MFG - CORR. >= 2.4M-SCH-A-SPACE FUNCTION ZN,hourly; !- [J]
Output:Meter,Cooling:EnergyTransfer:Zone:MFG - CORR. >= 2.4M-SCH-A-SPACE FUNCTION ZN,hourly; !- [J]
Output:Meter:Cumulative,Cooling:EnergyTransfer:Zone:MFG - CORR. >= 2.4M-SCH-A-SPACE FUNCTION ZN,hourly; !- [J]
Output:Meter,EnergyTransfer:Zone:MFG - CORR. >= 2.4M-SCH-B-SPACE FUNCTION ZN,hourly; !- [J]
Output:Meter:Cumulative,EnergyTransfer:Zone:MFG - CORR. >= 2.4M-SCH-B-SPACE FUNCTION ZN,hourly; !- [J]
Output:Meter,Heating:EnergyTransfer:Zone:MFG - CORR. >= 2.4M-SCH-B-SPACE FUNCTION ZN,hourly; !- [J]
Output:Meter:Cumulative,Heating:EnergyTransfer:Zone:MFG - CORR. >= 2.4M-SCH-B-SPACE FUNCTION ZN,hourly; !- [J]
Output:Meter,Cooling:EnergyTransfer:Zone:MFG - CORR. >= 2.4M-SCH-B-SPACE FUNCTION ZN,hourly; !- [J]
Output:Meter:Cumulative,Cooling:EnergyTransfer:Zone:MFG - CORR. >= 2.4M-SCH-B-SPACE FUNCTION ZN,hourly; !- [J]
Output:Meter,EnergyTransfer:Zone:MFG - CORR. >= 2.4M-SCH-C-SPACE FUNCTION ZN,hourly; !- [J]
Output:Meter:Cumulative,EnergyTransfer:Zone:MFG - CORR. >= 2.4M-SCH-C-SPACE FUNCTION ZN,hourly; !- [J]
Output:Meter,Heating:EnergyTransfer:Zone:MFG - CORR. >= 2.4M-SCH-C-SPACE FUNCTION ZN,hourly; !- [J]
Output:Meter:Cumulative,Heating:EnergyTransfer:Zone:MFG - CORR. >= 2.4M-SCH-C-SPACE FUNCTION ZN,hourly; !- [J]
Output:Meter,Cooling:EnergyTransfer:Zone:MFG - CORR. >= 2.4M-SCH-C-SPACE FUNCTION ZN,hourly; !- [J]
Output:Meter:Cumulative,Cooling:EnergyTransfer:Zone:MFG - CORR. >= 2.4M-SCH-C-SPACE FUNCTION ZN,hourly; !- [J]
Output:Meter,EnergyTransfer:Zone:MFG - CORR. >= 2.4M-SCH-D-SPACE FUNCTION ZN,hourly; !- [J]
Output:Meter:Cumulative,EnergyTransfer:Zone:MFG - CORR. >= 2.4M-SCH-D-SPACE FUNCTION ZN,hourly; !- [J]
Output:Meter,Heating:EnergyTransfer:Zone:MFG - CORR. >= 2.4M-SCH-D-SPACE FUNCTION ZN,hourly; !- [J]
Output:Meter:Cumulative,Heating:EnergyTransfer:Zone:MFG - CORR. >= 2.4M-SCH-D-SPACE FUNCTION ZN,hourly; !- [J]
Output:Meter,Cooling:EnergyTransfer:Zone:MFG - CORR. >= 2.4M-SCH-D-SPACE FUNCTION ZN,hourly; !- [J]
Output:Meter:Cumulative,Cooling:EnergyTransfer:Zone:MFG - CORR. >= 2.4M-SCH-D-SPACE FUNCTION ZN,hourly; !- [J]
Output:Meter,EnergyTransfer:Zone:MFG - CORR. >= 2.4M-SCH-E-SPACE FUNCTION ZN,hourly; !- [J]
Output:Meter:Cumulative,EnergyTransfer:Zone:MFG - CORR. >= 2.4M-SCH-E-SPACE FUNCTION ZN,hourly; !- [J]
Output:Meter,Heating:EnergyTransfer:Zone:MFG - CORR. >= 2.4M-SCH-E-SPACE FUNCTION ZN,hourly; !- [J]
Output:Meter:Cumulative,Heating:EnergyTransfer:Zone:MFG - CORR. >= 2.4M-SCH-E-SPACE FUNCTION ZN,hourly; !- [J]
Output:Meter,Cooling:EnergyTransfer:Zone:MFG - CORR. >= 2.4M-SCH-E-SPACE FUNCTION ZN,hourly; !- [J]
Output:Meter:Cumulative,Cooling:EnergyTransfer:Zone:MFG - CORR. >= 2.4M-SCH-E-SPACE FUNCTION ZN,hourly; !- [J]
Output:Meter,EnergyTransfer:Zone:MFG - CORR. >= 2.4M-SCH-F-SPACE FUNCTION ZN,hourly; !- [J]
Output:Meter:Cumulative,EnergyTransfer:Zone:MFG - CORR. >= 2.4M-SCH-F-SPACE FUNCTION ZN,hourly; !- [J]
Output:Meter,Heating:EnergyTransfer:Zone:MFG - CORR. >= 2.4M-SCH-F-SPACE FUNCTION ZN,hourly; !- [J]
Output:Meter:Cumulative,Heating:EnergyTransfer:Zone:MFG - CORR. >= 2.4M-SCH-F-SPACE FUNCTION ZN,hourly; !- [J]
Output:Meter,Cooling:EnergyTransfer:Zone:MFG - CORR. >= 2.4M-SCH-F-SPACE FUNCTION ZN,hourly; !- [J]
Output:Meter:Cumulative,Cooling:EnergyTransfer:Zone:MFG - CORR. >= 2.4M-SCH-F-SPACE FUNCTION ZN,hourly; !- [J]
Output:Meter,EnergyTransfer:Zone:MFG - CORR. >= 2.4M-SCH-G-SPACE FUNCTION ZN,hourly; !- [J]
Output:Meter:Cumulative,EnergyTransfer:Zone:MFG - CORR. >= 2.4M-SCH-G-SPACE FUNCTION ZN,hourly; !- [J]
Output:Meter,Heating:EnergyTransfer:Zone:MFG - CORR. >= 2.4M-SCH-G-SPACE FUNCTION ZN,hourly; !- [J]
Output:Meter:Cumulative,Heating:EnergyTransfer:Zone:MFG - CORR. >= 2.4M-SCH-G-SPACE FUNCTION ZN,hourly; !- [J]
Output:Meter,Cooling:EnergyTransfer:Zone:MFG - CORR. >= 2.4M-SCH-G-SPACE FUNCTION ZN,hourly; !- [J]
Output:Meter:Cumulative,Cooling:EnergyTransfer:Zone:MFG - CORR. >= 2.4M-SCH-G-SPACE FUNCTION ZN,hourly; !- [J]
Output:Meter,EnergyTransfer:Zone:MFG - CORR. >= 2.4M-SCH-H-SPACE FUNCTION ZN,hourly; !- [J]
Output:Meter:Cumulative,EnergyTransfer:Zone:MFG - CORR. >= 2.4M-SCH-H-SPACE FUNCTION ZN,hourly; !- [J]
Output:Meter,Heating:EnergyTransfer:Zone:MFG - CORR. >= 2.4M-SCH-H-SPACE FUNCTION ZN,hourly; !- [J]
Output:Meter:Cumulative,Heating:EnergyTransfer:Zone:MFG - CORR. >= 2.4M-SCH-H-SPACE FUNCTION ZN,hourly; !- [J]
Output:Meter,Cooling:EnergyTransfer:Zone:MFG - CORR. >= 2.4M-SCH-H-SPACE FUNCTION ZN,hourly; !- [J]
Output:Meter:Cumulative,Cooling:EnergyTransfer:Zone:MFG - CORR. >= 2.4M-SCH-H-SPACE FUNCTION ZN,hourly; !- [J]
Output:Meter,EnergyTransfer:Zone:MFG - CORR. >= 2.4M-SCH-I-SPACE FUNCTION ZN,hourly; !- [J]
Output:Meter:Cumulative,EnergyTransfer:Zone:MFG - CORR. >= 2.4M-SCH-I-SPACE FUNCTION ZN,hourly; !- [J]
Output:Meter,Heating:EnergyTransfer:Zone:MFG - CORR. >= 2.4M-SCH-I-SPACE FUNCTION ZN,hourly; !- [J]
Output:Meter:Cumulative,Heating:EnergyTransfer:Zone:MFG - CORR. >= 2.4M-SCH-I-SPACE FUNCTION ZN,hourly; !- [J]
Output:Meter,Cooling:EnergyTransfer:Zone:MFG - CORR. >= 2.4M-SCH-I-SPACE FUNCTION ZN,hourly; !- [J]
Output:Meter:Cumulative,Cooling:EnergyTransfer:Zone:MFG - CORR. >= 2.4M-SCH-I-SPACE FUNCTION ZN,hourly; !- [J]
Output:Meter,EnergyTransfer:Zone:MFG - DETAILED-SPACE FUNCTION ZN,hourly; !- [J]
Output:Meter:Cumulative,EnergyTransfer:Zone:MFG - DETAILED-SPACE FUNCTION ZN,hourly; !- [J]
Output:Meter,Heating:EnergyTransfer:Zone:MFG - DETAILED-SPACE FUNCTION ZN,hourly; !- [J]
Output:Meter:Cumulative,Heating:EnergyTransfer:Zone:MFG - DETAILED-SPACE FUNCTION ZN,hourly; !- [J]
Output:Meter,Cooling:EnergyTransfer:Zone:MFG - DETAILED-SPACE FUNCTION ZN,hourly; !- [J]
Output:Meter:Cumulative,Cooling:EnergyTransfer:Zone:MFG - DETAILED-SPACE FUNCTION ZN,hourly; !- [J]
Output:Meter,EnergyTransfer:Zone:MFG - EQUIPMENT-SPACE FUNCTION ZN,hourly; !- [J]
Output:Meter:Cumulative,EnergyTransfer:Zone:MFG - EQUIPMENT-SPACE FUNCTION ZN,hourly; !- [J]
Output:Meter,Heating:EnergyTransfer:Zone:MFG - EQUIPMENT-SPACE FUNCTION ZN,hourly; !- [J]
Output:Meter:Cumulative,Heating:EnergyTransfer:Zone:MFG - EQUIPMENT-SPACE FUNCTION ZN,hourly; !- [J]
Output:Meter,Cooling:EnergyTransfer:Zone:MFG - EQUIPMENT-SPACE FUNCTION ZN,hourly; !- [J]
Output:Meter:Cumulative,Cooling:EnergyTransfer:Zone:MFG - EQUIPMENT-SPACE FUNCTION ZN,hourly; !- [J]
Output:Meter,EnergyTransfer:Zone:MUSEUM - EXHIBITION-SPACE FUNCTION ZN,hourly; !- [J]
Output:Meter:Cumulative,EnergyTransfer:Zone:MUSEUM - EXHIBITION-SPACE FUNCTION ZN,hourly; !- [J]
Output:Meter,Heating:EnergyTransfer:Zone:MUSEUM - EXHIBITION-SPACE FUNCTION ZN,hourly; !- [J]
Output:Meter:Cumulative,Heating:EnergyTransfer:Zone:MUSEUM - EXHIBITION-SPACE FUNCTION ZN,hourly; !- [J]
Output:Meter,Cooling:EnergyTransfer:Zone:MUSEUM - EXHIBITION-SPACE FUNCTION ZN,hourly; !- [J]
Output:Meter:Cumulative,Cooling:EnergyTransfer:Zone:MUSEUM - EXHIBITION-SPACE FUNCTION ZN,hourly; !- [J]
Output:Meter,EnergyTransfer:Zone:MUSEUM - RESTORATION-SPACE FUNCTION ZN,hourly; !- [J]
Output:Meter:Cumulative,EnergyTransfer:Zone:MUSEUM - RESTORATION-SPACE FUNCTION ZN,hourly; !- [J]
Output:Meter,Heating:EnergyTransfer:Zone:MUSEUM - RESTORATION-SPACE FUNCTION ZN,hourly; !- [J]
Output:Meter:Cumulative,Heating:EnergyTransfer:Zone:MUSEUM - RESTORATION-SPACE FUNCTION ZN,hourly; !- [J]
Output:Meter,Cooling:EnergyTransfer:Zone:MUSEUM - RESTORATION-SPACE FUNCTION ZN,hourly; !- [J]
Output:Meter:Cumulative,Cooling:EnergyTransfer:Zone:MUSEUM - RESTORATION-SPACE FUNCTION ZN,hourly; !- [J]
Output:Meter,EnergyTransfer:Zone:OFFICE - ENCLOSED - OCCSENS-SPACE FUNCTION ZN,hourly; !- [J]
Output:Meter:Cumulative,EnergyTransfer:Zone:OFFICE - ENCLOSED - OCCSENS-SPACE FUNCTION ZN,hourly; !- [J]
Output:Meter,Heating:EnergyTransfer:Zone:OFFICE - ENCLOSED - OCCSENS-SPACE FUNCTION ZN,hourly; !- [J]
Output:Meter:Cumulative,Heating:EnergyTransfer:Zone:OFFICE - ENCLOSED - OCCSENS-SPACE FUNCTION ZN,hourly; !- [J]
Output:Meter,Cooling:EnergyTransfer:Zone:OFFICE - ENCLOSED - OCCSENS-SPACE FUNCTION ZN,hourly; !- [J]
Output:Meter:Cumulative,Cooling:EnergyTransfer:Zone:OFFICE - ENCLOSED - OCCSENS-SPACE FUNCTION ZN,hourly; !- [J]
Output:Meter,EnergyTransfer:Zone:OFFICE - ENCLOSED-SPACE FUNCTION ZN,hourly; !- [J]
Output:Meter:Cumulative,EnergyTransfer:Zone:OFFICE - ENCLOSED-SPACE FUNCTION ZN,hourly; !- [J]
Output:Meter,Heating:EnergyTransfer:Zone:OFFICE - ENCLOSED-SPACE FUNCTION ZN,hourly; !- [J]
Output:Meter:Cumulative,Heating:EnergyTransfer:Zone:OFFICE - ENCLOSED-SPACE FUNCTION ZN,hourly; !- [J]
Output:Meter,Cooling:EnergyTransfer:Zone:OFFICE - ENCLOSED-SPACE FUNCTION ZN,hourly; !- [J]
Output:Meter:Cumulative,Cooling:EnergyTransfer:Zone:OFFICE - ENCLOSED-SPACE FUNCTION ZN,hourly; !- [J]
Output:Meter,EnergyTransfer:Zone:OFFICE - OPEN PLAN-SPACE FUNCTION ZN,hourly; !- [J]
Output:Meter:Cumulative,EnergyTransfer:Zone:OFFICE - OPEN PLAN-SPACE FUNCTION ZN,hourly; !- [J]
Output:Meter,Heating:EnergyTransfer:Zone:OFFICE - OPEN PLAN-SPACE FUNCTION ZN,hourly; !- [J]
Output:Meter:Cumulative,Heating:EnergyTransfer:Zone:OFFICE - OPEN PLAN-SPACE FUNCTION ZN,hourly; !- [J]
Output:Meter,Cooling:EnergyTransfer:Zone:OFFICE - OPEN PLAN-SPACE FUNCTION ZN,hourly; !- [J]
Output:Meter:Cumulative,Cooling:EnergyTransfer:Zone:OFFICE - OPEN PLAN-SPACE FUNCTION ZN,hourly; !- [J]
Output:Meter,EnergyTransfer:Zone:PARKING GARAGE SPACE-SPACE FUNCTION ZN,hourly; !- [J]
Output:Meter:Cumulative,EnergyTransfer:Zone:PARKING GARAGE SPACE-SPACE FUNCTION ZN,hourly; !- [J]
Output:Meter,Heating:EnergyTransfer:Zone:PARKING GARAGE SPACE-SPACE FUNCTION ZN,hourly; !- [J]
Output:Meter:Cumulative,Heating:EnergyTransfer:Zone:PARKING GARAGE SPACE-SPACE FUNCTION ZN,hourly; !- [J]
Output:Meter,Cooling:EnergyTransfer:Zone:PARKING GARAGE SPACE-SPACE FUNCTION ZN,hourly; !- [J]
Output:Meter:Cumulative,Cooling:EnergyTransfer:Zone:PARKING GARAGE SPACE-SPACE FUNCTION ZN,hourly; !- [J]
Output:Meter,EnergyTransfer:Zone:PENITENTIARY - AUDIENCE-SPACE FUNCTION ZN,hourly; !- [J]
Output:Meter:Cumulative,EnergyTransfer:Zone:PENITENTIARY - AUDIENCE-SPACE FUNCTION ZN,hourly; !- [J]
Output:Meter,Heating:EnergyTransfer:Zone:PENITENTIARY - AUDIENCE-SPACE FUNCTION ZN,hourly; !- [J]
Output:Meter:Cumulative,Heating:EnergyTransfer:Zone:PENITENTIARY - AUDIENCE-SPACE FUNCTION ZN,hourly; !- [J]
Output:Meter,Cooling:EnergyTransfer:Zone:PENITENTIARY - AUDIENCE-SPACE FUNCTION ZN,hourly; !- [J]
Output:Meter:Cumulative,Cooling:EnergyTransfer:Zone:PENITENTIARY - AUDIENCE-SPACE FUNCTION ZN,hourly; !- [J]
Output:Meter,EnergyTransfer:Zone:PENITENTIARY - CLASSROOM-SPACE FUNCTION ZN,hourly; !- [J]
Output:Meter:Cumulative,EnergyTransfer:Zone:PENITENTIARY - CLASSROOM-SPACE FUNCTION ZN,hourly; !- [J]
Output:Meter,Heating:EnergyTransfer:Zone:PENITENTIARY - CLASSROOM-SPACE FUNCTION ZN,hourly; !- [J]
Output:Meter:Cumulative,Heating:EnergyTransfer:Zone:PENITENTIARY - CLASSROOM-SPACE FUNCTION ZN,hourly; !- [J]
Output:Meter,Cooling:EnergyTransfer:Zone:PENITENTIARY - CLASSROOM-SPACE FUNCTION ZN,hourly; !- [J]
Output:Meter:Cumulative,Cooling:EnergyTransfer:Zone:PENITENTIARY - CLASSROOM-SPACE FUNCTION ZN,hourly; !- [J]
Output:Meter,ElectricityPurchased:Facility,hourly; !- [J]
Output:Meter:Cumulative,ElectricityPurchased:Facility,hourly; !- [J]
Output:Meter,ElectricityPurchased:Plant,hourly; !- [J]
Output:Meter:Cumulative,ElectricityPurchased:Plant,hourly; !- [J]
Output:Meter,Cogeneration:ElectricityPurchased,hourly; !- [J]
Output:Meter:Cumulative,Cogeneration:ElectricityPurchased,hourly; !- [J]
Output:Meter,ElectricitySurplusSold:Facility,hourly; !- [J]
Output:Meter:Cumulative,ElectricitySurplusSold:Facility,hourly; !- [J]
Output:Meter,ElectricitySurplusSold:Plant,hourly; !- [J]
Output:Meter:Cumulative,ElectricitySurplusSold:Plant,hourly; !- [J]
Output:Meter,Cogeneration:ElectricitySurplusSold,hourly; !- [J]
Output:Meter:Cumulative,Cogeneration:ElectricitySurplusSold,hourly; !- [J]
Output:Meter,ElectricityNet:Facility,hourly; !- [J]
Output:Meter:Cumulative,ElectricityNet:Facility,hourly; !- [J]
Output:Meter,ElectricityNet:Plant,hourly; !- [J]
Output:Meter:Cumulative,ElectricityNet:Plant,hourly; !- [J]
Output:Meter,Cogeneration:ElectricityNet,hourly; !- [J]
Output:Meter:Cumulative,Cogeneration:ElectricityNet,hourly; !- [J]
Output:Meter,DistrictHeating:Facility,hourly; !- [J]
Output:Meter:Cumulative,DistrictHeating:Facility,hourly; !- [J]
Output:Meter,DistrictHeating:HVAC,hourly; !- [J]
Output:Meter:Cumulative,DistrictHeating:HVAC,hourly; !- [J]
Output:Meter,Heating:DistrictHeating,hourly; !- [J]
Output:Meter:Cumulative,Heating:DistrictHeating,hourly; !- [J]
Output:Meter,DistrictCooling:Facility,hourly; !- [J]
Output:Meter:Cumulative,DistrictCooling:Facility,hourly; !- [J]
Output:Meter,DistrictCooling:HVAC,hourly; !- [J]
Output:Meter:Cumulative,DistrictCooling:HVAC,hourly; !- [J]
Output:Meter,Cooling:DistrictCooling,hourly; !- [J]
Output:Meter:Cumulative,Cooling:DistrictCooling,hourly; !- [J]
Output:Meter,Carbon Equivalent:Facility,hourly; !- [kg]
Output:Meter:Cumulative,Carbon Equivalent:Facility,hourly; !- [kg]
Output:Meter,CarbonEquivalentEmissions:Carbon Equivalent,hourly; !- [kg]
Output:Meter:Cumulative,CarbonEquivalentEmissions:Carbon Equivalent,hourly; !- [kg]
