! Program Version,EnergyPlus, Version 8.9.0-eba93e8e1b, YMD=2019.03.28 13:19,
! Output:Meter Objects (applicable to this run)
Output:Meter,Electricity:Facility,hourly; !- [J]
Output:Meter:Cumulative,Electricity:Facility,hourly; !- [J]
Output:Meter,Electricity:Building,hourly; !- [J]
Output:Meter:Cumulative,Electricity:Building,hourly; !- [J]
Output:Meter,Electricity:Zone:WHOLEBUILDING-AUTOMOTIVE FACILITY ZN,hourly; !- [J]
Output:Meter:Cumulative,Electricity:Zone:WHOLEBUILDING-AUTOMOTIVE FACILITY ZN,hourly; !- [J]
Output:Meter,InteriorLights:Electricity,hourly; !- [J]
Output:Meter:Cumulative,InteriorLights:Electricity,hourly; !- [J]
Output:Meter,InteriorLights:Electricity:Zone:WHOLEBUILDING-AUTOMOTIVE FACILITY ZN,hourly; !- [J]
Output:Meter:Cumulative,InteriorLights:Electricity:Zone:WHOLEBUILDING-AUTOMOTIVE FACILITY ZN,hourly; !- [J]
Output:Meter,General:InteriorLights:Electricity,hourly; !- [J]
Output:Meter:Cumulative,General:InteriorLights:Electricity,hourly; !- [J]
Output:Meter,Electricity:Zone:WHOLEBUILDING-AUTOMOTIVE FACILITY 1 ZN,hourly; !- [J]
Output:Meter:Cumulative,Electricity:Zone:WHOLEBUILDING-AUTOMOTIVE FACILITY 1 ZN,hourly; !- [J]
Output:Meter,InteriorLights:Electricity:Zone:WHOLEBUILDING-AUTOMOTIVE FACILITY 1 ZN,hourly; !- [J]
Output:Meter:Cumulative,InteriorLights:Electricity:Zone:WHOLEBUILDING-AUTOMOTIVE FACILITY 1 ZN,hourly; !- [J]
Output:Meter,Electricity:Zone:WHOLEBUILDING-AUTOMOTIVE FACILITY 2 ZN,hourly; !- [J]
Output:Meter:Cumulative,Electricity:Zone:WHOLEBUILDING-AUTOMOTIVE FACILITY 2 ZN,hourly; !- [J]
Output:Meter,InteriorLights:Electricity:Zone:WHOLEBUILDING-AUTOMOTIVE FACILITY 2 ZN,hourly; !- [J]
Output:Meter:Cumulative,InteriorLights:Electricity:Zone:WHOLEBUILDING-AUTOMOTIVE FACILITY 2 ZN,hourly; !- [J]
Output:Meter,Electricity:Zone:WHOLEBUILDING-AUTOMOTIVE FACILITY 3 ZN,hourly; !- [J]
Output:Meter:Cumulative,Electricity:Zone:WHOLEBUILDING-AUTOMOTIVE FACILITY 3 ZN,hourly; !- [J]
Output:Meter,InteriorLights:Electricity:Zone:WHOLEBUILDING-AUTOMOTIVE FACILITY 3 ZN,hourly; !- [J]
Output:Meter:Cumulative,InteriorLights:Electricity:Zone:WHOLEBUILDING-AUTOMOTIVE FACILITY 3 ZN,hourly; !- [J]
Output:Meter,Electricity:Zone:WHOLEBUILDING-AUTOMOTIVE FACILITY 4 ZN,hourly; !- [J]
Output:Meter:Cumulative,Electricity:Zone:WHOLEBUILDING-AUTOMOTIVE FACILITY 4 ZN,hourly; !- [J]
Output:Meter,InteriorLights:Electricity:Zone:WHOLEBUILDING-AUTOMOTIVE FACILITY 4 ZN,hourly; !- [J]
Output:Meter:Cumulative,InteriorLights:Electricity:Zone:WHOLEBUILDING-AUTOMOTIVE FACILITY 4 ZN,hourly; !- [J]
Output:Meter,Electricity:Zone:WHOLEBUILDING-AUTOMOTIVE FACILITY 5 ZN,hourly; !- [J]
Output:Meter:Cumulative,Electricity:Zone:WHOLEBUILDING-AUTOMOTIVE FACILITY 5 ZN,hourly; !- [J]
Output:Meter,InteriorLights:Electricity:Zone:WHOLEBUILDING-AUTOMOTIVE FACILITY 5 ZN,hourly; !- [J]
Output:Meter:Cumulative,InteriorLights:Electricity:Zone:WHOLEBUILDING-AUTOMOTIVE FACILITY 5 ZN,hourly; !- [J]
Output:Meter,Electricity:Zone:WHOLEBUILDING-AUTOMOTIVE FACILITY 6 ZN,hourly; !- [J]
Output:Meter:Cumulative,Electricity:Zone:WHOLEBUILDING-AUTOMOTIVE FACILITY 6 ZN,hourly; !- [J]
Output:Meter,InteriorLights:Electricity:Zone:WHOLEBUILDING-AUTOMOTIVE FACILITY 6 ZN,hourly; !- [J]
Output:Meter:Cumulative,InteriorLights:Electricity:Zone:WHOLEBUILDING-AUTOMOTIVE FACILITY 6 ZN,hourly; !- [J]
Output:Meter,Electricity:Zone:WAREHOUSE - FINE-SPACE FUNCTION ZN,hourly; !- [J]
Output:Meter:Cumulative,Electricity:Zone:WAREHOUSE - FINE-SPACE FUNCTION ZN,hourly; !- [J]
Output:Meter,InteriorLights:Electricity:Zone:WAREHOUSE - FINE-SPACE FUNCTION ZN,hourly; !- [J]
Output:Meter:Cumulative,InteriorLights:Electricity:Zone:WAREHOUSE - FINE-SPACE FUNCTION ZN,hourly; !- [J]
Output:Meter,Electricity:Zone:WAREHOUSE - FINE - REFRIGERATED-SPACE FUNCTION ZN,hourly; !- [J]
Output:Meter:Cumulative,Electricity:Zone:WAREHOUSE - FINE - REFRIGERATED-SPACE FUNCTION ZN,hourly; !- [J]
Output:Meter,InteriorLights:Electricity:Zone:WAREHOUSE - FINE - REFRIGERATED-SPACE FUNCTION ZN,hourly; !- [J]
Output:Meter:Cumulative,InteriorLights:Electricity:Zone:WAREHOUSE - FINE - REFRIGERATED-SPACE FUNCTION ZN,hourly; !- [J]
Output:Meter,Electricity:Zone:WAREHOUSE - MED/BLK-SPACE FUNCTION ZN,hourly; !- [J]
Output:Meter:Cumulative,Electricity:Zone:WAREHOUSE - MED/BLK-SPACE FUNCTION ZN,hourly; !- [J]
Output:Meter,InteriorLights:Electricity:Zone:WAREHOUSE - MED/BLK-SPACE FUNCTION ZN,hourly; !- [J]
Output:Meter:Cumulative,InteriorLights:Electricity:Zone:WAREHOUSE - MED/BLK-SPACE FUNCTION ZN,hourly; !- [J]
Output:Meter,Electricity:Zone:WAREHOUSE - MED/BLK - REFRIGERATED-SPACE FUNCTION ZN,hourly; !- [J]
Output:Meter:Cumulative,Electricity:Zone:WAREHOUSE - MED/BLK - REFRIGERATED-SPACE FUNCTION ZN,hourly; !- [J]
Output:Meter,InteriorLights:Electricity:Zone:WAREHOUSE - MED/BLK - REFRIGERATED-SPACE FUNCTION ZN,hourly; !- [J]
Output:Meter:Cumulative,InteriorLights:Electricity:Zone:WAREHOUSE - MED/BLK - REFRIGERATED-SPACE FUNCTION ZN,hourly; !- [J]
Output:Meter,Electricity:Zone:WAREHOUSE - MED/BLK2-SPACE FUNCTION ZN,hourly; !- [J]
Output:Meter:Cumulative,Electricity:Zone:WAREHOUSE - MED/BLK2-SPACE FUNCTION ZN,hourly; !- [J]
Output:Meter,InteriorLights:Electricity:Zone:WAREHOUSE - MED/BLK2-SPACE FUNCTION ZN,hourly; !- [J]
Output:Meter:Cumulative,InteriorLights:Electricity:Zone:WAREHOUSE - MED/BLK2-SPACE FUNCTION ZN,hourly; !- [J]
Output:Meter,Electricity:Zone:WAREHOUSE - MED/BLK2 - REFRIGERATED-SPACE FUNCTION ZN,hourly; !- [J]
Output:Meter:Cumulative,Electricity:Zone:WAREHOUSE - MED/BLK2 - REFRIGERATED-SPACE FUNCTION ZN,hourly; !- [J]
Output:Meter,InteriorLights:Electricity:Zone:WAREHOUSE - MED/BLK2 - REFRIGERATED-SPACE FUNCTION ZN,hourly; !- [J]
Output:Meter:Cumulative,InteriorLights:Electricity:Zone:WAREHOUSE - MED/BLK2 - REFRIGERATED-SPACE FUNCTION ZN,hourly; !- [J]
Output:Meter,Electricity:Zone:WORKSHOP SPACE-SPACE FUNCTION ZN,hourly; !- [J]
Output:Meter:Cumulative,Electricity:Zone:WORKSHOP SPACE-SPACE FUNCTION ZN,hourly; !- [J]
Output:Meter,InteriorLights:Electricity:Zone:WORKSHOP SPACE-SPACE FUNCTION ZN,hourly; !- [J]
Output:Meter:Cumulative,InteriorLights:Electricity:Zone:WORKSHOP SPACE-SPACE FUNCTION ZN,hourly; !- [J]
Output:Meter,Electricity:Zone:WHOLEBUILDING-SPORTS ARENA ZN,hourly; !- [J]
Output:Meter:Cumulative,Electricity:Zone:WHOLEBUILDING-SPORTS ARENA ZN,hourly; !- [J]
Output:Meter,InteriorLights:Electricity:Zone:WHOLEBUILDING-SPORTS ARENA ZN,hourly; !- [J]
Output:Meter:Cumulative,InteriorLights:Electricity:Zone:WHOLEBUILDING-SPORTS ARENA ZN,hourly; !- [J]
Output:Meter,Electricity:Zone:WHOLEBUILDING-TOWN HALL ZN,hourly; !- [J]
Output:Meter:Cumulative,Electricity:Zone:WHOLEBUILDING-TOWN HALL ZN,hourly; !- [J]
Output:Meter,InteriorLights:Electricity:Zone:WHOLEBUILDING-TOWN HALL ZN,hourly; !- [J]
Output:Meter:Cumulative,InteriorLights:Electricity:Zone:WHOLEBUILDING-TOWN HALL ZN,hourly; !- [J]
Output:Meter,Electricity:Zone:WHOLEBUILDING-TRANSPORTATION ZN,hourly; !- [J]
Output:Meter:Cumulative,Electricity:Zone:WHOLEBUILDING-TRANSPORTATION ZN,hourly; !- [J]
Output:Meter,InteriorLights:Electricity:Zone:WHOLEBUILDING-TRANSPORTATION ZN,hourly; !- [J]
Output:Meter:Cumulative,InteriorLights:Electricity:Zone:WHOLEBUILDING-TRANSPORTATION ZN,hourly; !- [J]
Output:Meter,Electricity:Zone:WHOLEBUILDING-WAREHOUSE - REFRIGERATED ZN,hourly; !- [J]
Output:Meter:Cumulative,Electricity:Zone:WHOLEBUILDING-WAREHOUSE - REFRIGERATED ZN,hourly; !- [J]
Output:Meter,InteriorLights:Electricity:Zone:WHOLEBUILDING-WAREHOUSE - REFRIGERATED ZN,hourly; !- [J]
Output:Meter:Cumulative,InteriorLights:Electricity:Zone:WHOLEBUILDING-WAREHOUSE - REFRIGERATED ZN,hourly; !- [J]
Output:Meter,Electricity:Zone:WHOLEBUILDING-WAREHOUSE ZN,hourly; !- [J]
Output:Meter:Cumulative,Electricity:Zone:WHOLEBUILDING-WAREHOUSE ZN,hourly; !- [J]
Output:Meter,InteriorLights:Electricity:Zone:WHOLEBUILDING-WAREHOUSE ZN,hourly; !- [J]
Output:Meter:Cumulative,InteriorLights:Electricity:Zone:WHOLEBUILDING-WAREHOUSE ZN,hourly; !- [J]
Output:Meter,Electricity:Zone:WHOLEBUILDING-WORKSHOP ZN,hourly; !- [J]
Output:Meter:Cumulative,Electricity:Zone:WHOLEBUILDING-WORKSHOP ZN,hourly; !- [J]
Output:Meter,InteriorLights:Electricity:Zone:WHOLEBUILDING-WORKSHOP ZN,hourly; !- [J]
Output:Meter:Cumulative,InteriorLights:Electricity:Zone:WHOLEBUILDING-WORKSHOP ZN,hourly; !- [J]
Output:Meter,InteriorEquipment:Electricity,hourly; !- [J]
Output:Meter:Cumulative,InteriorEquipment:Electricity,hourly; !- [J]
Output:Meter,InteriorEquipment:Electricity:Zone:WHOLEBUILDING-AUTOMOTIVE FACILITY ZN,hourly; !- [J]
Output:Meter:Cumulative,InteriorEquipment:Electricity:Zone:WHOLEBUILDING-AUTOMOTIVE FACILITY ZN,hourly; !- [J]
Output:Meter,General:InteriorEquipment:Electricity,hourly; !- [J]
Output:Meter:Cumulative,General:InteriorEquipment:Electricity,hourly; !- [J]
Output:Meter,InteriorEquipment:Electricity:Zone:WHOLEBUILDING-AUTOMOTIVE FACILITY 1 ZN,hourly; !- [J]
Output:Meter:Cumulative,InteriorEquipment:Electricity:Zone:WHOLEBUILDING-AUTOMOTIVE FACILITY 1 ZN,hourly; !- [J]
Output:Meter,InteriorEquipment:Electricity:Zone:WHOLEBUILDING-AUTOMOTIVE FACILITY 2 ZN,hourly; !- [J]
Output:Meter:Cumulative,InteriorEquipment:Electricity:Zone:WHOLEBUILDING-AUTOMOTIVE FACILITY 2 ZN,hourly; !- [J]
Output:Meter,InteriorEquipment:Electricity:Zone:WHOLEBUILDING-AUTOMOTIVE FACILITY 3 ZN,hourly; !- [J]
Output:Meter:Cumulative,InteriorEquipment:Electricity:Zone:WHOLEBUILDING-AUTOMOTIVE FACILITY 3 ZN,hourly; !- [J]
Output:Meter,InteriorEquipment:Electricity:Zone:WHOLEBUILDING-AUTOMOTIVE FACILITY 4 ZN,hourly; !- [J]
Output:Meter:Cumulative,InteriorEquipment:Electricity:Zone:WHOLEBUILDING-AUTOMOTIVE FACILITY 4 ZN,hourly; !- [J]
Output:Meter,InteriorEquipment:Electricity:Zone:WHOLEBUILDING-AUTOMOTIVE FACILITY 5 ZN,hourly; !- [J]
Output:Meter:Cumulative,InteriorEquipment:Electricity:Zone:WHOLEBUILDING-AUTOMOTIVE FACILITY 5 ZN,hourly; !- [J]
Output:Meter,InteriorEquipment:Electricity:Zone:WHOLEBUILDING-AUTOMOTIVE FACILITY 6 ZN,hourly; !- [J]
Output:Meter:Cumulative,InteriorEquipment:Electricity:Zone:WHOLEBUILDING-AUTOMOTIVE FACILITY 6 ZN,hourly; !- [J]
Output:Meter,InteriorEquipment:Electricity:Zone:WAREHOUSE - FINE-SPACE FUNCTION ZN,hourly; !- [J]
Output:Meter:Cumulative,InteriorEquipment:Electricity:Zone:WAREHOUSE - FINE-SPACE FUNCTION ZN,hourly; !- [J]
Output:Meter,InteriorEquipment:Electricity:Zone:WAREHOUSE - FINE - REFRIGERATED-SPACE FUNCTION ZN,hourly; !- [J]
Output:Meter:Cumulative,InteriorEquipment:Electricity:Zone:WAREHOUSE - FINE - REFRIGERATED-SPACE FUNCTION ZN,hourly; !- [J]
Output:Meter,InteriorEquipment:Electricity:Zone:WAREHOUSE - MED/BLK-SPACE FUNCTION ZN,hourly; !- [J]
Output:Meter:Cumulative,InteriorEquipment:Electricity:Zone:WAREHOUSE - MED/BLK-SPACE FUNCTION ZN,hourly; !- [J]
Output:Meter,InteriorEquipment:Electricity:Zone:WAREHOUSE - MED/BLK - REFRIGERATED-SPACE FUNCTION ZN,hourly; !- [J]
Output:Meter:Cumulative,InteriorEquipment:Electricity:Zone:WAREHOUSE - MED/BLK - REFRIGERATED-SPACE FUNCTION ZN,hourly; !- [J]
Output:Meter,InteriorEquipment:Electricity:Zone:WAREHOUSE - MED/BLK2-SPACE FUNCTION ZN,hourly; !- [J]
Output:Meter:Cumulative,InteriorEquipment:Electricity:Zone:WAREHOUSE - MED/BLK2-SPACE FUNCTION ZN,hourly; !- [J]
Output:Meter,InteriorEquipment:Electricity:Zone:WAREHOUSE - MED/BLK2 - REFRIGERATED-SPACE FUNCTION ZN,hourly; !- [J]
Output:Meter:Cumulative,InteriorEquipment:Electricity:Zone:WAREHOUSE - MED/BLK2 - REFRIGERATED-SPACE FUNCTION ZN,hourly; !- [J]
Output:Meter,InteriorEquipment:Electricity:Zone:WORKSHOP SPACE-SPACE FUNCTION ZN,hourly; !- [J]
Output:Meter:Cumulative,InteriorEquipment:Electricity:Zone:WORKSHOP SPACE-SPACE FUNCTION ZN,hourly; !- [J]
Output:Meter,InteriorEquipment:Electricity:Zone:WHOLEBUILDING-SPORTS ARENA ZN,hourly; !- [J]
Output:Meter:Cumulative,InteriorEquipment:Electricity:Zone:WHOLEBUILDING-SPORTS ARENA ZN,hourly; !- [J]
Output:Meter,InteriorEquipment:Electricity:Zone:WHOLEBUILDING-TOWN HALL ZN,hourly; !- [J]
Output:Meter:Cumulative,InteriorEquipment:Electricity:Zone:WHOLEBUILDING-TOWN HALL ZN,hourly; !- [J]
Output:Meter,InteriorEquipment:Electricity:Zone:WHOLEBUILDING-TRANSPORTATION ZN,hourly; !- [J]
Output:Meter:Cumulative,InteriorEquipment:Electricity:Zone:WHOLEBUILDING-TRANSPORTATION ZN,hourly; !- [J]
Output:Meter,InteriorEquipment:Electricity:Zone:WHOLEBUILDING-WAREHOUSE - REFRIGERATED ZN,hourly; !- [J]
Output:Meter:Cumulative,InteriorEquipment:Electricity:Zone:WHOLEBUILDING-WAREHOUSE - REFRIGERATED ZN,hourly; !- [J]
Output:Meter,InteriorEquipment:Electricity:Zone:WHOLEBUILDING-WAREHOUSE ZN,hourly; !- [J]
Output:Meter:Cumulative,InteriorEquipment:Electricity:Zone:WHOLEBUILDING-WAREHOUSE ZN,hourly; !- [J]
Output:Meter,InteriorEquipment:Electricity:Zone:WHOLEBUILDING-WORKSHOP ZN,hourly; !- [J]
Output:Meter:Cumulative,InteriorEquipment:Electricity:Zone:WHOLEBUILDING-WORKSHOP ZN,hourly; !- [J]
Output:Meter,EnergyTransfer:Facility,hourly; !- [J]
Output:Meter:Cumulative,EnergyTransfer:Facility,hourly; !- [J]
Output:Meter,EnergyTransfer:Building,hourly; !- [J]
Output:Meter:Cumulative,EnergyTransfer:Building,hourly; !- [J]
Output:Meter,EnergyTransfer:Zone:WAREHOUSE - FINE - REFRIGERATED-SPACE FUNCTION ZN,hourly; !- [J]
Output:Meter:Cumulative,EnergyTransfer:Zone:WAREHOUSE - FINE - REFRIGERATED-SPACE FUNCTION ZN,hourly; !- [J]
Output:Meter,Heating:EnergyTransfer,hourly; !- [J]
Output:Meter:Cumulative,Heating:EnergyTransfer,hourly; !- [J]
Output:Meter,Heating:EnergyTransfer:Zone:WAREHOUSE - FINE - REFRIGERATED-SPACE FUNCTION ZN,hourly; !- [J]
Output:Meter:Cumulative,Heating:EnergyTransfer:Zone:WAREHOUSE - FINE - REFRIGERATED-SPACE FUNCTION ZN,hourly; !- [J]
Output:Meter,Cooling:EnergyTransfer,hourly; !- [J]
Output:Meter:Cumulative,Cooling:EnergyTransfer,hourly; !- [J]
Output:Meter,Cooling:EnergyTransfer:Zone:WAREHOUSE - FINE - REFRIGERATED-SPACE FUNCTION ZN,hourly; !- [J]
Output:Meter:Cumulative,Cooling:EnergyTransfer:Zone:WAREHOUSE - FINE - REFRIGERATED-SPACE FUNCTION ZN,hourly; !- [J]
Output:Meter,EnergyTransfer:Zone:WAREHOUSE - FINE-SPACE FUNCTION ZN,hourly; !- [J]
Output:Meter:Cumulative,EnergyTransfer:Zone:WAREHOUSE - FINE-SPACE FUNCTION ZN,hourly; !- [J]
Output:Meter,Heating:EnergyTransfer:Zone:WAREHOUSE - FINE-SPACE FUNCTION ZN,hourly; !- [J]
Output:Meter:Cumulative,Heating:EnergyTransfer:Zone:WAREHOUSE - FINE-SPACE FUNCTION ZN,hourly; !- [J]
Output:Meter,Cooling:EnergyTransfer:Zone:WAREHOUSE - FINE-SPACE FUNCTION ZN,hourly; !- [J]
Output:Meter:Cumulative,Cooling:EnergyTransfer:Zone:WAREHOUSE - FINE-SPACE FUNCTION ZN,hourly; !- [J]
Output:Meter,EnergyTransfer:Zone:WAREHOUSE - MED/BLK - REFRIGERATED-SPACE FUNCTION ZN,hourly; !- [J]
Output:Meter:Cumulative,EnergyTransfer:Zone:WAREHOUSE - MED/BLK - REFRIGERATED-SPACE FUNCTION ZN,hourly; !- [J]
Output:Meter,Heating:EnergyTransfer:Zone:WAREHOUSE - MED/BLK - REFRIGERATED-SPACE FUNCTION ZN,hourly; !- [J]
Output:Meter:Cumulative,Heating:EnergyTransfer:Zone:WAREHOUSE - MED/BLK - REFRIGERATED-SPACE FUNCTION ZN,hourly; !- [J]
Output:Meter,Cooling:EnergyTransfer:Zone:WAREHOUSE - MED/BLK - REFRIGERATED-SPACE FUNCTION ZN,hourly; !- [J]
Output:Meter:Cumulative,Cooling:EnergyTransfer:Zone:WAREHOUSE - MED/BLK - REFRIGERATED-SPACE FUNCTION ZN,hourly; !- [J]
Output:Meter,EnergyTransfer:Zone:WAREHOUSE - MED/BLK-SPACE FUNCTION ZN,hourly; !- [J]
Output:Meter:Cumulative,EnergyTransfer:Zone:WAREHOUSE - MED/BLK-SPACE FUNCTION ZN,hourly; !- [J]
Output:Meter,Heating:EnergyTransfer:Zone:WAREHOUSE - MED/BLK-SPACE FUNCTION ZN,hourly; !- [J]
Output:Meter:Cumulative,Heating:EnergyTransfer:Zone:WAREHOUSE - MED/BLK-SPACE FUNCTION ZN,hourly; !- [J]
Output:Meter,Cooling:EnergyTransfer:Zone:WAREHOUSE - MED/BLK-SPACE FUNCTION ZN,hourly; !- [J]
Output:Meter:Cumulative,Cooling:EnergyTransfer:Zone:WAREHOUSE - MED/BLK-SPACE FUNCTION ZN,hourly; !- [J]
Output:Meter,EnergyTransfer:Zone:WAREHOUSE - MED/BLK2 - REFRIGERATED-SPACE FUNCTION ZN,hourly; !- [J]
Output:Meter:Cumulative,EnergyTransfer:Zone:WAREHOUSE - MED/BLK2 - REFRIGERATED-SPACE FUNCTION ZN,hourly; !- [J]
Output:Meter,Heating:EnergyTransfer:Zone:WAREHOUSE - MED/BLK2 - REFRIGERATED-SPACE FUNCTION ZN,hourly; !- [J]
Output:Meter:Cumulative,Heating:EnergyTransfer:Zone:WAREHOUSE - MED/BLK2 - REFRIGERATED-SPACE FUNCTION ZN,hourly; !- [J]
Output:Meter,Cooling:EnergyTransfer:Zone:WAREHOUSE - MED/BLK2 - REFRIGERATED-SPACE FUNCTION ZN,hourly; !- [J]
Output:Meter:Cumulative,Cooling:EnergyTransfer:Zone:WAREHOUSE - MED/BLK2 - REFRIGERATED-SPACE FUNCTION ZN,hourly; !- [J]
Output:Meter,EnergyTransfer:Zone:WAREHOUSE - MED/BLK2-SPACE FUNCTION ZN,hourly; !- [J]
Output:Meter:Cumulative,EnergyTransfer:Zone:WAREHOUSE - MED/BLK2-SPACE FUNCTION ZN,hourly; !- [J]
Output:Meter,Heating:EnergyTransfer:Zone:WAREHOUSE - MED/BLK2-SPACE FUNCTION ZN,hourly; !- [J]
Output:Meter:Cumulative,Heating:EnergyTransfer:Zone:WAREHOUSE - MED/BLK2-SPACE FUNCTION ZN,hourly; !- [J]
Output:Meter,Cooling:EnergyTransfer:Zone:WAREHOUSE - MED/BLK2-SPACE FUNCTION ZN,hourly; !- [J]
Output:Meter:Cumulative,Cooling:EnergyTransfer:Zone:WAREHOUSE - MED/BLK2-SPACE FUNCTION ZN,hourly; !- [J]
Output:Meter,EnergyTransfer:Zone:WHOLEBUILDING-AUTOMOTIVE FACILITY 1 ZN,hourly; !- [J]
Output:Meter:Cumulative,EnergyTransfer:Zone:WHOLEBUILDING-AUTOMOTIVE FACILITY 1 ZN,hourly; !- [J]
Output:Meter,Heating:EnergyTransfer:Zone:WHOLEBUILDING-AUTOMOTIVE FACILITY 1 ZN,hourly; !- [J]
Output:Meter:Cumulative,Heating:EnergyTransfer:Zone:WHOLEBUILDING-AUTOMOTIVE FACILITY 1 ZN,hourly; !- [J]
Output:Meter,Cooling:EnergyTransfer:Zone:WHOLEBUILDING-AUTOMOTIVE FACILITY 1 ZN,hourly; !- [J]
Output:Meter:Cumulative,Cooling:EnergyTransfer:Zone:WHOLEBUILDING-AUTOMOTIVE FACILITY 1 ZN,hourly; !- [J]
Output:Meter,EnergyTransfer:Zone:WHOLEBUILDING-AUTOMOTIVE FACILITY 2 ZN,hourly; !- [J]
Output:Meter:Cumulative,EnergyTransfer:Zone:WHOLEBUILDING-AUTOMOTIVE FACILITY 2 ZN,hourly; !- [J]
Output:Meter,Heating:EnergyTransfer:Zone:WHOLEBUILDING-AUTOMOTIVE FACILITY 2 ZN,hourly; !- [J]
Output:Meter:Cumulative,Heating:EnergyTransfer:Zone:WHOLEBUILDING-AUTOMOTIVE FACILITY 2 ZN,hourly; !- [J]
Output:Meter,Cooling:EnergyTransfer:Zone:WHOLEBUILDING-AUTOMOTIVE FACILITY 2 ZN,hourly; !- [J]
Output:Meter:Cumulative,Cooling:EnergyTransfer:Zone:WHOLEBUILDING-AUTOMOTIVE FACILITY 2 ZN,hourly; !- [J]
Output:Meter,EnergyTransfer:Zone:WHOLEBUILDING-AUTOMOTIVE FACILITY 3 ZN,hourly; !- [J]
Output:Meter:Cumulative,EnergyTransfer:Zone:WHOLEBUILDING-AUTOMOTIVE FACILITY 3 ZN,hourly; !- [J]
Output:Meter,Heating:EnergyTransfer:Zone:WHOLEBUILDING-AUTOMOTIVE FACILITY 3 ZN,hourly; !- [J]
Output:Meter:Cumulative,Heating:EnergyTransfer:Zone:WHOLEBUILDING-AUTOMOTIVE FACILITY 3 ZN,hourly; !- [J]
Output:Meter,Cooling:EnergyTransfer:Zone:WHOLEBUILDING-AUTOMOTIVE FACILITY 3 ZN,hourly; !- [J]
Output:Meter:Cumulative,Cooling:EnergyTransfer:Zone:WHOLEBUILDING-AUTOMOTIVE FACILITY 3 ZN,hourly; !- [J]
Output:Meter,EnergyTransfer:Zone:WHOLEBUILDING-AUTOMOTIVE FACILITY 4 ZN,hourly; !- [J]
Output:Meter:Cumulative,EnergyTransfer:Zone:WHOLEBUILDING-AUTOMOTIVE FACILITY 4 ZN,hourly; !- [J]
Output:Meter,Heating:EnergyTransfer:Zone:WHOLEBUILDING-AUTOMOTIVE FACILITY 4 ZN,hourly; !- [J]
Output:Meter:Cumulative,Heating:EnergyTransfer:Zone:WHOLEBUILDING-AUTOMOTIVE FACILITY 4 ZN,hourly; !- [J]
Output:Meter,Cooling:EnergyTransfer:Zone:WHOLEBUILDING-AUTOMOTIVE FACILITY 4 ZN,hourly; !- [J]
Output:Meter:Cumulative,Cooling:EnergyTransfer:Zone:WHOLEBUILDING-AUTOMOTIVE FACILITY 4 ZN,hourly; !- [J]
Output:Meter,EnergyTransfer:Zone:WHOLEBUILDING-AUTOMOTIVE FACILITY 5 ZN,hourly; !- [J]
Output:Meter:Cumulative,EnergyTransfer:Zone:WHOLEBUILDING-AUTOMOTIVE FACILITY 5 ZN,hourly; !- [J]
Output:Meter,Heating:EnergyTransfer:Zone:WHOLEBUILDING-AUTOMOTIVE FACILITY 5 ZN,hourly; !- [J]
Output:Meter:Cumulative,Heating:EnergyTransfer:Zone:WHOLEBUILDING-AUTOMOTIVE FACILITY 5 ZN,hourly; !- [J]
Output:Meter,Cooling:EnergyTransfer:Zone:WHOLEBUILDING-AUTOMOTIVE FACILITY 5 ZN,hourly; !- [J]
Output:Meter:Cumulative,Cooling:EnergyTransfer:Zone:WHOLEBUILDING-AUTOMOTIVE FACILITY 5 ZN,hourly; !- [J]
Output:Meter,EnergyTransfer:Zone:WHOLEBUILDING-AUTOMOTIVE FACILITY 6 ZN,hourly; !- [J]
Output:Meter:Cumulative,EnergyTransfer:Zone:WHOLEBUILDING-AUTOMOTIVE FACILITY 6 ZN,hourly; !- [J]
Output:Meter,Heating:EnergyTransfer:Zone:WHOLEBUILDING-AUTOMOTIVE FACILITY 6 ZN,hourly; !- [J]
Output:Meter:Cumulative,Heating:EnergyTransfer:Zone:WHOLEBUILDING-AUTOMOTIVE FACILITY 6 ZN,hourly; !- [J]
Output:Meter,Cooling:EnergyTransfer:Zone:WHOLEBUILDING-AUTOMOTIVE FACILITY 6 ZN,hourly; !- [J]
Output:Meter:Cumulative,Cooling:EnergyTransfer:Zone:WHOLEBUILDING-AUTOMOTIVE FACILITY 6 ZN,hourly; !- [J]
Output:Meter,EnergyTransfer:Zone:WHOLEBUILDING-AUTOMOTIVE FACILITY ZN,hourly; !- [J]
Output:Meter:Cumulative,EnergyTransfer:Zone:WHOLEBUILDING-AUTOMOTIVE FACILITY ZN,hourly; !- [J]
Output:Meter,Heating:EnergyTransfer:Zone:WHOLEBUILDING-AUTOMOTIVE FACILITY ZN,hourly; !- [J]
Output:Meter:Cumulative,Heating:EnergyTransfer:Zone:WHOLEBUILDING-AUTOMOTIVE FACILITY ZN,hourly; !- [J]
Output:Meter,Cooling:EnergyTransfer:Zone:WHOLEBUILDING-AUTOMOTIVE FACILITY ZN,hourly; !- [J]
Output:Meter:Cumulative,Cooling:EnergyTransfer:Zone:WHOLEBUILDING-AUTOMOTIVE FACILITY ZN,hourly; !- [J]
Output:Meter,EnergyTransfer:Zone:WHOLEBUILDING-SPORTS ARENA ZN,hourly; !- [J]
Output:Meter:Cumulative,EnergyTransfer:Zone:WHOLEBUILDING-SPORTS ARENA ZN,hourly; !- [J]
Output:Meter,Heating:EnergyTransfer:Zone:WHOLEBUILDING-SPORTS ARENA ZN,hourly; !- [J]
Output:Meter:Cumulative,Heating:EnergyTransfer:Zone:WHOLEBUILDING-SPORTS ARENA ZN,hourly; !- [J]
Output:Meter,Cooling:EnergyTransfer:Zone:WHOLEBUILDING-SPORTS ARENA ZN,hourly; !- [J]
Output:Meter:Cumulative,Cooling:EnergyTransfer:Zone:WHOLEBUILDING-SPORTS ARENA ZN,hourly; !- [J]
Output:Meter,EnergyTransfer:Zone:WHOLEBUILDING-TOWN HALL ZN,hourly; !- [J]
Output:Meter:Cumulative,EnergyTransfer:Zone:WHOLEBUILDING-TOWN HALL ZN,hourly; !- [J]
Output:Meter,Heating:EnergyTransfer:Zone:WHOLEBUILDING-TOWN HALL ZN,hourly; !- [J]
Output:Meter:Cumulative,Heating:EnergyTransfer:Zone:WHOLEBUILDING-TOWN HALL ZN,hourly; !- [J]
Output:Meter,Cooling:EnergyTransfer:Zone:WHOLEBUILDING-TOWN HALL ZN,hourly; !- [J]
Output:Meter:Cumulative,Cooling:EnergyTransfer:Zone:WHOLEBUILDING-TOWN HALL ZN,hourly; !- [J]
Output:Meter,EnergyTransfer:Zone:WHOLEBUILDING-TRANSPORTATION ZN,hourly; !- [J]
Output:Meter:Cumulative,EnergyTransfer:Zone:WHOLEBUILDING-TRANSPORTATION ZN,hourly; !- [J]
Output:Meter,Heating:EnergyTransfer:Zone:WHOLEBUILDING-TRANSPORTATION ZN,hourly; !- [J]
Output:Meter:Cumulative,Heating:EnergyTransfer:Zone:WHOLEBUILDING-TRANSPORTATION ZN,hourly; !- [J]
Output:Meter,Cooling:EnergyTransfer:Zone:WHOLEBUILDING-TRANSPORTATION ZN,hourly; !- [J]
Output:Meter:Cumulative,Cooling:EnergyTransfer:Zone:WHOLEBUILDING-TRANSPORTATION ZN,hourly; !- [J]
Output:Meter,EnergyTransfer:Zone:WHOLEBUILDING-WAREHOUSE - REFRIGERATED ZN,hourly; !- [J]
Output:Meter:Cumulative,EnergyTransfer:Zone:WHOLEBUILDING-WAREHOUSE - REFRIGERATED ZN,hourly; !- [J]
Output:Meter,Heating:EnergyTransfer:Zone:WHOLEBUILDING-WAREHOUSE - REFRIGERATED ZN,hourly; !- [J]
Output:Meter:Cumulative,Heating:EnergyTransfer:Zone:WHOLEBUILDING-WAREHOUSE - REFRIGERATED ZN,hourly; !- [J]
Output:Meter,Cooling:EnergyTransfer:Zone:WHOLEBUILDING-WAREHOUSE - REFRIGERATED ZN,hourly; !- [J]
Output:Meter:Cumulative,Cooling:EnergyTransfer:Zone:WHOLEBUILDING-WAREHOUSE - REFRIGERATED ZN,hourly; !- [J]
Output:Meter,EnergyTransfer:Zone:WHOLEBUILDING-WAREHOUSE ZN,hourly; !- [J]
Output:Meter:Cumulative,EnergyTransfer:Zone:WHOLEBUILDING-WAREHOUSE ZN,hourly; !- [J]
Output:Meter,Heating:EnergyTransfer:Zone:WHOLEBUILDING-WAREHOUSE ZN,hourly; !- [J]
Output:Meter:Cumulative,Heating:EnergyTransfer:Zone:WHOLEBUILDING-WAREHOUSE ZN,hourly; !- [J]
Output:Meter,Cooling:EnergyTransfer:Zone:WHOLEBUILDING-WAREHOUSE ZN,hourly; !- [J]
Output:Meter:Cumulative,Cooling:EnergyTransfer:Zone:WHOLEBUILDING-WAREHOUSE ZN,hourly; !- [J]
Output:Meter,EnergyTransfer:Zone:WHOLEBUILDING-WORKSHOP ZN,hourly; !- [J]
Output:Meter:Cumulative,EnergyTransfer:Zone:WHOLEBUILDING-WORKSHOP ZN,hourly; !- [J]
Output:Meter,Heating:EnergyTransfer:Zone:WHOLEBUILDING-WORKSHOP ZN,hourly; !- [J]
Output:Meter:Cumulative,Heating:EnergyTransfer:Zone:WHOLEBUILDING-WORKSHOP ZN,hourly; !- [J]
Output:Meter,Cooling:EnergyTransfer:Zone:WHOLEBUILDING-WORKSHOP ZN,hourly; !- [J]
Output:Meter:Cumulative,Cooling:EnergyTransfer:Zone:WHOLEBUILDING-WORKSHOP ZN,hourly; !- [J]
Output:Meter,EnergyTransfer:Zone:WORKSHOP SPACE-SPACE FUNCTION ZN,hourly; !- [J]
Output:Meter:Cumulative,EnergyTransfer:Zone:WORKSHOP SPACE-SPACE FUNCTION ZN,hourly; !- [J]
Output:Meter,Heating:EnergyTransfer:Zone:WORKSHOP SPACE-SPACE FUNCTION ZN,hourly; !- [J]
Output:Meter:Cumulative,Heating:EnergyTransfer:Zone:WORKSHOP SPACE-SPACE FUNCTION ZN,hourly; !- [J]
Output:Meter,Cooling:EnergyTransfer:Zone:WORKSHOP SPACE-SPACE FUNCTION ZN,hourly; !- [J]
Output:Meter:Cumulative,Cooling:EnergyTransfer:Zone:WORKSHOP SPACE-SPACE FUNCTION ZN,hourly; !- [J]
Output:Meter,ElectricityPurchased:Facility,hourly; !- [J]
Output:Meter:Cumulative,ElectricityPurchased:Facility,hourly; !- [J]
Output:Meter,ElectricityPurchased:Plant,hourly; !- [J]
Output:Meter:Cumulative,ElectricityPurchased:Plant,hourly; !- [J]
Output:Meter,Cogeneration:ElectricityPurchased,hourly; !- [J]
Output:Meter:Cumulative,Cogeneration:ElectricityPurchased,hourly; !- [J]
Output:Meter,ElectricitySurplusSold:Facility,hourly; !- [J]
Output:Meter:Cumulative,ElectricitySurplusSold:Facility,hourly; !- [J]
Output:Meter,ElectricitySurplusSold:Plant,hourly; !- [J]
Output:Meter:Cumulative,ElectricitySurplusSold:Plant,hourly; !- [J]
Output:Meter,Cogeneration:ElectricitySurplusSold,hourly; !- [J]
Output:Meter:Cumulative,Cogeneration:ElectricitySurplusSold,hourly; !- [J]
Output:Meter,ElectricityNet:Facility,hourly; !- [J]
Output:Meter:Cumulative,ElectricityNet:Facility,hourly; !- [J]
Output:Meter,ElectricityNet:Plant,hourly; !- [J]
Output:Meter:Cumulative,ElectricityNet:Plant,hourly; !- [J]
Output:Meter,Cogeneration:ElectricityNet,hourly; !- [J]
Output:Meter:Cumulative,Cogeneration:ElectricityNet,hourly; !- [J]
Output:Meter,DistrictHeating:Facility,hourly; !- [J]
Output:Meter:Cumulative,DistrictHeating:Facility,hourly; !- [J]
Output:Meter,DistrictHeating:HVAC,hourly; !- [J]
Output:Meter:Cumulative,DistrictHeating:HVAC,hourly; !- [J]
Output:Meter,Heating:DistrictHeating,hourly; !- [J]
Output:Meter:Cumulative,Heating:DistrictHeating,hourly; !- [J]
Output:Meter,DistrictCooling:Facility,hourly; !- [J]
Output:Meter:Cumulative,DistrictCooling:Facility,hourly; !- [J]
Output:Meter,DistrictCooling:HVAC,hourly; !- [J]
Output:Meter:Cumulative,DistrictCooling:HVAC,hourly; !- [J]
Output:Meter,Cooling:DistrictCooling,hourly; !- [J]
Output:Meter:Cumulative,Cooling:DistrictCooling,hourly; !- [J]
Output:Meter,Carbon Equivalent:Facility,hourly; !- [kg]
Output:Meter:Cumulative,Carbon Equivalent:Facility,hourly; !- [kg]
Output:Meter,CarbonEquivalentEmissions:Carbon Equivalent,hourly; !- [kg]
Output:Meter:Cumulative,CarbonEquivalentEmissions:Carbon Equivalent,hourly; !- [kg]
