Program Version,EnergyPlus, Version 8.9.0-eba93e8e1b, YMD=2019.03.21 16:01,
   ************* Beginning Zone Sizing Calculations
   ** Warning ** ProcessScheduleInput: Schedule:Day:Interval="ECONOMIZER MAX OA FRACTION 100 PCT DEFAULT", Blank Schedule Type Limits Name input -- will not be validated.
   ** Warning ** ProcessScheduleInput: Schedule:Day:Interval="SCHEDULE DAY 1", Blank Schedule Type Limits Name input -- will not be validated.
   ** Warning ** ProcessScheduleInput: Schedule:Day:Interval="SCHEDULE DAY 10", Blank Schedule Type Limits Name input -- will not be validated.
   ** Warning ** ProcessScheduleInput: Schedule:Day:Interval="SCHEDULE DAY 11", Blank Schedule Type Limits Name input -- will not be validated.
   ** Warning ** ProcessScheduleInput: Schedule:Day:Interval="SCHEDULE DAY 12", Blank Schedule Type Limits Name input -- will not be validated.
   ** Warning ** ProcessScheduleInput: Schedule:Day:Interval="SCHEDULE DAY 13", Blank Schedule Type Limits Name input -- will not be validated.
   ** Warning ** ProcessScheduleInput: Schedule:Day:Interval="SCHEDULE DAY 14", Blank Schedule Type Limits Name input -- will not be validated.
   ** Warning ** ProcessScheduleInput: Schedule:Day:Interval="SCHEDULE DAY 15", Blank Schedule Type Limits Name input -- will not be validated.
   ** Warning ** ProcessScheduleInput: Schedule:Day:Interval="SCHEDULE DAY 16", Blank Schedule Type Limits Name input -- will not be validated.
   ** Warning ** ProcessScheduleInput: Schedule:Day:Interval="SCHEDULE DAY 17", Blank Schedule Type Limits Name input -- will not be validated.
   ** Warning ** ProcessScheduleInput: Schedule:Day:Interval="SCHEDULE DAY 18", Blank Schedule Type Limits Name input -- will not be validated.
   ** Warning ** ProcessScheduleInput: Schedule:Day:Interval="SCHEDULE DAY 19", Blank Schedule Type Limits Name input -- will not be validated.
   ** Warning ** ProcessScheduleInput: Schedule:Day:Interval="SCHEDULE DAY 2", Blank Schedule Type Limits Name input -- will not be validated.
   ** Warning ** ProcessScheduleInput: Schedule:Day:Interval="SCHEDULE DAY 20", Blank Schedule Type Limits Name input -- will not be validated.
   ** Warning ** ProcessScheduleInput: Schedule:Day:Interval="SCHEDULE DAY 21", Blank Schedule Type Limits Name input -- will not be validated.
   ** Warning ** ProcessScheduleInput: Schedule:Day:Interval="SCHEDULE DAY 22", Blank Schedule Type Limits Name input -- will not be validated.
   ** Warning ** ProcessScheduleInput: Schedule:Day:Interval="SCHEDULE DAY 23", Blank Schedule Type Limits Name input -- will not be validated.
   ** Warning ** ProcessScheduleInput: Schedule:Day:Interval="SCHEDULE DAY 24", Blank Schedule Type Limits Name input -- will not be validated.
   ** Warning ** ProcessScheduleInput: Schedule:Day:Interval="SCHEDULE DAY 25", Blank Schedule Type Limits Name input -- will not be validated.
   ** Warning ** ProcessScheduleInput: Schedule:Day:Interval="SCHEDULE DAY 26", Blank Schedule Type Limits Name input -- will not be validated.
   ** Warning ** ProcessScheduleInput: Schedule:Day:Interval="SCHEDULE DAY 27", Blank Schedule Type Limits Name input -- will not be validated.
   ** Warning ** ProcessScheduleInput: Schedule:Day:Interval="SCHEDULE DAY 28", Blank Schedule Type Limits Name input -- will not be validated.
   ** Warning ** ProcessScheduleInput: Schedule:Day:Interval="SCHEDULE DAY 29", Blank Schedule Type Limits Name input -- will not be validated.
   ** Warning ** ProcessScheduleInput: Schedule:Day:Interval="SCHEDULE DAY 5", Blank Schedule Type Limits Name input -- will not be validated.
   ** Warning ** ProcessScheduleInput: Schedule:Day:Interval="SCHEDULE DAY 6", Blank Schedule Type Limits Name input -- will not be validated.
   ** Warning ** ProcessScheduleInput: Schedule:Day:Interval="SCHEDULE DAY 7", Blank Schedule Type Limits Name input -- will not be validated.
   ** Warning ** ProcessScheduleInput: Schedule:Day:Interval="SCHEDULE DAY 8", Blank Schedule Type Limits Name input -- will not be validated.
   ** Warning ** ProcessScheduleInput: Schedule:Day:Interval="SCHEDULE DAY 9", Blank Schedule Type Limits Name input -- will not be validated.
   ** Warning ** ProcessScheduleInput: Schedule:Year="ECONOMIZER MAX OA FRACTION 100 PCT", Blank Schedule Type Limits Name input -- will not be validated.
   ** Warning ** ProcessScheduleInput: Schedule:Year="SCHEDULE RULESET 10", Blank Schedule Type Limits Name input -- will not be validated.
   ** Warning ** ProcessScheduleInput: Schedule:Year="SCHEDULE RULESET 11", Blank Schedule Type Limits Name input -- will not be validated.
   ** Warning ** ProcessScheduleInput: Schedule:Year="SCHEDULE RULESET 12", Blank Schedule Type Limits Name input -- will not be validated.
   ** Warning ** ProcessScheduleInput: Schedule:Year="SCHEDULE RULESET 13", Blank Schedule Type Limits Name input -- will not be validated.
   ** Warning ** ProcessScheduleInput: Schedule:Year="SCHEDULE RULESET 14", Blank Schedule Type Limits Name input -- will not be validated.
   ** Warning ** ProcessScheduleInput: Schedule:Year="SCHEDULE RULESET 15", Blank Schedule Type Limits Name input -- will not be validated.
   ** Warning ** ProcessScheduleInput: Schedule:Year="SCHEDULE RULESET 16", Blank Schedule Type Limits Name input -- will not be validated.
   ** Warning ** ProcessScheduleInput: Schedule:Year="SCHEDULE RULESET 17", Blank Schedule Type Limits Name input -- will not be validated.
   ** Warning ** ProcessScheduleInput: Schedule:Year="SCHEDULE RULESET 3", Blank Schedule Type Limits Name input -- will not be validated.
   ** Warning ** ProcessScheduleInput: Schedule:Year="SCHEDULE RULESET 4", Blank Schedule Type Limits Name input -- will not be validated.
   ** Warning ** ProcessScheduleInput: Schedule:Year="SCHEDULE RULESET 5", Blank Schedule Type Limits Name input -- will not be validated.
   ** Warning ** ProcessScheduleInput: Schedule:Year="SCHEDULE RULESET 6", Blank Schedule Type Limits Name input -- will not be validated.
   ** Warning ** ProcessScheduleInput: Schedule:Year="SCHEDULE RULESET 7", Blank Schedule Type Limits Name input -- will not be validated.
   ** Warning ** ProcessScheduleInput: Schedule:Year="SCHEDULE RULESET 8", Blank Schedule Type Limits Name input -- will not be validated.
   ** Warning ** ProcessScheduleInput: Schedule:Year="SCHEDULE RULESET 9", Blank Schedule Type Limits Name input -- will not be validated.
   ** Warning ** ProcessScheduleInput: Schedule:Constant="ALWAYS OFF DISCRETE", Blank Schedule Type Limits Name input -- will not be validated.
   ** Warning ** ProcessScheduleInput: Schedule:Constant="ALWAYS ON CONTINUOUS", Blank Schedule Type Limits Name input -- will not be validated.
   ** Warning ** CheckUsedConstructions: There are 32 nominally unused constructions in input.
   **   ~~~   ** For explicit details on each unused construction, use Output:Diagnostics,DisplayExtraWarnings;
   ** Warning ** GetInternalHeatGains: People Combination of ZoneList and Object Name generate a name too long.
   **   ~~~   ** Object Name="SPACE FUNCTION SPORTS ARENA PLAYING AREA CLASS I FACILITY(4) PEOPLE".
   **   ~~~   ** ZoneList/Zone Name="SP-SPORTS ARENA PLAYING AREA CLASS I FACILITY(4)-SPACE FUNCTION SYS-3 FLR-1 SCH-B HPLCMT-CORE ZN".
   **   ~~~   ** Item length=[163] > Maximum Length=[100]. You may need to shorten the names.
   **   ~~~   ** Shortening the Object Name by [64] characters will assure uniqueness for this ZoneList.
   **   ~~~   ** name that will be used (may be needed in reporting)="SP-SPORTS ARENA PLAYING AREA CLASS I FACILITY(4)-SPACE FUNCTION SYS-3 FLR-1 SCH-B HPLCMT-CORE ZN SPACE FUNCTION SPORTS ARENA PLAYING AREA CLASS I FACILITY(4) PEOPLE".
   ** Warning ** GetInternalHeatGains: People Combination of ZoneList and Object Name generate a name too long.
   **   ~~~   ** Object Name="SPACE FUNCTION SPORTS ARENA PLAYING AREA CLASS II FACILITY(4) PEOPLE".
   **   ~~~   ** ZoneList/Zone Name="SP-SPORTS ARENA PLAYING AREA CLASS II FACILITY(4)-SPACE FUNCTION SYS-3 FLR-1 SCH-B HPLCMT-EAST ZN".
   **   ~~~   ** Item length=[165] > Maximum Length=[100]. You may need to shorten the names.
   **   ~~~   ** Shortening the Object Name by [66] characters will assure uniqueness for this ZoneList.
   **   ~~~   ** name that will be used (may be needed in reporting)="SP-SPORTS ARENA PLAYING AREA CLASS II FACILITY(4)-SPACE FUNCTION SYS-3 FLR-1 SCH-B HPLCMT-EAST ZN SPACE FUNCTION SPORTS ARENA PLAYING AREA CLASS II FACILITY(4) PEOPLE".
   ** Warning ** GetInternalHeatGains: People Combination of ZoneList and Object Name generate a name too long.
   **   ~~~   ** Object Name="SPACE FUNCTION SPORTS ARENA PLAYING AREA CLASS III FACILITY(4) PEOPLE".
   **   ~~~   ** ZoneList/Zone Name="SP-SPORTS ARENA PLAYING AREA CLASS III FACILITY(4)-SPACE FUNCTION SYS-3 FLR-1 SCH-B HPLCMT-NORTH ZN".
   **   ~~~   ** Item length=[168] > Maximum Length=[100]. You may need to shorten the names.
   **   ~~~   ** Shortening the Object Name by [69] characters will assure uniqueness for this ZoneList.
   **   ~~~   ** name that will be used (may be needed in reporting)="SP-SPORTS ARENA PLAYING AREA CLASS III FACILITY(4)-SPACE FUNCTION SYS-3 FLR-1 SCH-B HPLCMT-NORTH ZN SPACE FUNCTION SPORTS ARENA PLAYING AREA CLASS III FACILITY(4) PEOPLE".
   ** Warning ** GetInternalHeatGains: People Combination of ZoneList and Object Name generate a name too long.
   **   ~~~   ** Object Name="SPACE FUNCTION TRANSPORTATION FACILITY BAGGAGE/CAROUSEL AREA PEOPLE".
   **   ~~~   ** ZoneList/Zone Name="SP-TRANSPORTATION FACILITY BAGGAGE/CAROUSEL AREA-SPACE FUNCTION SYS-3 FLR-1 SCH-H HPLCMT-SOUTH ZN".
   **   ~~~   ** Item length=[164] > Maximum Length=[100]. You may need to shorten the names.
   **   ~~~   ** Shortening the Object Name by [65] characters will assure uniqueness for this ZoneList.
   **   ~~~   ** name that will be used (may be needed in reporting)="SP-TRANSPORTATION FACILITY BAGGAGE/CAROUSEL AREA-SPACE FUNCTION SYS-3 FLR-1 SCH-H HPLCMT-SOUTH ZN SPACE FUNCTION TRANSPORTATION FACILITY BAGGAGE/CAROUSEL AREA PEOPLE".
   ** Warning ** GetInternalHeatGains: People Combination of ZoneList and Object Name generate a name too long.
   **   ~~~   ** Object Name="SPACE FUNCTION TRANSPORTATION FACILITY TERMINAL TICKET COUNTER PEOPLE".
   **   ~~~   ** ZoneList/Zone Name="SP-TRANSPORTATION FACILITY TERMINAL TICKET COUNTER-SPACE FUNCTION SYS-3 FLR-1 SCH-H HPLCMT-WEST ZN".
   **   ~~~   ** Item length=[167] > Maximum Length=[100]. You may need to shorten the names.
   **   ~~~   ** Shortening the Object Name by [68] characters will assure uniqueness for this ZoneList.
   **   ~~~   ** name that will be used (may be needed in reporting)="SP-TRANSPORTATION FACILITY TERMINAL TICKET COUNTER-SPACE FUNCTION SYS-3 FLR-1 SCH-H HPLCMT-WEST ZN SPACE FUNCTION TRANSPORTATION FACILITY TERMINAL TICKET COUNTER PEOPLE".
   ** Warning ** GetInternalHeatGains: Lights Combination of ZoneList and Object Name generate a name too long.
   **   ~~~   ** Object Name="SPACE FUNCTION SPORTS ARENA PLAYING AREA CLASS I FACILITY(4) LIGHTS".
   **   ~~~   ** ZoneList/Zone Name="SP-SPORTS ARENA PLAYING AREA CLASS I FACILITY(4)-SPACE FUNCTION SYS-3 FLR-1 SCH-B HPLCMT-CORE ZN".
   **   ~~~   ** Item length=[163] > Maximum Length=[100]. You may need to shorten the names.
   **   ~~~   ** Shortening the Object Name by [64] characters will assure uniqueness for this ZoneList.
   **   ~~~   ** name that will be used (may be needed in reporting)="SP-SPORTS ARENA PLAYING AREA CLASS I FACILITY(4)-SPACE FUNCTION SYS-3 FLR-1 SCH-B HPLCMT-CORE ZN SPACE FUNCTION SPORTS ARENA PLAYING AREA CLASS I FACILITY(4) LIGHTS".
   ** Warning ** GetInternalHeatGains: Lights Combination of ZoneList and Object Name generate a name too long.
   **   ~~~   ** Object Name="SPACE FUNCTION SPORTS ARENA PLAYING AREA CLASS II FACILITY(4) LIGHTS".
   **   ~~~   ** ZoneList/Zone Name="SP-SPORTS ARENA PLAYING AREA CLASS II FACILITY(4)-SPACE FUNCTION SYS-3 FLR-1 SCH-B HPLCMT-EAST ZN".
   **   ~~~   ** Item length=[165] > Maximum Length=[100]. You may need to shorten the names.
   **   ~~~   ** Shortening the Object Name by [66] characters will assure uniqueness for this ZoneList.
   **   ~~~   ** name that will be used (may be needed in reporting)="SP-SPORTS ARENA PLAYING AREA CLASS II FACILITY(4)-SPACE FUNCTION SYS-3 FLR-1 SCH-B HPLCMT-EAST ZN SPACE FUNCTION SPORTS ARENA PLAYING AREA CLASS II FACILITY(4) LIGHTS".
   ** Warning ** GetInternalHeatGains: Lights Combination of ZoneList and Object Name generate a name too long.
   **   ~~~   ** Object Name="SPACE FUNCTION SPORTS ARENA PLAYING AREA CLASS III FACILITY(4) LIGHTS".
   **   ~~~   ** ZoneList/Zone Name="SP-SPORTS ARENA PLAYING AREA CLASS III FACILITY(4)-SPACE FUNCTION SYS-3 FLR-1 SCH-B HPLCMT-NORTH ZN".
   **   ~~~   ** Item length=[168] > Maximum Length=[100]. You may need to shorten the names.
   **   ~~~   ** Shortening the Object Name by [69] characters will assure uniqueness for this ZoneList.
   **   ~~~   ** name that will be used (may be needed in reporting)="SP-SPORTS ARENA PLAYING AREA CLASS III FACILITY(4)-SPACE FUNCTION SYS-3 FLR-1 SCH-B HPLCMT-NORTH ZN SPACE FUNCTION SPORTS ARENA PLAYING AREA CLASS III FACILITY(4) LIGHTS".
   ** Warning ** GetInternalHeatGains: Lights Combination of ZoneList and Object Name generate a name too long.
   **   ~~~   ** Object Name="SPACE FUNCTION TRANSPORTATION FACILITY BAGGAGE/CAROUSEL AREA LIGHTS".
   **   ~~~   ** ZoneList/Zone Name="SP-TRANSPORTATION FACILITY BAGGAGE/CAROUSEL AREA-SPACE FUNCTION SYS-3 FLR-1 SCH-H HPLCMT-SOUTH ZN".
   **   ~~~   ** Item length=[164] > Maximum Length=[100]. You may need to shorten the names.
   **   ~~~   ** Shortening the Object Name by [65] characters will assure uniqueness for this ZoneList.
   **   ~~~   ** name that will be used (may be needed in reporting)="SP-TRANSPORTATION FACILITY BAGGAGE/CAROUSEL AREA-SPACE FUNCTION SYS-3 FLR-1 SCH-H HPLCMT-SOUTH ZN SPACE FUNCTION TRANSPORTATION FACILITY BAGGAGE/CAROUSEL AREA LIGHTS".
   ** Warning ** GetInternalHeatGains: Lights Combination of ZoneList and Object Name generate a name too long.
   **   ~~~   ** Object Name="SPACE FUNCTION TRANSPORTATION FACILITY TERMINAL TICKET COUNTER LIGHTS".
   **   ~~~   ** ZoneList/Zone Name="SP-TRANSPORTATION FACILITY TERMINAL TICKET COUNTER-SPACE FUNCTION SYS-3 FLR-1 SCH-H HPLCMT-WEST ZN".
   **   ~~~   ** Item length=[167] > Maximum Length=[100]. You may need to shorten the names.
   **   ~~~   ** Shortening the Object Name by [68] characters will assure uniqueness for this ZoneList.
   **   ~~~   ** name that will be used (may be needed in reporting)="SP-TRANSPORTATION FACILITY TERMINAL TICKET COUNTER-SPACE FUNCTION SYS-3 FLR-1 SCH-H HPLCMT-WEST ZN SPACE FUNCTION TRANSPORTATION FACILITY TERMINAL TICKET COUNTER LIGHTS".
   ** Warning ** GetInternalHeatGains: ElectricEquipment Combination of ZoneList and Object Name generate a name too long.
   **   ~~~   ** Object Name="SPACE FUNCTION SPORTS ARENA PLAYING AREA CLASS I FACILITY(4) ELEC EQUIP".
   **   ~~~   ** ZoneList/Zone Name="SP-SPORTS ARENA PLAYING AREA CLASS I FACILITY(4)-SPACE FUNCTION SYS-3 FLR-1 SCH-B HPLCMT-CORE ZN".
   **   ~~~   ** Item length=[167] > Maximum Length=[100]. You may need to shorten the names.
   **   ~~~   ** Shortening the Object Name by [68] characters will assure uniqueness for this ZoneList.
   **   ~~~   ** name that will be used (may be needed in reporting)="SP-SPORTS ARENA PLAYING AREA CLASS I FACILITY(4)-SPACE FUNCTION SYS-3 FLR-1 SCH-B HPLCMT-CORE ZN SPACE FUNCTION SPORTS ARENA PLAYING AREA CLASS I FACILITY(4) ELEC EQUIP".
   ** Warning ** GetInternalHeatGains: ElectricEquipment Combination of ZoneList and Object Name generate a name too long.
   **   ~~~   ** Object Name="SPACE FUNCTION SPORTS ARENA PLAYING AREA CLASS II FACILITY(4) ELEC EQUIP".
   **   ~~~   ** ZoneList/Zone Name="SP-SPORTS ARENA PLAYING AREA CLASS II FACILITY(4)-SPACE FUNCTION SYS-3 FLR-1 SCH-B HPLCMT-EAST ZN".
   **   ~~~   ** Item length=[169] > Maximum Length=[100]. You may need to shorten the names.
   **   ~~~   ** Shortening the Object Name by [70] characters will assure uniqueness for this ZoneList.
   **   ~~~   ** name that will be used (may be needed in reporting)="SP-SPORTS ARENA PLAYING AREA CLASS II FACILITY(4)-SPACE FUNCTION SYS-3 FLR-1 SCH-B HPLCMT-EAST ZN SPACE FUNCTION SPORTS ARENA PLAYING AREA CLASS II FACILITY(4) ELEC EQUIP".
   ** Warning ** GetInternalHeatGains: ElectricEquipment Combination of ZoneList and Object Name generate a name too long.
   **   ~~~   ** Object Name="SPACE FUNCTION SPORTS ARENA PLAYING AREA CLASS III FACILITY(4) ELEC EQUIP".
   **   ~~~   ** ZoneList/Zone Name="SP-SPORTS ARENA PLAYING AREA CLASS III FACILITY(4)-SPACE FUNCTION SYS-3 FLR-1 SCH-B HPLCMT-NORTH ZN".
   **   ~~~   ** Item length=[172] > Maximum Length=[100]. You may need to shorten the names.
   **   ~~~   ** Shortening the Object Name by [73] characters will assure uniqueness for this ZoneList.
   **   ~~~   ** name that will be used (may be needed in reporting)="SP-SPORTS ARENA PLAYING AREA CLASS III FACILITY(4)-SPACE FUNCTION SYS-3 FLR-1 SCH-B HPLCMT-NORTH ZN SPACE FUNCTION SPORTS ARENA PLAYING AREA CLASS III FACILITY(4) ELEC EQUIP".
   ** Warning ** GetInternalHeatGains: ElectricEquipment Combination of ZoneList and Object Name generate a name too long.
   **   ~~~   ** Object Name="SPACE FUNCTION TRANSPORTATION FACILITY BAGGAGE/CAROUSEL AREA ELEC EQUIP".
   **   ~~~   ** ZoneList/Zone Name="SP-TRANSPORTATION FACILITY BAGGAGE/CAROUSEL AREA-SPACE FUNCTION SYS-3 FLR-1 SCH-H HPLCMT-SOUTH ZN".
   **   ~~~   ** Item length=[168] > Maximum Length=[100]. You may need to shorten the names.
   **   ~~~   ** Shortening the Object Name by [69] characters will assure uniqueness for this ZoneList.
   **   ~~~   ** name that will be used (may be needed in reporting)="SP-TRANSPORTATION FACILITY BAGGAGE/CAROUSEL AREA-SPACE FUNCTION SYS-3 FLR-1 SCH-H HPLCMT-SOUTH ZN SPACE FUNCTION TRANSPORTATION FACILITY BAGGAGE/CAROUSEL AREA ELEC EQUIP".
   ** Warning ** GetInternalHeatGains: ElectricEquipment Combination of ZoneList and Object Name generate a name too long.
   **   ~~~   ** Object Name="SPACE FUNCTION TRANSPORTATION FACILITY TERMINAL TICKET COUNTER ELEC EQUIP".
   **   ~~~   ** ZoneList/Zone Name="SP-TRANSPORTATION FACILITY TERMINAL TICKET COUNTER-SPACE FUNCTION SYS-3 FLR-1 SCH-H HPLCMT-WEST ZN".
   **   ~~~   ** Item length=[171] > Maximum Length=[100]. You may need to shorten the names.
   **   ~~~   ** Shortening the Object Name by [72] characters will assure uniqueness for this ZoneList.
   **   ~~~   ** name that will be used (may be needed in reporting)="SP-TRANSPORTATION FACILITY TERMINAL TICKET COUNTER-SPACE FUNCTION SYS-3 FLR-1 SCH-H HPLCMT-WEST ZN SPACE FUNCTION TRANSPORTATION FACILITY TERMINAL TICKET COUNTER ELEC EQUIP".
   ** Warning ** Calculated design heating load for zone=SP-SPORTS ARENA PLAYING AREA CLASS I FACILITY(4)-SPACE FUNCTION SYS-3 FLR-1 SCH-B HPLCMT-CORE ZN is zero.
   **   ~~~   ** Check Sizing:Zone and ZoneControl:Thermostat inputs.
   ** Warning ** Calculated design heating load for zone=SP-SPORTS ARENA PLAYING AREA CLASS II FACILITY(4)-SPACE FUNCTION SYS-3 FLR-1 SCH-B HPLCMT-EAST ZN is zero.
   **   ~~~   ** Check Sizing:Zone and ZoneControl:Thermostat inputs.
   ** Warning ** Calculated design heating load for zone=SP-SPORTS ARENA PLAYING AREA CLASS III FACILITY(4)-SPACE FUNCTION SYS-3 FLR-1 SCH-B HPLCMT-NORTH ZN is zero.
   **   ~~~   ** Check Sizing:Zone and ZoneControl:Thermostat inputs.
   ** Warning ** Calculated design heating load for zone=SP-TRANSPORTATION FACILITY BAGGAGE/CAROUSEL AREA-SPACE FUNCTION SYS-3 FLR-1 SCH-H HPLCMT-SOUTH ZN is zero.
   **   ~~~   ** Check Sizing:Zone and ZoneControl:Thermostat inputs.
   ** Warning ** Calculated design heating load for zone=SP-TRANSPORTATION FACILITY TERMINAL TICKET COUNTER-SPACE FUNCTION SYS-3 FLR-1 SCH-H HPLCMT-WEST ZN is zero.
   **   ~~~   ** Check Sizing:Zone and ZoneControl:Thermostat inputs.
   ************* Beginning System Sizing Calculations
   ************* Beginning Plant Sizing Calculations
   ** Warning ** GetDXCoils: Coil:Cooling:DX:SingleSpeed="COIL COOLING DX SINGLE SPEED 3 493KBTU/HR 8.21EER", invalid
   **   ~~~   ** ...Part Load Fraction Correlation Curve Name = DXCOOL-NECB2011-REF-COOLPLFFPLR has out of range value.
   **   ~~~   ** ...Curve maximum must be <= 1.0, curve max at PLR = 0.99 is 1.015
   **   ~~~   ** ...Setting curve maximum to 1.0 and simulation continues.
   ** Warning ** The Standard Ratings is calculated for Coil:Cooling:DX:SingleSpeed = COIL COOLING DX SINGLE SPEED 3 493KBTU/HR 8.21EER but not at the AHRI test condition due to curve out of bound.
   **   ~~~   **  Review the Standard Ratings calculations in the Engineering Reference for this coil type. Also, use Output:Diagnostics, DisplayExtraWarnings for further guidance.
   ** Warning ** The Standard Ratings is calculated for Coil:Cooling:DX:SingleSpeed = COIL COOLING DX SINGLE SPEED 2 283KBTU/HR 8.21EER but not at the AHRI test condition due to curve out of bound.
   **   ~~~   **  Review the Standard Ratings calculations in the Engineering Reference for this coil type. Also, use Output:Diagnostics, DisplayExtraWarnings for further guidance.
   ** Warning ** The Standard Ratings is calculated for Coil:Cooling:DX:SingleSpeed = COIL COOLING DX SINGLE SPEED 1 241KBTU/HR 8.21EER but not at the AHRI test condition due to curve out of bound.
   **   ~~~   **  Review the Standard Ratings calculations in the Engineering Reference for this coil type. Also, use Output:Diagnostics, DisplayExtraWarnings for further guidance.
   ** Warning ** The Standard Ratings is calculated for Coil:Cooling:DX:SingleSpeed = COIL COOLING DX SINGLE SPEED 5 93KBTU/HR 9.26EER but not at the AHRI test condition due to curve out of bound.
   **   ~~~   **  Review the Standard Ratings calculations in the Engineering Reference for this coil type. Also, use Output:Diagnostics, DisplayExtraWarnings for further guidance.
   ** Warning ** The Standard Ratings is calculated for Coil:Cooling:DX:SingleSpeed = COIL COOLING DX SINGLE SPEED 4 123KBTU/HR 9.26EER but not at the AHRI test condition due to curve out of bound.
   **   ~~~   **  Review the Standard Ratings calculations in the Engineering Reference for this coil type. Also, use Output:Diagnostics, DisplayExtraWarnings for further guidance.
   ** Severe  ** GetBoilerInput: Boiler:HotWater="PRIMARY BOILER",
   **   ~~~   ** Invalid Nominal Capacity=0.00
   **   ~~~   ** ...Nominal Capacity must be greater than 0.0
   **  Fatal  ** GetBoilerInput: Errors found in processing Boiler:HotWater input.
   ...Summary of Errors that led to program termination:
   ..... Reference severe error count=1
   ..... Last severe error=GetBoilerInput: Boiler:HotWater="PRIMARY BOILER",
   ************* Warning:  Node connection errors not checked - most system input has not been read (see previous warning).
   ************* Fatal error -- final processing.  Program exited before simulations began.  See previous error messages.
   *************
   ************* ===== Final Error Summary =====
   ************* The following error categories occurred.  Consider correcting or noting.
   ************* Nominally Unused Constructions
   ************* ..The nominally unused constructions warning is provided to alert you to potential conditions that can cause
   ************* ..extra time during simulation. Each construction is calculated by the algorithm indicated in the HeatBalanceAlgorithm
   ************* ..object. You may remove the constructions indicated (when you use the DisplayExtraWarnings option).
   *************
   ************* EnergyPlus Warmup Error Summary. During Warmup: 0 Warning; 0 Severe Errors.
   ************* EnergyPlus Sizing Error Summary. During Sizing: 67 Warning; 0 Severe Errors.
   ************* EnergyPlus Terminated--Fatal Error Detected. 73 Warning; 1 Severe Errors; Elapsed Time=00hr 00min  0.81sec
