Program Version,EnergyPlus, Version 8.9.0-eba93e8e1b, YMD=2019.03.20 20:07
! <Version>, Version ID
 Version, 8.9
! <Timesteps per Hour>, #TimeSteps, Minutes per TimeStep {minutes}
 Timesteps per Hour,  6, 10
! <System Convergence Limits>, Minimum System TimeStep {minutes}, Max HVAC Iterations, Minimum Plant Iterations, Maximum Plant Iterations
 System Convergence Limits, 1, 20, 2, 8
! <Simulation Control>, Do Zone Sizing, Do System Sizing, Do Plant Sizing, Do Design Days, Do Weather Simulation, Do HVAC Sizing Simulation
 Simulation Control, Yes, Yes, Yes, Yes, No, No
! <Output Reporting Tolerances>, Tolerance for Time Heating Setpoint Not Met, Tolerance for Zone Cooling Setpoint Not Met Time
 Output Reporting Tolerances, 1.000, 1.000, 
! <Site:GroundTemperature:BuildingSurface>,Jan{C},Feb{C},Mar{C},Apr{C},May{C},Jun{C},Jul{C},Aug{C},Sep{C},Oct{C},Nov{C},Dec{C}
 Site:GroundTemperature:BuildingSurface,  19.53,  19.50,  19.54,  19.60,  20.00,  21.64,  22.23,  22.38,  21.45,  20.12,  19.80,  19.63
! <Site:GroundTemperature:FCfactorMethod>,Jan{C},Feb{C},Mar{C},Apr{C},May{C},Jun{C},Jul{C},Aug{C},Sep{C},Oct{C},Nov{C},Dec{C}
 Site:GroundTemperature:FCfactorMethod, -12.27, -13.66, -11.19,  -7.33,   2.77,  10.57,  15.83,  17.43,  14.70,   8.65,   0.56,  -6.95
! <Site:GroundTemperature:Shallow>,Jan{C},Feb{C},Mar{C},Apr{C},May{C},Jun{C},Jul{C},Aug{C},Sep{C},Oct{C},Nov{C},Dec{C}
 Site:GroundTemperature:Shallow,  13.00,  13.00,  13.00,  13.00,  13.00,  13.00,  13.00,  13.00,  13.00,  13.00,  13.00,  13.00
! <Site:GroundTemperature:Deep>,Jan{C},Feb{C},Mar{C},Apr{C},May{C},Jun{C},Jul{C},Aug{C},Sep{C},Oct{C},Nov{C},Dec{C}
 Site:GroundTemperature:Deep,  16.00,  16.00,  16.00,  16.00,  16.00,  16.00,  16.00,  16.00,  16.00,  16.00,  16.00,  16.00
! <Site:GroundReflectance>,Jan{dimensionless},Feb{dimensionless},Mar{dimensionless},Apr{dimensionless},May{dimensionless},Jun{dimensionless},Jul{dimensionless},Aug{dimensionless},Sep{dimensionless},Oct{dimensionless},Nov{dimensionless},Dec{dimensionless}
 Site:GroundReflectance,  0.20,  0.20,  0.20,  0.20,  0.20,  0.20,  0.20,  0.20,  0.20,  0.20,  0.20,  0.20
! <Site:GroundReflectance:SnowModifier>, Normal, Daylighting {dimensionless}
 Site:GroundReflectance:SnowModifier,   1.000,   1.000
! <Site:GroundReflectance:Snow>,Jan{dimensionless},Feb{dimensionless},Mar{dimensionless},Apr{dimensionless},May{dimensionless},Jun{dimensionless},Jul{dimensionless},Aug{dimensionless},Sep{dimensionless},Oct{dimensionless},Nov{dimensionless},Dec{dimensionless}
 Site:GroundReflectance:Snow,  0.20,  0.20,  0.20,  0.20,  0.20,  0.20,  0.20,  0.20,  0.20,  0.20,  0.20,  0.20
! <Site:GroundReflectance:Snow:Daylighting>,Jan{dimensionless},Feb{dimensionless},Mar{dimensionless},Apr{dimensionless},May{dimensionless},Jun{dimensionless},Jul{dimensionless},Aug{dimensionless},Sep{dimensionless},Oct{dimensionless},Nov{dimensionless},Dec{dimensionless}
 Site:GroundReflectance:Snow:Daylighting,  0.20,  0.20,  0.20,  0.20,  0.20,  0.20,  0.20,  0.20,  0.20,  0.20,  0.20,  0.20
! <Environment:Weather Station>,Wind Sensor Height Above Ground {m},Wind Speed Profile Exponent {},Wind Speed Profile Boundary Layer Thickness {m},Air Temperature Sensor Height Above Ground {m},Wind Speed Modifier Coefficient-Internal,Temperature Modifier Coefficient-Internal
Environment:Weather Station,10.000,0.140,270.000,1.500,1.586,9.750E-003
! <Site:Location>, Location Name, Latitude {N+/S- Deg}, Longitude {E+/W- Deg},  Time Zone Number {GMT+/-}, Elevation {m},  Standard Pressure at Elevation {Pa}, Standard RhoAir at Elevation
Site:Location,Fort McMurray AP AB CAN CWEC2016 WMO#=716890,56.65,-111.22,-7.00,369.10,96969,1.1525
! <Building Information>, Building Name,North Axis {deg},Terrain,  Loads Convergence Tolerance Value,Temperature Convergence Tolerance Value,  Solar Distribution,Maximum Number of Warmup Days,Minimum Number of Warmup Days
 Building Information,Building 1,0.000,Suburbs,4.00000E-002,0.40000,FullExterior,25,6
! <Inside Convection Algorithm>, Algorithm {Simple | TARP | CeilingDiffuser | AdaptiveConvectionAlgorithm}
Inside Convection Algorithm,TARP
! <Outside Convection Algorithm>, Algorithm {SimpleCombined | TARP | MoWitt | DOE-2 | AdaptiveConvectionAlgorithm}
Outside Convection Algorithm,TARP
! <Sky Radiance Distribution>, Value {Anisotropic}
Sky Radiance Distribution,Anisotropic
! <Zone Air Solution Algorithm>, Value {ThirdOrderBackwardDifference | AnalyticalSolution | EulerMethod}
 Zone Air Solution Algorithm, ThirdOrderBackwardDifference
! <Zone Air Carbon Dioxide Balance Simulation>, Simulation {Yes/No}, Carbon Dioxide Concentration
 Zone Air Carbon Dioxide Balance Simulation, No,N/A
! <Zone Air Generic Contaminant Balance Simulation>, Simulation {Yes/No}, Generic Contaminant Concentration
 Zone Air Generic Contaminant Balance Simulation, No,N/A
! <Zone Air Mass Flow Balance Simulation>, Enforce Mass Balance, Adjust Zone Mixing, Adjust Zone Infiltration {AddInfiltration | AdjustInfiltration | None}, Infiltration Zones {MixingSourceZonesOnly | AllZones}
 Zone Air Mass Flow Balance Simulation, No,N/A,N/A,N/A
! <HVACSystemRootFindingAlgorithm>, Value {RegulaFalsi | Bisection | BisectionThenRegulaFalsi | RegulaFalsiThenBisection}
 HVACSystemRootFindingAlgorithm, RegulaFalsi
! <Environment:Site Atmospheric Variation>,Wind Speed Profile Exponent {},Wind Speed Profile Boundary Layer Thickness {m},Air Temperature Gradient Coefficient {K/m}
Environment:Site Atmospheric Variation,0.220,370.000,6.500000E-003
! <Surface Geometry>,Starting Corner,Vertex Input Direction,Coordinate System,Daylight Reference Point Coordinate System,Rectangular (Simple) Surface Coordinate System
 Surface Geometry,UpperLeftCorner,Counterclockwise,RelativeCoordinateSystem,RelativeCoordinateSystem,RelativeToZoneOrigin
! <Surface Heat Transfer Algorithm>, Value {CTF - ConductionTransferFunction | EMPD - MoisturePenetrationDepthConductionTransferFunction | CondFD - ConductionFiniteDifference | HAMT - CombinedHeatAndMoistureFiniteElement} - Description,Inside Surface Max Temperature Limit{C}, Surface Convection Coefficient Lower Limit {W/m2-K}, Surface Convection Coefficient Upper Limit {W/m2-K}
Surface Heat Transfer Algorithm, CTF - ConductionTransferFunction,200,0.10,1000.0
! <Shading Summary>, Number of Fixed Detached Shades, Number of Building Detached Shades, Number of Attached Shades
 Shading Summary,0,0,0
! <Zone Summary>, Number of Zones, Number of Zone Surfaces, Number of SubSurfaces
 Zone Summary,5,30,0
! <Zone Information>,Zone Name,North Axis {deg},Origin X-Coordinate {m},Origin Y-Coordinate {m},Origin Z-Coordinate {m},Centroid X-Coordinate {m},Centroid Y-Coordinate {m},Centroid Z-Coordinate {m},Type,Zone Multiplier,Zone List Multiplier,Minimum X {m},Maximum X {m},Minimum Y {m},Maximum Y {m},Minimum Z {m},Maximum Z {m},Ceiling Height {m},Volume {m3},Zone Inside Convection Algorithm {Simple-Detailed-CeilingDiffuser-TrombeWall},Zone Outside Convection Algorithm {Simple-Detailed-Tarp-MoWitt-DOE-2-BLAST}, Floor Area {m2},Exterior Gross Wall Area {m2},Exterior Net Wall Area {m2},Exterior Window Area {m2}, Number of Surfaces, Number of SubSurfaces, Number of Shading SubSurfaces,  Part of Total Building Area
 Zone Information, SP-ELECTRICAL/MECHANICAL ROOM-SCH-C-SPACE FUNCTION SYS-3 FLR-1 SCH-C HPLCMT-CORE ZN,0.0,25.00,25.00,0.00,50.00,50.00,1.90,1,1,1,25.00,75.00,25.00,75.00,0.00,3.80,3.80,9500.00,TARP,TARP,2500.00,0.00,0.00,0.00,6,0,0,Yes
 Zone Information, SP-ELECTRICAL/MECHANICAL ROOM-SCH-D-SPACE FUNCTION SYS-3 FLR-1 SCH-D HPLCMT-SOUTH ZN,0.0,0.00,0.00,0.00,50.00,10.85,1.90,1,1,1,0.00,100.00,0.00,25.00,0.00,3.80,3.80,7125.00,TARP,TARP,1875.00,0.00,0.00,0.00,6,0,0,Yes
 Zone Information, SP-FOOD PREPARATION AREA-SPACE FUNCTION SYS-3 FLR-1 SCH-B HPLCMT-EAST ZN,0.0,75.00,25.00,0.00,89.15,50.00,1.90,1,1,1,75.00,100.00,0.00,100.00,0.00,3.80,3.80,7125.00,TARP,TARP,1875.00,0.00,0.00,0.00,6,0,0,Yes
 Zone Information, SP-GUEST ROOM-SPACE FUNCTION SYS-1 FLR-1 SCH-F HPLCMT-NORTH ZN,0.0,25.00,75.00,0.00,50.00,89.15,1.90,1,1,1,0.00,100.00,75.00,100.00,0.00,3.80,3.80,7125.00,TARP,TARP,1875.00,0.00,0.00,0.00,6,0,0,Yes
 Zone Information, SP-LABORATORY - CLASSROOMS-SPACE FUNCTION SYS-3 FLR-1 SCH-D HPLCMT-WEST ZN,0.0,0.00,0.00,0.00,10.85,50.00,1.90,1,1,1,0.00,25.00,0.00,100.00,0.00,3.80,3.80,7125.00,TARP,TARP,1875.00,0.00,0.00,0.00,6,0,0,Yes
! <Zone Internal Gains Nominal>,Zone Name, Floor Area {m2},# Occupants,Area per Occupant {m2/person},Occupant per Area {person/m2},Interior Lighting {W/m2},Electric Load {W/m2},Gas Load {W/m2},Other Load {W/m2},Hot Water Eq {W/m2},Steam Equipment {W/m2},Sum Loads per Area {W/m2},Outdoor Controlled Baseboard Heat
 Zone Internal Gains Nominal, SP-ELECTRICAL/MECHANICAL ROOM-SCH-C-SPACE FUNCTION SYS-3 FLR-1 SCH-C HPLCMT-CORE ZN,2500.00,12.5,199.927,5.002E-003,4.602,1.000,0.000,0.000,0.000,0.000,5.602,No
 Zone Internal Gains Nominal, SP-ELECTRICAL/MECHANICAL ROOM-SCH-D-SPACE FUNCTION SYS-3 FLR-1 SCH-D HPLCMT-SOUTH ZN,1875.00,9.4,199.927,5.002E-003,4.602,1.000,0.000,0.000,0.000,0.000,5.602,No
 Zone Internal Gains Nominal, SP-FOOD PREPARATION AREA-SPACE FUNCTION SYS-3 FLR-1 SCH-B HPLCMT-EAST ZN,1875.00,93.8,19.993,5.002E-002,13.105,10.004,0.000,0.000,0.000,0.000,23.108,No
 Zone Internal Gains Nominal, SP-GUEST ROOM-SPACE FUNCTION SYS-1 FLR-1 SCH-F HPLCMT-NORTH ZN,1875.00,75.0,24.991,4.001E-002,5.102,2.501,0.000,0.000,0.000,0.000,7.603,No
 Zone Internal Gains Nominal, SP-LABORATORY - CLASSROOMS-SPACE FUNCTION SYS-3 FLR-1 SCH-D HPLCMT-WEST ZN,1875.00,93.8,19.993,5.002E-002,15.506,10.004,0.000,0.000,0.000,0.000,25.509,No
! <People Internal Gains Nominal>,Name,Schedule Name,Zone Name,Zone Floor Area {m2},# Zone Occupants,Number of People {},People/Floor Area {person/m2},Floor Area per person {m2/person},Fraction Radiant,Fraction Convected,Sensible Fraction Calculation,Activity level,ASHRAE 55 Warnings,Carbon Dioxide Generation Rate,Nominal Minimum Number of People,Nominal Maximum Number of People
 People Internal Gains Nominal, SP-ELECTRICAL/MECHANICAL ROOM-SCH-C-SPACE FUNCTION SYS-3 FLR-1 SCH-C HPLCMT-CORE ZN SPACE FUNCTION ELECTRICAL/MECHANICAL ROOM-SCH-C PEOPLE,NECB-C-OCCUPANCY,SP-ELECTRICAL/MECHANICAL ROOM-SCH-C-SPACE FUNCTION SYS-3 FLR-1 SCH-C HPLCMT-CORE ZN,2500.00,12.5,12.5,5.002E-003,199.927,0.300,0.700,AutoCalculate,NECB-ACTIVITY,No,3.8200E-008,0,11
 People Internal Gains Nominal, SP-ELECTRICAL/MECHANICAL ROOM-SCH-D-SPACE FUNCTION SYS-3 FLR-1 SCH-D HPLCMT-SOUTH ZN SPACE FUNCTION ELECTRICAL/MECHANICAL ROOM-SCH-D PEOPLE,NECB-D-OCCUPANCY,SP-ELECTRICAL/MECHANICAL ROOM-SCH-D-SPACE FUNCTION SYS-3 FLR-1 SCH-D HPLCMT-SOUTH ZN,1875.00,9.4,9.4,5.002E-003,199.927,0.300,0.700,AutoCalculate,NECB-ACTIVITY,No,3.8200E-008,0,8
 People Internal Gains Nominal, SP-FOOD PREPARATION AREA-SPACE FUNCTION SYS-3 FLR-1 SCH-B HPLCMT-EAST ZN SPACE FUNCTION FOOD PREPARATION AREA PEOPLE,NECB-B-OCCUPANCY,SP-FOOD PREPARATION AREA-SPACE FUNCTION SYS-3 FLR-1 SCH-B HPLCMT-EAST ZN,1875.00,93.8,93.8,5.002E-002,19.993,0.300,0.700,AutoCalculate,NECB-ACTIVITY,No,3.8200E-008,0,84
 People Internal Gains Nominal, SP-GUEST ROOM-SPACE FUNCTION SYS-1 FLR-1 SCH-F HPLCMT-NORTH ZN SPACE FUNCTION GUEST ROOM PEOPLE,NECB-F-OCCUPANCY,SP-GUEST ROOM-SPACE FUNCTION SYS-1 FLR-1 SCH-F HPLCMT-NORTH ZN,1875.00,75.0,75.0,4.001E-002,24.991,0.300,0.700,AutoCalculate,NECB-ACTIVITY,No,3.8200E-008,11,47
 People Internal Gains Nominal, SP-LABORATORY - CLASSROOMS-SPACE FUNCTION SYS-3 FLR-1 SCH-D HPLCMT-WEST ZN SPACE FUNCTION LABORATORY - CLASSROOMS PEOPLE,NECB-D-OCCUPANCY,SP-LABORATORY - CLASSROOMS-SPACE FUNCTION SYS-3 FLR-1 SCH-D HPLCMT-WEST ZN,1875.00,93.8,93.8,5.002E-002,19.993,0.300,0.700,AutoCalculate,NECB-ACTIVITY,No,3.8200E-008,0,84
! <Lights Internal Gains Nominal>,Name,Schedule Name,Zone Name,Zone Floor Area {m2},# Zone Occupants,Lighting Level {W},Lights/Floor Area {W/m2},Lights per person {W/person},Fraction Return Air,Fraction Radiant,Fraction Short Wave,Fraction Convected,Fraction Replaceable,End-Use Category,Nominal Minimum Lighting Level {W},Nominal Maximum Lighting Level {W}
 Lights Internal Gains Nominal, SP-ELECTRICAL/MECHANICAL ROOM-SCH-C-SPACE FUNCTION SYS-3 FLR-1 SCH-C HPLCMT-CORE ZN SPACE FUNCTION ELECTRICAL/MECHANICAL ROOM-SCH-C LIGHTS,NECB-C-LIGHTING,SP-ELECTRICAL/MECHANICAL ROOM-SCH-C-SPACE FUNCTION SYS-3 FLR-1 SCH-C HPLCMT-CORE ZN,2500.00,12.5,11504.179,4.602,920.000,0.000,0.500,0.200,0.300,1.000,General,575.209,10353.761
 Lights Internal Gains Nominal, SP-ELECTRICAL/MECHANICAL ROOM-SCH-D-SPACE FUNCTION SYS-3 FLR-1 SCH-D HPLCMT-SOUTH ZN SPACE FUNCTION ELECTRICAL/MECHANICAL ROOM-SCH-D LIGHTS,NECB-D-LIGHTING,SP-ELECTRICAL/MECHANICAL ROOM-SCH-D-SPACE FUNCTION SYS-3 FLR-1 SCH-D HPLCMT-SOUTH ZN,1875.00,9.4,8628.135,4.602,920.000,0.000,0.500,0.200,0.300,1.000,General,431.407,7765.321
 Lights Internal Gains Nominal, SP-FOOD PREPARATION AREA-SPACE FUNCTION SYS-3 FLR-1 SCH-B HPLCMT-EAST ZN SPACE FUNCTION FOOD PREPARATION AREA LIGHTS,NECB-B-OCCUPANCY-NECB-B-LIGHTING-0.0-0.0-0.67-LIGHT RULESET,SP-FOOD PREPARATION AREA-SPACE FUNCTION SYS-3 FLR-1 SCH-B HPLCMT-EAST ZN,1875.00,93.8,24571.427,13.105,262.000,0.000,0.500,0.200,0.300,1.000,General,2457.143,22114.284
 Lights Internal Gains Nominal, SP-GUEST ROOM-SPACE FUNCTION SYS-1 FLR-1 SCH-F HPLCMT-NORTH ZN SPACE FUNCTION GUEST ROOM LIGHTS,NECB-F-LIGHTING,SP-GUEST ROOM-SPACE FUNCTION SYS-1 FLR-1 SCH-F HPLCMT-NORTH ZN,1875.00,75.0,9565.975,5.102,127.500,0.000,0.500,0.200,0.300,1.000,General,669.618,6026.564
 Lights Internal Gains Nominal, SP-LABORATORY - CLASSROOMS-SPACE FUNCTION SYS-3 FLR-1 SCH-D HPLCMT-WEST ZN SPACE FUNCTION LABORATORY - CLASSROOMS LIGHTS,NECB-D-OCCUPANCY-NECB-D-LIGHTING-0.4-0.1-0.67-LIGHT RULESET,SP-LABORATORY - CLASSROOMS-SPACE FUNCTION SYS-3 FLR-1 SCH-D HPLCMT-WEST ZN,1875.00,93.8,29073.062,15.506,310.000,0.000,0.500,0.200,0.300,1.000,General,918.709,26165.756
! <ElectricEquipment Internal Gains Nominal>,Name,Schedule Name,Zone Name,Zone Floor Area {m2},# Zone Occupants,Equipment Level {W},Equipment/Floor Area {W/m2},Equipment per person {W/person},Fraction Latent,Fraction Radiant,Fraction Lost,Fraction Convected,End-Use SubCategory,Nominal Minimum Equipment Level {W},Nominal Maximum Equipment Level {W}
 ElectricEquipment Internal Gains Nominal, SP-ELECTRICAL/MECHANICAL ROOM-SCH-C-SPACE FUNCTION SYS-3 FLR-1 SCH-C HPLCMT-CORE ZN SPACE FUNCTION ELECTRICAL/MECHANICAL ROOM-SCH-C ELEC EQUIP,NECB-C-ELECTRIC-EQUIPMENT,SP-ELECTRICAL/MECHANICAL ROOM-SCH-C-SPACE FUNCTION SYS-3 FLR-1 SCH-C HPLCMT-CORE ZN,2500.00,12.5,2500.909,1.000,200.000,0.000,0.500,0.000,0.500,General,125.045,2250.818
 ElectricEquipment Internal Gains Nominal, SP-ELECTRICAL/MECHANICAL ROOM-SCH-D-SPACE FUNCTION SYS-3 FLR-1 SCH-D HPLCMT-SOUTH ZN SPACE FUNCTION ELECTRICAL/MECHANICAL ROOM-SCH-D ELEC EQUIP,NECB-D-ELECTRIC-EQUIPMENT,SP-ELECTRICAL/MECHANICAL ROOM-SCH-D-SPACE FUNCTION SYS-3 FLR-1 SCH-D HPLCMT-SOUTH ZN,1875.00,9.4,1875.681,1.000,200.000,0.000,0.500,0.000,0.500,General,93.784,1688.113
 ElectricEquipment Internal Gains Nominal, SP-FOOD PREPARATION AREA-SPACE FUNCTION SYS-3 FLR-1 SCH-B HPLCMT-EAST ZN SPACE FUNCTION FOOD PREPARATION AREA ELEC EQUIP,NECB-B-ELECTRIC-EQUIPMENT,SP-FOOD PREPARATION AREA-SPACE FUNCTION SYS-3 FLR-1 SCH-B HPLCMT-EAST ZN,1875.00,93.8,18756.814,10.004,200.000,0.000,0.500,0.000,0.500,General,1875.681,16881.133
 ElectricEquipment Internal Gains Nominal, SP-GUEST ROOM-SPACE FUNCTION SYS-1 FLR-1 SCH-F HPLCMT-NORTH ZN SPACE FUNCTION GUEST ROOM ELEC EQUIP,NECB-F-ELECTRIC-EQUIPMENT,SP-GUEST ROOM-SPACE FUNCTION SYS-1 FLR-1 SCH-F HPLCMT-NORTH ZN,1875.00,75.0,4689.204,2.501,62.500,0.000,0.500,0.000,0.500,General,328.244,2954.198
 ElectricEquipment Internal Gains Nominal, SP-LABORATORY - CLASSROOMS-SPACE FUNCTION SYS-3 FLR-1 SCH-D HPLCMT-WEST ZN SPACE FUNCTION LABORATORY - CLASSROOMS ELEC EQUIP,NECB-D-ELECTRIC-EQUIPMENT,SP-LABORATORY - CLASSROOMS-SPACE FUNCTION SYS-3 FLR-1 SCH-D HPLCMT-WEST ZN,1875.00,93.8,18756.814,10.004,200.000,0.000,0.500,0.000,0.500,General,937.841,16881.133
! <Shadowing/Sun Position Calculations Annual Simulations>, Calculation Method, Value {days}, Allowable Number Figures in Shadow Overlap {}, Polygon Clipping Algorithm, Sky Diffuse Modeling Algorithm, External Shading Calculation Method, Output External Shading Calculation Results, Disable Self-Shading Within Shading Zone Groups, Disable Self-Shading From Shading Zone Groups to Other Zones
Shadowing/Sun Position Calculations Annual Simulations,AverageOverDaysInFrequency,20,15000,SutherlandHodgman,SimpleSkyDiffuseModeling,InternalCalculation,No,No,No
! <Water Heater Information>,Type,Name,Volume {m3},Maximum Capacity {W},Standard Rated Recovery Efficiency, Standard Rated Energy Factor
! <RoomAir Model>, Zone Name, Mixing/Mundt/UCSDDV/UCSDCV/UCSDUFI/UCSDUFE/User Defined
RoomAir Model,SP-ELECTRICAL/MECHANICAL ROOM-SCH-C-SPACE FUNCTION SYS-3 FLR-1 SCH-C HPLCMT-CORE ZN,Mixing/Well-Stirred
RoomAir Model,SP-ELECTRICAL/MECHANICAL ROOM-SCH-D-SPACE FUNCTION SYS-3 FLR-1 SCH-D HPLCMT-SOUTH ZN,Mixing/Well-Stirred
RoomAir Model,SP-FOOD PREPARATION AREA-SPACE FUNCTION SYS-3 FLR-1 SCH-B HPLCMT-EAST ZN,Mixing/Well-Stirred
RoomAir Model,SP-GUEST ROOM-SPACE FUNCTION SYS-1 FLR-1 SCH-F HPLCMT-NORTH ZN,Mixing/Well-Stirred
RoomAir Model,SP-LABORATORY - CLASSROOMS-SPACE FUNCTION SYS-3 FLR-1 SCH-D HPLCMT-WEST ZN,Mixing/Well-Stirred
! <AirflowNetwork Model:Control>, No Multizone or Distribution/Multizone with Distribution/Multizone without Distribution/Multizone with Distribution only during Fan Operation
AirflowNetwork Model:Control,NoMultizoneOrDistribution
! <Zone Volume Capacitance Multiplier>, Sensible Heat Capacity Multiplier, Moisture Capacity Multiplier, Carbon Dioxide Capacity Multiplier, Generic Contaminant Capacity Multiplier
Zone Volume Capacitance Multiplier,   1.000 ,   1.000,   1.000,   1.000
! <Load Timesteps in Zone Design Calculation Averaging Window>, Value
 Load Timesteps in Zone Design Calculation Averaging Window,    6
! <Heating Sizing Factor Information>, Sizing Factor ID, Value
 Heating Sizing Factor Information, Global,   1.3000    
 Heating Sizing Factor Information, Zone SP-ELECTRICAL/MECHANICAL ROOM-SCH-C-SPACE FUNCTION SYS-3 FLR-1 SCH-C HPLCMT-CORE ZN,   1.3000    
 Heating Sizing Factor Information, Zone SP-ELECTRICAL/MECHANICAL ROOM-SCH-D-SPACE FUNCTION SYS-3 FLR-1 SCH-D HPLCMT-SOUTH ZN,   1.3000    
 Heating Sizing Factor Information, Zone SP-FOOD PREPARATION AREA-SPACE FUNCTION SYS-3 FLR-1 SCH-B HPLCMT-EAST ZN,   1.3000    
 Heating Sizing Factor Information, Zone SP-GUEST ROOM-SPACE FUNCTION SYS-1 FLR-1 SCH-F HPLCMT-NORTH ZN,   1.3000    
 Heating Sizing Factor Information, Zone SP-LABORATORY - CLASSROOMS-SPACE FUNCTION SYS-3 FLR-1 SCH-D HPLCMT-WEST ZN,   1.3000    
! <Cooling Sizing Factor Information>, Sizing Factor ID, Value
 Cooling Sizing Factor Information, Global,   1.1000    
 Cooling Sizing Factor Information, Zone SP-ELECTRICAL/MECHANICAL ROOM-SCH-C-SPACE FUNCTION SYS-3 FLR-1 SCH-C HPLCMT-CORE ZN,   1.1000    
 Cooling Sizing Factor Information, Zone SP-ELECTRICAL/MECHANICAL ROOM-SCH-D-SPACE FUNCTION SYS-3 FLR-1 SCH-D HPLCMT-SOUTH ZN,   1.1000    
 Cooling Sizing Factor Information, Zone SP-FOOD PREPARATION AREA-SPACE FUNCTION SYS-3 FLR-1 SCH-B HPLCMT-EAST ZN,   1.1000    
 Cooling Sizing Factor Information, Zone SP-GUEST ROOM-SPACE FUNCTION SYS-1 FLR-1 SCH-F HPLCMT-NORTH ZN,   1.1000    
 Cooling Sizing Factor Information, Zone SP-LABORATORY - CLASSROOMS-SPACE FUNCTION SYS-3 FLR-1 SCH-D HPLCMT-WEST ZN,   1.1000    
! <Zone Sizing Information>, Zone Name, Load Type, Calc Des Load {W}, User Des Load {W}, Calc Des Air Flow Rate {m3/s}, User Des Air Flow Rate {m3/s}, Design Day Name, Date/Time of Peak, Temperature at Peak {C}, Humidity Ratio at Peak {kgWater/kgDryAir}, Floor Area {m2}, # Occupants, Calc Outdoor Air Flow Rate {m3/s}, Calc DOAS Heat Addition Rate {W}
 Zone Sizing Information, SP-ELECTRICAL/MECHANICAL ROOM-SCH-C-SPACE FUNCTION SYS-3 FLR-1 SCH-C HPLCMT-CORE ZN, Cooling, 8416.74487, 9258.41936, 0.65047, 0.76200, FORT MCMURRAY AP ANN CLG .4% CONDNS DB=>MWB, 7/21 16:20:00, 27.82533, 8.76969E-003, 2500.00000, 12.50454, 0.76200, 0.00000
 Zone Sizing Information, SP-ELECTRICAL/MECHANICAL ROOM-SCH-C-SPACE FUNCTION SYS-3 FLR-1 SCH-C HPLCMT-CORE ZN, Heating, 7712.87547, 10026.73811, 0.29341, 0.76200, FORT MCMURRAY AP ANN HTG 99.6% CONDNS DB, 1/21 08:10:00, -36.20000, 1.25811E-004, 2500.00000, 12.50454, 0.76200, 0.00000
 Zone Sizing Information, SP-ELECTRICAL/MECHANICAL ROOM-SCH-D-SPACE FUNCTION SYS-3 FLR-1 SCH-D HPLCMT-SOUTH ZN, Cooling, 6388.21833, 7027.04016, 0.49370, 0.57150, FORT MCMURRAY AP ANN CLG .4% CONDNS DB=>MWB, 7/21 15:00:00, 28.90000, 8.76969E-003, 1875.00000, 9.37841, 0.57150, 0.00000
 Zone Sizing Information, SP-ELECTRICAL/MECHANICAL ROOM-SCH-D-SPACE FUNCTION SYS-3 FLR-1 SCH-D HPLCMT-SOUTH ZN, Heating, 7329.04651, 9527.76046, 0.27805, 0.57150, FORT MCMURRAY AP ANN HTG 99.6% CONDNS DB, 1/21 09:00:00, -36.20000, 1.25811E-004, 1875.00000, 9.37841, 0.57150, 0.00000
 Zone Sizing Information, SP-FOOD PREPARATION AREA-SPACE FUNCTION SYS-3 FLR-1 SCH-B HPLCMT-EAST ZN, Cooling, 34528.79510, 37981.67461, 2.66876, 2.93563, FORT MCMURRAY AP ANN CLG .4% CONDNS DB=>MWB, 7/21 21:10:00, 21.39800, 8.76969E-003, 1875.00000, 93.78407, 2.57175, 0.00000
 Zone Sizing Information, SP-FOOD PREPARATION AREA-SPACE FUNCTION SYS-3 FLR-1 SCH-B HPLCMT-EAST ZN, Heating, 0.00000, 0.00000, 0.00000, 2.57175, FORT MCMURRAY AP ANN HTG 99.6% CONDNS DB, , -36.20000, 1.25811E-004, 1875.00000, 93.78407, 2.57175, 0.00000
 Zone Sizing Information, SP-GUEST ROOM-SPACE FUNCTION SYS-1 FLR-1 SCH-F HPLCMT-NORTH ZN, Cooling, 7456.51026, 8202.16129, 0.57631, 1.04775, FORT MCMURRAY AP ANN CLG .4% CONDNS DB=>MWB, 7/21 22:00:00, 20.46800, 8.76969E-003, 1875.00000, 75.02726, 1.04775, 0.00000
 Zone Sizing Information, SP-GUEST ROOM-SPACE FUNCTION SYS-1 FLR-1 SCH-F HPLCMT-NORTH ZN, Heating, 0.00000, 0.00000, 0.00000, 1.04775, FORT MCMURRAY AP ANN HTG 99.6% CONDNS DB, , -36.20000, 1.25811E-004, 1875.00000, 75.02726, 1.04775, 0.00000
 Zone Sizing Information, SP-LABORATORY - CLASSROOMS-SPACE FUNCTION SYS-3 FLR-1 SCH-D HPLCMT-WEST ZN, Cooling, 37819.34832, 41601.28316, 2.92310, 4.09575, FORT MCMURRAY AP ANN CLG .4% CONDNS DB=>MWB, 7/21 12:00:00, 27.28800, 8.76969E-003, 1875.00000, 93.78407, 4.09575, 0.00000
 Zone Sizing Information, SP-LABORATORY - CLASSROOMS-SPACE FUNCTION SYS-3 FLR-1 SCH-D HPLCMT-WEST ZN, Heating, 4391.62423, 5709.11150, 0.16931, 4.09575, FORT MCMURRAY AP ANN HTG 99.6% CONDNS DB, 1/21 08:10:00, -36.20000, 1.25811E-004, 1875.00000, 93.78407, 4.09575, 0.00000
! <System Sizing Information>, System Name, Load Type, Peak Load Kind, User Design Capacity, Calc Des Air Flow Rate [m3/s], User Des Air Flow Rate [m3/s], Design Day Name, Date/Time of Peak
 System Sizing Information, SYS_1_MAKE-UP AIR UNIT, Cooling, Sensible, 9061.92, 1.04775, 1.04775, FORT MCMURRAY AP ANN CLG .4% CONDNS DB=>MWB, 7/21 05:00:00
 System Sizing Information, SYS_1_MAKE-UP AIR UNIT, Heating, Sensible, 96103.89, 1.04775, 1.04775, FORT MCMURRAY AP ANN HTG 99.6% CONDNS DB, 1/21 00:10:00
 System Sizing Information, SYS_3_PSZ SP-ELECTRICAL/MECHANICAL ROOM-SCH-C-SPACE FUNCTION SYS-3 FLR-1 SCH-C HPLCMT-CORE ZN, Cooling, Sensible, 13083.31, 0.76200, 0.76200, FORT MCMURRAY AP ANN CLG .4% CONDNS DB=>MWB, 7/21 05:00:00
 System Sizing Information, SYS_3_PSZ SP-ELECTRICAL/MECHANICAL ROOM-SCH-C-SPACE FUNCTION SYS-3 FLR-1 SCH-C HPLCMT-CORE ZN, Heating, Sensible, 69893.74, 0.76200, 0.76200, FORT MCMURRAY AP ANN HTG 99.6% CONDNS DB, 1/21 00:10:00
 System Sizing Information, SYS_3_PSZ SP-ELECTRICAL/MECHANICAL ROOM-SCH-D-SPACE FUNCTION SYS-3 FLR-1 SCH-D HPLCMT-SOUTH ZN, Cooling, Sensible, 10523.77, 0.57150, 0.57150, FORT MCMURRAY AP ANN CLG .4% CONDNS DB=>MWB, 7/21 05:00:00
 System Sizing Information, SYS_3_PSZ SP-ELECTRICAL/MECHANICAL ROOM-SCH-D-SPACE FUNCTION SYS-3 FLR-1 SCH-D HPLCMT-SOUTH ZN, Heating, Sensible, 52420.30, 0.57150, 0.57150, FORT MCMURRAY AP ANN HTG 99.6% CONDNS DB, 1/21 00:10:00
 System Sizing Information, SYS_3_PSZ SP-FOOD PREPARATION AREA-SPACE FUNCTION SYS-3 FLR-1 SCH-B HPLCMT-EAST ZN, Cooling, Sensible, 29647.99, 2.93563, 2.93563, FORT MCMURRAY AP ANN CLG .4% CONDNS DB=>MWB, 7/21 05:00:00
 System Sizing Information, SYS_3_PSZ SP-FOOD PREPARATION AREA-SPACE FUNCTION SYS-3 FLR-1 SCH-B HPLCMT-EAST ZN, Heating, Sensible, 235891.37, 2.57175, 2.57175, FORT MCMURRAY AP ANN HTG 99.6% CONDNS DB, 1/21 00:10:00
 System Sizing Information, SYS_3_PSZ SP-LABORATORY - CLASSROOMS-SPACE FUNCTION SYS-3 FLR-1 SCH-D HPLCMT-WEST ZN, Cooling, Sensible, 67773.98, 4.09575, 4.09575, FORT MCMURRAY AP ANN CLG .4% CONDNS DB=>MWB, 7/21 05:00:00
 System Sizing Information, SYS_3_PSZ SP-LABORATORY - CLASSROOMS-SPACE FUNCTION SYS-3 FLR-1 SCH-D HPLCMT-WEST ZN, Heating, Sensible, 375678.85, 4.09575, 4.09575, FORT MCMURRAY AP ANN HTG 99.6% CONDNS DB, 1/21 00:10:00
! <Component Sizing Information>, Component Type, Component Name, Input Field Description, Value
 Component Sizing Information, AirTerminal:SingleDuct:Uncontrolled, AIR TERMINAL SINGLE DUCT UNCONTROLLED 2, Design Size Maximum Air Flow Rate [m3/s], 0.76200
 Component Sizing Information, ZoneHVAC:Baseboard:Convective:Water, ZONE HVAC BASEBOARD CONVECTIVE WATER 2, Design Size Maximum Water Flow Rate [m3/s], 1.49757E-004
 Component Sizing Information, ZoneHVAC:Baseboard:Convective:Water, ZONE HVAC BASEBOARD CONVECTIVE WATER 2, Design Size U-Factor Times Area Value [W/K], 198.58673
 Component Sizing Information, AirTerminal:SingleDuct:Uncontrolled, AIR TERMINAL SINGLE DUCT UNCONTROLLED 4, Design Size Maximum Air Flow Rate [m3/s], 0.57150
 Component Sizing Information, ZoneHVAC:Baseboard:Convective:Water, ZONE HVAC BASEBOARD CONVECTIVE WATER 4, Design Size Maximum Water Flow Rate [m3/s], 1.42305E-004
 Component Sizing Information, ZoneHVAC:Baseboard:Convective:Water, ZONE HVAC BASEBOARD CONVECTIVE WATER 4, Design Size U-Factor Times Area Value [W/K], 289.90247
 Component Sizing Information, AirTerminal:SingleDuct:Uncontrolled, AIR TERMINAL SINGLE DUCT UNCONTROLLED 5, Design Size Maximum Air Flow Rate [m3/s], 2.93563
 Component Sizing Information, ZoneHVAC:Baseboard:Convective:Water, ZONE HVAC BASEBOARD CONVECTIVE WATER 5, Design Size Maximum Water Flow Rate [m3/s], 0.00000
 Component Sizing Information, ZoneHVAC:Baseboard:Convective:Water, ZONE HVAC BASEBOARD CONVECTIVE WATER 5, Design Size U-Factor Times Area Value [W/K], 0.00000
 Component Sizing Information, ZoneHVAC:PackagedTerminalAirConditioner, SP-GUEST ROOM-SPACE FUNCTION SYS-1 FLR-1 SCH-F HPLCMT-NORTH ZN PTAC, Design Size Cooling Supply Air Flow Rate [m3/s], 1.04775
 Component Sizing Information, ZoneHVAC:PackagedTerminalAirConditioner, SP-GUEST ROOM-SPACE FUNCTION SYS-1 FLR-1 SCH-F HPLCMT-NORTH ZN PTAC, Design Size Heating Supply Air Flow Rate [m3/s], 1.04775
 Component Sizing Information, ZoneHVAC:PackagedTerminalAirConditioner, SP-GUEST ROOM-SPACE FUNCTION SYS-1 FLR-1 SCH-F HPLCMT-NORTH ZN PTAC, Design Size No Load Supply Air Flow Rate [m3/s], 1.04775
 Component Sizing Information, ZoneHVAC:PackagedTerminalAirConditioner, SP-GUEST ROOM-SPACE FUNCTION SYS-1 FLR-1 SCH-F HPLCMT-NORTH ZN PTAC, Design Size Outdoor Air Flow Rate During Cooling Operation [m3/s], 1.04775
 Component Sizing Information, ZoneHVAC:PackagedTerminalAirConditioner, SP-GUEST ROOM-SPACE FUNCTION SYS-1 FLR-1 SCH-F HPLCMT-NORTH ZN PTAC, Design Size Outdoor Air Flow Rate During Heating Operation [m3/s], 1.04775
 Component Sizing Information, ZoneHVAC:PackagedTerminalAirConditioner, SP-GUEST ROOM-SPACE FUNCTION SYS-1 FLR-1 SCH-F HPLCMT-NORTH ZN PTAC, Design Size Outdoor Air Flow Rate When No Cooling or Heating is Needed [m3/s], 1.04775
 Component Sizing Information, Coil:Cooling:DX:SingleSpeed, COIL COOLING DX SINGLE SPEED 2 59KBTU/HR 9.3EER, Design Size Rated Air Flow Rate [m3/s], 1.04775
 Component Sizing Information, Coil:Cooling:DX:SingleSpeed, COIL COOLING DX SINGLE SPEED 2 59KBTU/HR 9.3EER, Design Size Gross Rated Total Cooling Capacity [W], 17343.98278
 Component Sizing Information, Coil:Cooling:DX:SingleSpeed, COIL COOLING DX SINGLE SPEED 2 59KBTU/HR 9.3EER, Design Size Gross Rated Sensible Heat Ratio, 0.80066
! <DX Cooling Coil Standard Rating Information>, Component Type, Component Name, Standard Rating (Net) Cooling Capacity {W}, Standard Rated Net COP {W/W}, EER {Btu/W-h}, SEER {Btu/W-h}, IEER {Btu/W-h}
 DX Cooling Coil Standard Rating Information, Coil:Cooling:DX:SingleSpeed, COIL COOLING DX SINGLE SPEED 2 59KBTU/HR 9.3EER, 16529.5, 2.65, 9.03, 9.53, 9.05
 Component Sizing Information, Coil:Heating:Electric, COIL HEATING ELECTRIC 1, Design Size Nominal Capacity [W], 25858.74797
 Component Sizing Information, Fan:ConstantVolume, FAN CONSTANT VOLUME 2, Design Size Maximum Flow Rate [m3/s], 1.04775
 Component Sizing Information, ZoneHVAC:Baseboard:Convective:Water, ZONE HVAC BASEBOARD CONVECTIVE WATER 1, Design Size Maximum Water Flow Rate [m3/s], 0.00000
 Component Sizing Information, ZoneHVAC:Baseboard:Convective:Water, ZONE HVAC BASEBOARD CONVECTIVE WATER 1, Design Size U-Factor Times Area Value [W/K], 0.00000
 Component Sizing Information, AirTerminal:SingleDuct:Uncontrolled, AIR TERMINAL SINGLE DUCT UNCONTROLLED 1, Design Size Maximum Air Flow Rate [m3/s], 1.04775
 Component Sizing Information, AirTerminal:SingleDuct:Uncontrolled, AIR TERMINAL SINGLE DUCT UNCONTROLLED 3, Design Size Maximum Air Flow Rate [m3/s], 4.09575
 Component Sizing Information, ZoneHVAC:Baseboard:Convective:Water, ZONE HVAC BASEBOARD CONVECTIVE WATER 3, Design Size Maximum Water Flow Rate [m3/s], 8.52702E-005
 Component Sizing Information, ZoneHVAC:Baseboard:Convective:Water, ZONE HVAC BASEBOARD CONVECTIVE WATER 3, Design Size U-Factor Times Area Value [W/K], 113.20809
 Component Sizing Information, AirLoopHVAC, SYS_1_MAKE-UP AIR UNIT, Sum of Air Terminal Maximum Heating Flow Rates [m3/s], 1.04775
 Component Sizing Information, AirLoopHVAC, SYS_1_MAKE-UP AIR UNIT, Sum of Air Terminal Minimum Heating Flow Rates [m3/s], 1.04775
 Component Sizing Information, AirLoopHVAC, SYS_1_MAKE-UP AIR UNIT, Sum of Air Terminal Maximum Flow Rates [m3/s], 1.04775
 Component Sizing Information, AirLoopHVAC, SYS_1_MAKE-UP AIR UNIT, Adjusted Heating Design Air Flow Rate [m3/s], 1.04775
 Component Sizing Information, AirLoopHVAC, SYS_1_MAKE-UP AIR UNIT, Adjusted Cooling Design Air Flow Rate [m3/s], 1.04775
 Component Sizing Information, AirLoopHVAC, SYS_1_MAKE-UP AIR UNIT, Adjusted Main Design Air Flow Rate [m3/s], 1.04775
 Component Sizing Information, AirLoopHVAC, SYS_1_MAKE-UP AIR UNIT, User Heating Air Flow Ratio [], 1.00000
 Component Sizing Information, AirLoopHVAC, SYS_1_MAKE-UP AIR UNIT, Calculated Heating Air Flow Ratio [], 1.00000
 Component Sizing Information, AirLoopHVAC, SYS_3_PSZ SP-ELECTRICAL/MECHANICAL ROOM-SCH-C-SPACE FUNCTION SYS-3 FLR-1 SCH-C HPLCMT-CORE ZN, Sum of Air Terminal Maximum Heating Flow Rates [m3/s], 0.76200
 Component Sizing Information, AirLoopHVAC, SYS_3_PSZ SP-ELECTRICAL/MECHANICAL ROOM-SCH-C-SPACE FUNCTION SYS-3 FLR-1 SCH-C HPLCMT-CORE ZN, Sum of Air Terminal Minimum Heating Flow Rates [m3/s], 0.76200
 Component Sizing Information, AirLoopHVAC, SYS_3_PSZ SP-ELECTRICAL/MECHANICAL ROOM-SCH-C-SPACE FUNCTION SYS-3 FLR-1 SCH-C HPLCMT-CORE ZN, Sum of Air Terminal Maximum Flow Rates [m3/s], 0.76200
 Component Sizing Information, AirLoopHVAC, SYS_3_PSZ SP-ELECTRICAL/MECHANICAL ROOM-SCH-C-SPACE FUNCTION SYS-3 FLR-1 SCH-C HPLCMT-CORE ZN, Adjusted Heating Design Air Flow Rate [m3/s], 0.76200
 Component Sizing Information, AirLoopHVAC, SYS_3_PSZ SP-ELECTRICAL/MECHANICAL ROOM-SCH-C-SPACE FUNCTION SYS-3 FLR-1 SCH-C HPLCMT-CORE ZN, Adjusted Cooling Design Air Flow Rate [m3/s], 0.76200
 Component Sizing Information, AirLoopHVAC, SYS_3_PSZ SP-ELECTRICAL/MECHANICAL ROOM-SCH-C-SPACE FUNCTION SYS-3 FLR-1 SCH-C HPLCMT-CORE ZN, Adjusted Main Design Air Flow Rate [m3/s], 0.76200
 Component Sizing Information, AirLoopHVAC, SYS_3_PSZ SP-ELECTRICAL/MECHANICAL ROOM-SCH-C-SPACE FUNCTION SYS-3 FLR-1 SCH-C HPLCMT-CORE ZN, User Heating Air Flow Ratio [], 1.00000
 Component Sizing Information, AirLoopHVAC, SYS_3_PSZ SP-ELECTRICAL/MECHANICAL ROOM-SCH-C-SPACE FUNCTION SYS-3 FLR-1 SCH-C HPLCMT-CORE ZN, Calculated Heating Air Flow Ratio [], 1.00000
 Component Sizing Information, AirLoopHVAC, SYS_3_PSZ SP-ELECTRICAL/MECHANICAL ROOM-SCH-D-SPACE FUNCTION SYS-3 FLR-1 SCH-D HPLCMT-SOUTH ZN, Sum of Air Terminal Maximum Heating Flow Rates [m3/s], 0.57150
 Component Sizing Information, AirLoopHVAC, SYS_3_PSZ SP-ELECTRICAL/MECHANICAL ROOM-SCH-D-SPACE FUNCTION SYS-3 FLR-1 SCH-D HPLCMT-SOUTH ZN, Sum of Air Terminal Minimum Heating Flow Rates [m3/s], 0.57150
 Component Sizing Information, AirLoopHVAC, SYS_3_PSZ SP-ELECTRICAL/MECHANICAL ROOM-SCH-D-SPACE FUNCTION SYS-3 FLR-1 SCH-D HPLCMT-SOUTH ZN, Sum of Air Terminal Maximum Flow Rates [m3/s], 0.57150
 Component Sizing Information, AirLoopHVAC, SYS_3_PSZ SP-ELECTRICAL/MECHANICAL ROOM-SCH-D-SPACE FUNCTION SYS-3 FLR-1 SCH-D HPLCMT-SOUTH ZN, Adjusted Heating Design Air Flow Rate [m3/s], 0.57150
 Component Sizing Information, AirLoopHVAC, SYS_3_PSZ SP-ELECTRICAL/MECHANICAL ROOM-SCH-D-SPACE FUNCTION SYS-3 FLR-1 SCH-D HPLCMT-SOUTH ZN, Adjusted Cooling Design Air Flow Rate [m3/s], 0.57150
 Component Sizing Information, AirLoopHVAC, SYS_3_PSZ SP-ELECTRICAL/MECHANICAL ROOM-SCH-D-SPACE FUNCTION SYS-3 FLR-1 SCH-D HPLCMT-SOUTH ZN, Adjusted Main Design Air Flow Rate [m3/s], 0.57150
 Component Sizing Information, AirLoopHVAC, SYS_3_PSZ SP-ELECTRICAL/MECHANICAL ROOM-SCH-D-SPACE FUNCTION SYS-3 FLR-1 SCH-D HPLCMT-SOUTH ZN, User Heating Air Flow Ratio [], 1.00000
 Component Sizing Information, AirLoopHVAC, SYS_3_PSZ SP-ELECTRICAL/MECHANICAL ROOM-SCH-D-SPACE FUNCTION SYS-3 FLR-1 SCH-D HPLCMT-SOUTH ZN, Calculated Heating Air Flow Ratio [], 1.00000
 Component Sizing Information, AirLoopHVAC, SYS_3_PSZ SP-FOOD PREPARATION AREA-SPACE FUNCTION SYS-3 FLR-1 SCH-B HPLCMT-EAST ZN, Sum of Air Terminal Maximum Heating Flow Rates [m3/s], 2.93563
 Component Sizing Information, AirLoopHVAC, SYS_3_PSZ SP-FOOD PREPARATION AREA-SPACE FUNCTION SYS-3 FLR-1 SCH-B HPLCMT-EAST ZN, Sum of Air Terminal Minimum Heating Flow Rates [m3/s], 2.93563
 Component Sizing Information, AirLoopHVAC, SYS_3_PSZ SP-FOOD PREPARATION AREA-SPACE FUNCTION SYS-3 FLR-1 SCH-B HPLCMT-EAST ZN, Sum of Air Terminal Maximum Flow Rates [m3/s], 2.93563
 Component Sizing Information, AirLoopHVAC, SYS_3_PSZ SP-FOOD PREPARATION AREA-SPACE FUNCTION SYS-3 FLR-1 SCH-B HPLCMT-EAST ZN, Adjusted Heating Design Air Flow Rate [m3/s], 2.93563
 Component Sizing Information, AirLoopHVAC, SYS_3_PSZ SP-FOOD PREPARATION AREA-SPACE FUNCTION SYS-3 FLR-1 SCH-B HPLCMT-EAST ZN, Adjusted Cooling Design Air Flow Rate [m3/s], 2.93563
 Component Sizing Information, AirLoopHVAC, SYS_3_PSZ SP-FOOD PREPARATION AREA-SPACE FUNCTION SYS-3 FLR-1 SCH-B HPLCMT-EAST ZN, Adjusted Main Design Air Flow Rate [m3/s], 2.93563
 Component Sizing Information, AirLoopHVAC, SYS_3_PSZ SP-FOOD PREPARATION AREA-SPACE FUNCTION SYS-3 FLR-1 SCH-B HPLCMT-EAST ZN, User Heating Air Flow Ratio [], 1.00000
 Component Sizing Information, AirLoopHVAC, SYS_3_PSZ SP-FOOD PREPARATION AREA-SPACE FUNCTION SYS-3 FLR-1 SCH-B HPLCMT-EAST ZN, Calculated Heating Air Flow Ratio [], 1.00000
 Component Sizing Information, AirLoopHVAC, SYS_3_PSZ SP-LABORATORY - CLASSROOMS-SPACE FUNCTION SYS-3 FLR-1 SCH-D HPLCMT-WEST ZN, Sum of Air Terminal Maximum Heating Flow Rates [m3/s], 4.09575
 Component Sizing Information, AirLoopHVAC, SYS_3_PSZ SP-LABORATORY - CLASSROOMS-SPACE FUNCTION SYS-3 FLR-1 SCH-D HPLCMT-WEST ZN, Sum of Air Terminal Minimum Heating Flow Rates [m3/s], 4.09575
 Component Sizing Information, AirLoopHVAC, SYS_3_PSZ SP-LABORATORY - CLASSROOMS-SPACE FUNCTION SYS-3 FLR-1 SCH-D HPLCMT-WEST ZN, Sum of Air Terminal Maximum Flow Rates [m3/s], 4.09575
 Component Sizing Information, AirLoopHVAC, SYS_3_PSZ SP-LABORATORY - CLASSROOMS-SPACE FUNCTION SYS-3 FLR-1 SCH-D HPLCMT-WEST ZN, Adjusted Heating Design Air Flow Rate [m3/s], 4.09575
 Component Sizing Information, AirLoopHVAC, SYS_3_PSZ SP-LABORATORY - CLASSROOMS-SPACE FUNCTION SYS-3 FLR-1 SCH-D HPLCMT-WEST ZN, Adjusted Cooling Design Air Flow Rate [m3/s], 4.09575
 Component Sizing Information, AirLoopHVAC, SYS_3_PSZ SP-LABORATORY - CLASSROOMS-SPACE FUNCTION SYS-3 FLR-1 SCH-D HPLCMT-WEST ZN, Adjusted Main Design Air Flow Rate [m3/s], 4.09575
 Component Sizing Information, AirLoopHVAC, SYS_3_PSZ SP-LABORATORY - CLASSROOMS-SPACE FUNCTION SYS-3 FLR-1 SCH-D HPLCMT-WEST ZN, User Heating Air Flow Ratio [], 1.00000
 Component Sizing Information, AirLoopHVAC, SYS_3_PSZ SP-LABORATORY - CLASSROOMS-SPACE FUNCTION SYS-3 FLR-1 SCH-D HPLCMT-WEST ZN, Calculated Heating Air Flow Ratio [], 1.00000
 Component Sizing Information, AirLoopHVAC, SYS_1_MAKE-UP AIR UNIT, Design Supply Air Flow Rate [m3/s], 1.04775
 Component Sizing Information, AirLoopHVAC, SYS_3_PSZ SP-ELECTRICAL/MECHANICAL ROOM-SCH-C-SPACE FUNCTION SYS-3 FLR-1 SCH-C HPLCMT-CORE ZN, Design Supply Air Flow Rate [m3/s], 0.76200
 Component Sizing Information, AirLoopHVAC, SYS_3_PSZ SP-ELECTRICAL/MECHANICAL ROOM-SCH-D-SPACE FUNCTION SYS-3 FLR-1 SCH-D HPLCMT-SOUTH ZN, Design Supply Air Flow Rate [m3/s], 0.57150
 Component Sizing Information, AirLoopHVAC, SYS_3_PSZ SP-FOOD PREPARATION AREA-SPACE FUNCTION SYS-3 FLR-1 SCH-B HPLCMT-EAST ZN, Design Supply Air Flow Rate [m3/s], 2.93563
 Component Sizing Information, AirLoopHVAC, SYS_3_PSZ SP-LABORATORY - CLASSROOMS-SPACE FUNCTION SYS-3 FLR-1 SCH-D HPLCMT-WEST ZN, Design Supply Air Flow Rate [m3/s], 4.09575
!<Controller:MechanicalVentilation>,Name,Availability Schedule Name,Demand Controlled Ventilation {Yes/No},System Outdoor Air Method,Zone Maximum Outdoor Air Fraction,Number of Zones,Zone Name,DSOA Name,DSZAD Name
 Controller:MechanicalVentilation,CONTROLLER MECHANICAL VENTILATION 2,SYS_3_PSZ SP-ELECTRICAL/MECHANICAL ROOM-SCH-C-SPACE FUNCTION SYS-3 FLR-1 SCH-C HPLCMT-CORE ZN OCC SCH,No,ZoneSum,1.00,1,SP-ELECTRICAL/MECHANICAL ROOM-SCH-C-SPACE FUNCTION SYS-3 FLR-1 SCH-C HPLCMT-CORE ZN,SPACE FUNCTION ELECTRICAL/MECHANICAL ROOM-SCH-C VENTILATION,SP-ELECTRICAL/MECHANICAL ROOM-SCH-C-SPACE FUNCTION SYS-3 FLR-1 SCH-C HPLCMT-CORE ZN DESIGN SPEC ZONE AIR DIST
 Controller:MechanicalVentilation,CONTROLLER MECHANICAL VENTILATION 4,SYS_3_PSZ SP-ELECTRICAL/MECHANICAL ROOM-SCH-D-SPACE FUNCTION SYS-3 FLR-1 SCH-D HPLCMT-SOUTH ZN OCC SCH,No,ZoneSum,1.00,1,SP-ELECTRICAL/MECHANICAL ROOM-SCH-D-SPACE FUNCTION SYS-3 FLR-1 SCH-D HPLCMT-SOUTH ZN,SPACE FUNCTION ELECTRICAL/MECHANICAL ROOM-SCH-D VENTILATION,SP-ELECTRICAL/MECHANICAL ROOM-SCH-D-SPACE FUNCTION SYS-3 FLR-1 SCH-D HPLCMT-SOUTH ZN DESIGN SPEC ZONE AIR DIST
 Controller:MechanicalVentilation,CONTROLLER MECHANICAL VENTILATION 5,SYS_3_PSZ SP-FOOD PREPARATION AREA-SPACE FUNCTION SYS-3 FLR-1 SCH-B HPLCMT-EAST ZN OCC SCH,No,ZoneSum,1.00,1,SP-FOOD PREPARATION AREA-SPACE FUNCTION SYS-3 FLR-1 SCH-B HPLCMT-EAST ZN,SPACE FUNCTION FOOD PREPARATION AREA VENTILATION,SP-FOOD PREPARATION AREA-SPACE FUNCTION SYS-3 FLR-1 SCH-B HPLCMT-EAST ZN DESIGN SPEC ZONE AIR DIST
 Controller:MechanicalVentilation,CONTROLLER MECHANICAL VENTILATION 1,SYS_1_MAKE-UP AIR UNIT OCC SCH,No,ZoneSum,1.00,1,SP-GUEST ROOM-SPACE FUNCTION SYS-1 FLR-1 SCH-F HPLCMT-NORTH ZN,SPACE FUNCTION GUEST ROOM VENTILATION,SP-GUEST ROOM-SPACE FUNCTION SYS-1 FLR-1 SCH-F HPLCMT-NORTH ZN DESIGN SPEC ZONE AIR DIST
 Controller:MechanicalVentilation,CONTROLLER MECHANICAL VENTILATION 3,SYS_3_PSZ SP-LABORATORY - CLASSROOMS-SPACE FUNCTION SYS-3 FLR-1 SCH-D HPLCMT-WEST ZN OCC SCH,No,ZoneSum,1.00,1,SP-LABORATORY - CLASSROOMS-SPACE FUNCTION SYS-3 FLR-1 SCH-D HPLCMT-WEST ZN,SPACE FUNCTION LABORATORY - CLASSROOMS VENTILATION,SP-LABORATORY - CLASSROOMS-SPACE FUNCTION SYS-3 FLR-1 SCH-D HPLCMT-WEST ZN DESIGN SPEC ZONE AIR DIST
 Component Sizing Information, Controller:OutdoorAir, CONTROLLER OUTDOOR AIR 1, Maximum Outdoor Air Flow Rate [m3/s], 1.04775
 Component Sizing Information, Controller:OutdoorAir, CONTROLLER OUTDOOR AIR 1, Minimum Outdoor Air Flow Rate [m3/s], 1.04775
 Component Sizing Information, Coil:Cooling:DX:SingleSpeed, COIL COOLING DX SINGLE SPEED 1 59KBTU/HR 14.0SEER, Design Size Rated Air Flow Rate [m3/s], 1.04775
 Component Sizing Information, Coil:Cooling:DX:SingleSpeed, COIL COOLING DX SINGLE SPEED 1 59KBTU/HR 14.0SEER, Design Size Gross Rated Total Cooling Capacity [W], 17343.98278
 Component Sizing Information, Coil:Cooling:DX:SingleSpeed, COIL COOLING DX SINGLE SPEED 1 59KBTU/HR 14.0SEER, Design Size Gross Rated Sensible Heat Ratio, 0.80066
 DX Cooling Coil Standard Rating Information, Coil:Cooling:DX:SingleSpeed, COIL COOLING DX SINGLE SPEED 1 59KBTU/HR 14.0SEER, 16529.5, 3.09, 10.55, 11.12, 10.40
 Component Sizing Information, Coil:Heating:Water, COIL HEATING WATER 1, Design Size Rated Capacity [W], 96103.89061
 Component Sizing Information, Coil:Heating:Water, COIL HEATING WATER 1, Design Size Maximum Water Flow Rate [m3/s], 1.43539E-003
 Component Sizing Information, Coil:Heating:Water, COIL HEATING WATER 1, Design Size U-Factor Times Area Value [W/K], 1515.87533
! <Water Heating Coil Capacity Information>,Component Type,Name,Nominal Total Capacity {W}
Water Heating Coil Capacity Information,Coil:Heating:Water,COIL HEATING WATER 1,53657.33
 Component Sizing Information, Fan:ConstantVolume, FAN CONSTANT VOLUME 1, Design Size Maximum Flow Rate [m3/s], 1.04775
 Component Sizing Information, Controller:WaterCoil, CONTROLLER WATER COIL 1, Maximum Actuated Flow [m3/s], 1.43539E-003
 Component Sizing Information, Controller:OutdoorAir, CONTROLLER OUTDOOR AIR 2, Maximum Outdoor Air Flow Rate [m3/s], 0.76200
 Component Sizing Information, Controller:OutdoorAir, CONTROLLER OUTDOOR AIR 2, Minimum Outdoor Air Flow Rate [m3/s], 0.76200
 Component Sizing Information, Coil:Cooling:DX:SingleSpeed, COIL COOLING DX SINGLE SPEED 3 46KBTU/HR 14.0SEER, Design Size Rated Air Flow Rate [m3/s], 0.76200
 Component Sizing Information, Coil:Cooling:DX:SingleSpeed, COIL COOLING DX SINGLE SPEED 3 46KBTU/HR 14.0SEER, Design Size Gross Rated Total Cooling Capacity [W], 14457.76341
 Component Sizing Information, Coil:Cooling:DX:SingleSpeed, COIL COOLING DX SINGLE SPEED 3 46KBTU/HR 14.0SEER, Design Size Gross Rated Sensible Heat Ratio, 0.79376
 DX Cooling Coil Standard Rating Information, Coil:Cooling:DX:SingleSpeed, COIL COOLING DX SINGLE SPEED 3 46KBTU/HR 14.0SEER, 13865.0, 3.17, 10.83, 11.42, 10.81
 Component Sizing Information, Coil:Heating:Fuel, COIL HEATING GAS 1, Design Size Nominal Capacity [W], 69893.73862
 Component Sizing Information, Fan:ConstantVolume, FAN CONSTANT VOLUME 3, Design Size Maximum Flow Rate [m3/s], 0.76200
 Component Sizing Information, Controller:OutdoorAir, CONTROLLER OUTDOOR AIR 4, Maximum Outdoor Air Flow Rate [m3/s], 0.57150
 Component Sizing Information, Controller:OutdoorAir, CONTROLLER OUTDOOR AIR 4, Minimum Outdoor Air Flow Rate [m3/s], 0.57150
 Component Sizing Information, Coil:Cooling:DX:SingleSpeed, COIL COOLING DX SINGLE SPEED 5 37KBTU/HR 14.0SEER, Design Size Rated Air Flow Rate [m3/s], 0.57150
 Component Sizing Information, Coil:Cooling:DX:SingleSpeed, COIL COOLING DX SINGLE SPEED 5 37KBTU/HR 14.0SEER, Design Size Gross Rated Total Cooling Capacity [W], 11491.87720
 Component Sizing Information, Coil:Cooling:DX:SingleSpeed, COIL COOLING DX SINGLE SPEED 5 37KBTU/HR 14.0SEER, Design Size Gross Rated Sensible Heat Ratio, 0.77066
 DX Cooling Coil Standard Rating Information, Coil:Cooling:DX:SingleSpeed, COIL COOLING DX SINGLE SPEED 5 37KBTU/HR 14.0SEER, 11047.1, 3.21, 10.94, 11.54, 10.97
 Component Sizing Information, Coil:Heating:Fuel, COIL HEATING GAS 3, Design Size Nominal Capacity [W], 52420.30397
 Component Sizing Information, Fan:ConstantVolume, FAN CONSTANT VOLUME 5, Design Size Maximum Flow Rate [m3/s], 0.57150
 Component Sizing Information, Controller:OutdoorAir, CONTROLLER OUTDOOR AIR 5, Maximum Outdoor Air Flow Rate [m3/s], 2.93563
 Component Sizing Information, Controller:OutdoorAir, CONTROLLER OUTDOOR AIR 5, Minimum Outdoor Air Flow Rate [m3/s], 2.57175
 Component Sizing Information, HeatExchanger:AirToAir:SensibleAndLatent, SYS_3_PSZ SP-FOOD PREPARATION AREA-SPACE FUNCTION SYS-3 FLR-1 SCH-B HPLCMT-EAST ZN ERV, Design Size Nominal Supply Air Flow Rate [m3/s], 2.57175
 Component Sizing Information, Coil:Cooling:DX:SingleSpeed, COIL COOLING DX SINGLE SPEED 6 166KBTU/HR 9.08EER, Design Size Rated Air Flow Rate [m3/s], 2.93563
 Component Sizing Information, Coil:Cooling:DX:SingleSpeed, COIL COOLING DX SINGLE SPEED 6 166KBTU/HR 9.08EER, Design Size Gross Rated Total Cooling Capacity [W], 48595.13048
 Component Sizing Information, Coil:Cooling:DX:SingleSpeed, COIL COOLING DX SINGLE SPEED 6 166KBTU/HR 9.08EER, Design Size Gross Rated Sensible Heat Ratio, 0.80066
 DX Cooling Coil Standard Rating Information, Coil:Cooling:DX:SingleSpeed, COIL COOLING DX SINGLE SPEED 6 166KBTU/HR 9.08EER, 46313.2, 2.64, 9.02, 9.53, 9.05
 Component Sizing Information, Coil:Heating:Fuel, COIL HEATING GAS 4, Design Size Nominal Capacity [W], 244741.25610
 Component Sizing Information, Fan:ConstantVolume, FAN CONSTANT VOLUME 6, Design Size Maximum Flow Rate [m3/s], 2.93563
 Component Sizing Information, Controller:OutdoorAir, CONTROLLER OUTDOOR AIR 3, Maximum Outdoor Air Flow Rate [m3/s], 4.09575
 Component Sizing Information, Controller:OutdoorAir, CONTROLLER OUTDOOR AIR 3, Minimum Outdoor Air Flow Rate [m3/s], 4.09575
 Component Sizing Information, HeatExchanger:AirToAir:SensibleAndLatent, SYS_3_PSZ SP-LABORATORY - CLASSROOMS-SPACE FUNCTION SYS-3 FLR-1 SCH-D HPLCMT-WEST ZN ERV, Design Size Nominal Supply Air Flow Rate [m3/s], 4.09575
 Component Sizing Information, Coil:Cooling:DX:SingleSpeed, COIL COOLING DX SINGLE SPEED 4 239KBTU/HR 8.21EER, Design Size Rated Air Flow Rate [m3/s], 4.09575
 Component Sizing Information, Coil:Cooling:DX:SingleSpeed, COIL COOLING DX SINGLE SPEED 4 239KBTU/HR 8.21EER, Design Size Gross Rated Total Cooling Capacity [W], 75374.89224
 Component Sizing Information, Coil:Cooling:DX:SingleSpeed, COIL COOLING DX SINGLE SPEED 4 239KBTU/HR 8.21EER, Design Size Gross Rated Sensible Heat Ratio, 0.80070
 DX Cooling Coil Standard Rating Information, Coil:Cooling:DX:SingleSpeed, COIL COOLING DX SINGLE SPEED 4 239KBTU/HR 8.21EER, 72189.4, 2.50, 8.52, 9.01, 8.68
 Component Sizing Information, Coil:Heating:Fuel, COIL HEATING GAS 2, Design Size Nominal Capacity [W], 375678.84511
 Component Sizing Information, Fan:ConstantVolume, FAN CONSTANT VOLUME 4, Design Size Maximum Flow Rate [m3/s], 4.09575
Water Heater Information,WaterHeater:Mixed,199GAL NATURALGAS WATER HEATER - 293KBTU/HR 0.805 THERM EFF,0.7550,85760.2,0.807,0.3972
 Component Sizing Information, PlantLoop, HOT WATER LOOP, Maximum Loop Flow Rate [m3/s], 1.81272E-003
 Component Sizing Information, PlantLoop, HOT WATER LOOP, Plant Loop Volume [m3], 0.21753
 Component Sizing Information, Pump:VariableSpeed, PUMP VARIABLE SPEED 1, Design Flow Rate [m3/s], 1.81272E-003
 Component Sizing Information, Pump:VariableSpeed, PUMP VARIABLE SPEED 1, Design Power Consumption [W], 487.50241
 Component Sizing Information, Boiler:HotWater, PRIMARY BOILER 416KBTU/HR 0.83 THERMAL EFF, Design Size Nominal Capacity [W], 121837.31036
 Component Sizing Information, Boiler:HotWater, PRIMARY BOILER 416KBTU/HR 0.83 THERMAL EFF, User-Specified Nominal Capacity [W], 121837.31036
 Component Sizing Information, Boiler:HotWater, PRIMARY BOILER 416KBTU/HR 0.83 THERMAL EFF, Design Size Design Water Flow Rate [m3/s], 1.81272E-003
 Component Sizing Information, Boiler:HotWater, SECONDARY BOILER 0KBTU/HR 0.85 AFUE, Design Size Nominal Capacity [W], 121837.31036
 Component Sizing Information, Boiler:HotWater, SECONDARY BOILER 0KBTU/HR 0.85 AFUE, User-Specified Nominal Capacity [W], 1.00000E-003
 Component Sizing Information, Boiler:HotWater, SECONDARY BOILER 0KBTU/HR 0.85 AFUE, Design Size Design Water Flow Rate [m3/s], 1.81272E-003
 Component Sizing Information, PlantLoop, MAIN SERVICE WATER LOOP, Maximum Loop Flow Rate [m3/s], 3.88384E-004
 Component Sizing Information, PlantLoop, MAIN SERVICE WATER LOOP, Plant Loop Volume [m3], 4.66061E-002
 Component Sizing Information, Pump:ConstantSpeed, SERVICE WATER LOOP PUMP, Design Flow Rate [m3/s], 3.88384E-004
 Component Sizing Information, Pump:ConstantSpeed, SERVICE WATER LOOP PUMP, Design Power Consumption [W], 55.03750
 Component Sizing Information, WaterHeater:Mixed, 199GAL NATURALGAS WATER HEATER - 293KBTU/HR 0.805 THERM EFF, Use Side Design Flow Rate [m3/s], 3.88384E-004
! <Environment>,Environment Name,Environment Type, Start Date, End Date, Start DayOfWeek, Duration {#days}, Source:Start DayOfWeek,  Use Daylight Saving, Use Holidays, Apply Weekend Holiday Rule,  Use Rain Values, Use Snow Values
! <Environment:Special Days>, Special Day Name, Special Day Type, Source, Start Date, Duration {#days}
! <Environment:Daylight Saving>, Daylight Saving Indicator, Source, Start Date, End Date
! <Environment:WarmupDays>, NumberofWarmupDays
Environment,FORT MCMURRAY AP ANN CLG .4% CONDNS DB=>MWB,SizingPeriod:DesignDay,07/21,07/21,SummerDesignDay,1,N/A,N/A,N/A,N/A,N/A,N/A
Environment:Daylight Saving,No,SizingPeriod:DesignDay
! <Environment:Design Day Data>, Max Dry-Bulb Temp {C}, Temp Range {dC}, Temp Range Ind Type, Hum Ind Value at Max Temp, Hum Ind Type,Pressure {Pa}, Wind Direction {deg CW from N}, Wind Speed {m/s}, Clearness, Rain, Snow
! <Environment:Design Day Misc>,DayOfYear,ASHRAE A Coeff,ASHRAE B Coeff,ASHRAE C Coeff,Solar Constant-Annual Variation,Eq of Time {minutes}, Solar Declination Angle {deg}, Solar Model
Environment:Design Day Data,28.90,12.40,DefaultMultipliers,96969,250,3.7,0.00,No,No
Environment:Design Day Misc,202,1084.4,0.2082,0.1365,1.0,-6.23,20.6,ASHRAETau
Environment:WarmupDays,  6
! <Tabular Report>,Style,Unit Conversion
Tabular Report,HTML,None
! <Warmup Convergence Information>,Zone Name,Environment Type/Name,Average Warmup Temperature Difference {deltaC},Std Dev Warmup Temperature Difference {deltaC},Max Temperature Pass/Fail Convergence,Min Temperature Pass/Fail Convergence,Average Warmup Load Difference {W},Std Dev Warmup Load Difference {W},Heating Load Pass/Fail Convergence,Cooling Load Pass/Fail Convergence
 Warmup Convergence Information,SP-ELECTRICAL/MECHANICAL ROOM-SCH-C-SPACE FUNCTION SYS-3 FLR-1 SCH-C HPLCMT-CORE ZN,SizingPeriod: FORT MCMURRAY AP ANN CLG .4% CONDNS DB=>MWB,3.8379979730E-002,6.7999453064E-002,Pass,Pass,0.1292640072,0.5240813187,Pass,Pass
 Warmup Convergence Information,SP-ELECTRICAL/MECHANICAL ROOM-SCH-D-SPACE FUNCTION SYS-3 FLR-1 SCH-D HPLCMT-SOUTH ZN,SizingPeriod: FORT MCMURRAY AP ANN CLG .4% CONDNS DB=>MWB,3.9244113492E-002,7.6344046833E-002,Pass,Pass,0.1170591659,0.4436223426,Pass,Pass
 Warmup Convergence Information,SP-FOOD PREPARATION AREA-SPACE FUNCTION SYS-3 FLR-1 SCH-B HPLCMT-EAST ZN,SizingPeriod: FORT MCMURRAY AP ANN CLG .4% CONDNS DB=>MWB,4.9759449368E-002,0.1112797108,Pass,Pass,0.3891757604,3.3774404940,Pass,Pass
 Warmup Convergence Information,SP-GUEST ROOM-SPACE FUNCTION SYS-1 FLR-1 SCH-F HPLCMT-NORTH ZN,SizingPeriod: FORT MCMURRAY AP ANN CLG .4% CONDNS DB=>MWB,2.3262356000E-002,2.9758539254E-002,Pass,Pass,3.9864641430E-002,9.5398182061E-002,Pass,Pass
 Warmup Convergence Information,SP-LABORATORY - CLASSROOMS-SPACE FUNCTION SYS-3 FLR-1 SCH-D HPLCMT-WEST ZN,SizingPeriod: FORT MCMURRAY AP ANN CLG .4% CONDNS DB=>MWB,5.5318987693E-002,0.1643730240,Pass,Pass,0.1018724146,0.2676199306,Pass,Pass
Environment,FORT MCMURRAY AP ANN HTG 99.6% CONDNS DB,SizingPeriod:DesignDay,01/21,01/21,WinterDesignDay,1,N/A,N/A,N/A,N/A,N/A,N/A
Environment:Daylight Saving,No,SizingPeriod:DesignDay
Environment:Design Day Data,-36.20,0.00,DefaultMultipliers,96969,90,1.0,0.00,No,No
Environment:Design Day Misc, 21,1229.0,0.1415,5.7310E-002,1.0,-11.15,-20.1,ASHRAEClearSky
Environment:WarmupDays,  6
 Warmup Convergence Information,SP-ELECTRICAL/MECHANICAL ROOM-SCH-C-SPACE FUNCTION SYS-3 FLR-1 SCH-C HPLCMT-CORE ZN,SizingPeriod: FORT MCMURRAY AP ANN HTG 99.6% CONDNS DB,5.5556278523E-002,0.1334597752,Pass,Pass,0.3308574666,1.5225869946,Pass,Pass
 Warmup Convergence Information,SP-ELECTRICAL/MECHANICAL ROOM-SCH-D-SPACE FUNCTION SYS-3 FLR-1 SCH-D HPLCMT-SOUTH ZN,SizingPeriod: FORT MCMURRAY AP ANN HTG 99.6% CONDNS DB,5.5717393786E-002,0.1454336728,Pass,Pass,0.4040819192,1.7639740301,Pass,Pass
 Warmup Convergence Information,SP-FOOD PREPARATION AREA-SPACE FUNCTION SYS-3 FLR-1 SCH-B HPLCMT-EAST ZN,SizingPeriod: FORT MCMURRAY AP ANN HTG 99.6% CONDNS DB,7.6647590776E-002,0.2411621953,Pass,Pass,0.1709431376,0.9633189999,Pass,Pass
 Warmup Convergence Information,SP-GUEST ROOM-SPACE FUNCTION SYS-1 FLR-1 SCH-F HPLCMT-NORTH ZN,SizingPeriod: FORT MCMURRAY AP ANN HTG 99.6% CONDNS DB,4.6927171985E-002,4.7063110858E-002,Pass,Pass,3.0959194665E-002,5.6510882882E-002,Pass,Pass
 Warmup Convergence Information,SP-LABORATORY - CLASSROOMS-SPACE FUNCTION SYS-3 FLR-1 SCH-D HPLCMT-WEST ZN,SizingPeriod: FORT MCMURRAY AP ANN HTG 99.6% CONDNS DB,5.5556638600E-002,0.2606717070,Pass,Pass,0.1555165114,0.5137076752,Pass,Pass
! <Program Control Information:Threads/Parallel Sims>, Threading Supported,Maximum Number of Threads, Env Set Threads (OMP_NUM_THREADS), EP Env Set Threads (EP_OMP_NUM_THREADS), IDF Set Threads, Number of Threads Used (Interior Radiant Exchange), Number Nominal Surfaces, Number Parallel Sims
Program Control:Threads/Parallel Sims, No,1, N/A, N/A, N/A, N/A, N/A, N/A
End of Data
