Program Version,EnergyPlus, Version 8.9.0-eba93e8e1b, YMD=2019.03.19 18:36
! <Version>, Version ID
 Version, 8.9
! <Timesteps per Hour>, #TimeSteps, Minutes per TimeStep {minutes}
 Timesteps per Hour,  6, 10
! <System Convergence Limits>, Minimum System TimeStep {minutes}, Max HVAC Iterations, Minimum Plant Iterations, Maximum Plant Iterations
 System Convergence Limits, 1, 20, 2, 8
! <Simulation Control>, Do Zone Sizing, Do System Sizing, Do Plant Sizing, Do Design Days, Do Weather Simulation, Do HVAC Sizing Simulation
 Simulation Control, Yes, Yes, Yes, Yes, No, No
! <Output Reporting Tolerances>, Tolerance for Time Heating Setpoint Not Met, Tolerance for Zone Cooling Setpoint Not Met Time
 Output Reporting Tolerances, 1.000, 1.000, 
! <Site:GroundTemperature:BuildingSurface>,Jan{C},Feb{C},Mar{C},Apr{C},May{C},Jun{C},Jul{C},Aug{C},Sep{C},Oct{C},Nov{C},Dec{C}
 Site:GroundTemperature:BuildingSurface,  19.53,  19.50,  19.54,  19.60,  20.00,  21.64,  22.23,  22.38,  21.45,  20.12,  19.80,  19.63
! <Site:GroundTemperature:FCfactorMethod>,Jan{C},Feb{C},Mar{C},Apr{C},May{C},Jun{C},Jul{C},Aug{C},Sep{C},Oct{C},Nov{C},Dec{C}
 Site:GroundTemperature:FCfactorMethod, -12.27, -13.66, -11.19,  -7.33,   2.77,  10.57,  15.83,  17.43,  14.70,   8.65,   0.56,  -6.95
! <Site:GroundTemperature:Shallow>,Jan{C},Feb{C},Mar{C},Apr{C},May{C},Jun{C},Jul{C},Aug{C},Sep{C},Oct{C},Nov{C},Dec{C}
 Site:GroundTemperature:Shallow,  13.00,  13.00,  13.00,  13.00,  13.00,  13.00,  13.00,  13.00,  13.00,  13.00,  13.00,  13.00
! <Site:GroundTemperature:Deep>,Jan{C},Feb{C},Mar{C},Apr{C},May{C},Jun{C},Jul{C},Aug{C},Sep{C},Oct{C},Nov{C},Dec{C}
 Site:GroundTemperature:Deep,  16.00,  16.00,  16.00,  16.00,  16.00,  16.00,  16.00,  16.00,  16.00,  16.00,  16.00,  16.00
! <Site:GroundReflectance>,Jan{dimensionless},Feb{dimensionless},Mar{dimensionless},Apr{dimensionless},May{dimensionless},Jun{dimensionless},Jul{dimensionless},Aug{dimensionless},Sep{dimensionless},Oct{dimensionless},Nov{dimensionless},Dec{dimensionless}
 Site:GroundReflectance,  0.20,  0.20,  0.20,  0.20,  0.20,  0.20,  0.20,  0.20,  0.20,  0.20,  0.20,  0.20
! <Site:GroundReflectance:SnowModifier>, Normal, Daylighting {dimensionless}
 Site:GroundReflectance:SnowModifier,   1.000,   1.000
! <Site:GroundReflectance:Snow>,Jan{dimensionless},Feb{dimensionless},Mar{dimensionless},Apr{dimensionless},May{dimensionless},Jun{dimensionless},Jul{dimensionless},Aug{dimensionless},Sep{dimensionless},Oct{dimensionless},Nov{dimensionless},Dec{dimensionless}
 Site:GroundReflectance:Snow,  0.20,  0.20,  0.20,  0.20,  0.20,  0.20,  0.20,  0.20,  0.20,  0.20,  0.20,  0.20
! <Site:GroundReflectance:Snow:Daylighting>,Jan{dimensionless},Feb{dimensionless},Mar{dimensionless},Apr{dimensionless},May{dimensionless},Jun{dimensionless},Jul{dimensionless},Aug{dimensionless},Sep{dimensionless},Oct{dimensionless},Nov{dimensionless},Dec{dimensionless}
 Site:GroundReflectance:Snow:Daylighting,  0.20,  0.20,  0.20,  0.20,  0.20,  0.20,  0.20,  0.20,  0.20,  0.20,  0.20,  0.20
! <Environment:Weather Station>,Wind Sensor Height Above Ground {m},Wind Speed Profile Exponent {},Wind Speed Profile Boundary Layer Thickness {m},Air Temperature Sensor Height Above Ground {m},Wind Speed Modifier Coefficient-Internal,Temperature Modifier Coefficient-Internal
Environment:Weather Station,10.000,0.140,270.000,1.500,1.586,9.750E-003
! <Site:Location>, Location Name, Latitude {N+/S- Deg}, Longitude {E+/W- Deg},  Time Zone Number {GMT+/-}, Elevation {m},  Standard Pressure at Elevation {Pa}, Standard RhoAir at Elevation
Site:Location,Fort McMurray AP AB CAN CWEC2016 WMO#=716890,56.65,-111.22,-7.00,369.10,96969,1.1525
! <Building Information>, Building Name,North Axis {deg},Terrain,  Loads Convergence Tolerance Value,Temperature Convergence Tolerance Value,  Solar Distribution,Maximum Number of Warmup Days,Minimum Number of Warmup Days
 Building Information,Building 1,0.000,Suburbs,4.00000E-002,0.40000,FullExterior,25,6
! <Inside Convection Algorithm>, Algorithm {Simple | TARP | CeilingDiffuser | AdaptiveConvectionAlgorithm}
Inside Convection Algorithm,TARP
! <Outside Convection Algorithm>, Algorithm {SimpleCombined | TARP | MoWitt | DOE-2 | AdaptiveConvectionAlgorithm}
Outside Convection Algorithm,TARP
! <Sky Radiance Distribution>, Value {Anisotropic}
Sky Radiance Distribution,Anisotropic
! <Zone Air Solution Algorithm>, Value {ThirdOrderBackwardDifference | AnalyticalSolution | EulerMethod}
 Zone Air Solution Algorithm, ThirdOrderBackwardDifference
! <Zone Air Carbon Dioxide Balance Simulation>, Simulation {Yes/No}, Carbon Dioxide Concentration
 Zone Air Carbon Dioxide Balance Simulation, No,N/A
! <Zone Air Generic Contaminant Balance Simulation>, Simulation {Yes/No}, Generic Contaminant Concentration
 Zone Air Generic Contaminant Balance Simulation, No,N/A
! <Zone Air Mass Flow Balance Simulation>, Enforce Mass Balance, Adjust Zone Mixing, Adjust Zone Infiltration {AddInfiltration | AdjustInfiltration | None}, Infiltration Zones {MixingSourceZonesOnly | AllZones}
 Zone Air Mass Flow Balance Simulation, No,N/A,N/A,N/A
! <HVACSystemRootFindingAlgorithm>, Value {RegulaFalsi | Bisection | BisectionThenRegulaFalsi | RegulaFalsiThenBisection}
 HVACSystemRootFindingAlgorithm, RegulaFalsi
! <Environment:Site Atmospheric Variation>,Wind Speed Profile Exponent {},Wind Speed Profile Boundary Layer Thickness {m},Air Temperature Gradient Coefficient {K/m}
Environment:Site Atmospheric Variation,0.220,370.000,6.500000E-003
! <Surface Geometry>,Starting Corner,Vertex Input Direction,Coordinate System,Daylight Reference Point Coordinate System,Rectangular (Simple) Surface Coordinate System
 Surface Geometry,UpperLeftCorner,Counterclockwise,RelativeCoordinateSystem,RelativeCoordinateSystem,RelativeToZoneOrigin
! <Surface Heat Transfer Algorithm>, Value {CTF - ConductionTransferFunction | EMPD - MoisturePenetrationDepthConductionTransferFunction | CondFD - ConductionFiniteDifference | HAMT - CombinedHeatAndMoistureFiniteElement} - Description,Inside Surface Max Temperature Limit{C}, Surface Convection Coefficient Lower Limit {W/m2-K}, Surface Convection Coefficient Upper Limit {W/m2-K}
Surface Heat Transfer Algorithm, CTF - ConductionTransferFunction,200,0.10,1000.0
! <Shading Summary>, Number of Fixed Detached Shades, Number of Building Detached Shades, Number of Attached Shades
 Shading Summary,0,0,0
! <Zone Summary>, Number of Zones, Number of Zone Surfaces, Number of SubSurfaces
 Zone Summary,20,137,17
! <Zone Information>,Zone Name,North Axis {deg},Origin X-Coordinate {m},Origin Y-Coordinate {m},Origin Z-Coordinate {m},Centroid X-Coordinate {m},Centroid Y-Coordinate {m},Centroid Z-Coordinate {m},Type,Zone Multiplier,Zone List Multiplier,Minimum X {m},Maximum X {m},Minimum Y {m},Maximum Y {m},Minimum Z {m},Maximum Z {m},Ceiling Height {m},Volume {m3},Zone Inside Convection Algorithm {Simple-Detailed-CeilingDiffuser-TrombeWall},Zone Outside Convection Algorithm {Simple-Detailed-Tarp-MoWitt-DOE-2-BLAST}, Floor Area {m2},Exterior Gross Wall Area {m2},Exterior Net Wall Area {m2},Exterior Window Area {m2}, Number of Surfaces, Number of SubSurfaces, Number of Shading SubSurfaces,  Part of Total Building Area
 Zone Information, ALL_ST=DINING - BAR LOUNGE/LEISURE_FL=STORY 4_SCH=B,0.0,25.00,25.00,11.40,50.00,50.00,13.30,1,1,1,25.00,75.00,25.00,75.00,11.40,15.20,3.80,9500.00,TARP,TARP,2500.00,0.00,0.00,125.00,6,1,0,Yes
 Zone Information, ALL_ST=DINING - FAMILY SPACE_FL=STORY 4_SCH=B,0.0,75.00,25.00,11.40,89.15,50.00,13.30,1,1,1,75.00,100.00,0.00,100.00,11.40,15.20,3.80,7125.00,TARP,TARP,1875.00,380.00,285.00,188.75,6,2,0,Yes
 Zone Information, ALL_ST=DINING - OTHER_FL=STORY 4_SCH=B,0.0,25.00,75.00,11.40,50.00,89.15,13.30,1,1,1,0.00,100.00,75.00,100.00,11.40,15.20,3.80,7125.00,TARP,TARP,1875.00,380.00,285.00,188.75,6,2,0,Yes
 Zone Information, ALL_ST=DRESS./FITT. - PERFORMANCE ARTS_FL=STORY 3_SCH=C,0.0,0.00,0.00,7.60,10.85,50.00,9.50,1,1,1,0.00,25.00,0.00,100.00,7.60,11.40,3.80,7125.00,TARP,TARP,1875.00,380.00,285.00,95.00,6,1,0,Yes
 Zone Information, ALL_ST=FIRE STATION - ENGINE ROOM_FL=STORY 2_SCH=H,0.0,25.00,75.00,3.80,50.00,89.15,5.70,1,1,1,0.00,100.00,75.00,100.00,3.80,7.60,3.80,7125.00,TARP,TARP,1875.00,380.00,285.00,95.00,6,1,0,Yes
 Zone Information, ALL_ST=FOOD PREPARATION - VENTED_FL=STORY 2_SCH=B,0.0,0.00,0.00,3.80,50.00,10.85,5.70,1,1,1,0.00,100.00,0.00,25.00,3.80,7.60,3.80,7125.00,TARP,TARP,1875.00,380.00,285.00,95.00,6,1,0,Yes
 Zone Information, ALL_ST=FOOD PREPARATION_FL=STORY 3_SCH=B,0.0,75.00,25.00,7.60,89.15,50.00,9.50,1,1,1,75.00,100.00,0.00,100.00,7.60,11.40,3.80,7125.00,TARP,TARP,1875.00,380.00,285.00,95.00,6,1,0,Yes
 Zone Information, ALL_ST=GYM - AUDIENCE_FL=STORY 2_SCH=B,0.0,25.00,25.00,3.80,50.00,50.00,5.70,1,1,1,25.00,75.00,25.00,75.00,3.80,7.60,3.80,9500.00,TARP,TARP,2500.00,0.00,0.00,0.00,6,0,0,Yes
 Zone Information, DU_BT=SPACE FUNCTION_ST=DORMITORY - LIVING QUARTERS_FL=STORY 3_SCHG,0.0,25.00,25.00,7.60,50.00,50.00,9.50,1,1,1,25.00,75.00,25.00,75.00,7.60,11.40,3.80,9500.00,TARP,TARP,2500.00,0.00,0.00,0.00,6,0,0,Yes
 Zone Information, DU_BT=SPACE FUNCTION_ST=DWELLING UNIT(S)_FL=STORY 3_SCHG,0.0,0.00,0.00,7.60,50.00,10.85,9.50,1,1,1,0.00,100.00,0.00,25.00,7.60,11.40,3.80,7125.00,TARP,TARP,1875.00,380.00,285.00,95.00,6,1,0,Yes
 Zone Information, DU_BT=SPACE FUNCTION_ST=FIRE STATION - QUARTERS_FL=STORY 4_SCHG,0.0,0.00,0.00,11.40,10.85,50.00,13.30,1,1,1,0.00,25.00,0.00,100.00,11.40,15.20,3.80,7125.00,TARP,TARP,1875.00,380.00,285.00,188.75,6,2,0,Yes
 Zone Information, WILD_ST=ELECTRICAL/MECHANICAL-SCH-A_FL=STORY 1_SCH=B,0.0,0.00,0.00,0.00,10.85,50.00,1.90,1,1,1,0.00,25.00,0.00,100.00,0.00,3.80,3.80,7125.00,TARP,TARP,1875.00,0.00,0.00,0.00,6,0,0,Yes
 Zone Information, WILD_ST=ELECTRICAL/MECHANICAL-SCH-B_FL=STORY 4_SCH=B,0.0,0.00,0.00,11.40,50.00,10.85,13.30,1,1,1,0.00,100.00,0.00,25.00,11.40,15.20,3.80,7125.00,TARP,TARP,1875.00,380.00,285.00,188.75,6,2,0,Yes
 Zone Information, WILD_ST=ELECTRICAL/MECHANICAL-SCH-C_FL=STORY 1_SCH=B,0.0,75.00,25.00,0.00,89.15,50.00,1.90,1,1,1,75.00,100.00,0.00,100.00,0.00,3.80,3.80,7125.00,TARP,TARP,1875.00,0.00,0.00,0.00,6,0,0,Yes
 Zone Information, WILD_ST=ELECTRICAL/MECHANICAL-SCH-D_FL=STORY 1_SCH=B,0.0,0.00,0.00,0.00,50.00,10.85,1.90,1,1,1,0.00,100.00,0.00,25.00,0.00,3.80,3.80,7125.00,TARP,TARP,1875.00,0.00,0.00,0.00,6,0,0,Yes
 Zone Information, WILD_ST=ELECTRICAL/MECHANICAL-SCH-E_FL=STORY 1_SCH=B,0.0,25.00,25.00,0.00,50.00,50.00,1.90,1,1,1,25.00,75.00,25.00,75.00,0.00,3.80,3.80,9500.00,TARP,TARP,2500.00,0.00,0.00,0.00,6,0,0,Yes
 Zone Information, WILD_ST=ELECTRICAL/MECHANICAL-SCH-F_FL=STORY 1_SCH=B,0.0,25.00,75.00,0.00,50.00,89.15,1.90,1,1,1,0.00,100.00,75.00,100.00,0.00,3.80,3.80,7125.00,TARP,TARP,1875.00,0.00,0.00,0.00,6,0,0,Yes
 Zone Information, WILD_ST=ELECTRICAL/MECHANICAL-SCH-G_FL=STORY 2_SCH=B,0.0,0.00,0.00,3.80,10.85,50.00,5.70,1,1,1,0.00,25.00,0.00,100.00,3.80,7.60,3.80,7125.00,TARP,TARP,1875.00,380.00,285.00,95.00,6,1,0,Yes
 Zone Information, WILD_ST=ELECTRICAL/MECHANICAL-SCH-H_FL=STORY 3_SCH=B,0.0,25.00,75.00,7.60,50.00,89.15,9.50,1,1,1,0.00,100.00,75.00,100.00,7.60,11.40,3.80,7125.00,TARP,TARP,1875.00,380.00,285.00,95.00,6,1,0,Yes
 Zone Information, WILD_ST=ELECTRICAL/MECHANICAL-SCH-I_FL=STORY 2_SCH=B,0.0,75.00,25.00,3.80,89.15,50.00,5.70,1,1,1,75.00,100.00,0.00,100.00,3.80,7.60,3.80,7125.00,TARP,TARP,1875.00,380.00,285.00,95.00,6,1,0,Yes
! <Zone Internal Gains Nominal>,Zone Name, Floor Area {m2},# Occupants,Area per Occupant {m2/person},Occupant per Area {person/m2},Interior Lighting {W/m2},Electric Load {W/m2},Gas Load {W/m2},Other Load {W/m2},Hot Water Eq {W/m2},Steam Equipment {W/m2},Sum Loads per Area {W/m2},Outdoor Controlled Baseboard Heat
 Zone Internal Gains Nominal, ALL_ST=DINING - BAR LOUNGE/LEISURE_FL=STORY 4_SCH=B,2500.00,250.0,10.000,10.000E-002,14.100,1.000,0.000,0.000,0.000,0.000,15.100,No
 Zone Internal Gains Nominal, ALL_ST=DINING - FAMILY SPACE_FL=STORY 4_SCH=B,1875.00,187.5,10.000,10.000E-002,9.600,1.000,0.000,0.000,0.000,0.000,10.600,No
 Zone Internal Gains Nominal, ALL_ST=DINING - OTHER_FL=STORY 4_SCH=B,1875.00,187.5,10.000,10.000E-002,7.000,1.000,0.000,0.000,0.000,0.000,8.000,No
 Zone Internal Gains Nominal, ALL_ST=DRESS./FITT. - PERFORMANCE ARTS_FL=STORY 3_SCH=C,1875.00,62.6,29.969,3.337E-002,3.870,2.500,0.000,0.000,0.000,0.000,6.370,No
 Zone Internal Gains Nominal, ALL_ST=FIRE STATION - ENGINE ROOM_FL=STORY 2_SCH=H,1875.00,75.1,24.974,4.004E-002,6.000,2.500,0.000,0.000,0.000,0.000,8.500,No
 Zone Internal Gains Nominal, ALL_ST=FOOD PREPARATION - VENTED_FL=STORY 2_SCH=B,1875.00,93.8,19.979,5.005E-002,10.700,10.000,0.000,0.000,0.000,0.000,20.700,No
 Zone Internal Gains Nominal, ALL_ST=FOOD PREPARATION_FL=STORY 3_SCH=B,1875.00,93.8,19.979,5.005E-002,10.700,10.000,0.000,0.000,0.000,0.000,20.700,No
 Zone Internal Gains Nominal, ALL_ST=GYM - AUDIENCE_FL=STORY 2_SCH=B,2500.00,500.0,5.000,0.200,4.600,0.000,0.000,0.000,0.000,0.000,4.600,No
 Zone Internal Gains Nominal, DU_BT=SPACE FUNCTION_ST=DORMITORY - LIVING QUARTERS_FL=STORY 3_SCHG,2500.00,100.1,24.974,4.004E-002,4.100,2.500,0.000,0.000,0.000,0.000,6.600,No
 Zone Internal Gains Nominal, DU_BT=SPACE FUNCTION_ST=DWELLING UNIT(S)_FL=STORY 3_SCHG,1875.00,31.3,59.937,1.668E-002,5.000,5.000,0.000,0.000,0.000,0.000,10.000,No
 Zone Internal Gains Nominal, DU_BT=SPACE FUNCTION_ST=FIRE STATION - QUARTERS_FL=STORY 4_SCHG,1875.00,75.1,24.974,4.004E-002,3.400,2.500,0.000,0.000,0.000,0.000,5.900,No
 Zone Internal Gains Nominal, WILD_ST=ELECTRICAL/MECHANICAL-SCH-A_FL=STORY 1_SCH=B,1875.00,9.3,201.963,4.951E-003,13.300,1.000,0.000,0.000,0.000,0.000,14.300,No
 Zone Internal Gains Nominal, WILD_ST=ELECTRICAL/MECHANICAL-SCH-B_FL=STORY 4_SCH=B,1875.00,9.3,201.963,4.951E-003,13.300,1.000,0.000,0.000,0.000,0.000,14.300,No
 Zone Internal Gains Nominal, WILD_ST=ELECTRICAL/MECHANICAL-SCH-C_FL=STORY 1_SCH=B,1875.00,9.3,201.963,4.951E-003,13.300,1.000,0.000,0.000,0.000,0.000,14.300,No
 Zone Internal Gains Nominal, WILD_ST=ELECTRICAL/MECHANICAL-SCH-D_FL=STORY 1_SCH=B,1875.00,9.3,201.963,4.951E-003,13.300,1.000,0.000,0.000,0.000,0.000,14.300,No
 Zone Internal Gains Nominal, WILD_ST=ELECTRICAL/MECHANICAL-SCH-E_FL=STORY 1_SCH=B,2500.00,12.4,201.963,4.951E-003,13.300,1.000,0.000,0.000,0.000,0.000,14.300,No
 Zone Internal Gains Nominal, WILD_ST=ELECTRICAL/MECHANICAL-SCH-F_FL=STORY 1_SCH=B,1875.00,9.3,201.963,4.951E-003,13.300,1.000,0.000,0.000,0.000,0.000,14.300,No
 Zone Internal Gains Nominal, WILD_ST=ELECTRICAL/MECHANICAL-SCH-G_FL=STORY 2_SCH=B,1875.00,9.3,201.963,4.951E-003,13.300,1.000,0.000,0.000,0.000,0.000,14.300,No
 Zone Internal Gains Nominal, WILD_ST=ELECTRICAL/MECHANICAL-SCH-H_FL=STORY 3_SCH=B,1875.00,9.3,201.963,4.951E-003,13.300,1.000,0.000,0.000,0.000,0.000,14.300,No
 Zone Internal Gains Nominal, WILD_ST=ELECTRICAL/MECHANICAL-SCH-I_FL=STORY 2_SCH=B,1875.00,9.3,201.963,4.951E-003,13.300,1.000,0.000,0.000,0.000,0.000,14.300,No
! <People Internal Gains Nominal>,Name,Schedule Name,Zone Name,Zone Floor Area {m2},# Zone Occupants,Number of People {},People/Floor Area {person/m2},Floor Area per person {m2/person},Fraction Radiant,Fraction Convected,Sensible Fraction Calculation,Activity level,ASHRAE 55 Warnings,Carbon Dioxide Generation Rate,Nominal Minimum Number of People,Nominal Maximum Number of People
 People Internal Gains Nominal, ALL_ST=DINING - BAR LOUNGE/LEISURE_FL=STORY 4_SCH=B SPACE FUNCTION DINING - BAR LOUNGE/LEISURE PEOPLE,NECB-B-OCCUPANCY,ALL_ST=DINING - BAR LOUNGE/LEISURE_FL=STORY 4_SCH=B,2500.00,250.0,250.0,10.000E-002,10.000,0.300,0.700,AutoCalculate,NECB-ACTIVITY,No,3.8200E-008,0,225
 People Internal Gains Nominal, ALL_ST=DINING - FAMILY SPACE_FL=STORY 4_SCH=B SPACE FUNCTION DINING - FAMILY SPACE PEOPLE,NECB-B-OCCUPANCY,ALL_ST=DINING - FAMILY SPACE_FL=STORY 4_SCH=B,1875.00,187.5,187.5,10.000E-002,10.000,0.300,0.700,AutoCalculate,NECB-ACTIVITY,No,3.8200E-008,0,169
 People Internal Gains Nominal, ALL_ST=DINING - OTHER_FL=STORY 4_SCH=B SPACE FUNCTION DINING - OTHER PEOPLE,NECB-B-OCCUPANCY,ALL_ST=DINING - OTHER_FL=STORY 4_SCH=B,1875.00,187.5,187.5,10.000E-002,10.000,0.300,0.700,AutoCalculate,NECB-ACTIVITY,No,3.8200E-008,0,169
 People Internal Gains Nominal, DU_BT=SPACE FUNCTION_ST=DORMITORY - LIVING QUARTERS_FL=STORY 3_SCHG SPACE FUNCTION DORMITORY - LIVING QUARTERS PEOPLE,NECB-G-OCCUPANCY,DU_BT=SPACE FUNCTION_ST=DORMITORY - LIVING QUARTERS_FL=STORY 3_SCHG,2500.00,100.1,100.1,4.004E-002,24.974,0.300,0.700,AutoCalculate,NECB-ACTIVITY,No,3.8200E-008,30,90
 People Internal Gains Nominal, ALL_ST=DRESS./FITT. - PERFORMANCE ARTS_FL=STORY 3_SCH=C SPACE FUNCTION DRESS./FITT. - PERFORMANCE ARTS PEOPLE,NECB-C-OCCUPANCY,ALL_ST=DRESS./FITT. - PERFORMANCE ARTS_FL=STORY 3_SCH=C,1875.00,62.6,62.6,3.337E-002,29.969,0.300,0.700,AutoCalculate,NECB-ACTIVITY,No,3.8200E-008,0,56
 People Internal Gains Nominal, DU_BT=SPACE FUNCTION_ST=DWELLING UNIT(S)_FL=STORY 3_SCHG SPACE FUNCTION DWELLING UNIT(S) PEOPLE,NECB-G-OCCUPANCY,DU_BT=SPACE FUNCTION_ST=DWELLING UNIT(S)_FL=STORY 3_SCHG,1875.00,31.3,31.3,1.668E-002,59.937,0.300,0.700,AutoCalculate,NECB-ACTIVITY,No,3.8200E-008,9,28
 People Internal Gains Nominal, WILD_ST=ELECTRICAL/MECHANICAL-SCH-A_FL=STORY 1_SCH=B SPACE FUNCTION ELECTRICAL/MECHANICAL-SCH-B PEOPLE,NECB-B-OCCUPANCY,WILD_ST=ELECTRICAL/MECHANICAL-SCH-A_FL=STORY 1_SCH=B,1875.00,9.3,9.3,4.951E-003,201.963,0.300,0.700,AutoCalculate,NECB-ACTIVITY,No,3.8200E-008,0,8
 People Internal Gains Nominal, WILD_ST=ELECTRICAL/MECHANICAL-SCH-B_FL=STORY 4_SCH=B SPACE FUNCTION ELECTRICAL/MECHANICAL-SCH-B PEOPLE,NECB-B-OCCUPANCY,WILD_ST=ELECTRICAL/MECHANICAL-SCH-B_FL=STORY 4_SCH=B,1875.00,9.3,9.3,4.951E-003,201.963,0.300,0.700,AutoCalculate,NECB-ACTIVITY,No,3.8200E-008,0,8
 People Internal Gains Nominal, WILD_ST=ELECTRICAL/MECHANICAL-SCH-C_FL=STORY 1_SCH=B SPACE FUNCTION ELECTRICAL/MECHANICAL-SCH-B PEOPLE,NECB-B-OCCUPANCY,WILD_ST=ELECTRICAL/MECHANICAL-SCH-C_FL=STORY 1_SCH=B,1875.00,9.3,9.3,4.951E-003,201.963,0.300,0.700,AutoCalculate,NECB-ACTIVITY,No,3.8200E-008,0,8
 People Internal Gains Nominal, WILD_ST=ELECTRICAL/MECHANICAL-SCH-D_FL=STORY 1_SCH=B SPACE FUNCTION ELECTRICAL/MECHANICAL-SCH-B PEOPLE,NECB-B-OCCUPANCY,WILD_ST=ELECTRICAL/MECHANICAL-SCH-D_FL=STORY 1_SCH=B,1875.00,9.3,9.3,4.951E-003,201.963,0.300,0.700,AutoCalculate,NECB-ACTIVITY,No,3.8200E-008,0,8
 People Internal Gains Nominal, WILD_ST=ELECTRICAL/MECHANICAL-SCH-E_FL=STORY 1_SCH=B SPACE FUNCTION ELECTRICAL/MECHANICAL-SCH-B PEOPLE,NECB-B-OCCUPANCY,WILD_ST=ELECTRICAL/MECHANICAL-SCH-E_FL=STORY 1_SCH=B,2500.00,12.4,12.4,4.951E-003,201.963,0.300,0.700,AutoCalculate,NECB-ACTIVITY,No,3.8200E-008,0,11
 People Internal Gains Nominal, WILD_ST=ELECTRICAL/MECHANICAL-SCH-F_FL=STORY 1_SCH=B SPACE FUNCTION ELECTRICAL/MECHANICAL-SCH-B PEOPLE,NECB-B-OCCUPANCY,WILD_ST=ELECTRICAL/MECHANICAL-SCH-F_FL=STORY 1_SCH=B,1875.00,9.3,9.3,4.951E-003,201.963,0.300,0.700,AutoCalculate,NECB-ACTIVITY,No,3.8200E-008,0,8
 People Internal Gains Nominal, WILD_ST=ELECTRICAL/MECHANICAL-SCH-G_FL=STORY 2_SCH=B SPACE FUNCTION ELECTRICAL/MECHANICAL-SCH-B PEOPLE,NECB-B-OCCUPANCY,WILD_ST=ELECTRICAL/MECHANICAL-SCH-G_FL=STORY 2_SCH=B,1875.00,9.3,9.3,4.951E-003,201.963,0.300,0.700,AutoCalculate,NECB-ACTIVITY,No,3.8200E-008,0,8
 People Internal Gains Nominal, WILD_ST=ELECTRICAL/MECHANICAL-SCH-H_FL=STORY 3_SCH=B SPACE FUNCTION ELECTRICAL/MECHANICAL-SCH-B PEOPLE,NECB-B-OCCUPANCY,WILD_ST=ELECTRICAL/MECHANICAL-SCH-H_FL=STORY 3_SCH=B,1875.00,9.3,9.3,4.951E-003,201.963,0.300,0.700,AutoCalculate,NECB-ACTIVITY,No,3.8200E-008,0,8
 People Internal Gains Nominal, WILD_ST=ELECTRICAL/MECHANICAL-SCH-I_FL=STORY 2_SCH=B SPACE FUNCTION ELECTRICAL/MECHANICAL-SCH-B PEOPLE,NECB-B-OCCUPANCY,WILD_ST=ELECTRICAL/MECHANICAL-SCH-I_FL=STORY 2_SCH=B,1875.00,9.3,9.3,4.951E-003,201.963,0.300,0.700,AutoCalculate,NECB-ACTIVITY,No,3.8200E-008,0,8
 People Internal Gains Nominal, ALL_ST=FIRE STATION - ENGINE ROOM_FL=STORY 2_SCH=H SPACE FUNCTION FIRE STATION - ENGINE ROOM PEOPLE,NECB-H-OCCUPANCY,ALL_ST=FIRE STATION - ENGINE ROOM_FL=STORY 2_SCH=H,1875.00,75.1,75.1,4.004E-002,24.974,0.300,0.700,AutoCalculate,NECB-ACTIVITY,No,3.8200E-008,68,68
 People Internal Gains Nominal, DU_BT=SPACE FUNCTION_ST=FIRE STATION - QUARTERS_FL=STORY 4_SCHG SPACE FUNCTION FIRE STATION - QUARTERS PEOPLE,NECB-G-OCCUPANCY,DU_BT=SPACE FUNCTION_ST=FIRE STATION - QUARTERS_FL=STORY 4_SCHG,1875.00,75.1,75.1,4.004E-002,24.974,0.300,0.700,AutoCalculate,NECB-ACTIVITY,No,3.8200E-008,23,68
 People Internal Gains Nominal, ALL_ST=FOOD PREPARATION_FL=STORY 3_SCH=B SPACE FUNCTION FOOD PREPARATION PEOPLE,NECB-B-OCCUPANCY,ALL_ST=FOOD PREPARATION_FL=STORY 3_SCH=B,1875.00,93.8,93.8,5.005E-002,19.979,0.300,0.700,AutoCalculate,NECB-ACTIVITY,No,3.8200E-008,0,84
 People Internal Gains Nominal, ALL_ST=FOOD PREPARATION - VENTED_FL=STORY 2_SCH=B SPACE FUNCTION FOOD PREPARATION - VENTED PEOPLE,NECB-B-OCCUPANCY,ALL_ST=FOOD PREPARATION - VENTED_FL=STORY 2_SCH=B,1875.00,93.8,93.8,5.005E-002,19.979,0.300,0.700,AutoCalculate,NECB-ACTIVITY,No,3.8200E-008,0,84
 People Internal Gains Nominal, ALL_ST=GYM - AUDIENCE_FL=STORY 2_SCH=B SPACE FUNCTION GYM - AUDIENCE PEOPLE,NECB-B-OCCUPANCY,ALL_ST=GYM - AUDIENCE_FL=STORY 2_SCH=B,2500.00,500.0,500.0,0.200,5.000,0.300,0.700,AutoCalculate,NECB-ACTIVITY,No,3.8200E-008,0,450
! <Lights Internal Gains Nominal>,Name,Schedule Name,Zone Name,Zone Floor Area {m2},# Zone Occupants,Lighting Level {W},Lights/Floor Area {W/m2},Lights per person {W/person},Fraction Return Air,Fraction Radiant,Fraction Short Wave,Fraction Convected,Fraction Replaceable,End-Use Category,Nominal Minimum Lighting Level {W},Nominal Maximum Lighting Level {W}
 Lights Internal Gains Nominal, ALL_ST=DINING - BAR LOUNGE/LEISURE_FL=STORY 4_SCH=B SPACE FUNCTION DINING - BAR LOUNGE/LEISURE LIGHTS,NECB-B-LIGHTING,ALL_ST=DINING - BAR LOUNGE/LEISURE_FL=STORY 4_SCH=B,2500.00,250.0,35249.707,14.100,141.003,0.000,0.500,0.200,0.300,1.000,General,3524.971,31724.736
 Lights Internal Gains Nominal, ALL_ST=DINING - FAMILY SPACE_FL=STORY 4_SCH=B SPACE FUNCTION DINING - FAMILY SPACE LIGHTS,NECB-B-LIGHTING,ALL_ST=DINING - FAMILY SPACE_FL=STORY 4_SCH=B,1875.00,187.5,17999.850,9.600,96.002,0.000,0.500,0.200,0.300,1.000,General,1799.985,16199.865
 Lights Internal Gains Nominal, ALL_ST=DINING - OTHER_FL=STORY 4_SCH=B SPACE FUNCTION DINING - OTHER LIGHTS,NECB-B-LIGHTING,ALL_ST=DINING - OTHER_FL=STORY 4_SCH=B,1875.00,187.5,13124.891,7.000,70.002,0.000,0.500,0.200,0.300,1.000,General,1312.489,11812.402
 Lights Internal Gains Nominal, DU_BT=SPACE FUNCTION_ST=DORMITORY - LIVING QUARTERS_FL=STORY 3_SCHG SPACE FUNCTION DORMITORY - LIVING QUARTERS LIGHTS,NECB-G-LIGHTING,DU_BT=SPACE FUNCTION_ST=DORMITORY - LIVING QUARTERS_FL=STORY 3_SCHG,2500.00,100.1,10249.915,4.100,102.392,0.000,0.500,0.200,0.300,1.000,General,0.000,9224.923
 Lights Internal Gains Nominal, ALL_ST=DRESS./FITT. - PERFORMANCE ARTS_FL=STORY 3_SCH=C SPACE FUNCTION DRESS./FITT. - PERFORMANCE ARTS LIGHTS,NECB-C-LIGHTING,ALL_ST=DRESS./FITT. - PERFORMANCE ARTS_FL=STORY 3_SCH=C,1875.00,62.6,7256.190,3.870,115.978,0.000,0.500,0.200,0.300,1.000,General,362.809,6530.571
 Lights Internal Gains Nominal, DU_BT=SPACE FUNCTION_ST=DWELLING UNIT(S)_FL=STORY 3_SCHG SPACE FUNCTION DWELLING UNIT(S) LIGHTS,NECB-G-LIGHTING,DU_BT=SPACE FUNCTION_ST=DWELLING UNIT(S)_FL=STORY 3_SCHG,1875.00,31.3,9374.922,5.000,299.685,0.000,0.500,0.200,0.300,1.000,General,0.000,8437.430
 Lights Internal Gains Nominal, WILD_ST=ELECTRICAL/MECHANICAL-SCH-A_FL=STORY 1_SCH=B SPACE FUNCTION ELECTRICAL/MECHANICAL-SCH-B LIGHTS,NECB-B-LIGHTING,WILD_ST=ELECTRICAL/MECHANICAL-SCH-A_FL=STORY 1_SCH=B,1875.00,9.3,24937.292,13.300,2686.087,0.000,0.500,0.200,0.300,1.000,General,2493.729,22443.563
 Lights Internal Gains Nominal, WILD_ST=ELECTRICAL/MECHANICAL-SCH-B_FL=STORY 4_SCH=B SPACE FUNCTION ELECTRICAL/MECHANICAL-SCH-B LIGHTS,NECB-B-LIGHTING,WILD_ST=ELECTRICAL/MECHANICAL-SCH-B_FL=STORY 4_SCH=B,1875.00,9.3,24937.292,13.300,2686.087,0.000,0.500,0.200,0.300,1.000,General,2493.729,22443.563
 Lights Internal Gains Nominal, WILD_ST=ELECTRICAL/MECHANICAL-SCH-C_FL=STORY 1_SCH=B SPACE FUNCTION ELECTRICAL/MECHANICAL-SCH-B LIGHTS,NECB-B-LIGHTING,WILD_ST=ELECTRICAL/MECHANICAL-SCH-C_FL=STORY 1_SCH=B,1875.00,9.3,24937.292,13.300,2686.087,0.000,0.500,0.200,0.300,1.000,General,2493.729,22443.563
 Lights Internal Gains Nominal, WILD_ST=ELECTRICAL/MECHANICAL-SCH-D_FL=STORY 1_SCH=B SPACE FUNCTION ELECTRICAL/MECHANICAL-SCH-B LIGHTS,NECB-B-LIGHTING,WILD_ST=ELECTRICAL/MECHANICAL-SCH-D_FL=STORY 1_SCH=B,1875.00,9.3,24937.292,13.300,2686.087,0.000,0.500,0.200,0.300,1.000,General,2493.729,22443.563
 Lights Internal Gains Nominal, WILD_ST=ELECTRICAL/MECHANICAL-SCH-E_FL=STORY 1_SCH=B SPACE FUNCTION ELECTRICAL/MECHANICAL-SCH-B LIGHTS,NECB-B-LIGHTING,WILD_ST=ELECTRICAL/MECHANICAL-SCH-E_FL=STORY 1_SCH=B,2500.00,12.4,33249.723,13.300,2686.087,0.000,0.500,0.200,0.300,1.000,General,3324.972,29924.751
 Lights Internal Gains Nominal, WILD_ST=ELECTRICAL/MECHANICAL-SCH-F_FL=STORY 1_SCH=B SPACE FUNCTION ELECTRICAL/MECHANICAL-SCH-B LIGHTS,NECB-B-LIGHTING,WILD_ST=ELECTRICAL/MECHANICAL-SCH-F_FL=STORY 1_SCH=B,1875.00,9.3,24937.292,13.300,2686.087,0.000,0.500,0.200,0.300,1.000,General,2493.729,22443.563
 Lights Internal Gains Nominal, WILD_ST=ELECTRICAL/MECHANICAL-SCH-G_FL=STORY 2_SCH=B SPACE FUNCTION ELECTRICAL/MECHANICAL-SCH-B LIGHTS,NECB-B-LIGHTING,WILD_ST=ELECTRICAL/MECHANICAL-SCH-G_FL=STORY 2_SCH=B,1875.00,9.3,24937.292,13.300,2686.087,0.000,0.500,0.200,0.300,1.000,General,2493.729,22443.563
 Lights Internal Gains Nominal, WILD_ST=ELECTRICAL/MECHANICAL-SCH-H_FL=STORY 3_SCH=B SPACE FUNCTION ELECTRICAL/MECHANICAL-SCH-B LIGHTS,NECB-B-LIGHTING,WILD_ST=ELECTRICAL/MECHANICAL-SCH-H_FL=STORY 3_SCH=B,1875.00,9.3,24937.292,13.300,2686.087,0.000,0.500,0.200,0.300,1.000,General,2493.729,22443.563
 Lights Internal Gains Nominal, WILD_ST=ELECTRICAL/MECHANICAL-SCH-I_FL=STORY 2_SCH=B SPACE FUNCTION ELECTRICAL/MECHANICAL-SCH-B LIGHTS,NECB-B-LIGHTING,WILD_ST=ELECTRICAL/MECHANICAL-SCH-I_FL=STORY 2_SCH=B,1875.00,9.3,24937.292,13.300,2686.087,0.000,0.500,0.200,0.300,1.000,General,2493.729,22443.563
 Lights Internal Gains Nominal, ALL_ST=FIRE STATION - ENGINE ROOM_FL=STORY 2_SCH=H SPACE FUNCTION FIRE STATION - ENGINE ROOM LIGHTS,NECB-H-LIGHTING,ALL_ST=FIRE STATION - ENGINE ROOM_FL=STORY 2_SCH=H,1875.00,75.1,11249.906,6.000,149.842,0.000,0.500,0.200,0.300,1.000,General,10124.916,10124.916
 Lights Internal Gains Nominal, DU_BT=SPACE FUNCTION_ST=FIRE STATION - QUARTERS_FL=STORY 4_SCHG SPACE FUNCTION FIRE STATION - QUARTERS LIGHTS,NECB-G-LIGHTING,DU_BT=SPACE FUNCTION_ST=FIRE STATION - QUARTERS_FL=STORY 4_SCHG,1875.00,75.1,6374.947,3.400,84.911,0.000,0.500,0.200,0.300,1.000,General,0.000,5737.452
 Lights Internal Gains Nominal, ALL_ST=FOOD PREPARATION_FL=STORY 3_SCH=B SPACE FUNCTION FOOD PREPARATION LIGHTS,NECB-B-LIGHTING,ALL_ST=FOOD PREPARATION_FL=STORY 3_SCH=B,1875.00,93.8,20062.333,10.700,213.775,0.000,0.500,0.200,0.300,1.000,General,2006.233,18056.100
 Lights Internal Gains Nominal, ALL_ST=FOOD PREPARATION - VENTED_FL=STORY 2_SCH=B SPACE FUNCTION FOOD PREPARATION - VENTED LIGHTS,NECB-B-LIGHTING,ALL_ST=FOOD PREPARATION - VENTED_FL=STORY 2_SCH=B,1875.00,93.8,20062.333,10.700,213.775,0.000,0.500,0.200,0.300,1.000,General,2006.233,18056.100
 Lights Internal Gains Nominal, ALL_ST=GYM - AUDIENCE_FL=STORY 2_SCH=B SPACE FUNCTION GYM - AUDIENCE LIGHTS,NECB-B-LIGHTING,ALL_ST=GYM - AUDIENCE_FL=STORY 2_SCH=B,2500.00,500.0,11499.904,4.600,23.001,0.000,0.500,0.200,0.300,1.000,General,1149.990,10349.914
! <ElectricEquipment Internal Gains Nominal>,Name,Schedule Name,Zone Name,Zone Floor Area {m2},# Zone Occupants,Equipment Level {W},Equipment/Floor Area {W/m2},Equipment per person {W/person},Fraction Latent,Fraction Radiant,Fraction Lost,Fraction Convected,End-Use SubCategory,Nominal Minimum Equipment Level {W},Nominal Maximum Equipment Level {W}
 ElectricEquipment Internal Gains Nominal, ALL_ST=DINING - BAR LOUNGE/LEISURE_FL=STORY 4_SCH=B SPACE FUNCTION DINING - BAR LOUNGE/LEISURE ELEC EQUIP,NECB-B-ELECTRIC-EQUIPMENT,ALL_ST=DINING - BAR LOUNGE/LEISURE_FL=STORY 4_SCH=B,2500.00,250.0,2499.979,1.000,10.000,0.000,0.500,0.000,0.500,General,249.998,2249.981
 ElectricEquipment Internal Gains Nominal, ALL_ST=DINING - FAMILY SPACE_FL=STORY 4_SCH=B SPACE FUNCTION DINING - FAMILY SPACE ELEC EQUIP,NECB-B-ELECTRIC-EQUIPMENT,ALL_ST=DINING - FAMILY SPACE_FL=STORY 4_SCH=B,1875.00,187.5,1874.984,1.000,10.000,0.000,0.500,0.000,0.500,General,187.498,1687.486
 ElectricEquipment Internal Gains Nominal, ALL_ST=DINING - OTHER_FL=STORY 4_SCH=B SPACE FUNCTION DINING - OTHER ELEC EQUIP,NECB-B-ELECTRIC-EQUIPMENT,ALL_ST=DINING - OTHER_FL=STORY 4_SCH=B,1875.00,187.5,1874.984,1.000,10.000,0.000,0.500,0.000,0.500,General,187.498,1687.486
 ElectricEquipment Internal Gains Nominal, DU_BT=SPACE FUNCTION_ST=DORMITORY - LIVING QUARTERS_FL=STORY 3_SCHG SPACE FUNCTION DORMITORY - LIVING QUARTERS ELEC EQUIP,NECB-G-ELECTRIC-EQUIPMENT,DU_BT=SPACE FUNCTION_ST=DORMITORY - LIVING QUARTERS_FL=STORY 3_SCHG,2500.00,100.1,6249.948,2.500,62.434,0.000,0.500,0.000,0.500,General,1249.990,5624.953
 ElectricEquipment Internal Gains Nominal, ALL_ST=DRESS./FITT. - PERFORMANCE ARTS_FL=STORY 3_SCH=C SPACE FUNCTION DRESS./FITT. - PERFORMANCE ARTS ELEC EQUIP,NECB-C-ELECTRIC-EQUIPMENT,ALL_ST=DRESS./FITT. - PERFORMANCE ARTS_FL=STORY 3_SCH=C,1875.00,62.6,4687.461,2.500,74.921,0.000,0.500,0.000,0.500,General,234.373,4218.715
 ElectricEquipment Internal Gains Nominal, DU_BT=SPACE FUNCTION_ST=DWELLING UNIT(S)_FL=STORY 3_SCHG SPACE FUNCTION DWELLING UNIT(S) ELEC EQUIP,NECB-G-ELECTRIC-EQUIPMENT,DU_BT=SPACE FUNCTION_ST=DWELLING UNIT(S)_FL=STORY 3_SCHG,1875.00,31.3,9374.922,5.000,299.685,0.000,0.500,0.000,0.500,General,1874.984,8437.430
 ElectricEquipment Internal Gains Nominal, WILD_ST=ELECTRICAL/MECHANICAL-SCH-A_FL=STORY 1_SCH=B SPACE FUNCTION ELECTRICAL/MECHANICAL-SCH-B ELEC EQUIP,NECB-B-ELECTRIC-EQUIPMENT,WILD_ST=ELECTRICAL/MECHANICAL-SCH-A_FL=STORY 1_SCH=B,1875.00,9.3,1874.984,1.000,201.961,0.000,0.500,0.000,0.500,General,187.498,1687.486
 ElectricEquipment Internal Gains Nominal, WILD_ST=ELECTRICAL/MECHANICAL-SCH-B_FL=STORY 4_SCH=B SPACE FUNCTION ELECTRICAL/MECHANICAL-SCH-B ELEC EQUIP,NECB-B-ELECTRIC-EQUIPMENT,WILD_ST=ELECTRICAL/MECHANICAL-SCH-B_FL=STORY 4_SCH=B,1875.00,9.3,1874.984,1.000,201.961,0.000,0.500,0.000,0.500,General,187.498,1687.486
 ElectricEquipment Internal Gains Nominal, WILD_ST=ELECTRICAL/MECHANICAL-SCH-C_FL=STORY 1_SCH=B SPACE FUNCTION ELECTRICAL/MECHANICAL-SCH-B ELEC EQUIP,NECB-B-ELECTRIC-EQUIPMENT,WILD_ST=ELECTRICAL/MECHANICAL-SCH-C_FL=STORY 1_SCH=B,1875.00,9.3,1874.984,1.000,201.961,0.000,0.500,0.000,0.500,General,187.498,1687.486
 ElectricEquipment Internal Gains Nominal, WILD_ST=ELECTRICAL/MECHANICAL-SCH-D_FL=STORY 1_SCH=B SPACE FUNCTION ELECTRICAL/MECHANICAL-SCH-B ELEC EQUIP,NECB-B-ELECTRIC-EQUIPMENT,WILD_ST=ELECTRICAL/MECHANICAL-SCH-D_FL=STORY 1_SCH=B,1875.00,9.3,1874.984,1.000,201.961,0.000,0.500,0.000,0.500,General,187.498,1687.486
 ElectricEquipment Internal Gains Nominal, WILD_ST=ELECTRICAL/MECHANICAL-SCH-E_FL=STORY 1_SCH=B SPACE FUNCTION ELECTRICAL/MECHANICAL-SCH-B ELEC EQUIP,NECB-B-ELECTRIC-EQUIPMENT,WILD_ST=ELECTRICAL/MECHANICAL-SCH-E_FL=STORY 1_SCH=B,2500.00,12.4,2499.979,1.000,201.961,0.000,0.500,0.000,0.500,General,249.998,2249.981
 ElectricEquipment Internal Gains Nominal, WILD_ST=ELECTRICAL/MECHANICAL-SCH-F_FL=STORY 1_SCH=B SPACE FUNCTION ELECTRICAL/MECHANICAL-SCH-B ELEC EQUIP,NECB-B-ELECTRIC-EQUIPMENT,WILD_ST=ELECTRICAL/MECHANICAL-SCH-F_FL=STORY 1_SCH=B,1875.00,9.3,1874.984,1.000,201.961,0.000,0.500,0.000,0.500,General,187.498,1687.486
 ElectricEquipment Internal Gains Nominal, WILD_ST=ELECTRICAL/MECHANICAL-SCH-G_FL=STORY 2_SCH=B SPACE FUNCTION ELECTRICAL/MECHANICAL-SCH-B ELEC EQUIP,NECB-B-ELECTRIC-EQUIPMENT,WILD_ST=ELECTRICAL/MECHANICAL-SCH-G_FL=STORY 2_SCH=B,1875.00,9.3,1874.984,1.000,201.961,0.000,0.500,0.000,0.500,General,187.498,1687.486
 ElectricEquipment Internal Gains Nominal, WILD_ST=ELECTRICAL/MECHANICAL-SCH-H_FL=STORY 3_SCH=B SPACE FUNCTION ELECTRICAL/MECHANICAL-SCH-B ELEC EQUIP,NECB-B-ELECTRIC-EQUIPMENT,WILD_ST=ELECTRICAL/MECHANICAL-SCH-H_FL=STORY 3_SCH=B,1875.00,9.3,1874.984,1.000,201.961,0.000,0.500,0.000,0.500,General,187.498,1687.486
 ElectricEquipment Internal Gains Nominal, WILD_ST=ELECTRICAL/MECHANICAL-SCH-I_FL=STORY 2_SCH=B SPACE FUNCTION ELECTRICAL/MECHANICAL-SCH-B ELEC EQUIP,NECB-B-ELECTRIC-EQUIPMENT,WILD_ST=ELECTRICAL/MECHANICAL-SCH-I_FL=STORY 2_SCH=B,1875.00,9.3,1874.984,1.000,201.961,0.000,0.500,0.000,0.500,General,187.498,1687.486
 ElectricEquipment Internal Gains Nominal, ALL_ST=FIRE STATION - ENGINE ROOM_FL=STORY 2_SCH=H SPACE FUNCTION FIRE STATION - ENGINE ROOM ELEC EQUIP,NECB-H-ELECTRIC-EQUIPMENT,ALL_ST=FIRE STATION - ENGINE ROOM_FL=STORY 2_SCH=H,1875.00,75.1,4687.461,2.500,62.434,0.000,0.500,0.000,0.500,General,4218.715,4218.715
 ElectricEquipment Internal Gains Nominal, DU_BT=SPACE FUNCTION_ST=FIRE STATION - QUARTERS_FL=STORY 4_SCHG SPACE FUNCTION FIRE STATION - QUARTERS ELEC EQUIP,NECB-G-ELECTRIC-EQUIPMENT,DU_BT=SPACE FUNCTION_ST=FIRE STATION - QUARTERS_FL=STORY 4_SCHG,1875.00,75.1,4687.461,2.500,62.434,0.000,0.500,0.000,0.500,General,937.492,4218.715
 ElectricEquipment Internal Gains Nominal, ALL_ST=FOOD PREPARATION_FL=STORY 3_SCH=B SPACE FUNCTION FOOD PREPARATION ELEC EQUIP,NECB-B-ELECTRIC-EQUIPMENT,ALL_ST=FOOD PREPARATION_FL=STORY 3_SCH=B,1875.00,93.8,18749.844,10.000,199.790,0.000,0.500,0.000,0.500,General,1874.984,16874.860
 ElectricEquipment Internal Gains Nominal, ALL_ST=FOOD PREPARATION - VENTED_FL=STORY 2_SCH=B SPACE FUNCTION FOOD PREPARATION - VENTED ELEC EQUIP,NECB-B-ELECTRIC-EQUIPMENT,ALL_ST=FOOD PREPARATION - VENTED_FL=STORY 2_SCH=B,1875.00,93.8,18749.844,10.000,199.790,0.000,0.500,0.000,0.500,General,1874.984,16874.860
! <Shadowing/Sun Position Calculations Annual Simulations>, Calculation Method, Value {days}, Allowable Number Figures in Shadow Overlap {}, Polygon Clipping Algorithm, Sky Diffuse Modeling Algorithm, External Shading Calculation Method, Output External Shading Calculation Results, Disable Self-Shading Within Shading Zone Groups, Disable Self-Shading From Shading Zone Groups to Other Zones
Shadowing/Sun Position Calculations Annual Simulations,AverageOverDaysInFrequency,20,15000,SutherlandHodgman,SimpleSkyDiffuseModeling,InternalCalculation,No,No,No
! <Water Heater Information>,Type,Name,Volume {m3},Maximum Capacity {W},Standard Rated Recovery Efficiency, Standard Rated Energy Factor
! <ZoneInfiltration Airflow Stats Nominal>,Name,Schedule Name,Zone Name, Zone Floor Area {m2}, # Zone Occupants,Design Volume Flow Rate {m3/s},Volume Flow Rate/Floor Area {m3/s/m2},Volume Flow Rate/Exterior Surface Area {m3/s/m2},ACH - Air Changes per Hour,Equation A - Constant Term Coefficient {},Equation B - Temperature Term Coefficient {1/C},Equation C - Velocity Term Coefficient {s/m}, Equation D - Velocity Squared Term Coefficient {s2/m2}
 ZoneInfiltration Airflow Stats Nominal, DINING - BAR LOUNGE/LEISURE-SPACE FUNCTION INFILTRATION,ALWAYS ON DISCRETE,ALL_ST=DINING - BAR LOUNGE/LEISURE_FL=STORY 4_SCH=B,2500.00,250.0,0.625,2.500E-004,2.500E-004,0.237,0.000,0.000,0.224,0.000
 ZoneInfiltration Airflow Stats Nominal, DINING - FAMILY SPACE-SPACE FUNCTION INFILTRATION,ALWAYS ON DISCRETE,ALL_ST=DINING - FAMILY SPACE_FL=STORY 4_SCH=B,1875.00,187.5,0.564,3.007E-004,2.500E-004,0.285,0.000,0.000,0.224,0.000
 ZoneInfiltration Airflow Stats Nominal, DINING - OTHER-SPACE FUNCTION INFILTRATION,ALWAYS ON DISCRETE,ALL_ST=DINING - OTHER_FL=STORY 4_SCH=B,1875.00,187.5,0.564,3.007E-004,2.500E-004,0.285,0.000,0.000,0.224,0.000
 ZoneInfiltration Airflow Stats Nominal, DRESS./FITT. - PERFORMANCE ARTS-SPACE FUNCTION INFILTRATION,ALWAYS ON DISCRETE,ALL_ST=DRESS./FITT. - PERFORMANCE ARTS_FL=STORY 3_SCH=C,1875.00,62.6,9.500E-002,5.067E-005,2.500E-004,4.800E-002,0.000,0.000,0.224,0.000
 ZoneInfiltration Airflow Stats Nominal, FIRE STATION - ENGINE ROOM-SPACE FUNCTION INFILTRATION,ALWAYS ON DISCRETE,ALL_ST=FIRE STATION - ENGINE ROOM_FL=STORY 2_SCH=H,1875.00,75.1,9.500E-002,5.067E-005,2.500E-004,4.800E-002,0.000,0.000,0.224,0.000
 ZoneInfiltration Airflow Stats Nominal, FOOD PREPARATION - VENTED-SPACE FUNCTION INFILTRATION,ALWAYS ON DISCRETE,ALL_ST=FOOD PREPARATION - VENTED_FL=STORY 2_SCH=B,1875.00,93.8,9.500E-002,5.067E-005,2.500E-004,4.800E-002,0.000,0.000,0.224,0.000
 ZoneInfiltration Airflow Stats Nominal, FOOD PREPARATION-SPACE FUNCTION INFILTRATION,ALWAYS ON DISCRETE,ALL_ST=FOOD PREPARATION_FL=STORY 3_SCH=B,1875.00,93.8,9.500E-002,5.067E-005,2.500E-004,4.800E-002,0.000,0.000,0.224,0.000
 ZoneInfiltration Airflow Stats Nominal, DWELLING UNIT(S)-SPACE FUNCTION INFILTRATION,ALWAYS ON DISCRETE,DU_BT=SPACE FUNCTION_ST=DWELLING UNIT(S)_FL=STORY 3_SCHG,1875.00,31.3,9.500E-002,5.067E-005,2.500E-004,4.800E-002,0.000,0.000,0.224,0.000
 ZoneInfiltration Airflow Stats Nominal, FIRE STATION - QUARTERS-SPACE FUNCTION INFILTRATION,ALWAYS ON DISCRETE,DU_BT=SPACE FUNCTION_ST=FIRE STATION - QUARTERS_FL=STORY 4_SCHG,1875.00,75.1,0.564,3.007E-004,2.500E-004,0.285,0.000,0.000,0.224,0.000
 ZoneInfiltration Airflow Stats Nominal, ELECTRICAL/MECHANICAL-SCH-B-SPACE FUNCTION INFILTRATION,ALWAYS ON DISCRETE,WILD_ST=ELECTRICAL/MECHANICAL-SCH-B_FL=STORY 4_SCH=B,1875.00,9.3,0.564,3.007E-004,2.500E-004,0.285,0.000,0.000,0.224,0.000
 ZoneInfiltration Airflow Stats Nominal, ELECTRICAL/MECHANICAL-SCH-G-SPACE FUNCTION INFILTRATION,ALWAYS ON DISCRETE,WILD_ST=ELECTRICAL/MECHANICAL-SCH-G_FL=STORY 2_SCH=B,1875.00,9.3,9.500E-002,5.067E-005,2.500E-004,4.800E-002,0.000,0.000,0.224,0.000
 ZoneInfiltration Airflow Stats Nominal, ELECTRICAL/MECHANICAL-SCH-H-SPACE FUNCTION INFILTRATION,ALWAYS ON DISCRETE,WILD_ST=ELECTRICAL/MECHANICAL-SCH-H_FL=STORY 3_SCH=B,1875.00,9.3,9.500E-002,5.067E-005,2.500E-004,4.800E-002,0.000,0.000,0.224,0.000
 ZoneInfiltration Airflow Stats Nominal, ELECTRICAL/MECHANICAL-SCH-I-SPACE FUNCTION INFILTRATION,ALWAYS ON DISCRETE,WILD_ST=ELECTRICAL/MECHANICAL-SCH-I_FL=STORY 2_SCH=B,1875.00,9.3,9.500E-002,5.067E-005,2.500E-004,4.800E-002,0.000,0.000,0.224,0.000
! <AirFlow Model>, Simple
 AirFlow Model, Simple
! <RoomAir Model>, Zone Name, Mixing/Mundt/UCSDDV/UCSDCV/UCSDUFI/UCSDUFE/User Defined
RoomAir Model,ALL_ST=DINING - BAR LOUNGE/LEISURE_FL=STORY 4_SCH=B,Mixing/Well-Stirred
RoomAir Model,ALL_ST=DINING - FAMILY SPACE_FL=STORY 4_SCH=B,Mixing/Well-Stirred
RoomAir Model,ALL_ST=DINING - OTHER_FL=STORY 4_SCH=B,Mixing/Well-Stirred
RoomAir Model,ALL_ST=DRESS./FITT. - PERFORMANCE ARTS_FL=STORY 3_SCH=C,Mixing/Well-Stirred
RoomAir Model,ALL_ST=FIRE STATION - ENGINE ROOM_FL=STORY 2_SCH=H,Mixing/Well-Stirred
RoomAir Model,ALL_ST=FOOD PREPARATION - VENTED_FL=STORY 2_SCH=B,Mixing/Well-Stirred
RoomAir Model,ALL_ST=FOOD PREPARATION_FL=STORY 3_SCH=B,Mixing/Well-Stirred
RoomAir Model,ALL_ST=GYM - AUDIENCE_FL=STORY 2_SCH=B,Mixing/Well-Stirred
RoomAir Model,DU_BT=SPACE FUNCTION_ST=DORMITORY - LIVING QUARTERS_FL=STORY 3_SCHG,Mixing/Well-Stirred
RoomAir Model,DU_BT=SPACE FUNCTION_ST=DWELLING UNIT(S)_FL=STORY 3_SCHG,Mixing/Well-Stirred
RoomAir Model,DU_BT=SPACE FUNCTION_ST=FIRE STATION - QUARTERS_FL=STORY 4_SCHG,Mixing/Well-Stirred
RoomAir Model,WILD_ST=ELECTRICAL/MECHANICAL-SCH-A_FL=STORY 1_SCH=B,Mixing/Well-Stirred
RoomAir Model,WILD_ST=ELECTRICAL/MECHANICAL-SCH-B_FL=STORY 4_SCH=B,Mixing/Well-Stirred
RoomAir Model,WILD_ST=ELECTRICAL/MECHANICAL-SCH-C_FL=STORY 1_SCH=B,Mixing/Well-Stirred
RoomAir Model,WILD_ST=ELECTRICAL/MECHANICAL-SCH-D_FL=STORY 1_SCH=B,Mixing/Well-Stirred
RoomAir Model,WILD_ST=ELECTRICAL/MECHANICAL-SCH-E_FL=STORY 1_SCH=B,Mixing/Well-Stirred
RoomAir Model,WILD_ST=ELECTRICAL/MECHANICAL-SCH-F_FL=STORY 1_SCH=B,Mixing/Well-Stirred
RoomAir Model,WILD_ST=ELECTRICAL/MECHANICAL-SCH-G_FL=STORY 2_SCH=B,Mixing/Well-Stirred
RoomAir Model,WILD_ST=ELECTRICAL/MECHANICAL-SCH-H_FL=STORY 3_SCH=B,Mixing/Well-Stirred
RoomAir Model,WILD_ST=ELECTRICAL/MECHANICAL-SCH-I_FL=STORY 2_SCH=B,Mixing/Well-Stirred
! <AirflowNetwork Model:Control>, No Multizone or Distribution/Multizone with Distribution/Multizone without Distribution/Multizone with Distribution only during Fan Operation
AirflowNetwork Model:Control,NoMultizoneOrDistribution
! <Zone Volume Capacitance Multiplier>, Sensible Heat Capacity Multiplier, Moisture Capacity Multiplier, Carbon Dioxide Capacity Multiplier, Generic Contaminant Capacity Multiplier
Zone Volume Capacitance Multiplier,   1.000 ,   1.000,   1.000,   1.000
! <Load Timesteps in Zone Design Calculation Averaging Window>, Value
 Load Timesteps in Zone Design Calculation Averaging Window,    6
! <Heating Sizing Factor Information>, Sizing Factor ID, Value
 Heating Sizing Factor Information, Global,   1.3000    
 Heating Sizing Factor Information, Zone ALL_ST=DINING - BAR LOUNGE/LEISURE_FL=STORY 4_SCH=B,   1.3000    
 Heating Sizing Factor Information, Zone ALL_ST=DINING - FAMILY SPACE_FL=STORY 4_SCH=B,   1.3000    
 Heating Sizing Factor Information, Zone ALL_ST=DINING - OTHER_FL=STORY 4_SCH=B,   1.3000    
 Heating Sizing Factor Information, Zone ALL_ST=DRESS./FITT. - PERFORMANCE ARTS_FL=STORY 3_SCH=C,   1.3000    
 Heating Sizing Factor Information, Zone ALL_ST=FIRE STATION - ENGINE ROOM_FL=STORY 2_SCH=H,   1.3000    
 Heating Sizing Factor Information, Zone ALL_ST=FOOD PREPARATION - VENTED_FL=STORY 2_SCH=B,   1.3000    
 Heating Sizing Factor Information, Zone ALL_ST=FOOD PREPARATION_FL=STORY 3_SCH=B,   1.3000    
 Heating Sizing Factor Information, Zone ALL_ST=GYM - AUDIENCE_FL=STORY 2_SCH=B,   1.3000    
 Heating Sizing Factor Information, Zone DU_BT=SPACE FUNCTION_ST=DORMITORY - LIVING QUARTERS_FL=STORY 3_SCHG,   1.3000    
 Heating Sizing Factor Information, Zone DU_BT=SPACE FUNCTION_ST=DWELLING UNIT(S)_FL=STORY 3_SCHG,   1.3000    
 Heating Sizing Factor Information, Zone DU_BT=SPACE FUNCTION_ST=FIRE STATION - QUARTERS_FL=STORY 4_SCHG,   1.3000    
 Heating Sizing Factor Information, Zone WILD_ST=ELECTRICAL/MECHANICAL-SCH-A_FL=STORY 1_SCH=B,   1.3000    
 Heating Sizing Factor Information, Zone WILD_ST=ELECTRICAL/MECHANICAL-SCH-B_FL=STORY 4_SCH=B,   1.3000    
 Heating Sizing Factor Information, Zone WILD_ST=ELECTRICAL/MECHANICAL-SCH-C_FL=STORY 1_SCH=B,   1.3000    
 Heating Sizing Factor Information, Zone WILD_ST=ELECTRICAL/MECHANICAL-SCH-D_FL=STORY 1_SCH=B,   1.3000    
 Heating Sizing Factor Information, Zone WILD_ST=ELECTRICAL/MECHANICAL-SCH-E_FL=STORY 1_SCH=B,   1.3000    
 Heating Sizing Factor Information, Zone WILD_ST=ELECTRICAL/MECHANICAL-SCH-F_FL=STORY 1_SCH=B,   1.3000    
 Heating Sizing Factor Information, Zone WILD_ST=ELECTRICAL/MECHANICAL-SCH-G_FL=STORY 2_SCH=B,   1.3000    
 Heating Sizing Factor Information, Zone WILD_ST=ELECTRICAL/MECHANICAL-SCH-H_FL=STORY 3_SCH=B,   1.3000    
 Heating Sizing Factor Information, Zone WILD_ST=ELECTRICAL/MECHANICAL-SCH-I_FL=STORY 2_SCH=B,   1.3000    
! <Cooling Sizing Factor Information>, Sizing Factor ID, Value
 Cooling Sizing Factor Information, Global,   1.1000    
 Cooling Sizing Factor Information, Zone ALL_ST=DINING - BAR LOUNGE/LEISURE_FL=STORY 4_SCH=B,   1.1000    
 Cooling Sizing Factor Information, Zone ALL_ST=DINING - FAMILY SPACE_FL=STORY 4_SCH=B,   1.1000    
 Cooling Sizing Factor Information, Zone ALL_ST=DINING - OTHER_FL=STORY 4_SCH=B,   1.1000    
 Cooling Sizing Factor Information, Zone ALL_ST=DRESS./FITT. - PERFORMANCE ARTS_FL=STORY 3_SCH=C,   1.1000    
 Cooling Sizing Factor Information, Zone ALL_ST=FIRE STATION - ENGINE ROOM_FL=STORY 2_SCH=H,   1.1000    
 Cooling Sizing Factor Information, Zone ALL_ST=FOOD PREPARATION - VENTED_FL=STORY 2_SCH=B,   1.1000    
 Cooling Sizing Factor Information, Zone ALL_ST=FOOD PREPARATION_FL=STORY 3_SCH=B,   1.1000    
 Cooling Sizing Factor Information, Zone ALL_ST=GYM - AUDIENCE_FL=STORY 2_SCH=B,   1.1000    
 Cooling Sizing Factor Information, Zone DU_BT=SPACE FUNCTION_ST=DORMITORY - LIVING QUARTERS_FL=STORY 3_SCHG,   1.1000    
 Cooling Sizing Factor Information, Zone DU_BT=SPACE FUNCTION_ST=DWELLING UNIT(S)_FL=STORY 3_SCHG,   1.1000    
 Cooling Sizing Factor Information, Zone DU_BT=SPACE FUNCTION_ST=FIRE STATION - QUARTERS_FL=STORY 4_SCHG,   1.1000    
 Cooling Sizing Factor Information, Zone WILD_ST=ELECTRICAL/MECHANICAL-SCH-A_FL=STORY 1_SCH=B,   1.1000    
 Cooling Sizing Factor Information, Zone WILD_ST=ELECTRICAL/MECHANICAL-SCH-B_FL=STORY 4_SCH=B,   1.1000    
 Cooling Sizing Factor Information, Zone WILD_ST=ELECTRICAL/MECHANICAL-SCH-C_FL=STORY 1_SCH=B,   1.1000    
 Cooling Sizing Factor Information, Zone WILD_ST=ELECTRICAL/MECHANICAL-SCH-D_FL=STORY 1_SCH=B,   1.1000    
 Cooling Sizing Factor Information, Zone WILD_ST=ELECTRICAL/MECHANICAL-SCH-E_FL=STORY 1_SCH=B,   1.1000    
 Cooling Sizing Factor Information, Zone WILD_ST=ELECTRICAL/MECHANICAL-SCH-F_FL=STORY 1_SCH=B,   1.1000    
 Cooling Sizing Factor Information, Zone WILD_ST=ELECTRICAL/MECHANICAL-SCH-G_FL=STORY 2_SCH=B,   1.1000    
 Cooling Sizing Factor Information, Zone WILD_ST=ELECTRICAL/MECHANICAL-SCH-H_FL=STORY 3_SCH=B,   1.1000    
 Cooling Sizing Factor Information, Zone WILD_ST=ELECTRICAL/MECHANICAL-SCH-I_FL=STORY 2_SCH=B,   1.1000    
! <Zone Sizing Information>, Zone Name, Load Type, Calc Des Load {W}, User Des Load {W}, Calc Des Air Flow Rate {m3/s}, User Des Air Flow Rate {m3/s}, Design Day Name, Date/Time of Peak, Temperature at Peak {C}, Humidity Ratio at Peak {kgWater/kgDryAir}, Floor Area {m2}, # Occupants, Calc Outdoor Air Flow Rate {m3/s}, Calc DOAS Heat Addition Rate {W}
 Zone Sizing Information, ALL_ST=DINING - BAR LOUNGE/LEISURE_FL=STORY 4_SCH=B, Cooling, 88378.53892, 97216.39281, 6.83124, 8.95350, FORT MCMURRAY AP ANN CLG .4% CONDNS DB=>MWB, 7/21 13:10:00, 28.38333, 8.76969E-003, 2500.00000, 249.99182, 8.95350, 0.00000
 Zone Sizing Information, ALL_ST=DINING - BAR LOUNGE/LEISURE_FL=STORY 4_SCH=B, Heating, 35782.91054, 46517.78370, 1.28946, 8.95350, FORT MCMURRAY AP ANN HTG 99.6% CONDNS DB, 1/21 09:00:00, -36.20000, 1.25811E-004, 2500.00000, 249.99182, 8.95350, 0.00000
 Zone Sizing Information, ALL_ST=DINING - FAMILY SPACE_FL=STORY 4_SCH=B, Cooling, 89637.44962, 98601.19458, 6.02441, 6.71513, FORT MCMURRAY AP ANN CLG .4% CONDNS DB=>MWB, 7/21 09:00:00, 22.08000, 8.76969E-003, 1875.00000, 187.49386, 6.71513, 0.00000
 Zone Sizing Information, ALL_ST=DINING - FAMILY SPACE_FL=STORY 4_SCH=B, Heating, 43303.41889, 56294.44456, 1.72320, 6.71513, FORT MCMURRAY AP ANN HTG 99.6% CONDNS DB, 1/21 10:00:00, -36.20000, 1.25811E-004, 1875.00000, 187.49386, 6.71513, 0.00000
 Zone Sizing Information, ALL_ST=DINING - OTHER_FL=STORY 4_SCH=B, Cooling, 64782.78927, 71261.06820, 5.00744, 6.71513, FORT MCMURRAY AP ANN CLG .4% CONDNS DB=>MWB, 7/21 13:20:00, 28.48667, 8.76969E-003, 1875.00000, 187.49386, 6.71513, 0.00000
 Zone Sizing Information, ALL_ST=DINING - OTHER_FL=STORY 4_SCH=B, Heating, 47080.10766, 61204.13996, 1.87597, 6.71513, FORT MCMURRAY AP ANN HTG 99.6% CONDNS DB, 1/21 10:00:00, -36.20000, 1.25811E-004, 1875.00000, 187.49386, 6.71513, 0.00000
 Zone Sizing Information, ALL_ST=DRESS./FITT. - PERFORMANCE ARTS_FL=STORY 3_SCH=C, Cooling, 41964.77849, 46161.25634, 3.24335, 3.56768, FORT MCMURRAY AP ANN CLG .4% CONDNS DB=>MWB, 7/21 18:00:00, 25.92400, 8.76969E-003, 1875.00000, 62.56523, 2.21933, 0.00000
 Zone Sizing Information, ALL_ST=DRESS./FITT. - PERFORMANCE ARTS_FL=STORY 3_SCH=C, Heating, 25185.39782, 32741.01716, 0.99009, 2.21933, FORT MCMURRAY AP ANN HTG 99.6% CONDNS DB, 1/21 09:00:00, -36.20000, 1.25811E-004, 1875.00000, 62.56523, 2.21933, 0.00000
 Zone Sizing Information, ALL_ST=FIRE STATION - ENGINE ROOM_FL=STORY 2_SCH=H, Cooling, 24704.47504, 27174.92254, 1.90940, 2.38125, FORT MCMURRAY AP ANN CLG .4% CONDNS DB=>MWB, 7/21 20:20:00, 22.32800, 8.76969E-003, 1875.00000, 75.07828, 2.38125, 0.00000
 Zone Sizing Information, ALL_ST=FIRE STATION - ENGINE ROOM_FL=STORY 2_SCH=H, Heating, 0.00000, 0.00000, 0.00000, 2.38125, FORT MCMURRAY AP ANN HTG 99.6% CONDNS DB, , -36.20000, 1.25811E-004, 1875.00000, 75.07828, 2.38125, 0.00000
 Zone Sizing Information, ALL_ST=FOOD PREPARATION - VENTED_FL=STORY 2_SCH=B, Cooling, 47193.33058, 51912.66364, 3.64756, 4.01231, FORT MCMURRAY AP ANN CLG .4% CONDNS DB=>MWB, 7/21 13:30:00, 28.59000, 8.76969E-003, 1875.00000, 93.84784, 2.57175, 0.00000
 Zone Sizing Information, ALL_ST=FOOD PREPARATION - VENTED_FL=STORY 2_SCH=B, Heating, 0.00000, 0.00000, 0.00000, 2.57175, FORT MCMURRAY AP ANN HTG 99.6% CONDNS DB, , -36.20000, 1.25811E-004, 1875.00000, 93.84784, 2.57175, 0.00000
 Zone Sizing Information, ALL_ST=FOOD PREPARATION_FL=STORY 3_SCH=B, Cooling, 62321.49637, 68553.64600, 4.29872, 4.72859, FORT MCMURRAY AP ANN CLG .4% CONDNS DB=>MWB, 7/21 09:00:00, 22.08000, 8.76969E-003, 1875.00000, 93.84784, 2.57175, 0.00000
 Zone Sizing Information, ALL_ST=FOOD PREPARATION_FL=STORY 3_SCH=B, Heating, 6795.49150, 8834.13896, 0.26463, 2.57175, FORT MCMURRAY AP ANN HTG 99.6% CONDNS DB, 1/21 09:40:00, -36.20000, 1.25811E-004, 1875.00000, 93.84784, 2.57175, 0.00000
 Zone Sizing Information, ALL_ST=GYM - AUDIENCE_FL=STORY 2_SCH=B, Cooling, 40994.47489, 45093.92238, 3.16897, 10.28700, FORT MCMURRAY AP ANN CLG .4% CONDNS DB=>MWB, 7/21 22:00:00, 20.46800, 8.76969E-003, 2500.00000, 499.98364, 10.28700, 0.00000
 Zone Sizing Information, ALL_ST=GYM - AUDIENCE_FL=STORY 2_SCH=B, Heating, 0.00000, 0.00000, 0.00000, 10.28700, FORT MCMURRAY AP ANN HTG 99.6% CONDNS DB, , -36.20000, 1.25811E-004, 2500.00000, 499.98364, 10.28700, 0.00000
 Zone Sizing Information, DU_BT=SPACE FUNCTION_ST=DORMITORY - LIVING QUARTERS_FL=STORY 3_SCHG, Cooling, 29195.59208, 32115.15128, 2.25649, 2.48214, FORT MCMURRAY AP ANN CLG .4% CONDNS DB=>MWB, 7/21 20:00:00, 22.70000, 8.76969E-003, 2500.00000, 100.10437, 1.39700, 0.00000
 Zone Sizing Information, DU_BT=SPACE FUNCTION_ST=DORMITORY - LIVING QUARTERS_FL=STORY 3_SCHG, Heating, 0.00000, 0.00000, 0.00000, 1.39700, FORT MCMURRAY AP ANN HTG 99.6% CONDNS DB, , -36.20000, 1.25811E-004, 2500.00000, 100.10437, 1.39700, 0.00000
 Zone Sizing Information, DU_BT=SPACE FUNCTION_ST=DWELLING UNIT(S)_FL=STORY 3_SCHG, Cooling, 31017.85070, 34119.63577, 2.39722, 2.63694, FORT MCMURRAY AP ANN CLG .4% CONDNS DB=>MWB, 7/21 20:00:00, 22.70000, 8.76969E-003, 1875.00000, 31.28261, 0.64770, 0.00000
 Zone Sizing Information, DU_BT=SPACE FUNCTION_ST=DWELLING UNIT(S)_FL=STORY 3_SCHG, Heating, 11171.15026, 14522.49534, 0.44531, 0.64770, FORT MCMURRAY AP ANN HTG 99.6% CONDNS DB, 1/21 09:00:00, -36.20000, 1.25811E-004, 1875.00000, 31.28261, 0.64770, 0.00000
 Zone Sizing Information, DU_BT=SPACE FUNCTION_ST=FIRE STATION - QUARTERS_FL=STORY 4_SCHG, Cooling, 59257.20814, 65182.92895, 4.57969, 5.03766, FORT MCMURRAY AP ANN CLG .4% CONDNS DB=>MWB, 7/21 16:10:00, 27.99067, 8.76969E-003, 1875.00000, 75.07828, 1.52400, 0.00000
 Zone Sizing Information, DU_BT=SPACE FUNCTION_ST=FIRE STATION - QUARTERS_FL=STORY 4_SCHG, Heating, 50217.73110, 65283.05043, 2.00291, 2.60379, FORT MCMURRAY AP ANN HTG 99.6% CONDNS DB, 1/21 09:00:00, -36.20000, 1.25811E-004, 1875.00000, 75.07828, 1.52400, 0.00000
 Zone Sizing Information, WILD_ST=ELECTRICAL/MECHANICAL-SCH-A_FL=STORY 1_SCH=B, Cooling, 23076.32204, 25383.95424, 1.78341, 1.96175, FORT MCMURRAY AP ANN CLG .4% CONDNS DB=>MWB, 7/21 21:00:00, 21.58400, 8.76969E-003, 1875.00000, 9.28387, 0.57150, 0.00000
 Zone Sizing Information, WILD_ST=ELECTRICAL/MECHANICAL-SCH-A_FL=STORY 1_SCH=B, Heating, 0.00000, 0.00000, 0.00000, 0.57150, FORT MCMURRAY AP ANN HTG 99.6% CONDNS DB, , -36.20000, 1.25811E-004, 1875.00000, 9.28387, 0.57150, 0.00000
 Zone Sizing Information, WILD_ST=ELECTRICAL/MECHANICAL-SCH-B_FL=STORY 4_SCH=B, Cooling, 78431.19985, 86274.31984, 6.06144, 6.66759, FORT MCMURRAY AP ANN CLG .4% CONDNS DB=>MWB, 7/21 13:30:00, 28.59000, 8.76969E-003, 1875.00000, 9.28387, 0.57150, 0.00000
 Zone Sizing Information, WILD_ST=ELECTRICAL/MECHANICAL-SCH-B_FL=STORY 4_SCH=B, Heating, 44956.01838, 58442.82389, 1.79001, 2.32702, FORT MCMURRAY AP ANN HTG 99.6% CONDNS DB, 1/21 10:00:00, -36.20000, 1.25811E-004, 1875.00000, 9.28387, 0.57150, 0.00000
 Zone Sizing Information, WILD_ST=ELECTRICAL/MECHANICAL-SCH-C_FL=STORY 1_SCH=B, Cooling, 24336.39080, 26770.02989, 1.72368, 1.89604, FORT MCMURRAY AP ANN CLG .4% CONDNS DB=>MWB, 7/21 09:00:00, 22.08000, 8.76969E-003, 1875.00000, 9.28387, 0.57150, 0.00000
 Zone Sizing Information, WILD_ST=ELECTRICAL/MECHANICAL-SCH-C_FL=STORY 1_SCH=B, Heating, 0.00000, 0.00000, 0.00000, 0.57150, FORT MCMURRAY AP ANN HTG 99.6% CONDNS DB, , -36.20000, 1.25811E-004, 1875.00000, 9.28387, 0.57150, 0.00000
 Zone Sizing Information, WILD_ST=ELECTRICAL/MECHANICAL-SCH-D_FL=STORY 1_SCH=B, Cooling, 22370.73264, 24607.80591, 1.72888, 1.90177, FORT MCMURRAY AP ANN CLG .4% CONDNS DB=>MWB, 7/21 20:00:00, 22.70000, 8.76969E-003, 1875.00000, 9.28387, 0.57150, 0.00000
 Zone Sizing Information, WILD_ST=ELECTRICAL/MECHANICAL-SCH-D_FL=STORY 1_SCH=B, Heating, 0.00000, 0.00000, 0.00000, 0.57150, FORT MCMURRAY AP ANN HTG 99.6% CONDNS DB, , -36.20000, 1.25811E-004, 1875.00000, 9.28387, 0.57150, 0.00000
 Zone Sizing Information, WILD_ST=ELECTRICAL/MECHANICAL-SCH-E_FL=STORY 1_SCH=B, Cooling, 24631.10611, 27094.21672, 1.90356, 2.09392, FORT MCMURRAY AP ANN CLG .4% CONDNS DB=>MWB, 7/21 22:00:00, 20.46800, 8.76969E-003, 2500.00000, 12.37850, 0.76200, 0.00000
 Zone Sizing Information, WILD_ST=ELECTRICAL/MECHANICAL-SCH-E_FL=STORY 1_SCH=B, Heating, 0.00000, 0.00000, 0.00000, 0.76200, FORT MCMURRAY AP ANN HTG 99.6% CONDNS DB, , -36.20000, 1.25811E-004, 2500.00000, 12.37850, 0.76200, 0.00000
 Zone Sizing Information, WILD_ST=ELECTRICAL/MECHANICAL-SCH-F_FL=STORY 1_SCH=B, Cooling, 19649.71500, 21614.68650, 1.51859, 1.67045, FORT MCMURRAY AP ANN CLG .4% CONDNS DB=>MWB, 7/21 22:00:00, 20.46800, 8.76969E-003, 1875.00000, 9.28387, 0.57150, 0.00000
 Zone Sizing Information, WILD_ST=ELECTRICAL/MECHANICAL-SCH-F_FL=STORY 1_SCH=B, Heating, 0.00000, 0.00000, 0.00000, 0.57150, FORT MCMURRAY AP ANN HTG 99.6% CONDNS DB, , -36.20000, 1.25811E-004, 1875.00000, 9.28387, 0.57150, 0.00000
 Zone Sizing Information, WILD_ST=ELECTRICAL/MECHANICAL-SCH-G_FL=STORY 2_SCH=B, Cooling, 40846.31780, 44930.94958, 3.15672, 3.47239, FORT MCMURRAY AP ANN CLG .4% CONDNS DB=>MWB, 7/21 18:20:00, 25.30400, 8.76968E-003, 1875.00000, 9.28387, 0.57150, 0.00000
 Zone Sizing Information, WILD_ST=ELECTRICAL/MECHANICAL-SCH-G_FL=STORY 2_SCH=B, Heating, 4523.37235, 5880.38406, 0.17876, 0.57150, FORT MCMURRAY AP ANN HTG 99.6% CONDNS DB, 1/21 09:40:00, -36.20000, 1.25811E-004, 1875.00000, 9.28387, 0.57150, 0.00000
 Zone Sizing Information, WILD_ST=ELECTRICAL/MECHANICAL-SCH-H_FL=STORY 3_SCH=B, Cooling, 30932.84619, 34026.13081, 2.39059, 2.62965, FORT MCMURRAY AP ANN CLG .4% CONDNS DB=>MWB, 7/21 20:10:00, 22.51400, 8.76969E-003, 1875.00000, 9.28387, 0.57150, 0.00000
 Zone Sizing Information, WILD_ST=ELECTRICAL/MECHANICAL-SCH-H_FL=STORY 3_SCH=B, Heating, 16881.37318, 21945.78513, 0.65758, 0.85486, FORT MCMURRAY AP ANN HTG 99.6% CONDNS DB, 1/21 10:00:00, -36.20000, 1.25811E-004, 1875.00000, 9.28387, 0.57150, 0.00000
 Zone Sizing Information, WILD_ST=ELECTRICAL/MECHANICAL-SCH-I_FL=STORY 2_SCH=B, Cooling, 54138.78522, 59552.66374, 3.74366, 4.11802, FORT MCMURRAY AP ANN CLG .4% CONDNS DB=>MWB, 7/21 09:00:00, 22.08000, 8.76969E-003, 1875.00000, 9.28387, 0.57150, 0.00000
 Zone Sizing Information, WILD_ST=ELECTRICAL/MECHANICAL-SCH-I_FL=STORY 2_SCH=B, Heating, 0.00000, 0.00000, 0.00000, 0.57150, FORT MCMURRAY AP ANN HTG 99.6% CONDNS DB, , -36.20000, 1.25811E-004, 1875.00000, 9.28387, 0.57150, 0.00000
! <System Sizing Information>, System Name, Load Type, Peak Load Kind, User Design Capacity, Calc Des Air Flow Rate [m3/s], User Des Air Flow Rate [m3/s], Design Day Name, Date/Time of Peak
 System Sizing Information, SYS_1_MAKE-UP AIR UNIT, Cooling, Sensible, 7276.19, 2.63694, 0.64770, FORT MCMURRAY AP ANN CLG .4% CONDNS DB=>MWB, 7/21 05:00:00
 System Sizing Information, SYS_1_MAKE-UP AIR UNIT, Heating, Sensible, 59409.68, 0.64770, 0.64770, FORT MCMURRAY AP ANN HTG 99.6% CONDNS DB, 1/21 00:40:00
 System Sizing Information, SYS_1_MAKE-UP AIR UNIT 1, Cooling, Sensible, 26458.43, 5.03766, 1.52400, FORT MCMURRAY AP ANN CLG .4% CONDNS DB=>MWB, 7/21 05:00:00
 System Sizing Information, SYS_1_MAKE-UP AIR UNIT 1, Heating, Sensible, 139787.48, 2.60379, 1.52400, FORT MCMURRAY AP ANN HTG 99.6% CONDNS DB, 1/21 09:00:00
 System Sizing Information, SYS_3_PSZ ALL_ST=DINING - BAR LOUNGE/LEISURE_FL=STORY 4_SCH=B, Cooling, Sensible, 159514.96, 8.95350, 8.95350, FORT MCMURRAY AP ANN CLG .4% CONDNS DB=>MWB, 7/21 05:00:00
 System Sizing Information, SYS_3_PSZ ALL_ST=DINING - BAR LOUNGE/LEISURE_FL=STORY 4_SCH=B, Heating, Sensible, 821251.43, 8.95350, 8.95350, FORT MCMURRAY AP ANN HTG 99.6% CONDNS DB, 1/21 00:10:00
 System Sizing Information, SYS_3_PSZ ALL_ST=DINING - FAMILY SPACE_FL=STORY 4_SCH=B, Cooling, Sensible, 70615.18, 6.71513, 6.71513, FORT MCMURRAY AP ANN CLG .4% CONDNS DB=>MWB, 7/21 05:00:00
 System Sizing Information, SYS_3_PSZ ALL_ST=DINING - FAMILY SPACE_FL=STORY 4_SCH=B, Heating, Sensible, 615938.57, 6.71513, 6.71513, FORT MCMURRAY AP ANN HTG 99.6% CONDNS DB, 1/21 00:10:00
 System Sizing Information, SYS_3_PSZ ALL_ST=DINING - OTHER_FL=STORY 4_SCH=B, Cooling, Sensible, 120439.84, 6.71513, 6.71513, FORT MCMURRAY AP ANN CLG .4% CONDNS DB=>MWB, 7/21 05:00:00
 System Sizing Information, SYS_3_PSZ ALL_ST=DINING - OTHER_FL=STORY 4_SCH=B, Heating, Sensible, 615938.57, 6.71513, 6.71513, FORT MCMURRAY AP ANN HTG 99.6% CONDNS DB, 1/21 00:10:00
 System Sizing Information, SYS_3_PSZ ALL_ST=DRESS./FITT. - PERFORMANCE ARTS_FL=STORY 3_SCH=C, Cooling, Sensible, 50394.46, 3.56768, 3.56768, FORT MCMURRAY AP ANN CLG .4% CONDNS DB=>MWB, 7/21 05:00:00
 System Sizing Information, SYS_3_PSZ ALL_ST=DRESS./FITT. - PERFORMANCE ARTS_FL=STORY 3_SCH=C, Heating, Sensible, 203565.51, 2.21933, 2.21933, FORT MCMURRAY AP ANN HTG 99.6% CONDNS DB, 1/21 00:10:00
 System Sizing Information, SYS_3_PSZ ALL_ST=FOOD PREPARATION_FL=STORY 3_SCH=B, Cooling, Sensible, 54464.35, 4.72859, 4.72859, FORT MCMURRAY AP ANN CLG .4% CONDNS DB=>MWB, 7/21 05:00:00
 System Sizing Information, SYS_3_PSZ ALL_ST=FOOD PREPARATION_FL=STORY 3_SCH=B, Heating, Sensible, 235891.37, 2.57175, 2.57175, FORT MCMURRAY AP ANN HTG 99.6% CONDNS DB, 1/21 00:10:00
 System Sizing Information, SYS_3_PSZ DU_BT=SPACE FUNCTION_ST=DORMITORY - LIVING QUARTERS_FL=STORY 3_SCHG, Cooling, Sensible, 29516.72, 2.48214, 2.48214, FORT MCMURRAY AP ANN CLG .4% CONDNS DB=>MWB, 7/21 05:00:00
 System Sizing Information, SYS_3_PSZ DU_BT=SPACE FUNCTION_ST=DORMITORY - LIVING QUARTERS_FL=STORY 3_SCHG, Heating, Sensible, 128138.52, 1.39700, 1.39700, FORT MCMURRAY AP ANN HTG 99.6% CONDNS DB, 1/21 00:10:00
 System Sizing Information, SYS_4_PSZ_ALL_ST=FIRE STATION - ENGINE ROOM_FL=STORY 2_SCH=H, Cooling, Sensible, 25724.78, 2.38125, 2.38125, FORT MCMURRAY AP ANN CLG .4% CONDNS DB=>MWB, 7/21 05:00:00
 System Sizing Information, SYS_4_PSZ_ALL_ST=FIRE STATION - ENGINE ROOM_FL=STORY 2_SCH=H, Heating, Sensible, 218417.93, 2.38125, 2.38125, FORT MCMURRAY AP ANN HTG 99.6% CONDNS DB, 1/21 00:10:00
 System Sizing Information, SYS_4_PSZ_ALL_ST=FOOD PREPARATION - VENTED_FL=STORY 2_SCH=B, Cooling, Sensible, 64783.95, 4.01231, 4.01231, FORT MCMURRAY AP ANN CLG .4% CONDNS DB=>MWB, 7/21 05:00:00
 System Sizing Information, SYS_4_PSZ_ALL_ST=FOOD PREPARATION - VENTED_FL=STORY 2_SCH=B, Heating, Sensible, 235891.37, 2.57175, 2.57175, FORT MCMURRAY AP ANN HTG 99.6% CONDNS DB, 1/21 00:10:00
 System Sizing Information, SYS_4_PSZ_WILD_ST=ELECTRICAL/MECHANICAL-SCH-A_FL=STORY 1_SCH=B, Cooling, Sensible, 335837.58, 26.41158, 26.41158, FORT MCMURRAY AP ANN CLG .4% CONDNS DB=>MWB, 7/21 05:00:00
 System Sizing Information, SYS_4_PSZ_WILD_ST=ELECTRICAL/MECHANICAL-SCH-A_FL=STORY 1_SCH=B, Heating, Sensible, 539158.35, 7.37288, 7.37288, FORT MCMURRAY AP ANN HTG 99.6% CONDNS DB, 1/21 10:00:00
 System Sizing Information, SYS_6_VAV WITH REHEAT, Cooling, Sensible, 88971.55, 10.28700, 10.28700, FORT MCMURRAY AP ANN CLG .4% CONDNS DB=>MWB, 7/21 00:00:00
 System Sizing Information, SYS_6_VAV WITH REHEAT, Heating, Sensible, 587345.68, 10.28700, 10.28700, FORT MCMURRAY AP ANN HTG 99.6% CONDNS DB, 1/21 00:10:00
! <Component Sizing Information>, Component Type, Component Name, Input Field Description, Value
 Component Sizing Information, AirTerminal:SingleDuct:Uncontrolled, AIR TERMINAL SINGLE DUCT UNCONTROLLED 13, Design Size Maximum Air Flow Rate [m3/s], 8.95350
 Component Sizing Information, ZoneHVAC:Baseboard:Convective:Water, ZONE HVAC BASEBOARD CONVECTIVE WATER 13, Design Size Maximum Water Flow Rate [m3/s], 6.94781E-004
 Component Sizing Information, ZoneHVAC:Baseboard:Convective:Water, ZONE HVAC BASEBOARD CONVECTIVE WATER 13, Design Size U-Factor Times Area Value [W/K], 1335.00861
 Component Sizing Information, AirTerminal:SingleDuct:Uncontrolled, AIR TERMINAL SINGLE DUCT UNCONTROLLED 14, Design Size Maximum Air Flow Rate [m3/s], 6.71513
 Component Sizing Information, ZoneHVAC:Baseboard:Convective:Water, ZONE HVAC BASEBOARD CONVECTIVE WATER 14, Design Size Maximum Water Flow Rate [m3/s], 8.40803E-004
 Component Sizing Information, ZoneHVAC:Baseboard:Convective:Water, ZONE HVAC BASEBOARD CONVECTIVE WATER 14, Design Size U-Factor Times Area Value [W/K], 1716.17953
 Component Sizing Information, AirTerminal:SingleDuct:Uncontrolled, AIR TERMINAL SINGLE DUCT UNCONTROLLED 15, Design Size Maximum Air Flow Rate [m3/s], 6.71513
 Component Sizing Information, ZoneHVAC:Baseboard:Convective:Water, ZONE HVAC BASEBOARD CONVECTIVE WATER 15, Design Size Maximum Water Flow Rate [m3/s], 9.14134E-004
 Component Sizing Information, ZoneHVAC:Baseboard:Convective:Water, ZONE HVAC BASEBOARD CONVECTIVE WATER 15, Design Size U-Factor Times Area Value [W/K], 1865.76217
 Component Sizing Information, AirTerminal:SingleDuct:Uncontrolled, AIR TERMINAL SINGLE DUCT UNCONTROLLED 16, Design Size Maximum Air Flow Rate [m3/s], 3.56768
 Component Sizing Information, ZoneHVAC:Baseboard:Convective:Water, ZONE HVAC BASEBOARD CONVECTIVE WATER 16, Design Size Maximum Water Flow Rate [m3/s], 4.89014E-004
 Component Sizing Information, ZoneHVAC:Baseboard:Convective:Water, ZONE HVAC BASEBOARD CONVECTIVE WATER 16, Design Size U-Factor Times Area Value [W/K], 997.28492
 Component Sizing Information, AirTerminal:SingleDuct:Uncontrolled, AIR TERMINAL SINGLE DUCT UNCONTROLLED 18, Design Size Maximum Air Flow Rate [m3/s], 2.38125
 Component Sizing Information, ZoneHVAC:Baseboard:Convective:Water, ZONE HVAC BASEBOARD CONVECTIVE WATER 18, Design Size Maximum Water Flow Rate [m3/s], 0.00000
 Component Sizing Information, ZoneHVAC:Baseboard:Convective:Water, ZONE HVAC BASEBOARD CONVECTIVE WATER 18, Design Size U-Factor Times Area Value [W/K], 0.00000
 Component Sizing Information, AirTerminal:SingleDuct:Uncontrolled, AIR TERMINAL SINGLE DUCT UNCONTROLLED 19, Design Size Maximum Air Flow Rate [m3/s], 4.01231
 Component Sizing Information, ZoneHVAC:Baseboard:Convective:Water, ZONE HVAC BASEBOARD CONVECTIVE WATER 19, Design Size Maximum Water Flow Rate [m3/s], 0.00000
 Component Sizing Information, ZoneHVAC:Baseboard:Convective:Water, ZONE HVAC BASEBOARD CONVECTIVE WATER 19, Design Size U-Factor Times Area Value [W/K], 0.00000
 Component Sizing Information, AirTerminal:SingleDuct:Uncontrolled, AIR TERMINAL SINGLE DUCT UNCONTROLLED 17, Design Size Maximum Air Flow Rate [m3/s], 4.72859
 Component Sizing Information, ZoneHVAC:Baseboard:Convective:Water, ZONE HVAC BASEBOARD CONVECTIVE WATER 17, Design Size Maximum Water Flow Rate [m3/s], 1.31945E-004
 Component Sizing Information, ZoneHVAC:Baseboard:Convective:Water, ZONE HVAC BASEBOARD CONVECTIVE WATER 17, Design Size U-Factor Times Area Value [W/K], 268.62103
 Component Sizing Information, AirTerminal:SingleDuct:VAV:Reheat, AIR TERMINAL SINGLE DUCT VAV REHEAT 1, Design Size Maximum Air Flow Rate [m3/s], 10.28700
 Component Sizing Information, AirTerminal:SingleDuct:VAV:Reheat, AIR TERMINAL SINGLE DUCT VAV REHEAT 1, Design Size Constant Minimum Air Flow Fraction, 0.18519
 Component Sizing Information, AirTerminal:SingleDuct:VAV:Reheat, AIR TERMINAL SINGLE DUCT VAV REHEAT 1, User-Specified Constant Minimum Air Flow Fraction, 0.30000
 Component Sizing Information, AirTerminal:SingleDuct:VAV:Reheat, AIR TERMINAL SINGLE DUCT VAV REHEAT 1, Design Size Minimum Air Flow Rate [m3/s], 3.08610
 Component Sizing Information, AirTerminal:SingleDuct:VAV:Reheat, AIR TERMINAL SINGLE DUCT VAV REHEAT 1, Design Size Maximum Flow per Zone Floor Area during Reheat [m3/s-m2], 1.23444E-003
 Component Sizing Information, AirTerminal:SingleDuct:VAV:Reheat, AIR TERMINAL SINGLE DUCT VAV REHEAT 1, Design Size Maximum Flow Fraction during Reheat [], 0.30000
 Component Sizing Information, AirTerminal:SingleDuct:VAV:Reheat, AIR TERMINAL SINGLE DUCT VAV REHEAT 1, Design Size Maximum Reheat Water Flow Rate [m3/s], 4.90313E-004
 Component Sizing Information, AirTerminal:SingleDuct:VAV:Reheat, AIR TERMINAL SINGLE DUCT VAV REHEAT 1, Design Size Reheat Coil Sizing Air Volume Flow Rate [m3/s], 3.08610
 Component Sizing Information, AirTerminal:SingleDuct:VAV:Reheat, AIR TERMINAL SINGLE DUCT VAV REHEAT 1, Design Size Reheat Coil Sizing Inlet Air Temperature [C], 13.10000
 Component Sizing Information, AirTerminal:SingleDuct:VAV:Reheat, AIR TERMINAL SINGLE DUCT VAV REHEAT 1, Design Size Reheat Coil Sizing Inlet Air Humidity Ratio [kgWater/kgDryAir], 8.00000E-003
 Component Sizing Information, Coil:Heating:Water, COIL HEATING WATER 4, Design Size Rated Capacity [W], 32827.99512
 Component Sizing Information, Coil:Heating:Water, COIL HEATING WATER 4, Design Size Maximum Water Flow Rate [m3/s], 4.90313E-004
 Component Sizing Information, Coil:Heating:Water, COIL HEATING WATER 4, Design Size U-Factor Times Area Value [W/K], 591.89967
! <Water Heating Coil Capacity Information>,Component Type,Name,Nominal Total Capacity {W}
Water Heating Coil Capacity Information,Coil:Heating:Water,COIL HEATING WATER 4,30780.80
 Component Sizing Information, ZoneHVAC:Baseboard:Convective:Water, ZONE HVAC BASEBOARD CONVECTIVE WATER 20, Design Size Maximum Water Flow Rate [m3/s], 0.00000
 Component Sizing Information, ZoneHVAC:Baseboard:Convective:Water, ZONE HVAC BASEBOARD CONVECTIVE WATER 20, Design Size U-Factor Times Area Value [W/K], 0.00000
 Component Sizing Information, AirTerminal:SingleDuct:Uncontrolled, AIR TERMINAL SINGLE DUCT UNCONTROLLED 1, Design Size Maximum Air Flow Rate [m3/s], 2.48214
 Component Sizing Information, ZoneHVAC:Baseboard:Convective:Water, ZONE HVAC BASEBOARD CONVECTIVE WATER 1, Design Size Maximum Water Flow Rate [m3/s], 0.00000
 Component Sizing Information, ZoneHVAC:Baseboard:Convective:Water, ZONE HVAC BASEBOARD CONVECTIVE WATER 1, Design Size U-Factor Times Area Value [W/K], 0.00000
 Component Sizing Information, ZoneHVAC:PackagedTerminalAirConditioner, DU_BT=SPACE FUNCTION_ST=DWELLING UNIT(S)_FL=STORY 3_SCHG PTAC, Design Size Cooling Supply Air Flow Rate [m3/s], 2.63694
 Component Sizing Information, ZoneHVAC:PackagedTerminalAirConditioner, DU_BT=SPACE FUNCTION_ST=DWELLING UNIT(S)_FL=STORY 3_SCHG PTAC, Design Size Heating Supply Air Flow Rate [m3/s], 2.63694
 Component Sizing Information, ZoneHVAC:PackagedTerminalAirConditioner, DU_BT=SPACE FUNCTION_ST=DWELLING UNIT(S)_FL=STORY 3_SCHG PTAC, Design Size No Load Supply Air Flow Rate [m3/s], 2.63694
 Component Sizing Information, ZoneHVAC:PackagedTerminalAirConditioner, DU_BT=SPACE FUNCTION_ST=DWELLING UNIT(S)_FL=STORY 3_SCHG PTAC, Design Size Outdoor Air Flow Rate During Cooling Operation [m3/s], 0.64770
 Component Sizing Information, ZoneHVAC:PackagedTerminalAirConditioner, DU_BT=SPACE FUNCTION_ST=DWELLING UNIT(S)_FL=STORY 3_SCHG PTAC, Design Size Outdoor Air Flow Rate During Heating Operation [m3/s], 0.64770
 Component Sizing Information, ZoneHVAC:PackagedTerminalAirConditioner, DU_BT=SPACE FUNCTION_ST=DWELLING UNIT(S)_FL=STORY 3_SCHG PTAC, Design Size Outdoor Air Flow Rate When No Cooling or Heating is Needed [m3/s], 0.64770
 Component Sizing Information, Coil:Cooling:DX:SingleSpeed, COIL COOLING DX SINGLE SPEED 3, Design Size Rated Air Flow Rate [m3/s], 2.63694
 Component Sizing Information, Coil:Cooling:DX:SingleSpeed, COIL COOLING DX SINGLE SPEED 3, Design Size Gross Rated Total Cooling Capacity [W], 43650.73831
 Component Sizing Information, Coil:Cooling:DX:SingleSpeed, COIL COOLING DX SINGLE SPEED 3, Design Size Gross Rated Sensible Heat Ratio, 0.80066
! <DX Cooling Coil Standard Rating Information>, Component Type, Component Name, Standard Rating (Net) Cooling Capacity {W}, Standard Rated Net COP {W/W}, EER {Btu/W-h}, SEER {Btu/W-h}, IEER {Btu/W-h}
 DX Cooling Coil Standard Rating Information, Coil:Cooling:DX:SingleSpeed, COIL COOLING DX SINGLE SPEED 3, 41603.4, 2.51, 8.56, 9.04, 8.63
 Component Sizing Information, Coil:Heating:Electric, COIL HEATING ELECTRIC 1, Design Size Nominal Capacity [W], 60287.82385
 Component Sizing Information, Fan:ConstantVolume, FAN CONSTANT VOLUME 3, Design Size Maximum Flow Rate [m3/s], 2.63694
 Component Sizing Information, ZoneHVAC:Baseboard:Convective:Water, ZONE HVAC BASEBOARD CONVECTIVE WATER 2, Design Size Maximum Water Flow Rate [m3/s], 2.16905E-004
 Component Sizing Information, ZoneHVAC:Baseboard:Convective:Water, ZONE HVAC BASEBOARD CONVECTIVE WATER 2, Design Size U-Factor Times Area Value [W/K], 441.65253
 Component Sizing Information, AirTerminal:SingleDuct:Uncontrolled, AIR TERMINAL SINGLE DUCT UNCONTROLLED 2, Design Size Maximum Air Flow Rate [m3/s], 0.64770
 Component Sizing Information, ZoneHVAC:PackagedTerminalAirConditioner, DU_BT=SPACE FUNCTION_ST=FIRE STATION - QUARTERS_FL=STORY 4_SCHG PTAC, Design Size Cooling Supply Air Flow Rate [m3/s], 5.03766
 Component Sizing Information, ZoneHVAC:PackagedTerminalAirConditioner, DU_BT=SPACE FUNCTION_ST=FIRE STATION - QUARTERS_FL=STORY 4_SCHG PTAC, Design Size Heating Supply Air Flow Rate [m3/s], 5.03766
 Component Sizing Information, ZoneHVAC:PackagedTerminalAirConditioner, DU_BT=SPACE FUNCTION_ST=FIRE STATION - QUARTERS_FL=STORY 4_SCHG PTAC, Design Size No Load Supply Air Flow Rate [m3/s], 5.03766
 Component Sizing Information, ZoneHVAC:PackagedTerminalAirConditioner, DU_BT=SPACE FUNCTION_ST=FIRE STATION - QUARTERS_FL=STORY 4_SCHG PTAC, Design Size Outdoor Air Flow Rate During Cooling Operation [m3/s], 1.52400
 Component Sizing Information, ZoneHVAC:PackagedTerminalAirConditioner, DU_BT=SPACE FUNCTION_ST=FIRE STATION - QUARTERS_FL=STORY 4_SCHG PTAC, Design Size Outdoor Air Flow Rate During Heating Operation [m3/s], 1.52400
 Component Sizing Information, ZoneHVAC:PackagedTerminalAirConditioner, DU_BT=SPACE FUNCTION_ST=FIRE STATION - QUARTERS_FL=STORY 4_SCHG PTAC, Design Size Outdoor Air Flow Rate When No Cooling or Heating is Needed [m3/s], 1.52400
 Component Sizing Information, Coil:Cooling:DX:SingleSpeed, COIL COOLING DX SINGLE SPEED 5, Design Size Rated Air Flow Rate [m3/s], 5.03766
 Component Sizing Information, Coil:Cooling:DX:SingleSpeed, COIL COOLING DX SINGLE SPEED 5, Design Size Gross Rated Total Cooling Capacity [W], 83391.19637
 Component Sizing Information, Coil:Cooling:DX:SingleSpeed, COIL COOLING DX SINGLE SPEED 5, Design Size Gross Rated Sensible Heat Ratio, 0.80066
 DX Cooling Coil Standard Rating Information, Coil:Cooling:DX:SingleSpeed, COIL COOLING DX SINGLE SPEED 5, 79480.0, 2.51, 8.56, 9.04, 8.63
 Component Sizing Information, Coil:Heating:Electric, COIL HEATING ELECTRIC 2, Design Size Nominal Capacity [W], 168503.59992
 Component Sizing Information, Fan:ConstantVolume, FAN CONSTANT VOLUME 5, Design Size Maximum Flow Rate [m3/s], 5.03766
 Component Sizing Information, ZoneHVAC:Baseboard:Convective:Water, ZONE HVAC BASEBOARD CONVECTIVE WATER 3, Design Size Maximum Water Flow Rate [m3/s], 9.75055E-004
 Component Sizing Information, ZoneHVAC:Baseboard:Convective:Water, ZONE HVAC BASEBOARD CONVECTIVE WATER 3, Design Size U-Factor Times Area Value [W/K], 1989.33824
 Component Sizing Information, AirTerminal:SingleDuct:Uncontrolled, AIR TERMINAL SINGLE DUCT UNCONTROLLED 3, Design Size Maximum Air Flow Rate [m3/s], 1.52400
 Component Sizing Information, AirTerminal:SingleDuct:Uncontrolled, AIR TERMINAL SINGLE DUCT UNCONTROLLED 4, Design Size Maximum Air Flow Rate [m3/s], 1.96175
 Component Sizing Information, ZoneHVAC:Baseboard:Convective:Water, ZONE HVAC BASEBOARD CONVECTIVE WATER 4, Design Size Maximum Water Flow Rate [m3/s], 0.00000
 Component Sizing Information, ZoneHVAC:Baseboard:Convective:Water, ZONE HVAC BASEBOARD CONVECTIVE WATER 4, Design Size U-Factor Times Area Value [W/K], 0.00000
 Component Sizing Information, AirTerminal:SingleDuct:Uncontrolled, AIR TERMINAL SINGLE DUCT UNCONTROLLED 5, Design Size Maximum Air Flow Rate [m3/s], 6.66759
 Component Sizing Information, ZoneHVAC:Baseboard:Convective:Water, ZONE HVAC BASEBOARD CONVECTIVE WATER 5, Design Size Maximum Water Flow Rate [m3/s], 8.72891E-004
 Component Sizing Information, ZoneHVAC:Baseboard:Convective:Water, ZONE HVAC BASEBOARD CONVECTIVE WATER 5, Design Size U-Factor Times Area Value [W/K], 1781.80469
 Component Sizing Information, AirTerminal:SingleDuct:Uncontrolled, AIR TERMINAL SINGLE DUCT UNCONTROLLED 6, Design Size Maximum Air Flow Rate [m3/s], 1.89604
 Component Sizing Information, ZoneHVAC:Baseboard:Convective:Water, ZONE HVAC BASEBOARD CONVECTIVE WATER 6, Design Size Maximum Water Flow Rate [m3/s], 0.00000
 Component Sizing Information, ZoneHVAC:Baseboard:Convective:Water, ZONE HVAC BASEBOARD CONVECTIVE WATER 6, Design Size U-Factor Times Area Value [W/K], 0.00000
 Component Sizing Information, AirTerminal:SingleDuct:Uncontrolled, AIR TERMINAL SINGLE DUCT UNCONTROLLED 7, Design Size Maximum Air Flow Rate [m3/s], 1.90177
 Component Sizing Information, ZoneHVAC:Baseboard:Convective:Water, ZONE HVAC BASEBOARD CONVECTIVE WATER 7, Design Size Maximum Water Flow Rate [m3/s], 0.00000
 Component Sizing Information, ZoneHVAC:Baseboard:Convective:Water, ZONE HVAC BASEBOARD CONVECTIVE WATER 7, Design Size U-Factor Times Area Value [W/K], 0.00000
 Component Sizing Information, AirTerminal:SingleDuct:Uncontrolled, AIR TERMINAL SINGLE DUCT UNCONTROLLED 8, Design Size Maximum Air Flow Rate [m3/s], 2.09392
 Component Sizing Information, ZoneHVAC:Baseboard:Convective:Water, ZONE HVAC BASEBOARD CONVECTIVE WATER 8, Design Size Maximum Water Flow Rate [m3/s], 0.00000
 Component Sizing Information, ZoneHVAC:Baseboard:Convective:Water, ZONE HVAC BASEBOARD CONVECTIVE WATER 8, Design Size U-Factor Times Area Value [W/K], 0.00000
 Component Sizing Information, AirTerminal:SingleDuct:Uncontrolled, AIR TERMINAL SINGLE DUCT UNCONTROLLED 9, Design Size Maximum Air Flow Rate [m3/s], 1.67045
 Component Sizing Information, ZoneHVAC:Baseboard:Convective:Water, ZONE HVAC BASEBOARD CONVECTIVE WATER 9, Design Size Maximum Water Flow Rate [m3/s], 0.00000
 Component Sizing Information, ZoneHVAC:Baseboard:Convective:Water, ZONE HVAC BASEBOARD CONVECTIVE WATER 9, Design Size U-Factor Times Area Value [W/K], 0.00000
 Component Sizing Information, AirTerminal:SingleDuct:Uncontrolled, AIR TERMINAL SINGLE DUCT UNCONTROLLED 10, Design Size Maximum Air Flow Rate [m3/s], 3.47239
 Component Sizing Information, ZoneHVAC:Baseboard:Convective:Water, ZONE HVAC BASEBOARD CONVECTIVE WATER 10, Design Size Maximum Water Flow Rate [m3/s], 8.78283E-005
 Component Sizing Information, ZoneHVAC:Baseboard:Convective:Water, ZONE HVAC BASEBOARD CONVECTIVE WATER 10, Design Size U-Factor Times Area Value [W/K], 179.97002
 Component Sizing Information, AirTerminal:SingleDuct:Uncontrolled, AIR TERMINAL SINGLE DUCT UNCONTROLLED 11, Design Size Maximum Air Flow Rate [m3/s], 2.62965
 Component Sizing Information, ZoneHVAC:Baseboard:Convective:Water, ZONE HVAC BASEBOARD CONVECTIVE WATER 11, Design Size Maximum Water Flow Rate [m3/s], 3.27778E-004
 Component Sizing Information, ZoneHVAC:Baseboard:Convective:Water, ZONE HVAC BASEBOARD CONVECTIVE WATER 11, Design Size U-Factor Times Area Value [W/K], 669.89737
 Component Sizing Information, AirTerminal:SingleDuct:Uncontrolled, AIR TERMINAL SINGLE DUCT UNCONTROLLED 12, Design Size Maximum Air Flow Rate [m3/s], 4.11802
 Component Sizing Information, ZoneHVAC:Baseboard:Convective:Water, ZONE HVAC BASEBOARD CONVECTIVE WATER 12, Design Size Maximum Water Flow Rate [m3/s], 0.00000
 Component Sizing Information, ZoneHVAC:Baseboard:Convective:Water, ZONE HVAC BASEBOARD CONVECTIVE WATER 12, Design Size U-Factor Times Area Value [W/K], 0.00000
 Component Sizing Information, AirLoopHVAC, SYS_1_MAKE-UP AIR UNIT, Sum of Air Terminal Maximum Heating Flow Rates [m3/s], 0.64770
 Component Sizing Information, AirLoopHVAC, SYS_1_MAKE-UP AIR UNIT, Sum of Air Terminal Minimum Heating Flow Rates [m3/s], 0.64770
 Component Sizing Information, AirLoopHVAC, SYS_1_MAKE-UP AIR UNIT, Sum of Air Terminal Maximum Flow Rates [m3/s], 0.64770
 Component Sizing Information, AirLoopHVAC, SYS_1_MAKE-UP AIR UNIT, Adjusted Heating Design Air Flow Rate [m3/s], 0.64770
 Component Sizing Information, AirLoopHVAC, SYS_1_MAKE-UP AIR UNIT, Adjusted Cooling Design Air Flow Rate [m3/s], 0.64770
 Component Sizing Information, AirLoopHVAC, SYS_1_MAKE-UP AIR UNIT, Adjusted Main Design Air Flow Rate [m3/s], 0.64770
 Component Sizing Information, AirLoopHVAC, SYS_1_MAKE-UP AIR UNIT, User Heating Air Flow Ratio [], 1.00000
 Component Sizing Information, AirLoopHVAC, SYS_1_MAKE-UP AIR UNIT, Calculated Heating Air Flow Ratio [], 1.00000
 Component Sizing Information, AirLoopHVAC, SYS_1_MAKE-UP AIR UNIT 1, Sum of Air Terminal Maximum Heating Flow Rates [m3/s], 1.52400
 Component Sizing Information, AirLoopHVAC, SYS_1_MAKE-UP AIR UNIT 1, Sum of Air Terminal Minimum Heating Flow Rates [m3/s], 1.52400
 Component Sizing Information, AirLoopHVAC, SYS_1_MAKE-UP AIR UNIT 1, Sum of Air Terminal Maximum Flow Rates [m3/s], 1.52400
 Component Sizing Information, AirLoopHVAC, SYS_1_MAKE-UP AIR UNIT 1, Adjusted Heating Design Air Flow Rate [m3/s], 1.52400
 Component Sizing Information, AirLoopHVAC, SYS_1_MAKE-UP AIR UNIT 1, Adjusted Cooling Design Air Flow Rate [m3/s], 1.52400
 Component Sizing Information, AirLoopHVAC, SYS_1_MAKE-UP AIR UNIT 1, Adjusted Main Design Air Flow Rate [m3/s], 1.52400
 Component Sizing Information, AirLoopHVAC, SYS_1_MAKE-UP AIR UNIT 1, User Heating Air Flow Ratio [], 1.00000
 Component Sizing Information, AirLoopHVAC, SYS_1_MAKE-UP AIR UNIT 1, Calculated Heating Air Flow Ratio [], 1.00000
 Component Sizing Information, AirLoopHVAC, SYS_3_PSZ ALL_ST=DINING - BAR LOUNGE/LEISURE_FL=STORY 4_SCH=B, Sum of Air Terminal Maximum Heating Flow Rates [m3/s], 8.95350
 Component Sizing Information, AirLoopHVAC, SYS_3_PSZ ALL_ST=DINING - BAR LOUNGE/LEISURE_FL=STORY 4_SCH=B, Sum of Air Terminal Minimum Heating Flow Rates [m3/s], 8.95350
 Component Sizing Information, AirLoopHVAC, SYS_3_PSZ ALL_ST=DINING - BAR LOUNGE/LEISURE_FL=STORY 4_SCH=B, Sum of Air Terminal Maximum Flow Rates [m3/s], 8.95350
 Component Sizing Information, AirLoopHVAC, SYS_3_PSZ ALL_ST=DINING - BAR LOUNGE/LEISURE_FL=STORY 4_SCH=B, Adjusted Heating Design Air Flow Rate [m3/s], 8.95350
 Component Sizing Information, AirLoopHVAC, SYS_3_PSZ ALL_ST=DINING - BAR LOUNGE/LEISURE_FL=STORY 4_SCH=B, Adjusted Cooling Design Air Flow Rate [m3/s], 8.95350
 Component Sizing Information, AirLoopHVAC, SYS_3_PSZ ALL_ST=DINING - BAR LOUNGE/LEISURE_FL=STORY 4_SCH=B, Adjusted Main Design Air Flow Rate [m3/s], 8.95350
 Component Sizing Information, AirLoopHVAC, SYS_3_PSZ ALL_ST=DINING - BAR LOUNGE/LEISURE_FL=STORY 4_SCH=B, User Heating Air Flow Ratio [], 1.00000
 Component Sizing Information, AirLoopHVAC, SYS_3_PSZ ALL_ST=DINING - BAR LOUNGE/LEISURE_FL=STORY 4_SCH=B, Calculated Heating Air Flow Ratio [], 1.00000
 Component Sizing Information, AirLoopHVAC, SYS_3_PSZ ALL_ST=DINING - FAMILY SPACE_FL=STORY 4_SCH=B, Sum of Air Terminal Maximum Heating Flow Rates [m3/s], 6.71513
 Component Sizing Information, AirLoopHVAC, SYS_3_PSZ ALL_ST=DINING - FAMILY SPACE_FL=STORY 4_SCH=B, Sum of Air Terminal Minimum Heating Flow Rates [m3/s], 6.71513
 Component Sizing Information, AirLoopHVAC, SYS_3_PSZ ALL_ST=DINING - FAMILY SPACE_FL=STORY 4_SCH=B, Sum of Air Terminal Maximum Flow Rates [m3/s], 6.71513
 Component Sizing Information, AirLoopHVAC, SYS_3_PSZ ALL_ST=DINING - FAMILY SPACE_FL=STORY 4_SCH=B, Adjusted Heating Design Air Flow Rate [m3/s], 6.71513
[...]
 Component Sizing Information, Fan:ConstantVolume, FAN CONSTANT VOLUME 13, Design Size Maximum Flow Rate [m3/s], 4.01231
 Component Sizing Information, Controller:OutdoorAir, CONTROLLER OUTDOOR AIR 4, Maximum Outdoor Air Flow Rate [m3/s], 26.41158
 Component Sizing Information, Controller:OutdoorAir, CONTROLLER OUTDOOR AIR 4, Minimum Outdoor Air Flow Rate [m3/s], 5.33400
 Component Sizing Information, Coil:Cooling:DX:SingleSpeed, COIL COOLING DX SINGLE SPEED 6, Design Size Rated Air Flow Rate [m3/s], 26.41158
 Component Sizing Information, Coil:Cooling:DX:SingleSpeed, COIL COOLING DX SINGLE SPEED 6, Design Size Gross Rated Total Cooling Capacity [W], 437205.40140
 Component Sizing Information, Coil:Cooling:DX:SingleSpeed, COIL COOLING DX SINGLE SPEED 6, Design Size Gross Rated Sensible Heat Ratio, 0.80066
 DX Cooling Coil Standard Rating Information, Coil:Cooling:DX:SingleSpeed, COIL COOLING DX SINGLE SPEED 6, 416699.5, 2.51, 8.56, 9.04, 8.63
 Component Sizing Information, Coil:Heating:Fuel, COIL HEATING GAS 2, Design Size Nominal Capacity [W], 1005137.32647
 Component Sizing Information, Fan:ConstantVolume, FAN CONSTANT VOLUME 6, Design Size Maximum Flow Rate [m3/s], 26.41158
 Component Sizing Information, Fan:VariableVolume, SYS6 RETURN FAN, Design Size Maximum Flow Rate [m3/s], 10.28700
 Component Sizing Information, Controller:OutdoorAir, CONTROLLER OUTDOOR AIR 12, Maximum Outdoor Air Flow Rate [m3/s], 10.28700
 Component Sizing Information, Controller:OutdoorAir, CONTROLLER OUTDOOR AIR 12, Minimum Outdoor Air Flow Rate [m3/s], 10.28700
 Component Sizing Information, Coil:Cooling:Water, COIL COOLING WATER 1, Design Size Design Coil Load [W], 115803.90876
 Component Sizing Information, Coil:Cooling:Water, COIL COOLING WATER 1, Design Size Design Water Flow Rate [m3/s], 4.59805E-003
 Component Sizing Information, Coil:Cooling:Water, COIL COOLING WATER 1, Design Size Design Air Flow Rate [m3/s], 10.28700
 Component Sizing Information, Coil:Cooling:Water, COIL COOLING WATER 1, Design Size Design Inlet Air Temperature [C], 20.46800
 Component Sizing Information, Coil:Cooling:Water, COIL COOLING WATER 1, Design Size Design Inlet Water Temperature [C], 7.00000
 Component Sizing Information, Coil:Cooling:Water, COIL COOLING WATER 1, Design Size Design Outlet Air Temperature [C], 13.00000
 Component Sizing Information, Coil:Cooling:Water, COIL COOLING WATER 1, Design Size Design Inlet Air Humidity Ratio, 8.76969E-003
 Component Sizing Information, Coil:Cooling:Water, COIL COOLING WATER 1, Design Size Design Outlet Air Humidity Ratio, 8.76847E-003
! <Water Cooling Coil Capacity Information>,Component Type,Name,Nominal Total Capacity {W},Nominal Sensible Capacity {W},Nominal Latent Capacity {W},Nominal Sensible Heat Ratio, Nominal Coil UA Value {W/C}, Nominal Coil Surface Area {m2}
Water Cooling Coil Capacity Information,Coil:Cooling:Water,COIL COOLING WATER 1,181679.02,139188.35,42490.67,0.77,19885.44,201.69
 Component Sizing Information, Coil:Heating:Water, COIL HEATING WATER 3, Design Size Rated Capacity [W], 176203.70357
 Component Sizing Information, Coil:Heating:Water, COIL HEATING WATER 3, Design Size Maximum Water Flow Rate [m3/s], 2.63175E-003
 Component Sizing Information, Coil:Heating:Water, COIL HEATING WATER 3, Design Size U-Factor Times Area Value [W/K], 2150.20184
Water Heating Coil Capacity Information,Coil:Heating:Water,COIL HEATING WATER 3,98172.73
 Component Sizing Information, Fan:VariableVolume, SYS6 SUPPLY FAN, Design Size Maximum Flow Rate [m3/s], 10.28700
 Component Sizing Information, Controller:WaterCoil, CONTROLLER WATER COIL 4, Maximum Actuated Flow [m3/s], 4.59805E-003
 Component Sizing Information, Controller:WaterCoil, CONTROLLER WATER COIL 4, Controller Convergence Tolerance, 1.03564E-004
 Component Sizing Information, Controller:WaterCoil, CONTROLLER WATER COIL 3, Maximum Actuated Flow [m3/s], 2.63175E-003
 Component Sizing Information, Controller:WaterCoil, CONTROLLER WATER COIL 3, Controller Convergence Tolerance, 1.80941E-004
Water Heater Information,WaterHeater:Mixed,808GAL NATURALGAS WATER HEATER - 1663KBTU/HR,3.0571,487355.4,0.224,0.6639
 Component Sizing Information, PlantLoop, CHILLED WATER LOOP, Maximum Loop Flow Rate [m3/s], 4.59805E-003
 Component Sizing Information, PlantLoop, CHILLED WATER LOOP, Plant Loop Volume [m3], 0.55177
 Component Sizing Information, Pump:ConstantSpeed, PUMP CONSTANT SPEED 1, Design Flow Rate [m3/s], 4.59805E-003
 Component Sizing Information, Pump:ConstantSpeed, PUMP CONSTANT SPEED 1, Design Power Consumption [W], 1174.74322
 Component Sizing Information, Chiller:Electric:EIR, PRIMARY CHILLER WATERCOOLED SCROLL, Design Size Reference Chilled Water Flow Rate [m3/s], 4.59805E-003
 Component Sizing Information, Chiller:Electric:EIR, PRIMARY CHILLER WATERCOOLED SCROLL, Design Size Reference Capacity [W], 115801.97778
 Component Sizing Information, Chiller:Electric:EIR, PRIMARY CHILLER WATERCOOLED SCROLL, Design Size Reference Condenser Fluid Flow Rate [m3/s], 5.45753E-003
! <Chiller Standard Rating Information>, Component Type, Component Name, IPLV in SI Units {W/W}, IPLV in IP Units {Btu/W-h}
 Chiller Standard Rating Information, Chiller:Electric:EIR, PRIMARY CHILLER WATERCOOLED SCROLL, 7.88, 26.88
 Component Sizing Information, Chiller:Electric:EIR, SECONDARY CHILLER WATERCOOLED SCROLL, Design Size Reference Chilled Water Flow Rate [m3/s], 4.59805E-003
 Component Sizing Information, Chiller:Electric:EIR, SECONDARY CHILLER WATERCOOLED SCROLL, Design Size Reference Capacity [W], 115801.97778
 Component Sizing Information, Chiller:Electric:EIR, SECONDARY CHILLER WATERCOOLED SCROLL, Design Size Reference Condenser Fluid Flow Rate [m3/s], 5.45753E-003
 Chiller Standard Rating Information, Chiller:Electric:EIR, SECONDARY CHILLER WATERCOOLED SCROLL, 7.88, 26.88
 Component Sizing Information, PlantLoop, CONDENSER WATER LOOP, Maximum Loop Flow Rate [m3/s], 1.09151E-002
 Component Sizing Information, PlantLoop, CONDENSER WATER LOOP, Plant Loop Volume [m3], 1.30981
 Component Sizing Information, Pump:ConstantSpeed, PUMP CONSTANT SPEED 2, Design Flow Rate [m3/s], 1.09151E-002
 Component Sizing Information, Pump:ConstantSpeed, PUMP CONSTANT SPEED 2, Design Power Consumption [W], 2788.65628
 Component Sizing Information, CoolingTower:SingleSpeed, COOLING TOWER SINGLE SPEED 1, Design Water Flow Rate [m3/s], 1.09151E-002
 Component Sizing Information, CoolingTower:SingleSpeed, COOLING TOWER SINGLE SPEED 1, Fan Power at Design Air Flow Rate [W], 2394.94961
 Component Sizing Information, CoolingTower:SingleSpeed, COOLING TOWER SINGLE SPEED 1, Design Air Flow Rate [m3/s], 6.58563
 Component Sizing Information, CoolingTower:SingleSpeed, COOLING TOWER SINGLE SPEED 1, U-Factor Times Area Value at Design Air Flow Rate [W/C], 11760.18006
 Component Sizing Information, CoolingTower:SingleSpeed, COOLING TOWER SINGLE SPEED 1, Free Convection Regime Air Flow Rate [m3/s], 0.65856
 Component Sizing Information, CoolingTower:SingleSpeed, COOLING TOWER SINGLE SPEED 1, Free Convection U-Factor Times Area Value [W/K], 1176.01801
 Component Sizing Information, PlantLoop, HOT WATER LOOP, Maximum Loop Flow Rate [m3/s], 1.16484E-002
 Component Sizing Information, PlantLoop, HOT WATER LOOP, Plant Loop Volume [m3], 1.39780
 Component Sizing Information, Pump:VariableSpeed, PUMP VARIABLE SPEED 1, Design Flow Rate [m3/s], 1.16484E-002
 Component Sizing Information, Pump:VariableSpeed, PUMP VARIABLE SPEED 1, Design Power Consumption [W], 2976.00774
 Component Sizing Information, Boiler:HotWater, PRIMARY BOILER, Design Size Nominal Capacity [W], 782913.86501
 Component Sizing Information, Boiler:HotWater, PRIMARY BOILER, Design Size Design Water Flow Rate [m3/s], 1.16484E-002
 Component Sizing Information, Boiler:HotWater, SECONDARY BOILER, Design Size Nominal Capacity [W], 782913.86501
 Component Sizing Information, Boiler:HotWater, SECONDARY BOILER, Design Size Design Water Flow Rate [m3/s], 1.16484E-002
 Component Sizing Information, PlantLoop, MAIN SERVICE WATER LOOP, Maximum Loop Flow Rate [m3/s], 1.26324E-003
 Component Sizing Information, PlantLoop, MAIN SERVICE WATER LOOP, Plant Loop Volume [m3], 0.15159
 Component Sizing Information, Pump:ConstantSpeed, SERVICE WATER LOOP PUMP, Design Flow Rate [m3/s], 1.26324E-003
 Component Sizing Information, Pump:ConstantSpeed, SERVICE WATER LOOP PUMP, Design Power Consumption [W], 1717.99827
 Component Sizing Information, WaterHeater:Mixed, 808GAL NATURALGAS WATER HEATER - 1663KBTU/HR, Use Side Design Flow Rate [m3/s], 1.26324E-003
! <Environment>,Environment Name,Environment Type, Start Date, End Date, Start DayOfWeek, Duration {#days}, Source:Start DayOfWeek,  Use Daylight Saving, Use Holidays, Apply Weekend Holiday Rule,  Use Rain Values, Use Snow Values
! <Environment:Special Days>, Special Day Name, Special Day Type, Source, Start Date, Duration {#days}
! <Environment:Daylight Saving>, Daylight Saving Indicator, Source, Start Date, End Date
! <Environment:WarmupDays>, NumberofWarmupDays
Environment,FORT MCMURRAY AP ANN CLG .4% CONDNS DB=>MWB,SizingPeriod:DesignDay,07/21,07/21,SummerDesignDay,1,N/A,N/A,N/A,N/A,N/A,N/A
Environment:Daylight Saving,No,SizingPeriod:DesignDay
! <Environment:Design Day Data>, Max Dry-Bulb Temp {C}, Temp Range {dC}, Temp Range Ind Type, Hum Ind Value at Max Temp, Hum Ind Type,Pressure {Pa}, Wind Direction {deg CW from N}, Wind Speed {m/s}, Clearness, Rain, Snow
! <Environment:Design Day Misc>,DayOfYear,ASHRAE A Coeff,ASHRAE B Coeff,ASHRAE C Coeff,Solar Constant-Annual Variation,Eq of Time {minutes}, Solar Declination Angle {deg}, Solar Model
Environment:Design Day Data,28.90,12.40,DefaultMultipliers,96969,250,3.7,0.00,No,No
Environment:Design Day Misc,202,1084.4,0.2082,0.1365,1.0,-6.23,20.6,ASHRAETau
Environment:WarmupDays,  6
! <Tabular Report>,Style,Unit Conversion
Tabular Report,HTML,None
! <Warmup Convergence Information>,Zone Name,Environment Type/Name,Average Warmup Temperature Difference {deltaC},Std Dev Warmup Temperature Difference {deltaC},Max Temperature Pass/Fail Convergence,Min Temperature Pass/Fail Convergence,Average Warmup Load Difference {W},Std Dev Warmup Load Difference {W},Heating Load Pass/Fail Convergence,Cooling Load Pass/Fail Convergence
 Warmup Convergence Information,ALL_ST=DINING - BAR LOUNGE/LEISURE_FL=STORY 4_SCH=B,SizingPeriod: FORT MCMURRAY AP ANN CLG .4% CONDNS DB=>MWB,6.4102413057E-002,0.1107464024,Pass,Pass,3.1345747098E-002,6.1925181504E-002,Pass,Pass
 Warmup Convergence Information,ALL_ST=DINING - FAMILY SPACE_FL=STORY 4_SCH=B,SizingPeriod: FORT MCMURRAY AP ANN CLG .4% CONDNS DB=>MWB,5.9470216627E-002,9.6843914903E-002,Pass,Pass,2.7125746436E-002,4.8897584838E-002,Pass,Pass
 Warmup Convergence Information,ALL_ST=DINING - OTHER_FL=STORY 4_SCH=B,SizingPeriod: FORT MCMURRAY AP ANN CLG .4% CONDNS DB=>MWB,6.1939220061E-002,0.1077428876,Pass,Pass,3.1178302415E-002,5.2834067026E-002,Pass,Pass
 Warmup Convergence Information,ALL_ST=DRESS./FITT. - PERFORMANCE ARTS_FL=STORY 3_SCH=C,SizingPeriod: FORT MCMURRAY AP ANN CLG .4% CONDNS DB=>MWB,2.9296792837E-002,6.0738567591E-002,Pass,Pass,3.5010815016E-002,0.1456583365,Pass,Pass
 Warmup Convergence Information,ALL_ST=FIRE STATION - ENGINE ROOM_FL=STORY 2_SCH=H,SizingPeriod: FORT MCMURRAY AP ANN CLG .4% CONDNS DB=>MWB,1.6061709797E-004,4.3259690012E-004,Pass,Pass,2.8353678237E-003,3.1722409787E-003,Pass,Pass
 Warmup Convergence Information,ALL_ST=FOOD PREPARATION - VENTED_FL=STORY 2_SCH=B,SizingPeriod: FORT MCMURRAY AP ANN CLG .4% CONDNS DB=>MWB,2.0486984428E-002,4.8391624090E-002,Pass,Pass,2.5099449489E-002,7.6275926750E-002,Pass,Pass
 Warmup Convergence Information,ALL_ST=FOOD PREPARATION_FL=STORY 3_SCH=B,SizingPeriod: FORT MCMURRAY AP ANN CLG .4% CONDNS DB=>MWB,3.4453336316E-002,9.1465167557E-002,Pass,Pass,2.8988813243E-002,0.1077134668,Pass,Pass
 Warmup Convergence Information,ALL_ST=GYM - AUDIENCE_FL=STORY 2_SCH=B,SizingPeriod: FORT MCMURRAY AP ANN CLG .4% CONDNS DB=>MWB,5.5831334193E-002,8.3426356327E-002,Pass,Pass,2.0346888898E-002,7.7062534262E-002,Pass,Pass
 Warmup Convergence Information,DU_BT=SPACE FUNCTION_ST=DORMITORY - LIVING QUARTERS_FL=STORY 3_SCHG,SizingPeriod: FORT MCMURRAY AP ANN CLG .4% CONDNS DB=>MWB,1.0960245873E-003,4.7321017288E-003,Pass,Pass,2.5398810019E-002,4.7238925624E-002,Pass,Pass
 Warmup Convergence Information,DU_BT=SPACE FUNCTION_ST=DWELLING UNIT(S)_FL=STORY 3_SCHG,SizingPeriod: FORT MCMURRAY AP ANN CLG .4% CONDNS DB=>MWB,3.8604662265E-003,1.1762316924E-002,Pass,Pass,2.9595042342E-002,4.1580101376E-002,Pass,Pass
 Warmup Convergence Information,DU_BT=SPACE FUNCTION_ST=FIRE STATION - QUARTERS_FL=STORY 4_SCHG,SizingPeriod: FORT MCMURRAY AP ANN CLG .4% CONDNS DB=>MWB,1.2475823512E-002,2.4020866557E-002,Pass,Pass,4.1123249714E-002,5.3125954498E-002,Pass,Pass
 Warmup Convergence Information,WILD_ST=ELECTRICAL/MECHANICAL-SCH-A_FL=STORY 1_SCH=B,SizingPeriod: FORT MCMURRAY AP ANN CLG .4% CONDNS DB=>MWB,2.6242680597E-002,9.1398424070E-002,Pass,Pass,6.0597934596E-002,0.3302939384,Pass,Pass
 Warmup Convergence Information,WILD_ST=ELECTRICAL/MECHANICAL-SCH-B_FL=STORY 4_SCH=B,SizingPeriod: FORT MCMURRAY AP ANN CLG .4% CONDNS DB=>MWB,9.3548557605E-002,0.1987081613,Pass,Pass,0.1171271680,0.7860244140,Pass,Pass
 Warmup Convergence Information,WILD_ST=ELECTRICAL/MECHANICAL-SCH-C_FL=STORY 1_SCH=B,SizingPeriod: FORT MCMURRAY AP ANN CLG .4% CONDNS DB=>MWB,3.0660289051E-002,8.6895770630E-002,Pass,Pass,6.0888099155E-002,0.3461176038,Pass,Pass
 Warmup Convergence Information,WILD_ST=ELECTRICAL/MECHANICAL-SCH-D_FL=STORY 1_SCH=B,SizingPeriod: FORT MCMURRAY AP ANN CLG .4% CONDNS DB=>MWB,2.9927059100E-002,8.8134646037E-002,Pass,Pass,6.0476102334E-002,0.3210260491,Pass,Pass
 Warmup Convergence Information,WILD_ST=ELECTRICAL/MECHANICAL-SCH-E_FL=STORY 1_SCH=B,SizingPeriod: FORT MCMURRAY AP ANN CLG .4% CONDNS DB=>MWB,2.9433120464E-002,7.6723874763E-002,Pass,Pass,0.1201959860,0.6823026541,Pass,Pass
 Warmup Convergence Information,WILD_ST=ELECTRICAL/MECHANICAL-SCH-F_FL=STORY 1_SCH=B,SizingPeriod: FORT MCMURRAY AP ANN CLG .4% CONDNS DB=>MWB,2.7784768788E-002,7.8300833778E-002,Pass,Pass,6.1401232366E-002,0.3291563660,Pass,Pass
 Warmup Convergence Information,WILD_ST=ELECTRICAL/MECHANICAL-SCH-G_FL=STORY 2_SCH=B,SizingPeriod: FORT MCMURRAY AP ANN CLG .4% CONDNS DB=>MWB,5.7624969509E-002,0.1442682686,Pass,Pass,7.7574779371E-002,0.4121728909,Pass,Pass
 Warmup Convergence Information,WILD_ST=ELECTRICAL/MECHANICAL-SCH-H_FL=STORY 3_SCH=B,SizingPeriod: FORT MCMURRAY AP ANN CLG .4% CONDNS DB=>MWB,4.0512542310E-002,0.1130763455,Pass,Pass,6.6704408218E-002,0.3439344553,Pass,Pass
 Warmup Convergence Information,WILD_ST=ELECTRICAL/MECHANICAL-SCH-I_FL=STORY 2_SCH=B,SizingPeriod: FORT MCMURRAY AP ANN CLG .4% CONDNS DB=>MWB,6.5605086263E-002,0.1666007433,Pass,Pass,6.6537179586E-002,0.4245846314,Pass,Pass
Environment,FORT MCMURRAY AP ANN HTG 99.6% CONDNS DB,SizingPeriod:DesignDay,01/21,01/21,WinterDesignDay,1,N/A,N/A,N/A,N/A,N/A,N/A
Environment:Daylight Saving,No,SizingPeriod:DesignDay
Environment:Design Day Data,-36.20,0.00,DefaultMultipliers,96969,90,1.0,0.00,No,No
Environment:Design Day Misc, 21,1229.0,0.1415,5.7310E-002,1.0,-11.15,-20.1,ASHRAEClearSky
Environment:WarmupDays,  6
 Warmup Convergence Information,ALL_ST=DINING - BAR LOUNGE/LEISURE_FL=STORY 4_SCH=B,SizingPeriod: FORT MCMURRAY AP ANN HTG 99.6% CONDNS DB,5.5581418314E-002,0.3185594349,Pass,Pass,7.3352141927E-002,0.1739651679,Pass,Pass
 Warmup Convergence Information,ALL_ST=DINING - FAMILY SPACE_FL=STORY 4_SCH=B,SizingPeriod: FORT MCMURRAY AP ANN HTG 99.6% CONDNS DB,5.5608493538E-002,0.3229691298,Pass,Pass,4.1372977371E-002,0.1068629630,Pass,Pass
 Warmup Convergence Information,ALL_ST=DINING - OTHER_FL=STORY 4_SCH=B,SizingPeriod: FORT MCMURRAY AP ANN HTG 99.6% CONDNS DB,5.5615348668E-002,0.3241174731,Pass,Pass,4.2617165457E-002,0.1353595126,Pass,Pass
 Warmup Convergence Information,ALL_ST=DRESS./FITT. - PERFORMANCE ARTS_FL=STORY 3_SCH=C,SizingPeriod: FORT MCMURRAY AP ANN HTG 99.6% CONDNS DB,5.5561670760E-002,0.2674527092,Pass,Pass,0.1907818871,0.8097933140,Pass,Pass
 Warmup Convergence Information,ALL_ST=FIRE STATION - ENGINE ROOM_FL=STORY 2_SCH=H,SizingPeriod: FORT MCMURRAY AP ANN HTG 99.6% CONDNS DB,4.1722739424E-002,0.1745653907,Pass,Pass,0.5473839119,5.0658628234,Pass,Pass
 Warmup Convergence Information,ALL_ST=FOOD PREPARATION - VENTED_FL=STORY 2_SCH=B,SizingPeriod: FORT MCMURRAY AP ANN HTG 99.6% CONDNS DB,5.5576846738E-002,0.2553081515,Pass,Pass,0.1587933143,0.5935561824,Pass,Pass
 Warmup Convergence Information,ALL_ST=FOOD PREPARATION_FL=STORY 3_SCH=B,SizingPeriod: FORT MCMURRAY AP ANN HTG 99.6% CONDNS DB,5.5559500171E-002,0.2712922934,Pass,Pass,0.2858830323,1.2569188773,Pass,Pass
 Warmup Convergence Information,ALL_ST=GYM - AUDIENCE_FL=STORY 2_SCH=B,SizingPeriod: FORT MCMURRAY AP ANN HTG 99.6% CONDNS DB,5.3803425419E-002,7.4923660450E-002,Pass,Pass,5.1702807155E-003,7.5158648760E-003,Pass,Pass
 Warmup Convergence Information,DU_BT=SPACE FUNCTION_ST=DORMITORY - LIVING QUARTERS_FL=STORY 3_SCHG,SizingPeriod: FORT MCMURRAY AP ANN HTG 99.6% CONDNS DB,5.7050486315E-002,0.2156792586,Pass,Pass,0.2045056221,1.5908582392,Pass,Pass
 Warmup Convergence Information,DU_BT=SPACE FUNCTION_ST=DWELLING UNIT(S)_FL=STORY 3_SCHG,SizingPeriod: FORT MCMURRAY AP ANN HTG 99.6% CONDNS DB,4.1803650851E-002,8.7116959398E-002,Pass,Pass,0.1828858596,0.8559766240,Pass,Pass
 Warmup Convergence Information,DU_BT=SPACE FUNCTION_ST=FIRE STATION - QUARTERS_FL=STORY 4_SCHG,SizingPeriod: FORT MCMURRAY AP ANN HTG 99.6% CONDNS DB,5.9006817649E-002,0.2188348593,Pass,Pass,0.2783322295,2.1114320966,Pass,Pass
 Warmup Convergence Information,WILD_ST=ELECTRICAL/MECHANICAL-SCH-A_FL=STORY 1_SCH=B,SizingPeriod: FORT MCMURRAY AP ANN HTG 99.6% CONDNS DB,5.3100390854E-002,0.1920752967,Pass,Pass,0.3575993689,1.8617852489,Pass,Pass
 Warmup Convergence Information,WILD_ST=ELECTRICAL/MECHANICAL-SCH-B_FL=STORY 4_SCH=B,SizingPeriod: FORT MCMURRAY AP ANN HTG 99.6% CONDNS DB,8.8535132481E-002,0.4377423299,Pass,Pass,8.0272240992E-002,0.3368148199,Pass,Pass
 Warmup Convergence Information,WILD_ST=ELECTRICAL/MECHANICAL-SCH-C_FL=STORY 1_SCH=B,SizingPeriod: FORT MCMURRAY AP ANN HTG 99.6% CONDNS DB,5.2831679173E-002,0.1868144061,Pass,Pass,0.3490020474,1.7679343945,Pass,Pass
 Warmup Convergence Information,WILD_ST=ELECTRICAL/MECHANICAL-SCH-D_FL=STORY 1_SCH=B,SizingPeriod: FORT MCMURRAY AP ANN HTG 99.6% CONDNS DB,5.2916206090E-002,0.1858113946,Pass,Pass,0.4347341241,2.6164440795,Pass,Pass
 Warmup Convergence Information,WILD_ST=ELECTRICAL/MECHANICAL-SCH-E_FL=STORY 1_SCH=B,SizingPeriod: FORT MCMURRAY AP ANN HTG 99.6% CONDNS DB,4.7975814286E-002,0.1522290694,Pass,Pass,1.0514586101,11.3292602140,Pass,Pass
 Warmup Convergence Information,WILD_ST=ELECTRICAL/MECHANICAL-SCH-F_FL=STORY 1_SCH=B,SizingPeriod: FORT MCMURRAY AP ANN HTG 99.6% CONDNS DB,5.1084051072E-002,0.1689289859,Pass,Pass,0.2129419983,0.9122344827,Pass,Pass
 Warmup Convergence Information,WILD_ST=ELECTRICAL/MECHANICAL-SCH-G_FL=STORY 2_SCH=B,SizingPeriod: FORT MCMURRAY AP ANN HTG 99.6% CONDNS DB,8.0236229113E-002,0.2947607690,Pass,Pass,0.1503793932,0.3563745388,Pass,Pass
 Warmup Convergence Information,WILD_ST=ELECTRICAL/MECHANICAL-SCH-H_FL=STORY 3_SCH=B,SizingPeriod: FORT MCMURRAY AP ANN HTG 99.6% CONDNS DB,5.8080729090E-002,0.2582380611,Pass,Pass,7.8524667864E-002,0.2055250171,Pass,Pass
 Warmup Convergence Information,WILD_ST=ELECTRICAL/MECHANICAL-SCH-I_FL=STORY 2_SCH=B,SizingPeriod: FORT MCMURRAY AP ANN HTG 99.6% CONDNS DB,9.5700682033E-002,0.3348154948,Pass,Pass,0.5840013768,2.8853879622,Pass,Pass
! <Program Control Information:Threads/Parallel Sims>, Threading Supported,Maximum Number of Threads, Env Set Threads (OMP_NUM_THREADS), EP Env Set Threads (EP_OMP_NUM_THREADS), IDF Set Threads, Number of Threads Used (Interior Radiant Exchange), Number Nominal Surfaces, Number Parallel Sims
Program Control:Threads/Parallel Sims, No,1, N/A, N/A, N/A, N/A, N/A, N/A
End of Data
