Program Version,EnergyPlus, Version 8.9.0-eba93e8e1b, YMD=2019.03.26 18:13
! <Version>, Version ID
 Version, 8.9
! <Timesteps per Hour>, #TimeSteps, Minutes per TimeStep {minutes}
 Timesteps per Hour,  6, 10
! <System Convergence Limits>, Minimum System TimeStep {minutes}, Max HVAC Iterations, Minimum Plant Iterations, Maximum Plant Iterations
 System Convergence Limits, 1, 20, 2, 8
! <Simulation Control>, Do Zone Sizing, Do System Sizing, Do Plant Sizing, Do Design Days, Do Weather Simulation, Do HVAC Sizing Simulation
 Simulation Control, Yes, No, No, Yes, No, No
! <Output Reporting Tolerances>, Tolerance for Time Heating Setpoint Not Met, Tolerance for Zone Cooling Setpoint Not Met Time
 Output Reporting Tolerances, 0.200, 0.200, 
! <Site:GroundTemperature:BuildingSurface>,Jan{C},Feb{C},Mar{C},Apr{C},May{C},Jun{C},Jul{C},Aug{C},Sep{C},Oct{C},Nov{C},Dec{C}
 Site:GroundTemperature:BuildingSurface,  19.53,  19.50,  19.54,  19.60,  20.00,  21.64,  22.23,  22.38,  21.45,  20.12,  19.80,  19.63
! <Site:GroundTemperature:FCfactorMethod>,Jan{C},Feb{C},Mar{C},Apr{C},May{C},Jun{C},Jul{C},Aug{C},Sep{C},Oct{C},Nov{C},Dec{C}
 Site:GroundTemperature:FCfactorMethod, -12.27, -13.66, -11.19,  -7.33,   2.77,  10.57,  15.83,  17.43,  14.70,   8.65,   0.56,  -6.95
! <Site:GroundTemperature:Shallow>,Jan{C},Feb{C},Mar{C},Apr{C},May{C},Jun{C},Jul{C},Aug{C},Sep{C},Oct{C},Nov{C},Dec{C}
 Site:GroundTemperature:Shallow,  13.00,  13.00,  13.00,  13.00,  13.00,  13.00,  13.00,  13.00,  13.00,  13.00,  13.00,  13.00
! <Site:GroundTemperature:Deep>,Jan{C},Feb{C},Mar{C},Apr{C},May{C},Jun{C},Jul{C},Aug{C},Sep{C},Oct{C},Nov{C},Dec{C}
 Site:GroundTemperature:Deep,  16.00,  16.00,  16.00,  16.00,  16.00,  16.00,  16.00,  16.00,  16.00,  16.00,  16.00,  16.00
! <Site:GroundReflectance>,Jan{dimensionless},Feb{dimensionless},Mar{dimensionless},Apr{dimensionless},May{dimensionless},Jun{dimensionless},Jul{dimensionless},Aug{dimensionless},Sep{dimensionless},Oct{dimensionless},Nov{dimensionless},Dec{dimensionless}
 Site:GroundReflectance,  0.20,  0.20,  0.20,  0.20,  0.20,  0.20,  0.20,  0.20,  0.20,  0.20,  0.20,  0.20
! <Site:GroundReflectance:SnowModifier>, Normal, Daylighting {dimensionless}
 Site:GroundReflectance:SnowModifier,   1.000,   1.000
! <Site:GroundReflectance:Snow>,Jan{dimensionless},Feb{dimensionless},Mar{dimensionless},Apr{dimensionless},May{dimensionless},Jun{dimensionless},Jul{dimensionless},Aug{dimensionless},Sep{dimensionless},Oct{dimensionless},Nov{dimensionless},Dec{dimensionless}
 Site:GroundReflectance:Snow,  0.20,  0.20,  0.20,  0.20,  0.20,  0.20,  0.20,  0.20,  0.20,  0.20,  0.20,  0.20
! <Site:GroundReflectance:Snow:Daylighting>,Jan{dimensionless},Feb{dimensionless},Mar{dimensionless},Apr{dimensionless},May{dimensionless},Jun{dimensionless},Jul{dimensionless},Aug{dimensionless},Sep{dimensionless},Oct{dimensionless},Nov{dimensionless},Dec{dimensionless}
 Site:GroundReflectance:Snow:Daylighting,  0.20,  0.20,  0.20,  0.20,  0.20,  0.20,  0.20,  0.20,  0.20,  0.20,  0.20,  0.20
! <Environment:Weather Station>,Wind Sensor Height Above Ground {m},Wind Speed Profile Exponent {},Wind Speed Profile Boundary Layer Thickness {m},Air Temperature Sensor Height Above Ground {m},Wind Speed Modifier Coefficient-Internal,Temperature Modifier Coefficient-Internal
Environment:Weather Station,10.000,0.140,270.000,1.500,1.586,9.750E-003
! <Site:Location>, Location Name, Latitude {N+/S- Deg}, Longitude {E+/W- Deg},  Time Zone Number {GMT+/-}, Elevation {m},  Standard Pressure at Elevation {Pa}, Standard RhoAir at Elevation
Site:Location,Fort McMurray AP AB CAN CWEC2016 WMO#=716890,56.65,-111.22,-7.00,369.10,96969,1.1525
! <Building Information>, Building Name,North Axis {deg},Terrain,  Loads Convergence Tolerance Value,Temperature Convergence Tolerance Value,  Solar Distribution,Maximum Number of Warmup Days,Minimum Number of Warmup Days
 Building Information,Building 1,0.000,Suburbs,4.00000E-002,0.40000,FullExterior,25,6
! <Inside Convection Algorithm>, Algorithm {Simple | TARP | CeilingDiffuser | AdaptiveConvectionAlgorithm}
Inside Convection Algorithm,TARP
! <Outside Convection Algorithm>, Algorithm {SimpleCombined | TARP | MoWitt | DOE-2 | AdaptiveConvectionAlgorithm}
Outside Convection Algorithm,TARP
! <Sky Radiance Distribution>, Value {Anisotropic}
Sky Radiance Distribution,Anisotropic
! <Zone Air Solution Algorithm>, Value {ThirdOrderBackwardDifference | AnalyticalSolution | EulerMethod}
 Zone Air Solution Algorithm, ThirdOrderBackwardDifference
! <Zone Air Carbon Dioxide Balance Simulation>, Simulation {Yes/No}, Carbon Dioxide Concentration
 Zone Air Carbon Dioxide Balance Simulation, No,N/A
! <Zone Air Generic Contaminant Balance Simulation>, Simulation {Yes/No}, Generic Contaminant Concentration
 Zone Air Generic Contaminant Balance Simulation, No,N/A
! <Zone Air Mass Flow Balance Simulation>, Enforce Mass Balance, Adjust Zone Mixing, Adjust Zone Infiltration {AddInfiltration | AdjustInfiltration | None}, Infiltration Zones {MixingSourceZonesOnly | AllZones}
 Zone Air Mass Flow Balance Simulation, No,N/A,N/A,N/A
! <HVACSystemRootFindingAlgorithm>, Value {RegulaFalsi | Bisection | BisectionThenRegulaFalsi | RegulaFalsiThenBisection}
 HVACSystemRootFindingAlgorithm, RegulaFalsi
! <Environment:Site Atmospheric Variation>,Wind Speed Profile Exponent {},Wind Speed Profile Boundary Layer Thickness {m},Air Temperature Gradient Coefficient {K/m}
Environment:Site Atmospheric Variation,0.220,370.000,6.500000E-003
! <Surface Geometry>,Starting Corner,Vertex Input Direction,Coordinate System,Daylight Reference Point Coordinate System,Rectangular (Simple) Surface Coordinate System
 Surface Geometry,UpperLeftCorner,Counterclockwise,RelativeCoordinateSystem,RelativeCoordinateSystem,RelativeToZoneOrigin
! <Surface Heat Transfer Algorithm>, Value {CTF - ConductionTransferFunction | EMPD - MoisturePenetrationDepthConductionTransferFunction | CondFD - ConductionFiniteDifference | HAMT - CombinedHeatAndMoistureFiniteElement} - Description,Inside Surface Max Temperature Limit{C}, Surface Convection Coefficient Lower Limit {W/m2-K}, Surface Convection Coefficient Upper Limit {W/m2-K}
Surface Heat Transfer Algorithm, CTF - ConductionTransferFunction,200,0.10,1000.0
! <Shading Summary>, Number of Fixed Detached Shades, Number of Building Detached Shades, Number of Attached Shades
 Shading Summary,0,0,0
! <Zone Summary>, Number of Zones, Number of Zone Surfaces, Number of SubSurfaces
 Zone Summary,20,136,16
! <Zone Information>,Zone Name,North Axis {deg},Origin X-Coordinate {m},Origin Y-Coordinate {m},Origin Z-Coordinate {m},Centroid X-Coordinate {m},Centroid Y-Coordinate {m},Centroid Z-Coordinate {m},Type,Zone Multiplier,Zone List Multiplier,Minimum X {m},Maximum X {m},Minimum Y {m},Maximum Y {m},Minimum Z {m},Maximum Z {m},Ceiling Height {m},Volume {m3},Zone Inside Convection Algorithm {Simple-Detailed-CeilingDiffuser-TrombeWall},Zone Outside Convection Algorithm {Simple-Detailed-Tarp-MoWitt-DOE-2-BLAST}, Floor Area {m2},Exterior Gross Wall Area {m2},Exterior Net Wall Area {m2},Exterior Window Area {m2}, Number of Surfaces, Number of SubSurfaces, Number of Shading SubSurfaces,  Part of Total Building Area
 Zone Information, ATRIUM (HEIGHT < 6M)-SCH-A-SPACE FUNCTION ZN,0.0,25.00,75.00,0.00,50.00,89.15,1.90,1,1,1,0.00,100.00,75.00,100.00,0.00,3.80,3.80,7125.00,TARP,TARP,1875.00,0.00,0.00,0.00,6,0,0,Yes
 Zone Information, ATRIUM (HEIGHT < 6M)-SCH-B-SPACE FUNCTION ZN,0.0,0.00,0.00,0.00,50.00,10.85,1.90,1,1,1,0.00,100.00,0.00,25.00,0.00,3.80,3.80,7125.00,TARP,TARP,1875.00,0.00,0.00,0.00,6,0,0,Yes
 Zone Information, ATRIUM (HEIGHT < 6M)-SCH-C-SPACE FUNCTION ZN,0.0,25.00,25.00,0.00,50.00,50.00,1.90,1,1,1,25.00,75.00,25.00,75.00,0.00,3.80,3.80,9500.00,TARP,TARP,2500.00,0.00,0.00,0.00,6,0,0,Yes
 Zone Information, ATRIUM (HEIGHT < 6M)-SCH-D-SPACE FUNCTION ZN,0.0,0.00,0.00,3.80,10.85,50.00,5.70,1,1,1,0.00,25.00,0.00,100.00,3.80,7.60,3.80,7125.00,TARP,TARP,1875.00,380.00,285.00,95.00,6,1,0,Yes
 Zone Information, ATRIUM (HEIGHT < 6M)-SCH-E-SPACE FUNCTION ZN,0.0,25.00,75.00,3.80,50.00,89.15,5.70,1,1,1,0.00,100.00,75.00,100.00,3.80,7.60,3.80,7125.00,TARP,TARP,1875.00,380.00,285.00,95.00,6,1,0,Yes
 Zone Information, ATRIUM (HEIGHT < 6M)-SCH-F-SPACE FUNCTION ZN,0.0,0.00,0.00,0.00,10.85,50.00,1.90,1,1,1,0.00,25.00,0.00,100.00,0.00,3.80,3.80,7125.00,TARP,TARP,1875.00,0.00,0.00,0.00,6,0,0,Yes
 Zone Information, ATRIUM (HEIGHT < 6M)-SCH-G-SPACE FUNCTION ZN,0.0,0.00,0.00,3.80,50.00,10.85,5.70,1,1,1,0.00,100.00,0.00,25.00,3.80,7.60,3.80,7125.00,TARP,TARP,1875.00,380.00,285.00,95.00,6,1,0,Yes
 Zone Information, WHOLEBUILDING-OFFICE ZN,0.0,75.00,25.00,11.40,89.15,50.00,13.30,1,1,1,75.00,100.00,0.00,100.00,11.40,15.20,3.80,7125.00,TARP,TARP,1875.00,380.00,285.00,188.75,6,2,0,Yes
 Zone Information, WHOLEBUILDING-PENITENTIARY ZN,0.0,25.00,75.00,11.40,50.00,89.15,13.30,1,1,1,0.00,100.00,75.00,100.00,11.40,15.20,3.80,7125.00,TARP,TARP,1875.00,380.00,285.00,188.75,6,2,0,Yes
 Zone Information, WHOLEBUILDING-PERFORMING ARTS THEATRE ZN,0.0,0.00,0.00,11.40,50.00,10.85,13.30,1,1,1,0.00,100.00,0.00,25.00,11.40,15.20,3.80,7125.00,TARP,TARP,1875.00,380.00,285.00,188.75,6,2,0,Yes
 Zone Information, WHOLEBUILDING-POLICE STATION ZN,0.0,0.00,0.00,11.40,10.85,50.00,13.30,1,1,1,0.00,25.00,0.00,100.00,11.40,15.20,3.80,7125.00,TARP,TARP,1875.00,380.00,285.00,188.75,6,2,0,Yes
 Zone Information, WHOLEBUILDING-POST OFFICE ZN,0.0,25.00,25.00,7.60,50.00,50.00,9.50,1,1,1,25.00,75.00,25.00,75.00,7.60,11.40,3.80,9500.00,TARP,TARP,2500.00,0.00,0.00,0.00,6,0,0,Yes
 Zone Information, WHOLEBUILDING-RETAIL AREA ZN,0.0,25.00,25.00,11.40,50.00,50.00,13.30,1,1,1,25.00,75.00,25.00,75.00,11.40,15.20,3.80,9500.00,TARP,TARP,2500.00,0.00,0.00,125.00,6,1,0,Yes
 Zone Information, WHOLEBUILDING-SCHOOL/UNIVERSITY ZN,0.0,0.00,0.00,7.60,50.00,10.85,9.50,1,1,1,0.00,100.00,0.00,25.00,7.60,11.40,3.80,7125.00,TARP,TARP,1875.00,380.00,285.00,95.00,6,1,0,Yes
 Zone Information, WHOLEBUILDING-SPORTS ARENA ZN,0.0,75.00,25.00,7.60,89.15,50.00,9.50,1,1,1,75.00,100.00,0.00,100.00,7.60,11.40,3.80,7125.00,TARP,TARP,1875.00,380.00,285.00,95.00,6,1,0,Yes
 Zone Information, WHOLEBUILDING-STORAGE GARAGE ZN,0.0,25.00,75.00,7.60,50.00,89.15,9.50,1,1,1,0.00,100.00,75.00,100.00,7.60,11.40,3.80,7125.00,TARP,TARP,1875.00,380.00,380.00,0.00,6,0,0,Yes
 Zone Information, WHOLEBUILDING-TOWN HALL ZN,0.0,0.00,0.00,7.60,10.85,50.00,9.50,1,1,1,0.00,25.00,0.00,100.00,7.60,11.40,3.80,7125.00,TARP,TARP,1875.00,380.00,285.00,95.00,6,1,0,Yes
 Zone Information, WHOLEBUILDING-TRANSPORTATION FACILITY ZN,0.0,75.00,25.00,3.80,89.15,50.00,5.70,1,1,1,75.00,100.00,0.00,100.00,3.80,7.60,3.80,7125.00,TARP,TARP,1875.00,380.00,285.00,95.00,6,1,0,Yes
 Zone Information, WHOLEBUILDING-WAREHOUSE ZN,0.0,75.00,25.00,0.00,89.15,50.00,1.90,1,1,1,75.00,100.00,0.00,100.00,0.00,3.80,3.80,7125.00,TARP,TARP,1875.00,0.00,0.00,0.00,6,0,0,Yes
 Zone Information, WHOLEBUILDING-WORKSHOP ZN,0.0,25.00,25.00,3.80,50.00,50.00,5.70,1,1,1,25.00,75.00,25.00,75.00,3.80,7.60,3.80,9500.00,TARP,TARP,2500.00,0.00,0.00,0.00,6,0,0,Yes
! <Zone Internal Gains Nominal>,Zone Name, Floor Area {m2},# Occupants,Area per Occupant {m2/person},Occupant per Area {person/m2},Interior Lighting {W/m2},Electric Load {W/m2},Gas Load {W/m2},Other Load {W/m2},Hot Water Eq {W/m2},Steam Equipment {W/m2},Sum Loads per Area {W/m2},Outdoor Controlled Baseboard Heat
 Zone Internal Gains Nominal, ATRIUM (HEIGHT < 6M)-SCH-A-SPACE FUNCTION ZN,1875.00,187.6,9.996,0.100,1.060,2.501,0.000,0.000,0.000,0.000,3.561,No
 Zone Internal Gains Nominal, ATRIUM (HEIGHT < 6M)-SCH-B-SPACE FUNCTION ZN,1875.00,187.6,9.996,0.100,1.060,2.501,0.000,0.000,0.000,0.000,3.561,No
 Zone Internal Gains Nominal, ATRIUM (HEIGHT < 6M)-SCH-C-SPACE FUNCTION ZN,2500.00,250.1,9.996,0.100,1.060,2.501,0.000,0.000,0.000,0.000,3.561,No
 Zone Internal Gains Nominal, ATRIUM (HEIGHT < 6M)-SCH-D-SPACE FUNCTION ZN,1875.00,187.6,9.996,0.100,1.060,2.501,0.000,0.000,0.000,0.000,3.561,No
 Zone Internal Gains Nominal, ATRIUM (HEIGHT < 6M)-SCH-E-SPACE FUNCTION ZN,1875.00,187.6,9.996,0.100,1.060,2.501,0.000,0.000,0.000,0.000,3.561,No
 Zone Internal Gains Nominal, ATRIUM (HEIGHT < 6M)-SCH-F-SPACE FUNCTION ZN,1875.00,187.6,9.996,0.100,1.060,2.501,0.000,0.000,0.000,0.000,3.561,No
 Zone Internal Gains Nominal, ATRIUM (HEIGHT < 6M)-SCH-G-SPACE FUNCTION ZN,1875.00,187.6,9.996,0.100,1.060,2.501,0.000,0.000,0.000,0.000,3.561,No
 Zone Internal Gains Nominal, WHOLEBUILDING-OFFICE ZN,1875.00,75.0,24.991,4.001E-002,8.803,7.503,0.000,0.000,0.000,0.000,16.306,No
 Zone Internal Gains Nominal, WHOLEBUILDING-PENITENTIARY ZN,1875.00,62.5,29.989,3.335E-002,8.703,2.501,0.000,0.000,0.000,0.000,11.204,No
 Zone Internal Gains Nominal, WHOLEBUILDING-PERFORMING ARTS THEATRE ZN,1875.00,234.5,7.997,0.125,14.905,1.000,0.000,0.000,0.000,0.000,15.906,No
 Zone Internal Gains Nominal, WHOLEBUILDING-POLICE STATION ZN,1875.00,75.0,24.991,4.001E-002,9.403,7.503,0.000,0.000,0.000,0.000,16.906,No
 Zone Internal Gains Nominal, WHOLEBUILDING-POST OFFICE ZN,2500.00,100.0,24.991,4.001E-002,9.403,7.503,0.000,0.000,0.000,0.000,16.906,No
 Zone Internal Gains Nominal, WHOLEBUILDING-RETAIL AREA ZN,2500.00,83.4,29.989,3.335E-002,13.505,2.501,0.000,0.000,0.000,0.000,16.006,No
 Zone Internal Gains Nominal, WHOLEBUILDING-SCHOOL/UNIVERSITY ZN,1875.00,234.5,7.997,0.125,9.403,5.002,0.000,0.000,0.000,0.000,14.405,No
 Zone Internal Gains Nominal, WHOLEBUILDING-SPORTS ARENA ZN,1875.00,187.6,9.996,0.100,9.804,1.000,0.000,0.000,0.000,0.000,10.804,No
 Zone Internal Gains Nominal, WHOLEBUILDING-STORAGE GARAGE ZN,1875.00,1.9,999.637,1.000E-003,2.301,0.000,0.000,0.000,0.000,0.000,2.301,No
 Zone Internal Gains Nominal, WHOLEBUILDING-TOWN HALL ZN,1875.00,75.0,24.991,4.001E-002,9.603,7.503,0.000,0.000,0.000,0.000,17.106,No
 Zone Internal Gains Nominal, WHOLEBUILDING-TRANSPORTATION FACILITY ZN,1875.00,125.0,14.995,6.669E-002,7.503,1.000,0.000,0.000,0.000,0.000,8.503,No
 Zone Internal Gains Nominal, WHOLEBUILDING-WAREHOUSE ZN,1875.00,1.3,1499.455,6.669E-004,7.103,1.000,0.000,0.000,0.000,0.000,8.103,No
 Zone Internal Gains Nominal, WHOLEBUILDING-WORKSHOP ZN,2500.00,83.4,29.989,3.335E-002,12.805,10.004,0.000,0.000,0.000,0.000,22.808,No
! <People Internal Gains Nominal>,Name,Schedule Name,Zone Name,Zone Floor Area {m2},# Zone Occupants,Number of People {},People/Floor Area {person/m2},Floor Area per person {m2/person},Fraction Radiant,Fraction Convected,Sensible Fraction Calculation,Activity level,ASHRAE 55 Warnings,Carbon Dioxide Generation Rate,Nominal Minimum Number of People,Nominal Maximum Number of People
 People Internal Gains Nominal, WHOLEBUILDING-OFFICE ZN OFFICE WHOLEBUILDING PEOPLE,NECB-A-OCCUPANCY,WHOLEBUILDING-OFFICE ZN,1875.00,75.0,75.0,4.001E-002,24.991,0.300,0.700,AutoCalculate,NECB-ACTIVITY,No,3.8200E-008,0,68
 People Internal Gains Nominal, WHOLEBUILDING-PENITENTIARY ZN PENITENTIARY WHOLEBUILDING PEOPLE,NECB-H-OCCUPANCY,WHOLEBUILDING-PENITENTIARY ZN,1875.00,62.5,62.5,3.335E-002,29.989,0.300,0.700,AutoCalculate,NECB-ACTIVITY,No,3.8200E-008,56,56
 People Internal Gains Nominal, WHOLEBUILDING-PERFORMING ARTS THEATRE ZN PERFORMING ARTS THEATRE WHOLEBUILDING PEOPLE,NECB-C-OCCUPANCY,WHOLEBUILDING-PERFORMING ARTS THEATRE ZN,1875.00,234.5,234.5,0.125,7.997,0.300,0.700,AutoCalculate,NECB-ACTIVITY,No,3.8200E-008,0,211
 People Internal Gains Nominal, WHOLEBUILDING-POLICE STATION ZN POLICE STATION WHOLEBUILDING PEOPLE,NECB-H-OCCUPANCY,WHOLEBUILDING-POLICE STATION ZN,1875.00,75.0,75.0,4.001E-002,24.991,0.300,0.700,AutoCalculate,NECB-ACTIVITY,No,3.8200E-008,68,68
 People Internal Gains Nominal, WHOLEBUILDING-POST OFFICE ZN POST OFFICE WHOLEBUILDING PEOPLE,NECB-A-OCCUPANCY,WHOLEBUILDING-POST OFFICE ZN,2500.00,100.0,100.0,4.001E-002,24.991,0.300,0.700,AutoCalculate,NECB-ACTIVITY,No,3.8200E-008,0,90
 People Internal Gains Nominal, WHOLEBUILDING-RETAIL AREA ZN RETAIL AREA WHOLEBUILDING PEOPLE,NECB-C-OCCUPANCY,WHOLEBUILDING-RETAIL AREA ZN,2500.00,83.4,83.4,3.335E-002,29.989,0.300,0.700,AutoCalculate,NECB-ACTIVITY,No,3.8200E-008,0,75
 People Internal Gains Nominal, WHOLEBUILDING-SCHOOL/UNIVERSITY ZN SCHOOL/UNIVERSITY WHOLEBUILDING PEOPLE,NECB-D-OCCUPANCY,WHOLEBUILDING-SCHOOL/UNIVERSITY ZN,1875.00,234.5,234.5,0.125,7.997,0.300,0.700,AutoCalculate,NECB-ACTIVITY,No,3.8200E-008,0,211
 People Internal Gains Nominal, ATRIUM (HEIGHT < 6M)-SCH-A-SPACE FUNCTION ZN SPACE FUNCTION ATRIUM (HEIGHT < 6M)-SCH-A PEOPLE,NECB-A-OCCUPANCY,ATRIUM (HEIGHT < 6M)-SCH-A-SPACE FUNCTION ZN,1875.00,187.6,187.6,0.100,9.996,0.300,0.700,AutoCalculate,NECB-ACTIVITY,No,3.8200E-008,0,169
 People Internal Gains Nominal, ATRIUM (HEIGHT < 6M)-SCH-B-SPACE FUNCTION ZN SPACE FUNCTION ATRIUM (HEIGHT < 6M)-SCH-B PEOPLE,NECB-B-OCCUPANCY,ATRIUM (HEIGHT < 6M)-SCH-B-SPACE FUNCTION ZN,1875.00,187.6,187.6,0.100,9.996,0.300,0.700,AutoCalculate,NECB-ACTIVITY,No,3.8200E-008,0,169
 People Internal Gains Nominal, ATRIUM (HEIGHT < 6M)-SCH-C-SPACE FUNCTION ZN SPACE FUNCTION ATRIUM (HEIGHT < 6M)-SCH-C PEOPLE,NECB-C-OCCUPANCY,ATRIUM (HEIGHT < 6M)-SCH-C-SPACE FUNCTION ZN,2500.00,250.1,250.1,0.100,9.996,0.300,0.700,AutoCalculate,NECB-ACTIVITY,No,3.8200E-008,0,225
 People Internal Gains Nominal, ATRIUM (HEIGHT < 6M)-SCH-D-SPACE FUNCTION ZN SPACE FUNCTION ATRIUM (HEIGHT < 6M)-SCH-D PEOPLE,NECB-D-OCCUPANCY,ATRIUM (HEIGHT < 6M)-SCH-D-SPACE FUNCTION ZN,1875.00,187.6,187.6,0.100,9.996,0.300,0.700,AutoCalculate,NECB-ACTIVITY,No,3.8200E-008,0,169
 People Internal Gains Nominal, ATRIUM (HEIGHT < 6M)-SCH-E-SPACE FUNCTION ZN SPACE FUNCTION ATRIUM (HEIGHT < 6M)-SCH-E PEOPLE,NECB-E-OCCUPANCY,ATRIUM (HEIGHT < 6M)-SCH-E-SPACE FUNCTION ZN,1875.00,187.6,187.6,0.100,9.996,0.300,0.700,AutoCalculate,NECB-ACTIVITY,No,3.8200E-008,0,169
 People Internal Gains Nominal, ATRIUM (HEIGHT < 6M)-SCH-F-SPACE FUNCTION ZN SPACE FUNCTION ATRIUM (HEIGHT < 6M)-SCH-F PEOPLE,NECB-F-OCCUPANCY,ATRIUM (HEIGHT < 6M)-SCH-F-SPACE FUNCTION ZN,1875.00,187.6,187.6,0.100,9.996,0.300,0.700,AutoCalculate,NECB-ACTIVITY,No,3.8200E-008,26,118
 People Internal Gains Nominal, ATRIUM (HEIGHT < 6M)-SCH-G-SPACE FUNCTION ZN SPACE FUNCTION ATRIUM (HEIGHT < 6M)-SCH-G PEOPLE,NECB-G-OCCUPANCY,ATRIUM (HEIGHT < 6M)-SCH-G-SPACE FUNCTION ZN,1875.00,187.6,187.6,0.100,9.996,0.300,0.700,AutoCalculate,NECB-ACTIVITY,No,3.8200E-008,56,169
 People Internal Gains Nominal, WHOLEBUILDING-SPORTS ARENA ZN SPORTS ARENA WHOLEBUILDING PEOPLE,NECB-B-OCCUPANCY,WHOLEBUILDING-SPORTS ARENA ZN,1875.00,187.6,187.6,0.100,9.996,0.300,0.700,AutoCalculate,NECB-ACTIVITY,No,3.8200E-008,0,169
 People Internal Gains Nominal, WHOLEBUILDING-STORAGE GARAGE ZN STORAGE GARAGE WHOLEBUILDING PEOPLE,NECB-K-OCCUPANCY,WHOLEBUILDING-STORAGE GARAGE ZN,1875.00,1.9,1.9,1.000E-003,999.637,0.300,0.700,AutoCalculate,NECB-ACTIVITY,No,3.8200E-008,0,2
 People Internal Gains Nominal, WHOLEBUILDING-TOWN HALL ZN TOWN HALL WHOLEBUILDING PEOPLE,NECB-D-OCCUPANCY,WHOLEBUILDING-TOWN HALL ZN,1875.00,75.0,75.0,4.001E-002,24.991,0.300,0.700,AutoCalculate,NECB-ACTIVITY,No,3.8200E-008,0,68
 People Internal Gains Nominal, WHOLEBUILDING-TRANSPORTATION FACILITY ZN TRANSPORTATION FACILITY WHOLEBUILDING PEOPLE,NECB-H-OCCUPANCY,WHOLEBUILDING-TRANSPORTATION FACILITY ZN,1875.00,125.0,125.0,6.669E-002,14.995,0.300,0.700,AutoCalculate,NECB-ACTIVITY,No,3.8200E-008,113,113
 People Internal Gains Nominal, WHOLEBUILDING-WAREHOUSE ZN WAREHOUSE WHOLEBUILDING PEOPLE,NECB-A-OCCUPANCY,WHOLEBUILDING-WAREHOUSE ZN,1875.00,1.3,1.3,6.669E-004,1499.455,0.300,0.700,AutoCalculate,NECB-ACTIVITY,No,3.8200E-008,0,1
 People Internal Gains Nominal, WHOLEBUILDING-WORKSHOP ZN WORKSHOP WHOLEBUILDING PEOPLE,NECB-A-OCCUPANCY,WHOLEBUILDING-WORKSHOP ZN,2500.00,83.4,83.4,3.335E-002,29.989,0.300,0.700,AutoCalculate,NECB-ACTIVITY,No,3.8200E-008,0,75
! <Lights Internal Gains Nominal>,Name,Schedule Name,Zone Name,Zone Floor Area {m2},# Zone Occupants,Lighting Level {W},Lights/Floor Area {W/m2},Lights per person {W/person},Fraction Return Air,Fraction Radiant,Fraction Short Wave,Fraction Convected,Fraction Replaceable,End-Use Category,Nominal Minimum Lighting Level {W},Nominal Maximum Lighting Level {W}
 Lights Internal Gains Nominal, WHOLEBUILDING-OFFICE ZN OFFICE WHOLEBUILDING LIGHTS,NECB-A-OCCUPANCY-NECB-A-LIGHTING-0.0-0.0-0.0-LIGHT RULESET,WHOLEBUILDING-OFFICE ZN,1875.00,75.0,16505.996,8.803,220.000,0.000,0.500,0.200,0.300,1.000,General,825.300,14855.397
 Lights Internal Gains Nominal, WHOLEBUILDING-PENITENTIARY ZN PENITENTIARY WHOLEBUILDING LIGHTS,NECB-H-OCCUPANCY-NECB-H-LIGHTING-0.0-0.0-0.0-LIGHT RULESET,WHOLEBUILDING-PENITENTIARY ZN,1875.00,62.5,16318.428,8.703,261.000,0.000,0.500,0.200,0.300,1.000,General,14686.585,14686.585
 Lights Internal Gains Nominal, WHOLEBUILDING-PERFORMING ARTS THEATRE ZN PERFORMING ARTS THEATRE WHOLEBUILDING LIGHTS,NECB-C-OCCUPANCY-NECB-C-LIGHTING-0.0-0.0-0.0-LIGHT RULESET,WHOLEBUILDING-PERFORMING ARTS THEATRE ZN,1875.00,234.5,27947.653,14.905,119.200,0.000,0.500,0.200,0.300,1.000,General,1397.383,25152.888
 Lights Internal Gains Nominal, WHOLEBUILDING-POLICE STATION ZN POLICE STATION WHOLEBUILDING LIGHTS,NECB-H-OCCUPANCY-NECB-H-LIGHTING-0.0-0.0-0.0-LIGHT RULESET,WHOLEBUILDING-POLICE STATION ZN,1875.00,75.0,17631.405,9.403,235.000,0.000,0.500,0.200,0.300,1.000,General,15868.265,15868.265
 Lights Internal Gains Nominal, WHOLEBUILDING-POST OFFICE ZN POST OFFICE WHOLEBUILDING LIGHTS,NECB-A-OCCUPANCY-NECB-A-LIGHTING-0.0-0.0-0.0-LIGHT RULESET,WHOLEBUILDING-POST OFFICE ZN,2500.00,100.0,23508.540,9.403,235.000,0.000,0.500,0.200,0.300,1.000,General,1175.427,21157.686
 Lights Internal Gains Nominal, WHOLEBUILDING-RETAIL AREA ZN RETAIL AREA WHOLEBUILDING LIGHTS,NECB-C-OCCUPANCY-NECB-C-LIGHTING-0.0-0.0-0.0-LIGHT RULESET,WHOLEBUILDING-RETAIL AREA ZN,2500.00,83.4,33762.265,13.505,405.000,0.000,0.500,0.200,0.300,1.000,General,1688.113,30386.039
 Lights Internal Gains Nominal, WHOLEBUILDING-SCHOOL/UNIVERSITY ZN SCHOOL/UNIVERSITY WHOLEBUILDING LIGHTS,NECB-D-OCCUPANCY-NECB-D-LIGHTING-0.0-0.0-0.0-LIGHT RULESET,WHOLEBUILDING-SCHOOL/UNIVERSITY ZN,1875.00,234.5,17631.405,9.403,75.200,0.000,0.500,0.200,0.300,1.000,General,881.570,15868.265
 Lights Internal Gains Nominal, ATRIUM (HEIGHT < 6M)-SCH-A-SPACE FUNCTION ZN SPACE FUNCTION ATRIUM (HEIGHT < 6M)-SCH-A LIGHTS,NECB-A-LIGHTING,ATRIUM (HEIGHT < 6M)-SCH-A-SPACE FUNCTION ZN,1875.00,187.6,1988.222,1.060,10.600,0.000,0.500,0.200,0.300,1.000,General,99.411,1789.400
 Lights Internal Gains Nominal, ATRIUM (HEIGHT < 6M)-SCH-B-SPACE FUNCTION ZN SPACE FUNCTION ATRIUM (HEIGHT < 6M)-SCH-B LIGHTS,NECB-B-LIGHTING,ATRIUM (HEIGHT < 6M)-SCH-B-SPACE FUNCTION ZN,1875.00,187.6,1988.222,1.060,10.600,0.000,0.500,0.200,0.300,1.000,General,198.822,1789.400
 Lights Internal Gains Nominal, ATRIUM (HEIGHT < 6M)-SCH-C-SPACE FUNCTION ZN SPACE FUNCTION ATRIUM (HEIGHT < 6M)-SCH-C LIGHTS,NECB-C-LIGHTING,ATRIUM (HEIGHT < 6M)-SCH-C-SPACE FUNCTION ZN,2500.00,250.1,2650.963,1.060,10.600,0.000,0.500,0.200,0.300,1.000,General,132.548,2385.867
 Lights Internal Gains Nominal, ATRIUM (HEIGHT < 6M)-SCH-D-SPACE FUNCTION ZN SPACE FUNCTION ATRIUM (HEIGHT < 6M)-SCH-D LIGHTS,NECB-D-LIGHTING,ATRIUM (HEIGHT < 6M)-SCH-D-SPACE FUNCTION ZN,1875.00,187.6,1988.222,1.060,10.600,0.000,0.500,0.200,0.300,1.000,General,99.411,1789.400
 Lights Internal Gains Nominal, ATRIUM (HEIGHT < 6M)-SCH-E-SPACE FUNCTION ZN SPACE FUNCTION ATRIUM (HEIGHT < 6M)-SCH-E LIGHTS,NECB-E-LIGHTING,ATRIUM (HEIGHT < 6M)-SCH-E-SPACE FUNCTION ZN,1875.00,187.6,1988.222,1.060,10.600,0.000,0.500,0.200,0.300,1.000,General,99.411,1789.400
 Lights Internal Gains Nominal, ATRIUM (HEIGHT < 6M)-SCH-F-SPACE FUNCTION ZN SPACE FUNCTION ATRIUM (HEIGHT < 6M)-SCH-F LIGHTS,NECB-F-LIGHTING,ATRIUM (HEIGHT < 6M)-SCH-F-SPACE FUNCTION ZN,1875.00,187.6,1988.222,1.060,10.600,0.000,0.500,0.200,0.300,1.000,General,139.176,1252.580
 Lights Internal Gains Nominal, ATRIUM (HEIGHT < 6M)-SCH-G-SPACE FUNCTION ZN SPACE FUNCTION ATRIUM (HEIGHT < 6M)-SCH-G LIGHTS,NECB-G-LIGHTING,ATRIUM (HEIGHT < 6M)-SCH-G-SPACE FUNCTION ZN,1875.00,187.6,1988.222,1.060,10.600,0.000,0.500,0.200,0.300,1.000,General,0.000,1789.400
 Lights Internal Gains Nominal, WHOLEBUILDING-SPORTS ARENA ZN SPORTS ARENA WHOLEBUILDING LIGHTS,NECB-B-OCCUPANCY-NECB-B-LIGHTING-0.0-0.0-0.0-LIGHT RULESET,WHOLEBUILDING-SPORTS ARENA ZN,1875.00,187.6,18381.678,9.804,98.000,0.000,0.500,0.200,0.300,1.000,General,1838.168,16543.510
 Lights Internal Gains Nominal, WHOLEBUILDING-STORAGE GARAGE ZN STORAGE GARAGE WHOLEBUILDING LIGHTS,NECB-K-LIGHTING,WHOLEBUILDING-STORAGE GARAGE ZN,1875.00,1.9,4314.067,2.301,2300.000,0.000,0.500,0.200,0.300,1.000,General,3882.661,3882.661
 Lights Internal Gains Nominal, WHOLEBUILDING-TOWN HALL ZN TOWN HALL WHOLEBUILDING LIGHTS,NECB-D-OCCUPANCY-NECB-D-LIGHTING-0.0-0.0-0.0-LIGHT RULESET,WHOLEBUILDING-TOWN HALL ZN,1875.00,75.0,18006.542,9.603,240.000,0.000,0.500,0.200,0.300,1.000,General,900.327,16205.887
 Lights Internal Gains Nominal, WHOLEBUILDING-TRANSPORTATION FACILITY ZN TRANSPORTATION FACILITY WHOLEBUILDING LIGHTS,NECB-H-LIGHTING,WHOLEBUILDING-TRANSPORTATION FACILITY ZN,1875.00,125.0,14067.611,7.503,112.500,0.000,0.500,0.200,0.300,1.000,General,12660.850,12660.850
 Lights Internal Gains Nominal, WHOLEBUILDING-WAREHOUSE ZN WAREHOUSE WHOLEBUILDING LIGHTS,NECB-A-LIGHTING,WHOLEBUILDING-WAREHOUSE ZN,1875.00,1.3,13317.338,7.103,10650.000,0.000,0.500,0.200,0.300,1.000,General,665.867,11985.604
 Lights Internal Gains Nominal, WHOLEBUILDING-WORKSHOP ZN WORKSHOP WHOLEBUILDING LIGHTS,NECB-A-OCCUPANCY-NECB-A-LIGHTING-0.0-0.0-0.0-LIGHT RULESET,WHOLEBUILDING-WORKSHOP ZN,2500.00,83.4,32011.629,12.805,384.000,0.000,0.500,0.200,0.300,1.000,General,1600.581,28810.467
! <ElectricEquipment Internal Gains Nominal>,Name,Schedule Name,Zone Name,Zone Floor Area {m2},# Zone Occupants,Equipment Level {W},Equipment/Floor Area {W/m2},Equipment per person {W/person},Fraction Latent,Fraction Radiant,Fraction Lost,Fraction Convected,End-Use SubCategory,Nominal Minimum Equipment Level {W},Nominal Maximum Equipment Level {W}
 ElectricEquipment Internal Gains Nominal, WHOLEBUILDING-OFFICE ZN OFFICE WHOLEBUILDING ELEC EQUIP,NECB-A-ELECTRIC-EQUIPMENT,WHOLEBUILDING-OFFICE ZN,1875.00,75.0,14067.611,7.503,187.500,0.000,0.500,0.000,0.500,General,2813.522,12660.850
 ElectricEquipment Internal Gains Nominal, WHOLEBUILDING-PENITENTIARY ZN PENITENTIARY WHOLEBUILDING ELEC EQUIP,NECB-H-ELECTRIC-EQUIPMENT,WHOLEBUILDING-PENITENTIARY ZN,1875.00,62.5,4689.204,2.501,75.000,0.000,0.500,0.000,0.500,General,4220.283,4220.283
 ElectricEquipment Internal Gains Nominal, WHOLEBUILDING-PERFORMING ARTS THEATRE ZN PERFORMING ARTS THEATRE WHOLEBUILDING ELEC EQUIP,NECB-C-ELECTRIC-EQUIPMENT,WHOLEBUILDING-PERFORMING ARTS THEATRE ZN,1875.00,234.5,1875.681,1.000,8.000,0.000,0.500,0.000,0.500,General,93.784,1688.113
 ElectricEquipment Internal Gains Nominal, WHOLEBUILDING-POLICE STATION ZN POLICE STATION WHOLEBUILDING ELEC EQUIP,NECB-H-ELECTRIC-EQUIPMENT,WHOLEBUILDING-POLICE STATION ZN,1875.00,75.0,14067.611,7.503,187.500,0.000,0.500,0.000,0.500,General,12660.850,12660.850
 ElectricEquipment Internal Gains Nominal, WHOLEBUILDING-POST OFFICE ZN POST OFFICE WHOLEBUILDING ELEC EQUIP,NECB-A-ELECTRIC-EQUIPMENT,WHOLEBUILDING-POST OFFICE ZN,2500.00,100.0,18756.814,7.503,187.500,0.000,0.500,0.000,0.500,General,3751.363,16881.133
 ElectricEquipment Internal Gains Nominal, WHOLEBUILDING-RETAIL AREA ZN RETAIL AREA WHOLEBUILDING ELEC EQUIP,NECB-C-ELECTRIC-EQUIPMENT,WHOLEBUILDING-RETAIL AREA ZN,2500.00,83.4,6252.271,2.501,75.000,0.000,0.500,0.000,0.500,General,312.614,5627.044
 ElectricEquipment Internal Gains Nominal, WHOLEBUILDING-SCHOOL/UNIVERSITY ZN SCHOOL/UNIVERSITY WHOLEBUILDING ELEC EQUIP,NECB-D-ELECTRIC-EQUIPMENT,WHOLEBUILDING-SCHOOL/UNIVERSITY ZN,1875.00,234.5,9378.407,5.002,40.000,0.000,0.500,0.000,0.500,General,468.920,8440.566
 ElectricEquipment Internal Gains Nominal, ATRIUM (HEIGHT < 6M)-SCH-A-SPACE FUNCTION ZN SPACE FUNCTION ATRIUM (HEIGHT < 6M)-SCH-A ELEC EQUIP,NECB-A-ELECTRIC-EQUIPMENT,ATRIUM (HEIGHT < 6M)-SCH-A-SPACE FUNCTION ZN,1875.00,187.6,4689.204,2.501,25.000,0.000,0.500,0.000,0.500,General,937.841,4220.283
 ElectricEquipment Internal Gains Nominal, ATRIUM (HEIGHT < 6M)-SCH-B-SPACE FUNCTION ZN SPACE FUNCTION ATRIUM (HEIGHT < 6M)-SCH-B ELEC EQUIP,NECB-B-ELECTRIC-EQUIPMENT,ATRIUM (HEIGHT < 6M)-SCH-B-SPACE FUNCTION ZN,1875.00,187.6,4689.204,2.501,25.000,0.000,0.500,0.000,0.500,General,468.920,4220.283
 ElectricEquipment Internal Gains Nominal, ATRIUM (HEIGHT < 6M)-SCH-C-SPACE FUNCTION ZN SPACE FUNCTION ATRIUM (HEIGHT < 6M)-SCH-C ELEC EQUIP,NECB-C-ELECTRIC-EQUIPMENT,ATRIUM (HEIGHT < 6M)-SCH-C-SPACE FUNCTION ZN,2500.00,250.1,6252.271,2.501,25.000,0.000,0.500,0.000,0.500,General,312.614,5627.044
 ElectricEquipment Internal Gains Nominal, ATRIUM (HEIGHT < 6M)-SCH-D-SPACE FUNCTION ZN SPACE FUNCTION ATRIUM (HEIGHT < 6M)-SCH-D ELEC EQUIP,NECB-D-ELECTRIC-EQUIPMENT,ATRIUM (HEIGHT < 6M)-SCH-D-SPACE FUNCTION ZN,1875.00,187.6,4689.204,2.501,25.000,0.000,0.500,0.000,0.500,General,234.460,4220.283
 ElectricEquipment Internal Gains Nominal, ATRIUM (HEIGHT < 6M)-SCH-E-SPACE FUNCTION ZN SPACE FUNCTION ATRIUM (HEIGHT < 6M)-SCH-E ELEC EQUIP,NECB-E-ELECTRIC-EQUIPMENT,ATRIUM (HEIGHT < 6M)-SCH-E-SPACE FUNCTION ZN,1875.00,187.6,4689.204,2.501,25.000,0.000,0.500,0.000,0.500,General,234.460,4220.283
 ElectricEquipment Internal Gains Nominal, ATRIUM (HEIGHT < 6M)-SCH-F-SPACE FUNCTION ZN SPACE FUNCTION ATRIUM (HEIGHT < 6M)-SCH-F ELEC EQUIP,NECB-F-ELECTRIC-EQUIPMENT,ATRIUM (HEIGHT < 6M)-SCH-F-SPACE FUNCTION ZN,1875.00,187.6,4689.204,2.501,25.000,0.000,0.500,0.000,0.500,General,328.244,2954.198
 ElectricEquipment Internal Gains Nominal, ATRIUM (HEIGHT < 6M)-SCH-G-SPACE FUNCTION ZN SPACE FUNCTION ATRIUM (HEIGHT < 6M)-SCH-G ELEC EQUIP,NECB-G-ELECTRIC-EQUIPMENT,ATRIUM (HEIGHT < 6M)-SCH-G-SPACE FUNCTION ZN,1875.00,187.6,4689.204,2.501,25.000,0.000,0.500,0.000,0.500,General,937.841,4220.283
 ElectricEquipment Internal Gains Nominal, WHOLEBUILDING-SPORTS ARENA ZN SPORTS ARENA WHOLEBUILDING ELEC EQUIP,NECB-B-ELECTRIC-EQUIPMENT,WHOLEBUILDING-SPORTS ARENA ZN,1875.00,187.6,1875.681,1.000,10.000,0.000,0.500,0.000,0.500,General,187.568,1688.113
 ElectricEquipment Internal Gains Nominal, WHOLEBUILDING-TOWN HALL ZN TOWN HALL WHOLEBUILDING ELEC EQUIP,NECB-D-ELECTRIC-EQUIPMENT,WHOLEBUILDING-TOWN HALL ZN,1875.00,75.0,14067.611,7.503,187.500,0.000,0.500,0.000,0.500,General,703.381,12660.850
 ElectricEquipment Internal Gains Nominal, WHOLEBUILDING-TRANSPORTATION FACILITY ZN TRANSPORTATION FACILITY WHOLEBUILDING ELEC EQUIP,NECB-H-ELECTRIC-EQUIPMENT,WHOLEBUILDING-TRANSPORTATION FACILITY ZN,1875.00,125.0,1875.681,1.000,15.000,0.000,0.500,0.000,0.500,General,1688.113,1688.113
 ElectricEquipment Internal Gains Nominal, WHOLEBUILDING-WAREHOUSE ZN WAREHOUSE WHOLEBUILDING ELEC EQUIP,NECB-A-ELECTRIC-EQUIPMENT,WHOLEBUILDING-WAREHOUSE ZN,1875.00,1.3,1875.681,1.000,1500.000,0.000,0.500,0.000,0.500,General,375.136,1688.113
 ElectricEquipment Internal Gains Nominal, WHOLEBUILDING-WORKSHOP ZN WORKSHOP WHOLEBUILDING ELEC EQUIP,NECB-A-ELECTRIC-EQUIPMENT,WHOLEBUILDING-WORKSHOP ZN,2500.00,83.4,25009.086,10.004,300.000,0.000,0.500,0.000,0.500,General,5001.817,22508.177
! <Shadowing/Sun Position Calculations Annual Simulations>, Calculation Method, Value {days}, Allowable Number Figures in Shadow Overlap {}, Polygon Clipping Algorithm, Sky Diffuse Modeling Algorithm, External Shading Calculation Method, Output External Shading Calculation Results, Disable Self-Shading Within Shading Zone Groups, Disable Self-Shading From Shading Zone Groups to Other Zones
Shadowing/Sun Position Calculations Annual Simulations,AverageOverDaysInFrequency,20,15000,SutherlandHodgman,SimpleSkyDiffuseModeling,InternalCalculation,No,No,No
! <ZoneInfiltration Airflow Stats Nominal>,Name,Schedule Name,Zone Name, Zone Floor Area {m2}, # Zone Occupants,Design Volume Flow Rate {m3/s},Volume Flow Rate/Floor Area {m3/s/m2},Volume Flow Rate/Exterior Surface Area {m3/s/m2},ACH - Air Changes per Hour,Equation A - Constant Term Coefficient {},Equation B - Temperature Term Coefficient {1/C},Equation C - Velocity Term Coefficient {s/m}, Equation D - Velocity Squared Term Coefficient {s2/m2}
 ZoneInfiltration Airflow Stats Nominal, ATRIUM (HEIGHT < 6M)-SCH-D-SPACE FUNCTION INFILTRATION,ALWAYS ON DISCRETE,ATRIUM (HEIGHT < 6M)-SCH-D-SPACE FUNCTION ZN,1875.00,187.6,9.500E-002,5.067E-005,2.500E-004,4.800E-002,0.000,0.000,0.224,0.000
 ZoneInfiltration Airflow Stats Nominal, ATRIUM (HEIGHT < 6M)-SCH-E-SPACE FUNCTION INFILTRATION,ALWAYS ON DISCRETE,ATRIUM (HEIGHT < 6M)-SCH-E-SPACE FUNCTION ZN,1875.00,187.6,9.500E-002,5.067E-005,2.500E-004,4.800E-002,0.000,0.000,0.224,0.000
 ZoneInfiltration Airflow Stats Nominal, ATRIUM (HEIGHT < 6M)-SCH-G-SPACE FUNCTION INFILTRATION,ALWAYS ON DISCRETE,ATRIUM (HEIGHT < 6M)-SCH-G-SPACE FUNCTION ZN,1875.00,187.6,9.500E-002,5.067E-005,2.500E-004,4.800E-002,0.000,0.000,0.224,0.000
 ZoneInfiltration Airflow Stats Nominal, WHOLEBUILDING-OFFICE INFILTRATION,ALWAYS ON DISCRETE,WHOLEBUILDING-OFFICE ZN,1875.00,75.0,0.564,3.007E-004,2.500E-004,0.285,0.000,0.000,0.224,0.000
 ZoneInfiltration Airflow Stats Nominal, WHOLEBUILDING-PENITENTIARY INFILTRATION,ALWAYS ON DISCRETE,WHOLEBUILDING-PENITENTIARY ZN,1875.00,62.5,0.564,3.007E-004,2.500E-004,0.285,0.000,0.000,0.224,0.000
 ZoneInfiltration Airflow Stats Nominal, WHOLEBUILDING-PERFORMING ARTS THEATRE INFILTRATION,ALWAYS ON DISCRETE,WHOLEBUILDING-PERFORMING ARTS THEATRE ZN,1875.00,234.5,0.564,3.007E-004,2.500E-004,0.285,0.000,0.000,0.224,0.000
 ZoneInfiltration Airflow Stats Nominal, WHOLEBUILDING-POLICE STATION INFILTRATION,ALWAYS ON DISCRETE,WHOLEBUILDING-POLICE STATION ZN,1875.00,75.0,0.564,3.007E-004,2.500E-004,0.285,0.000,0.000,0.224,0.000
 ZoneInfiltration Airflow Stats Nominal, WHOLEBUILDING-RETAIL AREA INFILTRATION,ALWAYS ON DISCRETE,WHOLEBUILDING-RETAIL AREA ZN,2500.00,83.4,0.625,2.500E-004,2.500E-004,0.237,0.000,0.000,0.224,0.000
 ZoneInfiltration Airflow Stats Nominal, WHOLEBUILDING-SCHOOL/UNIVERSITY INFILTRATION,ALWAYS ON DISCRETE,WHOLEBUILDING-SCHOOL/UNIVERSITY ZN,1875.00,234.5,9.500E-002,5.067E-005,2.500E-004,4.800E-002,0.000,0.000,0.224,0.000
 ZoneInfiltration Airflow Stats Nominal, WHOLEBUILDING-SPORTS ARENA INFILTRATION,ALWAYS ON DISCRETE,WHOLEBUILDING-SPORTS ARENA ZN,1875.00,187.6,9.500E-002,5.067E-005,2.500E-004,4.800E-002,0.000,0.000,0.224,0.000
 ZoneInfiltration Airflow Stats Nominal, WHOLEBUILDING-STORAGE GARAGE INFILTRATION,ALWAYS ON DISCRETE,WHOLEBUILDING-STORAGE GARAGE ZN,1875.00,1.9,9.500E-002,5.067E-005,2.500E-004,4.800E-002,0.000,0.000,0.224,0.000
 ZoneInfiltration Airflow Stats Nominal, WHOLEBUILDING-TOWN HALL INFILTRATION,ALWAYS ON DISCRETE,WHOLEBUILDING-TOWN HALL ZN,1875.00,75.0,9.500E-002,5.067E-005,2.500E-004,4.800E-002,0.000,0.000,0.224,0.000
 ZoneInfiltration Airflow Stats Nominal, WHOLEBUILDING-TRANSPORTATION FACILITY INFILTRATION,ALWAYS ON DISCRETE,WHOLEBUILDING-TRANSPORTATION FACILITY ZN,1875.00,125.0,9.500E-002,5.067E-005,2.500E-004,4.800E-002,0.000,0.000,0.224,0.000
! <AirFlow Model>, Simple
 AirFlow Model, Simple
! <RoomAir Model>, Zone Name, Mixing/Mundt/UCSDDV/UCSDCV/UCSDUFI/UCSDUFE/User Defined
RoomAir Model,ATRIUM (HEIGHT < 6M)-SCH-A-SPACE FUNCTION ZN,Mixing/Well-Stirred
RoomAir Model,ATRIUM (HEIGHT < 6M)-SCH-B-SPACE FUNCTION ZN,Mixing/Well-Stirred
RoomAir Model,ATRIUM (HEIGHT < 6M)-SCH-C-SPACE FUNCTION ZN,Mixing/Well-Stirred
RoomAir Model,ATRIUM (HEIGHT < 6M)-SCH-D-SPACE FUNCTION ZN,Mixing/Well-Stirred
RoomAir Model,ATRIUM (HEIGHT < 6M)-SCH-E-SPACE FUNCTION ZN,Mixing/Well-Stirred
RoomAir Model,ATRIUM (HEIGHT < 6M)-SCH-F-SPACE FUNCTION ZN,Mixing/Well-Stirred
RoomAir Model,ATRIUM (HEIGHT < 6M)-SCH-G-SPACE FUNCTION ZN,Mixing/Well-Stirred
RoomAir Model,WHOLEBUILDING-OFFICE ZN,Mixing/Well-Stirred
RoomAir Model,WHOLEBUILDING-PENITENTIARY ZN,Mixing/Well-Stirred
RoomAir Model,WHOLEBUILDING-PERFORMING ARTS THEATRE ZN,Mixing/Well-Stirred
RoomAir Model,WHOLEBUILDING-POLICE STATION ZN,Mixing/Well-Stirred
RoomAir Model,WHOLEBUILDING-POST OFFICE ZN,Mixing/Well-Stirred
RoomAir Model,WHOLEBUILDING-RETAIL AREA ZN,Mixing/Well-Stirred
RoomAir Model,WHOLEBUILDING-SCHOOL/UNIVERSITY ZN,Mixing/Well-Stirred
RoomAir Model,WHOLEBUILDING-SPORTS ARENA ZN,Mixing/Well-Stirred
RoomAir Model,WHOLEBUILDING-STORAGE GARAGE ZN,Mixing/Well-Stirred
RoomAir Model,WHOLEBUILDING-TOWN HALL ZN,Mixing/Well-Stirred
RoomAir Model,WHOLEBUILDING-TRANSPORTATION FACILITY ZN,Mixing/Well-Stirred
RoomAir Model,WHOLEBUILDING-WAREHOUSE ZN,Mixing/Well-Stirred
RoomAir Model,WHOLEBUILDING-WORKSHOP ZN,Mixing/Well-Stirred
! <AirflowNetwork Model:Control>, No Multizone or Distribution/Multizone with Distribution/Multizone without Distribution/Multizone with Distribution only during Fan Operation
AirflowNetwork Model:Control,NoMultizoneOrDistribution
! <Zone Volume Capacitance Multiplier>, Sensible Heat Capacity Multiplier, Moisture Capacity Multiplier, Carbon Dioxide Capacity Multiplier, Generic Contaminant Capacity Multiplier
Zone Volume Capacitance Multiplier,   1.000 ,   1.000,   1.000,   1.000
! <Load Timesteps in Zone Design Calculation Averaging Window>, Value
 Load Timesteps in Zone Design Calculation Averaging Window,    6
! <Heating Sizing Factor Information>, Sizing Factor ID, Value
 Heating Sizing Factor Information, Global,   1.2500    
 Heating Sizing Factor Information, Zone ATRIUM (HEIGHT < 6M)-SCH-A-SPACE FUNCTION ZN,   1.2500    
 Heating Sizing Factor Information, Zone ATRIUM (HEIGHT < 6M)-SCH-B-SPACE FUNCTION ZN,   1.2500    
 Heating Sizing Factor Information, Zone ATRIUM (HEIGHT < 6M)-SCH-C-SPACE FUNCTION ZN,   1.2500    
 Heating Sizing Factor Information, Zone ATRIUM (HEIGHT < 6M)-SCH-D-SPACE FUNCTION ZN,   1.2500    
 Heating Sizing Factor Information, Zone ATRIUM (HEIGHT < 6M)-SCH-E-SPACE FUNCTION ZN,   1.2500    
 Heating Sizing Factor Information, Zone ATRIUM (HEIGHT < 6M)-SCH-F-SPACE FUNCTION ZN,   1.2500    
 Heating Sizing Factor Information, Zone ATRIUM (HEIGHT < 6M)-SCH-G-SPACE FUNCTION ZN,   1.2500    
 Heating Sizing Factor Information, Zone WHOLEBUILDING-OFFICE ZN,   1.2500    
 Heating Sizing Factor Information, Zone WHOLEBUILDING-PENITENTIARY ZN,   1.2500    
 Heating Sizing Factor Information, Zone WHOLEBUILDING-PERFORMING ARTS THEATRE ZN,   1.2500    
 Heating Sizing Factor Information, Zone WHOLEBUILDING-POLICE STATION ZN,   1.2500    
 Heating Sizing Factor Information, Zone WHOLEBUILDING-POST OFFICE ZN,   1.2500    
 Heating Sizing Factor Information, Zone WHOLEBUILDING-RETAIL AREA ZN,   1.2500    
 Heating Sizing Factor Information, Zone WHOLEBUILDING-SCHOOL/UNIVERSITY ZN,   1.2500    
 Heating Sizing Factor Information, Zone WHOLEBUILDING-SPORTS ARENA ZN,   1.2500    
 Heating Sizing Factor Information, Zone WHOLEBUILDING-STORAGE GARAGE ZN,   1.2500    
 Heating Sizing Factor Information, Zone WHOLEBUILDING-TOWN HALL ZN,   1.2500    
 Heating Sizing Factor Information, Zone WHOLEBUILDING-TRANSPORTATION FACILITY ZN,   1.2500    
 Heating Sizing Factor Information, Zone WHOLEBUILDING-WAREHOUSE ZN,   1.2500    
 Heating Sizing Factor Information, Zone WHOLEBUILDING-WORKSHOP ZN,   1.2500    
! <Cooling Sizing Factor Information>, Sizing Factor ID, Value
 Cooling Sizing Factor Information, Global,   1.1500    
 Cooling Sizing Factor Information, Zone ATRIUM (HEIGHT < 6M)-SCH-A-SPACE FUNCTION ZN,   1.1500    
 Cooling Sizing Factor Information, Zone ATRIUM (HEIGHT < 6M)-SCH-B-SPACE FUNCTION ZN,   1.1500    
 Cooling Sizing Factor Information, Zone ATRIUM (HEIGHT < 6M)-SCH-C-SPACE FUNCTION ZN,   1.1500    
 Cooling Sizing Factor Information, Zone ATRIUM (HEIGHT < 6M)-SCH-D-SPACE FUNCTION ZN,   1.1500    
 Cooling Sizing Factor Information, Zone ATRIUM (HEIGHT < 6M)-SCH-E-SPACE FUNCTION ZN,   1.1500    
 Cooling Sizing Factor Information, Zone ATRIUM (HEIGHT < 6M)-SCH-F-SPACE FUNCTION ZN,   1.1500    
 Cooling Sizing Factor Information, Zone ATRIUM (HEIGHT < 6M)-SCH-G-SPACE FUNCTION ZN,   1.1500    
 Cooling Sizing Factor Information, Zone WHOLEBUILDING-OFFICE ZN,   1.1500    
 Cooling Sizing Factor Information, Zone WHOLEBUILDING-PENITENTIARY ZN,   1.1500    
 Cooling Sizing Factor Information, Zone WHOLEBUILDING-PERFORMING ARTS THEATRE ZN,   1.1500    
 Cooling Sizing Factor Information, Zone WHOLEBUILDING-POLICE STATION ZN,   1.1500    
 Cooling Sizing Factor Information, Zone WHOLEBUILDING-POST OFFICE ZN,   1.1500    
 Cooling Sizing Factor Information, Zone WHOLEBUILDING-RETAIL AREA ZN,   1.1500    
 Cooling Sizing Factor Information, Zone WHOLEBUILDING-SCHOOL/UNIVERSITY ZN,   1.1500    
 Cooling Sizing Factor Information, Zone WHOLEBUILDING-SPORTS ARENA ZN,   1.1500    
 Cooling Sizing Factor Information, Zone WHOLEBUILDING-STORAGE GARAGE ZN,   1.1500    
 Cooling Sizing Factor Information, Zone WHOLEBUILDING-TOWN HALL ZN,   1.1500    
 Cooling Sizing Factor Information, Zone WHOLEBUILDING-TRANSPORTATION FACILITY ZN,   1.1500    
 Cooling Sizing Factor Information, Zone WHOLEBUILDING-WAREHOUSE ZN,   1.1500    
 Cooling Sizing Factor Information, Zone WHOLEBUILDING-WORKSHOP ZN,   1.1500    
! <Zone Sizing Information>, Zone Name, Load Type, Calc Des Load {W}, User Des Load {W}, Calc Des Air Flow Rate {m3/s}, User Des Air Flow Rate {m3/s}, Design Day Name, Date/Time of Peak, Temperature at Peak {C}, Humidity Ratio at Peak {kgWater/kgDryAir}, Floor Area {m2}, # Occupants, Calc Outdoor Air Flow Rate {m3/s}, Calc DOAS Heat Addition Rate {W}
 Zone Sizing Information, ATRIUM (HEIGHT < 6M)-SCH-A-SPACE FUNCTION ZN, Cooling, 16663.84410, 19163.42071, 1.41693, 1.62947, FORT MCMURRAY AP ANN CLG .4% CONDNS DB=>MWB, 7/21 17:00:00, 27.16400, 8.76969E-003, 1875.00000, 187.56814, 0.57150, 0.00000
 Zone Sizing Information, ATRIUM (HEIGHT < 6M)-SCH-A-SPACE FUNCTION ZN, Heating, 3268.65752, 4085.82191, 0.15234, 0.57150, FORT MCMURRAY AP ANN HTG 99.6% CONDNS DB, 1/21 08:00:00, -36.20000, 1.25811E-004, 1875.00000, 187.56814, 0.57150, 0.00000
 Zone Sizing Information, ATRIUM (HEIGHT < 6M)-SCH-B-SPACE FUNCTION ZN, Cooling, 16883.73198, 19416.29177, 1.43550, 1.65082, FORT MCMURRAY AP ANN CLG .4% CONDNS DB=>MWB, 7/21 20:10:00, 22.51400, 8.76969E-003, 1875.00000, 187.56814, 0.57150, 0.00000
 Zone Sizing Information, ATRIUM (HEIGHT < 6M)-SCH-B-SPACE FUNCTION ZN, Heating, 0.00000, 0.00000, 0.00000, 0.57150, FORT MCMURRAY AP ANN HTG 99.6% CONDNS DB, , -36.20000, 1.25811E-004, 1875.00000, 187.56814, 0.57150, 0.00000
 Zone Sizing Information, ATRIUM (HEIGHT < 6M)-SCH-C-SPACE FUNCTION ZN, Cooling, 21840.18007, 25116.20708, 1.85702, 2.13557, FORT MCMURRAY AP ANN CLG .4% CONDNS DB=>MWB, 7/21 17:00:00, 27.16400, 8.76969E-003, 2500.00000, 250.09086, 0.76200, 0.00000
 Zone Sizing Information, ATRIUM (HEIGHT < 6M)-SCH-C-SPACE FUNCTION ZN, Heating, 0.00000, 0.00000, 0.00000, 0.76200, FORT MCMURRAY AP ANN HTG 99.6% CONDNS DB, , -36.20000, 1.25811E-004, 2500.00000, 250.09086, 0.76200, 0.00000
 Zone Sizing Information, ATRIUM (HEIGHT < 6M)-SCH-D-SPACE FUNCTION ZN, Cooling, 32051.47288, 36859.19381, 2.72534, 3.13414, FORT MCMURRAY AP ANN CLG .4% CONDNS DB=>MWB, 7/21 16:10:00, 27.99067, 8.76969E-003, 1875.00000, 187.56814, 0.57150, 0.00000
 Zone Sizing Information, ATRIUM (HEIGHT < 6M)-SCH-D-SPACE FUNCTION ZN, Heating, 19583.31866, 24479.14832, 0.88495, 1.10618, FORT MCMURRAY AP ANN HTG 99.6% CONDNS DB, 1/21 09:00:00, -36.20000, 1.25811E-004, 1875.00000, 187.56814, 0.57150, 0.00000
 Zone Sizing Information, ATRIUM (HEIGHT < 6M)-SCH-E-SPACE FUNCTION ZN, Cooling, 24573.17442, 28259.15059, 2.08937, 2.40277, FORT MCMURRAY AP ANN CLG .4% CONDNS DB=>MWB, 7/21 16:00:00, 28.15600, 8.76969E-003, 1875.00000, 187.56814, 0.57150, 0.00000
 Zone Sizing Information, ATRIUM (HEIGHT < 6M)-SCH-E-SPACE FUNCTION ZN, Heating, 21311.80097, 26639.75121, 0.96686, 1.20857, FORT MCMURRAY AP ANN HTG 99.6% CONDNS DB, 1/21 09:00:00, -36.20000, 1.25811E-004, 1875.00000, 187.56814, 0.57150, 0.00000
 Zone Sizing Information, ATRIUM (HEIGHT < 6M)-SCH-F-SPACE FUNCTION ZN, Cooling, 12652.60120, 14550.49138, 1.07569, 1.23705, FORT MCMURRAY AP ANN CLG .4% CONDNS DB=>MWB, 7/21 24:00:00, 18.73200, 8.76969E-003, 1875.00000, 187.56814, 0.57150, 0.00000
 Zone Sizing Information, ATRIUM (HEIGHT < 6M)-SCH-F-SPACE FUNCTION ZN, Heating, 0.00000, 0.00000, 0.00000, 0.57150, FORT MCMURRAY AP ANN HTG 99.6% CONDNS DB, , -36.20000, 1.25811E-004, 1875.00000, 187.56814, 0.57150, 0.00000
 Zone Sizing Information, ATRIUM (HEIGHT < 6M)-SCH-G-SPACE FUNCTION ZN, Cooling, 24174.26769, 27800.40784, 2.05537, 2.36368, FORT MCMURRAY AP ANN CLG .4% CONDNS DB=>MWB, 7/21 20:00:00, 22.70000, 8.76969E-003, 1875.00000, 187.56814, 0.57150, 0.00000
 Zone Sizing Information, ATRIUM (HEIGHT < 6M)-SCH-G-SPACE FUNCTION ZN, Heating, 3289.79023, 4112.23778, 0.15553, 0.57150, FORT MCMURRAY AP ANN HTG 99.6% CONDNS DB, 1/21 11:20:00, -36.20000, 1.25811E-004, 1875.00000, 187.56814, 0.57150, 0.00000
 Zone Sizing Information, WHOLEBUILDING-OFFICE ZN, Cooling, 78588.01765, 90376.22030, 6.68136, 7.68357, FORT MCMURRAY AP ANN CLG .4% CONDNS DB=>MWB, 7/21 10:20:00, 24.80800, 8.76969E-003, 1875.00000, 75.02726, 0.75248, 0.00000
 Zone Sizing Information, WHOLEBUILDING-OFFICE ZN, Heating, 48177.16622, 60221.45777, 2.23466, 2.79333, FORT MCMURRAY AP ANN HTG 99.6% CONDNS DB, 1/21 08:00:00, -36.20000, 1.25811E-004, 1875.00000, 75.02726, 0.75248, 0.00000
 Zone Sizing Information, WHOLEBUILDING-PENITENTIARY ZN, Cooling, 64385.25086, 74043.03848, 5.47383, 6.29491, FORT MCMURRAY AP ANN CLG .4% CONDNS DB=>MWB, 7/21 13:40:00, 28.69333, 8.76969E-003, 1875.00000, 62.52271, 0.71438, 0.00000
 Zone Sizing Information, WHOLEBUILDING-PENITENTIARY ZN, Heating, 38966.44842, 48708.06053, 1.80005, 2.25007, FORT MCMURRAY AP ANN HTG 99.6% CONDNS DB, 1/21 09:00:00, -36.20000, 1.25811E-004, 1875.00000, 62.52271, 0.71438, 0.00000
 Zone Sizing Information, WHOLEBUILDING-PERFORMING ARTS THEATRE ZN, Cooling, 92077.83455, 105889.50973, 7.82910, 9.00347, FORT MCMURRAY AP ANN CLG .4% CONDNS DB=>MWB, 7/21 13:30:00, 28.59000, 8.76969E-003, 1875.00000, 234.46018, 1.12395, 0.00000
 Zone Sizing Information, WHOLEBUILDING-PERFORMING ARTS THEATRE ZN, Heating, 46605.00110, 58256.25138, 2.00091, 2.50114, FORT MCMURRAY AP ANN HTG 99.6% CONDNS DB, 1/21 08:10:00, -36.20000, 1.25811E-004, 1875.00000, 234.46018, 1.12395, 0.00000
 Zone Sizing Information, WHOLEBUILDING-POLICE STATION ZN, Cooling, 84965.07042, 97709.83099, 7.22356, 8.30710, FORT MCMURRAY AP ANN CLG .4% CONDNS DB=>MWB, 7/21 16:10:00, 27.99067, 8.76969E-003, 1875.00000, 75.02726, 0.75248, 0.00000
 Zone Sizing Information, WHOLEBUILDING-POLICE STATION ZN, Heating, 29469.59576, 36836.99470, 1.35225, 1.69032, FORT MCMURRAY AP ANN HTG 99.6% CONDNS DB, 1/21 09:00:00, -36.20000, 1.25811E-004, 1875.00000, 75.02726, 0.75248, 0.00000
 Zone Sizing Information, WHOLEBUILDING-POST OFFICE ZN, Cooling, 49854.45558, 57332.62391, 4.23855, 4.87433, FORT MCMURRAY AP ANN CLG .4% CONDNS DB=>MWB, 7/21 17:00:00, 27.16400, 8.76969E-003, 2500.00000, 100.03634, 1.87960, 0.00000
 Zone Sizing Information, WHOLEBUILDING-POST OFFICE ZN, Heating, 0.00000, 0.00000, 0.00000, 1.87960, FORT MCMURRAY AP ANN HTG 99.6% CONDNS DB, , -36.20000, 1.25811E-004, 2500.00000, 100.03634, 1.87960, 0.00000
 Zone Sizing Information, WHOLEBUILDING-RETAIL AREA ZN, Cooling, 85577.16887, 98413.74421, 7.27538, 8.36669, FORT MCMURRAY AP ANN CLG .4% CONDNS DB=>MWB, 7/21 13:40:00, 28.69333, 8.76969E-003, 2500.00000, 83.36362, 1.05410, 0.00000
 Zone Sizing Information, WHOLEBUILDING-RETAIL AREA ZN, Heating, 38377.05452, 47971.31815, 1.58767, 1.98459, FORT MCMURRAY AP ANN HTG 99.6% CONDNS DB, 1/21 08:00:00, -36.20000, 1.25811E-004, 2500.00000, 83.36362, 1.05410, 0.00000
 Zone Sizing Information, WHOLEBUILDING-SCHOOL/UNIVERSITY ZN, Cooling, 51163.42324, 58837.93673, 4.35051, 5.00309, FORT MCMURRAY AP ANN CLG .4% CONDNS DB=>MWB, 7/21 14:20:00, 28.90000, 8.76969E-003, 1875.00000, 234.46018, 1.40018, 0.00000
 Zone Sizing Information, WHOLEBUILDING-SCHOOL/UNIVERSITY ZN, Heating, 24172.70339, 30215.87924, 1.10197, 1.40018, FORT MCMURRAY AP ANN HTG 99.6% CONDNS DB, 1/21 09:00:00, -36.20000, 1.25811E-004, 1875.00000, 234.46018, 1.40018, 0.00000
 Zone Sizing Information, WHOLEBUILDING-SPORTS ARENA ZN, Cooling, 52723.92519, 60632.51397, 4.01050, 4.61207, FORT MCMURRAY AP ANN CLG .4% CONDNS DB=>MWB, 7/21 09:00:00, 22.08000, 8.76969E-003, 1875.00000, 187.56814, 1.23825, 0.00000
 Zone Sizing Information, WHOLEBUILDING-SPORTS ARENA ZN, Heating, 19248.56421, 24060.70526, 0.86938, 1.23825, FORT MCMURRAY AP ANN HTG 99.6% CONDNS DB, 1/21 10:00:00, -36.20000, 1.25811E-004, 1875.00000, 187.56814, 1.23825, 0.00000
 Zone Sizing Information, WHOLEBUILDING-STORAGE GARAGE ZN, Cooling, 0.00000, 0.00000, 0.00000, 7.14375, FORT MCMURRAY AP ANN CLG .4% CONDNS DB=>MWB, , 28.90000, 8.76969E-003, 1875.00000, 1.87568, 7.14375, 0.00000
 Zone Sizing Information, WHOLEBUILDING-STORAGE GARAGE ZN, Heating, 0.00000, 0.00000, 0.00000, 7.14375, FORT MCMURRAY AP ANN HTG 99.6% CONDNS DB, , -36.20000, 1.25811E-004, 1875.00000, 1.87568, 7.14375, 0.00000
 Zone Sizing Information, WHOLEBUILDING-TOWN HALL ZN, Cooling, 50290.18628, 57833.71423, 4.27556, 4.91690, FORT MCMURRAY AP ANN CLG .4% CONDNS DB=>MWB, 7/21 16:10:00, 27.99067, 8.76969E-003, 1875.00000, 75.02726, 0.75248, 0.00000
 Zone Sizing Information, WHOLEBUILDING-TOWN HALL ZN, Heating, 22254.92845, 27818.66056, 1.01170, 1.26462, FORT MCMURRAY AP ANN HTG 99.6% CONDNS DB, 1/21 09:00:00, -36.20000, 1.25811E-004, 1875.00000, 75.02726, 0.75248, 0.00000
 Zone Sizing Information, WHOLEBUILDING-TRANSPORTATION FACILITY ZN, Cooling, 38643.19441, 44439.67357, 3.28552, 3.77835, FORT MCMURRAY AP ANN CLG .4% CONDNS DB=>MWB, 7/21 09:20:00, 22.78267, 8.76969E-003, 1875.00000, 125.04543, 1.00965, 0.00000
 Zone Sizing Information, WHOLEBUILDING-TRANSPORTATION FACILITY ZN, Heating, 0.00000, 0.00000, 0.00000, 1.00965, FORT MCMURRAY AP ANN HTG 99.6% CONDNS DB, , -36.20000, 1.25811E-004, 1875.00000, 125.04543, 1.00965, 0.00000
 Zone Sizing Information, WHOLEBUILDING-WAREHOUSE ZN, Cooling, 13703.72101, 15759.27916, 1.16497, 1.33971, FORT MCMURRAY AP ANN CLG .4% CONDNS DB=>MWB, 7/21 12:30:00, 27.78400, 8.76969E-003, 1875.00000, 1.25045, 0.58103, 0.00000
 Zone Sizing Information, WHOLEBUILDING-WAREHOUSE ZN, Heating, 0.00000, 0.00000, 0.00000, 0.58103, FORT MCMURRAY AP ANN HTG 99.6% CONDNS DB, , -36.20000, 1.25811E-004, 1875.00000, 1.25045, 0.58103, 0.00000
 Zone Sizing Information, WHOLEBUILDING-WORKSHOP ZN, Cooling, 45585.94380, 52423.83537, 3.87559, 4.45693, FORT MCMURRAY AP ANN CLG .4% CONDNS DB=>MWB, 7/21 17:00:00, 27.16400, 8.76969E-003, 2500.00000, 83.36362, 2.67970, 0.00000
 Zone Sizing Information, WHOLEBUILDING-WORKSHOP ZN, Heating, 0.00000, 0.00000, 0.00000, 2.67970, FORT MCMURRAY AP ANN HTG 99.6% CONDNS DB, , -36.20000, 1.25811E-004, 2500.00000, 83.36362, 2.67970, 0.00000
! <Component Sizing Information>, Component Type, Component Name, Input Field Description, Value
 Component Sizing Information, ZoneHVAC:IdealLoadsAirSystem, ZONE HVAC IDEAL LOADS AIR SYSTEM 1, User-Specified Maximum Heating Air Flow Rate [m3/s], 0.00000
 Component Sizing Information, ZoneHVAC:IdealLoadsAirSystem, ZONE HVAC IDEAL LOADS AIR SYSTEM 1, User-Specified Maximum Cooling Air Flow Rate [m3/s], 0.00000
 Component Sizing Information, ZoneHVAC:IdealLoadsAirSystem, ZONE HVAC IDEAL LOADS AIR SYSTEM 2, User-Specified Maximum Heating Air Flow Rate [m3/s], 0.00000
 Component Sizing Information, ZoneHVAC:IdealLoadsAirSystem, ZONE HVAC IDEAL LOADS AIR SYSTEM 2, User-Specified Maximum Cooling Air Flow Rate [m3/s], 0.00000
 Component Sizing Information, ZoneHVAC:IdealLoadsAirSystem, ZONE HVAC IDEAL LOADS AIR SYSTEM 3, User-Specified Maximum Heating Air Flow Rate [m3/s], 0.00000
 Component Sizing Information, ZoneHVAC:IdealLoadsAirSystem, ZONE HVAC IDEAL LOADS AIR SYSTEM 3, User-Specified Maximum Cooling Air Flow Rate [m3/s], 0.00000
 Component Sizing Information, ZoneHVAC:IdealLoadsAirSystem, ZONE HVAC IDEAL LOADS AIR SYSTEM 4, User-Specified Maximum Heating Air Flow Rate [m3/s], 0.00000
 Component Sizing Information, ZoneHVAC:IdealLoadsAirSystem, ZONE HVAC IDEAL LOADS AIR SYSTEM 4, User-Specified Maximum Cooling Air Flow Rate [m3/s], 0.00000
 Component Sizing Information, ZoneHVAC:IdealLoadsAirSystem, ZONE HVAC IDEAL LOADS AIR SYSTEM 5, User-Specified Maximum Heating Air Flow Rate [m3/s], 0.00000
 Component Sizing Information, ZoneHVAC:IdealLoadsAirSystem, ZONE HVAC IDEAL LOADS AIR SYSTEM 5, User-Specified Maximum Cooling Air Flow Rate [m3/s], 0.00000
 Component Sizing Information, ZoneHVAC:IdealLoadsAirSystem, ZONE HVAC IDEAL LOADS AIR SYSTEM 6, User-Specified Maximum Heating Air Flow Rate [m3/s], 0.00000
 Component Sizing Information, ZoneHVAC:IdealLoadsAirSystem, ZONE HVAC IDEAL LOADS AIR SYSTEM 6, User-Specified Maximum Cooling Air Flow Rate [m3/s], 0.00000
 Component Sizing Information, ZoneHVAC:IdealLoadsAirSystem, ZONE HVAC IDEAL LOADS AIR SYSTEM 7, User-Specified Maximum Heating Air Flow Rate [m3/s], 0.00000
 Component Sizing Information, ZoneHVAC:IdealLoadsAirSystem, ZONE HVAC IDEAL LOADS AIR SYSTEM 7, User-Specified Maximum Cooling Air Flow Rate [m3/s], 0.00000
 Component Sizing Information, ZoneHVAC:IdealLoadsAirSystem, ZONE HVAC IDEAL LOADS AIR SYSTEM 8, User-Specified Maximum Heating Air Flow Rate [m3/s], 0.00000
 Component Sizing Information, ZoneHVAC:IdealLoadsAirSystem, ZONE HVAC IDEAL LOADS AIR SYSTEM 8, User-Specified Maximum Cooling Air Flow Rate [m3/s], 0.00000
 Component Sizing Information, ZoneHVAC:IdealLoadsAirSystem, ZONE HVAC IDEAL LOADS AIR SYSTEM 9, User-Specified Maximum Heating Air Flow Rate [m3/s], 0.00000
 Component Sizing Information, ZoneHVAC:IdealLoadsAirSystem, ZONE HVAC IDEAL LOADS AIR SYSTEM 9, User-Specified Maximum Cooling Air Flow Rate [m3/s], 0.00000
 Component Sizing Information, ZoneHVAC:IdealLoadsAirSystem, ZONE HVAC IDEAL LOADS AIR SYSTEM 10, User-Specified Maximum Heating Air Flow Rate [m3/s], 0.00000
 Component Sizing Information, ZoneHVAC:IdealLoadsAirSystem, ZONE HVAC IDEAL LOADS AIR SYSTEM 10, User-Specified Maximum Cooling Air Flow Rate [m3/s], 0.00000
 Component Sizing Information, ZoneHVAC:IdealLoadsAirSystem, ZONE HVAC IDEAL LOADS AIR SYSTEM 11, User-Specified Maximum Heating Air Flow Rate [m3/s], 0.00000
 Component Sizing Information, ZoneHVAC:IdealLoadsAirSystem, ZONE HVAC IDEAL LOADS AIR SYSTEM 11, User-Specified Maximum Cooling Air Flow Rate [m3/s], 0.00000
 Component Sizing Information, ZoneHVAC:IdealLoadsAirSystem, ZONE HVAC IDEAL LOADS AIR SYSTEM 12, User-Specified Maximum Heating Air Flow Rate [m3/s], 0.00000
 Component Sizing Information, ZoneHVAC:IdealLoadsAirSystem, ZONE HVAC IDEAL LOADS AIR SYSTEM 12, User-Specified Maximum Cooling Air Flow Rate [m3/s], 0.00000
 Component Sizing Information, ZoneHVAC:IdealLoadsAirSystem, ZONE HVAC IDEAL LOADS AIR SYSTEM 13, User-Specified Maximum Heating Air Flow Rate [m3/s], 0.00000
 Component Sizing Information, ZoneHVAC:IdealLoadsAirSystem, ZONE HVAC IDEAL LOADS AIR SYSTEM 13, User-Specified Maximum Cooling Air Flow Rate [m3/s], 0.00000
 Component Sizing Information, ZoneHVAC:IdealLoadsAirSystem, ZONE HVAC IDEAL LOADS AIR SYSTEM 14, User-Specified Maximum Heating Air Flow Rate [m3/s], 0.00000
 Component Sizing Information, ZoneHVAC:IdealLoadsAirSystem, ZONE HVAC IDEAL LOADS AIR SYSTEM 14, User-Specified Maximum Cooling Air Flow Rate [m3/s], 0.00000
 Component Sizing Information, ZoneHVAC:IdealLoadsAirSystem, ZONE HVAC IDEAL LOADS AIR SYSTEM 15, User-Specified Maximum Heating Air Flow Rate [m3/s], 0.00000
 Component Sizing Information, ZoneHVAC:IdealLoadsAirSystem, ZONE HVAC IDEAL LOADS AIR SYSTEM 15, User-Specified Maximum Cooling Air Flow Rate [m3/s], 0.00000
 Component Sizing Information, ZoneHVAC:IdealLoadsAirSystem, ZONE HVAC IDEAL LOADS AIR SYSTEM 16, User-Specified Maximum Heating Air Flow Rate [m3/s], 0.00000
 Component Sizing Information, ZoneHVAC:IdealLoadsAirSystem, ZONE HVAC IDEAL LOADS AIR SYSTEM 16, User-Specified Maximum Cooling Air Flow Rate [m3/s], 0.00000
 Component Sizing Information, ZoneHVAC:IdealLoadsAirSystem, ZONE HVAC IDEAL LOADS AIR SYSTEM 17, User-Specified Maximum Heating Air Flow Rate [m3/s], 0.00000
 Component Sizing Information, ZoneHVAC:IdealLoadsAirSystem, ZONE HVAC IDEAL LOADS AIR SYSTEM 17, User-Specified Maximum Cooling Air Flow Rate [m3/s], 0.00000
 Component Sizing Information, ZoneHVAC:IdealLoadsAirSystem, ZONE HVAC IDEAL LOADS AIR SYSTEM 18, User-Specified Maximum Heating Air Flow Rate [m3/s], 0.00000
 Component Sizing Information, ZoneHVAC:IdealLoadsAirSystem, ZONE HVAC IDEAL LOADS AIR SYSTEM 18, User-Specified Maximum Cooling Air Flow Rate [m3/s], 0.00000
 Component Sizing Information, ZoneHVAC:IdealLoadsAirSystem, ZONE HVAC IDEAL LOADS AIR SYSTEM 19, User-Specified Maximum Heating Air Flow Rate [m3/s], 0.00000
 Component Sizing Information, ZoneHVAC:IdealLoadsAirSystem, ZONE HVAC IDEAL LOADS AIR SYSTEM 19, User-Specified Maximum Cooling Air Flow Rate [m3/s], 0.00000
 Component Sizing Information, ZoneHVAC:IdealLoadsAirSystem, ZONE HVAC IDEAL LOADS AIR SYSTEM 20, User-Specified Maximum Heating Air Flow Rate [m3/s], 0.00000
 Component Sizing Information, ZoneHVAC:IdealLoadsAirSystem, ZONE HVAC IDEAL LOADS AIR SYSTEM 20, User-Specified Maximum Cooling Air Flow Rate [m3/s], 0.00000
! <Environment>,Environment Name,Environment Type, Start Date, End Date, Start DayOfWeek, Duration {#days}, Source:Start DayOfWeek,  Use Daylight Saving, Use Holidays, Apply Weekend Holiday Rule,  Use Rain Values, Use Snow Values
! <Environment:Special Days>, Special Day Name, Special Day Type, Source, Start Date, Duration {#days}
! <Environment:Daylight Saving>, Daylight Saving Indicator, Source, Start Date, End Date
! <Environment:WarmupDays>, NumberofWarmupDays
Environment,FORT MCMURRAY AP ANN CLG .4% CONDNS DB=>MWB,SizingPeriod:DesignDay,07/21,07/21,SummerDesignDay,1,N/A,N/A,N/A,N/A,N/A,N/A
Environment:Daylight Saving,No,SizingPeriod:DesignDay
! <Environment:Design Day Data>, Max Dry-Bulb Temp {C}, Temp Range {dC}, Temp Range Ind Type, Hum Ind Value at Max Temp, Hum Ind Type,Pressure {Pa}, Wind Direction {deg CW from N}, Wind Speed {m/s}, Clearness, Rain, Snow
! <Environment:Design Day Misc>,DayOfYear,ASHRAE A Coeff,ASHRAE B Coeff,ASHRAE C Coeff,Solar Constant-Annual Variation,Eq of Time {minutes}, Solar Declination Angle {deg}, Solar Model
Environment:Design Day Data,28.90,12.40,DefaultMultipliers,96969,250,3.7,0.00,No,No
Environment:Design Day Misc,202,1084.4,0.2082,0.1365,1.0,-6.23,20.6,ASHRAETau
Environment:WarmupDays,  6
! <Tabular Report>,Style,Unit Conversion
Tabular Report,HTML,None
! <Warmup Convergence Information>,Zone Name,Environment Type/Name,Average Warmup Temperature Difference {deltaC},Std Dev Warmup Temperature Difference {deltaC},Max Temperature Pass/Fail Convergence,Min Temperature Pass/Fail Convergence,Average Warmup Load Difference {W},Std Dev Warmup Load Difference {W},Heating Load Pass/Fail Convergence,Cooling Load Pass/Fail Convergence
 Warmup Convergence Information,ATRIUM (HEIGHT < 6M)-SCH-A-SPACE FUNCTION ZN,SizingPeriod: FORT MCMURRAY AP ANN CLG .4% CONDNS DB=>MWB,1.2589216370E-002,2.3887736539E-002,Pass,Pass,4.4778335288E-002,0.1422536219,Pass,Pass
 Warmup Convergence Information,ATRIUM (HEIGHT < 6M)-SCH-B-SPACE FUNCTION ZN,SizingPeriod: FORT MCMURRAY AP ANN CLG .4% CONDNS DB=>MWB,9.4058211718E-003,2.1208807581E-002,Pass,Pass,4.1705123345E-002,0.1293588740,Pass,Pass
 Warmup Convergence Information,ATRIUM (HEIGHT < 6M)-SCH-C-SPACE FUNCTION ZN,SizingPeriod: FORT MCMURRAY AP ANN CLG .4% CONDNS DB=>MWB,1.0823080883E-002,1.9398521185E-002,Pass,Pass,5.1933795368E-002,0.2688034002,Pass,Pass
 Warmup Convergence Information,ATRIUM (HEIGHT < 6M)-SCH-D-SPACE FUNCTION ZN,SizingPeriod: FORT MCMURRAY AP ANN CLG .4% CONDNS DB=>MWB,1.9405667815E-002,7.4738536003E-002,Pass,Pass,5.3287325050E-002,0.2589503203,Pass,Pass
 Warmup Convergence Information,ATRIUM (HEIGHT < 6M)-SCH-E-SPACE FUNCTION ZN,SizingPeriod: FORT MCMURRAY AP ANN CLG .4% CONDNS DB=>MWB,1.9212711410E-002,3.9081549343E-002,Pass,Pass,0.1580508432,1.3553510827,Pass,Pass
 Warmup Convergence Information,ATRIUM (HEIGHT < 6M)-SCH-F-SPACE FUNCTION ZN,SizingPeriod: FORT MCMURRAY AP ANN CLG .4% CONDNS DB=>MWB,1.7911598131E-014,1.6520410419E-014,Pass,Pass,1.3832305940E-002,3.9689079134E-002,Pass,Pass
 Warmup Convergence Information,ATRIUM (HEIGHT < 6M)-SCH-G-SPACE FUNCTION ZN,SizingPeriod: FORT MCMURRAY AP ANN CLG .4% CONDNS DB=>MWB,3.2270482582E-014,2.9604466989E-014,Pass,Pass,1.4223017781E-002,3.0728283138E-002,Pass,Pass
 Warmup Convergence Information,WHOLEBUILDING-OFFICE ZN,SizingPeriod: FORT MCMURRAY AP ANN CLG .4% CONDNS DB=>MWB,4.6612688220E-002,0.1339459936,Pass,Pass,6.2878137623E-002,0.3318060706,Pass,Pass
 Warmup Convergence Information,WHOLEBUILDING-PENITENTIARY ZN,SizingPeriod: FORT MCMURRAY AP ANN CLG .4% CONDNS DB=>MWB,5.5437136363E-014,5.2407074089E-014,Pass,Pass,2.2652923483E-002,1.5409320460E-002,Pass,Pass
 Warmup Convergence Information,WHOLEBUILDING-PERFORMING ARTS THEATRE ZN,SizingPeriod: FORT MCMURRAY AP ANN CLG .4% CONDNS DB=>MWB,3.1424601611E-002,4.8307842635E-002,Pass,Pass,6.1145129881E-002,0.3536511382,Pass,Pass
 Warmup Convergence Information,WHOLEBUILDING-POLICE STATION ZN,SizingPeriod: FORT MCMURRAY AP ANN CLG .4% CONDNS DB=>MWB,6.7772947748E-014,5.8021735052E-014,Pass,Pass,1.7220892271E-002,1.2883986717E-002,Pass,Pass
 Warmup Convergence Information,WHOLEBUILDING-POST OFFICE ZN,SizingPeriod: FORT MCMURRAY AP ANN CLG .4% CONDNS DB=>MWB,2.3464192089E-002,6.0742530156E-002,Pass,Pass,3.6728407179E-002,0.1952743757,Pass,Pass
 Warmup Convergence Information,WHOLEBUILDING-RETAIL AREA ZN,SizingPeriod: FORT MCMURRAY AP ANN CLG .4% CONDNS DB=>MWB,2.4467786754E-002,3.8704552932E-002,Pass,Pass,6.4242083327E-002,0.4058543105,Pass,Pass
 Warmup Convergence Information,WHOLEBUILDING-SCHOOL/UNIVERSITY ZN,SizingPeriod: FORT MCMURRAY AP ANN CLG .4% CONDNS DB=>MWB,1.5786335413E-002,3.0878702103E-002,Pass,Pass,3.5607044682E-002,0.1369578626,Pass,Pass
 Warmup Convergence Information,WHOLEBUILDING-SPORTS ARENA ZN,SizingPeriod: FORT MCMURRAY AP ANN CLG .4% CONDNS DB=>MWB,4.6110685845E-002,0.2056598466,Pass,Pass,3.8579043856E-002,0.1717789372,Pass,Pass
 Warmup Convergence Information,WHOLEBUILDING-STORAGE GARAGE ZN,SizingPeriod: FORT MCMURRAY AP ANN CLG .4% CONDNS DB=>MWB,0.1039287278,6.3823544640E-002,Pass,Pass,0.1556865909,0.4975044227,Pass,Pass
 Warmup Convergence Information,WHOLEBUILDING-TOWN HALL ZN,SizingPeriod: FORT MCMURRAY AP ANN CLG .4% CONDNS DB=>MWB,3.2331396001E-002,0.1257099301,Pass,Pass,6.0849617519E-002,0.3539156723,Pass,Pass
 Warmup Convergence Information,WHOLEBUILDING-TRANSPORTATION FACILITY ZN,SizingPeriod: FORT MCMURRAY AP ANN CLG .4% CONDNS DB=>MWB,5.0256095581E-014,3.8174383654E-014,Pass,Pass,7.1144077606E-003,7.6562131977E-003,Pass,Pass
 Warmup Convergence Information,WHOLEBUILDING-WAREHOUSE ZN,SizingPeriod: FORT MCMURRAY AP ANN CLG .4% CONDNS DB=>MWB,1.0232880142E-002,2.4955717903E-002,Pass,Pass,3.5966486317E-002,0.2178315968,Pass,Pass
 Warmup Convergence Information,WHOLEBUILDING-WORKSHOP ZN,SizingPeriod: FORT MCMURRAY AP ANN CLG .4% CONDNS DB=>MWB,2.2340296789E-002,4.0414648005E-002,Pass,Pass,2.8958837719E-002,0.1096708505,Pass,Pass
Environment,FORT MCMURRAY AP ANN HTG 99.6% CONDNS DB,SizingPeriod:DesignDay,01/21,01/21,WinterDesignDay,1,N/A,N/A,N/A,N/A,N/A,N/A
Environment:Daylight Saving,No,SizingPeriod:DesignDay
Environment:Design Day Data,-36.20,0.00,DefaultMultipliers,96969,90,1.0,0.00,No,No
Environment:Design Day Misc, 21,1229.0,0.1415,5.7310E-002,1.0,-11.15,-20.1,ASHRAEClearSky
Environment:WarmupDays,  6
 Warmup Convergence Information,ATRIUM (HEIGHT < 6M)-SCH-A-SPACE FUNCTION ZN,SizingPeriod: FORT MCMURRAY AP ANN HTG 99.6% CONDNS DB,6.1682576712E-002,0.3099786451,Pass,Pass,0.3515318150,1.2071790697,Pass,Pass
 Warmup Convergence Information,ATRIUM (HEIGHT < 6M)-SCH-B-SPACE FUNCTION ZN,SizingPeriod: FORT MCMURRAY AP ANN HTG 99.6% CONDNS DB,6.3435658992E-002,0.3118221270,Pass,Pass,1.0993192975,8.7735807187,Pass,Pass
 Warmup Convergence Information,ATRIUM (HEIGHT < 6M)-SCH-C-SPACE FUNCTION ZN,SizingPeriod: FORT MCMURRAY AP ANN HTG 99.6% CONDNS DB,6.3557284378E-002,0.3089908232,Pass,Pass,0.3001530649,1.2181296437,Pass,Pass
 Warmup Convergence Information,ATRIUM (HEIGHT < 6M)-SCH-D-SPACE FUNCTION ZN,SizingPeriod: FORT MCMURRAY AP ANN HTG 99.6% CONDNS DB,6.1312214021E-002,0.3134235107,Pass,Pass,0.1855861896,0.7408248923,Pass,Pass
 Warmup Convergence Information,ATRIUM (HEIGHT < 6M)-SCH-E-SPACE FUNCTION ZN,SizingPeriod: FORT MCMURRAY AP ANN HTG 99.6% CONDNS DB,5.8328510103E-002,0.3276327962,Pass,Pass,0.2401099121,1.5662098306,Pass,Pass
 Warmup Convergence Information,ATRIUM (HEIGHT < 6M)-SCH-F-SPACE FUNCTION ZN,SizingPeriod: FORT MCMURRAY AP ANN HTG 99.6% CONDNS DB,6.7234407469E-002,0.3118171319,Pass,Pass,0.2244043114,1.0230241035,Pass,Pass
 Warmup Convergence Information,ATRIUM (HEIGHT < 6M)-SCH-G-SPACE FUNCTION ZN,SizingPeriod: FORT MCMURRAY AP ANN HTG 99.6% CONDNS DB,6.4545057746E-002,0.3083566195,Pass,Pass,0.2656214377,1.0752166044,Pass,Pass
 Warmup Convergence Information,WHOLEBUILDING-OFFICE ZN,SizingPeriod: FORT MCMURRAY AP ANN HTG 99.6% CONDNS DB,5.7163344321E-002,0.3329066602,Pass,Pass,7.5910809524E-002,0.2840311034,Pass,Pass
 Warmup Convergence Information,WHOLEBUILDING-PENITENTIARY ZN,SizingPeriod: FORT MCMURRAY AP ANN HTG 99.6% CONDNS DB,5.6747940558E-002,0.3384814450,Pass,Pass,5.1021400866E-002,0.2229399710,Pass,Pass
 Warmup Convergence Information,WHOLEBUILDING-PERFORMING ARTS THEATRE ZN,SizingPeriod: FORT MCMURRAY AP ANN HTG 99.6% CONDNS DB,5.6466702390E-002,0.3460009445,Pass,Pass,6.5825506384E-002,0.2034208968,Pass,Pass
 Warmup Convergence Information,WHOLEBUILDING-POLICE STATION ZN,SizingPeriod: FORT MCMURRAY AP ANN HTG 99.6% CONDNS DB,5.8958536737E-002,0.3223971415,Pass,Pass,0.2513213955,1.2143001795,Pass,Pass
 Warmup Convergence Information,WHOLEBUILDING-POST OFFICE ZN,SizingPeriod: FORT MCMURRAY AP ANN HTG 99.6% CONDNS DB,5.7210817789E-002,0.3409567580,Pass,Pass,0.5232480427,2.7089835080,Pass,Pass
 Warmup Convergence Information,WHOLEBUILDING-RETAIL AREA ZN,SizingPeriod: FORT MCMURRAY AP ANN HTG 99.6% CONDNS DB,5.8053210520E-002,0.3300878321,Pass,Pass,8.1640349423E-002,0.2511115762,Pass,Pass
 Warmup Convergence Information,WHOLEBUILDING-SCHOOL/UNIVERSITY ZN,SizingPeriod: FORT MCMURRAY AP ANN HTG 99.6% CONDNS DB,5.6816599316E-002,0.3449680223,Pass,Pass,0.5776170827,2.2773383631,Pass,Pass
 Warmup Convergence Information,WHOLEBUILDING-SPORTS ARENA ZN,SizingPeriod: FORT MCMURRAY AP ANN HTG 99.6% CONDNS DB,5.7229165643E-002,0.3417924268,Pass,Pass,0.1816224637,0.3855632940,Pass,Pass
 Warmup Convergence Information,WHOLEBUILDING-STORAGE GARAGE ZN,SizingPeriod: FORT MCMURRAY AP ANN HTG 99.6% CONDNS DB,9.0174781222E-015,7.1295333887E-015,Pass,Pass,1.9023735772E-003,8.9835550073E-004,Pass,Pass
 Warmup Convergence Information,WHOLEBUILDING-TOWN HALL ZN,SizingPeriod: FORT MCMURRAY AP ANN HTG 99.6% CONDNS DB,5.9571073038E-002,0.3213720713,Pass,Pass,0.2358832592,0.4673025552,Pass,Pass
 Warmup Convergence Information,WHOLEBUILDING-TRANSPORTATION FACILITY ZN,SizingPeriod: FORT MCMURRAY AP ANN HTG 99.6% CONDNS DB,5.9751194977E-002,0.3242235903,Pass,Pass,0.2360945093,0.9086075983,Pass,Pass
 Warmup Convergence Information,WHOLEBUILDING-WAREHOUSE ZN,SizingPeriod: FORT MCMURRAY AP ANN HTG 99.6% CONDNS DB,6.3243047216E-002,0.3091612918,Pass,Pass,1.3624853488,11.1470017296,Pass,Pass
 Warmup Convergence Information,WHOLEBUILDING-WORKSHOP ZN,SizingPeriod: FORT MCMURRAY AP ANN HTG 99.6% CONDNS DB,5.6352777598E-002,0.3555680254,Pass,Pass,0.2465388150,1.2041974886,Pass,Pass
! <Program Control Information:Threads/Parallel Sims>, Threading Supported,Maximum Number of Threads, Env Set Threads (OMP_NUM_THREADS), EP Env Set Threads (EP_OMP_NUM_THREADS), IDF Set Threads, Number of Threads Used (Interior Radiant Exchange), Number Nominal Surfaces, Number Parallel Sims
Program Control:Threads/Parallel Sims, No,1, N/A, N/A, N/A, N/A, N/A, N/A
End of Data
