! Program Version,EnergyPlus, Version 8.9.0-eba93e8e1b, YMD=2019.03.27 19:58,
! Output:Meter Objects (applicable to this run)
Output:Meter,Electricity:Facility,hourly; !- [J]
Output:Meter:Cumulative,Electricity:Facility,hourly; !- [J]
Output:Meter,Electricity:Building,hourly; !- [J]
Output:Meter:Cumulative,Electricity:Building,hourly; !- [J]
Output:Meter,Electricity:Zone:WHOLEBUILDING-AUTOMOTIVE FACILITY ZN,hourly; !- [J]
Output:Meter:Cumulative,Electricity:Zone:WHOLEBUILDING-AUTOMOTIVE FACILITY ZN,hourly; !- [J]
Output:Meter,InteriorLights:Electricity,hourly; !- [J]
Output:Meter:Cumulative,InteriorLights:Electricity,hourly; !- [J]
Output:Meter,InteriorLights:Electricity:Zone:WHOLEBUILDING-AUTOMOTIVE FACILITY ZN,hourly; !- [J]
Output:Meter:Cumulative,InteriorLights:Electricity:Zone:WHOLEBUILDING-AUTOMOTIVE FACILITY ZN,hourly; !- [J]
Output:Meter,General:InteriorLights:Electricity,hourly; !- [J]
Output:Meter:Cumulative,General:InteriorLights:Electricity,hourly; !- [J]
Output:Meter,Electricity:Zone:WHOLEBUILDING-CONVENTION CENTRE ZN,hourly; !- [J]
Output:Meter:Cumulative,Electricity:Zone:WHOLEBUILDING-CONVENTION CENTRE ZN,hourly; !- [J]
Output:Meter,InteriorLights:Electricity:Zone:WHOLEBUILDING-CONVENTION CENTRE ZN,hourly; !- [J]
Output:Meter:Cumulative,InteriorLights:Electricity:Zone:WHOLEBUILDING-CONVENTION CENTRE ZN,hourly; !- [J]
Output:Meter,Electricity:Zone:WHOLEBUILDING-COURTHOUSE ZN,hourly; !- [J]
Output:Meter:Cumulative,Electricity:Zone:WHOLEBUILDING-COURTHOUSE ZN,hourly; !- [J]
Output:Meter,InteriorLights:Electricity:Zone:WHOLEBUILDING-COURTHOUSE ZN,hourly; !- [J]
Output:Meter:Cumulative,InteriorLights:Electricity:Zone:WHOLEBUILDING-COURTHOUSE ZN,hourly; !- [J]
Output:Meter,Electricity:Zone:WHOLEBUILDING-DINING - BAR/LOUNGE ZN,hourly; !- [J]
Output:Meter:Cumulative,Electricity:Zone:WHOLEBUILDING-DINING - BAR/LOUNGE ZN,hourly; !- [J]
Output:Meter,InteriorLights:Electricity:Zone:WHOLEBUILDING-DINING - BAR/LOUNGE ZN,hourly; !- [J]
Output:Meter:Cumulative,InteriorLights:Electricity:Zone:WHOLEBUILDING-DINING - BAR/LOUNGE ZN,hourly; !- [J]
Output:Meter,Electricity:Zone:WHOLEBUILDING-DINING - CAFETERIA ZN,hourly; !- [J]
Output:Meter:Cumulative,Electricity:Zone:WHOLEBUILDING-DINING - CAFETERIA ZN,hourly; !- [J]
Output:Meter,InteriorLights:Electricity:Zone:WHOLEBUILDING-DINING - CAFETERIA ZN,hourly; !- [J]
Output:Meter:Cumulative,InteriorLights:Electricity:Zone:WHOLEBUILDING-DINING - CAFETERIA ZN,hourly; !- [J]
Output:Meter,Electricity:Zone:WHOLEBUILDING-DINING - FAMILY ZN,hourly; !- [J]
Output:Meter:Cumulative,Electricity:Zone:WHOLEBUILDING-DINING - FAMILY ZN,hourly; !- [J]
Output:Meter,InteriorLights:Electricity:Zone:WHOLEBUILDING-DINING - FAMILY ZN,hourly; !- [J]
Output:Meter:Cumulative,InteriorLights:Electricity:Zone:WHOLEBUILDING-DINING - FAMILY ZN,hourly; !- [J]
Output:Meter,Electricity:Zone:WHOLEBUILDING-DORMITORY ZN,hourly; !- [J]
Output:Meter:Cumulative,Electricity:Zone:WHOLEBUILDING-DORMITORY ZN,hourly; !- [J]
Output:Meter,InteriorLights:Electricity:Zone:WHOLEBUILDING-DORMITORY ZN,hourly; !- [J]
Output:Meter:Cumulative,InteriorLights:Electricity:Zone:WHOLEBUILDING-DORMITORY ZN,hourly; !- [J]
Output:Meter,Electricity:Zone:WHOLEBUILDING-EXERCISE CENTRE ZN,hourly; !- [J]
Output:Meter:Cumulative,Electricity:Zone:WHOLEBUILDING-EXERCISE CENTRE ZN,hourly; !- [J]
Output:Meter,InteriorLights:Electricity:Zone:WHOLEBUILDING-EXERCISE CENTRE ZN,hourly; !- [J]
Output:Meter:Cumulative,InteriorLights:Electricity:Zone:WHOLEBUILDING-EXERCISE CENTRE ZN,hourly; !- [J]
Output:Meter,Electricity:Zone:WHOLEBUILDING-FIRE STATION ZN,hourly; !- [J]
Output:Meter:Cumulative,Electricity:Zone:WHOLEBUILDING-FIRE STATION ZN,hourly; !- [J]
Output:Meter,InteriorLights:Electricity:Zone:WHOLEBUILDING-FIRE STATION ZN,hourly; !- [J]
Output:Meter:Cumulative,InteriorLights:Electricity:Zone:WHOLEBUILDING-FIRE STATION ZN,hourly; !- [J]
Output:Meter,Electricity:Zone:WHOLEBUILDING-GYMNASIUM ZN,hourly; !- [J]
Output:Meter:Cumulative,Electricity:Zone:WHOLEBUILDING-GYMNASIUM ZN,hourly; !- [J]
Output:Meter,InteriorLights:Electricity:Zone:WHOLEBUILDING-GYMNASIUM ZN,hourly; !- [J]
Output:Meter:Cumulative,InteriorLights:Electricity:Zone:WHOLEBUILDING-GYMNASIUM ZN,hourly; !- [J]
Output:Meter,Electricity:Zone:WHOLEBUILDING-HEALTH-CARE CLINIC ZN,hourly; !- [J]
Output:Meter:Cumulative,Electricity:Zone:WHOLEBUILDING-HEALTH-CARE CLINIC ZN,hourly; !- [J]
Output:Meter,InteriorLights:Electricity:Zone:WHOLEBUILDING-HEALTH-CARE CLINIC ZN,hourly; !- [J]
Output:Meter:Cumulative,InteriorLights:Electricity:Zone:WHOLEBUILDING-HEALTH-CARE CLINIC ZN,hourly; !- [J]
Output:Meter,Electricity:Zone:WHOLEBUILDING-HOSPITAL ZN,hourly; !- [J]
Output:Meter:Cumulative,Electricity:Zone:WHOLEBUILDING-HOSPITAL ZN,hourly; !- [J]
Output:Meter,InteriorLights:Electricity:Zone:WHOLEBUILDING-HOSPITAL ZN,hourly; !- [J]
Output:Meter:Cumulative,InteriorLights:Electricity:Zone:WHOLEBUILDING-HOSPITAL ZN,hourly; !- [J]
Output:Meter,Electricity:Zone:WHOLEBUILDING-HOTEL ZN,hourly; !- [J]
Output:Meter:Cumulative,Electricity:Zone:WHOLEBUILDING-HOTEL ZN,hourly; !- [J]
Output:Meter,InteriorLights:Electricity:Zone:WHOLEBUILDING-HOTEL ZN,hourly; !- [J]
Output:Meter:Cumulative,InteriorLights:Electricity:Zone:WHOLEBUILDING-HOTEL ZN,hourly; !- [J]
Output:Meter,Electricity:Zone:WHOLEBUILDING-LIBRARY ZN,hourly; !- [J]
Output:Meter:Cumulative,Electricity:Zone:WHOLEBUILDING-LIBRARY ZN,hourly; !- [J]
Output:Meter,InteriorLights:Electricity:Zone:WHOLEBUILDING-LIBRARY ZN,hourly; !- [J]
Output:Meter:Cumulative,InteriorLights:Electricity:Zone:WHOLEBUILDING-LIBRARY ZN,hourly; !- [J]
Output:Meter,Electricity:Zone:WHOLEBUILDING-MANUFACTURING FACILITY ZN,hourly; !- [J]
Output:Meter:Cumulative,Electricity:Zone:WHOLEBUILDING-MANUFACTURING FACILITY ZN,hourly; !- [J]
Output:Meter,InteriorLights:Electricity:Zone:WHOLEBUILDING-MANUFACTURING FACILITY ZN,hourly; !- [J]
Output:Meter:Cumulative,InteriorLights:Electricity:Zone:WHOLEBUILDING-MANUFACTURING FACILITY ZN,hourly; !- [J]
Output:Meter,Electricity:Zone:WHOLEBUILDING-MOTEL ZN,hourly; !- [J]
Output:Meter:Cumulative,Electricity:Zone:WHOLEBUILDING-MOTEL ZN,hourly; !- [J]
Output:Meter,InteriorLights:Electricity:Zone:WHOLEBUILDING-MOTEL ZN,hourly; !- [J]
Output:Meter:Cumulative,InteriorLights:Electricity:Zone:WHOLEBUILDING-MOTEL ZN,hourly; !- [J]
Output:Meter,Electricity:Zone:WHOLEBUILDING-MOTION PICTURE THEATRE ZN,hourly; !- [J]
Output:Meter:Cumulative,Electricity:Zone:WHOLEBUILDING-MOTION PICTURE THEATRE ZN,hourly; !- [J]
Output:Meter,InteriorLights:Electricity:Zone:WHOLEBUILDING-MOTION PICTURE THEATRE ZN,hourly; !- [J]
Output:Meter:Cumulative,InteriorLights:Electricity:Zone:WHOLEBUILDING-MOTION PICTURE THEATRE ZN,hourly; !- [J]
Output:Meter,Electricity:Zone:WHOLEBUILDING-MULTI-UNIT RESIDENTIAL ZN,hourly; !- [J]
Output:Meter:Cumulative,Electricity:Zone:WHOLEBUILDING-MULTI-UNIT RESIDENTIAL ZN,hourly; !- [J]
Output:Meter,InteriorLights:Electricity:Zone:WHOLEBUILDING-MULTI-UNIT RESIDENTIAL ZN,hourly; !- [J]
Output:Meter:Cumulative,InteriorLights:Electricity:Zone:WHOLEBUILDING-MULTI-UNIT RESIDENTIAL ZN,hourly; !- [J]
Output:Meter,Electricity:Zone:WHOLEBUILDING-MUSEUM ZN,hourly; !- [J]
Output:Meter:Cumulative,Electricity:Zone:WHOLEBUILDING-MUSEUM ZN,hourly; !- [J]
Output:Meter,InteriorLights:Electricity:Zone:WHOLEBUILDING-MUSEUM ZN,hourly; !- [J]
Output:Meter:Cumulative,InteriorLights:Electricity:Zone:WHOLEBUILDING-MUSEUM ZN,hourly; !- [J]
Output:Meter,Electricity:Zone:WHOLEBUILDING-OFFICE ZN,hourly; !- [J]
Output:Meter:Cumulative,Electricity:Zone:WHOLEBUILDING-OFFICE ZN,hourly; !- [J]
Output:Meter,InteriorLights:Electricity:Zone:WHOLEBUILDING-OFFICE ZN,hourly; !- [J]
Output:Meter:Cumulative,InteriorLights:Electricity:Zone:WHOLEBUILDING-OFFICE ZN,hourly; !- [J]
Output:Meter,InteriorEquipment:Electricity,hourly; !- [J]
Output:Meter:Cumulative,InteriorEquipment:Electricity,hourly; !- [J]
Output:Meter,InteriorEquipment:Electricity:Zone:WHOLEBUILDING-AUTOMOTIVE FACILITY ZN,hourly; !- [J]
Output:Meter:Cumulative,InteriorEquipment:Electricity:Zone:WHOLEBUILDING-AUTOMOTIVE FACILITY ZN,hourly; !- [J]
Output:Meter,General:InteriorEquipment:Electricity,hourly; !- [J]
Output:Meter:Cumulative,General:InteriorEquipment:Electricity,hourly; !- [J]
Output:Meter,InteriorEquipment:Electricity:Zone:WHOLEBUILDING-CONVENTION CENTRE ZN,hourly; !- [J]
Output:Meter:Cumulative,InteriorEquipment:Electricity:Zone:WHOLEBUILDING-CONVENTION CENTRE ZN,hourly; !- [J]
Output:Meter,InteriorEquipment:Electricity:Zone:WHOLEBUILDING-COURTHOUSE ZN,hourly; !- [J]
Output:Meter:Cumulative,InteriorEquipment:Electricity:Zone:WHOLEBUILDING-COURTHOUSE ZN,hourly; !- [J]
Output:Meter,InteriorEquipment:Electricity:Zone:WHOLEBUILDING-DINING - BAR/LOUNGE ZN,hourly; !- [J]
Output:Meter:Cumulative,InteriorEquipment:Electricity:Zone:WHOLEBUILDING-DINING - BAR/LOUNGE ZN,hourly; !- [J]
Output:Meter,InteriorEquipment:Electricity:Zone:WHOLEBUILDING-DINING - CAFETERIA ZN,hourly; !- [J]
Output:Meter:Cumulative,InteriorEquipment:Electricity:Zone:WHOLEBUILDING-DINING - CAFETERIA ZN,hourly; !- [J]
Output:Meter,InteriorEquipment:Electricity:Zone:WHOLEBUILDING-DINING - FAMILY ZN,hourly; !- [J]
Output:Meter:Cumulative,InteriorEquipment:Electricity:Zone:WHOLEBUILDING-DINING - FAMILY ZN,hourly; !- [J]
Output:Meter,InteriorEquipment:Electricity:Zone:WHOLEBUILDING-DORMITORY ZN,hourly; !- [J]
Output:Meter:Cumulative,InteriorEquipment:Electricity:Zone:WHOLEBUILDING-DORMITORY ZN,hourly; !- [J]
Output:Meter,InteriorEquipment:Electricity:Zone:WHOLEBUILDING-EXERCISE CENTRE ZN,hourly; !- [J]
Output:Meter:Cumulative,InteriorEquipment:Electricity:Zone:WHOLEBUILDING-EXERCISE CENTRE ZN,hourly; !- [J]
Output:Meter,InteriorEquipment:Electricity:Zone:WHOLEBUILDING-FIRE STATION ZN,hourly; !- [J]
Output:Meter:Cumulative,InteriorEquipment:Electricity:Zone:WHOLEBUILDING-FIRE STATION ZN,hourly; !- [J]
Output:Meter,InteriorEquipment:Electricity:Zone:WHOLEBUILDING-GYMNASIUM ZN,hourly; !- [J]
Output:Meter:Cumulative,InteriorEquipment:Electricity:Zone:WHOLEBUILDING-GYMNASIUM ZN,hourly; !- [J]
Output:Meter,InteriorEquipment:Electricity:Zone:WHOLEBUILDING-HEALTH-CARE CLINIC ZN,hourly; !- [J]
Output:Meter:Cumulative,InteriorEquipment:Electricity:Zone:WHOLEBUILDING-HEALTH-CARE CLINIC ZN,hourly; !- [J]
Output:Meter,InteriorEquipment:Electricity:Zone:WHOLEBUILDING-HOSPITAL ZN,hourly; !- [J]
Output:Meter:Cumulative,InteriorEquipment:Electricity:Zone:WHOLEBUILDING-HOSPITAL ZN,hourly; !- [J]
Output:Meter,InteriorEquipment:Electricity:Zone:WHOLEBUILDING-HOTEL ZN,hourly; !- [J]
Output:Meter:Cumulative,InteriorEquipment:Electricity:Zone:WHOLEBUILDING-HOTEL ZN,hourly; !- [J]
Output:Meter,InteriorEquipment:Electricity:Zone:WHOLEBUILDING-LIBRARY ZN,hourly; !- [J]
Output:Meter:Cumulative,InteriorEquipment:Electricity:Zone:WHOLEBUILDING-LIBRARY ZN,hourly; !- [J]
Output:Meter,InteriorEquipment:Electricity:Zone:WHOLEBUILDING-MANUFACTURING FACILITY ZN,hourly; !- [J]
Output:Meter:Cumulative,InteriorEquipment:Electricity:Zone:WHOLEBUILDING-MANUFACTURING FACILITY ZN,hourly; !- [J]
Output:Meter,InteriorEquipment:Electricity:Zone:WHOLEBUILDING-MOTEL ZN,hourly; !- [J]
Output:Meter:Cumulative,InteriorEquipment:Electricity:Zone:WHOLEBUILDING-MOTEL ZN,hourly; !- [J]
Output:Meter,InteriorEquipment:Electricity:Zone:WHOLEBUILDING-MOTION PICTURE THEATRE ZN,hourly; !- [J]
Output:Meter:Cumulative,InteriorEquipment:Electricity:Zone:WHOLEBUILDING-MOTION PICTURE THEATRE ZN,hourly; !- [J]
Output:Meter,InteriorEquipment:Electricity:Zone:WHOLEBUILDING-MULTI-UNIT RESIDENTIAL ZN,hourly; !- [J]
Output:Meter:Cumulative,InteriorEquipment:Electricity:Zone:WHOLEBUILDING-MULTI-UNIT RESIDENTIAL ZN,hourly; !- [J]
Output:Meter,InteriorEquipment:Electricity:Zone:WHOLEBUILDING-MUSEUM ZN,hourly; !- [J]
Output:Meter:Cumulative,InteriorEquipment:Electricity:Zone:WHOLEBUILDING-MUSEUM ZN,hourly; !- [J]
Output:Meter,InteriorEquipment:Electricity:Zone:WHOLEBUILDING-OFFICE ZN,hourly; !- [J]
Output:Meter:Cumulative,InteriorEquipment:Electricity:Zone:WHOLEBUILDING-OFFICE ZN,hourly; !- [J]
Output:Meter,EnergyTransfer:Facility,hourly; !- [J]
Output:Meter:Cumulative,EnergyTransfer:Facility,hourly; !- [J]
Output:Meter,EnergyTransfer:Building,hourly; !- [J]
Output:Meter:Cumulative,EnergyTransfer:Building,hourly; !- [J]
Output:Meter,EnergyTransfer:Zone:WHOLEBUILDING-AUTOMOTIVE FACILITY ZN,hourly; !- [J]
Output:Meter:Cumulative,EnergyTransfer:Zone:WHOLEBUILDING-AUTOMOTIVE FACILITY ZN,hourly; !- [J]
Output:Meter,Heating:EnergyTransfer,hourly; !- [J]
Output:Meter:Cumulative,Heating:EnergyTransfer,hourly; !- [J]
Output:Meter,Heating:EnergyTransfer:Zone:WHOLEBUILDING-AUTOMOTIVE FACILITY ZN,hourly; !- [J]
Output:Meter:Cumulative,Heating:EnergyTransfer:Zone:WHOLEBUILDING-AUTOMOTIVE FACILITY ZN,hourly; !- [J]
Output:Meter,Cooling:EnergyTransfer,hourly; !- [J]
Output:Meter:Cumulative,Cooling:EnergyTransfer,hourly; !- [J]
Output:Meter,Cooling:EnergyTransfer:Zone:WHOLEBUILDING-AUTOMOTIVE FACILITY ZN,hourly; !- [J]
Output:Meter:Cumulative,Cooling:EnergyTransfer:Zone:WHOLEBUILDING-AUTOMOTIVE FACILITY ZN,hourly; !- [J]
Output:Meter,EnergyTransfer:Zone:WHOLEBUILDING-CONVENTION CENTRE ZN,hourly; !- [J]
Output:Meter:Cumulative,EnergyTransfer:Zone:WHOLEBUILDING-CONVENTION CENTRE ZN,hourly; !- [J]
Output:Meter,Heating:EnergyTransfer:Zone:WHOLEBUILDING-CONVENTION CENTRE ZN,hourly; !- [J]
Output:Meter:Cumulative,Heating:EnergyTransfer:Zone:WHOLEBUILDING-CONVENTION CENTRE ZN,hourly; !- [J]
Output:Meter,Cooling:EnergyTransfer:Zone:WHOLEBUILDING-CONVENTION CENTRE ZN,hourly; !- [J]
Output:Meter:Cumulative,Cooling:EnergyTransfer:Zone:WHOLEBUILDING-CONVENTION CENTRE ZN,hourly; !- [J]
Output:Meter,EnergyTransfer:Zone:WHOLEBUILDING-COURTHOUSE ZN,hourly; !- [J]
Output:Meter:Cumulative,EnergyTransfer:Zone:WHOLEBUILDING-COURTHOUSE ZN,hourly; !- [J]
Output:Meter,Heating:EnergyTransfer:Zone:WHOLEBUILDING-COURTHOUSE ZN,hourly; !- [J]
Output:Meter:Cumulative,Heating:EnergyTransfer:Zone:WHOLEBUILDING-COURTHOUSE ZN,hourly; !- [J]
Output:Meter,Cooling:EnergyTransfer:Zone:WHOLEBUILDING-COURTHOUSE ZN,hourly; !- [J]
Output:Meter:Cumulative,Cooling:EnergyTransfer:Zone:WHOLEBUILDING-COURTHOUSE ZN,hourly; !- [J]
Output:Meter,EnergyTransfer:Zone:WHOLEBUILDING-DINING - BAR/LOUNGE ZN,hourly; !- [J]
Output:Meter:Cumulative,EnergyTransfer:Zone:WHOLEBUILDING-DINING - BAR/LOUNGE ZN,hourly; !- [J]
Output:Meter,Heating:EnergyTransfer:Zone:WHOLEBUILDING-DINING - BAR/LOUNGE ZN,hourly; !- [J]
Output:Meter:Cumulative,Heating:EnergyTransfer:Zone:WHOLEBUILDING-DINING - BAR/LOUNGE ZN,hourly; !- [J]
Output:Meter,Cooling:EnergyTransfer:Zone:WHOLEBUILDING-DINING - BAR/LOUNGE ZN,hourly; !- [J]
Output:Meter:Cumulative,Cooling:EnergyTransfer:Zone:WHOLEBUILDING-DINING - BAR/LOUNGE ZN,hourly; !- [J]
Output:Meter,EnergyTransfer:Zone:WHOLEBUILDING-DINING - CAFETERIA ZN,hourly; !- [J]
Output:Meter:Cumulative,EnergyTransfer:Zone:WHOLEBUILDING-DINING - CAFETERIA ZN,hourly; !- [J]
Output:Meter,Heating:EnergyTransfer:Zone:WHOLEBUILDING-DINING - CAFETERIA ZN,hourly; !- [J]
Output:Meter:Cumulative,Heating:EnergyTransfer:Zone:WHOLEBUILDING-DINING - CAFETERIA ZN,hourly; !- [J]
Output:Meter,Cooling:EnergyTransfer:Zone:WHOLEBUILDING-DINING - CAFETERIA ZN,hourly; !- [J]
Output:Meter:Cumulative,Cooling:EnergyTransfer:Zone:WHOLEBUILDING-DINING - CAFETERIA ZN,hourly; !- [J]
Output:Meter,EnergyTransfer:Zone:WHOLEBUILDING-DINING - FAMILY ZN,hourly; !- [J]
Output:Meter:Cumulative,EnergyTransfer:Zone:WHOLEBUILDING-DINING - FAMILY ZN,hourly; !- [J]
Output:Meter,Heating:EnergyTransfer:Zone:WHOLEBUILDING-DINING - FAMILY ZN,hourly; !- [J]
Output:Meter:Cumulative,Heating:EnergyTransfer:Zone:WHOLEBUILDING-DINING - FAMILY ZN,hourly; !- [J]
Output:Meter,Cooling:EnergyTransfer:Zone:WHOLEBUILDING-DINING - FAMILY ZN,hourly; !- [J]
Output:Meter:Cumulative,Cooling:EnergyTransfer:Zone:WHOLEBUILDING-DINING - FAMILY ZN,hourly; !- [J]
Output:Meter,EnergyTransfer:Zone:WHOLEBUILDING-DORMITORY ZN,hourly; !- [J]
Output:Meter:Cumulative,EnergyTransfer:Zone:WHOLEBUILDING-DORMITORY ZN,hourly; !- [J]
Output:Meter,Heating:EnergyTransfer:Zone:WHOLEBUILDING-DORMITORY ZN,hourly; !- [J]
Output:Meter:Cumulative,Heating:EnergyTransfer:Zone:WHOLEBUILDING-DORMITORY ZN,hourly; !- [J]
Output:Meter,Cooling:EnergyTransfer:Zone:WHOLEBUILDING-DORMITORY ZN,hourly; !- [J]
Output:Meter:Cumulative,Cooling:EnergyTransfer:Zone:WHOLEBUILDING-DORMITORY ZN,hourly; !- [J]
Output:Meter,EnergyTransfer:Zone:WHOLEBUILDING-EXERCISE CENTRE ZN,hourly; !- [J]
Output:Meter:Cumulative,EnergyTransfer:Zone:WHOLEBUILDING-EXERCISE CENTRE ZN,hourly; !- [J]
Output:Meter,Heating:EnergyTransfer:Zone:WHOLEBUILDING-EXERCISE CENTRE ZN,hourly; !- [J]
Output:Meter:Cumulative,Heating:EnergyTransfer:Zone:WHOLEBUILDING-EXERCISE CENTRE ZN,hourly; !- [J]
Output:Meter,Cooling:EnergyTransfer:Zone:WHOLEBUILDING-EXERCISE CENTRE ZN,hourly; !- [J]
Output:Meter:Cumulative,Cooling:EnergyTransfer:Zone:WHOLEBUILDING-EXERCISE CENTRE ZN,hourly; !- [J]
Output:Meter,EnergyTransfer:Zone:WHOLEBUILDING-FIRE STATION ZN,hourly; !- [J]
Output:Meter:Cumulative,EnergyTransfer:Zone:WHOLEBUILDING-FIRE STATION ZN,hourly; !- [J]
Output:Meter,Heating:EnergyTransfer:Zone:WHOLEBUILDING-FIRE STATION ZN,hourly; !- [J]
Output:Meter:Cumulative,Heating:EnergyTransfer:Zone:WHOLEBUILDING-FIRE STATION ZN,hourly; !- [J]
Output:Meter,Cooling:EnergyTransfer:Zone:WHOLEBUILDING-FIRE STATION ZN,hourly; !- [J]
Output:Meter:Cumulative,Cooling:EnergyTransfer:Zone:WHOLEBUILDING-FIRE STATION ZN,hourly; !- [J]
Output:Meter,EnergyTransfer:Zone:WHOLEBUILDING-GYMNASIUM ZN,hourly; !- [J]
Output:Meter:Cumulative,EnergyTransfer:Zone:WHOLEBUILDING-GYMNASIUM ZN,hourly; !- [J]
Output:Meter,Heating:EnergyTransfer:Zone:WHOLEBUILDING-GYMNASIUM ZN,hourly; !- [J]
Output:Meter:Cumulative,Heating:EnergyTransfer:Zone:WHOLEBUILDING-GYMNASIUM ZN,hourly; !- [J]
Output:Meter,Cooling:EnergyTransfer:Zone:WHOLEBUILDING-GYMNASIUM ZN,hourly; !- [J]
Output:Meter:Cumulative,Cooling:EnergyTransfer:Zone:WHOLEBUILDING-GYMNASIUM ZN,hourly; !- [J]
Output:Meter,EnergyTransfer:Zone:WHOLEBUILDING-HEALTH-CARE CLINIC ZN,hourly; !- [J]
Output:Meter:Cumulative,EnergyTransfer:Zone:WHOLEBUILDING-HEALTH-CARE CLINIC ZN,hourly; !- [J]
Output:Meter,Heating:EnergyTransfer:Zone:WHOLEBUILDING-HEALTH-CARE CLINIC ZN,hourly; !- [J]
Output:Meter:Cumulative,Heating:EnergyTransfer:Zone:WHOLEBUILDING-HEALTH-CARE CLINIC ZN,hourly; !- [J]
Output:Meter,Cooling:EnergyTransfer:Zone:WHOLEBUILDING-HEALTH-CARE CLINIC ZN,hourly; !- [J]
Output:Meter:Cumulative,Cooling:EnergyTransfer:Zone:WHOLEBUILDING-HEALTH-CARE CLINIC ZN,hourly; !- [J]
Output:Meter,EnergyTransfer:Zone:WHOLEBUILDING-HOSPITAL ZN,hourly; !- [J]
Output:Meter:Cumulative,EnergyTransfer:Zone:WHOLEBUILDING-HOSPITAL ZN,hourly; !- [J]
Output:Meter,Heating:EnergyTransfer:Zone:WHOLEBUILDING-HOSPITAL ZN,hourly; !- [J]
Output:Meter:Cumulative,Heating:EnergyTransfer:Zone:WHOLEBUILDING-HOSPITAL ZN,hourly; !- [J]
Output:Meter,Cooling:EnergyTransfer:Zone:WHOLEBUILDING-HOSPITAL ZN,hourly; !- [J]
Output:Meter:Cumulative,Cooling:EnergyTransfer:Zone:WHOLEBUILDING-HOSPITAL ZN,hourly; !- [J]
Output:Meter,EnergyTransfer:Zone:WHOLEBUILDING-HOTEL ZN,hourly; !- [J]
Output:Meter:Cumulative,EnergyTransfer:Zone:WHOLEBUILDING-HOTEL ZN,hourly; !- [J]
Output:Meter,Heating:EnergyTransfer:Zone:WHOLEBUILDING-HOTEL ZN,hourly; !- [J]
Output:Meter:Cumulative,Heating:EnergyTransfer:Zone:WHOLEBUILDING-HOTEL ZN,hourly; !- [J]
Output:Meter,Cooling:EnergyTransfer:Zone:WHOLEBUILDING-HOTEL ZN,hourly; !- [J]
Output:Meter:Cumulative,Cooling:EnergyTransfer:Zone:WHOLEBUILDING-HOTEL ZN,hourly; !- [J]
Output:Meter,EnergyTransfer:Zone:WHOLEBUILDING-LIBRARY ZN,hourly; !- [J]
Output:Meter:Cumulative,EnergyTransfer:Zone:WHOLEBUILDING-LIBRARY ZN,hourly; !- [J]
Output:Meter,Heating:EnergyTransfer:Zone:WHOLEBUILDING-LIBRARY ZN,hourly; !- [J]
Output:Meter:Cumulative,Heating:EnergyTransfer:Zone:WHOLEBUILDING-LIBRARY ZN,hourly; !- [J]
Output:Meter,Cooling:EnergyTransfer:Zone:WHOLEBUILDING-LIBRARY ZN,hourly; !- [J]
Output:Meter:Cumulative,Cooling:EnergyTransfer:Zone:WHOLEBUILDING-LIBRARY ZN,hourly; !- [J]
Output:Meter,EnergyTransfer:Zone:WHOLEBUILDING-MANUFACTURING FACILITY ZN,hourly; !- [J]
Output:Meter:Cumulative,EnergyTransfer:Zone:WHOLEBUILDING-MANUFACTURING FACILITY ZN,hourly; !- [J]
Output:Meter,Heating:EnergyTransfer:Zone:WHOLEBUILDING-MANUFACTURING FACILITY ZN,hourly; !- [J]
Output:Meter:Cumulative,Heating:EnergyTransfer:Zone:WHOLEBUILDING-MANUFACTURING FACILITY ZN,hourly; !- [J]
Output:Meter,Cooling:EnergyTransfer:Zone:WHOLEBUILDING-MANUFACTURING FACILITY ZN,hourly; !- [J]
Output:Meter:Cumulative,Cooling:EnergyTransfer:Zone:WHOLEBUILDING-MANUFACTURING FACILITY ZN,hourly; !- [J]
Output:Meter,EnergyTransfer:Zone:WHOLEBUILDING-MOTEL ZN,hourly; !- [J]
Output:Meter:Cumulative,EnergyTransfer:Zone:WHOLEBUILDING-MOTEL ZN,hourly; !- [J]
Output:Meter,Heating:EnergyTransfer:Zone:WHOLEBUILDING-MOTEL ZN,hourly; !- [J]
Output:Meter:Cumulative,Heating:EnergyTransfer:Zone:WHOLEBUILDING-MOTEL ZN,hourly; !- [J]
Output:Meter,Cooling:EnergyTransfer:Zone:WHOLEBUILDING-MOTEL ZN,hourly; !- [J]
Output:Meter:Cumulative,Cooling:EnergyTransfer:Zone:WHOLEBUILDING-MOTEL ZN,hourly; !- [J]
Output:Meter,EnergyTransfer:Zone:WHOLEBUILDING-MOTION PICTURE THEATRE ZN,hourly; !- [J]
Output:Meter:Cumulative,EnergyTransfer:Zone:WHOLEBUILDING-MOTION PICTURE THEATRE ZN,hourly; !- [J]
Output:Meter,Heating:EnergyTransfer:Zone:WHOLEBUILDING-MOTION PICTURE THEATRE ZN,hourly; !- [J]
Output:Meter:Cumulative,Heating:EnergyTransfer:Zone:WHOLEBUILDING-MOTION PICTURE THEATRE ZN,hourly; !- [J]
Output:Meter,Cooling:EnergyTransfer:Zone:WHOLEBUILDING-MOTION PICTURE THEATRE ZN,hourly; !- [J]
Output:Meter:Cumulative,Cooling:EnergyTransfer:Zone:WHOLEBUILDING-MOTION PICTURE THEATRE ZN,hourly; !- [J]
Output:Meter,EnergyTransfer:Zone:WHOLEBUILDING-MULTI-UNIT RESIDENTIAL ZN,hourly; !- [J]
Output:Meter:Cumulative,EnergyTransfer:Zone:WHOLEBUILDING-MULTI-UNIT RESIDENTIAL ZN,hourly; !- [J]
Output:Meter,Heating:EnergyTransfer:Zone:WHOLEBUILDING-MULTI-UNIT RESIDENTIAL ZN,hourly; !- [J]
Output:Meter:Cumulative,Heating:EnergyTransfer:Zone:WHOLEBUILDING-MULTI-UNIT RESIDENTIAL ZN,hourly; !- [J]
Output:Meter,Cooling:EnergyTransfer:Zone:WHOLEBUILDING-MULTI-UNIT RESIDENTIAL ZN,hourly; !- [J]
Output:Meter:Cumulative,Cooling:EnergyTransfer:Zone:WHOLEBUILDING-MULTI-UNIT RESIDENTIAL ZN,hourly; !- [J]
Output:Meter,EnergyTransfer:Zone:WHOLEBUILDING-MUSEUM ZN,hourly; !- [J]
Output:Meter:Cumulative,EnergyTransfer:Zone:WHOLEBUILDING-MUSEUM ZN,hourly; !- [J]
Output:Meter,Heating:EnergyTransfer:Zone:WHOLEBUILDING-MUSEUM ZN,hourly; !- [J]
Output:Meter:Cumulative,Heating:EnergyTransfer:Zone:WHOLEBUILDING-MUSEUM ZN,hourly; !- [J]
Output:Meter,Cooling:EnergyTransfer:Zone:WHOLEBUILDING-MUSEUM ZN,hourly; !- [J]
Output:Meter:Cumulative,Cooling:EnergyTransfer:Zone:WHOLEBUILDING-MUSEUM ZN,hourly; !- [J]
Output:Meter,EnergyTransfer:Zone:WHOLEBUILDING-OFFICE ZN,hourly; !- [J]
Output:Meter:Cumulative,EnergyTransfer:Zone:WHOLEBUILDING-OFFICE ZN,hourly; !- [J]
Output:Meter,Heating:EnergyTransfer:Zone:WHOLEBUILDING-OFFICE ZN,hourly; !- [J]
Output:Meter:Cumulative,Heating:EnergyTransfer:Zone:WHOLEBUILDING-OFFICE ZN,hourly; !- [J]
Output:Meter,Cooling:EnergyTransfer:Zone:WHOLEBUILDING-OFFICE ZN,hourly; !- [J]
Output:Meter:Cumulative,Cooling:EnergyTransfer:Zone:WHOLEBUILDING-OFFICE ZN,hourly; !- [J]
Output:Meter,ElectricityPurchased:Facility,hourly; !- [J]
Output:Meter:Cumulative,ElectricityPurchased:Facility,hourly; !- [J]
Output:Meter,ElectricityPurchased:Plant,hourly; !- [J]
Output:Meter:Cumulative,ElectricityPurchased:Plant,hourly; !- [J]
Output:Meter,Cogeneration:ElectricityPurchased,hourly; !- [J]
Output:Meter:Cumulative,Cogeneration:ElectricityPurchased,hourly; !- [J]
Output:Meter,ElectricitySurplusSold:Facility,hourly; !- [J]
Output:Meter:Cumulative,ElectricitySurplusSold:Facility,hourly; !- [J]
Output:Meter,ElectricitySurplusSold:Plant,hourly; !- [J]
Output:Meter:Cumulative,ElectricitySurplusSold:Plant,hourly; !- [J]
Output:Meter,Cogeneration:ElectricitySurplusSold,hourly; !- [J]
Output:Meter:Cumulative,Cogeneration:ElectricitySurplusSold,hourly; !- [J]
Output:Meter,ElectricityNet:Facility,hourly; !- [J]
Output:Meter:Cumulative,ElectricityNet:Facility,hourly; !- [J]
Output:Meter,ElectricityNet:Plant,hourly; !- [J]
Output:Meter:Cumulative,ElectricityNet:Plant,hourly; !- [J]
Output:Meter,Cogeneration:ElectricityNet,hourly; !- [J]
Output:Meter:Cumulative,Cogeneration:ElectricityNet,hourly; !- [J]
Output:Meter,DistrictHeating:Facility,hourly; !- [J]
Output:Meter:Cumulative,DistrictHeating:Facility,hourly; !- [J]
Output:Meter,DistrictHeating:HVAC,hourly; !- [J]
Output:Meter:Cumulative,DistrictHeating:HVAC,hourly; !- [J]
Output:Meter,Heating:DistrictHeating,hourly; !- [J]
Output:Meter:Cumulative,Heating:DistrictHeating,hourly; !- [J]
Output:Meter,DistrictCooling:Facility,hourly; !- [J]
Output:Meter:Cumulative,DistrictCooling:Facility,hourly; !- [J]
Output:Meter,DistrictCooling:HVAC,hourly; !- [J]
Output:Meter:Cumulative,DistrictCooling:HVAC,hourly; !- [J]
Output:Meter,Cooling:DistrictCooling,hourly; !- [J]
Output:Meter:Cumulative,Cooling:DistrictCooling,hourly; !- [J]
Output:Meter,Carbon Equivalent:Facility,hourly; !- [kg]
Output:Meter:Cumulative,Carbon Equivalent:Facility,hourly; !- [kg]
Output:Meter,CarbonEquivalentEmissions:Carbon Equivalent,hourly; !- [kg]
Output:Meter:Cumulative,CarbonEquivalentEmissions:Carbon Equivalent,hourly; !- [kg]
