Program Version,EnergyPlus, Version 8.9.0-eba93e8e1b, YMD=2019.03.28 13:11
! This file shows details about the branches, nodes, and other
! elements of the flow connections.
! This file is intended for use in "debugging" potential problems
! that may also be detected by the program, but may be more easily
! identified by "eye".
! This file is also intended to support software which draws a
! schematic diagram of the HVAC system.
! ===============================================================
! #Nodes,<Number of Unique Nodes>
 #Nodes,446
! <Node>,<NodeNumber>,<Node Name>,<Node Fluid Type>,<# Times Node Referenced After Definition>
 Node,1,NODE 84,Air,4
 Node,2,NODE 97,Air,4
 Node,3,NODE 110,Air,4
 Node,4,NODE 123,Air,4
 Node,5,NODE 136,Air,4
 Node,6,NODE 149,Air,4
 Node,7,NODE 240,Air,4
 Node,8,NODE 253,Air,4
 Node,9,NODE 162,Air,4
 Node,10,NODE 320,Air,4
 Node,11,NODE 293,Air,4
 Node,12,NODE 311,Air,4
 Node,13,NODE 175,Air,4
 Node,14,NODE 188,Air,4
 Node,15,NODE 201,Air,4
 Node,16,NODE 214,Air,4
 Node,17,NODE 227,Air,4
 Node,18,NODE 27,Air,4
 Node,19,NODE 59,Air,3
 Node,20,NODE 45,Air,3
 Node,21,NODE 57,Air,3
 Node,22,NODE 76,Air,3
 Node,23,NODE 67,Air,3
 Node,24,NODE 75,Air,3
 Node,25,NODE 41,Air,10
 Node,26,NODE 42,Air,3
 Node,27,NODE 64,Air,10
 Node,28,NODE 65,Air,3
 Node,29,NODE 81,Air,10
 Node,30,NODE 82,Air,3
 Node,31,NODE 94,Air,10
 Node,32,NODE 95,Air,3
 Node,33,NODE 107,Air,10
 Node,34,NODE 108,Air,3
 Node,35,NODE 120,Air,10
 Node,36,NODE 121,Air,3
 Node,37,NODE 133,Air,10
 Node,38,NODE 134,Air,3
 Node,39,NODE 146,Air,10
 Node,40,NODE 147,Air,3
 Node,41,NODE 159,Air,10
 Node,42,NODE 160,Air,3
 Node,43,NODE 172,Air,10
 Node,44,NODE 173,Air,3
 Node,45,NODE 185,Air,10
 Node,46,NODE 186,Air,3
 Node,47,NODE 198,Air,10
 Node,48,NODE 199,Air,3
 Node,49,NODE 211,Air,10
 Node,50,NODE 212,Air,3
 Node,51,NODE 224,Air,10
 Node,52,NODE 225,Air,3
 Node,53,NODE 23,Air,10
 Node,54,NODE 24,Air,3
 Node,55,NODE 237,Air,10
 Node,56,NODE 238,Air,3
 Node,57,NODE 250,Air,10
 Node,58,NODE 251,Air,3
 Node,59,NODE 290,Air,12
 Node,60,NODE 291,Air,3
 Node,61,NODE 317,Air,12
 Node,62,NODE 318,Air,3
 Node,63,NODE 39,Air,3
 Node,64,NODE 56,Air,6
 Node,65,NODE 54,Air,6
 Node,66,NODE 53,Air,8
 Node,67,NODE 63,Air,3
 Node,68,NODE 74,Air,6
 Node,69,NODE 73,Air,6
 Node,70,NODE 72,Air,8
 Node,71,NODE 80,Air,3
 Node,72,NODE 89,Air,6
 Node,73,NODE 88,Air,6
 Node,74,NODE 87,Air,8
 Node,75,NODE 93,Air,4
 Node,76,NODE 102,Air,8
 Node,77,NODE 101,Air,6
 Node,78,NODE 100,Air,8
 Node,79,NODE 106,Air,4
 Node,80,NODE 115,Air,8
 Node,81,NODE 114,Air,6
 Node,82,NODE 113,Air,8
 Node,83,NODE 119,Air,4
 Node,84,NODE 128,Air,8
 Node,85,NODE 127,Air,6
 Node,86,NODE 126,Air,8
 Node,87,NODE 132,Air,4
 Node,88,NODE 141,Air,8
 Node,89,NODE 140,Air,6
 Node,90,NODE 139,Air,8
 Node,91,NODE 145,Air,4
 Node,92,NODE 154,Air,8
 Node,93,NODE 153,Air,6
 Node,94,NODE 152,Air,8
 Node,95,NODE 158,Air,4
 Node,96,NODE 167,Air,8
 Node,97,NODE 166,Air,6
 Node,98,NODE 165,Air,8
 Node,99,NODE 171,Air,4
 Node,100,NODE 180,Air,8
 Node,101,NODE 179,Air,6
 Node,102,NODE 178,Air,8
 Node,103,NODE 184,Air,4
 Node,104,NODE 193,Air,8
 Node,105,NODE 192,Air,6
 Node,106,NODE 191,Air,8
 Node,107,NODE 197,Air,4
 Node,108,NODE 206,Air,8
 Node,109,NODE 205,Air,6
 Node,110,NODE 204,Air,8
 Node,111,NODE 210,Air,4
 Node,112,NODE 219,Air,8
 Node,113,NODE 218,Air,6
 Node,114,NODE 217,Air,8
 Node,115,NODE 223,Air,4
 Node,116,NODE 232,Air,8
 Node,117,NODE 231,Air,6
 Node,118,NODE 230,Air,8
 Node,119,NODE 21,Air,3
 Node,120,NODE 35,Air,6
 Node,121,NODE 33,Air,6
 Node,122,NODE 32,Air,8
 Node,123,NODE 236,Air,4
 Node,124,NODE 245,Air,8
 Node,125,NODE 244,Air,6
 Node,126,NODE 243,Air,8
 Node,127,NODE 249,Air,4
 Node,128,NODE 258,Air,8
 Node,129,NODE 257,Air,6
 Node,130,NODE 256,Air,8
 Node,131,NODE 289,Air,2
 Node,132,NODE 302,Air,6
 Node,133,NODE 301,Air,7
 Node,134,NODE 300,Air,5
 Node,135,NODE 299,Air,9
 Node,136,NODE 316,Air,2
 Node,137,NODE 330,Air,6
 Node,138,NODE 329,Air,7
 Node,139,NODE 328,Air,5
 Node,140,NODE 327,Air,9
 Node,141,NODE 262,Water,2
 Node,142,NODE 268,Water,1
 Node,143,NODE 264,Water,1
 Node,144,NODE 269,Water,1
 Node,145,NODE 270,Water,1
 Node,146,NODE 271,Water,1
 Node,147,NODE 272,Water,1
 Node,148,NODE 273,Water,1
 Node,149,NODE 274,Water,1
 Node,150,NODE 263,Water,4
 Node,151,NODE 265,Water,2
 Node,152,CHILLED WATER LOOP DEMAND INLET PIPE NODE,Water,1
 Node,153,NODE 267,Water,2
 Node,154,NODE 296,Water,1
 Node,155,NODE 323,Water,2
 Node,156,NODE 324,Water,1
 Node,157,CHILLED WATER LOOP DEMAND BYPASS PIPE INLET NODE,Water,1
 Node,158,CHILLED WATER LOOP DEMAND BYPASS PIPE OUTLET NODE,Water,1
 Node,159,CHILLED WATER LOOP DEMAND OUTLET PIPE NODE,Water,1
 Node,160,NODE 266,Water,2
 Node,161,NODE 275,Water,2
 Node,162,NODE 281,Water,1
 Node,163,NODE 277,Water,1
 Node,164,NODE 282,Water,1
 Node,165,NODE 283,Water,1
 Node,166,NODE 284,Water,1
 Node,167,NODE 285,Water,1
 Node,168,NODE 276,Water,4
 Node,169,NODE 278,Water,2
 Node,170,CONDENSER WATER LOOP DEMAND INLET PIPE NODE,Water,1
 Node,171,NODE 280,Water,1
 Node,172,NODE 286,Water,1
 Node,173,NODE 287,Water,1
 Node,174,NODE 288,Water,1
 Node,175,CONDENSER WATER LOOP DEMAND BYPASS PIPE INLET NODE,Water,1
 Node,176,CONDENSER WATER LOOP DEMAND BYPASS PIPE OUTLET NODE,Water,1
 Node,177,CONDENSER WATER LOOP DEMAND OUTLET PIPE NODE,Water,1
 Node,178,NODE 279,Water,2
 Node,179,NODE 2,Water,2
 Node,180,NODE 11,Water,1
 Node,181,NODE 5,Water,1
 Node,182,NODE 12,Water,1
 Node,183,NODE 14,Water,1
 Node,184,NODE 15,Water,1
 Node,185,NODE 17,Water,1
 Node,186,NODE 18,Water,1
 Node,187,NODE 20,Water,1
 Node,188,NODE 3,Water,4
 Node,189,NODE 6,Water,2
 Node,190,HOT WATER LOOP DEMAND INLET PIPE NODE,Water,1
 Node,191,NODE 9,Water,1
 Node,192,NODE 38,Water,1
 Node,193,NODE 47,Water,2
 Node,194,NODE 48,Water,1
 Node,195,NODE 60,Water,1
 Node,196,NODE 61,Water,1
 Node,197,NODE 68,Water,2
 Node,198,NODE 69,Water,1
 Node,199,NODE 77,Water,1
 Node,200,NODE 78,Water,1
 Node,201,NODE 91,Water,1
 Node,202,NODE 92,Water,1
 Node,203,NODE 104,Water,1
 Node,204,NODE 105,Water,1
 Node,205,NODE 117,Water,1
 Node,206,NODE 118,Water,1
 Node,207,NODE 130,Water,1
 Node,208,NODE 131,Water,1
 Node,209,NODE 143,Water,1
 Node,210,NODE 144,Water,1
 Node,211,NODE 156,Water,1
 Node,212,NODE 157,Water,1
 Node,213,NODE 169,Water,1
 Node,214,NODE 170,Water,1
 Node,215,NODE 182,Water,1
 Node,216,NODE 183,Water,1
 Node,217,NODE 195,Water,1
 Node,218,NODE 196,Water,1
 Node,219,NODE 208,Water,1
 Node,220,NODE 209,Water,1
 Node,221,NODE 221,Water,1
 Node,222,NODE 222,Water,1
 Node,223,NODE 234,Water,1
 Node,224,NODE 235,Water,1
 Node,225,NODE 247,Water,1
 Node,226,NODE 248,Water,1
 Node,227,NODE 260,Water,1
 Node,228,NODE 261,Water,1
 Node,229,NODE 294,Water,2
 Node,230,NODE 295,Water,1
 Node,231,NODE 303,Water,1
 Node,232,NODE 304,Water,1
 Node,233,NODE 307,Water,1
 Node,234,NODE 308,Water,1
 Node,235,NODE 309,Water,1
 Node,236,NODE 310,Water,1
 Node,237,NODE 314,Water,1
 Node,238,NODE 315,Water,1
 Node,239,NODE 321,Water,2
 Node,240,NODE 322,Water,1
 Node,241,NODE 331,Water,1
 Node,242,NODE 332,Water,1
 Node,243,NODE 335,Water,1
 Node,244,NODE 336,Water,1
 Node,245,HOT WATER LOOP DEMAND BYPASS PIPE INLET NODE,Water,1
 Node,246,HOT WATER LOOP DEMAND BYPASS PIPE OUTLET NODE,Water,1
 Node,247,HOT WATER LOOP DEMAND OUTLET PIPE NODE,Water,1
 Node,248,NODE 8,Water,2
 Node,249,NODE 337,Water,2
 Node,250,NODE 343,Water,1
 Node,251,NODE 339,Water,1
 Node,252,NODE 344,Water,1
 Node,253,NODE 345,Water,1
 Node,254,NODE 346,Water,1
 Node,255,NODE 348,Water,1
 Node,256,NODE 338,Water,4
 Node,257,NODE 340,Water,2
 Node,258,NODE 349,Water,1
 Node,259,NODE 342,Water,1
 Node,260,NODE 347,Water,1
 Node,261,NODE 351,Water,1
 Node,262,NODE 352,Water,1
 Node,263,NODE 353,Water,1
 Node,264,NODE 354,Water,1
 Node,265,NODE 355,Water,1
 Node,266,NODE 356,Water,1
 Node,267,NODE 357,Water,1
 Node,268,NODE 358,Water,1
 Node,269,NODE 359,Water,1
 Node,270,NODE 360,Water,1
 Node,271,NODE 361,Water,1
 Node,272,NODE 362,Water,1
 Node,273,NODE 363,Water,1
 Node,274,NODE 364,Water,1
 Node,275,NODE 365,Water,1
 Node,276,NODE 366,Water,1
 Node,277,NODE 367,Water,1
 Node,278,NODE 368,Water,1
 Node,279,NODE 369,Water,1
 Node,280,NODE 370,Water,1
 Node,281,NODE 371,Water,1
 Node,282,NODE 372,Water,1
 Node,283,NODE 373,Water,1
 Node,284,NODE 374,Water,1
 Node,285,NODE 375,Water,1
 Node,286,NODE 376,Water,1
 Node,287,NODE 377,Water,1
 Node,288,NODE 378,Water,1
 Node,289,NODE 379,Water,1
 Node,290,NODE 380,Water,1
 Node,291,NODE 381,Water,1
 Node,292,NODE 382,Water,1
 Node,293,NODE 383,Water,1
 Node,294,NODE 384,Water,1
 Node,295,NODE 385,Water,1
 Node,296,NODE 386,Water,1
 Node,297,NODE 387,Water,1
 Node,298,NODE 388,Water,1
 Node,299,MAIN SERVICE WATER LOOP DEMAND BYPASS PIPE INLET NODE,Water,1
 Node,300,MAIN SERVICE WATER LOOP DEMAND BYPASS PIPE OUTLET NODE,Water,1
 Node,301,NODE 350,Water,1
 Node,302,NODE 341,Water,2
 Node,303,NODE 10,Air,1
 Node,304,NODE 90,Air,1
 Node,305,NODE 13,Air,1
 Node,306,NODE 103,Air,1
 Node,307,NODE 16,Air,1
 Node,308,NODE 116,Air,1
 Node,309,NODE 19,Air,1
 Node,310,NODE 129,Air,1
 Node,311,NODE 22,Air,1
 Node,312,NODE 142,Air,1
 Node,313,NODE 25,Air,1
 Node,314,NODE 155,Air,1
 Node,315,NODE 28,Air,1
 Node,316,NODE 246,Air,1
 Node,317,NODE 34,Air,1
 Node,318,NODE 259,Air,1
 Node,319,NODE 31,Air,1
 Node,320,NODE 168,Air,1
 Node,321,NODE 37,Air,0
 Node,322,NODE 333,Air,1
 Node,323,NODE 40,Air,0
 Node,324,NODE 305,Air,1
 Node,325,NODE 43,Air,0
 Node,326,NODE 312,Air,1
 Node,327,NODE 46,Air,1
 Node,328,NODE 181,Air,1
 Node,329,NODE 49,Air,1
 Node,330,NODE 194,Air,1
 Node,331,NODE 52,Air,1
 Node,332,NODE 207,Air,1
 Node,333,NODE 55,Air,1
 Node,334,NODE 220,Air,1
 Node,335,NODE 58,Air,1
 Node,336,NODE 233,Air,1
 Node,337,NODE 1,Air,1
 Node,338,NODE 36,Air,1
 Node,339,NODE 4,Air,0
 Node,340,NODE 62,Air,1
 Node,341,NODE 7,Air,0
 Node,342,NODE 79,Air,1
 Node,343,NODE 44,Air,2
 Node,344,NODE 66,Air,2
 Node,345,NODE 83,Air,2
 Node,346,NODE 96,Air,2
 Node,347,NODE 109,Air,2
 Node,348,NODE 122,Air,2
 Node,349,NODE 135,Air,2
 Node,350,NODE 148,Air,2
 Node,351,NODE 161,Air,2
 Node,352,NODE 174,Air,2
 Node,353,NODE 187,Air,2
 Node,354,NODE 200,Air,2
 Node,355,NODE 213,Air,2
 Node,356,NODE 226,Air,2
 Node,357,NODE 26,Air,2
 Node,358,NODE 239,Air,2
 Node,359,NODE 252,Air,2
 Node,360,NODE 292,Air,2
 Node,361,NODE 319,Air,2
 Node,362,DU_BT=SPACE FUNCTION_ST=DWELLING UNIT(S)_FL=STORY 2_SCHG PTAC OA NODE,Air,1
 Node,363,DU_BT=SPACE FUNCTION_ST=FIRE STATION - QUARTERS_FL=STORY 4_SCHG PTAC OA NODE,Air,1
 Node,364,NODE 50,Air,2
 Node,365,NODE 70,Air,2
 Node,366,NODE 85,Air,2
 Node,367,NODE 98,Air,3
 Node,368,NODE 111,Air,3
 Node,369,NODE 124,Air,3
 Node,370,NODE 137,Air,3
 Node,371,NODE 150,Air,3
 Node,372,NODE 163,Air,3
 Node,373,NODE 176,Air,3
 Node,374,NODE 189,Air,3
 Node,375,NODE 202,Air,3
 Node,376,NODE 215,Air,3
 Node,377,NODE 228,Air,3
 Node,378,NODE 29,Air,2
 Node,379,NODE 241,Air,3
 Node,380,NODE 254,Air,3
 Node,381,NODE 297,Air,3
 Node,382,NODE 325,Air,3
 Node,383,MODEL OUTDOOR AIR NODE,Air,0
 Node,384,NODE 390,Air,2
 Node,385,NODE 392,Air,2
 Node,386,NODE 394,Air,2
 Node,387,NODE 396,Air,2
 Node,388,NODE 398,Air,2
 Node,389,NODE 400,Air,2
 Node,390,NODE 402,Air,2
 Node,391,NODE 404,Air,2
 Node,392,NODE 406,Air,2
 Node,393,NODE 408,Air,2
 Node,394,NODE 410,Air,2
 Node,395,NODE 412,Air,2
 Node,396,NODE 414,Air,2
 Node,397,NODE 416,Air,2
 Node,398,NODE 418,Air,2
 Node,399,NODE 306,Air,1
 Node,400,NODE 313,Air,1
 Node,401,NODE 334,Air,1
 Node,402,AIR TERMINAL SINGLE DUCT VAV REHEAT 3 DAMPER OUTLET,Air,1
 Node,403,AIR TERMINAL SINGLE DUCT VAV REHEAT 1 DAMPER OUTLET,Air,1
 Node,404,AIR TERMINAL SINGLE DUCT VAV REHEAT 2 DAMPER OUTLET,Air,1
 Node,405,DU_BT=SPACE FUNCTION_ST=DWELLING UNIT(S)_FL=STORY 2_SCHG PTAC MIXED AIR NODE,Air,1
 Node,406,DU_BT=SPACE FUNCTION_ST=DWELLING UNIT(S)_FL=STORY 2_SCHG PTAC RELIEF AIR NODE,Air,0
 Node,407,DU_BT=SPACE FUNCTION_ST=FIRE STATION - QUARTERS_FL=STORY 4_SCHG PTAC MIXED AIR NODE,Air,1
 Node,408,DU_BT=SPACE FUNCTION_ST=FIRE STATION - QUARTERS_FL=STORY 4_SCHG PTAC RELIEF AIR NODE,Air,0
 Node,409,NODE 51,Air,1
 Node,410,NODE 71,Air,1
 Node,411,NODE 86,Air,1
 Node,412,NODE 391,Air,2
 Node,413,NODE 393,Air,2
 Node,414,NODE 395,Air,2
 Node,415,NODE 397,Air,2
 Node,416,NODE 399,Air,2
 Node,417,NODE 401,Air,2
 Node,418,NODE 403,Air,2
 Node,419,NODE 405,Air,2
 Node,420,NODE 407,Air,2
 Node,421,NODE 409,Air,2
 Node,422,NODE 411,Air,2
 Node,423,NODE 30,Air,1
 Node,424,NODE 413,Air,2
 Node,425,NODE 415,Air,2
 Node,426,NODE 417,Air,2
 Node,427,NODE 419,Air,2
 Node,428,DU_BT=SPACE FUNCTION_ST=DWELLING UNIT(S)_FL=STORY 2_SCHG PTAC HEATING COIL OUTLET NODE,Air,1
 Node,429,DU_BT=SPACE FUNCTION_ST=FIRE STATION - QUARTERS_FL=STORY 4_SCHG PTAC HEATING COIL OUTLET NODE,Air,1
 Node,430,DU_BT=SPACE FUNCTION_ST=DWELLING UNIT(S)_FL=STORY 2_SCHG PTAC COOLING COIL OUTLET NODE,Air,1
 Node,431,DU_BT=SPACE FUNCTION_ST=FIRE STATION - QUARTERS_FL=STORY 4_SCHG PTAC COOLING COIL OUTLET NODE,Air,1
 Node,432,NODE 99,Air,0
 Node,433,NODE 112,Air,0
 Node,434,NODE 125,Air,0
 Node,435,NODE 138,Air,0
 Node,436,NODE 151,Air,0
 Node,437,NODE 164,Air,0
 Node,438,NODE 177,Air,0
 Node,439,NODE 190,Air,0
 Node,440,NODE 203,Air,0
 Node,441,NODE 216,Air,0
 Node,442,NODE 229,Air,0
 Node,443,NODE 242,Air,0
 Node,444,NODE 255,Air,0
 Node,445,NODE 298,Air,0
 Node,446,NODE 326,Air,0
! ===============================================================
! Suspicious nodes have 0 references.  It is normal for some nodes, however.
! Listing nodes with 0 references (culled from previous list):
! <Suspicious Node>,<NodeNumber>,<Node Name>,<Node Fluid Type>,<# Times Node Referenced After Definition>
 Suspicious Node,321,NODE 37,Air,0
 Suspicious Node,323,NODE 40,Air,0
 Suspicious Node,325,NODE 43,Air,0
 Suspicious Node,339,NODE 4,Air,0
 Suspicious Node,341,NODE 7,Air,0
 Suspicious Node,383,MODEL OUTDOOR AIR NODE,Air,0
 Suspicious Node,406,DU_BT=SPACE FUNCTION_ST=DWELLING UNIT(S)_FL=STORY 2_SCHG PTAC RELIEF AIR NODE,Air,0
 Suspicious Node,408,DU_BT=SPACE FUNCTION_ST=FIRE STATION - QUARTERS_FL=STORY 4_SCHG PTAC RELIEF AIR NODE,Air,0
 Suspicious Node,432,NODE 99,Air,0
 Suspicious Node,433,NODE 112,Air,0
 Suspicious Node,434,NODE 125,Air,0
 Suspicious Node,435,NODE 138,Air,0
 Suspicious Node,436,NODE 151,Air,0
 Suspicious Node,437,NODE 164,Air,0
 Suspicious Node,438,NODE 177,Air,0
 Suspicious Node,439,NODE 190,Air,0
 Suspicious Node,440,NODE 203,Air,0
 Suspicious Node,441,NODE 216,Air,0
 Suspicious Node,442,NODE 229,Air,0
 Suspicious Node,443,NODE 242,Air,0
 Suspicious Node,444,NODE 255,Air,0
 Suspicious Node,445,NODE 298,Air,0
 Suspicious Node,446,NODE 326,Air,0
! ===============================================================
! <#Branch Lists>,<Number of Branch Lists>
 #Branch Lists,27
! <Branch List>,<Branch List Count>,<Branch List Name>,<Loop Name>,<Loop Type>,<Number of Branches>
! <Branch>,<Branch Count>,<Branch Name>,<Loop Name>,<Loop Type>,<Branch Inlet Node Name>,<Branch Outlet Node Name>
 Branch List,1,SYS_1_MAKE-UP AIR UNIT SUPPLY BRANCHES,SYS_1_MAKE-UP AIR UNIT,Air,1
   Branch,1,SYS_1_MAKE-UP AIR UNIT MAIN BRANCH,SYS_1_MAKE-UP AIR UNIT,Air,NODE 39,NODE 41
 Branch List,2,SYS_1_MAKE-UP AIR UNIT 1 SUPPLY BRANCHES,SYS_1_MAKE-UP AIR UNIT 1,Air,1
   Branch,1,SYS_1_MAKE-UP AIR UNIT 1 MAIN BRANCH,SYS_1_MAKE-UP AIR UNIT 1,Air,NODE 63,NODE 64
 Branch List,3,SYS_3_PSZ ALL_ST=COURTHOUSE - CHAMBERS_FL=STORY 4_SCH=A SUPPLY BRANCHES,SYS_3_PSZ ALL_ST=COURTHOUSE - CHAMBERS_FL=STORY 4_SCH=A,Air,1
   Branch,1,SYS_3_PSZ ALL_ST=COURTHOUSE - CHAMBERS_FL=STORY 4_SCH=A MAIN BRANCH,SYS_3_PSZ ALL_ST=COURTHOUSE - CHAMBERS_FL=STORY 4_SCH=A,Air,NODE 80,NODE 81
 Branch List,4,SYS_3_PSZ ALL_ST=COURTHOUSE - COURTROOM_FL=STORY 3_SCH=A SUPPLY BRANCHES,SYS_3_PSZ ALL_ST=COURTHOUSE - COURTROOM_FL=STORY 3_SCH=A,Air,1
   Branch,1,SYS_3_PSZ ALL_ST=COURTHOUSE - COURTROOM_FL=STORY 3_SCH=A MAIN BRANCH,SYS_3_PSZ ALL_ST=COURTHOUSE - COURTROOM_FL=STORY 3_SCH=A,Air,NODE 93,NODE 94
 Branch List,5,SYS_3_PSZ ALL_ST=DINING - BAR LOUNGE/LEISURE_FL=STORY 3_SCH=B SUPPLY BRANCHES,SYS_3_PSZ ALL_ST=DINING - BAR LOUNGE/LEISURE_FL=STORY 3_SCH=B,Air,1
   Branch,1,SYS_3_PSZ ALL_ST=DINING - BAR LOUNGE/LEISURE_FL=STORY 3_SCH=B MAIN BRANCH,SYS_3_PSZ ALL_ST=DINING - BAR LOUNGE/LEISURE_FL=STORY 3_SCH=B,Air,NODE 106,NODE 107
 Branch List,6,SYS_3_PSZ ALL_ST=DINING - FAMILY SPACE_FL=STORY 3_SCH=B SUPPLY BRANCHES,SYS_3_PSZ ALL_ST=DINING - FAMILY SPACE_FL=STORY 3_SCH=B,Air,1
   Branch,1,SYS_3_PSZ ALL_ST=DINING - FAMILY SPACE_FL=STORY 3_SCH=B MAIN BRANCH,SYS_3_PSZ ALL_ST=DINING - FAMILY SPACE_FL=STORY 3_SCH=B,Air,NODE 119,NODE 120
 Branch List,7,SYS_3_PSZ ALL_ST=DINING - OTHER_FL=STORY 1_SCH=B SUPPLY BRANCHES,SYS_3_PSZ ALL_ST=DINING - OTHER_FL=STORY 1_SCH=B,Air,1
   Branch,1,SYS_3_PSZ ALL_ST=DINING - OTHER_FL=STORY 1_SCH=B MAIN BRANCH,SYS_3_PSZ ALL_ST=DINING - OTHER_FL=STORY 1_SCH=B,Air,NODE 132,NODE 133
 Branch List,8,SYS_3_PSZ ALL_ST=DRESS./FITT. - PERFORMANCE ARTS_FL=STORY 3_SCH=C SUPPLY BRANCHES,SYS_3_PSZ ALL_ST=DRESS./FITT. - PERFORMANCE ARTS_FL=STORY 3_SCH=C,Air,1
   Branch,1,SYS_3_PSZ ALL_ST=DRESS./FITT. - PERFORMANCE ARTS_FL=STORY 3_SCH=C MAIN BRANCH,SYS_3_PSZ ALL_ST=DRESS./FITT. - PERFORMANCE ARTS_FL=STORY 3_SCH=C,Air,NODE 145,NODE 146
 Branch List,9,SYS_3_PSZ ALL_ST=FOOD PREPARATION_FL=STORY 2_SCH=B SUPPLY BRANCHES,SYS_3_PSZ ALL_ST=FOOD PREPARATION_FL=STORY 2_SCH=B,Air,1
   Branch,1,SYS_3_PSZ ALL_ST=FOOD PREPARATION_FL=STORY 2_SCH=B MAIN BRANCH,SYS_3_PSZ ALL_ST=FOOD PREPARATION_FL=STORY 2_SCH=B,Air,NODE 158,NODE 159
 Branch List,10,SYS_3_PSZ ALL_ST=HOSPITAL - EMERGENCY_FL=STORY 2_SCH=H SUPPLY BRANCHES,SYS_3_PSZ ALL_ST=HOSPITAL - EMERGENCY_FL=STORY 2_SCH=H,Air,1
   Branch,1,SYS_3_PSZ ALL_ST=HOSPITAL - EMERGENCY_FL=STORY 2_SCH=H MAIN BRANCH,SYS_3_PSZ ALL_ST=HOSPITAL - EMERGENCY_FL=STORY 2_SCH=H,Air,NODE 171,NODE 172
 Branch List,11,SYS_3_PSZ ALL_ST=HOSPITAL - EXAM_FL=STORY 3_SCH=C SUPPLY BRANCHES,SYS_3_PSZ ALL_ST=HOSPITAL - EXAM_FL=STORY 3_SCH=C,Air,1
   Branch,1,SYS_3_PSZ ALL_ST=HOSPITAL - EXAM_FL=STORY 3_SCH=C MAIN BRANCH,SYS_3_PSZ ALL_ST=HOSPITAL - EXAM_FL=STORY 3_SCH=C,Air,NODE 184,NODE 185
 Branch List,12,SYS_3_PSZ ALL_ST=HOSPITAL - LAUNDRY/WASHING_FL=STORY 1_SCH=C SUPPLY BRANCHES,SYS_3_PSZ ALL_ST=HOSPITAL - LAUNDRY/WASHING_FL=STORY 1_SCH=C,Air,1
   Branch,1,SYS_3_PSZ ALL_ST=HOSPITAL - LAUNDRY/WASHING_FL=STORY 1_SCH=C MAIN BRANCH,SYS_3_PSZ ALL_ST=HOSPITAL - LAUNDRY/WASHING_FL=STORY 1_SCH=C,Air,NODE 197,NODE 198
 Branch List,13,SYS_3_PSZ ALL_ST=HOSPITAL - LOUNGE/RECREATION_FL=STORY 2_SCH=B SUPPLY BRANCHES,SYS_3_PSZ ALL_ST=HOSPITAL - LOUNGE/RECREATION_FL=STORY 2_SCH=B,Air,1
   Branch,1,SYS_3_PSZ ALL_ST=HOSPITAL - LOUNGE/RECREATION_FL=STORY 2_SCH=B MAIN BRANCH,SYS_3_PSZ ALL_ST=HOSPITAL - LOUNGE/RECREATION_FL=STORY 2_SCH=B,Air,NODE 210,NODE 211
 Branch List,14,SYS_3_PSZ ALL_ST=HOSPITAL - MEDICAL SUPPLY_FL=STORY 2_SCH=H SUPPLY BRANCHES,SYS_3_PSZ ALL_ST=HOSPITAL - MEDICAL SUPPLY_FL=STORY 2_SCH=H,Air,1
   Branch,1,SYS_3_PSZ ALL_ST=HOSPITAL - MEDICAL SUPPLY_FL=STORY 2_SCH=H MAIN BRANCH,SYS_3_PSZ ALL_ST=HOSPITAL - MEDICAL SUPPLY_FL=STORY 2_SCH=H,Air,NODE 223,NODE 224
 Branch List,15,SYS_3_PSZ DU_BT=SPACE FUNCTION_ST=DORMITORY - LIVING QUARTERS_FL=STORY 4_SCHG SUPPLY BRANCHES,SYS_3_PSZ DU_BT=SPACE FUNCTION_ST=DORMITORY - LIVING QUARTERS_FL=STORY 4_SCHG,Air,1
   Branch,1,SYS_3_PSZ DU_BT=SPACE FUNCTION_ST=DORMITORY - LIVING QUARTERS_FL=STORY 4_SCHG MAIN BRANCH,SYS_3_PSZ DU_BT=SPACE FUNCTION_ST=DORMITORY - LIVING QUARTERS_FL=STORY 4_SCHG,Air,NODE 21,NODE 23
 Branch List,16,SYS_4_PSZ_ALL_ST=FIRE STATION - ENGINE ROOM_FL=STORY 1_SCH=H SUPPLY BRANCHES,SYS_4_PSZ_ALL_ST=FIRE STATION - ENGINE ROOM_FL=STORY 1_SCH=H,Air,1
   Branch,1,SYS_4_PSZ_ALL_ST=FIRE STATION - ENGINE ROOM_FL=STORY 1_SCH=H MAIN BRANCH,SYS_4_PSZ_ALL_ST=FIRE STATION - ENGINE ROOM_FL=STORY 1_SCH=H,Air,NODE 236,NODE 237
 Branch List,17,SYS_4_PSZ_ALL_ST=FOOD PREPARATION - VENTED_FL=STORY 4_SCH=B SUPPLY BRANCHES,SYS_4_PSZ_ALL_ST=FOOD PREPARATION - VENTED_FL=STORY 4_SCH=B,Air,1
   Branch,1,SYS_4_PSZ_ALL_ST=FOOD PREPARATION - VENTED_FL=STORY 4_SCH=B MAIN BRANCH,SYS_4_PSZ_ALL_ST=FOOD PREPARATION - VENTED_FL=STORY 4_SCH=B,Air,NODE 249,NODE 250
 Branch List,18,SYS_6_VAV WITH REHEAT SUPPLY BRANCHES,SYS_6_VAV WITH REHEAT,Air,1
   Branch,1,SYS_6_VAV WITH REHEAT MAIN BRANCH,SYS_6_VAV WITH REHEAT,Air,NODE 289,NODE 290
 Branch List,19,SYS_6_VAV WITH REHEAT 1 SUPPLY BRANCHES,SYS_6_VAV WITH REHEAT 1,Air,1
   Branch,1,SYS_6_VAV WITH REHEAT 1 MAIN BRANCH,SYS_6_VAV WITH REHEAT 1,Air,NODE 316,NODE 317
 Branch List,20,CHILLED WATER LOOP SUPPLY BRANCHES,CHILLED WATER LOOP,Plant Supply,5
   Branch,1,CHILLED WATER LOOP SUPPLY INLET BRANCH,CHILLED WATER LOOP,Plant Supply,NODE 262,NODE 268
   Branch,2,CHILLED WATER LOOP SUPPLY BRANCH 1,CHILLED WATER LOOP,Plant Supply,NODE 264,NODE 269
   Branch,3,CHILLED WATER LOOP SUPPLY BRANCH 2,CHILLED WATER LOOP,Plant Supply,NODE 270,NODE 271
   Branch,4,CHILLED WATER LOOP SUPPLY BRANCH 3,CHILLED WATER LOOP,Plant Supply,NODE 272,NODE 273
   Branch,5,CHILLED WATER LOOP SUPPLY OUTLET BRANCH,CHILLED WATER LOOP,Plant Supply,NODE 274,NODE 263
 Branch List,21,CHILLED WATER LOOP DEMAND BRANCHES,CHILLED WATER LOOP,Plant Demand,5
   Branch,1,CHILLED WATER LOOP DEMAND INLET BRANCH,CHILLED WATER LOOP,Plant Demand,NODE 265,CHILLED WATER LOOP DEMAND INLET PIPE NODE
   Branch,2,CHILLED WATER LOOP DEMAND BRANCH 1,CHILLED WATER LOOP,Plant Demand,NODE 267,NODE 296
   Branch,3,CHILLED WATER LOOP DEMAND BRANCH 2,CHILLED WATER LOOP,Plant Demand,NODE 323,NODE 324
   Branch,4,CHILLED WATER LOOP DEMAND BYPASS BRANCH,CHILLED WATER LOOP,Plant Demand,CHILLED WATER LOOP DEMAND BYPASS PIPE INLET NODE,CHILLED WATER LOOP DEMAND BYPASS PIPE OUTLET NODE
   Branch,5,CHILLED WATER LOOP DEMAND OUTLET BRANCH,CHILLED WATER LOOP,Plant Demand,CHILLED WATER LOOP DEMAND OUTLET PIPE NODE,NODE 266
 Branch List,22,CONDENSER WATER LOOP SUPPLY BRANCHES,CONDENSER WATER LOOP,Plant Supply,4
   Branch,1,CONDENSER WATER LOOP SUPPLY INLET BRANCH,CONDENSER WATER LOOP,Plant Supply,NODE 275,NODE 281
   Branch,2,CONDENSER WATER LOOP SUPPLY BRANCH 1,CONDENSER WATER LOOP,Plant Supply,NODE 277,NODE 282
   Branch,3,CONDENSER WATER LOOP SUPPLY BRANCH 2,CONDENSER WATER LOOP,Plant Supply,NODE 283,NODE 284
   Branch,4,CONDENSER WATER LOOP SUPPLY OUTLET BRANCH,CONDENSER WATER LOOP,Plant Supply,NODE 285,NODE 276
 Branch List,23,CONDENSER WATER LOOP DEMAND BRANCHES,CONDENSER WATER LOOP,Plant Demand,5
   Branch,1,CONDENSER WATER LOOP DEMAND INLET BRANCH,CONDENSER WATER LOOP,Plant Demand,NODE 278,CONDENSER WATER LOOP DEMAND INLET PIPE NODE
   Branch,2,CONDENSER WATER LOOP DEMAND BRANCH 1,CONDENSER WATER LOOP,Plant Demand,NODE 280,NODE 286
   Branch,3,CONDENSER WATER LOOP DEMAND BRANCH 2,CONDENSER WATER LOOP,Plant Demand,NODE 287,NODE 288
   Branch,4,CONDENSER WATER LOOP DEMAND BYPASS BRANCH,CONDENSER WATER LOOP,Plant Demand,CONDENSER WATER LOOP DEMAND BYPASS PIPE INLET NODE,CONDENSER WATER LOOP DEMAND BYPASS PIPE OUTLET NODE
   Branch,5,CONDENSER WATER LOOP DEMAND OUTLET BRANCH,CONDENSER WATER LOOP,Plant Demand,CONDENSER WATER LOOP DEMAND OUTLET PIPE NODE,NODE 279
 Branch List,24,HOT WATER LOOP SUPPLY BRANCHES,HOT WATER LOOP,Plant Supply,5
   Branch,1,HOT WATER LOOP SUPPLY INLET BRANCH,HOT WATER LOOP,Plant Supply,NODE 2,NODE 11
   Branch,2,HOT WATER LOOP SUPPLY BRANCH 1,HOT WATER LOOP,Plant Supply,NODE 5,NODE 12
   Branch,3,HOT WATER LOOP SUPPLY BRANCH 2,HOT WATER LOOP,Plant Supply,NODE 14,NODE 15
   Branch,4,HOT WATER LOOP SUPPLY BRANCH 3,HOT WATER LOOP,Plant Supply,NODE 17,NODE 18
   Branch,5,HOT WATER LOOP SUPPLY OUTLET BRANCH,HOT WATER LOOP,Plant Supply,NODE 20,NODE 3
 Branch List,25,HOT WATER LOOP DEMAND BRANCHES,HOT WATER LOOP,Plant Demand,30
   Branch,1,HOT WATER LOOP DEMAND INLET BRANCH,HOT WATER LOOP,Plant Demand,NODE 6,HOT WATER LOOP DEMAND INLET PIPE NODE
   Branch,2,HOT WATER LOOP DEMAND BRANCH 1,HOT WATER LOOP,Plant Demand,NODE 9,NODE 38
   Branch,3,HOT WATER LOOP DEMAND BRANCH 2,HOT WATER LOOP,Plant Demand,NODE 47,NODE 48
   Branch,4,HOT WATER LOOP DEMAND BRANCH 3,HOT WATER LOOP,Plant Demand,NODE 60,NODE 61
   Branch,5,HOT WATER LOOP DEMAND BRANCH 4,HOT WATER LOOP,Plant Demand,NODE 68,NODE 69
   Branch,6,HOT WATER LOOP DEMAND BRANCH 5,HOT WATER LOOP,Plant Demand,NODE 77,NODE 78
   Branch,7,HOT WATER LOOP DEMAND BRANCH 6,HOT WATER LOOP,Plant Demand,NODE 91,NODE 92
   Branch,8,HOT WATER LOOP DEMAND BRANCH 7,HOT WATER LOOP,Plant Demand,NODE 104,NODE 105
   Branch,9,HOT WATER LOOP DEMAND BRANCH 8,HOT WATER LOOP,Plant Demand,NODE 117,NODE 118
   Branch,10,HOT WATER LOOP DEMAND BRANCH 9,HOT WATER LOOP,Plant Demand,NODE 130,NODE 131
   Branch,11,HOT WATER LOOP DEMAND BRANCH 10,HOT WATER LOOP,Plant Demand,NODE 143,NODE 144
   Branch,12,HOT WATER LOOP DEMAND BRANCH 11,HOT WATER LOOP,Plant Demand,NODE 156,NODE 157
   Branch,13,HOT WATER LOOP DEMAND BRANCH 12,HOT WATER LOOP,Plant Demand,NODE 169,NODE 170
   Branch,14,HOT WATER LOOP DEMAND BRANCH 13,HOT WATER LOOP,Plant Demand,NODE 182,NODE 183
   Branch,15,HOT WATER LOOP DEMAND BRANCH 14,HOT WATER LOOP,Plant Demand,NODE 195,NODE 196
   Branch,16,HOT WATER LOOP DEMAND BRANCH 15,HOT WATER LOOP,Plant Demand,NODE 208,NODE 209
   Branch,17,HOT WATER LOOP DEMAND BRANCH 16,HOT WATER LOOP,Plant Demand,NODE 221,NODE 222
   Branch,18,HOT WATER LOOP DEMAND BRANCH 17,HOT WATER LOOP,Plant Demand,NODE 234,NODE 235
   Branch,19,HOT WATER LOOP DEMAND BRANCH 18,HOT WATER LOOP,Plant Demand,NODE 247,NODE 248
   Branch,20,HOT WATER LOOP DEMAND BRANCH 19,HOT WATER LOOP,Plant Demand,NODE 260,NODE 261
   Branch,21,HOT WATER LOOP DEMAND BRANCH 20,HOT WATER LOOP,Plant Demand,NODE 294,NODE 295
   Branch,22,HOT WATER LOOP DEMAND BRANCH 21,HOT WATER LOOP,Plant Demand,NODE 303,NODE 304
   Branch,23,HOT WATER LOOP DEMAND BRANCH 22,HOT WATER LOOP,Plant Demand,NODE 307,NODE 308
   Branch,24,HOT WATER LOOP DEMAND BRANCH 23,HOT WATER LOOP,Plant Demand,NODE 309,NODE 310
   Branch,25,HOT WATER LOOP DEMAND BRANCH 24,HOT WATER LOOP,Plant Demand,NODE 314,NODE 315
   Branch,26,HOT WATER LOOP DEMAND BRANCH 25,HOT WATER LOOP,Plant Demand,NODE 321,NODE 322
   Branch,27,HOT WATER LOOP DEMAND BRANCH 26,HOT WATER LOOP,Plant Demand,NODE 331,NODE 332
   Branch,28,HOT WATER LOOP DEMAND BRANCH 27,HOT WATER LOOP,Plant Demand,NODE 335,NODE 336
   Branch,29,HOT WATER LOOP DEMAND BYPASS BRANCH,HOT WATER LOOP,Plant Demand,HOT WATER LOOP DEMAND BYPASS PIPE INLET NODE,HOT WATER LOOP DEMAND BYPASS PIPE OUTLET NODE
   Branch,30,HOT WATER LOOP DEMAND OUTLET BRANCH,HOT WATER LOOP,Plant Demand,HOT WATER LOOP DEMAND OUTLET PIPE NODE,NODE 8
 Branch List,26,MAIN SERVICE WATER LOOP SUPPLY BRANCHES,MAIN SERVICE WATER LOOP,Plant Supply,4
   Branch,1,MAIN SERVICE WATER LOOP SUPPLY INLET BRANCH,MAIN SERVICE WATER LOOP,Plant Supply,NODE 337,NODE 343
   Branch,2,MAIN SERVICE WATER LOOP SUPPLY BRANCH 1,MAIN SERVICE WATER LOOP,Plant Supply,NODE 339,NODE 344
   Branch,3,MAIN SERVICE WATER LOOP SUPPLY BRANCH 2,MAIN SERVICE WATER LOOP,Plant Supply,NODE 345,NODE 346
   Branch,4,MAIN SERVICE WATER LOOP SUPPLY OUTLET BRANCH,MAIN SERVICE WATER LOOP,Plant Supply,NODE 348,NODE 338
 Branch List,27,MAIN SERVICE WATER LOOP DEMAND BRANCHES,MAIN SERVICE WATER LOOP,Plant Demand,23
   Branch,1,MAIN SERVICE WATER LOOP DEMAND INLET BRANCH,MAIN SERVICE WATER LOOP,Plant Demand,NODE 340,NODE 349
   Branch,2,MAIN SERVICE WATER LOOP DEMAND BRANCH 1,MAIN SERVICE WATER LOOP,Plant Demand,NODE 342,NODE 347
   Branch,3,MAIN SERVICE WATER LOOP DEMAND BRANCH 2,MAIN SERVICE WATER LOOP,Plant Demand,NODE 351,NODE 352
   Branch,4,MAIN SERVICE WATER LOOP DEMAND BRANCH 3,MAIN SERVICE WATER LOOP,Plant Demand,NODE 353,NODE 354
   Branch,5,MAIN SERVICE WATER LOOP DEMAND BRANCH 4,MAIN SERVICE WATER LOOP,Plant Demand,NODE 355,NODE 356
   Branch,6,MAIN SERVICE WATER LOOP DEMAND BRANCH 5,MAIN SERVICE WATER LOOP,Plant Demand,NODE 357,NODE 358
   Branch,7,MAIN SERVICE WATER LOOP DEMAND BRANCH 6,MAIN SERVICE WATER LOOP,Plant Demand,NODE 359,NODE 360
   Branch,8,MAIN SERVICE WATER LOOP DEMAND BRANCH 7,MAIN SERVICE WATER LOOP,Plant Demand,NODE 361,NODE 362
   Branch,9,MAIN SERVICE WATER LOOP DEMAND BRANCH 8,MAIN SERVICE WATER LOOP,Plant Demand,NODE 363,NODE 364
   Branch,10,MAIN SERVICE WATER LOOP DEMAND BRANCH 9,MAIN SERVICE WATER LOOP,Plant Demand,NODE 365,NODE 366
   Branch,11,MAIN SERVICE WATER LOOP DEMAND BRANCH 10,MAIN SERVICE WATER LOOP,Plant Demand,NODE 367,NODE 368
   Branch,12,MAIN SERVICE WATER LOOP DEMAND BRANCH 11,MAIN SERVICE WATER LOOP,Plant Demand,NODE 369,NODE 370
   Branch,13,MAIN SERVICE WATER LOOP DEMAND BRANCH 12,MAIN SERVICE WATER LOOP,Plant Demand,NODE 371,NODE 372
   Branch,14,MAIN SERVICE WATER LOOP DEMAND BRANCH 13,MAIN SERVICE WATER LOOP,Plant Demand,NODE 373,NODE 374
   Branch,15,MAIN SERVICE WATER LOOP DEMAND BRANCH 14,MAIN SERVICE WATER LOOP,Plant Demand,NODE 375,NODE 376
   Branch,16,MAIN SERVICE WATER LOOP DEMAND BRANCH 15,MAIN SERVICE WATER LOOP,Plant Demand,NODE 377,NODE 378
   Branch,17,MAIN SERVICE WATER LOOP DEMAND BRANCH 16,MAIN SERVICE WATER LOOP,Plant Demand,NODE 379,NODE 380
   Branch,18,MAIN SERVICE WATER LOOP DEMAND BRANCH 17,MAIN SERVICE WATER LOOP,Plant Demand,NODE 381,NODE 382
   Branch,19,MAIN SERVICE WATER LOOP DEMAND BRANCH 18,MAIN SERVICE WATER LOOP,Plant Demand,NODE 383,NODE 384
   Branch,20,MAIN SERVICE WATER LOOP DEMAND BRANCH 19,MAIN SERVICE WATER LOOP,Plant Demand,NODE 385,NODE 386
   Branch,21,MAIN SERVICE WATER LOOP DEMAND BRANCH 20,MAIN SERVICE WATER LOOP,Plant Demand,NODE 387,NODE 388
   Branch,22,MAIN SERVICE WATER LOOP DEMAND BYPASS BRANCH,MAIN SERVICE WATER LOOP,Plant Demand,MAIN SERVICE WATER LOOP DEMAND BYPASS PIPE INLET NODE,MAIN SERVICE WATER LOOP DEMAND BYPASS PIPE OUTLET NODE
   Branch,23,MAIN SERVICE WATER LOOP DEMAND OUTLET BRANCH,MAIN SERVICE WATER LOOP,Plant Demand,NODE 350,NODE 341
! ===============================================================
! <#Supply Air Paths>,<Number of Supply Air Paths>
 #Supply Air Paths,19
! <Supply Air Path>,<Supply Air Path Count>,<Supply Air Path Name>,<AirLoopHVAC Name>
! <#Components on Supply Air Path>,<Number of Components>
! <Supply Air Path Component>,<Component Count>,<Component Type>,<Component Name>,<AirLoopHVAC Name>
! <#Outlet Nodes on Supply Air Path Component>,<Number of Nodes>
! <Supply Air Path Component Nodes>,<Node Count>,<Component Type>,<Component Name>,<Inlet Node Name>,<Outlet Node Name>,<AirLoopHVAC Name>
 Supply Air Path,1,SYS_1_MAKE-UP AIR UNIT NODE 42 SUPPLY PATH,SYS_1_MAKE-UP AIR UNIT
   #Components on Supply Air Path,1
   Supply Air Path Component,1,AIRLOOPHVAC:ZONESPLITTER,AIR LOOP HVAC ZONE SPLITTER 2,SYS_1_MAKE-UP AIR UNIT
     #Outlet Nodes on Supply Air Path Component,1
     Supply Air Path Component Nodes,1,AIRLOOPHVAC:ZONESPLITTER,AIR LOOP HVAC ZONE SPLITTER 2,NODE 42,NODE 45,SYS_1_MAKE-UP AIR UNIT
! <#Nodes on Supply Air Path>,<Number of Nodes>
! <Supply Air Path Node>,<Node Type>,<Node Count>,<Node Name>,<AirLoopHVAC Name>
#Nodes on Supply Air Path,2
   Supply Air Path Node,Inlet Node,1,NODE 42,SYS_1_MAKE-UP AIR UNIT
   Supply Air Path Node,Outlet Node,2,NODE 45,SYS_1_MAKE-UP AIR UNIT
 Supply Air Path,2,SYS_1_MAKE-UP AIR UNIT 1 NODE 65 SUPPLY PATH,SYS_1_MAKE-UP AIR UNIT 1
   #Components on Supply Air Path,1
   Supply Air Path Component,1,AIRLOOPHVAC:ZONESPLITTER,AIR LOOP HVAC ZONE SPLITTER 3,SYS_1_MAKE-UP AIR UNIT 1
     #Outlet Nodes on Supply Air Path Component,1
     Supply Air Path Component Nodes,1,AIRLOOPHVAC:ZONESPLITTER,AIR LOOP HVAC ZONE SPLITTER 3,NODE 65,NODE 67,SYS_1_MAKE-UP AIR UNIT 1
! <#Nodes on Supply Air Path>,<Number of Nodes>
! <Supply Air Path Node>,<Node Type>,<Node Count>,<Node Name>,<AirLoopHVAC Name>
#Nodes on Supply Air Path,2
   Supply Air Path Node,Inlet Node,1,NODE 65,SYS_1_MAKE-UP AIR UNIT 1
   Supply Air Path Node,Outlet Node,2,NODE 67,SYS_1_MAKE-UP AIR UNIT 1
 Supply Air Path,3,SYS_3_PSZ ALL_ST=COURTHOUSE - CHAMBERS_FL=STORY 4_SCH=A NODE 82 SUPPLY PATH,SYS_3_PSZ ALL_ST=COURTHOUSE - CHAMBERS_FL=STORY 4_SCH=A
   #Components on Supply Air Path,1
   Supply Air Path Component,1,AIRLOOPHVAC:ZONESPLITTER,AIR LOOP HVAC ZONE SPLITTER 4,SYS_3_PSZ ALL_ST=COURTHOUSE - CHAMBERS_FL=STORY 4_SCH=A
     #Outlet Nodes on Supply Air Path Component,1
     Supply Air Path Component Nodes,1,AIRLOOPHVAC:ZONESPLITTER,AIR LOOP HVAC ZONE SPLITTER 4,NODE 82,NODE 84,SYS_3_PSZ ALL_ST=COURTHOUSE - CHAMBERS_FL=STORY 4_SCH=A
! <#Nodes on Supply Air Path>,<Number of Nodes>
! <Supply Air Path Node>,<Node Type>,<Node Count>,<Node Name>,<AirLoopHVAC Name>
#Nodes on Supply Air Path,2
   Supply Air Path Node,Inlet Node,1,NODE 82,SYS_3_PSZ ALL_ST=COURTHOUSE - CHAMBERS_FL=STORY 4_SCH=A
   Supply Air Path Node,Outlet Node,2,NODE 84,SYS_3_PSZ ALL_ST=COURTHOUSE - CHAMBERS_FL=STORY 4_SCH=A
 Supply Air Path,4,SYS_3_PSZ ALL_ST=COURTHOUSE - COURTROOM_FL=STORY 3_SCH=A NODE 95 SUPPLY PATH,SYS_3_PSZ ALL_ST=COURTHOUSE - COURTROOM_FL=STORY 3_SCH=A
   #Components on Supply Air Path,1
   Supply Air Path Component,1,AIRLOOPHVAC:ZONESPLITTER,AIR LOOP HVAC ZONE SPLITTER 5,SYS_3_PSZ ALL_ST=COURTHOUSE - COURTROOM_FL=STORY 3_SCH=A
     #Outlet Nodes on Supply Air Path Component,1
     Supply Air Path Component Nodes,1,AIRLOOPHVAC:ZONESPLITTER,AIR LOOP HVAC ZONE SPLITTER 5,NODE 95,NODE 97,SYS_3_PSZ ALL_ST=COURTHOUSE - COURTROOM_FL=STORY 3_SCH=A
! <#Nodes on Supply Air Path>,<Number of Nodes>
! <Supply Air Path Node>,<Node Type>,<Node Count>,<Node Name>,<AirLoopHVAC Name>
#Nodes on Supply Air Path,2
   Supply Air Path Node,Inlet Node,1,NODE 95,SYS_3_PSZ ALL_ST=COURTHOUSE - COURTROOM_FL=STORY 3_SCH=A
   Supply Air Path Node,Outlet Node,2,NODE 97,SYS_3_PSZ ALL_ST=COURTHOUSE - COURTROOM_FL=STORY 3_SCH=A
 Supply Air Path,5,SYS_3_PSZ ALL_ST=DINING - BAR LOUNGE/LEISURE_FL=STORY 3_SCH=B NODE 108 SUPPLY PATH,SYS_3_PSZ ALL_ST=DINING - BAR LOUNGE/LEISURE_FL=STORY 3_SCH=B
   #Components on Supply Air Path,1
   Supply Air Path Component,1,AIRLOOPHVAC:ZONESPLITTER,AIR LOOP HVAC ZONE SPLITTER 6,SYS_3_PSZ ALL_ST=DINING - BAR LOUNGE/LEISURE_FL=STORY 3_SCH=B
     #Outlet Nodes on Supply Air Path Component,1
     Supply Air Path Component Nodes,1,AIRLOOPHVAC:ZONESPLITTER,AIR LOOP HVAC ZONE SPLITTER 6,NODE 108,NODE 110,SYS_3_PSZ ALL_ST=DINING - BAR LOUNGE/LEISURE_FL=STORY 3_SCH=B
! <#Nodes on Supply Air Path>,<Number of Nodes>
! <Supply Air Path Node>,<Node Type>,<Node Count>,<Node Name>,<AirLoopHVAC Name>
#Nodes on Supply Air Path,2
   Supply Air Path Node,Inlet Node,1,NODE 108,SYS_3_PSZ ALL_ST=DINING - BAR LOUNGE/LEISURE_FL=STORY 3_SCH=B
   Supply Air Path Node,Outlet Node,2,NODE 110,SYS_3_PSZ ALL_ST=DINING - BAR LOUNGE/LEISURE_FL=STORY 3_SCH=B
 Supply Air Path,6,SYS_3_PSZ ALL_ST=DINING - FAMILY SPACE_FL=STORY 3_SCH=B NODE 121 SUPPLY PATH,SYS_3_PSZ ALL_ST=DINING - FAMILY SPACE_FL=STORY 3_SCH=B
   #Components on Supply Air Path,1
   Supply Air Path Component,1,AIRLOOPHVAC:ZONESPLITTER,AIR LOOP HVAC ZONE SPLITTER 7,SYS_3_PSZ ALL_ST=DINING - FAMILY SPACE_FL=STORY 3_SCH=B
     #Outlet Nodes on Supply Air Path Component,1
     Supply Air Path Component Nodes,1,AIRLOOPHVAC:ZONESPLITTER,AIR LOOP HVAC ZONE SPLITTER 7,NODE 121,NODE 123,SYS_3_PSZ ALL_ST=DINING - FAMILY SPACE_FL=STORY 3_SCH=B
! <#Nodes on Supply Air Path>,<Number of Nodes>
! <Supply Air Path Node>,<Node Type>,<Node Count>,<Node Name>,<AirLoopHVAC Name>
#Nodes on Supply Air Path,2
   Supply Air Path Node,Inlet Node,1,NODE 121,SYS_3_PSZ ALL_ST=DINING - FAMILY SPACE_FL=STORY 3_SCH=B
   Supply Air Path Node,Outlet Node,2,NODE 123,SYS_3_PSZ ALL_ST=DINING - FAMILY SPACE_FL=STORY 3_SCH=B
 Supply Air Path,7,SYS_3_PSZ ALL_ST=DINING - OTHER_FL=STORY 1_SCH=B NODE 134 SUPPLY PATH,SYS_3_PSZ ALL_ST=DINING - OTHER_FL=STORY 1_SCH=B
   #Components on Supply Air Path,1
   Supply Air Path Component,1,AIRLOOPHVAC:ZONESPLITTER,AIR LOOP HVAC ZONE SPLITTER 8,SYS_3_PSZ ALL_ST=DINING - OTHER_FL=STORY 1_SCH=B
     #Outlet Nodes on Supply Air Path Component,1
     Supply Air Path Component Nodes,1,AIRLOOPHVAC:ZONESPLITTER,AIR LOOP HVAC ZONE SPLITTER 8,NODE 134,NODE 136,SYS_3_PSZ ALL_ST=DINING - OTHER_FL=STORY 1_SCH=B
! <#Nodes on Supply Air Path>,<Number of Nodes>
! <Supply Air Path Node>,<Node Type>,<Node Count>,<Node Name>,<AirLoopHVAC Name>
#Nodes on Supply Air Path,2
   Supply Air Path Node,Inlet Node,1,NODE 134,SYS_3_PSZ ALL_ST=DINING - OTHER_FL=STORY 1_SCH=B
   Supply Air Path Node,Outlet Node,2,NODE 136,SYS_3_PSZ ALL_ST=DINING - OTHER_FL=STORY 1_SCH=B
 Supply Air Path,8,SYS_3_PSZ ALL_ST=DRESS./FITT. - PERFORMANCE ARTS_FL=STORY 3_SCH=C NODE 147 SUPPLY PATH,SYS_3_PSZ ALL_ST=DRESS./FITT. - PERFORMANCE ARTS_FL=STORY 3_SCH=C
   #Components on Supply Air Path,1
   Supply Air Path Component,1,AIRLOOPHVAC:ZONESPLITTER,AIR LOOP HVAC ZONE SPLITTER 9,SYS_3_PSZ ALL_ST=DRESS./FITT. - PERFORMANCE ARTS_FL=STORY 3_SCH=C
     #Outlet Nodes on Supply Air Path Component,1
     Supply Air Path Component Nodes,1,AIRLOOPHVAC:ZONESPLITTER,AIR LOOP HVAC ZONE SPLITTER 9,NODE 147,NODE 149,SYS_3_PSZ ALL_ST=DRESS./FITT. - PERFORMANCE ARTS_FL=STORY 3_SCH=C
! <#Nodes on Supply Air Path>,<Number of Nodes>
! <Supply Air Path Node>,<Node Type>,<Node Count>,<Node Name>,<AirLoopHVAC Name>
#Nodes on Supply Air Path,2
   Supply Air Path Node,Inlet Node,1,NODE 147,SYS_3_PSZ ALL_ST=DRESS./FITT. - PERFORMANCE ARTS_FL=STORY 3_SCH=C
   Supply Air Path Node,Outlet Node,2,NODE 149,SYS_3_PSZ ALL_ST=DRESS./FITT. - PERFORMANCE ARTS_FL=STORY 3_SCH=C
 Supply Air Path,9,SYS_3_PSZ ALL_ST=FOOD PREPARATION_FL=STORY 2_SCH=B NODE 160 SUPPLY PATH,SYS_3_PSZ ALL_ST=FOOD PREPARATION_FL=STORY 2_SCH=B
   #Components on Supply Air Path,1
   Supply Air Path Component,1,AIRLOOPHVAC:ZONESPLITTER,AIR LOOP HVAC ZONE SPLITTER 10,SYS_3_PSZ ALL_ST=FOOD PREPARATION_FL=STORY 2_SCH=B
     #Outlet Nodes on Supply Air Path Component,1
     Supply Air Path Component Nodes,1,AIRLOOPHVAC:ZONESPLITTER,AIR LOOP HVAC ZONE SPLITTER 10,NODE 160,NODE 162,SYS_3_PSZ ALL_ST=FOOD PREPARATION_FL=STORY 2_SCH=B
! <#Nodes on Supply Air Path>,<Number of Nodes>
! <Supply Air Path Node>,<Node Type>,<Node Count>,<Node Name>,<AirLoopHVAC Name>
#Nodes on Supply Air Path,2
   Supply Air Path Node,Inlet Node,1,NODE 160,SYS_3_PSZ ALL_ST=FOOD PREPARATION_FL=STORY 2_SCH=B
   Supply Air Path Node,Outlet Node,2,NODE 162,SYS_3_PSZ ALL_ST=FOOD PREPARATION_FL=STORY 2_SCH=B
 Supply Air Path,10,SYS_3_PSZ ALL_ST=HOSPITAL - EMERGENCY_FL=STORY 2_SCH=H NODE 173 SUPPLY PATH,SYS_3_PSZ ALL_ST=HOSPITAL - EMERGENCY_FL=STORY 2_SCH=H
   #Components on Supply Air Path,1
   Supply Air Path Component,1,AIRLOOPHVAC:ZONESPLITTER,AIR LOOP HVAC ZONE SPLITTER 11,SYS_3_PSZ ALL_ST=HOSPITAL - EMERGENCY_FL=STORY 2_SCH=H
     #Outlet Nodes on Supply Air Path Component,1
     Supply Air Path Component Nodes,1,AIRLOOPHVAC:ZONESPLITTER,AIR LOOP HVAC ZONE SPLITTER 11,NODE 173,NODE 175,SYS_3_PSZ ALL_ST=HOSPITAL - EMERGENCY_FL=STORY 2_SCH=H
! <#Nodes on Supply Air Path>,<Number of Nodes>
! <Supply Air Path Node>,<Node Type>,<Node Count>,<Node Name>,<AirLoopHVAC Name>
#Nodes on Supply Air Path,2
   Supply Air Path Node,Inlet Node,1,NODE 173,SYS_3_PSZ ALL_ST=HOSPITAL - EMERGENCY_FL=STORY 2_SCH=H
   Supply Air Path Node,Outlet Node,2,NODE 175,SYS_3_PSZ ALL_ST=HOSPITAL - EMERGENCY_FL=STORY 2_SCH=H
 Supply Air Path,11,SYS_3_PSZ ALL_ST=HOSPITAL - EXAM_FL=STORY 3_SCH=C NODE 186 SUPPLY PATH,SYS_3_PSZ ALL_ST=HOSPITAL - EXAM_FL=STORY 3_SCH=C
   #Components on Supply Air Path,1
   Supply Air Path Component,1,AIRLOOPHVAC:ZONESPLITTER,AIR LOOP HVAC ZONE SPLITTER 12,SYS_3_PSZ ALL_ST=HOSPITAL - EXAM_FL=STORY 3_SCH=C
     #Outlet Nodes on Supply Air Path Component,1
     Supply Air Path Component Nodes,1,AIRLOOPHVAC:ZONESPLITTER,AIR LOOP HVAC ZONE SPLITTER 12,NODE 186,NODE 188,SYS_3_PSZ ALL_ST=HOSPITAL - EXAM_FL=STORY 3_SCH=C
! <#Nodes on Supply Air Path>,<Number of Nodes>
! <Supply Air Path Node>,<Node Type>,<Node Count>,<Node Name>,<AirLoopHVAC Name>
#Nodes on Supply Air Path,2
   Supply Air Path Node,Inlet Node,1,NODE 186,SYS_3_PSZ ALL_ST=HOSPITAL - EXAM_FL=STORY 3_SCH=C
   Supply Air Path Node,Outlet Node,2,NODE 188,SYS_3_PSZ ALL_ST=HOSPITAL - EXAM_FL=STORY 3_SCH=C
 Supply Air Path,12,SYS_3_PSZ ALL_ST=HOSPITAL - LAUNDRY/WASHING_FL=STORY 1_SCH=C NODE 199 SUPPLY PATH,SYS_3_PSZ ALL_ST=HOSPITAL - LAUNDRY/WASHING_FL=STORY 1_SCH=C
   #Components on Supply Air Path,1
   Supply Air Path Component,1,AIRLOOPHVAC:ZONESPLITTER,AIR LOOP HVAC ZONE SPLITTER 13,SYS_3_PSZ ALL_ST=HOSPITAL - LAUNDRY/WASHING_FL=STORY 1_SCH=C
     #Outlet Nodes on Supply Air Path Component,1
     Supply Air Path Component Nodes,1,AIRLOOPHVAC:ZONESPLITTER,AIR LOOP HVAC ZONE SPLITTER 13,NODE 199,NODE 201,SYS_3_PSZ ALL_ST=HOSPITAL - LAUNDRY/WASHING_FL=STORY 1_SCH=C
! <#Nodes on Supply Air Path>,<Number of Nodes>
! <Supply Air Path Node>,<Node Type>,<Node Count>,<Node Name>,<AirLoopHVAC Name>
#Nodes on Supply Air Path,2
   Supply Air Path Node,Inlet Node,1,NODE 199,SYS_3_PSZ ALL_ST=HOSPITAL - LAUNDRY/WASHING_FL=STORY 1_SCH=C
   Supply Air Path Node,Outlet Node,2,NODE 201,SYS_3_PSZ ALL_ST=HOSPITAL - LAUNDRY/WASHING_FL=STORY 1_SCH=C
 Supply Air Path,13,SYS_3_PSZ ALL_ST=HOSPITAL - LOUNGE/RECREATION_FL=STORY 2_SCH=B NODE 212 SUPPLY PATH,SYS_3_PSZ ALL_ST=HOSPITAL - LOUNGE/RECREATION_FL=STORY 2_SCH=B
   #Components on Supply Air Path,1
   Supply Air Path Component,1,AIRLOOPHVAC:ZONESPLITTER,AIR LOOP HVAC ZONE SPLITTER 14,SYS_3_PSZ ALL_ST=HOSPITAL - LOUNGE/RECREATION_FL=STORY 2_SCH=B
     #Outlet Nodes on Supply Air Path Component,1
     Supply Air Path Component Nodes,1,AIRLOOPHVAC:ZONESPLITTER,AIR LOOP HVAC ZONE SPLITTER 14,NODE 212,NODE 214,SYS_3_PSZ ALL_ST=HOSPITAL - LOUNGE/RECREATION_FL=STORY 2_SCH=B
! <#Nodes on Supply Air Path>,<Number of Nodes>
! <Supply Air Path Node>,<Node Type>,<Node Count>,<Node Name>,<AirLoopHVAC Name>
#Nodes on Supply Air Path,2
   Supply Air Path Node,Inlet Node,1,NODE 212,SYS_3_PSZ ALL_ST=HOSPITAL - LOUNGE/RECREATION_FL=STORY 2_SCH=B
   Supply Air Path Node,Outlet Node,2,NODE 214,SYS_3_PSZ ALL_ST=HOSPITAL - LOUNGE/RECREATION_FL=STORY 2_SCH=B
 Supply Air Path,14,SYS_3_PSZ ALL_ST=HOSPITAL - MEDICAL SUPPLY_FL=STORY 2_SCH=H NODE 225 SUPPLY PATH,SYS_3_PSZ ALL_ST=HOSPITAL - MEDICAL SUPPLY_FL=STORY 2_SCH=H
   #Components on Supply Air Path,1
   Supply Air Path Component,1,AIRLOOPHVAC:ZONESPLITTER,AIR LOOP HVAC ZONE SPLITTER 15,SYS_3_PSZ ALL_ST=HOSPITAL - MEDICAL SUPPLY_FL=STORY 2_SCH=H
     #Outlet Nodes on Supply Air Path Component,1
     Supply Air Path Component Nodes,1,AIRLOOPHVAC:ZONESPLITTER,AIR LOOP HVAC ZONE SPLITTER 15,NODE 225,NODE 227,SYS_3_PSZ ALL_ST=HOSPITAL - MEDICAL SUPPLY_FL=STORY 2_SCH=H
! <#Nodes on Supply Air Path>,<Number of Nodes>
! <Supply Air Path Node>,<Node Type>,<Node Count>,<Node Name>,<AirLoopHVAC Name>
#Nodes on Supply Air Path,2
   Supply Air Path Node,Inlet Node,1,NODE 225,SYS_3_PSZ ALL_ST=HOSPITAL - MEDICAL SUPPLY_FL=STORY 2_SCH=H
   Supply Air Path Node,Outlet Node,2,NODE 227,SYS_3_PSZ ALL_ST=HOSPITAL - MEDICAL SUPPLY_FL=STORY 2_SCH=H
 Supply Air Path,15,SYS_3_PSZ DU_BT=SPACE FUNCTION_ST=DORMITORY - LIVING QUARTERS_FL=STORY 4_SCHG NODE 24 SUPPLY PATH,SYS_3_PSZ DU_BT=SPACE FUNCTION_ST=DORMITORY - LIVING QUARTERS_FL=STORY 4_SCHG
   #Components on Supply Air Path,1
   Supply Air Path Component,1,AIRLOOPHVAC:ZONESPLITTER,AIR LOOP HVAC ZONE SPLITTER 1,SYS_3_PSZ DU_BT=SPACE FUNCTION_ST=DORMITORY - LIVING QUARTERS_FL=STORY 4_SCHG
     #Outlet Nodes on Supply Air Path Component,1
     Supply Air Path Component Nodes,1,AIRLOOPHVAC:ZONESPLITTER,AIR LOOP HVAC ZONE SPLITTER 1,NODE 24,NODE 27,SYS_3_PSZ DU_BT=SPACE FUNCTION_ST=DORMITORY - LIVING QUARTERS_FL=STORY 4_SCHG
! <#Nodes on Supply Air Path>,<Number of Nodes>
! <Supply Air Path Node>,<Node Type>,<Node Count>,<Node Name>,<AirLoopHVAC Name>
#Nodes on Supply Air Path,2
   Supply Air Path Node,Inlet Node,1,NODE 24,SYS_3_PSZ DU_BT=SPACE FUNCTION_ST=DORMITORY - LIVING QUARTERS_FL=STORY 4_SCHG
   Supply Air Path Node,Outlet Node,2,NODE 27,SYS_3_PSZ DU_BT=SPACE FUNCTION_ST=DORMITORY - LIVING QUARTERS_FL=STORY 4_SCHG
 Supply Air Path,16,SYS_4_PSZ_ALL_ST=FIRE STATION - ENGINE ROOM_FL=STORY 1_SCH=H NODE 238 SUPPLY PATH,SYS_4_PSZ_ALL_ST=FIRE STATION - ENGINE ROOM_FL=STORY 1_SCH=H
   #Components on Supply Air Path,1
   Supply Air Path Component,1,AIRLOOPHVAC:ZONESPLITTER,AIR LOOP HVAC ZONE SPLITTER 16,SYS_4_PSZ_ALL_ST=FIRE STATION - ENGINE ROOM_FL=STORY 1_SCH=H
     #Outlet Nodes on Supply Air Path Component,1
     Supply Air Path Component Nodes,1,AIRLOOPHVAC:ZONESPLITTER,AIR LOOP HVAC ZONE SPLITTER 16,NODE 238,NODE 240,SYS_4_PSZ_ALL_ST=FIRE STATION - ENGINE ROOM_FL=STORY 1_SCH=H
! <#Nodes on Supply Air Path>,<Number of Nodes>
! <Supply Air Path Node>,<Node Type>,<Node Count>,<Node Name>,<AirLoopHVAC Name>
#Nodes on Supply Air Path,2
   Supply Air Path Node,Inlet Node,1,NODE 238,SYS_4_PSZ_ALL_ST=FIRE STATION - ENGINE ROOM_FL=STORY 1_SCH=H
   Supply Air Path Node,Outlet Node,2,NODE 240,SYS_4_PSZ_ALL_ST=FIRE STATION - ENGINE ROOM_FL=STORY 1_SCH=H
 Supply Air Path,17,SYS_4_PSZ_ALL_ST=FOOD PREPARATION - VENTED_FL=STORY 4_SCH=B NODE 251 SUPPLY PATH,SYS_4_PSZ_ALL_ST=FOOD PREPARATION - VENTED_FL=STORY 4_SCH=B
   #Components on Supply Air Path,1
   Supply Air Path Component,1,AIRLOOPHVAC:ZONESPLITTER,AIR LOOP HVAC ZONE SPLITTER 17,SYS_4_PSZ_ALL_ST=FOOD PREPARATION - VENTED_FL=STORY 4_SCH=B
     #Outlet Nodes on Supply Air Path Component,1
     Supply Air Path Component Nodes,1,AIRLOOPHVAC:ZONESPLITTER,AIR LOOP HVAC ZONE SPLITTER 17,NODE 251,NODE 253,SYS_4_PSZ_ALL_ST=FOOD PREPARATION - VENTED_FL=STORY 4_SCH=B
! <#Nodes on Supply Air Path>,<Number of Nodes>
! <Supply Air Path Node>,<Node Type>,<Node Count>,<Node Name>,<AirLoopHVAC Name>
#Nodes on Supply Air Path,2
   Supply Air Path Node,Inlet Node,1,NODE 251,SYS_4_PSZ_ALL_ST=FOOD PREPARATION - VENTED_FL=STORY 4_SCH=B
   Supply Air Path Node,Outlet Node,2,NODE 253,SYS_4_PSZ_ALL_ST=FOOD PREPARATION - VENTED_FL=STORY 4_SCH=B
 Supply Air Path,18,SYS_6_VAV WITH REHEAT NODE 291 SUPPLY PATH,SYS_6_VAV WITH REHEAT
   #Components on Supply Air Path,1
   Supply Air Path Component,1,AIRLOOPHVAC:ZONESPLITTER,AIR LOOP HVAC ZONE SPLITTER 18,SYS_6_VAV WITH REHEAT
     #Outlet Nodes on Supply Air Path Component,2
     Supply Air Path Component Nodes,1,AIRLOOPHVAC:ZONESPLITTER,AIR LOOP HVAC ZONE SPLITTER 18,NODE 291,NODE 306,SYS_6_VAV WITH REHEAT
     Supply Air Path Component Nodes,2,AIRLOOPHVAC:ZONESPLITTER,AIR LOOP HVAC ZONE SPLITTER 18,NODE 291,NODE 313,SYS_6_VAV WITH REHEAT
! <#Nodes on Supply Air Path>,<Number of Nodes>
! <Supply Air Path Node>,<Node Type>,<Node Count>,<Node Name>,<AirLoopHVAC Name>
#Nodes on Supply Air Path,3
   Supply Air Path Node,Inlet Node,1,NODE 291,SYS_6_VAV WITH REHEAT
   Supply Air Path Node,Outlet Node,2,NODE 306,SYS_6_VAV WITH REHEAT
   Supply Air Path Node,Outlet Node,3,NODE 313,SYS_6_VAV WITH REHEAT
 Supply Air Path,19,SYS_6_VAV WITH REHEAT 1 NODE 318 SUPPLY PATH,SYS_6_VAV WITH REHEAT 1
   #Components on Supply Air Path,1
   Supply Air Path Component,1,AIRLOOPHVAC:ZONESPLITTER,AIR LOOP HVAC ZONE SPLITTER 19,SYS_6_VAV WITH REHEAT 1
     #Outlet Nodes on Supply Air Path Component,1
     Supply Air Path Component Nodes,1,AIRLOOPHVAC:ZONESPLITTER,AIR LOOP HVAC ZONE SPLITTER 19,NODE 318,NODE 334,SYS_6_VAV WITH REHEAT 1
! <#Nodes on Supply Air Path>,<Number of Nodes>
! <Supply Air Path Node>,<Node Type>,<Node Count>,<Node Name>,<AirLoopHVAC Name>
#Nodes on Supply Air Path,2
   Supply Air Path Node,Inlet Node,1,NODE 318,SYS_6_VAV WITH REHEAT 1
   Supply Air Path Node,Outlet Node,2,NODE 334,SYS_6_VAV WITH REHEAT 1
! ===============================================================
! <#Return Air Paths>,<Number of Return Air Paths>
 #Return Air Paths,19
! <Return Air Path>,<Return Air Path Count>,<Return Air Path Name>,<AirLoopHVAC Name>
! <#Components on Return Air Path>,<Number of Components>
! <Return Air Path Component>,<Component Count>,<Component Type>,<Component Name>,<AirLoopHVAC Name>
! <#Inlet Nodes on Return Air Path Component>,<Number of Nodes>
! <Return Air Path Component Nodes>,<Node Count>,<Component Type>,<Component Name>,<Inlet Node Name>,<Outlet Node Name>,<AirLoopHVAC Name>
 Return Air Path,1,SYS_1_MAKE-UP AIR UNIT RETURN PATH,SYS_1_MAKE-UP AIR UNIT
   #Components on Return Air Path,1
   Return Air Path Component,1,AIRLOOPHVAC:ZONEMIXER,AIR LOOP HVAC ZONE MIXER 2,SYS_1_MAKE-UP AIR UNIT
     #Inlet Nodes on Return Air Path Component,1
     Return Air Path Component Nodes,1,AIRLOOPHVAC:ZONEMIXER,AIR LOOP HVAC ZONE MIXER 2,NODE 62,NODE 44,SYS_1_MAKE-UP AIR UNIT
! <#Nodes on Return Air Path>,<Number of Nodes>
! <Return Air Path Node>,<Node Type>,<Node Count>,<Node Name>,<AirLoopHVAC Name>
   #Nodes on Return Air Path,2
   Return Air Path Node,Outlet Node,1,NODE 44,SYS_1_MAKE-UP AIR UNIT
   Return Air Path Node,Inlet Node,2,NODE 62,SYS_1_MAKE-UP AIR UNIT
 Return Air Path,2,SYS_1_MAKE-UP AIR UNIT 1 RETURN PATH,SYS_1_MAKE-UP AIR UNIT 1
   #Components on Return Air Path,1
   Return Air Path Component,1,AIRLOOPHVAC:ZONEMIXER,AIR LOOP HVAC ZONE MIXER 3,SYS_1_MAKE-UP AIR UNIT 1
     #Inlet Nodes on Return Air Path Component,1
     Return Air Path Component Nodes,1,AIRLOOPHVAC:ZONEMIXER,AIR LOOP HVAC ZONE MIXER 3,NODE 79,NODE 66,SYS_1_MAKE-UP AIR UNIT 1
! <#Nodes on Return Air Path>,<Number of Nodes>
! <Return Air Path Node>,<Node Type>,<Node Count>,<Node Name>,<AirLoopHVAC Name>
   #Nodes on Return Air Path,2
   Return Air Path Node,Outlet Node,1,NODE 66,SYS_1_MAKE-UP AIR UNIT 1
   Return Air Path Node,Inlet Node,2,NODE 79,SYS_1_MAKE-UP AIR UNIT 1
 Return Air Path,3,SYS_3_PSZ ALL_ST=COURTHOUSE - CHAMBERS_FL=STORY 4_SCH=A RETURN PATH,SYS_3_PSZ ALL_ST=COURTHOUSE - CHAMBERS_FL=STORY 4_SCH=A
   #Components on Return Air Path,1
   Return Air Path Component,1,AIRLOOPHVAC:ZONEMIXER,AIR LOOP HVAC ZONE MIXER 4,SYS_3_PSZ ALL_ST=COURTHOUSE - CHAMBERS_FL=STORY 4_SCH=A
     #Inlet Nodes on Return Air Path Component,1
     Return Air Path Component Nodes,1,AIRLOOPHVAC:ZONEMIXER,AIR LOOP HVAC ZONE MIXER 4,NODE 90,NODE 83,SYS_3_PSZ ALL_ST=COURTHOUSE - CHAMBERS_FL=STORY 4_SCH=A
! <#Nodes on Return Air Path>,<Number of Nodes>
! <Return Air Path Node>,<Node Type>,<Node Count>,<Node Name>,<AirLoopHVAC Name>
   #Nodes on Return Air Path,2
   Return Air Path Node,Outlet Node,1,NODE 83,SYS_3_PSZ ALL_ST=COURTHOUSE - CHAMBERS_FL=STORY 4_SCH=A
   Return Air Path Node,Inlet Node,2,NODE 90,SYS_3_PSZ ALL_ST=COURTHOUSE - CHAMBERS_FL=STORY 4_SCH=A
 Return Air Path,4,SYS_3_PSZ ALL_ST=COURTHOUSE - COURTROOM_FL=STORY 3_SCH=A RETURN PATH,SYS_3_PSZ ALL_ST=COURTHOUSE - COURTROOM_FL=STORY 3_SCH=A
   #Components on Return Air Path,1
   Return Air Path Component,1,AIRLOOPHVAC:ZONEMIXER,AIR LOOP HVAC ZONE MIXER 5,SYS_3_PSZ ALL_ST=COURTHOUSE - COURTROOM_FL=STORY 3_SCH=A
     #Inlet Nodes on Return Air Path Component,1
     Return Air Path Component Nodes,1,AIRLOOPHVAC:ZONEMIXER,AIR LOOP HVAC ZONE MIXER 5,NODE 103,NODE 96,SYS_3_PSZ ALL_ST=COURTHOUSE - COURTROOM_FL=STORY 3_SCH=A
! <#Nodes on Return Air Path>,<Number of Nodes>
! <Return Air Path Node>,<Node Type>,<Node Count>,<Node Name>,<AirLoopHVAC Name>
   #Nodes on Return Air Path,2
   Return Air Path Node,Outlet Node,1,NODE 96,SYS_3_PSZ ALL_ST=COURTHOUSE - COURTROOM_FL=STORY 3_SCH=A
   Return Air Path Node,Inlet Node,2,NODE 103,SYS_3_PSZ ALL_ST=COURTHOUSE - COURTROOM_FL=STORY 3_SCH=A
 Return Air Path,5,SYS_3_PSZ ALL_ST=DINING - BAR LOUNGE/LEISURE_FL=STORY 3_SCH=B RETURN PATH,SYS_3_PSZ ALL_ST=DINING - BAR LOUNGE/LEISURE_FL=STORY 3_SCH=B
   #Components on Return Air Path,1
   Return Air Path Component,1,AIRLOOPHVAC:ZONEMIXER,AIR LOOP HVAC ZONE MIXER 6,SYS_3_PSZ ALL_ST=DINING - BAR LOUNGE/LEISURE_FL=STORY 3_SCH=B
     #Inlet Nodes on Return Air Path Component,1
     Return Air Path Component Nodes,1,AIRLOOPHVAC:ZONEMIXER,AIR LOOP HVAC ZONE MIXER 6,NODE 116,NODE 109,SYS_3_PSZ ALL_ST=DINING - BAR LOUNGE/LEISURE_FL=STORY 3_SCH=B
! <#Nodes on Return Air Path>,<Number of Nodes>
! <Return Air Path Node>,<Node Type>,<Node Count>,<Node Name>,<AirLoopHVAC Name>
   #Nodes on Return Air Path,2
   Return Air Path Node,Outlet Node,1,NODE 109,SYS_3_PSZ ALL_ST=DINING - BAR LOUNGE/LEISURE_FL=STORY 3_SCH=B
   Return Air Path Node,Inlet Node,2,NODE 116,SYS_3_PSZ ALL_ST=DINING - BAR LOUNGE/LEISURE_FL=STORY 3_SCH=B
 Return Air Path,6,SYS_3_PSZ ALL_ST=DINING - FAMILY SPACE_FL=STORY 3_SCH=B RETURN PATH,SYS_3_PSZ ALL_ST=DINING - FAMILY SPACE_FL=STORY 3_SCH=B
   #Components on Return Air Path,1
   Return Air Path Component,1,AIRLOOPHVAC:ZONEMIXER,AIR LOOP HVAC ZONE MIXER 7,SYS_3_PSZ ALL_ST=DINING - FAMILY SPACE_FL=STORY 3_SCH=B
     #Inlet Nodes on Return Air Path Component,1
     Return Air Path Component Nodes,1,AIRLOOPHVAC:ZONEMIXER,AIR LOOP HVAC ZONE MIXER 7,NODE 129,NODE 122,SYS_3_PSZ ALL_ST=DINING - FAMILY SPACE_FL=STORY 3_SCH=B
! <#Nodes on Return Air Path>,<Number of Nodes>
! <Return Air Path Node>,<Node Type>,<Node Count>,<Node Name>,<AirLoopHVAC Name>
   #Nodes on Return Air Path,2
   Return Air Path Node,Outlet Node,1,NODE 122,SYS_3_PSZ ALL_ST=DINING - FAMILY SPACE_FL=STORY 3_SCH=B
   Return Air Path Node,Inlet Node,2,NODE 129,SYS_3_PSZ ALL_ST=DINING - FAMILY SPACE_FL=STORY 3_SCH=B
 Return Air Path,7,SYS_3_PSZ ALL_ST=DINING - OTHER_FL=STORY 1_SCH=B RETURN PATH,SYS_3_PSZ ALL_ST=DINING - OTHER_FL=STORY 1_SCH=B
   #Components on Return Air Path,1
   Return Air Path Component,1,AIRLOOPHVAC:ZONEMIXER,AIR LOOP HVAC ZONE MIXER 8,SYS_3_PSZ ALL_ST=DINING - OTHER_FL=STORY 1_SCH=B
     #Inlet Nodes on Return Air Path Component,1
     Return Air Path Component Nodes,1,AIRLOOPHVAC:ZONEMIXER,AIR LOOP HVAC ZONE MIXER 8,NODE 142,NODE 135,SYS_3_PSZ ALL_ST=DINING - OTHER_FL=STORY 1_SCH=B
! <#Nodes on Return Air Path>,<Number of Nodes>
! <Return Air Path Node>,<Node Type>,<Node Count>,<Node Name>,<AirLoopHVAC Name>
   #Nodes on Return Air Path,2
   Return Air Path Node,Outlet Node,1,NODE 135,SYS_3_PSZ ALL_ST=DINING - OTHER_FL=STORY 1_SCH=B
   Return Air Path Node,Inlet Node,2,NODE 142,SYS_3_PSZ ALL_ST=DINING - OTHER_FL=STORY 1_SCH=B
 Return Air Path,8,SYS_3_PSZ ALL_ST=DRESS./FITT. - PERFORMANCE ARTS_FL=STORY 3_SCH=C RETURN PATH,SYS_3_PSZ ALL_ST=DRESS./FITT. - PERFORMANCE ARTS_FL=STORY 3_SCH=C
   #Components on Return Air Path,1
   Return Air Path Component,1,AIRLOOPHVAC:ZONEMIXER,AIR LOOP HVAC ZONE MIXER 9,SYS_3_PSZ ALL_ST=DRESS./FITT. - PERFORMANCE ARTS_FL=STORY 3_SCH=C
     #Inlet Nodes on Return Air Path Component,1
     Return Air Path Component Nodes,1,AIRLOOPHVAC:ZONEMIXER,AIR LOOP HVAC ZONE MIXER 9,NODE 155,NODE 148,SYS_3_PSZ ALL_ST=DRESS./FITT. - PERFORMANCE ARTS_FL=STORY 3_SCH=C
! <#Nodes on Return Air Path>,<Number of Nodes>
! <Return Air Path Node>,<Node Type>,<Node Count>,<Node Name>,<AirLoopHVAC Name>
   #Nodes on Return Air Path,2
   Return Air Path Node,Outlet Node,1,NODE 148,SYS_3_PSZ ALL_ST=DRESS./FITT. - PERFORMANCE ARTS_FL=STORY 3_SCH=C
   Return Air Path Node,Inlet Node,2,NODE 155,SYS_3_PSZ ALL_ST=DRESS./FITT. - PERFORMANCE ARTS_FL=STORY 3_SCH=C
 Return Air Path,9,SYS_3_PSZ ALL_ST=FOOD PREPARATION_FL=STORY 2_SCH=B RETURN PATH,SYS_3_PSZ ALL_ST=FOOD PREPARATION_FL=STORY 2_SCH=B
   #Components on Return Air Path,1
   Return Air Path Component,1,AIRLOOPHVAC:ZONEMIXER,AIR LOOP HVAC ZONE MIXER 10,SYS_3_PSZ ALL_ST=FOOD PREPARATION_FL=STORY 2_SCH=B
     #Inlet Nodes on Return Air Path Component,1
     Return Air Path Component Nodes,1,AIRLOOPHVAC:ZONEMIXER,AIR LOOP HVAC ZONE MIXER 10,NODE 168,NODE 161,SYS_3_PSZ ALL_ST=FOOD PREPARATION_FL=STORY 2_SCH=B
! <#Nodes on Return Air Path>,<Number of Nodes>
! <Return Air Path Node>,<Node Type>,<Node Count>,<Node Name>,<AirLoopHVAC Name>
   #Nodes on Return Air Path,2
   Return Air Path Node,Outlet Node,1,NODE 161,SYS_3_PSZ ALL_ST=FOOD PREPARATION_FL=STORY 2_SCH=B
   Return Air Path Node,Inlet Node,2,NODE 168,SYS_3_PSZ ALL_ST=FOOD PREPARATION_FL=STORY 2_SCH=B
 Return Air Path,10,SYS_3_PSZ ALL_ST=HOSPITAL - EMERGENCY_FL=STORY 2_SCH=H RETURN PATH,SYS_3_PSZ ALL_ST=HOSPITAL - EMERGENCY_FL=STORY 2_SCH=H
   #Components on Return Air Path,1
   Return Air Path Component,1,AIRLOOPHVAC:ZONEMIXER,AIR LOOP HVAC ZONE MIXER 11,SYS_3_PSZ ALL_ST=HOSPITAL - EMERGENCY_FL=STORY 2_SCH=H
     #Inlet Nodes on Return Air Path Component,1
     Return Air Path Component Nodes,1,AIRLOOPHVAC:ZONEMIXER,AIR LOOP HVAC ZONE MIXER 11,NODE 181,NODE 174,SYS_3_PSZ ALL_ST=HOSPITAL - EMERGENCY_FL=STORY 2_SCH=H
! <#Nodes on Return Air Path>,<Number of Nodes>
! <Return Air Path Node>,<Node Type>,<Node Count>,<Node Name>,<AirLoopHVAC Name>
   #Nodes on Return Air Path,2
   Return Air Path Node,Outlet Node,1,NODE 174,SYS_3_PSZ ALL_ST=HOSPITAL - EMERGENCY_FL=STORY 2_SCH=H
   Return Air Path Node,Inlet Node,2,NODE 181,SYS_3_PSZ ALL_ST=HOSPITAL - EMERGENCY_FL=STORY 2_SCH=H
 Return Air Path,11,SYS_3_PSZ ALL_ST=HOSPITAL - EXAM_FL=STORY 3_SCH=C RETURN PATH,SYS_3_PSZ ALL_ST=HOSPITAL - EXAM_FL=STORY 3_SCH=C
   #Components on Return Air Path,1
   Return Air Path Component,1,AIRLOOPHVAC:ZONEMIXER,AIR LOOP HVAC ZONE MIXER 12,SYS_3_PSZ ALL_ST=HOSPITAL - EXAM_FL=STORY 3_SCH=C
     #Inlet Nodes on Return Air Path Component,1
     Return Air Path Component Nodes,1,AIRLOOPHVAC:ZONEMIXER,AIR LOOP HVAC ZONE MIXER 12,NODE 194,NODE 187,SYS_3_PSZ ALL_ST=HOSPITAL - EXAM_FL=STORY 3_SCH=C
! <#Nodes on Return Air Path>,<Number of Nodes>
! <Return Air Path Node>,<Node Type>,<Node Count>,<Node Name>,<AirLoopHVAC Name>
   #Nodes on Return Air Path,2
   Return Air Path Node,Outlet Node,1,NODE 187,SYS_3_PSZ ALL_ST=HOSPITAL - EXAM_FL=STORY 3_SCH=C
   Return Air Path Node,Inlet Node,2,NODE 194,SYS_3_PSZ ALL_ST=HOSPITAL - EXAM_FL=STORY 3_SCH=C
 Return Air Path,12,SYS_3_PSZ ALL_ST=HOSPITAL - LAUNDRY/WASHING_FL=STORY 1_SCH=C RETURN PATH,SYS_3_PSZ ALL_ST=HOSPITAL - LAUNDRY/WASHING_FL=STORY 1_SCH=C
   #Components on Return Air Path,1
   Return Air Path Component,1,AIRLOOPHVAC:ZONEMIXER,AIR LOOP HVAC ZONE MIXER 13,SYS_3_PSZ ALL_ST=HOSPITAL - LAUNDRY/WASHING_FL=STORY 1_SCH=C
     #Inlet Nodes on Return Air Path Component,1
     Return Air Path Component Nodes,1,AIRLOOPHVAC:ZONEMIXER,AIR LOOP HVAC ZONE MIXER 13,NODE 207,NODE 200,SYS_3_PSZ ALL_ST=HOSPITAL - LAUNDRY/WASHING_FL=STORY 1_SCH=C
! <#Nodes on Return Air Path>,<Number of Nodes>
! <Return Air Path Node>,<Node Type>,<Node Count>,<Node Name>,<AirLoopHVAC Name>
   #Nodes on Return Air Path,2
   Return Air Path Node,Outlet Node,1,NODE 200,SYS_3_PSZ ALL_ST=HOSPITAL - LAUNDRY/WASHING_FL=STORY 1_SCH=C
   Return Air Path Node,Inlet Node,2,NODE 207,SYS_3_PSZ ALL_ST=HOSPITAL - LAUNDRY/WASHING_FL=STORY 1_SCH=C
 Return Air Path,13,SYS_3_PSZ ALL_ST=HOSPITAL - LOUNGE/RECREATION_FL=STORY 2_SCH=B RETURN PATH,SYS_3_PSZ ALL_ST=HOSPITAL - LOUNGE/RECREATION_FL=STORY 2_SCH=B
   #Components on Return Air Path,1
   Return Air Path Component,1,AIRLOOPHVAC:ZONEMIXER,AIR LOOP HVAC ZONE MIXER 14,SYS_3_PSZ ALL_ST=HOSPITAL - LOUNGE/RECREATION_FL=STORY 2_SCH=B
     #Inlet Nodes on Return Air Path Component,1
     Return Air Path Component Nodes,1,AIRLOOPHVAC:ZONEMIXER,AIR LOOP HVAC ZONE MIXER 14,NODE 220,NODE 213,SYS_3_PSZ ALL_ST=HOSPITAL - LOUNGE/RECREATION_FL=STORY 2_SCH=B
! <#Nodes on Return Air Path>,<Number of Nodes>
! <Return Air Path Node>,<Node Type>,<Node Count>,<Node Name>,<AirLoopHVAC Name>
   #Nodes on Return Air Path,2
   Return Air Path Node,Outlet Node,1,NODE 213,SYS_3_PSZ ALL_ST=HOSPITAL - LOUNGE/RECREATION_FL=STORY 2_SCH=B
   Return Air Path Node,Inlet Node,2,NODE 220,SYS_3_PSZ ALL_ST=HOSPITAL - LOUNGE/RECREATION_FL=STORY 2_SCH=B
 Return Air Path,14,SYS_3_PSZ ALL_ST=HOSPITAL - MEDICAL SUPPLY_FL=STORY 2_SCH=H RETURN PATH,SYS_3_PSZ ALL_ST=HOSPITAL - MEDICAL SUPPLY_FL=STORY 2_SCH=H
   #Components on Return Air Path,1
   Return Air Path Component,1,AIRLOOPHVAC:ZONEMIXER,AIR LOOP HVAC ZONE MIXER 15,SYS_3_PSZ ALL_ST=HOSPITAL - MEDICAL SUPPLY_FL=STORY 2_SCH=H
     #Inlet Nodes on Return Air Path Component,1
     Return Air Path Component Nodes,1,AIRLOOPHVAC:ZONEMIXER,AIR LOOP HVAC ZONE MIXER 15,NODE 233,NODE 226,SYS_3_PSZ ALL_ST=HOSPITAL - MEDICAL SUPPLY_FL=STORY 2_SCH=H
! <#Nodes on Return Air Path>,<Number of Nodes>
! <Return Air Path Node>,<Node Type>,<Node Count>,<Node Name>,<AirLoopHVAC Name>
   #Nodes on Return Air Path,2
   Return Air Path Node,Outlet Node,1,NODE 226,SYS_3_PSZ ALL_ST=HOSPITAL - MEDICAL SUPPLY_FL=STORY 2_SCH=H
   Return Air Path Node,Inlet Node,2,NODE 233,SYS_3_PSZ ALL_ST=HOSPITAL - MEDICAL SUPPLY_FL=STORY 2_SCH=H
 Return Air Path,15,SYS_3_PSZ DU_BT=SPACE FUNCTION_ST=DORMITORY - LIVING QUARTERS_FL=STORY 4_SCHG RETURN PATH,SYS_3_PSZ DU_BT=SPACE FUNCTION_ST=DORMITORY - LIVING QUARTERS_FL=STORY 4_SCHG
   #Components on Return Air Path,1
   Return Air Path Component,1,AIRLOOPHVAC:ZONEMIXER,AIR LOOP HVAC ZONE MIXER 1,SYS_3_PSZ DU_BT=SPACE FUNCTION_ST=DORMITORY - LIVING QUARTERS_FL=STORY 4_SCHG
     #Inlet Nodes on Return Air Path Component,1
     Return Air Path Component Nodes,1,AIRLOOPHVAC:ZONEMIXER,AIR LOOP HVAC ZONE MIXER 1,NODE 36,NODE 26,SYS_3_PSZ DU_BT=SPACE FUNCTION_ST=DORMITORY - LIVING QUARTERS_FL=STORY 4_SCHG
! <#Nodes on Return Air Path>,<Number of Nodes>
! <Return Air Path Node>,<Node Type>,<Node Count>,<Node Name>,<AirLoopHVAC Name>
   #Nodes on Return Air Path,2
   Return Air Path Node,Outlet Node,1,NODE 26,SYS_3_PSZ DU_BT=SPACE FUNCTION_ST=DORMITORY - LIVING QUARTERS_FL=STORY 4_SCHG
   Return Air Path Node,Inlet Node,2,NODE 36,SYS_3_PSZ DU_BT=SPACE FUNCTION_ST=DORMITORY - LIVING QUARTERS_FL=STORY 4_SCHG
 Return Air Path,16,SYS_4_PSZ_ALL_ST=FIRE STATION - ENGINE ROOM_FL=STORY 1_SCH=H RETURN PATH,SYS_4_PSZ_ALL_ST=FIRE STATION - ENGINE ROOM_FL=STORY 1_SCH=H
   #Components on Return Air Path,1
   Return Air Path Component,1,AIRLOOPHVAC:ZONEMIXER,AIR LOOP HVAC ZONE MIXER 16,SYS_4_PSZ_ALL_ST=FIRE STATION - ENGINE ROOM_FL=STORY 1_SCH=H
     #Inlet Nodes on Return Air Path Component,1
     Return Air Path Component Nodes,1,AIRLOOPHVAC:ZONEMIXER,AIR LOOP HVAC ZONE MIXER 16,NODE 246,NODE 239,SYS_4_PSZ_ALL_ST=FIRE STATION - ENGINE ROOM_FL=STORY 1_SCH=H
! <#Nodes on Return Air Path>,<Number of Nodes>
! <Return Air Path Node>,<Node Type>,<Node Count>,<Node Name>,<AirLoopHVAC Name>
   #Nodes on Return Air Path,2
   Return Air Path Node,Outlet Node,1,NODE 239,SYS_4_PSZ_ALL_ST=FIRE STATION - ENGINE ROOM_FL=STORY 1_SCH=H
   Return Air Path Node,Inlet Node,2,NODE 246,SYS_4_PSZ_ALL_ST=FIRE STATION - ENGINE ROOM_FL=STORY 1_SCH=H
 Return Air Path,17,SYS_4_PSZ_ALL_ST=FOOD PREPARATION - VENTED_FL=STORY 4_SCH=B RETURN PATH,SYS_4_PSZ_ALL_ST=FOOD PREPARATION - VENTED_FL=STORY 4_SCH=B
   #Components on Return Air Path,1
   Return Air Path Component,1,AIRLOOPHVAC:ZONEMIXER,AIR LOOP HVAC ZONE MIXER 17,SYS_4_PSZ_ALL_ST=FOOD PREPARATION - VENTED_FL=STORY 4_SCH=B
     #Inlet Nodes on Return Air Path Component,1
     Return Air Path Component Nodes,1,AIRLOOPHVAC:ZONEMIXER,AIR LOOP HVAC ZONE MIXER 17,NODE 259,NODE 252,SYS_4_PSZ_ALL_ST=FOOD PREPARATION - VENTED_FL=STORY 4_SCH=B
! <#Nodes on Return Air Path>,<Number of Nodes>
! <Return Air Path Node>,<Node Type>,<Node Count>,<Node Name>,<AirLoopHVAC Name>
   #Nodes on Return Air Path,2
   Return Air Path Node,Outlet Node,1,NODE 252,SYS_4_PSZ_ALL_ST=FOOD PREPARATION - VENTED_FL=STORY 4_SCH=B
   Return Air Path Node,Inlet Node,2,NODE 259,SYS_4_PSZ_ALL_ST=FOOD PREPARATION - VENTED_FL=STORY 4_SCH=B
 Return Air Path,18,SYS_6_VAV WITH REHEAT RETURN PATH,SYS_6_VAV WITH REHEAT
   #Components on Return Air Path,1
   Return Air Path Component,1,AIRLOOPHVAC:ZONEMIXER,AIR LOOP HVAC ZONE MIXER 18,SYS_6_VAV WITH REHEAT
     #Inlet Nodes on Return Air Path Component,2
     Return Air Path Component Nodes,1,AIRLOOPHVAC:ZONEMIXER,AIR LOOP HVAC ZONE MIXER 18,NODE 305,NODE 292,SYS_6_VAV WITH REHEAT
     Return Air Path Component Nodes,2,AIRLOOPHVAC:ZONEMIXER,AIR LOOP HVAC ZONE MIXER 18,NODE 312,NODE 292,SYS_6_VAV WITH REHEAT
! <#Nodes on Return Air Path>,<Number of Nodes>
! <Return Air Path Node>,<Node Type>,<Node Count>,<Node Name>,<AirLoopHVAC Name>
   #Nodes on Return Air Path,3
   Return Air Path Node,Outlet Node,1,NODE 292,SYS_6_VAV WITH REHEAT
   Return Air Path Node,Inlet Node,2,NODE 305,SYS_6_VAV WITH REHEAT
   Return Air Path Node,Inlet Node,3,NODE 312,SYS_6_VAV WITH REHEAT
 Return Air Path,19,SYS_6_VAV WITH REHEAT 1 RETURN PATH,SYS_6_VAV WITH REHEAT 1
   #Components on Return Air Path,1
   Return Air Path Component,1,AIRLOOPHVAC:ZONEMIXER,AIR LOOP HVAC ZONE MIXER 19,SYS_6_VAV WITH REHEAT 1
     #Inlet Nodes on Return Air Path Component,1
     Return Air Path Component Nodes,1,AIRLOOPHVAC:ZONEMIXER,AIR LOOP HVAC ZONE MIXER 19,NODE 333,NODE 319,SYS_6_VAV WITH REHEAT 1
! <#Nodes on Return Air Path>,<Number of Nodes>
! <Return Air Path Node>,<Node Type>,<Node Count>,<Node Name>,<AirLoopHVAC Name>
   #Nodes on Return Air Path,2
   Return Air Path Node,Outlet Node,1,NODE 319,SYS_6_VAV WITH REHEAT 1
   Return Air Path Node,Inlet Node,2,NODE 333,SYS_6_VAV WITH REHEAT 1
! ===============================================================
! #Outdoor Air Nodes,<Number of Outdoor Air Nodes>
 #Outdoor Air Nodes,22
! <Outdoor Air Node>,<NodeNumber>,<Node Name>
 Outdoor Air Node,362,DU_BT=SPACE FUNCTION_ST=DWELLING UNIT(S)_FL=STORY 2_SCHG PTAC OA NODE
 Outdoor Air Node,363,DU_BT=SPACE FUNCTION_ST=FIRE STATION - QUARTERS_FL=STORY 4_SCHG PTAC OA NODE
 Outdoor Air Node,364,NODE 50
 Outdoor Air Node,365,NODE 70
 Outdoor Air Node,366,NODE 85
 Outdoor Air Node,367,NODE 98
 Outdoor Air Node,368,NODE 111
 Outdoor Air Node,369,NODE 124
 Outdoor Air Node,370,NODE 137
 Outdoor Air Node,371,NODE 150
 Outdoor Air Node,372,NODE 163
 Outdoor Air Node,373,NODE 176
 Outdoor Air Node,374,NODE 189
 Outdoor Air Node,375,NODE 202
 Outdoor Air Node,376,NODE 215
 Outdoor Air Node,377,NODE 228
 Outdoor Air Node,378,NODE 29
 Outdoor Air Node,379,NODE 241
 Outdoor Air Node,380,NODE 254
 Outdoor Air Node,381,NODE 297
 Outdoor Air Node,382,NODE 325
 Outdoor Air Node,383,MODEL OUTDOOR AIR NODE
! ===============================================================
! <#Component Sets>,<Number of Component Sets>
 #Component Sets,224
! <Component Set>,<Component Set Count>,<Parent Object Type>,<Parent Object Name>,<Component Type>,<Component Name>,<Inlet Node ID>,<Outlet Node ID>,<Description>
 Component Set,1,BRANCH,SYS_1_MAKE-UP AIR UNIT MAIN BRANCH,AIRLOOPHVAC:OUTDOORAIRSYSTEM,AIR LOOP HVAC OUTDOOR AIR SYSTEM 2,NODE 39,NODE 56,Air Nodes
 Component Set,2,BRANCH,SYS_1_MAKE-UP AIR UNIT MAIN BRANCH,COILSYSTEM:COOLING:DX,COIL COOLING DX SINGLE SPEED 2 37KBTU/HR 14.0SEER COILSYSTEM,NODE 56,NODE 54,Air Nodes
 Component Set,3,BRANCH,SYS_1_MAKE-UP AIR UNIT MAIN BRANCH,COIL:HEATING:WATER,COIL HEATING WATER 1,NODE 54,NODE 53,Air Nodes
 Component Set,4,BRANCH,SYS_1_MAKE-UP AIR UNIT MAIN BRANCH,FAN:CONSTANTVOLUME,FAN CONSTANT VOLUME 2,NODE 53,NODE 41,Air Nodes
 Component Set,5,BRANCH,SYS_1_MAKE-UP AIR UNIT 1 MAIN BRANCH,AIRLOOPHVAC:OUTDOORAIRSYSTEM,AIR LOOP HVAC OUTDOOR AIR SYSTEM 3,NODE 63,NODE 74,Air Nodes
 Component Set,6,BRANCH,SYS_1_MAKE-UP AIR UNIT 1 MAIN BRANCH,COILSYSTEM:COOLING:DX,COIL COOLING DX SINGLE SPEED 4 93KBTU/HR 9.7EER COILSYSTEM,NODE 74,NODE 73,Air Nodes
 Component Set,7,BRANCH,SYS_1_MAKE-UP AIR UNIT 1 MAIN BRANCH,COIL:HEATING:WATER,COIL HEATING WATER 2,NODE 73,NODE 72,Air Nodes
 Component Set,8,BRANCH,SYS_1_MAKE-UP AIR UNIT 1 MAIN BRANCH,FAN:CONSTANTVOLUME,FAN CONSTANT VOLUME 4,NODE 72,NODE 64,Air Nodes
 Component Set,9,BRANCH,SYS_3_PSZ ALL_ST=COURTHOUSE - CHAMBERS_FL=STORY 4_SCH=A MAIN BRANCH,AIRLOOPHVAC:OUTDOORAIRSYSTEM,AIR LOOP HVAC OUTDOOR AIR SYSTEM 4,NODE 80,NODE 89,Air Nodes
 Component Set,10,BRANCH,SYS_3_PSZ ALL_ST=COURTHOUSE - CHAMBERS_FL=STORY 4_SCH=A MAIN BRANCH,COILSYSTEM:COOLING:DX,COIL COOLING DX SINGLE SPEED 6 431KBTU/HR 8.21EER COILSYSTEM,NODE 89,NODE 88,Air Nodes
 Component Set,11,BRANCH,SYS_3_PSZ ALL_ST=COURTHOUSE - CHAMBERS_FL=STORY 4_SCH=A MAIN BRANCH,COIL:HEATING:FUEL,COIL HEATING GAS 2,NODE 88,NODE 87,Air Nodes
 Component Set,12,BRANCH,SYS_3_PSZ ALL_ST=COURTHOUSE - CHAMBERS_FL=STORY 4_SCH=A MAIN BRANCH,FAN:CONSTANTVOLUME,FAN CONSTANT VOLUME 6,NODE 87,NODE 81,Air Nodes
 Component Set,13,BRANCH,SYS_3_PSZ ALL_ST=COURTHOUSE - COURTROOM_FL=STORY 3_SCH=A MAIN BRANCH,AIRLOOPHVAC:OUTDOORAIRSYSTEM,AIR LOOP HVAC OUTDOOR AIR SYSTEM 5,NODE 93,NODE 102,Air Nodes
 Component Set,14,BRANCH,SYS_3_PSZ ALL_ST=COURTHOUSE - COURTROOM_FL=STORY 3_SCH=A MAIN BRANCH,COILSYSTEM:COOLING:DX,COIL COOLING DX SINGLE SPEED 7 362KBTU/HR 8.21EER COILSYSTEM,NODE 102,NODE 101,Air Nodes
 Component Set,15,BRANCH,SYS_3_PSZ ALL_ST=COURTHOUSE - COURTROOM_FL=STORY 3_SCH=A MAIN BRANCH,COIL:HEATING:FUEL,COIL HEATING GAS 3,NODE 101,NODE 100,Air Nodes
 Component Set,16,BRANCH,SYS_3_PSZ ALL_ST=COURTHOUSE - COURTROOM_FL=STORY 3_SCH=A MAIN BRANCH,FAN:CONSTANTVOLUME,FAN CONSTANT VOLUME 7,NODE 100,NODE 94,Air Nodes
 Component Set,17,BRANCH,SYS_3_PSZ ALL_ST=DINING - BAR LOUNGE/LEISURE_FL=STORY 3_SCH=B MAIN BRANCH,AIRLOOPHVAC:OUTDOORAIRSYSTEM,AIR LOOP HVAC OUTDOOR AIR SYSTEM 6,NODE 106,NODE 115,Air Nodes
 Component Set,18,BRANCH,SYS_3_PSZ ALL_ST=DINING - BAR LOUNGE/LEISURE_FL=STORY 3_SCH=B MAIN BRANCH,COILSYSTEM:COOLING:DX,COIL COOLING DX SINGLE SPEED 8 379KBTU/HR 8.21EER COILSYSTEM,NODE 115,NODE 114,Air Nodes
 Component Set,19,BRANCH,SYS_3_PSZ ALL_ST=DINING - BAR LOUNGE/LEISURE_FL=STORY 3_SCH=B MAIN BRANCH,COIL:HEATING:FUEL,COIL HEATING GAS 4,NODE 114,NODE 113,Air Nodes
 Component Set,20,BRANCH,SYS_3_PSZ ALL_ST=DINING - BAR LOUNGE/LEISURE_FL=STORY 3_SCH=B MAIN BRANCH,FAN:CONSTANTVOLUME,FAN CONSTANT VOLUME 8,NODE 113,NODE 107,Air Nodes
 Component Set,21,BRANCH,SYS_3_PSZ ALL_ST=DINING - FAMILY SPACE_FL=STORY 3_SCH=B MAIN BRANCH,AIRLOOPHVAC:OUTDOORAIRSYSTEM,AIR LOOP HVAC OUTDOOR AIR SYSTEM 7,NODE 119,NODE 128,Air Nodes
 Component Set,22,BRANCH,SYS_3_PSZ ALL_ST=DINING - FAMILY SPACE_FL=STORY 3_SCH=B MAIN BRANCH,COILSYSTEM:COOLING:DX,COIL COOLING DX SINGLE SPEED 9 379KBTU/HR 8.21EER COILSYSTEM,NODE 128,NODE 127,Air Nodes
 Component Set,23,BRANCH,SYS_3_PSZ ALL_ST=DINING - FAMILY SPACE_FL=STORY 3_SCH=B MAIN BRANCH,COIL:HEATING:FUEL,COIL HEATING GAS 5,NODE 127,NODE 126,Air Nodes
 Component Set,24,BRANCH,SYS_3_PSZ ALL_ST=DINING - FAMILY SPACE_FL=STORY 3_SCH=B MAIN BRANCH,FAN:CONSTANTVOLUME,FAN CONSTANT VOLUME 9,NODE 126,NODE 120,Air Nodes
 Component Set,25,BRANCH,SYS_3_PSZ ALL_ST=DINING - OTHER_FL=STORY 1_SCH=B MAIN BRANCH,AIRLOOPHVAC:OUTDOORAIRSYSTEM,AIR LOOP HVAC OUTDOOR AIR SYSTEM 8,NODE 132,NODE 141,Air Nodes
 Component Set,26,BRANCH,SYS_3_PSZ ALL_ST=DINING - OTHER_FL=STORY 1_SCH=B MAIN BRANCH,COILSYSTEM:COOLING:DX,COIL COOLING DX SINGLE SPEED 10 379KBTU/HR 8.21EER COILSYSTEM,NODE 141,NODE 140,Air Nodes
 Component Set,27,BRANCH,SYS_3_PSZ ALL_ST=DINING - OTHER_FL=STORY 1_SCH=B MAIN BRANCH,COIL:HEATING:FUEL,COIL HEATING GAS 6,NODE 140,NODE 139,Air Nodes
 Component Set,28,BRANCH,SYS_3_PSZ ALL_ST=DINING - OTHER_FL=STORY 1_SCH=B MAIN BRANCH,FAN:CONSTANTVOLUME,FAN CONSTANT VOLUME 10,NODE 139,NODE 133,Air Nodes
 Component Set,29,BRANCH,SYS_3_PSZ ALL_ST=DRESS./FITT. - PERFORMANCE ARTS_FL=STORY 3_SCH=C MAIN BRANCH,AIRLOOPHVAC:OUTDOORAIRSYSTEM,AIR LOOP HVAC OUTDOOR AIR SYSTEM 9,NODE 145,NODE 154,Air Nodes
 Component Set,30,BRANCH,SYS_3_PSZ ALL_ST=DRESS./FITT. - PERFORMANCE ARTS_FL=STORY 3_SCH=C MAIN BRANCH,COILSYSTEM:COOLING:DX,COIL COOLING DX SINGLE SPEED 11 186KBTU/HR 9.7EER COILSYSTEM,NODE 154,NODE 153,Air Nodes
 Component Set,31,BRANCH,SYS_3_PSZ ALL_ST=DRESS./FITT. - PERFORMANCE ARTS_FL=STORY 3_SCH=C MAIN BRANCH,COIL:HEATING:FUEL,COIL HEATING GAS 7,NODE 153,NODE 152,Air Nodes
 Component Set,32,BRANCH,SYS_3_PSZ ALL_ST=DRESS./FITT. - PERFORMANCE ARTS_FL=STORY 3_SCH=C MAIN BRANCH,FAN:CONSTANTVOLUME,FAN CONSTANT VOLUME 11,NODE 152,NODE 146,Air Nodes
 Component Set,33,BRANCH,SYS_3_PSZ ALL_ST=FOOD PREPARATION_FL=STORY 2_SCH=B MAIN BRANCH,AIRLOOPHVAC:OUTDOORAIRSYSTEM,AIR LOOP HVAC OUTDOOR AIR SYSTEM 10,NODE 158,NODE 167,Air Nodes
 Component Set,34,BRANCH,SYS_3_PSZ ALL_ST=FOOD PREPARATION_FL=STORY 2_SCH=B MAIN BRANCH,COILSYSTEM:COOLING:DX,COIL COOLING DX SINGLE SPEED 12 252KBTU/HR 8.21EER COILSYSTEM,NODE 167,NODE 166,Air Nodes
 Component Set,35,BRANCH,SYS_3_PSZ ALL_ST=FOOD PREPARATION_FL=STORY 2_SCH=B MAIN BRANCH,COIL:HEATING:FUEL,COIL HEATING GAS 8,NODE 166,NODE 165,Air Nodes
 Component Set,36,BRANCH,SYS_3_PSZ ALL_ST=FOOD PREPARATION_FL=STORY 2_SCH=B MAIN BRANCH,FAN:CONSTANTVOLUME,FAN CONSTANT VOLUME 12,NODE 165,NODE 159,Air Nodes
 Component Set,37,BRANCH,SYS_3_PSZ ALL_ST=HOSPITAL - EMERGENCY_FL=STORY 2_SCH=H MAIN BRANCH,AIRLOOPHVAC:OUTDOORAIRSYSTEM,AIR LOOP HVAC OUTDOOR AIR SYSTEM 11,NODE 171,NODE 180,Air Nodes
 Component Set,38,BRANCH,SYS_3_PSZ ALL_ST=HOSPITAL - EMERGENCY_FL=STORY 2_SCH=H MAIN BRANCH,COILSYSTEM:COOLING:DX,COIL COOLING DX SINGLE SPEED 13 348KBTU/HR 8.21EER COILSYSTEM,NODE 180,NODE 179,Air Nodes
 Component Set,39,BRANCH,SYS_3_PSZ ALL_ST=HOSPITAL - EMERGENCY_FL=STORY 2_SCH=H MAIN BRANCH,COIL:HEATING:FUEL,COIL HEATING GAS 9,NODE 179,NODE 178,Air Nodes
 Component Set,40,BRANCH,SYS_3_PSZ ALL_ST=HOSPITAL - EMERGENCY_FL=STORY 2_SCH=H MAIN BRANCH,FAN:CONSTANTVOLUME,FAN CONSTANT VOLUME 13,NODE 178,NODE 172,Air Nodes
 Component Set,41,BRANCH,SYS_3_PSZ ALL_ST=HOSPITAL - EXAM_FL=STORY 3_SCH=C MAIN BRANCH,AIRLOOPHVAC:OUTDOORAIRSYSTEM,AIR LOOP HVAC OUTDOOR AIR SYSTEM 12,NODE 184,NODE 193,Air Nodes
 Component Set,42,BRANCH,SYS_3_PSZ ALL_ST=HOSPITAL - EXAM_FL=STORY 3_SCH=C MAIN BRANCH,COILSYSTEM:COOLING:DX,COIL COOLING DX SINGLE SPEED 14 348KBTU/HR 8.21EER COILSYSTEM,NODE 193,NODE 192,Air Nodes
 Component Set,43,BRANCH,SYS_3_PSZ ALL_ST=HOSPITAL - EXAM_FL=STORY 3_SCH=C MAIN BRANCH,COIL:HEATING:FUEL,COIL HEATING GAS 10,NODE 192,NODE 191,Air Nodes
 Component Set,44,BRANCH,SYS_3_PSZ ALL_ST=HOSPITAL - EXAM_FL=STORY 3_SCH=C MAIN BRANCH,FAN:CONSTANTVOLUME,FAN CONSTANT VOLUME 14,NODE 191,NODE 185,Air Nodes
 Component Set,45,BRANCH,SYS_3_PSZ ALL_ST=HOSPITAL - LAUNDRY/WASHING_FL=STORY 1_SCH=C MAIN BRANCH,AIRLOOPHVAC:OUTDOORAIRSYSTEM,AIR LOOP HVAC OUTDOOR AIR SYSTEM 13,NODE 197,NODE 206,Air Nodes
 Component Set,46,BRANCH,SYS_3_PSZ ALL_ST=HOSPITAL - LAUNDRY/WASHING_FL=STORY 1_SCH=C MAIN BRANCH,COILSYSTEM:COOLING:DX,COIL COOLING DX SINGLE SPEED 15 332KBTU/HR 8.21EER COILSYSTEM,NODE 206,NODE 205,Air Nodes
 Component Set,47,BRANCH,SYS_3_PSZ ALL_ST=HOSPITAL - LAUNDRY/WASHING_FL=STORY 1_SCH=C MAIN BRANCH,COIL:HEATING:FUEL,COIL HEATING GAS 11,NODE 205,NODE 204,Air Nodes
 Component Set,48,BRANCH,SYS_3_PSZ ALL_ST=HOSPITAL - LAUNDRY/WASHING_FL=STORY 1_SCH=C MAIN BRANCH,FAN:CONSTANTVOLUME,FAN CONSTANT VOLUME 15,NODE 204,NODE 198,Air Nodes
 Component Set,49,BRANCH,SYS_3_PSZ ALL_ST=HOSPITAL - LOUNGE/RECREATION_FL=STORY 2_SCH=B MAIN BRANCH,AIRLOOPHVAC:OUTDOORAIRSYSTEM,AIR LOOP HVAC OUTDOOR AIR SYSTEM 14,NODE 210,NODE 219,Air Nodes
 Component Set,50,BRANCH,SYS_3_PSZ ALL_ST=HOSPITAL - LOUNGE/RECREATION_FL=STORY 2_SCH=B MAIN BRANCH,COILSYSTEM:COOLING:DX,COIL COOLING DX SINGLE SPEED 16 163KBTU/HR 9.7EER COILSYSTEM,NODE 219,NODE 218,Air Nodes
 Component Set,51,BRANCH,SYS_3_PSZ ALL_ST=HOSPITAL - LOUNGE/RECREATION_FL=STORY 2_SCH=B MAIN BRANCH,COIL:HEATING:FUEL,COIL HEATING GAS 12,NODE 218,NODE 217,Air Nodes
 Component Set,52,BRANCH,SYS_3_PSZ ALL_ST=HOSPITAL - LOUNGE/RECREATION_FL=STORY 2_SCH=B MAIN BRANCH,FAN:CONSTANTVOLUME,FAN CONSTANT VOLUME 16,NODE 217,NODE 211,Air Nodes
 Component Set,53,BRANCH,SYS_3_PSZ ALL_ST=HOSPITAL - MEDICAL SUPPLY_FL=STORY 2_SCH=H MAIN BRANCH,AIRLOOPHVAC:OUTDOORAIRSYSTEM,AIR LOOP HVAC OUTDOOR AIR SYSTEM 15,NODE 223,NODE 232,Air Nodes
 Component Set,54,BRANCH,SYS_3_PSZ ALL_ST=HOSPITAL - MEDICAL SUPPLY_FL=STORY 2_SCH=H MAIN BRANCH,COILSYSTEM:COOLING:DX,COIL COOLING DX SINGLE SPEED 17 231KBTU/HR 9.7EER COILSYSTEM,NODE 232,NODE 231,Air Nodes
 Component Set,55,BRANCH,SYS_3_PSZ ALL_ST=HOSPITAL - MEDICAL SUPPLY_FL=STORY 2_SCH=H MAIN BRANCH,COIL:HEATING:FUEL,COIL HEATING GAS 13,NODE 231,NODE 230,Air Nodes
 Component Set,56,BRANCH,SYS_3_PSZ ALL_ST=HOSPITAL - MEDICAL SUPPLY_FL=STORY 2_SCH=H MAIN BRANCH,FAN:CONSTANTVOLUME,FAN CONSTANT VOLUME 17,NODE 230,NODE 224,Air Nodes
 Component Set,57,BRANCH,SYS_3_PSZ DU_BT=SPACE FUNCTION_ST=DORMITORY - LIVING QUARTERS_FL=STORY 4_SCHG MAIN BRANCH,AIRLOOPHVAC:OUTDOORAIRSYSTEM,AIR LOOP HVAC OUTDOOR AIR SYSTEM 1,NODE 21,NODE 35,Air Nodes
 Component Set,58,BRANCH,SYS_3_PSZ DU_BT=SPACE FUNCTION_ST=DORMITORY - LIVING QUARTERS_FL=STORY 4_SCHG MAIN BRANCH,COILSYSTEM:COOLING:DX,COIL COOLING DX SINGLE SPEED 1 293KBTU/HR 8.21EER COILSYSTEM,NODE 35,NODE 33,Air Nodes
 Component Set,59,BRANCH,SYS_3_PSZ DU_BT=SPACE FUNCTION_ST=DORMITORY - LIVING QUARTERS_FL=STORY 4_SCHG MAIN BRANCH,COIL:HEATING:FUEL,COIL HEATING GAS 1,NODE 33,NODE 32,Air Nodes
 Component Set,60,BRANCH,SYS_3_PSZ DU_BT=SPACE FUNCTION_ST=DORMITORY - LIVING QUARTERS_FL=STORY 4_SCHG MAIN BRANCH,FAN:CONSTANTVOLUME,FAN CONSTANT VOLUME 1,NODE 32,NODE 23,Air Nodes
 Component Set,61,BRANCH,SYS_4_PSZ_ALL_ST=FIRE STATION - ENGINE ROOM_FL=STORY 1_SCH=H MAIN BRANCH,AIRLOOPHVAC:OUTDOORAIRSYSTEM,AIR LOOP HVAC OUTDOOR AIR SYSTEM 16,NODE 236,NODE 245,Air Nodes
 Component Set,62,BRANCH,SYS_4_PSZ_ALL_ST=FIRE STATION - ENGINE ROOM_FL=STORY 1_SCH=H MAIN BRANCH,COILSYSTEM:COOLING:DX,COIL COOLING DX SINGLE SPEED 18 135KBTU/HR 9.7EER COILSYSTEM,NODE 245,NODE 244,Air Nodes
 Component Set,63,BRANCH,SYS_4_PSZ_ALL_ST=FIRE STATION - ENGINE ROOM_FL=STORY 1_SCH=H MAIN BRANCH,COIL:HEATING:FUEL,COIL HEATING GAS 14,NODE 244,NODE 243,Air Nodes
 Component Set,64,BRANCH,SYS_4_PSZ_ALL_ST=FIRE STATION - ENGINE ROOM_FL=STORY 1_SCH=H MAIN BRANCH,FAN:CONSTANTVOLUME,FAN CONSTANT VOLUME 18,NODE 243,NODE 237,Air Nodes
 Component Set,65,BRANCH,SYS_4_PSZ_ALL_ST=FOOD PREPARATION - VENTED_FL=STORY 4_SCH=B MAIN BRANCH,AIRLOOPHVAC:OUTDOORAIRSYSTEM,AIR LOOP HVAC OUTDOOR AIR SYSTEM 17,NODE 249,NODE 258,Air Nodes
 Component Set,66,BRANCH,SYS_4_PSZ_ALL_ST=FOOD PREPARATION - VENTED_FL=STORY 4_SCH=B MAIN BRANCH,COILSYSTEM:COOLING:DX,COIL COOLING DX SINGLE SPEED 19 387KBTU/HR 8.21EER COILSYSTEM,NODE 258,NODE 257,Air Nodes
 Component Set,67,BRANCH,SYS_4_PSZ_ALL_ST=FOOD PREPARATION - VENTED_FL=STORY 4_SCH=B MAIN BRANCH,COIL:HEATING:FUEL,COIL HEATING GAS 15,NODE 257,NODE 256,Air Nodes
 Component Set,68,BRANCH,SYS_4_PSZ_ALL_ST=FOOD PREPARATION - VENTED_FL=STORY 4_SCH=B MAIN BRANCH,FAN:CONSTANTVOLUME,FAN CONSTANT VOLUME 19,NODE 256,NODE 250,Air Nodes
 Component Set,69,BRANCH,SYS_6_VAV WITH REHEAT MAIN BRANCH,FAN:VARIABLEVOLUME,SYS6 RETURN FAN,NODE 289,NODE 302,Air Nodes
 Component Set,70,BRANCH,SYS_6_VAV WITH REHEAT MAIN BRANCH,AIRLOOPHVAC:OUTDOORAIRSYSTEM,AIR LOOP HVAC OUTDOOR AIR SYSTEM 18,NODE 302,NODE 301,Air Nodes
 Component Set,71,BRANCH,SYS_6_VAV WITH REHEAT MAIN BRANCH,COIL:COOLING:WATER,COIL COOLING WATER 1,NODE 301,NODE 300,Air Nodes
 Component Set,72,BRANCH,SYS_6_VAV WITH REHEAT MAIN BRANCH,COIL:HEATING:WATER,COIL HEATING WATER 3,NODE 300,NODE 299,Air Nodes
 Component Set,73,BRANCH,SYS_6_VAV WITH REHEAT MAIN BRANCH,FAN:VARIABLEVOLUME,SYS6 SUPPLY FAN,NODE 299,NODE 290,Air Nodes
 Component Set,74,BRANCH,SYS_6_VAV WITH REHEAT 1 MAIN BRANCH,FAN:VARIABLEVOLUME,SYS6 RETURN FAN 1,NODE 316,NODE 330,Air Nodes
 Component Set,75,BRANCH,SYS_6_VAV WITH REHEAT 1 MAIN BRANCH,AIRLOOPHVAC:OUTDOORAIRSYSTEM,AIR LOOP HVAC OUTDOOR AIR SYSTEM 19,NODE 330,NODE 329,Air Nodes
 Component Set,76,BRANCH,SYS_6_VAV WITH REHEAT 1 MAIN BRANCH,COIL:COOLING:WATER,COIL COOLING WATER 2,NODE 329,NODE 328,Air Nodes
 Component Set,77,BRANCH,SYS_6_VAV WITH REHEAT 1 MAIN BRANCH,COIL:HEATING:WATER,COIL HEATING WATER 6,NODE 328,NODE 327,Air Nodes
 Component Set,78,BRANCH,SYS_6_VAV WITH REHEAT 1 MAIN BRANCH,FAN:VARIABLEVOLUME,SYS6 SUPPLY FAN 1,NODE 327,NODE 317,Air Nodes
 Component Set,79,BRANCH,CHILLED WATER LOOP SUPPLY INLET BRANCH,PUMP:CONSTANTSPEED,PUMP CONSTANT SPEED 1,NODE 262,NODE 268,Water Nodes
 Component Set,80,BRANCH,CHILLED WATER LOOP SUPPLY BRANCH 1,CHILLER:ELECTRIC:EIR,PRIMARY CHILLER WATERCOOLED SCROLL 97TONS 0.8KW/TON,NODE 264,NODE 269,Chilled Water Nodes
 Component Set,81,BRANCH,CHILLED WATER LOOP SUPPLY BRANCH 2,CHILLER:ELECTRIC:EIR,SECONDARY CHILLER WATERCOOLED SCROLL 0TONS 0.8KW/TON,NODE 270,NODE 271,Chilled Water Nodes
 Component Set,82,BRANCH,CHILLED WATER LOOP SUPPLY BRANCH 3,PIPE:ADIABATIC,PIPE ADIABATIC 3,NODE 272,NODE 273,Pipe Nodes
 Component Set,83,BRANCH,CHILLED WATER LOOP SUPPLY OUTLET BRANCH,PIPE:ADIABATIC,PIPE ADIABATIC 4,NODE 274,NODE 263,Pipe Nodes
 Component Set,84,BRANCH,CHILLED WATER LOOP DEMAND INLET BRANCH,PIPE:ADIABATIC,CHILLED WATER LOOP DEMAND INLET PIPE,NODE 265,CHILLED WATER LOOP DEMAND INLET PIPE NODE,Pipe Nodes
[...]
 Non-Parent Node Connection,NODE 181,AIRLOOPHVAC:ZONEMIXER,AIR LOOP HVAC ZONE MIXER 11,Inlet,1
 Non-Parent Node Connection,NODE 187,AIRLOOPHVAC:ZONEMIXER,AIR LOOP HVAC ZONE MIXER 12,Outlet,1
 Non-Parent Node Connection,NODE 194,AIRLOOPHVAC:ZONEMIXER,AIR LOOP HVAC ZONE MIXER 12,Inlet,1
 Non-Parent Node Connection,NODE 200,AIRLOOPHVAC:ZONEMIXER,AIR LOOP HVAC ZONE MIXER 13,Outlet,1
 Non-Parent Node Connection,NODE 207,AIRLOOPHVAC:ZONEMIXER,AIR LOOP HVAC ZONE MIXER 13,Inlet,1
 Non-Parent Node Connection,NODE 213,AIRLOOPHVAC:ZONEMIXER,AIR LOOP HVAC ZONE MIXER 14,Outlet,1
 Non-Parent Node Connection,NODE 220,AIRLOOPHVAC:ZONEMIXER,AIR LOOP HVAC ZONE MIXER 14,Inlet,1
 Non-Parent Node Connection,NODE 226,AIRLOOPHVAC:ZONEMIXER,AIR LOOP HVAC ZONE MIXER 15,Outlet,1
 Non-Parent Node Connection,NODE 233,AIRLOOPHVAC:ZONEMIXER,AIR LOOP HVAC ZONE MIXER 15,Inlet,1
 Non-Parent Node Connection,NODE 26,AIRLOOPHVAC:ZONEMIXER,AIR LOOP HVAC ZONE MIXER 1,Outlet,1
 Non-Parent Node Connection,NODE 36,AIRLOOPHVAC:ZONEMIXER,AIR LOOP HVAC ZONE MIXER 1,Inlet,1
 Non-Parent Node Connection,NODE 239,AIRLOOPHVAC:ZONEMIXER,AIR LOOP HVAC ZONE MIXER 16,Outlet,1
 Non-Parent Node Connection,NODE 246,AIRLOOPHVAC:ZONEMIXER,AIR LOOP HVAC ZONE MIXER 16,Inlet,1
 Non-Parent Node Connection,NODE 252,AIRLOOPHVAC:ZONEMIXER,AIR LOOP HVAC ZONE MIXER 17,Outlet,1
 Non-Parent Node Connection,NODE 259,AIRLOOPHVAC:ZONEMIXER,AIR LOOP HVAC ZONE MIXER 17,Inlet,1
 Non-Parent Node Connection,NODE 292,AIRLOOPHVAC:ZONEMIXER,AIR LOOP HVAC ZONE MIXER 18,Outlet,1
 Non-Parent Node Connection,NODE 305,AIRLOOPHVAC:ZONEMIXER,AIR LOOP HVAC ZONE MIXER 18,Inlet,1
 Non-Parent Node Connection,NODE 312,AIRLOOPHVAC:ZONEMIXER,AIR LOOP HVAC ZONE MIXER 18,Inlet,1
 Non-Parent Node Connection,NODE 319,AIRLOOPHVAC:ZONEMIXER,AIR LOOP HVAC ZONE MIXER 19,Outlet,1
 Non-Parent Node Connection,NODE 333,AIRLOOPHVAC:ZONEMIXER,AIR LOOP HVAC ZONE MIXER 19,Inlet,1
 Non-Parent Node Connection,NODE 56,CONTROLLER:OUTDOORAIR,CONTROLLER OUTDOOR AIR 2,Sensor,1
 Non-Parent Node Connection,NODE 50,CONTROLLER:OUTDOORAIR,CONTROLLER OUTDOOR AIR 2,Actuator,1
 Non-Parent Node Connection,NODE 51,CONTROLLER:OUTDOORAIR,CONTROLLER OUTDOOR AIR 2,Actuator,1
 Non-Parent Node Connection,NODE 39,CONTROLLER:OUTDOORAIR,CONTROLLER OUTDOOR AIR 2,Sensor,1
 Non-Parent Node Connection,NODE 74,CONTROLLER:OUTDOORAIR,CONTROLLER OUTDOOR AIR 3,Sensor,1
 Non-Parent Node Connection,NODE 70,CONTROLLER:OUTDOORAIR,CONTROLLER OUTDOOR AIR 3,Actuator,1
 Non-Parent Node Connection,NODE 71,CONTROLLER:OUTDOORAIR,CONTROLLER OUTDOOR AIR 3,Actuator,1
 Non-Parent Node Connection,NODE 63,CONTROLLER:OUTDOORAIR,CONTROLLER OUTDOOR AIR 3,Sensor,1
 Non-Parent Node Connection,NODE 89,CONTROLLER:OUTDOORAIR,CONTROLLER OUTDOOR AIR 4,Sensor,1
 Non-Parent Node Connection,NODE 85,CONTROLLER:OUTDOORAIR,CONTROLLER OUTDOOR AIR 4,Actuator,1
 Non-Parent Node Connection,NODE 86,CONTROLLER:OUTDOORAIR,CONTROLLER OUTDOOR AIR 4,Actuator,1
 Non-Parent Node Connection,NODE 80,CONTROLLER:OUTDOORAIR,CONTROLLER OUTDOOR AIR 4,Sensor,1
 Non-Parent Node Connection,NODE 102,CONTROLLER:OUTDOORAIR,CONTROLLER OUTDOOR AIR 5,Sensor,1
 Non-Parent Node Connection,NODE 98,CONTROLLER:OUTDOORAIR,CONTROLLER OUTDOOR AIR 5,Actuator,1
 Non-Parent Node Connection,NODE 391,CONTROLLER:OUTDOORAIR,CONTROLLER OUTDOOR AIR 5,Actuator,1
 Non-Parent Node Connection,NODE 93,CONTROLLER:OUTDOORAIR,CONTROLLER OUTDOOR AIR 5,Sensor,1
 Non-Parent Node Connection,NODE 115,CONTROLLER:OUTDOORAIR,CONTROLLER OUTDOOR AIR 6,Sensor,1
 Non-Parent Node Connection,NODE 111,CONTROLLER:OUTDOORAIR,CONTROLLER OUTDOOR AIR 6,Actuator,1
 Non-Parent Node Connection,NODE 393,CONTROLLER:OUTDOORAIR,CONTROLLER OUTDOOR AIR 6,Actuator,1
 Non-Parent Node Connection,NODE 106,CONTROLLER:OUTDOORAIR,CONTROLLER OUTDOOR AIR 6,Sensor,1
 Non-Parent Node Connection,NODE 128,CONTROLLER:OUTDOORAIR,CONTROLLER OUTDOOR AIR 7,Sensor,1
 Non-Parent Node Connection,NODE 124,CONTROLLER:OUTDOORAIR,CONTROLLER OUTDOOR AIR 7,Actuator,1
 Non-Parent Node Connection,NODE 395,CONTROLLER:OUTDOORAIR,CONTROLLER OUTDOOR AIR 7,Actuator,1
 Non-Parent Node Connection,NODE 119,CONTROLLER:OUTDOORAIR,CONTROLLER OUTDOOR AIR 7,Sensor,1
 Non-Parent Node Connection,NODE 141,CONTROLLER:OUTDOORAIR,CONTROLLER OUTDOOR AIR 8,Sensor,1
 Non-Parent Node Connection,NODE 137,CONTROLLER:OUTDOORAIR,CONTROLLER OUTDOOR AIR 8,Actuator,1
 Non-Parent Node Connection,NODE 397,CONTROLLER:OUTDOORAIR,CONTROLLER OUTDOOR AIR 8,Actuator,1
 Non-Parent Node Connection,NODE 132,CONTROLLER:OUTDOORAIR,CONTROLLER OUTDOOR AIR 8,Sensor,1
 Non-Parent Node Connection,NODE 154,CONTROLLER:OUTDOORAIR,CONTROLLER OUTDOOR AIR 9,Sensor,1
 Non-Parent Node Connection,NODE 150,CONTROLLER:OUTDOORAIR,CONTROLLER OUTDOOR AIR 9,Actuator,1
 Non-Parent Node Connection,NODE 399,CONTROLLER:OUTDOORAIR,CONTROLLER OUTDOOR AIR 9,Actuator,1
 Non-Parent Node Connection,NODE 145,CONTROLLER:OUTDOORAIR,CONTROLLER OUTDOOR AIR 9,Sensor,1
 Non-Parent Node Connection,NODE 167,CONTROLLER:OUTDOORAIR,CONTROLLER OUTDOOR AIR 10,Sensor,1
 Non-Parent Node Connection,NODE 163,CONTROLLER:OUTDOORAIR,CONTROLLER OUTDOOR AIR 10,Actuator,1
 Non-Parent Node Connection,NODE 401,CONTROLLER:OUTDOORAIR,CONTROLLER OUTDOOR AIR 10,Actuator,1
 Non-Parent Node Connection,NODE 158,CONTROLLER:OUTDOORAIR,CONTROLLER OUTDOOR AIR 10,Sensor,1
 Non-Parent Node Connection,NODE 180,CONTROLLER:OUTDOORAIR,CONTROLLER OUTDOOR AIR 11,Sensor,1
 Non-Parent Node Connection,NODE 176,CONTROLLER:OUTDOORAIR,CONTROLLER OUTDOOR AIR 11,Actuator,1
 Non-Parent Node Connection,NODE 403,CONTROLLER:OUTDOORAIR,CONTROLLER OUTDOOR AIR 11,Actuator,1
 Non-Parent Node Connection,NODE 171,CONTROLLER:OUTDOORAIR,CONTROLLER OUTDOOR AIR 11,Sensor,1
 Non-Parent Node Connection,NODE 193,CONTROLLER:OUTDOORAIR,CONTROLLER OUTDOOR AIR 12,Sensor,1
 Non-Parent Node Connection,NODE 189,CONTROLLER:OUTDOORAIR,CONTROLLER OUTDOOR AIR 12,Actuator,1
 Non-Parent Node Connection,NODE 405,CONTROLLER:OUTDOORAIR,CONTROLLER OUTDOOR AIR 12,Actuator,1
 Non-Parent Node Connection,NODE 184,CONTROLLER:OUTDOORAIR,CONTROLLER OUTDOOR AIR 12,Sensor,1
 Non-Parent Node Connection,NODE 206,CONTROLLER:OUTDOORAIR,CONTROLLER OUTDOOR AIR 13,Sensor,1
 Non-Parent Node Connection,NODE 202,CONTROLLER:OUTDOORAIR,CONTROLLER OUTDOOR AIR 13,Actuator,1
 Non-Parent Node Connection,NODE 407,CONTROLLER:OUTDOORAIR,CONTROLLER OUTDOOR AIR 13,Actuator,1
 Non-Parent Node Connection,NODE 197,CONTROLLER:OUTDOORAIR,CONTROLLER OUTDOOR AIR 13,Sensor,1
 Non-Parent Node Connection,NODE 219,CONTROLLER:OUTDOORAIR,CONTROLLER OUTDOOR AIR 14,Sensor,1
 Non-Parent Node Connection,NODE 215,CONTROLLER:OUTDOORAIR,CONTROLLER OUTDOOR AIR 14,Actuator,1
 Non-Parent Node Connection,NODE 409,CONTROLLER:OUTDOORAIR,CONTROLLER OUTDOOR AIR 14,Actuator,1
 Non-Parent Node Connection,NODE 210,CONTROLLER:OUTDOORAIR,CONTROLLER OUTDOOR AIR 14,Sensor,1
 Non-Parent Node Connection,NODE 232,CONTROLLER:OUTDOORAIR,CONTROLLER OUTDOOR AIR 15,Sensor,1
 Non-Parent Node Connection,NODE 228,CONTROLLER:OUTDOORAIR,CONTROLLER OUTDOOR AIR 15,Actuator,1
 Non-Parent Node Connection,NODE 411,CONTROLLER:OUTDOORAIR,CONTROLLER OUTDOOR AIR 15,Actuator,1
 Non-Parent Node Connection,NODE 223,CONTROLLER:OUTDOORAIR,CONTROLLER OUTDOOR AIR 15,Sensor,1
 Non-Parent Node Connection,NODE 35,CONTROLLER:OUTDOORAIR,CONTROLLER OUTDOOR AIR 1,Sensor,1
 Non-Parent Node Connection,NODE 29,CONTROLLER:OUTDOORAIR,CONTROLLER OUTDOOR AIR 1,Actuator,1
 Non-Parent Node Connection,NODE 30,CONTROLLER:OUTDOORAIR,CONTROLLER OUTDOOR AIR 1,Actuator,1
 Non-Parent Node Connection,NODE 21,CONTROLLER:OUTDOORAIR,CONTROLLER OUTDOOR AIR 1,Sensor,1
 Non-Parent Node Connection,NODE 245,CONTROLLER:OUTDOORAIR,CONTROLLER OUTDOOR AIR 16,Sensor,1
 Non-Parent Node Connection,NODE 241,CONTROLLER:OUTDOORAIR,CONTROLLER OUTDOOR AIR 16,Actuator,1
 Non-Parent Node Connection,NODE 413,CONTROLLER:OUTDOORAIR,CONTROLLER OUTDOOR AIR 16,Actuator,1
 Non-Parent Node Connection,NODE 236,CONTROLLER:OUTDOORAIR,CONTROLLER OUTDOOR AIR 16,Sensor,1
 Non-Parent Node Connection,NODE 258,CONTROLLER:OUTDOORAIR,CONTROLLER OUTDOOR AIR 17,Sensor,1
 Non-Parent Node Connection,NODE 254,CONTROLLER:OUTDOORAIR,CONTROLLER OUTDOOR AIR 17,Actuator,1
 Non-Parent Node Connection,NODE 415,CONTROLLER:OUTDOORAIR,CONTROLLER OUTDOOR AIR 17,Actuator,1
 Non-Parent Node Connection,NODE 249,CONTROLLER:OUTDOORAIR,CONTROLLER OUTDOOR AIR 17,Sensor,1
 Non-Parent Node Connection,NODE 301,CONTROLLER:OUTDOORAIR,CONTROLLER OUTDOOR AIR 18,Sensor,1
 Non-Parent Node Connection,NODE 297,CONTROLLER:OUTDOORAIR,CONTROLLER OUTDOOR AIR 18,Actuator,1
 Non-Parent Node Connection,NODE 417,CONTROLLER:OUTDOORAIR,CONTROLLER OUTDOOR AIR 18,Actuator,1
 Non-Parent Node Connection,NODE 302,CONTROLLER:OUTDOORAIR,CONTROLLER OUTDOOR AIR 18,Sensor,1
 Non-Parent Node Connection,NODE 329,CONTROLLER:OUTDOORAIR,CONTROLLER OUTDOOR AIR 19,Sensor,1
 Non-Parent Node Connection,NODE 325,CONTROLLER:OUTDOORAIR,CONTROLLER OUTDOOR AIR 19,Actuator,1
 Non-Parent Node Connection,NODE 419,CONTROLLER:OUTDOORAIR,CONTROLLER OUTDOOR AIR 19,Actuator,1
 Non-Parent Node Connection,NODE 330,CONTROLLER:OUTDOORAIR,CONTROLLER OUTDOOR AIR 19,Sensor,1
 Non-Parent Node Connection,NODE 98,HEATEXCHANGER:AIRTOAIR:SENSIBLEANDLATENT,SYS_3_PSZ ALL_ST=COURTHOUSE - COURTROOM_FL=STORY 3_SCH=A ERV,Inlet,1
 Non-Parent Node Connection,NODE 390,HEATEXCHANGER:AIRTOAIR:SENSIBLEANDLATENT,SYS_3_PSZ ALL_ST=COURTHOUSE - COURTROOM_FL=STORY 3_SCH=A ERV,Outlet,1
 Non-Parent Node Connection,NODE 391,HEATEXCHANGER:AIRTOAIR:SENSIBLEANDLATENT,SYS_3_PSZ ALL_ST=COURTHOUSE - COURTROOM_FL=STORY 3_SCH=A ERV,Inlet,2
 Non-Parent Node Connection,NODE 99,HEATEXCHANGER:AIRTOAIR:SENSIBLEANDLATENT,SYS_3_PSZ ALL_ST=COURTHOUSE - COURTROOM_FL=STORY 3_SCH=A ERV,Outlet,2
 Non-Parent Node Connection,NODE 111,HEATEXCHANGER:AIRTOAIR:SENSIBLEANDLATENT,SYS_3_PSZ ALL_ST=DINING - BAR LOUNGE/LEISURE_FL=STORY 3_SCH=B ERV,Inlet,1
 Non-Parent Node Connection,NODE 392,HEATEXCHANGER:AIRTOAIR:SENSIBLEANDLATENT,SYS_3_PSZ ALL_ST=DINING - BAR LOUNGE/LEISURE_FL=STORY 3_SCH=B ERV,Outlet,1
 Non-Parent Node Connection,NODE 393,HEATEXCHANGER:AIRTOAIR:SENSIBLEANDLATENT,SYS_3_PSZ ALL_ST=DINING - BAR LOUNGE/LEISURE_FL=STORY 3_SCH=B ERV,Inlet,2
 Non-Parent Node Connection,NODE 112,HEATEXCHANGER:AIRTOAIR:SENSIBLEANDLATENT,SYS_3_PSZ ALL_ST=DINING - BAR LOUNGE/LEISURE_FL=STORY 3_SCH=B ERV,Outlet,2
 Non-Parent Node Connection,NODE 124,HEATEXCHANGER:AIRTOAIR:SENSIBLEANDLATENT,SYS_3_PSZ ALL_ST=DINING - FAMILY SPACE_FL=STORY 3_SCH=B ERV,Inlet,1
 Non-Parent Node Connection,NODE 394,HEATEXCHANGER:AIRTOAIR:SENSIBLEANDLATENT,SYS_3_PSZ ALL_ST=DINING - FAMILY SPACE_FL=STORY 3_SCH=B ERV,Outlet,1
 Non-Parent Node Connection,NODE 395,HEATEXCHANGER:AIRTOAIR:SENSIBLEANDLATENT,SYS_3_PSZ ALL_ST=DINING - FAMILY SPACE_FL=STORY 3_SCH=B ERV,Inlet,2
 Non-Parent Node Connection,NODE 125,HEATEXCHANGER:AIRTOAIR:SENSIBLEANDLATENT,SYS_3_PSZ ALL_ST=DINING - FAMILY SPACE_FL=STORY 3_SCH=B ERV,Outlet,2
 Non-Parent Node Connection,NODE 137,HEATEXCHANGER:AIRTOAIR:SENSIBLEANDLATENT,SYS_3_PSZ ALL_ST=DINING - OTHER_FL=STORY 1_SCH=B ERV,Inlet,1
 Non-Parent Node Connection,NODE 396,HEATEXCHANGER:AIRTOAIR:SENSIBLEANDLATENT,SYS_3_PSZ ALL_ST=DINING - OTHER_FL=STORY 1_SCH=B ERV,Outlet,1
 Non-Parent Node Connection,NODE 397,HEATEXCHANGER:AIRTOAIR:SENSIBLEANDLATENT,SYS_3_PSZ ALL_ST=DINING - OTHER_FL=STORY 1_SCH=B ERV,Inlet,2
 Non-Parent Node Connection,NODE 138,HEATEXCHANGER:AIRTOAIR:SENSIBLEANDLATENT,SYS_3_PSZ ALL_ST=DINING - OTHER_FL=STORY 1_SCH=B ERV,Outlet,2
 Non-Parent Node Connection,NODE 150,HEATEXCHANGER:AIRTOAIR:SENSIBLEANDLATENT,SYS_3_PSZ ALL_ST=DRESS./FITT. - PERFORMANCE ARTS_FL=STORY 3_SCH=C ERV,Inlet,1
 Non-Parent Node Connection,NODE 398,HEATEXCHANGER:AIRTOAIR:SENSIBLEANDLATENT,SYS_3_PSZ ALL_ST=DRESS./FITT. - PERFORMANCE ARTS_FL=STORY 3_SCH=C ERV,Outlet,1
 Non-Parent Node Connection,NODE 399,HEATEXCHANGER:AIRTOAIR:SENSIBLEANDLATENT,SYS_3_PSZ ALL_ST=DRESS./FITT. - PERFORMANCE ARTS_FL=STORY 3_SCH=C ERV,Inlet,2
 Non-Parent Node Connection,NODE 151,HEATEXCHANGER:AIRTOAIR:SENSIBLEANDLATENT,SYS_3_PSZ ALL_ST=DRESS./FITT. - PERFORMANCE ARTS_FL=STORY 3_SCH=C ERV,Outlet,2
 Non-Parent Node Connection,NODE 163,HEATEXCHANGER:AIRTOAIR:SENSIBLEANDLATENT,SYS_3_PSZ ALL_ST=FOOD PREPARATION_FL=STORY 2_SCH=B ERV,Inlet,1
 Non-Parent Node Connection,NODE 400,HEATEXCHANGER:AIRTOAIR:SENSIBLEANDLATENT,SYS_3_PSZ ALL_ST=FOOD PREPARATION_FL=STORY 2_SCH=B ERV,Outlet,1
 Non-Parent Node Connection,NODE 401,HEATEXCHANGER:AIRTOAIR:SENSIBLEANDLATENT,SYS_3_PSZ ALL_ST=FOOD PREPARATION_FL=STORY 2_SCH=B ERV,Inlet,2
 Non-Parent Node Connection,NODE 164,HEATEXCHANGER:AIRTOAIR:SENSIBLEANDLATENT,SYS_3_PSZ ALL_ST=FOOD PREPARATION_FL=STORY 2_SCH=B ERV,Outlet,2
 Non-Parent Node Connection,NODE 176,HEATEXCHANGER:AIRTOAIR:SENSIBLEANDLATENT,SYS_3_PSZ ALL_ST=HOSPITAL - EMERGENCY_FL=STORY 2_SCH=H ERV,Inlet,1
 Non-Parent Node Connection,NODE 402,HEATEXCHANGER:AIRTOAIR:SENSIBLEANDLATENT,SYS_3_PSZ ALL_ST=HOSPITAL - EMERGENCY_FL=STORY 2_SCH=H ERV,Outlet,1
 Non-Parent Node Connection,NODE 403,HEATEXCHANGER:AIRTOAIR:SENSIBLEANDLATENT,SYS_3_PSZ ALL_ST=HOSPITAL - EMERGENCY_FL=STORY 2_SCH=H ERV,Inlet,2
 Non-Parent Node Connection,NODE 177,HEATEXCHANGER:AIRTOAIR:SENSIBLEANDLATENT,SYS_3_PSZ ALL_ST=HOSPITAL - EMERGENCY_FL=STORY 2_SCH=H ERV,Outlet,2
 Non-Parent Node Connection,NODE 189,HEATEXCHANGER:AIRTOAIR:SENSIBLEANDLATENT,SYS_3_PSZ ALL_ST=HOSPITAL - EXAM_FL=STORY 3_SCH=C ERV,Inlet,1
 Non-Parent Node Connection,NODE 404,HEATEXCHANGER:AIRTOAIR:SENSIBLEANDLATENT,SYS_3_PSZ ALL_ST=HOSPITAL - EXAM_FL=STORY 3_SCH=C ERV,Outlet,1
 Non-Parent Node Connection,NODE 405,HEATEXCHANGER:AIRTOAIR:SENSIBLEANDLATENT,SYS_3_PSZ ALL_ST=HOSPITAL - EXAM_FL=STORY 3_SCH=C ERV,Inlet,2
 Non-Parent Node Connection,NODE 190,HEATEXCHANGER:AIRTOAIR:SENSIBLEANDLATENT,SYS_3_PSZ ALL_ST=HOSPITAL - EXAM_FL=STORY 3_SCH=C ERV,Outlet,2
 Non-Parent Node Connection,NODE 202,HEATEXCHANGER:AIRTOAIR:SENSIBLEANDLATENT,SYS_3_PSZ ALL_ST=HOSPITAL - LAUNDRY/WASHING_FL=STORY 1_SCH=C ERV,Inlet,1
 Non-Parent Node Connection,NODE 406,HEATEXCHANGER:AIRTOAIR:SENSIBLEANDLATENT,SYS_3_PSZ ALL_ST=HOSPITAL - LAUNDRY/WASHING_FL=STORY 1_SCH=C ERV,Outlet,1
 Non-Parent Node Connection,NODE 407,HEATEXCHANGER:AIRTOAIR:SENSIBLEANDLATENT,SYS_3_PSZ ALL_ST=HOSPITAL - LAUNDRY/WASHING_FL=STORY 1_SCH=C ERV,Inlet,2
 Non-Parent Node Connection,NODE 203,HEATEXCHANGER:AIRTOAIR:SENSIBLEANDLATENT,SYS_3_PSZ ALL_ST=HOSPITAL - LAUNDRY/WASHING_FL=STORY 1_SCH=C ERV,Outlet,2
 Non-Parent Node Connection,NODE 215,HEATEXCHANGER:AIRTOAIR:SENSIBLEANDLATENT,SYS_3_PSZ ALL_ST=HOSPITAL - LOUNGE/RECREATION_FL=STORY 2_SCH=B ERV,Inlet,1
 Non-Parent Node Connection,NODE 408,HEATEXCHANGER:AIRTOAIR:SENSIBLEANDLATENT,SYS_3_PSZ ALL_ST=HOSPITAL - LOUNGE/RECREATION_FL=STORY 2_SCH=B ERV,Outlet,1
 Non-Parent Node Connection,NODE 409,HEATEXCHANGER:AIRTOAIR:SENSIBLEANDLATENT,SYS_3_PSZ ALL_ST=HOSPITAL - LOUNGE/RECREATION_FL=STORY 2_SCH=B ERV,Inlet,2
 Non-Parent Node Connection,NODE 216,HEATEXCHANGER:AIRTOAIR:SENSIBLEANDLATENT,SYS_3_PSZ ALL_ST=HOSPITAL - LOUNGE/RECREATION_FL=STORY 2_SCH=B ERV,Outlet,2
 Non-Parent Node Connection,NODE 228,HEATEXCHANGER:AIRTOAIR:SENSIBLEANDLATENT,SYS_3_PSZ ALL_ST=HOSPITAL - MEDICAL SUPPLY_FL=STORY 2_SCH=H ERV,Inlet,1
 Non-Parent Node Connection,NODE 410,HEATEXCHANGER:AIRTOAIR:SENSIBLEANDLATENT,SYS_3_PSZ ALL_ST=HOSPITAL - MEDICAL SUPPLY_FL=STORY 2_SCH=H ERV,Outlet,1
 Non-Parent Node Connection,NODE 411,HEATEXCHANGER:AIRTOAIR:SENSIBLEANDLATENT,SYS_3_PSZ ALL_ST=HOSPITAL - MEDICAL SUPPLY_FL=STORY 2_SCH=H ERV,Inlet,2
 Non-Parent Node Connection,NODE 229,HEATEXCHANGER:AIRTOAIR:SENSIBLEANDLATENT,SYS_3_PSZ ALL_ST=HOSPITAL - MEDICAL SUPPLY_FL=STORY 2_SCH=H ERV,Outlet,2
 Non-Parent Node Connection,NODE 241,HEATEXCHANGER:AIRTOAIR:SENSIBLEANDLATENT,SYS_4_PSZ_ALL_ST=FIRE STATION - ENGINE ROOM_FL=STORY 1_SCH=H ERV,Inlet,1
 Non-Parent Node Connection,NODE 412,HEATEXCHANGER:AIRTOAIR:SENSIBLEANDLATENT,SYS_4_PSZ_ALL_ST=FIRE STATION - ENGINE ROOM_FL=STORY 1_SCH=H ERV,Outlet,1
 Non-Parent Node Connection,NODE 413,HEATEXCHANGER:AIRTOAIR:SENSIBLEANDLATENT,SYS_4_PSZ_ALL_ST=FIRE STATION - ENGINE ROOM_FL=STORY 1_SCH=H ERV,Inlet,2
 Non-Parent Node Connection,NODE 242,HEATEXCHANGER:AIRTOAIR:SENSIBLEANDLATENT,SYS_4_PSZ_ALL_ST=FIRE STATION - ENGINE ROOM_FL=STORY 1_SCH=H ERV,Outlet,2
 Non-Parent Node Connection,NODE 254,HEATEXCHANGER:AIRTOAIR:SENSIBLEANDLATENT,SYS_4_PSZ_ALL_ST=FOOD PREPARATION - VENTED_FL=STORY 4_SCH=B ERV,Inlet,1
 Non-Parent Node Connection,NODE 414,HEATEXCHANGER:AIRTOAIR:SENSIBLEANDLATENT,SYS_4_PSZ_ALL_ST=FOOD PREPARATION - VENTED_FL=STORY 4_SCH=B ERV,Outlet,1
 Non-Parent Node Connection,NODE 415,HEATEXCHANGER:AIRTOAIR:SENSIBLEANDLATENT,SYS_4_PSZ_ALL_ST=FOOD PREPARATION - VENTED_FL=STORY 4_SCH=B ERV,Inlet,2
 Non-Parent Node Connection,NODE 255,HEATEXCHANGER:AIRTOAIR:SENSIBLEANDLATENT,SYS_4_PSZ_ALL_ST=FOOD PREPARATION - VENTED_FL=STORY 4_SCH=B ERV,Outlet,2
 Non-Parent Node Connection,NODE 297,HEATEXCHANGER:AIRTOAIR:SENSIBLEANDLATENT,SYS_6_VAV WITH REHEAT ERV,Inlet,1
 Non-Parent Node Connection,NODE 416,HEATEXCHANGER:AIRTOAIR:SENSIBLEANDLATENT,SYS_6_VAV WITH REHEAT ERV,Outlet,1
 Non-Parent Node Connection,NODE 417,HEATEXCHANGER:AIRTOAIR:SENSIBLEANDLATENT,SYS_6_VAV WITH REHEAT ERV,Inlet,2
 Non-Parent Node Connection,NODE 298,HEATEXCHANGER:AIRTOAIR:SENSIBLEANDLATENT,SYS_6_VAV WITH REHEAT ERV,Outlet,2
 Non-Parent Node Connection,NODE 325,HEATEXCHANGER:AIRTOAIR:SENSIBLEANDLATENT,SYS_6_VAV WITH REHEAT 1 ERV,Inlet,1
 Non-Parent Node Connection,NODE 418,HEATEXCHANGER:AIRTOAIR:SENSIBLEANDLATENT,SYS_6_VAV WITH REHEAT 1 ERV,Outlet,1
 Non-Parent Node Connection,NODE 419,HEATEXCHANGER:AIRTOAIR:SENSIBLEANDLATENT,SYS_6_VAV WITH REHEAT 1 ERV,Inlet,2
 Non-Parent Node Connection,NODE 326,HEATEXCHANGER:AIRTOAIR:SENSIBLEANDLATENT,SYS_6_VAV WITH REHEAT 1 ERV,Outlet,2
 Non-Parent Node Connection,NODE 264,CHILLER:ELECTRIC:EIR,PRIMARY CHILLER WATERCOOLED SCROLL 97TONS 0.8KW/TON,Inlet,1
 Non-Parent Node Connection,NODE 269,CHILLER:ELECTRIC:EIR,PRIMARY CHILLER WATERCOOLED SCROLL 97TONS 0.8KW/TON,Outlet,1
 Non-Parent Node Connection,NODE 280,CHILLER:ELECTRIC:EIR,PRIMARY CHILLER WATERCOOLED SCROLL 97TONS 0.8KW/TON,Inlet,2
 Non-Parent Node Connection,NODE 286,CHILLER:ELECTRIC:EIR,PRIMARY CHILLER WATERCOOLED SCROLL 97TONS 0.8KW/TON,Outlet,2
 Non-Parent Node Connection,NODE 270,CHILLER:ELECTRIC:EIR,SECONDARY CHILLER WATERCOOLED SCROLL 0TONS 0.8KW/TON,Inlet,1
 Non-Parent Node Connection,NODE 271,CHILLER:ELECTRIC:EIR,SECONDARY CHILLER WATERCOOLED SCROLL 0TONS 0.8KW/TON,Outlet,1
 Non-Parent Node Connection,NODE 287,CHILLER:ELECTRIC:EIR,SECONDARY CHILLER WATERCOOLED SCROLL 0TONS 0.8KW/TON,Inlet,2
 Non-Parent Node Connection,NODE 288,CHILLER:ELECTRIC:EIR,SECONDARY CHILLER WATERCOOLED SCROLL 0TONS 0.8KW/TON,Outlet,2
 Non-Parent Node Connection,NODE 277,COOLINGTOWER:SINGLESPEED,COOLING TOWER SINGLE SPEED 1,Inlet,1
 Non-Parent Node Connection,NODE 282,COOLINGTOWER:SINGLESPEED,COOLING TOWER SINGLE SPEED 1,Outlet,1
 Non-Parent Node Connection,NODE 5,BOILER:HOTWATER,PRIMARY BOILER 3446KBTU/HR 0.833 COMBUSTION EFF,Inlet,1
 Non-Parent Node Connection,NODE 12,BOILER:HOTWATER,PRIMARY BOILER 3446KBTU/HR 0.833 COMBUSTION EFF,Outlet,1
 Non-Parent Node Connection,NODE 14,BOILER:HOTWATER,SECONDARY BOILER 0KBTU/HR 0.85 AFUE,Inlet,1
 Non-Parent Node Connection,NODE 15,BOILER:HOTWATER,SECONDARY BOILER 0KBTU/HR 0.85 AFUE,Outlet,1
 Non-Parent Node Connection,NODE 2,PUMP:VARIABLESPEED,PUMP VARIABLE SPEED 1,Inlet,1
 Non-Parent Node Connection,NODE 11,PUMP:VARIABLESPEED,PUMP VARIABLE SPEED 1,Outlet,1
 Non-Parent Node Connection,NODE 262,PUMP:CONSTANTSPEED,PUMP CONSTANT SPEED 1,Inlet,1
 Non-Parent Node Connection,NODE 268,PUMP:CONSTANTSPEED,PUMP CONSTANT SPEED 1,Outlet,1
 Non-Parent Node Connection,NODE 275,PUMP:CONSTANTSPEED,PUMP CONSTANT SPEED 2,Inlet,1
 Non-Parent Node Connection,NODE 281,PUMP:CONSTANTSPEED,PUMP CONSTANT SPEED 2,Outlet,1
 Non-Parent Node Connection,NODE 337,PUMP:CONSTANTSPEED,SERVICE WATER LOOP PUMP,Inlet,1
 Non-Parent Node Connection,NODE 343,PUMP:CONSTANTSPEED,SERVICE WATER LOOP PUMP,Outlet,1
