Program Version,EnergyPlus, Version 8.9.0-eba93e8e1b, YMD=2019.03.28 13:11
! <Version>, Version ID
 Version, 8.9
! <Timesteps per Hour>, #TimeSteps, Minutes per TimeStep {minutes}
 Timesteps per Hour,  6, 10
! <System Convergence Limits>, Minimum System TimeStep {minutes}, Max HVAC Iterations, Minimum Plant Iterations, Maximum Plant Iterations
 System Convergence Limits, 1, 20, 2, 8
! <Simulation Control>, Do Zone Sizing, Do System Sizing, Do Plant Sizing, Do Design Days, Do Weather Simulation, Do HVAC Sizing Simulation
 Simulation Control, Yes, Yes, Yes, No, Yes, No
! <Output Reporting Tolerances>, Tolerance for Time Heating Setpoint Not Met, Tolerance for Zone Cooling Setpoint Not Met Time
 Output Reporting Tolerances, 1.000, 1.000, 
! <Site:GroundTemperature:BuildingSurface>,Jan{C},Feb{C},Mar{C},Apr{C},May{C},Jun{C},Jul{C},Aug{C},Sep{C},Oct{C},Nov{C},Dec{C}
 Site:GroundTemperature:BuildingSurface,  19.53,  19.50,  19.54,  19.60,  20.00,  21.64,  22.23,  22.38,  21.45,  20.12,  19.80,  19.63
! <Site:GroundTemperature:FCfactorMethod>,Jan{C},Feb{C},Mar{C},Apr{C},May{C},Jun{C},Jul{C},Aug{C},Sep{C},Oct{C},Nov{C},Dec{C}
 Site:GroundTemperature:FCfactorMethod, -12.27, -13.66, -11.19,  -7.33,   2.77,  10.57,  15.83,  17.43,  14.70,   8.65,   0.56,  -6.95
! <Site:GroundTemperature:Shallow>,Jan{C},Feb{C},Mar{C},Apr{C},May{C},Jun{C},Jul{C},Aug{C},Sep{C},Oct{C},Nov{C},Dec{C}
 Site:GroundTemperature:Shallow,  13.00,  13.00,  13.00,  13.00,  13.00,  13.00,  13.00,  13.00,  13.00,  13.00,  13.00,  13.00
! <Site:GroundTemperature:Deep>,Jan{C},Feb{C},Mar{C},Apr{C},May{C},Jun{C},Jul{C},Aug{C},Sep{C},Oct{C},Nov{C},Dec{C}
 Site:GroundTemperature:Deep,  16.00,  16.00,  16.00,  16.00,  16.00,  16.00,  16.00,  16.00,  16.00,  16.00,  16.00,  16.00
! <Site:GroundReflectance>,Jan{dimensionless},Feb{dimensionless},Mar{dimensionless},Apr{dimensionless},May{dimensionless},Jun{dimensionless},Jul{dimensionless},Aug{dimensionless},Sep{dimensionless},Oct{dimensionless},Nov{dimensionless},Dec{dimensionless}
 Site:GroundReflectance,  0.20,  0.20,  0.20,  0.20,  0.20,  0.20,  0.20,  0.20,  0.20,  0.20,  0.20,  0.20
! <Site:GroundReflectance:SnowModifier>, Normal, Daylighting {dimensionless}
 Site:GroundReflectance:SnowModifier,   1.000,   1.000
! <Site:GroundReflectance:Snow>,Jan{dimensionless},Feb{dimensionless},Mar{dimensionless},Apr{dimensionless},May{dimensionless},Jun{dimensionless},Jul{dimensionless},Aug{dimensionless},Sep{dimensionless},Oct{dimensionless},Nov{dimensionless},Dec{dimensionless}
 Site:GroundReflectance:Snow,  0.20,  0.20,  0.20,  0.20,  0.20,  0.20,  0.20,  0.20,  0.20,  0.20,  0.20,  0.20
! <Site:GroundReflectance:Snow:Daylighting>,Jan{dimensionless},Feb{dimensionless},Mar{dimensionless},Apr{dimensionless},May{dimensionless},Jun{dimensionless},Jul{dimensionless},Aug{dimensionless},Sep{dimensionless},Oct{dimensionless},Nov{dimensionless},Dec{dimensionless}
 Site:GroundReflectance:Snow:Daylighting,  0.20,  0.20,  0.20,  0.20,  0.20,  0.20,  0.20,  0.20,  0.20,  0.20,  0.20,  0.20
! <Environment:Weather Station>,Wind Sensor Height Above Ground {m},Wind Speed Profile Exponent {},Wind Speed Profile Boundary Layer Thickness {m},Air Temperature Sensor Height Above Ground {m},Wind Speed Modifier Coefficient-Internal,Temperature Modifier Coefficient-Internal
Environment:Weather Station,10.000,0.140,270.000,1.500,1.586,9.750E-003
! <Site:Location>, Location Name, Latitude {N+/S- Deg}, Longitude {E+/W- Deg},  Time Zone Number {GMT+/-}, Elevation {m},  Standard Pressure at Elevation {Pa}, Standard RhoAir at Elevation
Site:Location,Fort McMurray AP AB CAN CWEC2016 WMO#=716890,56.65,-111.22,-7.00,369.10,96969,1.1525
! <Building Information>, Building Name,North Axis {deg},Terrain,  Loads Convergence Tolerance Value,Temperature Convergence Tolerance Value,  Solar Distribution,Maximum Number of Warmup Days,Minimum Number of Warmup Days
 Building Information,Building 1,0.000,Suburbs,4.00000E-002,0.40000,FullExterior,25,6
! <Inside Convection Algorithm>, Algorithm {Simple | TARP | CeilingDiffuser | AdaptiveConvectionAlgorithm}
Inside Convection Algorithm,TARP
! <Outside Convection Algorithm>, Algorithm {SimpleCombined | TARP | MoWitt | DOE-2 | AdaptiveConvectionAlgorithm}
Outside Convection Algorithm,TARP
! <Sky Radiance Distribution>, Value {Anisotropic}
Sky Radiance Distribution,Anisotropic
! <Zone Air Solution Algorithm>, Value {ThirdOrderBackwardDifference | AnalyticalSolution | EulerMethod}
 Zone Air Solution Algorithm, ThirdOrderBackwardDifference
! <Zone Air Carbon Dioxide Balance Simulation>, Simulation {Yes/No}, Carbon Dioxide Concentration
 Zone Air Carbon Dioxide Balance Simulation, No,N/A
! <Zone Air Generic Contaminant Balance Simulation>, Simulation {Yes/No}, Generic Contaminant Concentration
 Zone Air Generic Contaminant Balance Simulation, No,N/A
! <Zone Air Mass Flow Balance Simulation>, Enforce Mass Balance, Adjust Zone Mixing, Adjust Zone Infiltration {AddInfiltration | AdjustInfiltration | None}, Infiltration Zones {MixingSourceZonesOnly | AllZones}
 Zone Air Mass Flow Balance Simulation, No,N/A,N/A,N/A
! <HVACSystemRootFindingAlgorithm>, Value {RegulaFalsi | Bisection | BisectionThenRegulaFalsi | RegulaFalsiThenBisection}
 HVACSystemRootFindingAlgorithm, RegulaFalsi
! <Environment:Site Atmospheric Variation>,Wind Speed Profile Exponent {},Wind Speed Profile Boundary Layer Thickness {m},Air Temperature Gradient Coefficient {K/m}
Environment:Site Atmospheric Variation,0.220,370.000,6.500000E-003
! <Surface Geometry>,Starting Corner,Vertex Input Direction,Coordinate System,Daylight Reference Point Coordinate System,Rectangular (Simple) Surface Coordinate System
 Surface Geometry,UpperLeftCorner,Counterclockwise,RelativeCoordinateSystem,RelativeCoordinateSystem,RelativeToZoneOrigin
! <Surface Heat Transfer Algorithm>, Value {CTF - ConductionTransferFunction | EMPD - MoisturePenetrationDepthConductionTransferFunction | CondFD - ConductionFiniteDifference | HAMT - CombinedHeatAndMoistureFiniteElement} - Description,Inside Surface Max Temperature Limit{C}, Surface Convection Coefficient Lower Limit {W/m2-K}, Surface Convection Coefficient Upper Limit {W/m2-K}
Surface Heat Transfer Algorithm, CTF - ConductionTransferFunction,200,0.10,1000.0
! <Shading Summary>, Number of Fixed Detached Shades, Number of Building Detached Shades, Number of Attached Shades
 Shading Summary,0,0,0
! <Zone Summary>, Number of Zones, Number of Zone Surfaces, Number of SubSurfaces
 Zone Summary,20,137,17
! <Zone Information>,Zone Name,North Axis {deg},Origin X-Coordinate {m},Origin Y-Coordinate {m},Origin Z-Coordinate {m},Centroid X-Coordinate {m},Centroid Y-Coordinate {m},Centroid Z-Coordinate {m},Type,Zone Multiplier,Zone List Multiplier,Minimum X {m},Maximum X {m},Minimum Y {m},Maximum Y {m},Minimum Z {m},Maximum Z {m},Ceiling Height {m},Volume {m3},Zone Inside Convection Algorithm {Simple-Detailed-CeilingDiffuser-TrombeWall},Zone Outside Convection Algorithm {Simple-Detailed-Tarp-MoWitt-DOE-2-BLAST}, Floor Area {m2},Exterior Gross Wall Area {m2},Exterior Net Wall Area {m2},Exterior Window Area {m2}, Number of Surfaces, Number of SubSurfaces, Number of Shading SubSurfaces,  Part of Total Building Area
 Zone Information, ALL_ST=COURTHOUSE - CHAMBERS_FL=STORY 4_SCH=A,0.0,0.00,0.00,11.40,50.00,10.85,13.30,1,1,1,0.00,100.00,0.00,25.00,11.40,15.20,3.80,7125.00,TARP,TARP,1875.00,380.00,285.00,188.75,6,2,0,Yes
 Zone Information, ALL_ST=COURTHOUSE - COURTROOM_FL=STORY 3_SCH=A,0.0,25.00,25.00,7.60,50.00,50.00,9.50,1,1,1,25.00,75.00,25.00,75.00,7.60,11.40,3.80,9500.00,TARP,TARP,2500.00,0.00,0.00,0.00,6,0,0,Yes
 Zone Information, ALL_ST=DINING - BAR LOUNGE/LEISURE_FL=STORY 3_SCH=B,0.0,75.00,25.00,7.60,89.15,50.00,9.50,1,1,1,75.00,100.00,0.00,100.00,7.60,11.40,3.80,7125.00,TARP,TARP,1875.00,380.00,285.00,95.00,6,1,0,Yes
 Zone Information, ALL_ST=DINING - FAMILY SPACE_FL=STORY 3_SCH=B,0.0,25.00,75.00,7.60,50.00,89.15,9.50,1,1,1,0.00,100.00,75.00,100.00,7.60,11.40,3.80,7125.00,TARP,TARP,1875.00,380.00,285.00,95.00,6,1,0,Yes
 Zone Information, ALL_ST=DINING - OTHER_FL=STORY 1_SCH=B,0.0,0.00,0.00,0.00,10.85,50.00,1.90,1,1,1,0.00,25.00,0.00,100.00,0.00,3.80,3.80,7125.00,TARP,TARP,1875.00,0.00,0.00,0.00,6,0,0,Yes
 Zone Information, ALL_ST=DRESS./FITT. - PERFORMANCE ARTS_FL=STORY 3_SCH=C,0.0,0.00,0.00,7.60,50.00,10.85,9.50,1,1,1,0.00,100.00,0.00,25.00,7.60,11.40,3.80,7125.00,TARP,TARP,1875.00,380.00,285.00,95.00,6,1,0,Yes
 Zone Information, ALL_ST=FIRE STATION - ENGINE ROOM_FL=STORY 1_SCH=H,0.0,25.00,75.00,0.00,50.00,89.15,1.90,1,1,1,0.00,100.00,75.00,100.00,0.00,3.80,3.80,7125.00,TARP,TARP,1875.00,0.00,0.00,0.00,6,0,0,Yes
 Zone Information, ALL_ST=FOOD PREPARATION - VENTED_FL=STORY 4_SCH=B,0.0,75.00,25.00,11.40,89.15,50.00,13.30,1,1,1,75.00,100.00,0.00,100.00,11.40,15.20,3.80,7125.00,TARP,TARP,1875.00,380.00,285.00,188.75,6,2,0,Yes
 Zone Information, ALL_ST=FOOD PREPARATION_FL=STORY 2_SCH=B,0.0,25.00,25.00,3.80,50.00,50.00,5.70,1,1,1,25.00,75.00,25.00,75.00,3.80,7.60,3.80,9500.00,TARP,TARP,2500.00,0.00,0.00,0.00,6,0,0,Yes
 Zone Information, ALL_ST=GYM - AUDIENCE_FL=STORY 4_SCH=B,0.0,25.00,75.00,11.40,50.00,89.15,13.30,1,1,1,0.00,100.00,75.00,100.00,11.40,15.20,3.80,7125.00,TARP,TARP,1875.00,380.00,285.00,188.75,6,2,0,Yes
 Zone Information, ALL_ST=GYM - FITNESS_FL=STORY 1_SCH=B,0.0,0.00,0.00,0.00,50.00,10.85,1.90,1,1,1,0.00,100.00,0.00,25.00,0.00,3.80,3.80,7125.00,TARP,TARP,1875.00,0.00,0.00,0.00,6,0,0,Yes
 Zone Information, ALL_ST=GYM - PLAY_FL=STORY 1_SCH=B,0.0,75.00,25.00,0.00,89.15,50.00,1.90,1,1,1,75.00,100.00,0.00,100.00,0.00,3.80,3.80,7125.00,TARP,TARP,1875.00,0.00,0.00,0.00,6,0,0,Yes
 Zone Information, ALL_ST=HOSPITAL - EMERGENCY_FL=STORY 2_SCH=H,0.0,0.00,0.00,3.80,10.85,50.00,5.70,1,1,1,0.00,25.00,0.00,100.00,3.80,7.60,3.80,7125.00,TARP,TARP,1875.00,380.00,285.00,95.00,6,1,0,Yes
 Zone Information, ALL_ST=HOSPITAL - EXAM_FL=STORY 3_SCH=C,0.0,0.00,0.00,7.60,10.85,50.00,9.50,1,1,1,0.00,25.00,0.00,100.00,7.60,11.40,3.80,7125.00,TARP,TARP,1875.00,380.00,285.00,95.00,6,1,0,Yes
 Zone Information, ALL_ST=HOSPITAL - LAUNDRY/WASHING_FL=STORY 1_SCH=C,0.0,25.00,25.00,0.00,50.00,50.00,1.90,1,1,1,25.00,75.00,25.00,75.00,0.00,3.80,3.80,9500.00,TARP,TARP,2500.00,0.00,0.00,0.00,6,0,0,Yes
 Zone Information, ALL_ST=HOSPITAL - LOUNGE/RECREATION_FL=STORY 2_SCH=B,0.0,25.00,75.00,3.80,50.00,89.15,5.70,1,1,1,0.00,100.00,75.00,100.00,3.80,7.60,3.80,7125.00,TARP,TARP,1875.00,380.00,285.00,95.00,6,1,0,Yes
 Zone Information, ALL_ST=HOSPITAL - MEDICAL SUPPLY_FL=STORY 2_SCH=H,0.0,75.00,25.00,3.80,89.15,50.00,5.70,1,1,1,75.00,100.00,0.00,100.00,3.80,7.60,3.80,7125.00,TARP,TARP,1875.00,380.00,285.00,95.00,6,1,0,Yes
 Zone Information, DU_BT=SPACE FUNCTION_ST=DORMITORY - LIVING QUARTERS_FL=STORY 4_SCHG,0.0,25.00,25.00,11.40,50.00,50.00,13.30,1,1,1,25.00,75.00,25.00,75.00,11.40,15.20,3.80,9500.00,TARP,TARP,2500.00,0.00,0.00,125.00,6,1,0,Yes
 Zone Information, DU_BT=SPACE FUNCTION_ST=DWELLING UNIT(S)_FL=STORY 2_SCHG,0.0,0.00,0.00,3.80,50.00,10.85,5.70,1,1,1,0.00,100.00,0.00,25.00,3.80,7.60,3.80,7125.00,TARP,TARP,1875.00,380.00,285.00,95.00,6,1,0,Yes
 Zone Information, DU_BT=SPACE FUNCTION_ST=FIRE STATION - QUARTERS_FL=STORY 4_SCHG,0.0,0.00,0.00,11.40,10.85,50.00,13.30,1,1,1,0.00,25.00,0.00,100.00,11.40,15.20,3.80,7125.00,TARP,TARP,1875.00,380.00,285.00,188.75,6,2,0,Yes
! <Zone Internal Gains Nominal>,Zone Name, Floor Area {m2},# Occupants,Area per Occupant {m2/person},Occupant per Area {person/m2},Interior Lighting {W/m2},Electric Load {W/m2},Gas Load {W/m2},Other Load {W/m2},Hot Water Eq {W/m2},Steam Equipment {W/m2},Sum Loads per Area {W/m2},Outdoor Controlled Baseboard Heat
 Zone Internal Gains Nominal, ALL_ST=COURTHOUSE - CHAMBERS_FL=STORY 4_SCH=A,1875.00,93.8,19.979,5.005E-002,12.600,7.500,0.000,0.000,0.000,0.000,20.100,No
 Zone Internal Gains Nominal, ALL_ST=COURTHOUSE - COURTROOM_FL=STORY 3_SCH=A,2500.00,500.0,5.000,0.200,18.500,2.500,0.000,0.000,0.000,0.000,21.000,No
 Zone Internal Gains Nominal, ALL_ST=DINING - BAR LOUNGE/LEISURE_FL=STORY 3_SCH=B,1875.00,187.5,10.000,10.000E-002,14.100,1.000,0.000,0.000,0.000,0.000,15.100,No
 Zone Internal Gains Nominal, ALL_ST=DINING - FAMILY SPACE_FL=STORY 3_SCH=B,1875.00,187.5,10.000,10.000E-002,9.600,1.000,0.000,0.000,0.000,0.000,10.600,No
 Zone Internal Gains Nominal, ALL_ST=DINING - OTHER_FL=STORY 1_SCH=B,1875.00,187.5,10.000,10.000E-002,7.000,1.000,0.000,0.000,0.000,0.000,8.000,No
 Zone Internal Gains Nominal, ALL_ST=DRESS./FITT. - PERFORMANCE ARTS_FL=STORY 3_SCH=C,1875.00,62.6,29.969,3.337E-002,3.870,2.500,0.000,0.000,0.000,0.000,6.370,No
 Zone Internal Gains Nominal, ALL_ST=FIRE STATION - ENGINE ROOM_FL=STORY 1_SCH=H,1875.00,75.1,24.974,4.004E-002,6.000,2.500,0.000,0.000,0.000,0.000,8.500,No
 Zone Internal Gains Nominal, ALL_ST=FOOD PREPARATION - VENTED_FL=STORY 4_SCH=B,1875.00,93.8,19.979,5.005E-002,10.700,10.000,0.000,0.000,0.000,0.000,20.700,No
 Zone Internal Gains Nominal, ALL_ST=FOOD PREPARATION_FL=STORY 2_SCH=B,2500.00,125.1,19.979,5.005E-002,10.700,10.000,0.000,0.000,0.000,0.000,20.700,No
 Zone Internal Gains Nominal, ALL_ST=GYM - AUDIENCE_FL=STORY 4_SCH=B,1875.00,375.0,5.000,0.200,4.600,0.000,0.000,0.000,0.000,0.000,4.600,No
 Zone Internal Gains Nominal, ALL_ST=GYM - FITNESS_FL=STORY 1_SCH=B,1875.00,375.0,5.000,0.200,9.800,1.000,0.000,0.000,0.000,0.000,10.800,No
 Zone Internal Gains Nominal, ALL_ST=GYM - PLAY_FL=STORY 1_SCH=B,1875.00,375.0,5.000,0.200,12.900,1.500,0.000,0.000,0.000,0.000,14.400,No
 Zone Internal Gains Nominal, ALL_ST=HOSPITAL - EMERGENCY_FL=STORY 2_SCH=H,1875.00,93.8,19.979,5.005E-002,24.300,10.000,0.000,0.000,0.000,0.000,34.300,No
 Zone Internal Gains Nominal, ALL_ST=HOSPITAL - EXAM_FL=STORY 3_SCH=C,1875.00,93.8,19.979,5.005E-002,17.900,10.000,0.000,0.000,0.000,0.000,27.900,No
 Zone Internal Gains Nominal, ALL_ST=HOSPITAL - LAUNDRY/WASHING_FL=STORY 1_SCH=C,2500.00,125.1,19.979,5.005E-002,8.000,20.000,0.000,0.000,0.000,0.000,28.000,No
 Zone Internal Gains Nominal, ALL_ST=HOSPITAL - LOUNGE/RECREATION_FL=STORY 2_SCH=B,1875.00,187.5,10.000,10.000E-002,11.500,1.000,0.000,0.000,0.000,0.000,12.500,No
 Zone Internal Gains Nominal, ALL_ST=HOSPITAL - MEDICAL SUPPLY_FL=STORY 2_SCH=H,1875.00,93.8,19.979,5.005E-002,13.700,1.000,0.000,0.000,0.000,0.000,14.700,No
 Zone Internal Gains Nominal, DU_BT=SPACE FUNCTION_ST=DORMITORY - LIVING QUARTERS_FL=STORY 4_SCHG,2500.00,100.1,24.974,4.004E-002,4.100,2.500,0.000,0.000,0.000,0.000,6.600,No
 Zone Internal Gains Nominal, DU_BT=SPACE FUNCTION_ST=DWELLING UNIT(S)_FL=STORY 2_SCHG,1875.00,31.3,59.937,1.668E-002,5.000,5.000,0.000,0.000,0.000,0.000,10.000,No
 Zone Internal Gains Nominal, DU_BT=SPACE FUNCTION_ST=FIRE STATION - QUARTERS_FL=STORY 4_SCHG,1875.00,75.1,24.974,4.004E-002,3.400,2.500,0.000,0.000,0.000,0.000,5.900,No
! <People Internal Gains Nominal>,Name,Schedule Name,Zone Name,Zone Floor Area {m2},# Zone Occupants,Number of People {},People/Floor Area {person/m2},Floor Area per person {m2/person},Fraction Radiant,Fraction Convected,Sensible Fraction Calculation,Activity level,ASHRAE 55 Warnings,Carbon Dioxide Generation Rate,Nominal Minimum Number of People,Nominal Maximum Number of People
 People Internal Gains Nominal, ALL_ST=COURTHOUSE - CHAMBERS_FL=STORY 4_SCH=A SPACE FUNCTION COURTHOUSE - CHAMBERS PEOPLE,NECB-A-OCCUPANCY,ALL_ST=COURTHOUSE - CHAMBERS_FL=STORY 4_SCH=A,1875.00,93.8,93.8,5.005E-002,19.979,0.300,0.700,AutoCalculate,NECB-ACTIVITY,No,3.8200E-008,0,84
 People Internal Gains Nominal, ALL_ST=COURTHOUSE - COURTROOM_FL=STORY 3_SCH=A SPACE FUNCTION COURTHOUSE - COURTROOM PEOPLE,NECB-A-OCCUPANCY,ALL_ST=COURTHOUSE - COURTROOM_FL=STORY 3_SCH=A,2500.00,500.0,500.0,0.200,5.000,0.300,0.700,AutoCalculate,NECB-ACTIVITY,No,3.8200E-008,0,450
 People Internal Gains Nominal, ALL_ST=DINING - BAR LOUNGE/LEISURE_FL=STORY 3_SCH=B SPACE FUNCTION DINING - BAR LOUNGE/LEISURE PEOPLE,NECB-B-OCCUPANCY,ALL_ST=DINING - BAR LOUNGE/LEISURE_FL=STORY 3_SCH=B,1875.00,187.5,187.5,10.000E-002,10.000,0.300,0.700,AutoCalculate,NECB-ACTIVITY,No,3.8200E-008,0,169
 People Internal Gains Nominal, ALL_ST=DINING - FAMILY SPACE_FL=STORY 3_SCH=B SPACE FUNCTION DINING - FAMILY SPACE PEOPLE,NECB-B-OCCUPANCY,ALL_ST=DINING - FAMILY SPACE_FL=STORY 3_SCH=B,1875.00,187.5,187.5,10.000E-002,10.000,0.300,0.700,AutoCalculate,NECB-ACTIVITY,No,3.8200E-008,0,169
 People Internal Gains Nominal, ALL_ST=DINING - OTHER_FL=STORY 1_SCH=B SPACE FUNCTION DINING - OTHER PEOPLE,NECB-B-OCCUPANCY,ALL_ST=DINING - OTHER_FL=STORY 1_SCH=B,1875.00,187.5,187.5,10.000E-002,10.000,0.300,0.700,AutoCalculate,NECB-ACTIVITY,No,3.8200E-008,0,169
 People Internal Gains Nominal, DU_BT=SPACE FUNCTION_ST=DORMITORY - LIVING QUARTERS_FL=STORY 4_SCHG SPACE FUNCTION DORMITORY - LIVING QUARTERS PEOPLE,NECB-G-OCCUPANCY,DU_BT=SPACE FUNCTION_ST=DORMITORY - LIVING QUARTERS_FL=STORY 4_SCHG,2500.00,100.1,100.1,4.004E-002,24.974,0.300,0.700,AutoCalculate,NECB-ACTIVITY,No,3.8200E-008,30,90
 People Internal Gains Nominal, ALL_ST=DRESS./FITT. - PERFORMANCE ARTS_FL=STORY 3_SCH=C SPACE FUNCTION DRESS./FITT. - PERFORMANCE ARTS PEOPLE,NECB-C-OCCUPANCY,ALL_ST=DRESS./FITT. - PERFORMANCE ARTS_FL=STORY 3_SCH=C,1875.00,62.6,62.6,3.337E-002,29.969,0.300,0.700,AutoCalculate,NECB-ACTIVITY,No,3.8200E-008,0,56
 People Internal Gains Nominal, DU_BT=SPACE FUNCTION_ST=DWELLING UNIT(S)_FL=STORY 2_SCHG SPACE FUNCTION DWELLING UNIT(S) PEOPLE,NECB-G-OCCUPANCY,DU_BT=SPACE FUNCTION_ST=DWELLING UNIT(S)_FL=STORY 2_SCHG,1875.00,31.3,31.3,1.668E-002,59.937,0.300,0.700,AutoCalculate,NECB-ACTIVITY,No,3.8200E-008,9,28
 People Internal Gains Nominal, ALL_ST=FIRE STATION - ENGINE ROOM_FL=STORY 1_SCH=H SPACE FUNCTION FIRE STATION - ENGINE ROOM PEOPLE,NECB-H-OCCUPANCY,ALL_ST=FIRE STATION - ENGINE ROOM_FL=STORY 1_SCH=H,1875.00,75.1,75.1,4.004E-002,24.974,0.300,0.700,AutoCalculate,NECB-ACTIVITY,No,3.8200E-008,68,68
 People Internal Gains Nominal, DU_BT=SPACE FUNCTION_ST=FIRE STATION - QUARTERS_FL=STORY 4_SCHG SPACE FUNCTION FIRE STATION - QUARTERS PEOPLE,NECB-G-OCCUPANCY,DU_BT=SPACE FUNCTION_ST=FIRE STATION - QUARTERS_FL=STORY 4_SCHG,1875.00,75.1,75.1,4.004E-002,24.974,0.300,0.700,AutoCalculate,NECB-ACTIVITY,No,3.8200E-008,23,68
 People Internal Gains Nominal, ALL_ST=FOOD PREPARATION_FL=STORY 2_SCH=B SPACE FUNCTION FOOD PREPARATION PEOPLE,NECB-B-OCCUPANCY,ALL_ST=FOOD PREPARATION_FL=STORY 2_SCH=B,2500.00,125.1,125.1,5.005E-002,19.979,0.300,0.700,AutoCalculate,NECB-ACTIVITY,No,3.8200E-008,0,113
 People Internal Gains Nominal, ALL_ST=FOOD PREPARATION - VENTED_FL=STORY 4_SCH=B SPACE FUNCTION FOOD PREPARATION - VENTED PEOPLE,NECB-B-OCCUPANCY,ALL_ST=FOOD PREPARATION - VENTED_FL=STORY 4_SCH=B,1875.00,93.8,93.8,5.005E-002,19.979,0.300,0.700,AutoCalculate,NECB-ACTIVITY,No,3.8200E-008,0,84
 People Internal Gains Nominal, ALL_ST=GYM - AUDIENCE_FL=STORY 4_SCH=B SPACE FUNCTION GYM - AUDIENCE PEOPLE,NECB-B-OCCUPANCY,ALL_ST=GYM - AUDIENCE_FL=STORY 4_SCH=B,1875.00,375.0,375.0,0.200,5.000,0.300,0.700,AutoCalculate,NECB-ACTIVITY,No,3.8200E-008,0,337
 People Internal Gains Nominal, ALL_ST=GYM - FITNESS_FL=STORY 1_SCH=B SPACE FUNCTION GYM - FITNESS PEOPLE,NECB-B-OCCUPANCY,ALL_ST=GYM - FITNESS_FL=STORY 1_SCH=B,1875.00,375.0,375.0,0.200,5.000,0.300,0.700,AutoCalculate,NECB-ACTIVITY,No,3.8200E-008,0,337
 People Internal Gains Nominal, ALL_ST=GYM - PLAY_FL=STORY 1_SCH=B SPACE FUNCTION GYM - PLAY PEOPLE,NECB-B-OCCUPANCY,ALL_ST=GYM - PLAY_FL=STORY 1_SCH=B,1875.00,375.0,375.0,0.200,5.000,0.300,0.700,AutoCalculate,NECB-ACTIVITY,No,3.8200E-008,0,337
 People Internal Gains Nominal, ALL_ST=HOSPITAL - EMERGENCY_FL=STORY 2_SCH=H SPACE FUNCTION HOSPITAL - EMERGENCY PEOPLE,NECB-H-OCCUPANCY,ALL_ST=HOSPITAL - EMERGENCY_FL=STORY 2_SCH=H,1875.00,93.8,93.8,5.005E-002,19.979,0.300,0.700,AutoCalculate,NECB-ACTIVITY,No,3.8200E-008,84,84
 People Internal Gains Nominal, ALL_ST=HOSPITAL - EXAM_FL=STORY 3_SCH=C SPACE FUNCTION HOSPITAL - EXAM PEOPLE,NECB-C-OCCUPANCY,ALL_ST=HOSPITAL - EXAM_FL=STORY 3_SCH=C,1875.00,93.8,93.8,5.005E-002,19.979,0.300,0.700,AutoCalculate,NECB-ACTIVITY,No,3.8200E-008,0,84
 People Internal Gains Nominal, ALL_ST=HOSPITAL - LAUNDRY/WASHING_FL=STORY 1_SCH=C SPACE FUNCTION HOSPITAL - LAUNDRY/WASHING PEOPLE,NECB-C-OCCUPANCY,ALL_ST=HOSPITAL - LAUNDRY/WASHING_FL=STORY 1_SCH=C,2500.00,125.1,125.1,5.005E-002,19.979,0.300,0.700,AutoCalculate,NECB-ACTIVITY,No,3.8200E-008,0,113
 People Internal Gains Nominal, ALL_ST=HOSPITAL - LOUNGE/RECREATION_FL=STORY 2_SCH=B SPACE FUNCTION HOSPITAL - LOUNGE/RECREATION PEOPLE,NECB-B-OCCUPANCY,ALL_ST=HOSPITAL - LOUNGE/RECREATION_FL=STORY 2_SCH=B,1875.00,187.5,187.5,10.000E-002,10.000,0.300,0.700,AutoCalculate,NECB-ACTIVITY,No,3.8200E-008,0,169
 People Internal Gains Nominal, ALL_ST=HOSPITAL - MEDICAL SUPPLY_FL=STORY 2_SCH=H SPACE FUNCTION HOSPITAL - MEDICAL SUPPLY PEOPLE,NECB-H-OCCUPANCY,ALL_ST=HOSPITAL - MEDICAL SUPPLY_FL=STORY 2_SCH=H,1875.00,93.8,93.8,5.005E-002,19.979,0.300,0.700,AutoCalculate,NECB-ACTIVITY,No,3.8200E-008,84,84
! <Lights Internal Gains Nominal>,Name,Schedule Name,Zone Name,Zone Floor Area {m2},# Zone Occupants,Lighting Level {W},Lights/Floor Area {W/m2},Lights per person {W/person},Fraction Return Air,Fraction Radiant,Fraction Short Wave,Fraction Convected,Fraction Replaceable,End-Use Category,Nominal Minimum Lighting Level {W},Nominal Maximum Lighting Level {W}
 Lights Internal Gains Nominal, ALL_ST=COURTHOUSE - CHAMBERS_FL=STORY 4_SCH=A SPACE FUNCTION COURTHOUSE - CHAMBERS LIGHTS,NECB-A-LIGHTING,ALL_ST=COURTHOUSE - CHAMBERS_FL=STORY 4_SCH=A,1875.00,93.8,23624.803,12.600,251.735,0.000,0.500,0.200,0.300,1.000,General,1181.240,21262.323
 Lights Internal Gains Nominal, ALL_ST=COURTHOUSE - COURTROOM_FL=STORY 3_SCH=A SPACE FUNCTION COURTHOUSE - COURTROOM LIGHTS,NECB-A-LIGHTING,ALL_ST=COURTHOUSE - COURTROOM_FL=STORY 3_SCH=A,2500.00,500.0,46249.615,18.500,92.502,0.000,0.500,0.200,0.300,1.000,General,2312.481,41624.654
 Lights Internal Gains Nominal, ALL_ST=DINING - BAR LOUNGE/LEISURE_FL=STORY 3_SCH=B SPACE FUNCTION DINING - BAR LOUNGE/LEISURE LIGHTS,NECB-B-LIGHTING,ALL_ST=DINING - BAR LOUNGE/LEISURE_FL=STORY 3_SCH=B,1875.00,187.5,26437.280,14.100,141.003,0.000,0.500,0.200,0.300,1.000,General,2643.728,23793.552
 Lights Internal Gains Nominal, ALL_ST=DINING - FAMILY SPACE_FL=STORY 3_SCH=B SPACE FUNCTION DINING - FAMILY SPACE LIGHTS,NECB-B-LIGHTING,ALL_ST=DINING - FAMILY SPACE_FL=STORY 3_SCH=B,1875.00,187.5,17999.850,9.600,96.002,0.000,0.500,0.200,0.300,1.000,General,1799.985,16199.865
 Lights Internal Gains Nominal, ALL_ST=DINING - OTHER_FL=STORY 1_SCH=B SPACE FUNCTION DINING - OTHER LIGHTS,NECB-B-LIGHTING,ALL_ST=DINING - OTHER_FL=STORY 1_SCH=B,1875.00,187.5,13124.891,7.000,70.002,0.000,0.500,0.200,0.300,1.000,General,1312.489,11812.402
 Lights Internal Gains Nominal, DU_BT=SPACE FUNCTION_ST=DORMITORY - LIVING QUARTERS_FL=STORY 4_SCHG SPACE FUNCTION DORMITORY - LIVING QUARTERS LIGHTS,NECB-G-LIGHTING,DU_BT=SPACE FUNCTION_ST=DORMITORY - LIVING QUARTERS_FL=STORY 4_SCHG,2500.00,100.1,10249.915,4.100,102.392,0.000,0.500,0.200,0.300,1.000,General,0.000,9224.923
 Lights Internal Gains Nominal, ALL_ST=DRESS./FITT. - PERFORMANCE ARTS_FL=STORY 3_SCH=C SPACE FUNCTION DRESS./FITT. - PERFORMANCE ARTS LIGHTS,NECB-C-LIGHTING,ALL_ST=DRESS./FITT. - PERFORMANCE ARTS_FL=STORY 3_SCH=C,1875.00,62.6,7256.190,3.870,115.978,0.000,0.500,0.200,0.300,1.000,General,362.809,6530.571
 Lights Internal Gains Nominal, DU_BT=SPACE FUNCTION_ST=DWELLING UNIT(S)_FL=STORY 2_SCHG SPACE FUNCTION DWELLING UNIT(S) LIGHTS,NECB-G-LIGHTING,DU_BT=SPACE FUNCTION_ST=DWELLING UNIT(S)_FL=STORY 2_SCHG,1875.00,31.3,9374.922,5.000,299.685,0.000,0.500,0.200,0.300,1.000,General,0.000,8437.430
 Lights Internal Gains Nominal, ALL_ST=FIRE STATION - ENGINE ROOM_FL=STORY 1_SCH=H SPACE FUNCTION FIRE STATION - ENGINE ROOM LIGHTS,NECB-H-LIGHTING,ALL_ST=FIRE STATION - ENGINE ROOM_FL=STORY 1_SCH=H,1875.00,75.1,11249.906,6.000,149.842,0.000,0.500,0.200,0.300,1.000,General,10124.916,10124.916
 Lights Internal Gains Nominal, DU_BT=SPACE FUNCTION_ST=FIRE STATION - QUARTERS_FL=STORY 4_SCHG SPACE FUNCTION FIRE STATION - QUARTERS LIGHTS,NECB-G-LIGHTING,DU_BT=SPACE FUNCTION_ST=FIRE STATION - QUARTERS_FL=STORY 4_SCHG,1875.00,75.1,6374.947,3.400,84.911,0.000,0.500,0.200,0.300,1.000,General,0.000,5737.452
 Lights Internal Gains Nominal, ALL_ST=FOOD PREPARATION_FL=STORY 2_SCH=B SPACE FUNCTION FOOD PREPARATION LIGHTS,NECB-B-LIGHTING,ALL_ST=FOOD PREPARATION_FL=STORY 2_SCH=B,2500.00,125.1,26749.777,10.700,213.775,0.000,0.500,0.200,0.300,1.000,General,2674.978,24074.800
 Lights Internal Gains Nominal, ALL_ST=FOOD PREPARATION - VENTED_FL=STORY 4_SCH=B SPACE FUNCTION FOOD PREPARATION - VENTED LIGHTS,NECB-B-LIGHTING,ALL_ST=FOOD PREPARATION - VENTED_FL=STORY 4_SCH=B,1875.00,93.8,20062.333,10.700,213.775,0.000,0.500,0.200,0.300,1.000,General,2006.233,18056.100
 Lights Internal Gains Nominal, ALL_ST=GYM - AUDIENCE_FL=STORY 4_SCH=B SPACE FUNCTION GYM - AUDIENCE LIGHTS,NECB-B-LIGHTING,ALL_ST=GYM - AUDIENCE_FL=STORY 4_SCH=B,1875.00,375.0,8624.928,4.600,23.001,0.000,0.500,0.200,0.300,1.000,General,862.493,7762.435
 Lights Internal Gains Nominal, ALL_ST=GYM - FITNESS_FL=STORY 1_SCH=B SPACE FUNCTION GYM - FITNESS LIGHTS,NECB-B-LIGHTING,ALL_ST=GYM - FITNESS_FL=STORY 1_SCH=B,1875.00,375.0,18374.847,9.800,49.001,0.000,0.500,0.200,0.300,1.000,General,1837.485,16537.362
 Lights Internal Gains Nominal, ALL_ST=GYM - PLAY_FL=STORY 1_SCH=B SPACE FUNCTION GYM - PLAY LIGHTS,NECB-B-LIGHTING,ALL_ST=GYM - PLAY_FL=STORY 1_SCH=B,1875.00,375.0,24187.299,12.900,64.502,0.000,0.500,0.200,0.300,1.000,General,2418.730,21768.569
 Lights Internal Gains Nominal, ALL_ST=HOSPITAL - EMERGENCY_FL=STORY 2_SCH=H SPACE FUNCTION HOSPITAL - EMERGENCY LIGHTS,NECB-H-LIGHTING,ALL_ST=HOSPITAL - EMERGENCY_FL=STORY 2_SCH=H,1875.00,93.8,45562.121,24.300,485.489,0.000,0.500,0.200,0.300,1.000,General,41005.909,41005.909
 Lights Internal Gains Nominal, ALL_ST=HOSPITAL - EXAM_FL=STORY 3_SCH=C SPACE FUNCTION HOSPITAL - EXAM LIGHTS,NECB-C-LIGHTING,ALL_ST=HOSPITAL - EXAM_FL=STORY 3_SCH=C,1875.00,93.8,33562.221,17.900,357.624,0.000,0.500,0.200,0.300,1.000,General,1678.111,30205.999
 Lights Internal Gains Nominal, ALL_ST=HOSPITAL - LAUNDRY/WASHING_FL=STORY 1_SCH=C SPACE FUNCTION HOSPITAL - LAUNDRY/WASHING LIGHTS,NECB-C-LIGHTING,ALL_ST=HOSPITAL - LAUNDRY/WASHING_FL=STORY 1_SCH=C,2500.00,125.1,19999.834,8.000,159.832,0.000,0.500,0.200,0.300,1.000,General,999.992,17999.850
 Lights Internal Gains Nominal, ALL_ST=HOSPITAL - LOUNGE/RECREATION_FL=STORY 2_SCH=B SPACE FUNCTION HOSPITAL - LOUNGE/RECREATION LIGHTS,NECB-B-LIGHTING,ALL_ST=HOSPITAL - LOUNGE/RECREATION_FL=STORY 2_SCH=B,1875.00,187.5,21562.321,11.500,115.003,0.000,0.500,0.200,0.300,1.000,General,2156.232,19406.088
 Lights Internal Gains Nominal, ALL_ST=HOSPITAL - MEDICAL SUPPLY_FL=STORY 2_SCH=H SPACE FUNCTION HOSPITAL - MEDICAL SUPPLY LIGHTS,NECB-H-LIGHTING,ALL_ST=HOSPITAL - MEDICAL SUPPLY_FL=STORY 2_SCH=H,1875.00,93.8,25687.286,13.700,273.712,0.000,0.500,0.200,0.300,1.000,General,23118.558,23118.558
! <ElectricEquipment Internal Gains Nominal>,Name,Schedule Name,Zone Name,Zone Floor Area {m2},# Zone Occupants,Equipment Level {W},Equipment/Floor Area {W/m2},Equipment per person {W/person},Fraction Latent,Fraction Radiant,Fraction Lost,Fraction Convected,End-Use SubCategory,Nominal Minimum Equipment Level {W},Nominal Maximum Equipment Level {W}
 ElectricEquipment Internal Gains Nominal, ALL_ST=COURTHOUSE - CHAMBERS_FL=STORY 4_SCH=A SPACE FUNCTION COURTHOUSE - CHAMBERS ELEC EQUIP,NECB-A-ELECTRIC-EQUIPMENT,ALL_ST=COURTHOUSE - CHAMBERS_FL=STORY 4_SCH=A,1875.00,93.8,14062.383,7.500,149.842,0.000,0.500,0.000,0.500,General,2812.477,12656.145
 ElectricEquipment Internal Gains Nominal, ALL_ST=COURTHOUSE - COURTROOM_FL=STORY 3_SCH=A SPACE FUNCTION COURTHOUSE - COURTROOM ELEC EQUIP,NECB-A-ELECTRIC-EQUIPMENT,ALL_ST=COURTHOUSE - COURTROOM_FL=STORY 3_SCH=A,2500.00,500.0,6249.948,2.500,12.500,0.000,0.500,0.000,0.500,General,1249.990,5624.953
 ElectricEquipment Internal Gains Nominal, ALL_ST=DINING - BAR LOUNGE/LEISURE_FL=STORY 3_SCH=B SPACE FUNCTION DINING - BAR LOUNGE/LEISURE ELEC EQUIP,NECB-B-ELECTRIC-EQUIPMENT,ALL_ST=DINING - BAR LOUNGE/LEISURE_FL=STORY 3_SCH=B,1875.00,187.5,1874.984,1.000,10.000,0.000,0.500,0.000,0.500,General,187.498,1687.486
 ElectricEquipment Internal Gains Nominal, ALL_ST=DINING - FAMILY SPACE_FL=STORY 3_SCH=B SPACE FUNCTION DINING - FAMILY SPACE ELEC EQUIP,NECB-B-ELECTRIC-EQUIPMENT,ALL_ST=DINING - FAMILY SPACE_FL=STORY 3_SCH=B,1875.00,187.5,1874.984,1.000,10.000,0.000,0.500,0.000,0.500,General,187.498,1687.486
 ElectricEquipment Internal Gains Nominal, ALL_ST=DINING - OTHER_FL=STORY 1_SCH=B SPACE FUNCTION DINING - OTHER ELEC EQUIP,NECB-B-ELECTRIC-EQUIPMENT,ALL_ST=DINING - OTHER_FL=STORY 1_SCH=B,1875.00,187.5,1874.984,1.000,10.000,0.000,0.500,0.000,0.500,General,187.498,1687.486
 ElectricEquipment Internal Gains Nominal, DU_BT=SPACE FUNCTION_ST=DORMITORY - LIVING QUARTERS_FL=STORY 4_SCHG SPACE FUNCTION DORMITORY - LIVING QUARTERS ELEC EQUIP,NECB-G-ELECTRIC-EQUIPMENT,DU_BT=SPACE FUNCTION_ST=DORMITORY - LIVING QUARTERS_FL=STORY 4_SCHG,2500.00,100.1,6249.948,2.500,62.434,0.000,0.500,0.000,0.500,General,1249.990,5624.953
 ElectricEquipment Internal Gains Nominal, ALL_ST=DRESS./FITT. - PERFORMANCE ARTS_FL=STORY 3_SCH=C SPACE FUNCTION DRESS./FITT. - PERFORMANCE ARTS ELEC EQUIP,NECB-C-ELECTRIC-EQUIPMENT,ALL_ST=DRESS./FITT. - PERFORMANCE ARTS_FL=STORY 3_SCH=C,1875.00,62.6,4687.461,2.500,74.921,0.000,0.500,0.000,0.500,General,234.373,4218.715
 ElectricEquipment Internal Gains Nominal, DU_BT=SPACE FUNCTION_ST=DWELLING UNIT(S)_FL=STORY 2_SCHG SPACE FUNCTION DWELLING UNIT(S) ELEC EQUIP,NECB-G-ELECTRIC-EQUIPMENT,DU_BT=SPACE FUNCTION_ST=DWELLING UNIT(S)_FL=STORY 2_SCHG,1875.00,31.3,9374.922,5.000,299.685,0.000,0.500,0.000,0.500,General,1874.984,8437.430
 ElectricEquipment Internal Gains Nominal, ALL_ST=FIRE STATION - ENGINE ROOM_FL=STORY 1_SCH=H SPACE FUNCTION FIRE STATION - ENGINE ROOM ELEC EQUIP,NECB-H-ELECTRIC-EQUIPMENT,ALL_ST=FIRE STATION - ENGINE ROOM_FL=STORY 1_SCH=H,1875.00,75.1,4687.461,2.500,62.434,0.000,0.500,0.000,0.500,General,4218.715,4218.715
 ElectricEquipment Internal Gains Nominal, DU_BT=SPACE FUNCTION_ST=FIRE STATION - QUARTERS_FL=STORY 4_SCHG SPACE FUNCTION FIRE STATION - QUARTERS ELEC EQUIP,NECB-G-ELECTRIC-EQUIPMENT,DU_BT=SPACE FUNCTION_ST=FIRE STATION - QUARTERS_FL=STORY 4_SCHG,1875.00,75.1,4687.461,2.500,62.434,0.000,0.500,0.000,0.500,General,937.492,4218.715
 ElectricEquipment Internal Gains Nominal, ALL_ST=FOOD PREPARATION_FL=STORY 2_SCH=B SPACE FUNCTION FOOD PREPARATION ELEC EQUIP,NECB-B-ELECTRIC-EQUIPMENT,ALL_ST=FOOD PREPARATION_FL=STORY 2_SCH=B,2500.00,125.1,24999.792,10.000,199.790,0.000,0.500,0.000,0.500,General,2499.979,22499.813
 ElectricEquipment Internal Gains Nominal, ALL_ST=FOOD PREPARATION - VENTED_FL=STORY 4_SCH=B SPACE FUNCTION FOOD PREPARATION - VENTED ELEC EQUIP,NECB-B-ELECTRIC-EQUIPMENT,ALL_ST=FOOD PREPARATION - VENTED_FL=STORY 4_SCH=B,1875.00,93.8,18749.844,10.000,199.790,0.000,0.500,0.000,0.500,General,1874.984,16874.860
 ElectricEquipment Internal Gains Nominal, ALL_ST=GYM - FITNESS_FL=STORY 1_SCH=B SPACE FUNCTION GYM - FITNESS ELEC EQUIP,NECB-B-ELECTRIC-EQUIPMENT,ALL_ST=GYM - FITNESS_FL=STORY 1_SCH=B,1875.00,375.0,1874.984,1.000,5.000,0.000,0.500,0.000,0.500,General,187.498,1687.486
 ElectricEquipment Internal Gains Nominal, ALL_ST=GYM - PLAY_FL=STORY 1_SCH=B SPACE FUNCTION GYM - PLAY ELEC EQUIP,NECB-B-ELECTRIC-EQUIPMENT,ALL_ST=GYM - PLAY_FL=STORY 1_SCH=B,1875.00,375.0,2812.477,1.500,7.500,0.000,0.500,0.000,0.500,General,281.248,2531.229
 ElectricEquipment Internal Gains Nominal, ALL_ST=HOSPITAL - EMERGENCY_FL=STORY 2_SCH=H SPACE FUNCTION HOSPITAL - EMERGENCY ELEC EQUIP,NECB-H-ELECTRIC-EQUIPMENT,ALL_ST=HOSPITAL - EMERGENCY_FL=STORY 2_SCH=H,1875.00,93.8,18749.844,10.000,199.790,0.000,0.500,0.000,0.500,General,16874.860,16874.860
 ElectricEquipment Internal Gains Nominal, ALL_ST=HOSPITAL - EXAM_FL=STORY 3_SCH=C SPACE FUNCTION HOSPITAL - EXAM ELEC EQUIP,NECB-C-ELECTRIC-EQUIPMENT,ALL_ST=HOSPITAL - EXAM_FL=STORY 3_SCH=C,1875.00,93.8,18749.844,10.000,199.790,0.000,0.500,0.000,0.500,General,937.492,16874.860
 ElectricEquipment Internal Gains Nominal, ALL_ST=HOSPITAL - LAUNDRY/WASHING_FL=STORY 1_SCH=C SPACE FUNCTION HOSPITAL - LAUNDRY/WASHING ELEC EQUIP,NECB-C-ELECTRIC-EQUIPMENT,ALL_ST=HOSPITAL - LAUNDRY/WASHING_FL=STORY 1_SCH=C,2500.00,125.1,49999.584,20.000,399.580,0.000,0.500,0.000,0.500,General,2499.979,44999.625
 ElectricEquipment Internal Gains Nominal, ALL_ST=HOSPITAL - LOUNGE/RECREATION_FL=STORY 2_SCH=B SPACE FUNCTION HOSPITAL - LOUNGE/RECREATION ELEC EQUIP,NECB-B-ELECTRIC-EQUIPMENT,ALL_ST=HOSPITAL - LOUNGE/RECREATION_FL=STORY 2_SCH=B,1875.00,187.5,1874.984,1.000,10.000,0.000,0.500,0.000,0.500,General,187.498,1687.486
 ElectricEquipment Internal Gains Nominal, ALL_ST=HOSPITAL - MEDICAL SUPPLY_FL=STORY 2_SCH=H SPACE FUNCTION HOSPITAL - MEDICAL SUPPLY ELEC EQUIP,NECB-H-ELECTRIC-EQUIPMENT,ALL_ST=HOSPITAL - MEDICAL SUPPLY_FL=STORY 2_SCH=H,1875.00,93.8,1874.984,1.000,19.979,0.000,0.500,0.000,0.500,General,1687.486,1687.486
! <Shadowing/Sun Position Calculations Annual Simulations>, Calculation Method, Value {days}, Allowable Number Figures in Shadow Overlap {}, Polygon Clipping Algorithm, Sky Diffuse Modeling Algorithm, External Shading Calculation Method, Output External Shading Calculation Results, Disable Self-Shading Within Shading Zone Groups, Disable Self-Shading From Shading Zone Groups to Other Zones
Shadowing/Sun Position Calculations Annual Simulations,AverageOverDaysInFrequency,20,15000,SutherlandHodgman,SimpleSkyDiffuseModeling,InternalCalculation,No,No,No
! <Water Heater Information>,Type,Name,Volume {m3},Maximum Capacity {W},Standard Rated Recovery Efficiency, Standard Rated Energy Factor
! <ZoneInfiltration Airflow Stats Nominal>,Name,Schedule Name,Zone Name, Zone Floor Area {m2}, # Zone Occupants,Design Volume Flow Rate {m3/s},Volume Flow Rate/Floor Area {m3/s/m2},Volume Flow Rate/Exterior Surface Area {m3/s/m2},ACH - Air Changes per Hour,Equation A - Constant Term Coefficient {},Equation B - Temperature Term Coefficient {1/C},Equation C - Velocity Term Coefficient {s/m}, Equation D - Velocity Squared Term Coefficient {s2/m2}
 ZoneInfiltration Airflow Stats Nominal, COURTHOUSE - CHAMBERS-SPACE FUNCTION INFILTRATION,ALWAYS ON DISCRETE,ALL_ST=COURTHOUSE - CHAMBERS_FL=STORY 4_SCH=A,1875.00,93.8,0.564,3.007E-004,2.500E-004,0.285,0.000,0.000,0.224,0.000
 ZoneInfiltration Airflow Stats Nominal, DINING - BAR LOUNGE/LEISURE-SPACE FUNCTION INFILTRATION,ALWAYS ON DISCRETE,ALL_ST=DINING - BAR LOUNGE/LEISURE_FL=STORY 3_SCH=B,1875.00,187.5,9.500E-002,5.067E-005,2.500E-004,4.800E-002,0.000,0.000,0.224,0.000
 ZoneInfiltration Airflow Stats Nominal, DINING - FAMILY SPACE-SPACE FUNCTION INFILTRATION,ALWAYS ON DISCRETE,ALL_ST=DINING - FAMILY SPACE_FL=STORY 3_SCH=B,1875.00,187.5,9.500E-002,5.067E-005,2.500E-004,4.800E-002,0.000,0.000,0.224,0.000
 ZoneInfiltration Airflow Stats Nominal, DRESS./FITT. - PERFORMANCE ARTS-SPACE FUNCTION INFILTRATION,ALWAYS ON DISCRETE,ALL_ST=DRESS./FITT. - PERFORMANCE ARTS_FL=STORY 3_SCH=C,1875.00,62.6,9.500E-002,5.067E-005,2.500E-004,4.800E-002,0.000,0.000,0.224,0.000
 ZoneInfiltration Airflow Stats Nominal, FOOD PREPARATION - VENTED-SPACE FUNCTION INFILTRATION,ALWAYS ON DISCRETE,ALL_ST=FOOD PREPARATION - VENTED_FL=STORY 4_SCH=B,1875.00,93.8,0.564,3.007E-004,2.500E-004,0.285,0.000,0.000,0.224,0.000
 ZoneInfiltration Airflow Stats Nominal, GYM - AUDIENCE-SPACE FUNCTION INFILTRATION,ALWAYS ON DISCRETE,ALL_ST=GYM - AUDIENCE_FL=STORY 4_SCH=B,1875.00,375.0,0.564,3.007E-004,2.500E-004,0.285,0.000,0.000,0.224,0.000
 ZoneInfiltration Airflow Stats Nominal, HOSPITAL - EMERGENCY-SPACE FUNCTION INFILTRATION,ALWAYS ON DISCRETE,ALL_ST=HOSPITAL - EMERGENCY_FL=STORY 2_SCH=H,1875.00,93.8,9.500E-002,5.067E-005,2.500E-004,4.800E-002,0.000,0.000,0.224,0.000
 ZoneInfiltration Airflow Stats Nominal, HOSPITAL - EXAM-SPACE FUNCTION INFILTRATION,ALWAYS ON DISCRETE,ALL_ST=HOSPITAL - EXAM_FL=STORY 3_SCH=C,1875.00,93.8,9.500E-002,5.067E-005,2.500E-004,4.800E-002,0.000,0.000,0.224,0.000
 ZoneInfiltration Airflow Stats Nominal, HOSPITAL - LOUNGE/RECREATION-SPACE FUNCTION INFILTRATION,ALWAYS ON DISCRETE,ALL_ST=HOSPITAL - LOUNGE/RECREATION_FL=STORY 2_SCH=B,1875.00,187.5,9.500E-002,5.067E-005,2.500E-004,4.800E-002,0.000,0.000,0.224,0.000
 ZoneInfiltration Airflow Stats Nominal, HOSPITAL - MEDICAL SUPPLY-SPACE FUNCTION INFILTRATION,ALWAYS ON DISCRETE,ALL_ST=HOSPITAL - MEDICAL SUPPLY_FL=STORY 2_SCH=H,1875.00,93.8,9.500E-002,5.067E-005,2.500E-004,4.800E-002,0.000,0.000,0.224,0.000
 ZoneInfiltration Airflow Stats Nominal, DORMITORY - LIVING QUARTERS-SPACE FUNCTION INFILTRATION,ALWAYS ON DISCRETE,DU_BT=SPACE FUNCTION_ST=DORMITORY - LIVING QUARTERS_FL=STORY 4_SCHG,2500.00,100.1,0.625,2.500E-004,2.500E-004,0.237,0.000,0.000,0.224,0.000
 ZoneInfiltration Airflow Stats Nominal, DWELLING UNIT(S)-SPACE FUNCTION INFILTRATION,ALWAYS ON DISCRETE,DU_BT=SPACE FUNCTION_ST=DWELLING UNIT(S)_FL=STORY 2_SCHG,1875.00,31.3,9.500E-002,5.067E-005,2.500E-004,4.800E-002,0.000,0.000,0.224,0.000
 ZoneInfiltration Airflow Stats Nominal, FIRE STATION - QUARTERS-SPACE FUNCTION INFILTRATION,ALWAYS ON DISCRETE,DU_BT=SPACE FUNCTION_ST=FIRE STATION - QUARTERS_FL=STORY 4_SCHG,1875.00,75.1,0.564,3.007E-004,2.500E-004,0.285,0.000,0.000,0.224,0.000
! <AirFlow Model>, Simple
 AirFlow Model, Simple
! <RoomAir Model>, Zone Name, Mixing/Mundt/UCSDDV/UCSDCV/UCSDUFI/UCSDUFE/User Defined
RoomAir Model,ALL_ST=COURTHOUSE - CHAMBERS_FL=STORY 4_SCH=A,Mixing/Well-Stirred
RoomAir Model,ALL_ST=COURTHOUSE - COURTROOM_FL=STORY 3_SCH=A,Mixing/Well-Stirred
RoomAir Model,ALL_ST=DINING - BAR LOUNGE/LEISURE_FL=STORY 3_SCH=B,Mixing/Well-Stirred
RoomAir Model,ALL_ST=DINING - FAMILY SPACE_FL=STORY 3_SCH=B,Mixing/Well-Stirred
RoomAir Model,ALL_ST=DINING - OTHER_FL=STORY 1_SCH=B,Mixing/Well-Stirred
RoomAir Model,ALL_ST=DRESS./FITT. - PERFORMANCE ARTS_FL=STORY 3_SCH=C,Mixing/Well-Stirred
RoomAir Model,ALL_ST=FIRE STATION - ENGINE ROOM_FL=STORY 1_SCH=H,Mixing/Well-Stirred
RoomAir Model,ALL_ST=FOOD PREPARATION - VENTED_FL=STORY 4_SCH=B,Mixing/Well-Stirred
RoomAir Model,ALL_ST=FOOD PREPARATION_FL=STORY 2_SCH=B,Mixing/Well-Stirred
RoomAir Model,ALL_ST=GYM - AUDIENCE_FL=STORY 4_SCH=B,Mixing/Well-Stirred
RoomAir Model,ALL_ST=GYM - FITNESS_FL=STORY 1_SCH=B,Mixing/Well-Stirred
RoomAir Model,ALL_ST=GYM - PLAY_FL=STORY 1_SCH=B,Mixing/Well-Stirred
RoomAir Model,ALL_ST=HOSPITAL - EMERGENCY_FL=STORY 2_SCH=H,Mixing/Well-Stirred
RoomAir Model,ALL_ST=HOSPITAL - EXAM_FL=STORY 3_SCH=C,Mixing/Well-Stirred
RoomAir Model,ALL_ST=HOSPITAL - LAUNDRY/WASHING_FL=STORY 1_SCH=C,Mixing/Well-Stirred
RoomAir Model,ALL_ST=HOSPITAL - LOUNGE/RECREATION_FL=STORY 2_SCH=B,Mixing/Well-Stirred
RoomAir Model,ALL_ST=HOSPITAL - MEDICAL SUPPLY_FL=STORY 2_SCH=H,Mixing/Well-Stirred
RoomAir Model,DU_BT=SPACE FUNCTION_ST=DORMITORY - LIVING QUARTERS_FL=STORY 4_SCHG,Mixing/Well-Stirred
RoomAir Model,DU_BT=SPACE FUNCTION_ST=DWELLING UNIT(S)_FL=STORY 2_SCHG,Mixing/Well-Stirred
RoomAir Model,DU_BT=SPACE FUNCTION_ST=FIRE STATION - QUARTERS_FL=STORY 4_SCHG,Mixing/Well-Stirred
! <AirflowNetwork Model:Control>, No Multizone or Distribution/Multizone with Distribution/Multizone without Distribution/Multizone with Distribution only during Fan Operation
AirflowNetwork Model:Control,NoMultizoneOrDistribution
! <Zone Volume Capacitance Multiplier>, Sensible Heat Capacity Multiplier, Moisture Capacity Multiplier, Carbon Dioxide Capacity Multiplier, Generic Contaminant Capacity Multiplier
Zone Volume Capacitance Multiplier,   1.000 ,   1.000,   1.000,   1.000
! <Load Timesteps in Zone Design Calculation Averaging Window>, Value
 Load Timesteps in Zone Design Calculation Averaging Window,    6
! <Heating Sizing Factor Information>, Sizing Factor ID, Value
 Heating Sizing Factor Information, Global,   1.3000    
 Heating Sizing Factor Information, Zone ALL_ST=COURTHOUSE - CHAMBERS_FL=STORY 4_SCH=A,   1.3000    
 Heating Sizing Factor Information, Zone ALL_ST=COURTHOUSE - COURTROOM_FL=STORY 3_SCH=A,   1.3000    
 Heating Sizing Factor Information, Zone ALL_ST=DINING - BAR LOUNGE/LEISURE_FL=STORY 3_SCH=B,   1.3000    
 Heating Sizing Factor Information, Zone ALL_ST=DINING - FAMILY SPACE_FL=STORY 3_SCH=B,   1.3000    
 Heating Sizing Factor Information, Zone ALL_ST=DINING - OTHER_FL=STORY 1_SCH=B,   1.3000    
 Heating Sizing Factor Information, Zone ALL_ST=DRESS./FITT. - PERFORMANCE ARTS_FL=STORY 3_SCH=C,   1.3000    
 Heating Sizing Factor Information, Zone ALL_ST=FIRE STATION - ENGINE ROOM_FL=STORY 1_SCH=H,   1.3000    
 Heating Sizing Factor Information, Zone ALL_ST=FOOD PREPARATION - VENTED_FL=STORY 4_SCH=B,   1.3000    
 Heating Sizing Factor Information, Zone ALL_ST=FOOD PREPARATION_FL=STORY 2_SCH=B,   1.3000    
 Heating Sizing Factor Information, Zone ALL_ST=GYM - AUDIENCE_FL=STORY 4_SCH=B,   1.3000    
 Heating Sizing Factor Information, Zone ALL_ST=GYM - FITNESS_FL=STORY 1_SCH=B,   1.3000    
 Heating Sizing Factor Information, Zone ALL_ST=GYM - PLAY_FL=STORY 1_SCH=B,   1.3000    
 Heating Sizing Factor Information, Zone ALL_ST=HOSPITAL - EMERGENCY_FL=STORY 2_SCH=H,   1.3000    
 Heating Sizing Factor Information, Zone ALL_ST=HOSPITAL - EXAM_FL=STORY 3_SCH=C,   1.3000    
 Heating Sizing Factor Information, Zone ALL_ST=HOSPITAL - LAUNDRY/WASHING_FL=STORY 1_SCH=C,   1.3000    
 Heating Sizing Factor Information, Zone ALL_ST=HOSPITAL - LOUNGE/RECREATION_FL=STORY 2_SCH=B,   1.3000    
 Heating Sizing Factor Information, Zone ALL_ST=HOSPITAL - MEDICAL SUPPLY_FL=STORY 2_SCH=H,   1.3000    
 Heating Sizing Factor Information, Zone DU_BT=SPACE FUNCTION_ST=DORMITORY - LIVING QUARTERS_FL=STORY 4_SCHG,   1.3000    
 Heating Sizing Factor Information, Zone DU_BT=SPACE FUNCTION_ST=DWELLING UNIT(S)_FL=STORY 2_SCHG,   1.3000    
 Heating Sizing Factor Information, Zone DU_BT=SPACE FUNCTION_ST=FIRE STATION - QUARTERS_FL=STORY 4_SCHG,   1.3000    
! <Cooling Sizing Factor Information>, Sizing Factor ID, Value
 Cooling Sizing Factor Information, Global,   1.1000    
 Cooling Sizing Factor Information, Zone ALL_ST=COURTHOUSE - CHAMBERS_FL=STORY 4_SCH=A,   1.1000    
 Cooling Sizing Factor Information, Zone ALL_ST=COURTHOUSE - COURTROOM_FL=STORY 3_SCH=A,   1.1000    
 Cooling Sizing Factor Information, Zone ALL_ST=DINING - BAR LOUNGE/LEISURE_FL=STORY 3_SCH=B,   1.1000    
 Cooling Sizing Factor Information, Zone ALL_ST=DINING - FAMILY SPACE_FL=STORY 3_SCH=B,   1.1000    
 Cooling Sizing Factor Information, Zone ALL_ST=DINING - OTHER_FL=STORY 1_SCH=B,   1.1000    
 Cooling Sizing Factor Information, Zone ALL_ST=DRESS./FITT. - PERFORMANCE ARTS_FL=STORY 3_SCH=C,   1.1000    
 Cooling Sizing Factor Information, Zone ALL_ST=FIRE STATION - ENGINE ROOM_FL=STORY 1_SCH=H,   1.1000    
 Cooling Sizing Factor Information, Zone ALL_ST=FOOD PREPARATION - VENTED_FL=STORY 4_SCH=B,   1.1000    
 Cooling Sizing Factor Information, Zone ALL_ST=FOOD PREPARATION_FL=STORY 2_SCH=B,   1.1000    
 Cooling Sizing Factor Information, Zone ALL_ST=GYM - AUDIENCE_FL=STORY 4_SCH=B,   1.1000    
 Cooling Sizing Factor Information, Zone ALL_ST=GYM - FITNESS_FL=STORY 1_SCH=B,   1.1000    
 Cooling Sizing Factor Information, Zone ALL_ST=GYM - PLAY_FL=STORY 1_SCH=B,   1.1000    
 Cooling Sizing Factor Information, Zone ALL_ST=HOSPITAL - EMERGENCY_FL=STORY 2_SCH=H,   1.1000    
 Cooling Sizing Factor Information, Zone ALL_ST=HOSPITAL - EXAM_FL=STORY 3_SCH=C,   1.1000    
 Cooling Sizing Factor Information, Zone ALL_ST=HOSPITAL - LAUNDRY/WASHING_FL=STORY 1_SCH=C,   1.1000    
 Cooling Sizing Factor Information, Zone ALL_ST=HOSPITAL - LOUNGE/RECREATION_FL=STORY 2_SCH=B,   1.1000    
 Cooling Sizing Factor Information, Zone ALL_ST=HOSPITAL - MEDICAL SUPPLY_FL=STORY 2_SCH=H,   1.1000    
 Cooling Sizing Factor Information, Zone DU_BT=SPACE FUNCTION_ST=DORMITORY - LIVING QUARTERS_FL=STORY 4_SCHG,   1.1000    
 Cooling Sizing Factor Information, Zone DU_BT=SPACE FUNCTION_ST=DWELLING UNIT(S)_FL=STORY 2_SCHG,   1.1000    
 Cooling Sizing Factor Information, Zone DU_BT=SPACE FUNCTION_ST=FIRE STATION - QUARTERS_FL=STORY 4_SCHG,   1.1000    
! <Zone Sizing Information>, Zone Name, Load Type, Calc Des Load {W}, User Des Load {W}, Calc Des Air Flow Rate {m3/s}, User Des Air Flow Rate {m3/s}, Design Day Name, Date/Time of Peak, Temperature at Peak {C}, Humidity Ratio at Peak {kgWater/kgDryAir}, Floor Area {m2}, # Occupants, Calc Outdoor Air Flow Rate {m3/s}, Calc DOAS Heat Addition Rate {W}
 Zone Sizing Information, ALL_ST=COURTHOUSE - CHAMBERS_FL=STORY 4_SCH=A, Cooling, 89778.73813, 98756.61195, 6.93879, 7.63267, FORT MCMURRAY AP ANN CLG .4% CONDNS DB=>MWB, 7/21 13:30:00, 28.59000, 8.76969E-003, 1875.00000, 93.84784, 0.80963, 0.00000
 Zone Sizing Information, ALL_ST=COURTHOUSE - CHAMBERS_FL=STORY 4_SCH=A, Heating, 49806.56548, 64748.53513, 1.98604, 2.58185, FORT MCMURRAY AP ANN HTG 99.6% CONDNS DB, 1/21 08:00:00, -36.20000, 1.25811E-004, 1875.00000, 93.84784, 0.80963, 0.00000
 Zone Sizing Information, ALL_ST=COURTHOUSE - COURTROOM_FL=STORY 3_SCH=A, Cooling, 73184.00240, 80502.40264, 5.65838, 6.22422, FORT MCMURRAY AP ANN CLG .4% CONDNS DB=>MWB, 7/21 17:00:00, 27.16400, 8.76969E-003, 2500.00000, 499.98364, 5.20700, 0.00000
 Zone Sizing Information, ALL_ST=COURTHOUSE - COURTROOM_FL=STORY 3_SCH=A, Heating, 0.00000, 0.00000, 0.00000, 5.20700, FORT MCMURRAY AP ANN HTG 99.6% CONDNS DB, , -36.20000, 1.25811E-004, 2500.00000, 499.98364, 5.20700, 0.00000
 Zone Sizing Information, ALL_ST=DINING - BAR LOUNGE/LEISURE_FL=STORY 3_SCH=B, Cooling, 62152.63222, 68367.89544, 4.28165, 6.71513, FORT MCMURRAY AP ANN CLG .4% CONDNS DB=>MWB, 7/21 09:00:00, 22.08000, 8.76969E-003, 1875.00000, 187.49386, 6.71513, 0.00000
 Zone Sizing Information, ALL_ST=DINING - BAR LOUNGE/LEISURE_FL=STORY 3_SCH=B, Heating, 4722.70502, 6139.51652, 0.18606, 6.71513, FORT MCMURRAY AP ANN HTG 99.6% CONDNS DB, 1/21 09:40:00, -36.20000, 1.25811E-004, 1875.00000, 187.49386, 6.71513, 0.00000
 Zone Sizing Information, ALL_ST=DINING - FAMILY SPACE_FL=STORY 3_SCH=B, Cooling, 37335.63742, 41069.20116, 2.88588, 6.71513, FORT MCMURRAY AP ANN CLG .4% CONDNS DB=>MWB, 7/21 20:10:00, 22.51400, 8.76969E-003, 1875.00000, 187.49386, 6.71513, 0.00000
 Zone Sizing Information, ALL_ST=DINING - FAMILY SPACE_FL=STORY 3_SCH=B, Heating, 16092.35926, 20920.06704, 0.62663, 6.71513, FORT MCMURRAY AP ANN HTG 99.6% CONDNS DB, 1/21 10:00:00, -36.20000, 1.25811E-004, 1875.00000, 187.49386, 6.71513, 0.00000
 Zone Sizing Information, ALL_ST=DINING - OTHER_FL=STORY 1_SCH=B, Cooling, 29100.58566, 32010.64423, 2.24943, 6.71513, FORT MCMURRAY AP ANN CLG .4% CONDNS DB=>MWB, 7/21 21:00:00, 21.58400, 8.76969E-003, 1875.00000, 187.49386, 6.71513, 0.00000
 Zone Sizing Information, ALL_ST=DINING - OTHER_FL=STORY 1_SCH=B, Heating, 0.00000, 0.00000, 0.00000, 6.71513, FORT MCMURRAY AP ANN HTG 99.6% CONDNS DB, , -36.20000, 1.25811E-004, 1875.00000, 187.49386, 6.71513, 0.00000
 Zone Sizing Information, ALL_ST=DRESS./FITT. - PERFORMANCE ARTS_FL=STORY 3_SCH=C, Cooling, 36353.71176, 39989.08293, 2.80966, 3.09063, FORT MCMURRAY AP ANN CLG .4% CONDNS DB=>MWB, 7/21 14:10:00, 28.90000, 8.76969E-003, 1875.00000, 62.56523, 2.21933, 0.00000
 Zone Sizing Information, ALL_ST=DRESS./FITT. - PERFORMANCE ARTS_FL=STORY 3_SCH=C, Heating, 26399.45504, 34319.29155, 1.03937, 2.21933, FORT MCMURRAY AP ANN HTG 99.6% CONDNS DB, 1/21 09:00:00, -36.20000, 1.25811E-004, 1875.00000, 62.56523, 2.21933, 0.00000
 Zone Sizing Information, ALL_ST=FIRE STATION - ENGINE ROOM_FL=STORY 1_SCH=H, Cooling, 18359.38367, 20195.32204, 1.41891, 2.38125, FORT MCMURRAY AP ANN CLG .4% CONDNS DB=>MWB, 7/21 07:30:00, 18.67000, 8.76969E-003, 1875.00000, 75.07828, 2.38125, 0.00000
 Zone Sizing Information, ALL_ST=FIRE STATION - ENGINE ROOM_FL=STORY 1_SCH=H, Heating, 0.00000, 0.00000, 0.00000, 2.38125, FORT MCMURRAY AP ANN HTG 99.6% CONDNS DB, , -36.20000, 1.25811E-004, 1875.00000, 75.07828, 2.38125, 0.00000
 Zone Sizing Information, ALL_ST=FOOD PREPARATION - VENTED_FL=STORY 4_SCH=B, Cooling, 93116.29062, 102427.91968, 6.22336, 6.84570, FORT MCMURRAY AP ANN CLG .4% CONDNS DB=>MWB, 7/21 09:00:00, 22.08000, 8.76969E-003, 1875.00000, 93.84784, 2.57175, 0.00000
 Zone Sizing Information, ALL_ST=FOOD PREPARATION - VENTED_FL=STORY 4_SCH=B, Heating, 37840.70014, 49192.91018, 1.37358, 2.57175, FORT MCMURRAY AP ANN HTG 99.6% CONDNS DB, 1/21 09:00:00, -36.20000, 1.25811E-004, 1875.00000, 93.84784, 2.57175, 0.00000
 Zone Sizing Information, ALL_ST=FOOD PREPARATION_FL=STORY 2_SCH=B, Cooling, 52575.94945, 57833.54439, 4.06352, 4.46987, FORT MCMURRAY AP ANN CLG .4% CONDNS DB=>MWB, 7/21 20:00:00, 22.70000, 8.76969E-003, 2500.00000, 125.13046, 3.42900, 0.00000
 Zone Sizing Information, ALL_ST=FOOD PREPARATION_FL=STORY 2_SCH=B, Heating, 0.00000, 0.00000, 0.00000, 3.42900, FORT MCMURRAY AP ANN HTG 99.6% CONDNS DB, , -36.20000, 1.25811E-004, 2500.00000, 125.13046, 3.42900, 0.00000
 Zone Sizing Information, ALL_ST=GYM - AUDIENCE_FL=STORY 4_SCH=B, Cooling, 70480.14324, 77528.15757, 5.44851, 7.71525, FORT MCMURRAY AP ANN CLG .4% CONDNS DB=>MWB, 7/21 13:00:00, 28.28000, 8.76969E-003, 1875.00000, 374.98773, 7.71525, 0.00000
 Zone Sizing Information, ALL_ST=GYM - AUDIENCE_FL=STORY 4_SCH=B, Heating, 47013.56129, 61117.62968, 1.87232, 7.71525, FORT MCMURRAY AP ANN HTG 99.6% CONDNS DB, 1/21 10:00:00, -36.20000, 1.25811E-004, 1875.00000, 374.98773, 7.71525, 0.00000
 Zone Sizing Information, ALL_ST=GYM - FITNESS_FL=STORY 1_SCH=B, Cooling, 35303.69740, 38834.06714, 2.72954, 8.19150, FORT MCMURRAY AP ANN CLG .4% CONDNS DB=>MWB, 7/21 21:00:00, 21.58400, 8.76969E-003, 1875.00000, 374.98773, 8.19150, 0.00000
 Zone Sizing Information, ALL_ST=GYM - FITNESS_FL=STORY 1_SCH=B, Heating, 0.00000, 0.00000, 0.00000, 8.19150, FORT MCMURRAY AP ANN HTG 99.6% CONDNS DB, , -36.20000, 1.25811E-004, 1875.00000, 374.98773, 8.19150, 0.00000
 Zone Sizing Information, ALL_ST=GYM - PLAY_FL=STORY 1_SCH=B, Cooling, 42042.27142, 46246.49856, 3.25013, 3.57514, FORT MCMURRAY AP ANN CLG .4% CONDNS DB=>MWB, 7/21 13:00:00, 28.28000, 8.76969E-003, 1875.00000, 374.98773, 2.85750, 0.00000
 Zone Sizing Information, ALL_ST=GYM - PLAY_FL=STORY 1_SCH=B, Heating, 0.00000, 0.00000, 0.00000, 2.85750, FORT MCMURRAY AP ANN HTG 99.6% CONDNS DB, , -36.20000, 1.25811E-004, 1875.00000, 374.98773, 2.85750, 0.00000
 Zone Sizing Information, ALL_ST=HOSPITAL - EMERGENCY_FL=STORY 2_SCH=H, Cooling, 72468.75960, 79715.63556, 5.60117, 6.16129, FORT MCMURRAY AP ANN CLG .4% CONDNS DB=>MWB, 7/21 18:20:00, 25.30400, 8.76968E-003, 1875.00000, 93.84784, 5.71500, 0.00000
 Zone Sizing Information, ALL_ST=HOSPITAL - EMERGENCY_FL=STORY 2_SCH=H, Heating, 0.00000, 0.00000, 0.00000, 5.71500, FORT MCMURRAY AP ANN HTG 99.6% CONDNS DB, , -36.20000, 1.25811E-004, 1875.00000, 93.84784, 5.71500, 0.00000
 Zone Sizing Information, ALL_ST=HOSPITAL - EXAM_FL=STORY 3_SCH=C, Cooling, 72516.67147, 79768.33861, 5.60478, 6.16526, FORT MCMURRAY AP ANN CLG .4% CONDNS DB=>MWB, 7/21 18:00:00, 25.92400, 8.76969E-003, 1875.00000, 93.84784, 2.85750, 0.00000
 Zone Sizing Information, ALL_ST=HOSPITAL - EXAM_FL=STORY 3_SCH=C, Heating, 2026.84069, 2634.89289, 8.01057E-002, 2.85750, FORT MCMURRAY AP ANN HTG 99.6% CONDNS DB, 1/21 08:10:00, -36.20000, 1.25811E-004, 1875.00000, 93.84784, 2.85750, 0.00000
 Zone Sizing Information, ALL_ST=HOSPITAL - LAUNDRY/WASHING_FL=STORY 1_SCH=C, Cooling, 56196.75930, 61816.43523, 4.34343, 5.71500, FORT MCMURRAY AP ANN CLG .4% CONDNS DB=>MWB, 7/21 17:00:00, 27.16400, 8.76969E-003, 2500.00000, 125.13046, 5.71500, 0.00000
 Zone Sizing Information, ALL_ST=HOSPITAL - LAUNDRY/WASHING_FL=STORY 1_SCH=C, Heating, 0.00000, 0.00000, 0.00000, 5.71500, FORT MCMURRAY AP ANN HTG 99.6% CONDNS DB, , -36.20000, 1.25811E-004, 2500.00000, 125.13046, 5.71500, 0.00000
 Zone Sizing Information, ALL_ST=HOSPITAL - LOUNGE/RECREATION_FL=STORY 2_SCH=B, Cooling, 33947.10303, 37341.81333, 2.62399, 2.88639, FORT MCMURRAY AP ANN CLG .4% CONDNS DB=>MWB, 7/21 20:20:00, 22.32800, 8.76969E-003, 1875.00000, 187.49386, 2.38125, 0.00000
 Zone Sizing Information, ALL_ST=HOSPITAL - LOUNGE/RECREATION_FL=STORY 2_SCH=B, Heating, 0.00000, 0.00000, 0.00000, 2.38125, FORT MCMURRAY AP ANN HTG 99.6% CONDNS DB, , -36.20000, 1.25811E-004, 1875.00000, 187.49386, 2.38125, 0.00000
 Zone Sizing Information, ALL_ST=HOSPITAL - MEDICAL SUPPLY_FL=STORY 2_SCH=H, Cooling, 48159.33116, 52975.26428, 3.72217, 4.09439, FORT MCMURRAY AP ANN CLG .4% CONDNS DB=>MWB, 7/21 09:10:00, 22.43133, 8.76969E-003, 1875.00000, 93.84784, 2.85750, 0.00000
 Zone Sizing Information, ALL_ST=HOSPITAL - MEDICAL SUPPLY_FL=STORY 2_SCH=H, Heating, 0.00000, 0.00000, 0.00000, 2.85750, FORT MCMURRAY AP ANN HTG 99.6% CONDNS DB, , -36.20000, 1.25811E-004, 1875.00000, 93.84784, 2.85750, 0.00000
 Zone Sizing Information, DU_BT=SPACE FUNCTION_ST=DORMITORY - LIVING QUARTERS_FL=STORY 4_SCHG, Cooling, 61045.00125, 67149.50138, 4.71786, 5.18965, FORT MCMURRAY AP ANN CLG .4% CONDNS DB=>MWB, 7/21 13:40:00, 28.69333, 8.76969E-003, 2500.00000, 100.10437, 1.39700, 0.00000
 Zone Sizing Information, DU_BT=SPACE FUNCTION_ST=DORMITORY - LIVING QUARTERS_FL=STORY 4_SCHG, Heating, 36544.30921, 47507.60197, 1.44013, 1.87217, FORT MCMURRAY AP ANN HTG 99.6% CONDNS DB, 1/21 09:00:00, -36.20000, 1.25811E-004, 2500.00000, 100.10437, 1.39700, 0.00000
 Zone Sizing Information, DU_BT=SPACE FUNCTION_ST=DWELLING UNIT(S)_FL=STORY 2_SCHG, Cooling, 24121.43824, 26533.58207, 1.86423, 2.05065, FORT MCMURRAY AP ANN CLG .4% CONDNS DB=>MWB, 7/21 20:00:00, 22.70000, 8.76969E-003, 1875.00000, 31.28261, 0.64770, 0.00000
 Zone Sizing Information, DU_BT=SPACE FUNCTION_ST=DWELLING UNIT(S)_FL=STORY 2_SCHG, Heating, 4291.16010, 5578.50814, 0.17388, 0.64770, FORT MCMURRAY AP ANN HTG 99.6% CONDNS DB, 1/21 10:50:00, -36.20000, 1.25811E-004, 1875.00000, 31.28261, 0.64770, 0.00000
 Zone Sizing Information, DU_BT=SPACE FUNCTION_ST=FIRE STATION - QUARTERS_FL=STORY 4_SCHG, Cooling, 63777.72295, 70155.49525, 4.92906, 5.42197, FORT MCMURRAY AP ANN CLG .4% CONDNS DB=>MWB, 7/21 16:10:00, 27.99067, 8.76969E-003, 1875.00000, 75.07828, 1.52400, 0.00000
 Zone Sizing Information, DU_BT=SPACE FUNCTION_ST=FIRE STATION - QUARTERS_FL=STORY 4_SCHG, Heating, 42608.60736, 55391.18957, 1.69519, 2.20374, FORT MCMURRAY AP ANN HTG 99.6% CONDNS DB, 1/21 09:00:00, -36.20000, 1.25811E-004, 1875.00000, 75.07828, 1.52400, 0.00000
! <System Sizing Information>, System Name, Load Type, Peak Load Kind, User Design Capacity, Calc Des Air Flow Rate [m3/s], User Des Air Flow Rate [m3/s], Design Day Name, Date/Time of Peak
 System Sizing Information, SYS_1_MAKE-UP AIR UNIT, Cooling, Sensible, 7276.19, 2.05065, 0.64770, FORT MCMURRAY AP ANN CLG .4% CONDNS DB=>MWB, 7/21 05:00:00
 System Sizing Information, SYS_1_MAKE-UP AIR UNIT, Heating, Sensible, 59409.68, 0.64770, 0.64770, FORT MCMURRAY AP ANN HTG 99.6% CONDNS DB, 1/21 09:30:00
 System Sizing Information, SYS_1_MAKE-UP AIR UNIT 1, Cooling, Sensible, 26458.43, 5.42197, 1.52400, FORT MCMURRAY AP ANN CLG .4% CONDNS DB=>MWB, 7/21 05:00:00
 System Sizing Information, SYS_1_MAKE-UP AIR UNIT 1, Heating, Sensible, 139787.48, 2.20374, 1.52400, FORT MCMURRAY AP ANN HTG 99.6% CONDNS DB, 1/21 09:00:00
 System Sizing Information, SYS_3_PSZ ALL_ST=COURTHOUSE - CHAMBERS_FL=STORY 4_SCH=A, Cooling, Sensible, 101534.03, 7.63267, 7.63267, FORT MCMURRAY AP ANN CLG .4% CONDNS DB=>MWB, 7/21 05:00:00
 System Sizing Information, SYS_3_PSZ ALL_ST=COURTHOUSE - CHAMBERS_FL=STORY 4_SCH=A, Heating, Sensible, 117728.96, 2.58185, 2.58185, FORT MCMURRAY AP ANN HTG 99.6% CONDNS DB, 1/21 08:00:00
 System Sizing Information, SYS_3_PSZ ALL_ST=COURTHOUSE - COURTROOM_FL=STORY 3_SCH=A, Cooling, Sensible, 98367.52, 6.22422, 6.22422, FORT MCMURRAY AP ANN CLG .4% CONDNS DB=>MWB, 7/21 05:00:00
 System Sizing Information, SYS_3_PSZ ALL_ST=COURTHOUSE - COURTROOM_FL=STORY 3_SCH=A, Heating, Sensible, 477607.21, 5.20700, 5.20700, FORT MCMURRAY AP ANN HTG 99.6% CONDNS DB, 1/21 00:10:00
 System Sizing Information, SYS_3_PSZ ALL_ST=DINING - BAR LOUNGE/LEISURE_FL=STORY 3_SCH=B, Cooling, Sensible, 70615.18, 6.71513, 6.71513, FORT MCMURRAY AP ANN CLG .4% CONDNS DB=>MWB, 7/21 05:00:00
 System Sizing Information, SYS_3_PSZ ALL_ST=DINING - BAR LOUNGE/LEISURE_FL=STORY 3_SCH=B, Heating, Sensible, 615938.57, 6.71513, 6.71513, FORT MCMURRAY AP ANN HTG 99.6% CONDNS DB, 1/21 00:10:00
 System Sizing Information, SYS_3_PSZ ALL_ST=DINING - FAMILY SPACE_FL=STORY 3_SCH=B, Cooling, Sensible, 73990.40, 6.71513, 6.71513, FORT MCMURRAY AP ANN CLG .4% CONDNS DB=>MWB, 7/21 05:00:00
 System Sizing Information, SYS_3_PSZ ALL_ST=DINING - FAMILY SPACE_FL=STORY 3_SCH=B, Heating, Sensible, 615938.57, 6.71513, 6.71513, FORT MCMURRAY AP ANN HTG 99.6% CONDNS DB, 1/21 00:10:00
 System Sizing Information, SYS_3_PSZ ALL_ST=DINING - OTHER_FL=STORY 1_SCH=B, Cooling, Sensible, 66757.79, 6.71513, 6.71513, FORT MCMURRAY AP ANN CLG .4% CONDNS DB=>MWB, 7/21 05:00:00
 System Sizing Information, SYS_3_PSZ ALL_ST=DINING - OTHER_FL=STORY 1_SCH=B, Heating, Sensible, 615938.57, 6.71513, 6.71513, FORT MCMURRAY AP ANN HTG 99.6% CONDNS DB, 1/21 00:10:00
 System Sizing Information, SYS_3_PSZ ALL_ST=DRESS./FITT. - PERFORMANCE ARTS_FL=STORY 3_SCH=C, Cooling, Sensible, 51966.64, 3.09063, 3.09063, FORT MCMURRAY AP ANN CLG .4% CONDNS DB=>MWB, 7/21 05:00:00
 System Sizing Information, SYS_3_PSZ ALL_ST=DRESS./FITT. - PERFORMANCE ARTS_FL=STORY 3_SCH=C, Heating, Sensible, 203565.51, 2.21933, 2.21933, FORT MCMURRAY AP ANN HTG 99.6% CONDNS DB, 1/21 00:10:00
 System Sizing Information, SYS_3_PSZ ALL_ST=FOOD PREPARATION_FL=STORY 2_SCH=B, Cooling, Sensible, 51780.10, 4.46987, 4.46987, FORT MCMURRAY AP ANN CLG .4% CONDNS DB=>MWB, 7/21 05:00:00
 System Sizing Information, SYS_3_PSZ ALL_ST=FOOD PREPARATION_FL=STORY 2_SCH=B, Heating, Sensible, 314521.82, 3.42900, 3.42900, FORT MCMURRAY AP ANN HTG 99.6% CONDNS DB, 1/21 00:10:00
 System Sizing Information, SYS_3_PSZ ALL_ST=HOSPITAL - EMERGENCY_FL=STORY 2_SCH=H, Cooling, Sensible, 87121.62, 6.16129, 6.16129, FORT MCMURRAY AP ANN CLG .4% CONDNS DB=>MWB, 7/21 05:00:00
 System Sizing Information, SYS_3_PSZ ALL_ST=HOSPITAL - EMERGENCY_FL=STORY 2_SCH=H, Heating, Sensible, 524203.04, 5.71500, 5.71500, FORT MCMURRAY AP ANN HTG 99.6% CONDNS DB, 1/21 00:10:00
 System Sizing Information, SYS_3_PSZ ALL_ST=HOSPITAL - EXAM_FL=STORY 3_SCH=C, Cooling, Sensible, 84905.38, 6.16526, 6.16526, FORT MCMURRAY AP ANN CLG .4% CONDNS DB=>MWB, 7/21 05:00:00
 System Sizing Information, SYS_3_PSZ ALL_ST=HOSPITAL - EXAM_FL=STORY 3_SCH=C, Heating, Sensible, 262101.52, 2.85750, 2.85750, FORT MCMURRAY AP ANN HTG 99.6% CONDNS DB, 1/21 00:10:00
 System Sizing Information, SYS_3_PSZ ALL_ST=HOSPITAL - LAUNDRY/WASHING_FL=STORY 1_SCH=C, Cooling, Sensible, 93747.62, 5.71500, 5.71500, FORT MCMURRAY AP ANN CLG .4% CONDNS DB=>MWB, 7/21 05:00:00
 System Sizing Information, SYS_3_PSZ ALL_ST=HOSPITAL - LAUNDRY/WASHING_FL=STORY 1_SCH=C, Heating, Sensible, 524203.04, 5.71500, 5.71500, FORT MCMURRAY AP ANN HTG 99.6% CONDNS DB, 1/21 00:10:00
 System Sizing Information, SYS_3_PSZ ALL_ST=HOSPITAL - LOUNGE/RECREATION_FL=STORY 2_SCH=B, Cooling, Sensible, 32158.79, 2.88639, 2.88639, FORT MCMURRAY AP ANN CLG .4% CONDNS DB=>MWB, 7/21 05:00:00
 System Sizing Information, SYS_3_PSZ ALL_ST=HOSPITAL - LOUNGE/RECREATION_FL=STORY 2_SCH=B, Heating, Sensible, 218417.93, 2.38125, 2.38125, FORT MCMURRAY AP ANN HTG 99.6% CONDNS DB, 1/21 00:10:00
 System Sizing Information, SYS_3_PSZ ALL_ST=HOSPITAL - MEDICAL SUPPLY_FL=STORY 2_SCH=H, Cooling, Sensible, 46967.72, 4.09439, 4.09439, FORT MCMURRAY AP ANN CLG .4% CONDNS DB=>MWB, 7/21 05:00:00
 System Sizing Information, SYS_3_PSZ ALL_ST=HOSPITAL - MEDICAL SUPPLY_FL=STORY 2_SCH=H, Heating, Sensible, 262101.52, 2.85750, 2.85750, FORT MCMURRAY AP ANN HTG 99.6% CONDNS DB, 1/21 00:10:00
 System Sizing Information, SYS_3_PSZ DU_BT=SPACE FUNCTION_ST=DORMITORY - LIVING QUARTERS_FL=STORY 4_SCHG, Cooling, Sensible, 73705.11, 5.18965, 5.18965, FORT MCMURRAY AP ANN CLG .4% CONDNS DB=>MWB, 7/21 05:00:00
 System Sizing Information, SYS_3_PSZ DU_BT=SPACE FUNCTION_ST=DORMITORY - LIVING QUARTERS_FL=STORY 4_SCHG, Heating, Sensible, 139837.78, 1.87217, 1.87217, FORT MCMURRAY AP ANN HTG 99.6% CONDNS DB, 1/21 09:00:00
 System Sizing Information, SYS_4_PSZ_ALL_ST=FIRE STATION - ENGINE ROOM_FL=STORY 1_SCH=H, Cooling, Sensible, 15636.74, 2.38125, 2.38125, FORT MCMURRAY AP ANN CLG .4% CONDNS DB=>MWB, 7/21 05:00:00
 System Sizing Information, SYS_4_PSZ_ALL_ST=FIRE STATION - ENGINE ROOM_FL=STORY 1_SCH=H, Heating, Sensible, 218417.93, 2.38125, 2.38125, FORT MCMURRAY AP ANN HTG 99.6% CONDNS DB, 1/21 00:10:00
 System Sizing Information, SYS_4_PSZ_ALL_ST=FOOD PREPARATION - VENTED_FL=STORY 4_SCH=B, Cooling, Sensible, 81839.08, 6.84570, 6.84570, FORT MCMURRAY AP ANN CLG .4% CONDNS DB=>MWB, 7/21 05:00:00
 System Sizing Information, SYS_4_PSZ_ALL_ST=FOOD PREPARATION - VENTED_FL=STORY 4_SCH=B, Heating, Sensible, 235891.37, 2.57175, 2.57175, FORT MCMURRAY AP ANN HTG 99.6% CONDNS DB, 1/21 00:10:00
 System Sizing Information, SYS_6_VAV WITH REHEAT, Cooling, Sensible, 145015.10, 11.76664, 11.76664, FORT MCMURRAY AP ANN CLG .4% CONDNS DB=>MWB, 7/21 00:00:00
 System Sizing Information, SYS_6_VAV WITH REHEAT, Heating, Sensible, 630852.77, 11.04900, 11.04900, FORT MCMURRAY AP ANN HTG 99.6% CONDNS DB, 1/21 00:10:00
 System Sizing Information, SYS_6_VAV WITH REHEAT 1, Cooling, Sensible, 136531.06, 7.71525, 7.71525, FORT MCMURRAY AP ANN CLG .4% CONDNS DB=>MWB, 7/21 00:00:00
 System Sizing Information, SYS_6_VAV WITH REHEAT 1, Heating, Sensible, 440509.26, 7.71525, 7.71525, FORT MCMURRAY AP ANN HTG 99.6% CONDNS DB, 1/21 00:10:00
! <Component Sizing Information>, Component Type, Component Name, Input Field Description, Value
 Component Sizing Information, AirTerminal:SingleDuct:Uncontrolled, AIR TERMINAL SINGLE DUCT UNCONTROLLED 4, Design Size Maximum Air Flow Rate [m3/s], 7.63267
 Component Sizing Information, ZoneHVAC:Baseboard:Convective:Water, ZONE HVAC BASEBOARD CONVECTIVE WATER 4, Design Size Maximum Water Flow Rate [m3/s], 9.67072E-004
 Component Sizing Information, ZoneHVAC:Baseboard:Convective:Water, ZONE HVAC BASEBOARD CONVECTIVE WATER 4, Design Size U-Factor Times Area Value [W/K], 1973.83727
 Component Sizing Information, AirTerminal:SingleDuct:Uncontrolled, AIR TERMINAL SINGLE DUCT UNCONTROLLED 5, Design Size Maximum Air Flow Rate [m3/s], 6.22422
 Component Sizing Information, ZoneHVAC:Baseboard:Convective:Water, ZONE HVAC BASEBOARD CONVECTIVE WATER 5, Design Size Maximum Water Flow Rate [m3/s], 0.00000
 Component Sizing Information, ZoneHVAC:Baseboard:Convective:Water, ZONE HVAC BASEBOARD CONVECTIVE WATER 5, Design Size U-Factor Times Area Value [W/K], 0.00000
 Component Sizing Information, AirTerminal:SingleDuct:Uncontrolled, AIR TERMINAL SINGLE DUCT UNCONTROLLED 6, Design Size Maximum Air Flow Rate [m3/s], 6.71513
 Component Sizing Information, ZoneHVAC:Baseboard:Convective:Water, ZONE HVAC BASEBOARD CONVECTIVE WATER 6, Design Size Maximum Water Flow Rate [m3/s], 9.16987E-005
 Component Sizing Information, ZoneHVAC:Baseboard:Convective:Water, ZONE HVAC BASEBOARD CONVECTIVE WATER 6, Design Size U-Factor Times Area Value [W/K], 185.80054
 Component Sizing Information, AirTerminal:SingleDuct:Uncontrolled, AIR TERMINAL SINGLE DUCT UNCONTROLLED 7, Design Size Maximum Air Flow Rate [m3/s], 6.71513
 Component Sizing Information, ZoneHVAC:Baseboard:Convective:Water, ZONE HVAC BASEBOARD CONVECTIVE WATER 7, Design Size Maximum Water Flow Rate [m3/s], 3.12458E-004
 Component Sizing Information, ZoneHVAC:Baseboard:Convective:Water, ZONE HVAC BASEBOARD CONVECTIVE WATER 7, Design Size U-Factor Times Area Value [W/K], 633.25440
 Component Sizing Information, AirTerminal:SingleDuct:Uncontrolled, AIR TERMINAL SINGLE DUCT UNCONTROLLED 8, Design Size Maximum Air Flow Rate [m3/s], 6.71513
 Component Sizing Information, ZoneHVAC:Baseboard:Convective:Water, ZONE HVAC BASEBOARD CONVECTIVE WATER 8, Design Size Maximum Water Flow Rate [m3/s], 0.00000
 Component Sizing Information, ZoneHVAC:Baseboard:Convective:Water, ZONE HVAC BASEBOARD CONVECTIVE WATER 8, Design Size U-Factor Times Area Value [W/K], 0.00000
 Component Sizing Information, AirTerminal:SingleDuct:Uncontrolled, AIR TERMINAL SINGLE DUCT UNCONTROLLED 9, Design Size Maximum Air Flow Rate [m3/s], 3.09063
 Component Sizing Information, ZoneHVAC:Baseboard:Convective:Water, ZONE HVAC BASEBOARD CONVECTIVE WATER 9, Design Size Maximum Water Flow Rate [m3/s], 5.12587E-004
 Component Sizing Information, ZoneHVAC:Baseboard:Convective:Water, ZONE HVAC BASEBOARD CONVECTIVE WATER 9, Design Size U-Factor Times Area Value [W/K], 1045.25187
 Component Sizing Information, AirTerminal:SingleDuct:Uncontrolled, AIR TERMINAL SINGLE DUCT UNCONTROLLED 16, Design Size Maximum Air Flow Rate [m3/s], 2.38125
 Component Sizing Information, ZoneHVAC:Baseboard:Convective:Water, ZONE HVAC BASEBOARD CONVECTIVE WATER 16, Design Size Maximum Water Flow Rate [m3/s], 0.00000
 Component Sizing Information, ZoneHVAC:Baseboard:Convective:Water, ZONE HVAC BASEBOARD CONVECTIVE WATER 16, Design Size U-Factor Times Area Value [W/K], 0.00000
 Component Sizing Information, AirTerminal:SingleDuct:Uncontrolled, AIR TERMINAL SINGLE DUCT UNCONTROLLED 17, Design Size Maximum Air Flow Rate [m3/s], 6.84570
 Component Sizing Information, ZoneHVAC:Baseboard:Convective:Water, ZONE HVAC BASEBOARD CONVECTIVE WATER 17, Design Size Maximum Water Flow Rate [m3/s], 7.34736E-004
 Component Sizing Information, ZoneHVAC:Baseboard:Convective:Water, ZONE HVAC BASEBOARD CONVECTIVE WATER 17, Design Size U-Factor Times Area Value [W/K], 1413.19392
 Component Sizing Information, AirTerminal:SingleDuct:Uncontrolled, AIR TERMINAL SINGLE DUCT UNCONTROLLED 10, Design Size Maximum Air Flow Rate [m3/s], 4.46987
 Component Sizing Information, ZoneHVAC:Baseboard:Convective:Water, ZONE HVAC BASEBOARD CONVECTIVE WATER 10, Design Size Maximum Water Flow Rate [m3/s], 0.00000
 Component Sizing Information, ZoneHVAC:Baseboard:Convective:Water, ZONE HVAC BASEBOARD CONVECTIVE WATER 10, Design Size U-Factor Times Area Value [W/K], 0.00000
 Component Sizing Information, AirTerminal:SingleDuct:VAV:Reheat, AIR TERMINAL SINGLE DUCT VAV REHEAT 3, Design Size Maximum Air Flow Rate [m3/s], 7.71525
 Component Sizing Information, AirTerminal:SingleDuct:VAV:Reheat, AIR TERMINAL SINGLE DUCT VAV REHEAT 3, Design Size Constant Minimum Air Flow Fraction, 0.18519
 Component Sizing Information, AirTerminal:SingleDuct:VAV:Reheat, AIR TERMINAL SINGLE DUCT VAV REHEAT 3, User-Specified Constant Minimum Air Flow Fraction, 0.30000
 Component Sizing Information, AirTerminal:SingleDuct:VAV:Reheat, AIR TERMINAL SINGLE DUCT VAV REHEAT 3, Design Size Minimum Air Flow Rate [m3/s], 2.31458
 Component Sizing Information, AirTerminal:SingleDuct:VAV:Reheat, AIR TERMINAL SINGLE DUCT VAV REHEAT 3, Design Size Maximum Flow per Zone Floor Area during Reheat [m3/s-m2], 1.23444E-003
 Component Sizing Information, AirTerminal:SingleDuct:VAV:Reheat, AIR TERMINAL SINGLE DUCT VAV REHEAT 3, Design Size Maximum Flow Fraction during Reheat [], 0.30000
 Component Sizing Information, AirTerminal:SingleDuct:VAV:Reheat, AIR TERMINAL SINGLE DUCT VAV REHEAT 3, Design Size Maximum Reheat Water Flow Rate [m3/s], 1.31470E-003
 Component Sizing Information, AirTerminal:SingleDuct:VAV:Reheat, AIR TERMINAL SINGLE DUCT VAV REHEAT 3, Design Size Reheat Coil Sizing Air Volume Flow Rate [m3/s], 2.43401
 Component Sizing Information, AirTerminal:SingleDuct:VAV:Reheat, AIR TERMINAL SINGLE DUCT VAV REHEAT 3, Design Size Reheat Coil Sizing Inlet Air Temperature [C], 13.10000
 Component Sizing Information, AirTerminal:SingleDuct:VAV:Reheat, AIR TERMINAL SINGLE DUCT VAV REHEAT 3, Design Size Reheat Coil Sizing Inlet Air Humidity Ratio [kgWater/kgDryAir], 8.00000E-003
 Component Sizing Information, Coil:Heating:Water, COIL HEATING WATER 7, Design Size Rated Capacity [W], 88023.39165
 Component Sizing Information, Coil:Heating:Water, COIL HEATING WATER 7, Design Size Maximum Water Flow Rate [m3/s], 1.31470E-003
 Component Sizing Information, Coil:Heating:Water, COIL HEATING WATER 7, Design Size U-Factor Times Area Value [W/K], 2006.82959
! <Water Heating Coil Capacity Information>,Component Type,Name,Nominal Total Capacity {W}
Water Heating Coil Capacity Information,Coil:Heating:Water,COIL HEATING WATER 7,81546.47
 Component Sizing Information, ZoneHVAC:Baseboard:Convective:Water, ZONE HVAC BASEBOARD CONVECTIVE WATER 20, Design Size Maximum Water Flow Rate [m3/s], 9.12841E-004
 Component Sizing Information, ZoneHVAC:Baseboard:Convective:Water, ZONE HVAC BASEBOARD CONVECTIVE WATER 20, Design Size U-Factor Times Area Value [W/K], 1862.89378
 Component Sizing Information, AirTerminal:SingleDuct:VAV:Reheat, AIR TERMINAL SINGLE DUCT VAV REHEAT 1, Design Size Maximum Air Flow Rate [m3/s], 8.19150
 Component Sizing Information, AirTerminal:SingleDuct:VAV:Reheat, AIR TERMINAL SINGLE DUCT VAV REHEAT 1, Design Size Constant Minimum Air Flow Fraction, 0.17442
 Component Sizing Information, AirTerminal:SingleDuct:VAV:Reheat, AIR TERMINAL SINGLE DUCT VAV REHEAT 1, User-Specified Constant Minimum Air Flow Fraction, 0.30000
 Component Sizing Information, AirTerminal:SingleDuct:VAV:Reheat, AIR TERMINAL SINGLE DUCT VAV REHEAT 1, Design Size Minimum Air Flow Rate [m3/s], 2.45745
 Component Sizing Information, AirTerminal:SingleDuct:VAV:Reheat, AIR TERMINAL SINGLE DUCT VAV REHEAT 1, Design Size Maximum Flow per Zone Floor Area during Reheat [m3/s-m2], 1.31064E-003
 Component Sizing Information, AirTerminal:SingleDuct:VAV:Reheat, AIR TERMINAL SINGLE DUCT VAV REHEAT 1, Design Size Maximum Flow Fraction during Reheat [], 0.30000
 Component Sizing Information, AirTerminal:SingleDuct:VAV:Reheat, AIR TERMINAL SINGLE DUCT VAV REHEAT 1, Design Size Maximum Reheat Water Flow Rate [m3/s], 3.90434E-004
 Component Sizing Information, AirTerminal:SingleDuct:VAV:Reheat, AIR TERMINAL SINGLE DUCT VAV REHEAT 1, Design Size Reheat Coil Sizing Air Volume Flow Rate [m3/s], 2.45745
 Component Sizing Information, AirTerminal:SingleDuct:VAV:Reheat, AIR TERMINAL SINGLE DUCT VAV REHEAT 1, Design Size Reheat Coil Sizing Inlet Air Temperature [C], 13.10000
 Component Sizing Information, AirTerminal:SingleDuct:VAV:Reheat, AIR TERMINAL SINGLE DUCT VAV REHEAT 1, Design Size Reheat Coil Sizing Inlet Air Humidity Ratio [kgWater/kgDryAir], 8.00000E-003
 Component Sizing Information, Coil:Heating:Water, COIL HEATING WATER 4, Design Size Rated Capacity [W], 26140.81093
 Component Sizing Information, Coil:Heating:Water, COIL HEATING WATER 4, Design Size Maximum Water Flow Rate [m3/s], 3.90434E-004
 Component Sizing Information, Coil:Heating:Water, COIL HEATING WATER 4, Design Size U-Factor Times Area Value [W/K], 471.32752
Water Heating Coil Capacity Information,Coil:Heating:Water,COIL HEATING WATER 4,24510.64
 Component Sizing Information, ZoneHVAC:Baseboard:Convective:Water, ZONE HVAC BASEBOARD CONVECTIVE WATER 18, Design Size Maximum Water Flow Rate [m3/s], 0.00000
 Component Sizing Information, ZoneHVAC:Baseboard:Convective:Water, ZONE HVAC BASEBOARD CONVECTIVE WATER 18, Design Size U-Factor Times Area Value [W/K], 0.00000
 Component Sizing Information, AirTerminal:SingleDuct:VAV:Reheat, AIR TERMINAL SINGLE DUCT VAV REHEAT 2, Design Size Maximum Air Flow Rate [m3/s], 3.57514
 Component Sizing Information, AirTerminal:SingleDuct:VAV:Reheat, AIR TERMINAL SINGLE DUCT VAV REHEAT 2, Design Size Constant Minimum Air Flow Fraction, 0.39963
 Component Sizing Information, AirTerminal:SingleDuct:VAV:Reheat, AIR TERMINAL SINGLE DUCT VAV REHEAT 2, User-Specified Constant Minimum Air Flow Fraction, 0.30000
 Component Sizing Information, AirTerminal:SingleDuct:VAV:Reheat, AIR TERMINAL SINGLE DUCT VAV REHEAT 2, Design Size Minimum Air Flow Rate [m3/s], 1.07254
 Component Sizing Information, AirTerminal:SingleDuct:VAV:Reheat, AIR TERMINAL SINGLE DUCT VAV REHEAT 2, Design Size Maximum Flow per Zone Floor Area during Reheat [m3/s-m2], 5.72022E-004
 Component Sizing Information, AirTerminal:SingleDuct:VAV:Reheat, AIR TERMINAL SINGLE DUCT VAV REHEAT 2, Design Size Maximum Flow Fraction during Reheat [], 0.30000
 Component Sizing Information, AirTerminal:SingleDuct:VAV:Reheat, AIR TERMINAL SINGLE DUCT VAV REHEAT 2, Design Size Maximum Reheat Water Flow Rate [m3/s], 1.70403E-004
 Component Sizing Information, AirTerminal:SingleDuct:VAV:Reheat, AIR TERMINAL SINGLE DUCT VAV REHEAT 2, Design Size Reheat Coil Sizing Air Volume Flow Rate [m3/s], 1.07254
 Component Sizing Information, AirTerminal:SingleDuct:VAV:Reheat, AIR TERMINAL SINGLE DUCT VAV REHEAT 2, Design Size Reheat Coil Sizing Inlet Air Temperature [C], 13.10000
 Component Sizing Information, AirTerminal:SingleDuct:VAV:Reheat, AIR TERMINAL SINGLE DUCT VAV REHEAT 2, Design Size Reheat Coil Sizing Inlet Air Humidity Ratio [kgWater/kgDryAir], 8.00000E-003
 Component Sizing Information, Coil:Heating:Water, COIL HEATING WATER 5, Design Size Rated Capacity [W], 11409.02765
 Component Sizing Information, Coil:Heating:Water, COIL HEATING WATER 5, Design Size Maximum Water Flow Rate [m3/s], 1.70403E-004
 Component Sizing Information, Coil:Heating:Water, COIL HEATING WATER 5, Design Size U-Factor Times Area Value [W/K], 205.70856
Water Heating Coil Capacity Information,Coil:Heating:Water,COIL HEATING WATER 5,10697.55
 Component Sizing Information, ZoneHVAC:Baseboard:Convective:Water, ZONE HVAC BASEBOARD CONVECTIVE WATER 19, Design Size Maximum Water Flow Rate [m3/s], 0.00000
 Component Sizing Information, ZoneHVAC:Baseboard:Convective:Water, ZONE HVAC BASEBOARD CONVECTIVE WATER 19, Design Size U-Factor Times Area Value [W/K], 0.00000
 Component Sizing Information, AirTerminal:SingleDuct:Uncontrolled, AIR TERMINAL SINGLE DUCT UNCONTROLLED 11, Design Size Maximum Air Flow Rate [m3/s], 6.16129
 Component Sizing Information, ZoneHVAC:Baseboard:Convective:Water, ZONE HVAC BASEBOARD CONVECTIVE WATER 11, Design Size Maximum Water Flow Rate [m3/s], 0.00000
 Component Sizing Information, ZoneHVAC:Baseboard:Convective:Water, ZONE HVAC BASEBOARD CONVECTIVE WATER 11, Design Size U-Factor Times Area Value [W/K], 0.00000
 Component Sizing Information, AirTerminal:SingleDuct:Uncontrolled, AIR TERMINAL SINGLE DUCT UNCONTROLLED 12, Design Size Maximum Air Flow Rate [m3/s], 6.16526
 Component Sizing Information, ZoneHVAC:Baseboard:Convective:Water, ZONE HVAC BASEBOARD CONVECTIVE WATER 12, Design Size Maximum Water Flow Rate [m3/s], 3.93543E-005
 Component Sizing Information, ZoneHVAC:Baseboard:Convective:Water, ZONE HVAC BASEBOARD CONVECTIVE WATER 12, Design Size U-Factor Times Area Value [W/K], 51.13855
 Component Sizing Information, AirTerminal:SingleDuct:Uncontrolled, AIR TERMINAL SINGLE DUCT UNCONTROLLED 13, Design Size Maximum Air Flow Rate [m3/s], 5.71500
 Component Sizing Information, ZoneHVAC:Baseboard:Convective:Water, ZONE HVAC BASEBOARD CONVECTIVE WATER 13, Design Size Maximum Water Flow Rate [m3/s], 0.00000
 Component Sizing Information, ZoneHVAC:Baseboard:Convective:Water, ZONE HVAC BASEBOARD CONVECTIVE WATER 13, Design Size U-Factor Times Area Value [W/K], 0.00000
 Component Sizing Information, AirTerminal:SingleDuct:Uncontrolled, AIR TERMINAL SINGLE DUCT UNCONTROLLED 14, Design Size Maximum Air Flow Rate [m3/s], 2.88639
 Component Sizing Information, ZoneHVAC:Baseboard:Convective:Water, ZONE HVAC BASEBOARD CONVECTIVE WATER 14, Design Size Maximum Water Flow Rate [m3/s], 0.00000
 Component Sizing Information, ZoneHVAC:Baseboard:Convective:Water, ZONE HVAC BASEBOARD CONVECTIVE WATER 14, Design Size U-Factor Times Area Value [W/K], 0.00000
 Component Sizing Information, AirTerminal:SingleDuct:Uncontrolled, AIR TERMINAL SINGLE DUCT UNCONTROLLED 15, Design Size Maximum Air Flow Rate [m3/s], 4.09439
 Component Sizing Information, ZoneHVAC:Baseboard:Convective:Water, ZONE HVAC BASEBOARD CONVECTIVE WATER 15, Design Size Maximum Water Flow Rate [m3/s], 0.00000
 Component Sizing Information, ZoneHVAC:Baseboard:Convective:Water, ZONE HVAC BASEBOARD CONVECTIVE WATER 15, Design Size U-Factor Times Area Value [W/K], 0.00000
 Component Sizing Information, AirTerminal:SingleDuct:Uncontrolled, AIR TERMINAL SINGLE DUCT UNCONTROLLED 1, Design Size Maximum Air Flow Rate [m3/s], 5.18965
 Component Sizing Information, ZoneHVAC:Baseboard:Convective:Water, ZONE HVAC BASEBOARD CONVECTIVE WATER 1, Design Size Maximum Water Flow Rate [m3/s], 7.09565E-004
 Component Sizing Information, ZoneHVAC:Baseboard:Convective:Water, ZONE HVAC BASEBOARD CONVECTIVE WATER 1, Design Size U-Factor Times Area Value [W/K], 1447.18532
 Component Sizing Information, ZoneHVAC:PackagedTerminalAirConditioner, DU_BT=SPACE FUNCTION_ST=DWELLING UNIT(S)_FL=STORY 2_SCHG PTAC, Design Size Cooling Supply Air Flow Rate [m3/s], 2.05065
 Component Sizing Information, ZoneHVAC:PackagedTerminalAirConditioner, DU_BT=SPACE FUNCTION_ST=DWELLING UNIT(S)_FL=STORY 2_SCHG PTAC, Design Size Heating Supply Air Flow Rate [m3/s], 2.05065
 Component Sizing Information, ZoneHVAC:PackagedTerminalAirConditioner, DU_BT=SPACE FUNCTION_ST=DWELLING UNIT(S)_FL=STORY 2_SCHG PTAC, Design Size No Load Supply Air Flow Rate [m3/s], 2.05065
 Component Sizing Information, ZoneHVAC:PackagedTerminalAirConditioner, DU_BT=SPACE FUNCTION_ST=DWELLING UNIT(S)_FL=STORY 2_SCHG PTAC, Design Size Outdoor Air Flow Rate During Cooling Operation [m3/s], 0.64770
 Component Sizing Information, ZoneHVAC:PackagedTerminalAirConditioner, DU_BT=SPACE FUNCTION_ST=DWELLING UNIT(S)_FL=STORY 2_SCHG PTAC, Design Size Outdoor Air Flow Rate During Heating Operation [m3/s], 0.64770
 Component Sizing Information, ZoneHVAC:PackagedTerminalAirConditioner, DU_BT=SPACE FUNCTION_ST=DWELLING UNIT(S)_FL=STORY 2_SCHG PTAC, Design Size Outdoor Air Flow Rate When No Cooling or Heating is Needed [m3/s], 0.64770
 Component Sizing Information, Coil:Cooling:DX:SingleSpeed, COIL COOLING DX SINGLE SPEED 3 116KBTU/HR 9.3EER, Design Size Rated Air Flow Rate [m3/s], 2.05065
 Component Sizing Information, Coil:Cooling:DX:SingleSpeed, COIL COOLING DX SINGLE SPEED 3 116KBTU/HR 9.3EER, Design Size Gross Rated Total Cooling Capacity [W], 33945.55556
 Component Sizing Information, Coil:Cooling:DX:SingleSpeed, COIL COOLING DX SINGLE SPEED 3 116KBTU/HR 9.3EER, Design Size Gross Rated Sensible Heat Ratio, 0.80066
! <DX Cooling Coil Standard Rating Information>, Component Type, Component Name, Standard Rating (Net) Cooling Capacity {W}, Standard Rated Net COP {W/W}, EER {Btu/W-h}, SEER {Btu/W-h}, IEER {Btu/W-h}
 DX Cooling Coil Standard Rating Information, Coil:Cooling:DX:SingleSpeed, COIL COOLING DX SINGLE SPEED 3 116KBTU/HR 9.3EER, 32351.5, 2.67, 9.13, 9.63, 9.14
 Component Sizing Information, Coil:Heating:Electric, COIL HEATING ELECTRIC 1, Design Size Nominal Capacity [W], 60287.82385
 Component Sizing Information, Fan:ConstantVolume, FAN CONSTANT VOLUME 3, Design Size Maximum Flow Rate [m3/s], 2.05065
 Component Sizing Information, ZoneHVAC:Baseboard:Convective:Water, ZONE HVAC BASEBOARD CONVECTIVE WATER 2, Design Size Maximum Water Flow Rate [m3/s], 8.33196E-005
 Component Sizing Information, ZoneHVAC:Baseboard:Convective:Water, ZONE HVAC BASEBOARD CONVECTIVE WATER 2, Design Size U-Factor Times Area Value [W/K], 169.40701
 Component Sizing Information, AirTerminal:SingleDuct:Uncontrolled, AIR TERMINAL SINGLE DUCT UNCONTROLLED 2, Design Size Maximum Air Flow Rate [m3/s], 0.64770
 Component Sizing Information, ZoneHVAC:PackagedTerminalAirConditioner, DU_BT=SPACE FUNCTION_ST=FIRE STATION - QUARTERS_FL=STORY 4_SCHG PTAC, Design Size Cooling Supply Air Flow Rate [m3/s], 5.42197
 Component Sizing Information, ZoneHVAC:PackagedTerminalAirConditioner, DU_BT=SPACE FUNCTION_ST=FIRE STATION - QUARTERS_FL=STORY 4_SCHG PTAC, Design Size Heating Supply Air Flow Rate [m3/s], 5.42197
 Component Sizing Information, ZoneHVAC:PackagedTerminalAirConditioner, DU_BT=SPACE FUNCTION_ST=FIRE STATION - QUARTERS_FL=STORY 4_SCHG PTAC, Design Size No Load Supply Air Flow Rate [m3/s], 5.42197
 Component Sizing Information, ZoneHVAC:PackagedTerminalAirConditioner, DU_BT=SPACE FUNCTION_ST=FIRE STATION - QUARTERS_FL=STORY 4_SCHG PTAC, Design Size Outdoor Air Flow Rate During Cooling Operation [m3/s], 1.52400
[...]
 Component Sizing Information, Fan:ConstantVolume, FAN CONSTANT VOLUME 17, Design Size Maximum Flow Rate [m3/s], 4.09439
 Component Sizing Information, Controller:OutdoorAir, CONTROLLER OUTDOOR AIR 1, Maximum Outdoor Air Flow Rate [m3/s], 5.18965
 Component Sizing Information, Controller:OutdoorAir, CONTROLLER OUTDOOR AIR 1, Minimum Outdoor Air Flow Rate [m3/s], 1.39700
 Component Sizing Information, Coil:Cooling:DX:SingleSpeed, COIL COOLING DX SINGLE SPEED 1 293KBTU/HR 8.21EER, Design Size Rated Air Flow Rate [m3/s], 5.18965
 Component Sizing Information, Coil:Cooling:DX:SingleSpeed, COIL COOLING DX SINGLE SPEED 1 293KBTU/HR 8.21EER, Design Size Gross Rated Total Cooling Capacity [W], 85907.08680
 Component Sizing Information, Coil:Cooling:DX:SingleSpeed, COIL COOLING DX SINGLE SPEED 1 293KBTU/HR 8.21EER, Design Size Gross Rated Sensible Heat Ratio, 0.80066
 DX Cooling Coil Standard Rating Information, Coil:Cooling:DX:SingleSpeed, COIL COOLING DX SINGLE SPEED 1 293KBTU/HR 8.21EER, 81873.1, 2.48, 8.47, 8.94, 8.54
 Component Sizing Information, Coil:Heating:Fuel, COIL HEATING GAS 1, Design Size Nominal Capacity [W], 221517.83145
 Component Sizing Information, Fan:ConstantVolume, FAN CONSTANT VOLUME 1, Design Size Maximum Flow Rate [m3/s], 5.18965
 Component Sizing Information, Controller:OutdoorAir, CONTROLLER OUTDOOR AIR 16, Maximum Outdoor Air Flow Rate [m3/s], 2.38125
 Component Sizing Information, Controller:OutdoorAir, CONTROLLER OUTDOOR AIR 16, Minimum Outdoor Air Flow Rate [m3/s], 2.38125
 Component Sizing Information, HeatExchanger:AirToAir:SensibleAndLatent, SYS_4_PSZ_ALL_ST=FIRE STATION - ENGINE ROOM_FL=STORY 1_SCH=H ERV, Design Size Nominal Supply Air Flow Rate [m3/s], 2.38125
 Component Sizing Information, Coil:Cooling:DX:SingleSpeed, COIL COOLING DX SINGLE SPEED 18 135KBTU/HR 9.7EER, Design Size Rated Air Flow Rate [m3/s], 2.38125
 Component Sizing Information, Coil:Cooling:DX:SingleSpeed, COIL COOLING DX SINGLE SPEED 18 135KBTU/HR 9.7EER, Design Size Gross Rated Total Cooling Capacity [W], 39418.14269
 Component Sizing Information, Coil:Cooling:DX:SingleSpeed, COIL COOLING DX SINGLE SPEED 18 135KBTU/HR 9.7EER, Design Size Gross Rated Sensible Heat Ratio, 0.80066
 DX Cooling Coil Standard Rating Information, Coil:Cooling:DX:SingleSpeed, COIL COOLING DX SINGLE SPEED 18 135KBTU/HR 9.7EER, 37567.2, 2.78, 9.50, 10.02, 9.47
 Component Sizing Information, Coil:Heating:Fuel, COIL HEATING GAS 14, Design Size Nominal Capacity [W], 218417.93320
 Component Sizing Information, Fan:ConstantVolume, FAN CONSTANT VOLUME 18, Design Size Maximum Flow Rate [m3/s], 2.38125
 Component Sizing Information, Controller:OutdoorAir, CONTROLLER OUTDOOR AIR 17, Maximum Outdoor Air Flow Rate [m3/s], 6.84570
 Component Sizing Information, Controller:OutdoorAir, CONTROLLER OUTDOOR AIR 17, Minimum Outdoor Air Flow Rate [m3/s], 2.57175
 Component Sizing Information, HeatExchanger:AirToAir:SensibleAndLatent, SYS_4_PSZ_ALL_ST=FOOD PREPARATION - VENTED_FL=STORY 4_SCH=B ERV, Design Size Nominal Supply Air Flow Rate [m3/s], 2.57175
 Component Sizing Information, Coil:Cooling:DX:SingleSpeed, COIL COOLING DX SINGLE SPEED 19 387KBTU/HR 8.21EER, Design Size Rated Air Flow Rate [m3/s], 6.84570
 Component Sizing Information, Coil:Cooling:DX:SingleSpeed, COIL COOLING DX SINGLE SPEED 19 387KBTU/HR 8.21EER, Design Size Gross Rated Total Cooling Capacity [W], 113320.62914
 Component Sizing Information, Coil:Cooling:DX:SingleSpeed, COIL COOLING DX SINGLE SPEED 19 387KBTU/HR 8.21EER, Design Size Gross Rated Sensible Heat Ratio, 0.80066
 DX Cooling Coil Standard Rating Information, Coil:Cooling:DX:SingleSpeed, COIL COOLING DX SINGLE SPEED 19 387KBTU/HR 8.21EER, 107999.3, 2.53, 8.62, 9.10, 8.68
 Component Sizing Information, Coil:Heating:Fuel, COIL HEATING GAS 15, Design Size Nominal Capacity [W], 350833.73938
 Component Sizing Information, Fan:ConstantVolume, FAN CONSTANT VOLUME 19, Design Size Maximum Flow Rate [m3/s], 6.84570
 Component Sizing Information, Fan:VariableVolume, SYS6 RETURN FAN, Design Size Maximum Flow Rate [m3/s], 11.76664
 Component Sizing Information, Controller:OutdoorAir, CONTROLLER OUTDOOR AIR 18, Maximum Outdoor Air Flow Rate [m3/s], 11.76664
 Component Sizing Information, Controller:OutdoorAir, CONTROLLER OUTDOOR AIR 18, Minimum Outdoor Air Flow Rate [m3/s], 11.04900
 Component Sizing Information, HeatExchanger:AirToAir:SensibleAndLatent, SYS_6_VAV WITH REHEAT ERV, Design Size Nominal Supply Air Flow Rate [m3/s], 11.04900
 Component Sizing Information, Coil:Cooling:Water, COIL COOLING WATER 1, Design Size Design Coil Load [W], 182787.68256
 Component Sizing Information, Coil:Cooling:Water, COIL COOLING WATER 1, Design Size Design Water Flow Rate [m3/s], 7.25768E-003
 Component Sizing Information, Coil:Cooling:Water, COIL COOLING WATER 1, Design Size Design Air Flow Rate [m3/s], 11.76664
 Component Sizing Information, Coil:Cooling:Water, COIL COOLING WATER 1, Design Size Design Inlet Air Temperature [C], 23.64150
 Component Sizing Information, Coil:Cooling:Water, COIL COOLING WATER 1, Design Size Design Inlet Water Temperature [C], 7.00000
 Component Sizing Information, Coil:Cooling:Water, COIL COOLING WATER 1, Design Size Design Outlet Air Temperature [C], 13.00000
 Component Sizing Information, Coil:Cooling:Water, COIL COOLING WATER 1, Design Size Design Inlet Air Humidity Ratio, 8.89121E-003
 Component Sizing Information, Coil:Cooling:Water, COIL COOLING WATER 1, Design Size Design Outlet Air Humidity Ratio, 8.76847E-003
! <Water Cooling Coil Capacity Information>,Component Type,Name,Nominal Total Capacity {W},Nominal Sensible Capacity {W},Nominal Latent Capacity {W},Nominal Sensible Heat Ratio, Nominal Coil UA Value {W/C}, Nominal Coil Surface Area {m2}
Water Cooling Coil Capacity Information,Coil:Cooling:Water,COIL COOLING WATER 1,249871.16,179038.93,70832.23,0.72,27289.60,276.79
 Component Sizing Information, Coil:Heating:Water, COIL HEATING WATER 3, Design Size Rated Capacity [W], 201548.11772
 Component Sizing Information, Coil:Heating:Water, COIL HEATING WATER 3, Design Size Maximum Water Flow Rate [m3/s], 3.01028E-003
 Component Sizing Information, Coil:Heating:Water, COIL HEATING WATER 3, Design Size U-Factor Times Area Value [W/K], 2459.47801
Water Heating Coil Capacity Information,Coil:Heating:Water,COIL HEATING WATER 3,112293.49
 Component Sizing Information, Fan:VariableVolume, SYS6 SUPPLY FAN, Design Size Maximum Flow Rate [m3/s], 11.76664
 Component Sizing Information, Controller:WaterCoil, CONTROLLER WATER COIL 4, Maximum Actuated Flow [m3/s], 7.25768E-003
 Component Sizing Information, Controller:WaterCoil, CONTROLLER WATER COIL 4, Controller Convergence Tolerance, 6.56120E-005
 Component Sizing Information, Controller:WaterCoil, CONTROLLER WATER COIL 3, Maximum Actuated Flow [m3/s], 3.01028E-003
 Component Sizing Information, Fan:VariableVolume, SYS6 RETURN FAN 1, Design Size Maximum Flow Rate [m3/s], 7.71525
 Component Sizing Information, Controller:OutdoorAir, CONTROLLER OUTDOOR AIR 19, Maximum Outdoor Air Flow Rate [m3/s], 7.71525
 Component Sizing Information, Controller:OutdoorAir, CONTROLLER OUTDOOR AIR 19, Minimum Outdoor Air Flow Rate [m3/s], 7.71525
 Component Sizing Information, HeatExchanger:AirToAir:SensibleAndLatent, SYS_6_VAV WITH REHEAT 1 ERV, Design Size Nominal Supply Air Flow Rate [m3/s], 7.71525
 Component Sizing Information, Coil:Cooling:Water, COIL COOLING WATER 2, Design Size Design Coil Load [W], 158827.66852
 Component Sizing Information, Coil:Cooling:Water, COIL COOLING WATER 2, Design Size Design Water Flow Rate [m3/s], 6.30633E-003
 Component Sizing Information, Coil:Cooling:Water, COIL COOLING WATER 2, Design Size Design Air Flow Rate [m3/s], 7.71525
 Component Sizing Information, Coil:Cooling:Water, COIL COOLING WATER 2, Design Size Design Inlet Air Temperature [C], 28.28000
 Component Sizing Information, Coil:Cooling:Water, COIL COOLING WATER 2, Design Size Design Inlet Water Temperature [C], 7.00000
 Component Sizing Information, Coil:Cooling:Water, COIL COOLING WATER 2, Design Size Design Outlet Air Temperature [C], 13.00000
 Component Sizing Information, Coil:Cooling:Water, COIL COOLING WATER 2, Design Size Design Inlet Air Humidity Ratio, 8.76969E-003
 Component Sizing Information, Coil:Cooling:Water, COIL COOLING WATER 2, Design Size Design Outlet Air Humidity Ratio, 8.76847E-003
Water Cooling Coil Capacity Information,Coil:Cooling:Water,COIL COOLING WATER 2,184401.81,126393.81,58008.00,0.69,19399.61,196.76
 Component Sizing Information, Coil:Heating:Water, COIL HEATING WATER 6, Design Size Rated Capacity [W], 132152.77767
 Component Sizing Information, Coil:Heating:Water, COIL HEATING WATER 6, Design Size Maximum Water Flow Rate [m3/s], 1.97381E-003
 Component Sizing Information, Coil:Heating:Water, COIL HEATING WATER 6, Design Size U-Factor Times Area Value [W/K], 1612.65138
Water Heating Coil Capacity Information,Coil:Heating:Water,COIL HEATING WATER 6,73629.54
 Component Sizing Information, Fan:VariableVolume, SYS6 SUPPLY FAN 1, Design Size Maximum Flow Rate [m3/s], 7.71525
 Component Sizing Information, Controller:WaterCoil, CONTROLLER WATER COIL 8, Maximum Actuated Flow [m3/s], 6.30633E-003
 Component Sizing Information, Controller:WaterCoil, CONTROLLER WATER COIL 8, Controller Convergence Tolerance, 7.55099E-005
 Component Sizing Information, Controller:WaterCoil, CONTROLLER WATER COIL 7, Maximum Actuated Flow [m3/s], 1.97381E-003
Water Heater Information,WaterHeater:Mixed,1207GAL NATURALGAS WATER HEATER - 2312KBTU/HR 0.802 THERM EFF,4.5677,677665.9,0.152,0.1918
 Component Sizing Information, PlantLoop, CHILLED WATER LOOP, Maximum Loop Flow Rate [m3/s], 1.35640E-002
 Component Sizing Information, PlantLoop, CHILLED WATER LOOP, Plant Loop Volume [m3], 1.62768
 Component Sizing Information, Pump:ConstantSpeed, PUMP CONSTANT SPEED 1, Design Flow Rate [m3/s], 1.35640E-002
 Component Sizing Information, Pump:ConstantSpeed, PUMP CONSTANT SPEED 1, Design Power Consumption [W], 3484.78974
 Component Sizing Information, Chiller:Electric:EIR, PRIMARY CHILLER WATERCOOLED SCROLL 97TONS 0.8KW/TON, Design Size Reference Chilled Water Flow Rate [m3/s], 1.35640E-002
 Component Sizing Information, Chiller:Electric:EIR, PRIMARY CHILLER WATERCOOLED SCROLL 97TONS 0.8KW/TON, Design Size Reference Capacity [W], 341609.65478
 Component Sizing Information, Chiller:Electric:EIR, PRIMARY CHILLER WATERCOOLED SCROLL 97TONS 0.8KW/TON, User-Specified Reference Capacity [W], 339590.84283
 Component Sizing Information, Chiller:Electric:EIR, PRIMARY CHILLER WATERCOOLED SCROLL 97TONS 0.8KW/TON, Design Size Reference Condenser Fluid Flow Rate [m3/s], 1.65223E-002
! <Chiller Standard Rating Information>, Component Type, Component Name, IPLV in SI Units {W/W}, IPLV in IP Units {Btu/W-h}
 Chiller Standard Rating Information, Chiller:Electric:EIR, PRIMARY CHILLER WATERCOOLED SCROLL 97TONS 0.8KW/TON, 5.66, 19.31
 Component Sizing Information, Chiller:Electric:EIR, SECONDARY CHILLER WATERCOOLED SCROLL 0TONS 0.8KW/TON, Design Size Reference Chilled Water Flow Rate [m3/s], 1.35640E-002
 Component Sizing Information, Chiller:Electric:EIR, SECONDARY CHILLER WATERCOOLED SCROLL 0TONS 0.8KW/TON, Design Size Reference Capacity [W], 341609.65478
 Component Sizing Information, Chiller:Electric:EIR, SECONDARY CHILLER WATERCOOLED SCROLL 0TONS 0.8KW/TON, User-Specified Reference Capacity [W], 1.00000E-003
 Component Sizing Information, Chiller:Electric:EIR, SECONDARY CHILLER WATERCOOLED SCROLL 0TONS 0.8KW/TON, Design Size Reference Condenser Fluid Flow Rate [m3/s], 4.87330E-011
 Chiller Standard Rating Information, Chiller:Electric:EIR, SECONDARY CHILLER WATERCOOLED SCROLL 0TONS 0.8KW/TON, 5.61, 19.14
 Component Sizing Information, PlantLoop, CONDENSER WATER LOOP, Maximum Loop Flow Rate [m3/s], 1.65223E-002
 Component Sizing Information, PlantLoop, CONDENSER WATER LOOP, Plant Loop Volume [m3], 1.98268
 Component Sizing Information, Pump:ConstantSpeed, PUMP CONSTANT SPEED 2, Design Flow Rate [m3/s], 1.65223E-002
 Component Sizing Information, Pump:ConstantSpeed, PUMP CONSTANT SPEED 2, Design Power Consumption [W], 4142.98766
 Component Sizing Information, CoolingTower:SingleSpeed, COOLING TOWER SINGLE SPEED 1, Design Water Flow Rate [m3/s], 1.65223E-002
 Component Sizing Information, CoolingTower:SingleSpeed, COOLING TOWER SINGLE SPEED 1, Design Air Flow Rate [m3/s], 17.08970
 Component Sizing Information, CoolingTower:SingleSpeed, COOLING TOWER SINGLE SPEED 1, U-Factor Times Area Value at Design Air Flow Rate [W/C], 14456.65217
 Component Sizing Information, CoolingTower:SingleSpeed, COOLING TOWER SINGLE SPEED 1, Free Convection Regime Air Flow Rate [m3/s], 1.70897
 Component Sizing Information, CoolingTower:SingleSpeed, COOLING TOWER SINGLE SPEED 1, Free Convection U-Factor Times Area Value [W/K], 1445.66522
 Component Sizing Information, PlantLoop, HOT WATER LOOP, Maximum Loop Flow Rate [m3/s], 1.50257E-002
 Component Sizing Information, PlantLoop, HOT WATER LOOP, Plant Loop Volume [m3], 1.80309
 Component Sizing Information, Pump:VariableSpeed, PUMP VARIABLE SPEED 1, Design Flow Rate [m3/s], 1.50257E-002
 Component Sizing Information, Pump:VariableSpeed, PUMP VARIABLE SPEED 1, Design Power Consumption [W], 3860.33212
 Component Sizing Information, Boiler:HotWater, PRIMARY BOILER 3446KBTU/HR 0.833 COMBUSTION EFF, Design Size Nominal Capacity [W], 1009915.69983
 Component Sizing Information, Boiler:HotWater, PRIMARY BOILER 3446KBTU/HR 0.833 COMBUSTION EFF, User-Specified Nominal Capacity [W], 1009915.69983
 Component Sizing Information, Boiler:HotWater, PRIMARY BOILER 3446KBTU/HR 0.833 COMBUSTION EFF, Design Size Design Water Flow Rate [m3/s], 1.50257E-002
 Component Sizing Information, Boiler:HotWater, SECONDARY BOILER 0KBTU/HR 0.85 AFUE, Design Size Nominal Capacity [W], 1009915.69983
 Component Sizing Information, Boiler:HotWater, SECONDARY BOILER 0KBTU/HR 0.85 AFUE, User-Specified Nominal Capacity [W], 1.00000E-003
 Component Sizing Information, Boiler:HotWater, SECONDARY BOILER 0KBTU/HR 0.85 AFUE, Design Size Design Water Flow Rate [m3/s], 1.50257E-002
 Component Sizing Information, PlantLoop, MAIN SERVICE WATER LOOP, Maximum Loop Flow Rate [m3/s], 1.95865E-003
 Component Sizing Information, PlantLoop, MAIN SERVICE WATER LOOP, Plant Loop Volume [m3], 0.23504
 Component Sizing Information, Pump:ConstantSpeed, SERVICE WATER LOOP PUMP, Design Flow Rate [m3/s], 1.95865E-003
 Component Sizing Information, Pump:ConstantSpeed, SERVICE WATER LOOP PUMP, Design Power Consumption [W], 5479.00213
 Component Sizing Information, WaterHeater:Mixed, 1207GAL NATURALGAS WATER HEATER - 2312KBTU/HR 0.802 THERM EFF, Use Side Design Flow Rate [m3/s], 1.95865E-003
! <Environment>,Environment Name,Environment Type, Start Date, End Date, Start DayOfWeek, Duration {#days}, Source:Start DayOfWeek,  Use Daylight Saving, Use Holidays, Apply Weekend Holiday Rule,  Use Rain Values, Use Snow Values
! <Environment:Special Days>, Special Day Name, Special Day Type, Source, Start Date, Duration {#days}
! <Environment:Daylight Saving>, Daylight Saving Indicator, Source, Start Date, End Date
! <Environment:WarmupDays>, NumberofWarmupDays
Environment,RUN PERIOD 1,WeatherFileRunPeriod,01/01,12/31,Sunday,365,Use RunPeriod Specified Day,No,No,No,Yes,Yes
Environment:Daylight Saving,No,RunPeriod Object
Environment:WarmupDays, 25
! <Tabular Report>,Style,Unit Conversion
Tabular Report,HTML,None
! <Warmup Convergence Information>,Zone Name,Environment Type/Name,Average Warmup Temperature Difference {deltaC},Std Dev Warmup Temperature Difference {deltaC},Max Temperature Pass/Fail Convergence,Min Temperature Pass/Fail Convergence,Average Warmup Load Difference {W},Std Dev Warmup Load Difference {W},Heating Load Pass/Fail Convergence,Cooling Load Pass/Fail Convergence
 Warmup Convergence Information,ALL_ST=COURTHOUSE - CHAMBERS_FL=STORY 4_SCH=A,RunPeriod: RUN PERIOD 1,7.8813924684E-002,0.1252524621,Pass,Pass,5.0901176981E-002,0.1783793314,Pass,Pass
 Warmup Convergence Information,ALL_ST=COURTHOUSE - COURTROOM_FL=STORY 3_SCH=A,RunPeriod: RUN PERIOD 1,7.6308275577E-003,5.8958440607E-003,Pass,Pass,0.0000000000,0.0000000000,Pass,Pass
 Warmup Convergence Information,ALL_ST=DINING - BAR LOUNGE/LEISURE_FL=STORY 3_SCH=B,RunPeriod: RUN PERIOD 1,4.7859145517E-002,0.1608342033,Pass,Pass,2.5475703562E-002,0.1231941252,Pass,Pass
 Warmup Convergence Information,ALL_ST=DINING - FAMILY SPACE_FL=STORY 3_SCH=B,RunPeriod: RUN PERIOD 1,3.1112493802E-002,0.1053869478,Pass,Pass,0.3169729792,2.7198520770,Pass,Pass
 Warmup Convergence Information,ALL_ST=DINING - OTHER_FL=STORY 1_SCH=B,RunPeriod: RUN PERIOD 1,7.4795167968E-002,0.2208024481,Pass,Pass,2.7067446273E-002,0.1072082382,Pass,Pass
 Warmup Convergence Information,ALL_ST=DRESS./FITT. - PERFORMANCE ARTS_FL=STORY 3_SCH=C,RunPeriod: RUN PERIOD 1,2.8794018633E-002,9.6828420544E-002,Pass,Pass,5.8224070672E-002,0.2601142208,Fail,Pass
 Warmup Convergence Information,ALL_ST=FIRE STATION - ENGINE ROOM_FL=STORY 1_SCH=H,RunPeriod: RUN PERIOD 1,1.3341890584E-002,7.6527543001E-002,Pass,Pass,9.3001903209E-003,4.6798242395E-002,Pass,Pass
 Warmup Convergence Information,ALL_ST=FOOD PREPARATION - VENTED_FL=STORY 4_SCH=B,RunPeriod: RUN PERIOD 1,7.8933207387E-002,0.2262202208,Pass,Pass,0.1505578485,0.5305034239,Pass,Pass
 Warmup Convergence Information,ALL_ST=FOOD PREPARATION_FL=STORY 2_SCH=B,RunPeriod: RUN PERIOD 1,9.2593371576E-002,0.2110206438,Pass,Pass,3.2142795118E-002,0.1380988905,Pass,Pass
 Warmup Convergence Information,ALL_ST=GYM - AUDIENCE_FL=STORY 4_SCH=B,RunPeriod: RUN PERIOD 1,9.8648544032E-002,0.3080661469,Pass,Pass,0.2304733819,0.7292472234,Pass,Pass
 Warmup Convergence Information,ALL_ST=GYM - FITNESS_FL=STORY 1_SCH=B,RunPeriod: RUN PERIOD 1,0.1687987866,0.3001241137,Pass,Fail,0.3893371651,1.0112174404,Pass,Fail
 Warmup Convergence Information,ALL_ST=GYM - PLAY_FL=STORY 1_SCH=B,RunPeriod: RUN PERIOD 1,0.1599442257,0.1889711641,Pass,Pass,0.2982601091,0.7712696592,Pass,Fail
 Warmup Convergence Information,ALL_ST=HOSPITAL - EMERGENCY_FL=STORY 2_SCH=H,RunPeriod: RUN PERIOD 1,2.2535144130E-002,0.1424689467,Pass,Pass,1.1335503982E-002,4.7957549442E-002,Pass,Pass
 Warmup Convergence Information,ALL_ST=HOSPITAL - EXAM_FL=STORY 3_SCH=C,RunPeriod: RUN PERIOD 1,4.7415394217E-002,8.3211797475E-002,Pass,Pass,2.0070907342E-002,0.1006786072,Pass,Fail
 Warmup Convergence Information,ALL_ST=HOSPITAL - LAUNDRY/WASHING_FL=STORY 1_SCH=C,RunPeriod: RUN PERIOD 1,3.7412109530E-002,0.1394241903,Pass,Pass,2.2565780129E-002,0.1453975095,Pass,Pass
 Warmup Convergence Information,ALL_ST=HOSPITAL - LOUNGE/RECREATION_FL=STORY 2_SCH=B,RunPeriod: RUN PERIOD 1,3.9532092923E-002,0.1149863192,Pass,Pass,3.4859182875E-002,0.1615445761,Pass,Pass
 Warmup Convergence Information,ALL_ST=HOSPITAL - MEDICAL SUPPLY_FL=STORY 2_SCH=H,RunPeriod: RUN PERIOD 1,2.7553591000E-002,0.1654237213,Pass,Pass,2.8674465565E-002,0.2056755126,Pass,Pass
 Warmup Convergence Information,DU_BT=SPACE FUNCTION_ST=DORMITORY - LIVING QUARTERS_FL=STORY 4_SCHG,RunPeriod: RUN PERIOD 1,5.6652867743E-002,0.2673567206,Pass,Pass,0.4998406545,1.3787808998,Fail,Pass
 Warmup Convergence Information,DU_BT=SPACE FUNCTION_ST=DWELLING UNIT(S)_FL=STORY 2_SCHG,RunPeriod: RUN PERIOD 1,2.8303312286E-002,3.4332095313E-002,Pass,Pass,5.4978751923E-002,9.4592241800E-002,Pass,Fail
 Warmup Convergence Information,DU_BT=SPACE FUNCTION_ST=FIRE STATION - QUARTERS_FL=STORY 4_SCHG,RunPeriod: RUN PERIOD 1,5.7610579614E-002,0.1357408504,Pass,Pass,1.1846662250,5.2885282896,Fail,Pass
! <Program Control Information:Threads/Parallel Sims>, Threading Supported,Maximum Number of Threads, Env Set Threads (OMP_NUM_THREADS), EP Env Set Threads (EP_OMP_NUM_THREADS), IDF Set Threads, Number of Threads Used (Interior Radiant Exchange), Number Nominal Surfaces, Number Parallel Sims
Program Control:Threads/Parallel Sims, No,1, N/A, N/A, N/A, N/A, N/A, N/A
End of Data
