{
   "completed_at" : "20190328T141910Z",
   "completed_status" : "Success",
   "created_at" : "20190328T141904Z",
   "current_step" : 0,
   "eplusout_err" : "Program Version,EnergyPlus, Version 8.9.0-eba93e8e1b, YMD=2019.03.28 14:19,\n   ************* Beginning Zone Sizing Calculations\n   ** Warning ** ProcessScheduleInput: Schedule:Day:Interval=\"SCHEDULE DAY 1\", Blank Schedule Type Limits Name input -- will not be validated.\n   ** Warning ** ProcessScheduleInput: Schedule:Day:Interval=\"SCHEDULE DAY 2\", Blank Schedule Type Limits Name input -- will not be validated.\n   ** Warning ** ProcessScheduleInput: Schedule:Constant=\"ALWAYS OFF DISCRETE\", Blank Schedule Type Limits Name input -- will not be validated.\n   ** Warning ** ProcessScheduleInput: Schedule:Constant=\"ALWAYS ON CONTINUOUS\", Blank Schedule Type Limits Name input -- will not be validated.\n   ** Warning ** CheckUsedConstructions: There are 27 nominally unused constructions in input.\n   **   ~~~   ** For explicit details on each unused construction, use Output:Diagnostics,DisplayExtraWarnings;\n   ** Warning ** GetInternalHeatGains: People Combination of ZoneList and Object Name generate a name too long.\n   **   ~~~   ** Object Name=\"SPACE FUNCTION LOBBY - PERFORMING ARTS THEATRE PEOPLE\".\n   **   ~~~   ** ZoneList/Zone Name=\"LOBBY - PERFORMING ARTS THEATRE-SPACE FUNCTION ZN\".\n   **   ~~~   ** Item length=[102] > Maximum Length=[100]. You may need to shorten the names.\n   **   ~~~   ** Shortening the Object Name by [3] characters will assure uniqueness for this ZoneList.\n   **   ~~~   ** name that will be used (may be needed in reporting)=\"LOBBY - PERFORMING ARTS THEATRE-SPACE FUNCTION ZN SPACE FUNCTION LOBBY - PERFORMING ARTS THEATRE PEOPLE\".\n   ** Warning ** GetInternalHeatGains: People Combination of ZoneList and Object Name generate a name too long.\n   **   ~~~   ** Object Name=\"SPACE FUNCTION LOBBY - SPACE DESIGNED TO ANSI/IES RP-28 (USED PRIMARILY BY RESIDENTS) PEOPLE\".\n   **   ~~~   ** ZoneList/Zone Name=\"LOBBY - SPACE DESIGNED TO ANSI/IES RP-28 (USED PRIMARILY BY RESIDENTS)-SPACE FUNCTION ZN\".\n   **   ~~~   ** Item length=[180] > Maximum Length=[100]. You may need to shorten the names.\n   **   ~~~   ** Shortening the Object Name by [81] characters will assure uniqueness for this ZoneList.\n   **   ~~~   ** name that will be used (may be needed in reporting)=\"LOBBY - SPACE DESIGNED TO ANSI/IES RP-28 (USED PRIMARILY BY RESIDENTS)-SPACE FUNCTION ZN SPACE FUNCTION LOBBY - SPACE DESIGNED TO ANSI/IES RP-28 (USED PRIMARILY BY RESIDENTS) PEOPLE\".\n   ** Warning ** GetInternalHeatGains: Lights Combination of ZoneList and Object Name generate a name too long.\n   **   ~~~   ** Object Name=\"SPACE FUNCTION LOBBY - PERFORMING ARTS THEATRE LIGHTS\".\n   **   ~~~   ** ZoneList/Zone Name=\"LOBBY - PERFORMING ARTS THEATRE-SPACE FUNCTION ZN\".\n   **   ~~~   ** Item length=[102] > Maximum Length=[100]. You may need to shorten the names.\n   **   ~~~   ** Shortening the Object Name by [3] characters will assure uniqueness for this ZoneList.\n   **   ~~~   ** name that will be used (may be needed in reporting)=\"LOBBY - PERFORMING ARTS THEATRE-SPACE FUNCTION ZN SPACE FUNCTION LOBBY - PERFORMING ARTS THEATRE LIGHTS\".\n   ** Warning ** GetInternalHeatGains: Lights Combination of ZoneList and Object Name generate a name too long.\n   **   ~~~   ** Object Name=\"SPACE FUNCTION LOBBY - SPACE DESIGNED TO ANSI/IES RP-28 (USED PRIMARILY BY RESIDENTS) LIGHTS\".\n   **   ~~~   ** ZoneList/Zone Name=\"LOBBY - SPACE DESIGNED TO ANSI/IES RP-28 (USED PRIMARILY BY RESIDENTS)-SPACE FUNCTION ZN\".\n   **   ~~~   ** Item length=[180] > Maximum Length=[100]. You may need to shorten the names.\n   **   ~~~   ** Shortening the Object Name by [81] characters will assure uniqueness for this ZoneList.\n   **   ~~~   ** name that will be used (may be needed in reporting)=\"LOBBY - SPACE DESIGNED TO ANSI/IES RP-28 (USED PRIMARILY BY RESIDENTS)-SPACE FUNCTION ZN SPACE FUNCTION LOBBY - SPACE DESIGNED TO ANSI/IES RP-28 (USED PRIMARILY BY RESIDENTS) LIGHTS\".\n   ** Warning ** GetInternalHeatGains: ElectricEquipment Combination of ZoneList and Object Name generate a name too long.\n   **   ~~~   ** Object Name=\"SPACE FUNCTION LOBBY - MOTION PICTURE THEATRE ELEC EQUIP\".\n   **   ~~~   ** ZoneList/Zone Name=\"LOBBY - MOTION PICTURE THEATRE-SPACE FUNCTION ZN\".\n   **   ~~~   ** Item length=[104] > Maximum Length=[100]. You may need to shorten the names.\n   **   ~~~   ** Shortening the Object Name by [5] characters will assure uniqueness for this ZoneList.\n   **   ~~~   ** name that will be used (may be needed in reporting)=\"LOBBY - MOTION PICTURE THEATRE-SPACE FUNCTION ZN SPACE FUNCTION LOBBY - MOTION PICTURE THEATRE ELEC EQUIP\".\n   ** Warning ** GetInternalHeatGains: ElectricEquipment Combination of ZoneList and Object Name generate a name too long.\n   **   ~~~   ** Object Name=\"SPACE FUNCTION LOBBY - PERFORMING ARTS THEATRE ELEC EQUIP\".\n   **   ~~~   ** ZoneList/Zone Name=\"LOBBY - PERFORMING ARTS THEATRE-SPACE FUNCTION ZN\".\n   **   ~~~   ** Item length=[106] > Maximum Length=[100]. You may need to shorten the names.\n   **   ~~~   ** Shortening the Object Name by [7] characters will assure uniqueness for this ZoneList.\n   **   ~~~   ** name that will be used (may be needed in reporting)=\"LOBBY - PERFORMING ARTS THEATRE-SPACE FUNCTION ZN SPACE FUNCTION LOBBY - PERFORMING ARTS THEATRE ELEC EQUIP\".\n   ** Warning ** GetInternalHeatGains: ElectricEquipment Combination of ZoneList and Object Name generate a name too long.\n   **   ~~~   ** Object Name=\"SPACE FUNCTION LOBBY - SPACE DESIGNED TO ANSI/IES RP-28 (USED PRIMARILY BY RESIDENTS) ELEC EQUIP\".\n   **   ~~~   ** ZoneList/Zone Name=\"LOBBY - SPACE DESIGNED TO ANSI/IES RP-28 (USED PRIMARILY BY RESIDENTS)-SPACE FUNCTION ZN\".\n   **   ~~~   ** Item length=[184] > Maximum Length=[100]. You may need to shorten the names.\n   **   ~~~   ** Shortening the Object Name by [85] characters will assure uniqueness for this ZoneList.\n   **   ~~~   ** name that will be used (may be needed in reporting)=\"LOBBY - SPACE DESIGNED TO ANSI/IES RP-28 (USED PRIMARILY BY RESIDENTS)-SPACE FUNCTION ZN SPACE FUNCTION LOBBY - SPACE DESIGNED TO ANSI/IES RP-28 (USED PRIMARILY BY RESIDENTS) ELEC EQUIP\".\n   ** Warning ** Calculated design heating load for zone=LOADING DOCK INTERIOR-SPACE FUNCTION ZN is zero.\n   **   ~~~   ** Check Sizing:Zone and ZoneControl:Thermostat inputs.\n   ** Warning ** Calculated design heating load for zone=LOBBY - HOTEL-SPACE FUNCTION ZN is zero.\n   **   ~~~   ** Check Sizing:Zone and ZoneControl:Thermostat inputs.\n   ** Warning ** Calculated design heating load for zone=LOBBY - MOTION PICTURE THEATRE-SPACE FUNCTION ZN is zero.\n   **   ~~~   ** Check Sizing:Zone and ZoneControl:Thermostat inputs.\n   ** Warning ** Calculated design heating load for zone=LOBBY - PERFORMING ARTS THEATRE-SPACE FUNCTION ZN is zero.\n   **   ~~~   ** Check Sizing:Zone and ZoneControl:Thermostat inputs.\n   ** Warning ** Calculated design heating load for zone=LOBBY - SPACE DESIGNED TO ANSI/IES RP-28 (USED PRIMARILY BY RESIDENTS)-SPACE FUNCTION ZN is zero.\n   **   ~~~   ** Check Sizing:Zone and ZoneControl:Thermostat inputs.\n   ** Warning ** Calculated design heating load for zone=LOCKER ROOM-SCH-A-SPACE FUNCTION ZN is zero.\n   **   ~~~   ** Check Sizing:Zone and ZoneControl:Thermostat inputs.\n   ** Warning ** Calculated design heating load for zone=LOCKER ROOM-SCH-B-SPACE FUNCTION ZN is zero.\n   **   ~~~   ** Check Sizing:Zone and ZoneControl:Thermostat inputs.\n   ** Warning ** Calculated design heating load for zone=LOCKER ROOM-SCH-E-SPACE FUNCTION ZN is zero.\n   **   ~~~   ** Check Sizing:Zone and ZoneControl:Thermostat inputs.\n   ** Warning ** Calculated design heating load for zone=LOCKER ROOM-SCH-F-SPACE FUNCTION ZN is zero.\n   **   ~~~   ** Check Sizing:Zone and ZoneControl:Thermostat inputs.\n   ** Warning ** Calculated design heating load for zone=LOCKER ROOM-SCH-H-SPACE FUNCTION ZN is zero.\n   **   ~~~   ** Check Sizing:Zone and ZoneControl:Thermostat inputs.\n   ** Warning ** Calculated design heating load for zone=LOCKER ROOM-SCH-I-SPACE FUNCTION ZN is zero.\n   **   ~~~   ** Check Sizing:Zone and ZoneControl:Thermostat inputs.\n   ** Warning ** Output:Meter: invalid Key Name=\"GAS:FACILITY\" - not found.\n   ** Warning ** Output:Meter:MeterFileOnly: invalid Key Name=\"GAS:FACILITY\" - not found.\n   ** Warning ** Output:Meter:MeterFileOnly requested for \"Electricity:Facility\" (TimeStep), already on \"Output:Meter\". Will report to both eplusout.eso and eplusout.mtr\n   ************* Testing Individual Branch Integrity\n   ************* All Branches passed integrity testing\n   ************* Testing Individual Supply Air Path Integrity\n   ************* All Supply Air Paths passed integrity testing\n   ************* Testing Individual Return Air Path Integrity\n   ************* All Return Air Paths passed integrity testing\n   ************* No node connection errors were found.\n   ************* Beginning Simulation\n   ** Warning ** Output:Table:Monthly requested with SimulationControl Run Simulation for Weather File Run Periods set to No so Output:Table:Monthly will not be generated\n   ************* Simulation Error Summary *************\n   ************* There are 8 unused objects in input.\n   ************* Use Output:Diagnostics,DisplayUnusedObjects; to see them.\n   ************* There are 6 unused schedules in input.\n   ************* There are 6 unused week schedules in input.\n   ************* There are 9 unused day schedules in input.\n   ************* Use Output:Diagnostics,DisplayUnusedSchedules; to see them.\n   *************\n   ************* ===== Final Error Summary =====\n   ************* The following error categories occurred.  Consider correcting or noting.\n   ************* Nominally Unused Constructions\n   ************* ..The nominally unused constructions warning is provided to alert you to potential conditions that can cause\n   ************* ..extra time during simulation. Each construction is calculated by the algorithm indicated in the HeatBalanceAlgorithm\n   ************* ..object. You may remove the constructions indicated (when you use the DisplayExtraWarnings option).\n   *************\n   ************* EnergyPlus Warmup Error Summary. During Warmup: 0 Warning; 0 Severe Errors.\n   ************* EnergyPlus Sizing Error Summary. During Sizing: 23 Warning; 0 Severe Errors.\n   ************* EnergyPlus Completed Successfully-- 27 Warning; 0 Severe Errors; Elapsed Time=00hr 00min  2.64sec\n",
   "hash" : "2563420F",
   "seed_file" : "in.osm",
   "started_at" : "20190328T141906Z",
   "steps" : [],
   "updated_at" : "20190328T141910Z",
   "weather_file" : "in.epw"
}
