Program Version,EnergyPlus, Version 8.9.0-eba93e8e1b, YMD=2019.03.28 14:30
! This file shows details about the branches, nodes, and other
! elements of the flow connections.
! This file is intended for use in "debugging" potential problems
! that may also be detected by the program, but may be more easily
! identified by "eye".
! This file is also intended to support software which draws a
! schematic diagram of the HVAC system.
! ===============================================================
! #Nodes,<Number of Unique Nodes>
 #Nodes,460
! <Node>,<NodeNumber>,<Node Name>,<Node Fluid Type>,<# Times Node Referenced After Definition>
 Node,1,NODE 74,Air,3
 Node,2,NODE 65,Air,4
 Node,3,NODE 73,Air,3
 Node,4,NODE 286,Air,4
 Node,5,NODE 106,Air,4
 Node,6,NODE 93,Air,4
 Node,7,NODE 305,Air,4
 Node,8,NODE 224,Air,4
 Node,9,NODE 119,Air,4
 Node,10,NODE 80,Air,4
 Node,11,NODE 258,Air,4
 Node,12,NODE 277,Air,4
 Node,13,NODE 328,Air,4
 Node,14,NODE 242,Air,4
 Node,15,NODE 312,Air,4
 Node,16,NODE 249,Air,4
 Node,17,NODE 319,Air,4
 Node,18,NODE 132,Air,4
 Node,19,NODE 184,Air,4
 Node,20,NODE 158,Air,4
 Node,21,NODE 171,Air,4
 Node,22,NODE 145,Air,4
 Node,23,NODE 62,Air,10
 Node,24,NODE 63,Air,3
 Node,25,NODE 103,Air,10
 Node,26,NODE 104,Air,3
 Node,27,NODE 90,Air,10
 Node,28,NODE 91,Air,3
 Node,29,NODE 116,Air,10
 Node,30,NODE 117,Air,3
 Node,31,NODE 77,Air,10
 Node,32,NODE 78,Air,3
 Node,33,NODE 129,Air,10
 Node,34,NODE 130,Air,3
 Node,35,NODE 181,Air,10
 Node,36,NODE 182,Air,3
 Node,37,NODE 155,Air,10
 Node,38,NODE 156,Air,3
 Node,39,NODE 168,Air,10
 Node,40,NODE 169,Air,3
 Node,41,NODE 142,Air,10
 Node,42,NODE 143,Air,3
 Node,43,NODE 221,Air,12
 Node,44,NODE 222,Air,3
 Node,45,NODE 255,Air,12
 Node,46,NODE 256,Air,3
 Node,47,NODE 283,Air,12
 Node,48,NODE 284,Air,3
 Node,49,NODE 325,Air,12
 Node,50,NODE 326,Air,3
 Node,51,NODE 61,Air,4
 Node,52,NODE 70,Air,8
 Node,53,NODE 69,Air,6
 Node,54,NODE 68,Air,8
 Node,55,NODE 102,Air,4
 Node,56,NODE 111,Air,8
 Node,57,NODE 110,Air,6
 Node,58,NODE 109,Air,8
 Node,59,NODE 89,Air,4
 Node,60,NODE 98,Air,8
 Node,61,NODE 97,Air,6
 Node,62,NODE 96,Air,8
 Node,63,NODE 115,Air,4
 Node,64,NODE 124,Air,8
 Node,65,NODE 123,Air,6
 Node,66,NODE 122,Air,8
 Node,67,NODE 76,Air,4
 Node,68,NODE 85,Air,8
 Node,69,NODE 84,Air,6
 Node,70,NODE 83,Air,8
 Node,71,NODE 128,Air,4
 Node,72,NODE 137,Air,8
 Node,73,NODE 136,Air,6
 Node,74,NODE 135,Air,8
 Node,75,NODE 180,Air,4
 Node,76,NODE 189,Air,8
 Node,77,NODE 188,Air,6
 Node,78,NODE 187,Air,8
 Node,79,NODE 154,Air,4
 Node,80,NODE 163,Air,8
 Node,81,NODE 162,Air,6
 Node,82,NODE 161,Air,8
 Node,83,NODE 167,Air,4
 Node,84,NODE 176,Air,8
 Node,85,NODE 175,Air,6
 Node,86,NODE 174,Air,8
 Node,87,NODE 141,Air,4
 Node,88,NODE 150,Air,8
 Node,89,NODE 149,Air,6
 Node,90,NODE 148,Air,8
 Node,91,NODE 220,Air,2
 Node,92,NODE 233,Air,6
 Node,93,NODE 232,Air,7
 Node,94,NODE 231,Air,5
 Node,95,NODE 230,Air,9
 Node,96,NODE 254,Air,2
 Node,97,NODE 268,Air,6
 Node,98,NODE 267,Air,7
 Node,99,NODE 266,Air,5
 Node,100,NODE 265,Air,9
 Node,101,NODE 282,Air,2
 Node,102,NODE 296,Air,6
 Node,103,NODE 295,Air,7
 Node,104,NODE 294,Air,5
 Node,105,NODE 293,Air,9
 Node,106,NODE 324,Air,2
 Node,107,NODE 338,Air,6
 Node,108,NODE 337,Air,7
 Node,109,NODE 336,Air,5
 Node,110,NODE 335,Air,9
 Node,111,NODE 34,Water,2
 Node,112,NODE 40,Water,1
 Node,113,NODE 36,Water,1
 Node,114,NODE 41,Water,1
 Node,115,NODE 42,Water,1
 Node,116,NODE 43,Water,1
 Node,117,NODE 44,Water,1
 Node,118,NODE 45,Water,1
 Node,119,NODE 46,Water,1
 Node,120,NODE 35,Water,4
 Node,121,NODE 37,Water,2
 Node,122,CHILLED WATER LOOP DEMAND INLET PIPE NODE,Water,1
 Node,123,NODE 39,Water,1
 Node,124,NODE 72,Water,1
 Node,125,CHILLED WATER LOOP DEMAND BYPASS PIPE INLET NODE,Water,1
 Node,126,CHILLED WATER LOOP DEMAND BYPASS PIPE OUTLET NODE,Water,1
 Node,127,CHILLED WATER LOOP DEMAND OUTLET PIPE NODE,Water,1
 Node,128,NODE 38,Water,2
 Node,129,NODE 193,Water,2
 Node,130,NODE 199,Water,1
 Node,131,NODE 195,Water,1
 Node,132,NODE 200,Water,1
 Node,133,NODE 201,Water,1
 Node,134,NODE 202,Water,1
 Node,135,NODE 203,Water,1
 Node,136,NODE 204,Water,1
 Node,137,NODE 205,Water,1
 Node,138,NODE 194,Water,4
 Node,139,NODE 196,Water,2
 Node,140,CHILLED WATER LOOP 1 DEMAND INLET PIPE NODE,Water,1
 Node,141,NODE 198,Water,2
 Node,142,NODE 227,Water,1
 Node,143,NODE 261,Water,2
 Node,144,NODE 262,Water,1
 Node,145,NODE 289,Water,2
 Node,146,NODE 290,Water,1
 Node,147,NODE 331,Water,2
 Node,148,NODE 332,Water,1
 Node,149,CHILLED WATER LOOP 1 DEMAND BYPASS PIPE INLET NODE,Water,1
 Node,150,CHILLED WATER LOOP 1 DEMAND BYPASS PIPE OUTLET NODE,Water,1
 Node,151,CHILLED WATER LOOP 1 DEMAND OUTLET PIPE NODE,Water,1
 Node,152,NODE 197,Water,2
 Node,153,NODE 47,Water,2
 Node,154,NODE 53,Water,1
 Node,155,NODE 49,Water,1
 Node,156,NODE 54,Water,1
 Node,157,NODE 55,Water,1
 Node,158,NODE 56,Water,1
 Node,159,NODE 57,Water,1
 Node,160,NODE 48,Water,4
 Node,161,NODE 50,Water,2
 Node,162,CONDENSER WATER LOOP DEMAND INLET PIPE NODE,Water,1
 Node,163,NODE 52,Water,1
 Node,164,NODE 58,Water,1
 Node,165,NODE 59,Water,1
 Node,166,NODE 60,Water,1
 Node,167,CONDENSER WATER LOOP DEMAND BYPASS PIPE INLET NODE,Water,1
 Node,168,CONDENSER WATER LOOP DEMAND BYPASS PIPE OUTLET NODE,Water,1
 Node,169,CONDENSER WATER LOOP DEMAND OUTLET PIPE NODE,Water,1
 Node,170,NODE 51,Water,2
 Node,171,NODE 206,Water,2
 Node,172,NODE 212,Water,1
 Node,173,NODE 208,Water,1
 Node,174,NODE 213,Water,1
 Node,175,NODE 214,Water,1
 Node,176,NODE 215,Water,1
 Node,177,NODE 216,Water,1
 Node,178,NODE 207,Water,4
 Node,179,NODE 209,Water,2
 Node,180,CONDENSER WATER LOOP 1 DEMAND INLET PIPE NODE,Water,1
 Node,181,NODE 211,Water,1
 Node,182,NODE 217,Water,1
 Node,183,NODE 218,Water,1
 Node,184,NODE 219,Water,1
 Node,185,CONDENSER WATER LOOP 1 DEMAND BYPASS PIPE INLET NODE,Water,1
 Node,186,CONDENSER WATER LOOP 1 DEMAND BYPASS PIPE OUTLET NODE,Water,1
 Node,187,CONDENSER WATER LOOP 1 DEMAND OUTLET PIPE NODE,Water,1
 Node,188,NODE 210,Water,2
 Node,189,NODE 21,Water,2
 Node,190,NODE 27,Water,1
 Node,191,NODE 23,Water,1
 Node,192,NODE 28,Water,1
 Node,193,NODE 29,Water,1
 Node,194,NODE 30,Water,1
 Node,195,NODE 31,Water,1
 Node,196,NODE 32,Water,1
 Node,197,NODE 33,Water,1
 Node,198,NODE 22,Water,4
 Node,199,NODE 24,Water,2
 Node,200,HOT WATER LOOP DEMAND INLET PIPE NODE,Water,1
 Node,201,NODE 26,Water,1
 Node,202,NODE 71,Water,1
 Node,203,NODE 87,Water,1
 Node,204,NODE 88,Water,1
 Node,205,NODE 100,Water,1
 Node,206,NODE 101,Water,1
 Node,207,NODE 113,Water,1
 Node,208,NODE 114,Water,1
 Node,209,NODE 126,Water,1
 Node,210,NODE 127,Water,1
 Node,211,NODE 139,Water,1
 Node,212,NODE 140,Water,1
 Node,213,NODE 152,Water,1
 Node,214,NODE 153,Water,1
 Node,215,NODE 165,Water,1
 Node,216,NODE 166,Water,1
 Node,217,NODE 178,Water,1
 Node,218,NODE 179,Water,1
 Node,219,NODE 191,Water,1
 Node,220,NODE 192,Water,1
 Node,221,NODE 225,Water,2
 Node,222,NODE 226,Water,1
 Node,223,NODE 234,Water,1
 Node,224,NODE 235,Water,1
 Node,225,NODE 238,Water,1
 Node,226,NODE 239,Water,1
 Node,227,NODE 240,Water,1
 Node,228,NODE 241,Water,1
 Node,229,NODE 245,Water,1
 Node,230,NODE 246,Water,1
 Node,231,NODE 247,Water,1
 Node,232,NODE 248,Water,1
 Node,233,NODE 252,Water,1
 Node,234,NODE 253,Water,1
 Node,235,NODE 259,Water,2
 Node,236,NODE 260,Water,1
 Node,237,NODE 269,Water,1
 Node,238,NODE 270,Water,1
 Node,239,NODE 273,Water,1
 Node,240,NODE 274,Water,1
 Node,241,NODE 275,Water,1
 Node,242,NODE 276,Water,1
 Node,243,NODE 280,Water,1
 Node,244,NODE 281,Water,1
 Node,245,NODE 287,Water,2
 Node,246,NODE 288,Water,1
 Node,247,NODE 297,Water,1
 Node,248,NODE 298,Water,1
 Node,249,NODE 301,Water,1
 Node,250,NODE 302,Water,1
 Node,251,NODE 303,Water,1
 Node,252,NODE 304,Water,1
 Node,253,NODE 308,Water,1
 Node,254,NODE 309,Water,1
 Node,255,NODE 310,Water,1
 Node,256,NODE 311,Water,1
 Node,257,NODE 315,Water,1
 Node,258,NODE 316,Water,1
 Node,259,NODE 317,Water,1
 Node,260,NODE 318,Water,1
 Node,261,NODE 322,Water,1
 Node,262,NODE 323,Water,1
 Node,263,NODE 329,Water,2
 Node,264,NODE 330,Water,1
 Node,265,NODE 339,Water,1
 Node,266,NODE 340,Water,1
 Node,267,NODE 343,Water,1
 Node,268,NODE 344,Water,1
 Node,269,HOT WATER LOOP DEMAND BYPASS PIPE INLET NODE,Water,1
 Node,270,HOT WATER LOOP DEMAND BYPASS PIPE OUTLET NODE,Water,1
 Node,271,HOT WATER LOOP DEMAND OUTLET PIPE NODE,Water,1
 Node,272,NODE 25,Water,2
 Node,273,NODE 345,Water,2
 Node,274,NODE 351,Water,1
 Node,275,NODE 347,Water,1
 Node,276,NODE 352,Water,1
 Node,277,NODE 353,Water,1
 Node,278,NODE 354,Water,1
 Node,279,NODE 356,Water,1
 Node,280,NODE 346,Water,4
 Node,281,NODE 348,Water,2
 Node,282,NODE 357,Water,1
 Node,283,NODE 350,Water,1
 Node,284,NODE 355,Water,1
 Node,285,NODE 359,Water,1
 Node,286,NODE 360,Water,1
 Node,287,NODE 361,Water,1
 Node,288,NODE 362,Water,1
 Node,289,NODE 363,Water,1
 Node,290,NODE 364,Water,1
 Node,291,NODE 365,Water,1
 Node,292,NODE 366,Water,1
 Node,293,NODE 367,Water,1
 Node,294,NODE 368,Water,1
 Node,295,NODE 369,Water,1
 Node,296,NODE 370,Water,1
 Node,297,NODE 371,Water,1
 Node,298,NODE 372,Water,1
 Node,299,NODE 373,Water,1
 Node,300,NODE 374,Water,1
 Node,301,NODE 375,Water,1
 Node,302,NODE 376,Water,1
 Node,303,NODE 377,Water,1
 Node,304,NODE 378,Water,1
 Node,305,NODE 379,Water,1
 Node,306,NODE 380,Water,1
 Node,307,NODE 381,Water,1
 Node,308,NODE 382,Water,1
 Node,309,NODE 383,Water,1
 Node,310,NODE 384,Water,1
 Node,311,NODE 385,Water,1
 Node,312,NODE 386,Water,1
 Node,313,NODE 387,Water,1
 Node,314,NODE 388,Water,1
 Node,315,NODE 389,Water,1
 Node,316,NODE 390,Water,1
 Node,317,NODE 391,Water,1
 Node,318,NODE 392,Water,1
 Node,319,NODE 393,Water,1
 Node,320,NODE 394,Water,1
 Node,321,MAIN SERVICE WATER LOOP DEMAND BYPASS PIPE INLET NODE,Water,1
 Node,322,MAIN SERVICE WATER LOOP DEMAND BYPASS PIPE OUTLET NODE,Water,1
 Node,323,NODE 358,Water,1
 Node,324,NODE 349,Water,2
 Node,325,NODE 1,Air,1
 Node,326,NODE 75,Air,1
 Node,327,NODE 16,Air,0
 Node,328,NODE 299,Air,1
 Node,329,NODE 4,Air,1
 Node,330,NODE 112,Air,1
 Node,331,NODE 3,Air,1
 Node,332,NODE 99,Air,1
 Node,333,NODE 17,Air,0
 Node,334,NODE 306,Air,1
 Node,335,NODE 11,Air,0
 Node,336,NODE 236,Air,1
 Node,337,NODE 5,Air,1
 Node,338,NODE 125,Air,1
 Node,339,NODE 2,Air,1
 Node,340,NODE 86,Air,1
 Node,341,NODE 14,Air,0
 Node,342,NODE 271,Air,1
 Node,343,NODE 15,Air,0
 Node,344,NODE 278,Air,1
 Node,345,NODE 20,Air,0
 Node,346,NODE 341,Air,1
 Node,347,NODE 12,Air,0
 Node,348,NODE 243,Air,1
 Node,349,NODE 18,Air,0
 Node,350,NODE 313,Air,1
 Node,351,NODE 13,Air,0
 Node,352,NODE 250,Air,1
 Node,353,NODE 19,Air,0
 Node,354,NODE 320,Air,1
 Node,355,NODE 6,Air,1
 Node,356,NODE 138,Air,1
 Node,357,NODE 10,Air,1
 Node,358,NODE 190,Air,1
 Node,359,NODE 8,Air,1
 Node,360,NODE 164,Air,1
 Node,361,NODE 9,Air,1
 Node,362,NODE 177,Air,1
 Node,363,NODE 7,Air,1
 Node,364,NODE 151,Air,1
 Node,365,NODE 64,Air,2
 Node,366,NODE 105,Air,2
 Node,367,NODE 92,Air,2
 Node,368,NODE 118,Air,2
 Node,369,NODE 79,Air,2
 Node,370,NODE 131,Air,2
 Node,371,NODE 183,Air,2
 Node,372,NODE 157,Air,2
 Node,373,NODE 170,Air,2
 Node,374,NODE 144,Air,2
 Node,375,NODE 223,Air,2
 Node,376,NODE 257,Air,2
 Node,377,NODE 285,Air,2
 Node,378,NODE 327,Air,2
 Node,379,ZONE HVAC FOUR PIPE FAN COIL 1 OA NODE,Air,1
 Node,380,NODE 66,Air,3
 Node,381,NODE 107,Air,3
 Node,382,NODE 94,Air,3
 Node,383,NODE 120,Air,3
 Node,384,NODE 81,Air,3
 Node,385,NODE 133,Air,3
 Node,386,NODE 185,Air,3
 Node,387,NODE 159,Air,3
 Node,388,NODE 172,Air,3
 Node,389,NODE 146,Air,3
 Node,390,NODE 228,Air,3
 Node,391,NODE 263,Air,3
 Node,392,NODE 291,Air,3
 Node,393,NODE 333,Air,3
 Node,394,MODEL OUTDOOR AIR NODE,Air,0
 Node,395,NODE 396,Air,2
 Node,396,NODE 398,Air,2
 Node,397,NODE 400,Air,2
 Node,398,NODE 402,Air,2
 Node,399,NODE 404,Air,2
 Node,400,NODE 406,Air,2
 Node,401,NODE 408,Air,2
 Node,402,NODE 410,Air,2
 Node,403,NODE 412,Air,2
 Node,404,NODE 414,Air,2
 Node,405,NODE 416,Air,2
 Node,406,NODE 418,Air,2
 Node,407,NODE 420,Air,2
 Node,408,NODE 422,Air,2
 Node,409,NODE 237,Air,1
 Node,410,NODE 244,Air,1
 Node,411,NODE 251,Air,1
 Node,412,NODE 272,Air,1
 Node,413,NODE 279,Air,1
 Node,414,NODE 300,Air,1
 Node,415,NODE 307,Air,1
 Node,416,NODE 314,Air,1
 Node,417,NODE 321,Air,1
 Node,418,NODE 342,Air,1
 Node,419,ZONE HVAC FOUR PIPE FAN COIL 1 MIXED AIR NODE,Air,1
 Node,420,ZONE HVAC FOUR PIPE FAN COIL 1 RELIEF AIR NODE,Air,0
 Node,421,NODE 397,Air,2
 Node,422,NODE 399,Air,2
 Node,423,NODE 401,Air,2
 Node,424,NODE 403,Air,2
 Node,425,NODE 405,Air,2
 Node,426,NODE 407,Air,2
 Node,427,NODE 409,Air,2
 Node,428,NODE 411,Air,2
 Node,429,NODE 413,Air,2
 Node,430,NODE 415,Air,2
 Node,431,NODE 417,Air,2
 Node,432,NODE 419,Air,2
 Node,433,NODE 421,Air,2
 Node,434,NODE 423,Air,2
 Node,435,ZONE HVAC FOUR PIPE FAN COIL 1 COOLING COIL OUTLET NODE,Air,1
 Node,436,AIR TERMINAL SINGLE DUCT VAV REHEAT 6 DAMPER OUTLET,Air,1
 Node,437,AIR TERMINAL SINGLE DUCT VAV REHEAT 7 DAMPER OUTLET,Air,1
 Node,438,AIR TERMINAL SINGLE DUCT VAV REHEAT 1 DAMPER OUTLET,Air,1
 Node,439,AIR TERMINAL SINGLE DUCT VAV REHEAT 4 DAMPER OUTLET,Air,1
 Node,440,AIR TERMINAL SINGLE DUCT VAV REHEAT 5 DAMPER OUTLET,Air,1
 Node,441,AIR TERMINAL SINGLE DUCT VAV REHEAT 10 DAMPER OUTLET,Air,1
 Node,442,AIR TERMINAL SINGLE DUCT VAV REHEAT 2 DAMPER OUTLET,Air,1
 Node,443,AIR TERMINAL SINGLE DUCT VAV REHEAT 8 DAMPER OUTLET,Air,1
 Node,444,AIR TERMINAL SINGLE DUCT VAV REHEAT 3 DAMPER OUTLET,Air,1
 Node,445,AIR TERMINAL SINGLE DUCT VAV REHEAT 9 DAMPER OUTLET,Air,1
 Node,446,ZONE HVAC FOUR PIPE FAN COIL 1 FAN OUTLET NODE,Air,1
 Node,447,NODE 67,Air,0
 Node,448,NODE 108,Air,0
 Node,449,NODE 95,Air,0
 Node,450,NODE 121,Air,0
 Node,451,NODE 82,Air,0
 Node,452,NODE 134,Air,0
 Node,453,NODE 186,Air,0
 Node,454,NODE 160,Air,0
 Node,455,NODE 173,Air,0
 Node,456,NODE 147,Air,0
 Node,457,NODE 229,Air,0
 Node,458,NODE 264,Air,0
 Node,459,NODE 292,Air,0
 Node,460,NODE 334,Air,0
! ===============================================================
! Suspicious nodes have 0 references.  It is normal for some nodes, however.
! Listing nodes with 0 references (culled from previous list):
! <Suspicious Node>,<NodeNumber>,<Node Name>,<Node Fluid Type>,<# Times Node Referenced After Definition>
 Suspicious Node,327,NODE 16,Air,0
 Suspicious Node,333,NODE 17,Air,0
 Suspicious Node,335,NODE 11,Air,0
 Suspicious Node,341,NODE 14,Air,0
 Suspicious Node,343,NODE 15,Air,0
 Suspicious Node,345,NODE 20,Air,0
 Suspicious Node,347,NODE 12,Air,0
 Suspicious Node,349,NODE 18,Air,0
 Suspicious Node,351,NODE 13,Air,0
 Suspicious Node,353,NODE 19,Air,0
 Suspicious Node,394,MODEL OUTDOOR AIR NODE,Air,0
 Suspicious Node,420,ZONE HVAC FOUR PIPE FAN COIL 1 RELIEF AIR NODE,Air,0
 Suspicious Node,447,NODE 67,Air,0
 Suspicious Node,448,NODE 108,Air,0
 Suspicious Node,449,NODE 95,Air,0
 Suspicious Node,450,NODE 121,Air,0
 Suspicious Node,451,NODE 82,Air,0
 Suspicious Node,452,NODE 134,Air,0
 Suspicious Node,453,NODE 186,Air,0
 Suspicious Node,454,NODE 160,Air,0
 Suspicious Node,455,NODE 173,Air,0
 Suspicious Node,456,NODE 147,Air,0
 Suspicious Node,457,NODE 229,Air,0
 Suspicious Node,458,NODE 264,Air,0
 Suspicious Node,459,NODE 292,Air,0
 Suspicious Node,460,NODE 334,Air,0
! ===============================================================
! <#Branch Lists>,<Number of Branch Lists>
 #Branch Lists,26
! <Branch List>,<Branch List Count>,<Branch List Name>,<Loop Name>,<Loop Type>,<Number of Branches>
! <Branch>,<Branch Count>,<Branch Name>,<Loop Name>,<Loop Type>,<Branch Inlet Node Name>,<Branch Outlet Node Name>
 Branch List,1,SYS_2_MAKE-UP AIR UNIT SUPPLY BRANCHES,SYS_2_MAKE-UP AIR UNIT,Air,1
   Branch,1,SYS_2_MAKE-UP AIR UNIT MAIN BRANCH,SYS_2_MAKE-UP AIR UNIT,Air,NODE 61,NODE 62
 Branch List,2,SYS_3_PSZ SP-RELIGIOUS BUILDING FELLOWSHIP HALL-SPACE FUNCTION SYS-3 FLR-4 SCH-C HPLCMT-SOUTH ZN SUPPLY BRANCHES,SYS_3_PSZ SP-RELIGIOUS BUILDING FELLOWSHIP HALL-SPACE FUNCTION SYS-3 FLR-4 SCH-C HPLCMT-SOUTH ZN,Air,1
   Branch,1,SYS_3_PSZ SP-RELIGIOUS BUILDING FELLOWSHIP HALL-SPACE FUNCTION SYS-3 FLR-4 SCH-C HPLCMT-SOUTH ZN MAIN BRANCH,SYS_3_PSZ SP-RELIGIOUS BUILDING FELLOWSHIP HALL-SPACE FUNCTION SYS-3 FLR-4 SCH-C HPLCMT-SOUTH ZN,Air,NODE 102,NODE 103
 Branch List,3,SYS_3_PSZ SP-RELIGIOUS BUILDING WORSHIP/PULPIT/CHOIR AREA-SPACE FUNCTION SYS-3 FLR-3 SCH-I HPLCMT-SOUTH ZN SUPPLY BRANCHES,SYS_3_PSZ SP-RELIGIOUS BUILDING WORSHIP/PULPIT/CHOIR AREA-SPACE FUNCTION SYS-3 FLR-3 SCH-I HPLCMT-SOUTH ZN,Air,1
   Branch,1,SYS_3_PSZ SP-RELIGIOUS BUILDING WORSHIP/PULPIT/CHOIR AREA-SPACE FUNCTION SYS-3 FLR-3 SCH-I HPLCMT-SOUTH ZN MAIN BRANCH,SYS_3_PSZ SP-RELIGIOUS BUILDING WORSHIP/PULPIT/CHOIR AREA-SPACE FUNCTION SYS-3 FLR-3 SCH-I HPLCMT-SOUTH ZN,Air,NODE 89,NODE 90
 Branch List,4,SYS_3_PSZ SP-SPACE DESIGNED TO ANSI/IES RP-28 CHAPEL (USED PRIMARILY BY RESIDENTS)-SPACE FUNCTION SYS-3 FLR-4 SCH-I HPLCMT-WEST ZN SUPPLY BRANCHES,SYS_3_PSZ SP-SPACE DESIGNED TO ANSI/IES RP-28 CHAPEL (USED PRIMARILY BY RESIDENTS)-SPACE FUNCTION SYS-3 FLR-4 SCH-I HPLCMT-WEST ZN,Air,1
   Branch,1,SYS_3_PSZ SP-SPACE DESIGNED TO ANSI/IES RP-28 CHAPEL (USED PRIMARILY BY RESIDENTS)-SPACE FUNCTION SYS-3 FLR-4 SCH-I HPLCMT-WEST ZN MAIN BRANCH,SYS_3_PSZ SP-SPACE DESIGNED TO ANSI/IES RP-28 CHAPEL (USED PRIMARILY BY RESIDENTS)-SPACE FUNCTION SYS-3 FLR-4 SCH-I HPLCMT-WEST ZN,Air,NODE 115,NODE 116
 Branch List,5,SYS_3_PSZ SP-SPACE DESIGNED TO ANSI/IES RP-28 RECREATION ROOM (USED PRIMARILY BY RESIDENTS)-SPACE FUNCTION SYS-3 FLR-2 SCH-B HPLCMT-NORTH ZN SUPPLY BRANCHES,SYS_3_PSZ SP-SPACE DESIGNED TO ANSI/IES RP-28 RECREATION ROOM (USED PRIMARILY BY RESIDENTS)-SPACE FUNCTION SYS-3 FLR-2 SCH-B HPLCMT-NORTH ZN,Air,1
   Branch,1,SYS_3_PSZ SP-SPACE DESIGNED TO ANSI/IES RP-28 RECREATION ROOM (USED PRIMARILY BY RESIDENTS)-SPACE FUNCTION SYS-3 FLR-2 SCH-B HPLCMT-NORTH ZN MAIN BRANCH,SYS_3_PSZ SP-SPACE DESIGNED TO ANSI/IES RP-28 RECREATION ROOM (USED PRIMARILY BY RESIDENTS)-SPACE FUNCTION SYS-3 FLR-2 SCH-B HPLCMT-NORTH ZN,Air,NODE 76,NODE 77
 Branch List,6,SYS_4_PSZ_SP-WAREHOUSE STORAGE AREA MEDIUM TO BULKY PALLETIZED ITEMS-SPACE FUNCTION SYS-4 FLR-1 SCH-A HPLCMT-CORE ZN SUPPLY BRANCHES,SYS_4_PSZ_SP-WAREHOUSE STORAGE AREA MEDIUM TO BULKY PALLETIZED ITEMS-SPACE FUNCTION SYS-4 FLR-1 SCH-A HPLCMT-CORE ZN,Air,1
   Branch,1,SYS_4_PSZ_SP-WAREHOUSE STORAGE AREA MEDIUM TO BULKY PALLETIZED ITEMS-SPACE FUNCTION SYS-4 FLR-1 SCH-A HPLCMT-CORE ZN MAIN BRANCH,SYS_4_PSZ_SP-WAREHOUSE STORAGE AREA MEDIUM TO BULKY PALLETIZED ITEMS-SPACE FUNCTION SYS-4 FLR-1 SCH-A HPLCMT-CORE ZN,Air,NODE 128,NODE 129
 Branch List,7,SYS_4_PSZ_SP-WAREHOUSE STORAGE AREA SMALL HAND-CARRIED ITEMS(4)-SPACE FUNCTION SYS-4 FLR-4 SCH-A HPLCMT-NORTH ZN SUPPLY BRANCHES,SYS_4_PSZ_SP-WAREHOUSE STORAGE AREA SMALL HAND-CARRIED ITEMS(4)-SPACE FUNCTION SYS-4 FLR-4 SCH-A HPLCMT-NORTH ZN,Air,1
   Branch,1,SYS_4_PSZ_SP-WAREHOUSE STORAGE AREA SMALL HAND-CARRIED ITEMS(4)-SPACE FUNCTION SYS-4 FLR-4 SCH-A HPLCMT-NORTH ZN MAIN BRANCH,SYS_4_PSZ_SP-WAREHOUSE STORAGE AREA SMALL HAND-CARRIED ITEMS(4)-SPACE FUNCTION SYS-4 FLR-4 SCH-A HPLCMT-NORTH ZN,Air,NODE 180,NODE 181
 Branch List,8,SYS_4_PSZ_SP-WHOLEBUILDING-AUTOMOTIVE FACILITY 1 SYS-4 FLR-2 SCH-E HPLCMT-WEST ZN SUPPLY BRANCHES,SYS_4_PSZ_SP-WHOLEBUILDING-AUTOMOTIVE FACILITY 1 SYS-4 FLR-2 SCH-E HPLCMT-WEST ZN,Air,1
   Branch,1,SYS_4_PSZ_SP-WHOLEBUILDING-AUTOMOTIVE FACILITY 1 SYS-4 FLR-2 SCH-E HPLCMT-WEST ZN MAIN BRANCH,SYS_4_PSZ_SP-WHOLEBUILDING-AUTOMOTIVE FACILITY 1 SYS-4 FLR-2 SCH-E HPLCMT-WEST ZN,Air,NODE 154,NODE 155
 Branch List,9,SYS_4_PSZ_SP-WHOLEBUILDING-AUTOMOTIVE FACILITY 2 SYS-4 FLR-2 SCH-E HPLCMT-SOUTH ZN SUPPLY BRANCHES,SYS_4_PSZ_SP-WHOLEBUILDING-AUTOMOTIVE FACILITY 2 SYS-4 FLR-2 SCH-E HPLCMT-SOUTH ZN,Air,1
   Branch,1,SYS_4_PSZ_SP-WHOLEBUILDING-AUTOMOTIVE FACILITY 2 SYS-4 FLR-2 SCH-E HPLCMT-SOUTH ZN MAIN BRANCH,SYS_4_PSZ_SP-WHOLEBUILDING-AUTOMOTIVE FACILITY 2 SYS-4 FLR-2 SCH-E HPLCMT-SOUTH ZN,Air,NODE 167,NODE 168
 Branch List,10,SYS_4_PSZ_SP-WHOLEBUILDING-AUTOMOTIVE FACILITY SYS-4 FLR-1 SCH-E HPLCMT-SOUTH ZN SUPPLY BRANCHES,SYS_4_PSZ_SP-WHOLEBUILDING-AUTOMOTIVE FACILITY SYS-4 FLR-1 SCH-E HPLCMT-SOUTH ZN,Air,1
   Branch,1,SYS_4_PSZ_SP-WHOLEBUILDING-AUTOMOTIVE FACILITY SYS-4 FLR-1 SCH-E HPLCMT-SOUTH ZN MAIN BRANCH,SYS_4_PSZ_SP-WHOLEBUILDING-AUTOMOTIVE FACILITY SYS-4 FLR-1 SCH-E HPLCMT-SOUTH ZN,Air,NODE 141,NODE 142
 Branch List,11,SYS_6_VAV WITH REHEAT SUPPLY BRANCHES,SYS_6_VAV WITH REHEAT,Air,1
   Branch,1,SYS_6_VAV WITH REHEAT MAIN BRANCH,SYS_6_VAV WITH REHEAT,Air,NODE 220,NODE 221
 Branch List,12,SYS_6_VAV WITH REHEAT 1 SUPPLY BRANCHES,SYS_6_VAV WITH REHEAT 1,Air,1
   Branch,1,SYS_6_VAV WITH REHEAT 1 MAIN BRANCH,SYS_6_VAV WITH REHEAT 1,Air,NODE 254,NODE 255
 Branch List,13,SYS_6_VAV WITH REHEAT 2 SUPPLY BRANCHES,SYS_6_VAV WITH REHEAT 2,Air,1
   Branch,1,SYS_6_VAV WITH REHEAT 2 MAIN BRANCH,SYS_6_VAV WITH REHEAT 2,Air,NODE 282,NODE 283
 Branch List,14,SYS_6_VAV WITH REHEAT 3 SUPPLY BRANCHES,SYS_6_VAV WITH REHEAT 3,Air,1
   Branch,1,SYS_6_VAV WITH REHEAT 3 MAIN BRANCH,SYS_6_VAV WITH REHEAT 3,Air,NODE 324,NODE 325
 Branch List,15,CHILLED WATER LOOP SUPPLY BRANCHES,CHILLED WATER LOOP,Plant Supply,5
   Branch,1,CHILLED WATER LOOP SUPPLY INLET BRANCH,CHILLED WATER LOOP,Plant Supply,NODE 34,NODE 40
   Branch,2,CHILLED WATER LOOP SUPPLY BRANCH 1,CHILLED WATER LOOP,Plant Supply,NODE 36,NODE 41
   Branch,3,CHILLED WATER LOOP SUPPLY BRANCH 2,CHILLED WATER LOOP,Plant Supply,NODE 42,NODE 43
   Branch,4,CHILLED WATER LOOP SUPPLY BRANCH 3,CHILLED WATER LOOP,Plant Supply,NODE 44,NODE 45
   Branch,5,CHILLED WATER LOOP SUPPLY OUTLET BRANCH,CHILLED WATER LOOP,Plant Supply,NODE 46,NODE 35
 Branch List,16,CHILLED WATER LOOP DEMAND BRANCHES,CHILLED WATER LOOP,Plant Demand,4
   Branch,1,CHILLED WATER LOOP DEMAND INLET BRANCH,CHILLED WATER LOOP,Plant Demand,NODE 37,CHILLED WATER LOOP DEMAND INLET PIPE NODE
   Branch,2,CHILLED WATER LOOP DEMAND BRANCH 1,CHILLED WATER LOOP,Plant Demand,NODE 39,NODE 72
   Branch,3,CHILLED WATER LOOP DEMAND BYPASS BRANCH,CHILLED WATER LOOP,Plant Demand,CHILLED WATER LOOP DEMAND BYPASS PIPE INLET NODE,CHILLED WATER LOOP DEMAND BYPASS PIPE OUTLET NODE
   Branch,4,CHILLED WATER LOOP DEMAND OUTLET BRANCH,CHILLED WATER LOOP,Plant Demand,CHILLED WATER LOOP DEMAND OUTLET PIPE NODE,NODE 38
 Branch List,17,CHILLED WATER LOOP 1 SUPPLY BRANCHES,CHILLED WATER LOOP 1,Plant Supply,5
   Branch,1,CHILLED WATER LOOP 1 SUPPLY INLET BRANCH,CHILLED WATER LOOP 1,Plant Supply,NODE 193,NODE 199
   Branch,2,CHILLED WATER LOOP 1 SUPPLY BRANCH 1,CHILLED WATER LOOP 1,Plant Supply,NODE 195,NODE 200
   Branch,3,CHILLED WATER LOOP 1 SUPPLY BRANCH 2,CHILLED WATER LOOP 1,Plant Supply,NODE 201,NODE 202
   Branch,4,CHILLED WATER LOOP 1 SUPPLY BRANCH 3,CHILLED WATER LOOP 1,Plant Supply,NODE 203,NODE 204
   Branch,5,CHILLED WATER LOOP 1 SUPPLY OUTLET BRANCH,CHILLED WATER LOOP 1,Plant Supply,NODE 205,NODE 194
 Branch List,18,CHILLED WATER LOOP 1 DEMAND BRANCHES,CHILLED WATER LOOP 1,Plant Demand,7
   Branch,1,CHILLED WATER LOOP 1 DEMAND INLET BRANCH,CHILLED WATER LOOP 1,Plant Demand,NODE 196,CHILLED WATER LOOP 1 DEMAND INLET PIPE NODE
   Branch,2,CHILLED WATER LOOP 1 DEMAND BRANCH 1,CHILLED WATER LOOP 1,Plant Demand,NODE 198,NODE 227
   Branch,3,CHILLED WATER LOOP 1 DEMAND BRANCH 2,CHILLED WATER LOOP 1,Plant Demand,NODE 261,NODE 262
   Branch,4,CHILLED WATER LOOP 1 DEMAND BRANCH 3,CHILLED WATER LOOP 1,Plant Demand,NODE 289,NODE 290
   Branch,5,CHILLED WATER LOOP 1 DEMAND BRANCH 4,CHILLED WATER LOOP 1,Plant Demand,NODE 331,NODE 332
   Branch,6,CHILLED WATER LOOP 1 DEMAND BYPASS BRANCH,CHILLED WATER LOOP 1,Plant Demand,CHILLED WATER LOOP 1 DEMAND BYPASS PIPE INLET NODE,CHILLED WATER LOOP 1 DEMAND BYPASS PIPE OUTLET NODE
   Branch,7,CHILLED WATER LOOP 1 DEMAND OUTLET BRANCH,CHILLED WATER LOOP 1,Plant Demand,CHILLED WATER LOOP 1 DEMAND OUTLET PIPE NODE,NODE 197
 Branch List,19,CONDENSER WATER LOOP SUPPLY BRANCHES,CONDENSER WATER LOOP,Plant Supply,4
   Branch,1,CONDENSER WATER LOOP SUPPLY INLET BRANCH,CONDENSER WATER LOOP,Plant Supply,NODE 47,NODE 53
   Branch,2,CONDENSER WATER LOOP SUPPLY BRANCH 1,CONDENSER WATER LOOP,Plant Supply,NODE 49,NODE 54
   Branch,3,CONDENSER WATER LOOP SUPPLY BRANCH 2,CONDENSER WATER LOOP,Plant Supply,NODE 55,NODE 56
   Branch,4,CONDENSER WATER LOOP SUPPLY OUTLET BRANCH,CONDENSER WATER LOOP,Plant Supply,NODE 57,NODE 48
 Branch List,20,CONDENSER WATER LOOP DEMAND BRANCHES,CONDENSER WATER LOOP,Plant Demand,5
   Branch,1,CONDENSER WATER LOOP DEMAND INLET BRANCH,CONDENSER WATER LOOP,Plant Demand,NODE 50,CONDENSER WATER LOOP DEMAND INLET PIPE NODE
   Branch,2,CONDENSER WATER LOOP DEMAND BRANCH 1,CONDENSER WATER LOOP,Plant Demand,NODE 52,NODE 58
   Branch,3,CONDENSER WATER LOOP DEMAND BRANCH 2,CONDENSER WATER LOOP,Plant Demand,NODE 59,NODE 60
   Branch,4,CONDENSER WATER LOOP DEMAND BYPASS BRANCH,CONDENSER WATER LOOP,Plant Demand,CONDENSER WATER LOOP DEMAND BYPASS PIPE INLET NODE,CONDENSER WATER LOOP DEMAND BYPASS PIPE OUTLET NODE
   Branch,5,CONDENSER WATER LOOP DEMAND OUTLET BRANCH,CONDENSER WATER LOOP,Plant Demand,CONDENSER WATER LOOP DEMAND OUTLET PIPE NODE,NODE 51
 Branch List,21,CONDENSER WATER LOOP 1 SUPPLY BRANCHES,CONDENSER WATER LOOP 1,Plant Supply,4
   Branch,1,CONDENSER WATER LOOP 1 SUPPLY INLET BRANCH,CONDENSER WATER LOOP 1,Plant Supply,NODE 206,NODE 212
   Branch,2,CONDENSER WATER LOOP 1 SUPPLY BRANCH 1,CONDENSER WATER LOOP 1,Plant Supply,NODE 208,NODE 213
   Branch,3,CONDENSER WATER LOOP 1 SUPPLY BRANCH 2,CONDENSER WATER LOOP 1,Plant Supply,NODE 214,NODE 215
   Branch,4,CONDENSER WATER LOOP 1 SUPPLY OUTLET BRANCH,CONDENSER WATER LOOP 1,Plant Supply,NODE 216,NODE 207
 Branch List,22,CONDENSER WATER LOOP 1 DEMAND BRANCHES,CONDENSER WATER LOOP 1,Plant Demand,5
   Branch,1,CONDENSER WATER LOOP 1 DEMAND INLET BRANCH,CONDENSER WATER LOOP 1,Plant Demand,NODE 209,CONDENSER WATER LOOP 1 DEMAND INLET PIPE NODE
   Branch,2,CONDENSER WATER LOOP 1 DEMAND BRANCH 1,CONDENSER WATER LOOP 1,Plant Demand,NODE 211,NODE 217
   Branch,3,CONDENSER WATER LOOP 1 DEMAND BRANCH 2,CONDENSER WATER LOOP 1,Plant Demand,NODE 218,NODE 219
   Branch,4,CONDENSER WATER LOOP 1 DEMAND BYPASS BRANCH,CONDENSER WATER LOOP 1,Plant Demand,CONDENSER WATER LOOP 1 DEMAND BYPASS PIPE INLET NODE,CONDENSER WATER LOOP 1 DEMAND BYPASS PIPE OUTLET NODE
   Branch,5,CONDENSER WATER LOOP 1 DEMAND OUTLET BRANCH,CONDENSER WATER LOOP 1,Plant Demand,CONDENSER WATER LOOP 1 DEMAND OUTLET PIPE NODE,NODE 210
 Branch List,23,HOT WATER LOOP SUPPLY BRANCHES,HOT WATER LOOP,Plant Supply,5
   Branch,1,HOT WATER LOOP SUPPLY INLET BRANCH,HOT WATER LOOP,Plant Supply,NODE 21,NODE 27
   Branch,2,HOT WATER LOOP SUPPLY BRANCH 1,HOT WATER LOOP,Plant Supply,NODE 23,NODE 28
   Branch,3,HOT WATER LOOP SUPPLY BRANCH 2,HOT WATER LOOP,Plant Supply,NODE 29,NODE 30
   Branch,4,HOT WATER LOOP SUPPLY BRANCH 3,HOT WATER LOOP,Plant Supply,NODE 31,NODE 32
   Branch,5,HOT WATER LOOP SUPPLY OUTLET BRANCH,HOT WATER LOOP,Plant Supply,NODE 33,NODE 22
 Branch List,24,HOT WATER LOOP DEMAND BRANCHES,HOT WATER LOOP,Plant Demand,37
   Branch,1,HOT WATER LOOP DEMAND INLET BRANCH,HOT WATER LOOP,Plant Demand,NODE 24,HOT WATER LOOP DEMAND INLET PIPE NODE
   Branch,2,HOT WATER LOOP DEMAND BRANCH 1,HOT WATER LOOP,Plant Demand,NODE 26,NODE 71
   Branch,3,HOT WATER LOOP DEMAND BRANCH 2,HOT WATER LOOP,Plant Demand,NODE 87,NODE 88
   Branch,4,HOT WATER LOOP DEMAND BRANCH 3,HOT WATER LOOP,Plant Demand,NODE 100,NODE 101
   Branch,5,HOT WATER LOOP DEMAND BRANCH 4,HOT WATER LOOP,Plant Demand,NODE 113,NODE 114
   Branch,6,HOT WATER LOOP DEMAND BRANCH 5,HOT WATER LOOP,Plant Demand,NODE 126,NODE 127
   Branch,7,HOT WATER LOOP DEMAND BRANCH 6,HOT WATER LOOP,Plant Demand,NODE 139,NODE 140
   Branch,8,HOT WATER LOOP DEMAND BRANCH 7,HOT WATER LOOP,Plant Demand,NODE 152,NODE 153
   Branch,9,HOT WATER LOOP DEMAND BRANCH 8,HOT WATER LOOP,Plant Demand,NODE 165,NODE 166
   Branch,10,HOT WATER LOOP DEMAND BRANCH 9,HOT WATER LOOP,Plant Demand,NODE 178,NODE 179
   Branch,11,HOT WATER LOOP DEMAND BRANCH 10,HOT WATER LOOP,Plant Demand,NODE 191,NODE 192
   Branch,12,HOT WATER LOOP DEMAND BRANCH 11,HOT WATER LOOP,Plant Demand,NODE 225,NODE 226
   Branch,13,HOT WATER LOOP DEMAND BRANCH 12,HOT WATER LOOP,Plant Demand,NODE 234,NODE 235
   Branch,14,HOT WATER LOOP DEMAND BRANCH 13,HOT WATER LOOP,Plant Demand,NODE 238,NODE 239
   Branch,15,HOT WATER LOOP DEMAND BRANCH 14,HOT WATER LOOP,Plant Demand,NODE 240,NODE 241
   Branch,16,HOT WATER LOOP DEMAND BRANCH 15,HOT WATER LOOP,Plant Demand,NODE 245,NODE 246
   Branch,17,HOT WATER LOOP DEMAND BRANCH 16,HOT WATER LOOP,Plant Demand,NODE 247,NODE 248
   Branch,18,HOT WATER LOOP DEMAND BRANCH 17,HOT WATER LOOP,Plant Demand,NODE 252,NODE 253
   Branch,19,HOT WATER LOOP DEMAND BRANCH 18,HOT WATER LOOP,Plant Demand,NODE 259,NODE 260
   Branch,20,HOT WATER LOOP DEMAND BRANCH 19,HOT WATER LOOP,Plant Demand,NODE 269,NODE 270
   Branch,21,HOT WATER LOOP DEMAND BRANCH 20,HOT WATER LOOP,Plant Demand,NODE 273,NODE 274
   Branch,22,HOT WATER LOOP DEMAND BRANCH 21,HOT WATER LOOP,Plant Demand,NODE 275,NODE 276
   Branch,23,HOT WATER LOOP DEMAND BRANCH 22,HOT WATER LOOP,Plant Demand,NODE 280,NODE 281
   Branch,24,HOT WATER LOOP DEMAND BRANCH 23,HOT WATER LOOP,Plant Demand,NODE 287,NODE 288
   Branch,25,HOT WATER LOOP DEMAND BRANCH 24,HOT WATER LOOP,Plant Demand,NODE 297,NODE 298
   Branch,26,HOT WATER LOOP DEMAND BRANCH 25,HOT WATER LOOP,Plant Demand,NODE 301,NODE 302
   Branch,27,HOT WATER LOOP DEMAND BRANCH 26,HOT WATER LOOP,Plant Demand,NODE 303,NODE 304
   Branch,28,HOT WATER LOOP DEMAND BRANCH 27,HOT WATER LOOP,Plant Demand,NODE 308,NODE 309
   Branch,29,HOT WATER LOOP DEMAND BRANCH 28,HOT WATER LOOP,Plant Demand,NODE 310,NODE 311
   Branch,30,HOT WATER LOOP DEMAND BRANCH 29,HOT WATER LOOP,Plant Demand,NODE 315,NODE 316
   Branch,31,HOT WATER LOOP DEMAND BRANCH 30,HOT WATER LOOP,Plant Demand,NODE 317,NODE 318
   Branch,32,HOT WATER LOOP DEMAND BRANCH 31,HOT WATER LOOP,Plant Demand,NODE 322,NODE 323
   Branch,33,HOT WATER LOOP DEMAND BRANCH 32,HOT WATER LOOP,Plant Demand,NODE 329,NODE 330
   Branch,34,HOT WATER LOOP DEMAND BRANCH 33,HOT WATER LOOP,Plant Demand,NODE 339,NODE 340
   Branch,35,HOT WATER LOOP DEMAND BRANCH 34,HOT WATER LOOP,Plant Demand,NODE 343,NODE 344
   Branch,36,HOT WATER LOOP DEMAND BYPASS BRANCH,HOT WATER LOOP,Plant Demand,HOT WATER LOOP DEMAND BYPASS PIPE INLET NODE,HOT WATER LOOP DEMAND BYPASS PIPE OUTLET NODE
   Branch,37,HOT WATER LOOP DEMAND OUTLET BRANCH,HOT WATER LOOP,Plant Demand,HOT WATER LOOP DEMAND OUTLET PIPE NODE,NODE 25
 Branch List,25,MAIN SERVICE WATER LOOP SUPPLY BRANCHES,MAIN SERVICE WATER LOOP,Plant Supply,4
   Branch,1,MAIN SERVICE WATER LOOP SUPPLY INLET BRANCH,MAIN SERVICE WATER LOOP,Plant Supply,NODE 345,NODE 351
   Branch,2,MAIN SERVICE WATER LOOP SUPPLY BRANCH 1,MAIN SERVICE WATER LOOP,Plant Supply,NODE 347,NODE 352
   Branch,3,MAIN SERVICE WATER LOOP SUPPLY BRANCH 2,MAIN SERVICE WATER LOOP,Plant Supply,NODE 353,NODE 354
   Branch,4,MAIN SERVICE WATER LOOP SUPPLY OUTLET BRANCH,MAIN SERVICE WATER LOOP,Plant Supply,NODE 356,NODE 346
 Branch List,26,MAIN SERVICE WATER LOOP DEMAND BRANCHES,MAIN SERVICE WATER LOOP,Plant Demand,22
   Branch,1,MAIN SERVICE WATER LOOP DEMAND INLET BRANCH,MAIN SERVICE WATER LOOP,Plant Demand,NODE 348,NODE 357
   Branch,2,MAIN SERVICE WATER LOOP DEMAND BRANCH 1,MAIN SERVICE WATER LOOP,Plant Demand,NODE 350,NODE 355
   Branch,3,MAIN SERVICE WATER LOOP DEMAND BRANCH 2,MAIN SERVICE WATER LOOP,Plant Demand,NODE 359,NODE 360
   Branch,4,MAIN SERVICE WATER LOOP DEMAND BRANCH 3,MAIN SERVICE WATER LOOP,Plant Demand,NODE 361,NODE 362
   Branch,5,MAIN SERVICE WATER LOOP DEMAND BRANCH 4,MAIN SERVICE WATER LOOP,Plant Demand,NODE 363,NODE 364
   Branch,6,MAIN SERVICE WATER LOOP DEMAND BRANCH 5,MAIN SERVICE WATER LOOP,Plant Demand,NODE 365,NODE 366
   Branch,7,MAIN SERVICE WATER LOOP DEMAND BRANCH 6,MAIN SERVICE WATER LOOP,Plant Demand,NODE 367,NODE 368
   Branch,8,MAIN SERVICE WATER LOOP DEMAND BRANCH 7,MAIN SERVICE WATER LOOP,Plant Demand,NODE 369,NODE 370
   Branch,9,MAIN SERVICE WATER LOOP DEMAND BRANCH 8,MAIN SERVICE WATER LOOP,Plant Demand,NODE 371,NODE 372
   Branch,10,MAIN SERVICE WATER LOOP DEMAND BRANCH 9,MAIN SERVICE WATER LOOP,Plant Demand,NODE 373,NODE 374
   Branch,11,MAIN SERVICE WATER LOOP DEMAND BRANCH 10,MAIN SERVICE WATER LOOP,Plant Demand,NODE 375,NODE 376
   Branch,12,MAIN SERVICE WATER LOOP DEMAND BRANCH 11,MAIN SERVICE WATER LOOP,Plant Demand,NODE 377,NODE 378
   Branch,13,MAIN SERVICE WATER LOOP DEMAND BRANCH 12,MAIN SERVICE WATER LOOP,Plant Demand,NODE 379,NODE 380
   Branch,14,MAIN SERVICE WATER LOOP DEMAND BRANCH 13,MAIN SERVICE WATER LOOP,Plant Demand,NODE 381,NODE 382
   Branch,15,MAIN SERVICE WATER LOOP DEMAND BRANCH 14,MAIN SERVICE WATER LOOP,Plant Demand,NODE 383,NODE 384
   Branch,16,MAIN SERVICE WATER LOOP DEMAND BRANCH 15,MAIN SERVICE WATER LOOP,Plant Demand,NODE 385,NODE 386
   Branch,17,MAIN SERVICE WATER LOOP DEMAND BRANCH 16,MAIN SERVICE WATER LOOP,Plant Demand,NODE 387,NODE 388
   Branch,18,MAIN SERVICE WATER LOOP DEMAND BRANCH 17,MAIN SERVICE WATER LOOP,Plant Demand,NODE 389,NODE 390
   Branch,19,MAIN SERVICE WATER LOOP DEMAND BRANCH 18,MAIN SERVICE WATER LOOP,Plant Demand,NODE 391,NODE 392
   Branch,20,MAIN SERVICE WATER LOOP DEMAND BRANCH 19,MAIN SERVICE WATER LOOP,Plant Demand,NODE 393,NODE 394
   Branch,21,MAIN SERVICE WATER LOOP DEMAND BYPASS BRANCH,MAIN SERVICE WATER LOOP,Plant Demand,MAIN SERVICE WATER LOOP DEMAND BYPASS PIPE INLET NODE,MAIN SERVICE WATER LOOP DEMAND BYPASS PIPE OUTLET NODE
   Branch,22,MAIN SERVICE WATER LOOP DEMAND OUTLET BRANCH,MAIN SERVICE WATER LOOP,Plant Demand,NODE 358,NODE 349
! ===============================================================
! <#Supply Air Paths>,<Number of Supply Air Paths>
 #Supply Air Paths,14
! <Supply Air Path>,<Supply Air Path Count>,<Supply Air Path Name>,<AirLoopHVAC Name>
! <#Components on Supply Air Path>,<Number of Components>
! <Supply Air Path Component>,<Component Count>,<Component Type>,<Component Name>,<AirLoopHVAC Name>
! <#Outlet Nodes on Supply Air Path Component>,<Number of Nodes>
! <Supply Air Path Component Nodes>,<Node Count>,<Component Type>,<Component Name>,<Inlet Node Name>,<Outlet Node Name>,<AirLoopHVAC Name>
 Supply Air Path,1,SYS_2_MAKE-UP AIR UNIT NODE 63 SUPPLY PATH,SYS_2_MAKE-UP AIR UNIT
   #Components on Supply Air Path,1
   Supply Air Path Component,1,AIRLOOPHVAC:ZONESPLITTER,AIR LOOP HVAC ZONE SPLITTER 1,SYS_2_MAKE-UP AIR UNIT
     #Outlet Nodes on Supply Air Path Component,1
     Supply Air Path Component Nodes,1,AIRLOOPHVAC:ZONESPLITTER,AIR LOOP HVAC ZONE SPLITTER 1,NODE 63,NODE 65,SYS_2_MAKE-UP AIR UNIT
! <#Nodes on Supply Air Path>,<Number of Nodes>
! <Supply Air Path Node>,<Node Type>,<Node Count>,<Node Name>,<AirLoopHVAC Name>
#Nodes on Supply Air Path,2
   Supply Air Path Node,Inlet Node,1,NODE 63,SYS_2_MAKE-UP AIR UNIT
   Supply Air Path Node,Outlet Node,2,NODE 65,SYS_2_MAKE-UP AIR UNIT
 Supply Air Path,2,SYS_3_PSZ SP-RELIGIOUS BUILDING FELLOWSHIP HALL-SPACE FUNCTION SYS-3 FLR-4 SCH-C HPLCMT-SOUTH ZN NODE 104 SUPPLY PATH,SYS_3_PSZ SP-RELIGIOUS BUILDING FELLOWSHIP HALL-SPACE FUNCTION SYS-3 FLR-4 SCH-C HPLCMT-SOUTH ZN
   #Components on Supply Air Path,1
   Supply Air Path Component,1,AIRLOOPHVAC:ZONESPLITTER,AIR LOOP HVAC ZONE SPLITTER 4,SYS_3_PSZ SP-RELIGIOUS BUILDING FELLOWSHIP HALL-SPACE FUNCTION SYS-3 FLR-4 SCH-C HPLCMT-SOUTH ZN
     #Outlet Nodes on Supply Air Path Component,1
     Supply Air Path Component Nodes,1,AIRLOOPHVAC:ZONESPLITTER,AIR LOOP HVAC ZONE SPLITTER 4,NODE 104,NODE 106,SYS_3_PSZ SP-RELIGIOUS BUILDING FELLOWSHIP HALL-SPACE FUNCTION SYS-3 FLR-4 SCH-C HPLCMT-SOUTH ZN
! <#Nodes on Supply Air Path>,<Number of Nodes>
! <Supply Air Path Node>,<Node Type>,<Node Count>,<Node Name>,<AirLoopHVAC Name>
#Nodes on Supply Air Path,2
   Supply Air Path Node,Inlet Node,1,NODE 104,SYS_3_PSZ SP-RELIGIOUS BUILDING FELLOWSHIP HALL-SPACE FUNCTION SYS-3 FLR-4 SCH-C HPLCMT-SOUTH ZN
   Supply Air Path Node,Outlet Node,2,NODE 106,SYS_3_PSZ SP-RELIGIOUS BUILDING FELLOWSHIP HALL-SPACE FUNCTION SYS-3 FLR-4 SCH-C HPLCMT-SOUTH ZN
 Supply Air Path,3,SYS_3_PSZ SP-RELIGIOUS BUILDING WORSHIP/PULPIT/CHOIR AREA-SPACE FUNCTION SYS-3 FLR-3 SCH-I HPLCMT-SOUTH ZN NODE 91 SUPPLY PATH,SYS_3_PSZ SP-RELIGIOUS BUILDING WORSHIP/PULPIT/CHOIR AREA-SPACE FUNCTION SYS-3 FLR-3 SCH-I HPLCMT-SOUTH ZN
   #Components on Supply Air Path,1
   Supply Air Path Component,1,AIRLOOPHVAC:ZONESPLITTER,AIR LOOP HVAC ZONE SPLITTER 3,SYS_3_PSZ SP-RELIGIOUS BUILDING WORSHIP/PULPIT/CHOIR AREA-SPACE FUNCTION SYS-3 FLR-3 SCH-I HPLCMT-SOUTH ZN
     #Outlet Nodes on Supply Air Path Component,1
     Supply Air Path Component Nodes,1,AIRLOOPHVAC:ZONESPLITTER,AIR LOOP HVAC ZONE SPLITTER 3,NODE 91,NODE 93,SYS_3_PSZ SP-RELIGIOUS BUILDING WORSHIP/PULPIT/CHOIR AREA-SPACE FUNCTION SYS-3 FLR-3 SCH-I HPLCMT-SOUTH ZN
! <#Nodes on Supply Air Path>,<Number of Nodes>
! <Supply Air Path Node>,<Node Type>,<Node Count>,<Node Name>,<AirLoopHVAC Name>
#Nodes on Supply Air Path,2
   Supply Air Path Node,Inlet Node,1,NODE 91,SYS_3_PSZ SP-RELIGIOUS BUILDING WORSHIP/PULPIT/CHOIR AREA-SPACE FUNCTION SYS-3 FLR-3 SCH-I HPLCMT-SOUTH ZN
   Supply Air Path Node,Outlet Node,2,NODE 93,SYS_3_PSZ SP-RELIGIOUS BUILDING WORSHIP/PULPIT/CHOIR AREA-SPACE FUNCTION SYS-3 FLR-3 SCH-I HPLCMT-SOUTH ZN
 Supply Air Path,4,SYS_3_PSZ SP-SPACE DESIGNED TO ANSI/IES RP-28 CHAPEL (USED PRIMARILY BY RESIDENTS)-SPACE FUNCTION SYS-3 FLR-4 SCH-I HPLCMT-WEST ZN NODE 117 SUPPLY PATH,SYS_3_PSZ SP-SPACE DESIGNED TO ANSI/IES RP-28 CHAPEL (USED PRIMARILY BY RESIDENTS)-SPACE FUNCTION SYS-3 FLR-4 SCH-I HPLCMT-WEST ZN
   #Components on Supply Air Path,1
   Supply Air Path Component,1,AIRLOOPHVAC:ZONESPLITTER,AIR LOOP HVAC ZONE SPLITTER 5,SYS_3_PSZ SP-SPACE DESIGNED TO ANSI/IES RP-28 CHAPEL (USED PRIMARILY BY RESIDENTS)-SPACE FUNCTION SYS-3 FLR-4 SCH-I HPLCMT-WEST ZN
     #Outlet Nodes on Supply Air Path Component,1
     Supply Air Path Component Nodes,1,AIRLOOPHVAC:ZONESPLITTER,AIR LOOP HVAC ZONE SPLITTER 5,NODE 117,NODE 119,SYS_3_PSZ SP-SPACE DESIGNED TO ANSI/IES RP-28 CHAPEL (USED PRIMARILY BY RESIDENTS)-SPACE FUNCTION SYS-3 FLR-4 SCH-I HPLCMT-WEST ZN
! <#Nodes on Supply Air Path>,<Number of Nodes>
! <Supply Air Path Node>,<Node Type>,<Node Count>,<Node Name>,<AirLoopHVAC Name>
#Nodes on Supply Air Path,2
   Supply Air Path Node,Inlet Node,1,NODE 117,SYS_3_PSZ SP-SPACE DESIGNED TO ANSI/IES RP-28 CHAPEL (USED PRIMARILY BY RESIDENTS)-SPACE FUNCTION SYS-3 FLR-4 SCH-I HPLCMT-WEST ZN
   Supply Air Path Node,Outlet Node,2,NODE 119,SYS_3_PSZ SP-SPACE DESIGNED TO ANSI/IES RP-28 CHAPEL (USED PRIMARILY BY RESIDENTS)-SPACE FUNCTION SYS-3 FLR-4 SCH-I HPLCMT-WEST ZN
 Supply Air Path,5,SYS_3_PSZ SP-SPACE DESIGNED TO ANSI/IES RP-28 RECREATION ROOM (USED PRIMARILY BY RESIDENTS)-SPACE FUNCTION SYS-3 FLR-2 SCH-B HPLCMT-NORTH ZN NODE 78 SUPPLY PATH,SYS_3_PSZ SP-SPACE DESIGNED TO ANSI/IES RP-28 RECREATION ROOM (USED PRIMARILY BY RESIDENTS)-SPACE FUNCTION SYS-3 FLR-2 SCH-B HPLCMT-NORTH ZN
   #Components on Supply Air Path,1
   Supply Air Path Component,1,AIRLOOPHVAC:ZONESPLITTER,AIR LOOP HVAC ZONE SPLITTER 2,SYS_3_PSZ SP-SPACE DESIGNED TO ANSI/IES RP-28 RECREATION ROOM (USED PRIMARILY BY RESIDENTS)-SPACE FUNCTION SYS-3 FLR-2 SCH-B HPLCMT-NORTH ZN
     #Outlet Nodes on Supply Air Path Component,1
     Supply Air Path Component Nodes,1,AIRLOOPHVAC:ZONESPLITTER,AIR LOOP HVAC ZONE SPLITTER 2,NODE 78,NODE 80,SYS_3_PSZ SP-SPACE DESIGNED TO ANSI/IES RP-28 RECREATION ROOM (USED PRIMARILY BY RESIDENTS)-SPACE FUNCTION SYS-3 FLR-2 SCH-B HPLCMT-NORTH ZN
! <#Nodes on Supply Air Path>,<Number of Nodes>
! <Supply Air Path Node>,<Node Type>,<Node Count>,<Node Name>,<AirLoopHVAC Name>
#Nodes on Supply Air Path,2
   Supply Air Path Node,Inlet Node,1,NODE 78,SYS_3_PSZ SP-SPACE DESIGNED TO ANSI/IES RP-28 RECREATION ROOM (USED PRIMARILY BY RESIDENTS)-SPACE FUNCTION SYS-3 FLR-2 SCH-B HPLCMT-NORTH ZN
   Supply Air Path Node,Outlet Node,2,NODE 80,SYS_3_PSZ SP-SPACE DESIGNED TO ANSI/IES RP-28 RECREATION ROOM (USED PRIMARILY BY RESIDENTS)-SPACE FUNCTION SYS-3 FLR-2 SCH-B HPLCMT-NORTH ZN
 Supply Air Path,6,SYS_4_PSZ_SP-WAREHOUSE STORAGE AREA MEDIUM TO BULKY PALLETIZED ITEMS-SPACE FUNCTION SYS-4 FLR-1 SCH-A HPLCMT-CORE ZN NODE 130 SUPPLY PATH,SYS_4_PSZ_SP-WAREHOUSE STORAGE AREA MEDIUM TO BULKY PALLETIZED ITEMS-SPACE FUNCTION SYS-4 FLR-1 SCH-A HPLCMT-CORE ZN
   #Components on Supply Air Path,1
   Supply Air Path Component,1,AIRLOOPHVAC:ZONESPLITTER,AIR LOOP HVAC ZONE SPLITTER 6,SYS_4_PSZ_SP-WAREHOUSE STORAGE AREA MEDIUM TO BULKY PALLETIZED ITEMS-SPACE FUNCTION SYS-4 FLR-1 SCH-A HPLCMT-CORE ZN
     #Outlet Nodes on Supply Air Path Component,1
     Supply Air Path Component Nodes,1,AIRLOOPHVAC:ZONESPLITTER,AIR LOOP HVAC ZONE SPLITTER 6,NODE 130,NODE 132,SYS_4_PSZ_SP-WAREHOUSE STORAGE AREA MEDIUM TO BULKY PALLETIZED ITEMS-SPACE FUNCTION SYS-4 FLR-1 SCH-A HPLCMT-CORE ZN
! <#Nodes on Supply Air Path>,<Number of Nodes>
! <Supply Air Path Node>,<Node Type>,<Node Count>,<Node Name>,<AirLoopHVAC Name>
#Nodes on Supply Air Path,2
   Supply Air Path Node,Inlet Node,1,NODE 130,SYS_4_PSZ_SP-WAREHOUSE STORAGE AREA MEDIUM TO BULKY PALLETIZED ITEMS-SPACE FUNCTION SYS-4 FLR-1 SCH-A HPLCMT-CORE ZN
   Supply Air Path Node,Outlet Node,2,NODE 132,SYS_4_PSZ_SP-WAREHOUSE STORAGE AREA MEDIUM TO BULKY PALLETIZED ITEMS-SPACE FUNCTION SYS-4 FLR-1 SCH-A HPLCMT-CORE ZN
 Supply Air Path,7,SYS_4_PSZ_SP-WAREHOUSE STORAGE AREA SMALL HAND-CARRIED ITEMS(4)-SPACE FUNCTION SYS-4 FLR-4 SCH-A HPLCMT-NORTH ZN NODE 182 SUPPLY PATH,SYS_4_PSZ_SP-WAREHOUSE STORAGE AREA SMALL HAND-CARRIED ITEMS(4)-SPACE FUNCTION SYS-4 FLR-4 SCH-A HPLCMT-NORTH ZN
   #Components on Supply Air Path,1
   Supply Air Path Component,1,AIRLOOPHVAC:ZONESPLITTER,AIR LOOP HVAC ZONE SPLITTER 10,SYS_4_PSZ_SP-WAREHOUSE STORAGE AREA SMALL HAND-CARRIED ITEMS(4)-SPACE FUNCTION SYS-4 FLR-4 SCH-A HPLCMT-NORTH ZN
     #Outlet Nodes on Supply Air Path Component,1
     Supply Air Path Component Nodes,1,AIRLOOPHVAC:ZONESPLITTER,AIR LOOP HVAC ZONE SPLITTER 10,NODE 182,NODE 184,SYS_4_PSZ_SP-WAREHOUSE STORAGE AREA SMALL HAND-CARRIED ITEMS(4)-SPACE FUNCTION SYS-4 FLR-4 SCH-A HPLCMT-NORTH ZN
! <#Nodes on Supply Air Path>,<Number of Nodes>
! <Supply Air Path Node>,<Node Type>,<Node Count>,<Node Name>,<AirLoopHVAC Name>
#Nodes on Supply Air Path,2
   Supply Air Path Node,Inlet Node,1,NODE 182,SYS_4_PSZ_SP-WAREHOUSE STORAGE AREA SMALL HAND-CARRIED ITEMS(4)-SPACE FUNCTION SYS-4 FLR-4 SCH-A HPLCMT-NORTH ZN
   Supply Air Path Node,Outlet Node,2,NODE 184,SYS_4_PSZ_SP-WAREHOUSE STORAGE AREA SMALL HAND-CARRIED ITEMS(4)-SPACE FUNCTION SYS-4 FLR-4 SCH-A HPLCMT-NORTH ZN
 Supply Air Path,8,SYS_4_PSZ_SP-WHOLEBUILDING-AUTOMOTIVE FACILITY 1 SYS-4 FLR-2 SCH-E HPLCMT-WEST ZN NODE 156 SUPPLY PATH,SYS_4_PSZ_SP-WHOLEBUILDING-AUTOMOTIVE FACILITY 1 SYS-4 FLR-2 SCH-E HPLCMT-WEST ZN
   #Components on Supply Air Path,1
   Supply Air Path Component,1,AIRLOOPHVAC:ZONESPLITTER,AIR LOOP HVAC ZONE SPLITTER 8,SYS_4_PSZ_SP-WHOLEBUILDING-AUTOMOTIVE FACILITY 1 SYS-4 FLR-2 SCH-E HPLCMT-WEST ZN
     #Outlet Nodes on Supply Air Path Component,1
     Supply Air Path Component Nodes,1,AIRLOOPHVAC:ZONESPLITTER,AIR LOOP HVAC ZONE SPLITTER 8,NODE 156,NODE 158,SYS_4_PSZ_SP-WHOLEBUILDING-AUTOMOTIVE FACILITY 1 SYS-4 FLR-2 SCH-E HPLCMT-WEST ZN
! <#Nodes on Supply Air Path>,<Number of Nodes>
! <Supply Air Path Node>,<Node Type>,<Node Count>,<Node Name>,<AirLoopHVAC Name>
#Nodes on Supply Air Path,2
   Supply Air Path Node,Inlet Node,1,NODE 156,SYS_4_PSZ_SP-WHOLEBUILDING-AUTOMOTIVE FACILITY 1 SYS-4 FLR-2 SCH-E HPLCMT-WEST ZN
   Supply Air Path Node,Outlet Node,2,NODE 158,SYS_4_PSZ_SP-WHOLEBUILDING-AUTOMOTIVE FACILITY 1 SYS-4 FLR-2 SCH-E HPLCMT-WEST ZN
 Supply Air Path,9,SYS_4_PSZ_SP-WHOLEBUILDING-AUTOMOTIVE FACILITY 2 SYS-4 FLR-2 SCH-E HPLCMT-SOUTH ZN NODE 169 SUPPLY PATH,SYS_4_PSZ_SP-WHOLEBUILDING-AUTOMOTIVE FACILITY 2 SYS-4 FLR-2 SCH-E HPLCMT-SOUTH ZN
   #Components on Supply Air Path,1
   Supply Air Path Component,1,AIRLOOPHVAC:ZONESPLITTER,AIR LOOP HVAC ZONE SPLITTER 9,SYS_4_PSZ_SP-WHOLEBUILDING-AUTOMOTIVE FACILITY 2 SYS-4 FLR-2 SCH-E HPLCMT-SOUTH ZN
     #Outlet Nodes on Supply Air Path Component,1
     Supply Air Path Component Nodes,1,AIRLOOPHVAC:ZONESPLITTER,AIR LOOP HVAC ZONE SPLITTER 9,NODE 169,NODE 171,SYS_4_PSZ_SP-WHOLEBUILDING-AUTOMOTIVE FACILITY 2 SYS-4 FLR-2 SCH-E HPLCMT-SOUTH ZN
! <#Nodes on Supply Air Path>,<Number of Nodes>
! <Supply Air Path Node>,<Node Type>,<Node Count>,<Node Name>,<AirLoopHVAC Name>
#Nodes on Supply Air Path,2
   Supply Air Path Node,Inlet Node,1,NODE 169,SYS_4_PSZ_SP-WHOLEBUILDING-AUTOMOTIVE FACILITY 2 SYS-4 FLR-2 SCH-E HPLCMT-SOUTH ZN
   Supply Air Path Node,Outlet Node,2,NODE 171,SYS_4_PSZ_SP-WHOLEBUILDING-AUTOMOTIVE FACILITY 2 SYS-4 FLR-2 SCH-E HPLCMT-SOUTH ZN
 Supply Air Path,10,SYS_4_PSZ_SP-WHOLEBUILDING-AUTOMOTIVE FACILITY SYS-4 FLR-1 SCH-E HPLCMT-SOUTH ZN NODE 143 SUPPLY PATH,SYS_4_PSZ_SP-WHOLEBUILDING-AUTOMOTIVE FACILITY SYS-4 FLR-1 SCH-E HPLCMT-SOUTH ZN
   #Components on Supply Air Path,1
   Supply Air Path Component,1,AIRLOOPHVAC:ZONESPLITTER,AIR LOOP HVAC ZONE SPLITTER 7,SYS_4_PSZ_SP-WHOLEBUILDING-AUTOMOTIVE FACILITY SYS-4 FLR-1 SCH-E HPLCMT-SOUTH ZN
     #Outlet Nodes on Supply Air Path Component,1
     Supply Air Path Component Nodes,1,AIRLOOPHVAC:ZONESPLITTER,AIR LOOP HVAC ZONE SPLITTER 7,NODE 143,NODE 145,SYS_4_PSZ_SP-WHOLEBUILDING-AUTOMOTIVE FACILITY SYS-4 FLR-1 SCH-E HPLCMT-SOUTH ZN
! <#Nodes on Supply Air Path>,<Number of Nodes>
! <Supply Air Path Node>,<Node Type>,<Node Count>,<Node Name>,<AirLoopHVAC Name>
#Nodes on Supply Air Path,2
   Supply Air Path Node,Inlet Node,1,NODE 143,SYS_4_PSZ_SP-WHOLEBUILDING-AUTOMOTIVE FACILITY SYS-4 FLR-1 SCH-E HPLCMT-SOUTH ZN
   Supply Air Path Node,Outlet Node,2,NODE 145,SYS_4_PSZ_SP-WHOLEBUILDING-AUTOMOTIVE FACILITY SYS-4 FLR-1 SCH-E HPLCMT-SOUTH ZN
 Supply Air Path,11,SYS_6_VAV WITH REHEAT NODE 222 SUPPLY PATH,SYS_6_VAV WITH REHEAT
   #Components on Supply Air Path,1
   Supply Air Path Component,1,AIRLOOPHVAC:ZONESPLITTER,AIR LOOP HVAC ZONE SPLITTER 11,SYS_6_VAV WITH REHEAT
     #Outlet Nodes on Supply Air Path Component,3
     Supply Air Path Component Nodes,1,AIRLOOPHVAC:ZONESPLITTER,AIR LOOP HVAC ZONE SPLITTER 11,NODE 222,NODE 237,SYS_6_VAV WITH REHEAT
     Supply Air Path Component Nodes,2,AIRLOOPHVAC:ZONESPLITTER,AIR LOOP HVAC ZONE SPLITTER 11,NODE 222,NODE 244,SYS_6_VAV WITH REHEAT
     Supply Air Path Component Nodes,3,AIRLOOPHVAC:ZONESPLITTER,AIR LOOP HVAC ZONE SPLITTER 11,NODE 222,NODE 251,SYS_6_VAV WITH REHEAT
! <#Nodes on Supply Air Path>,<Number of Nodes>
! <Supply Air Path Node>,<Node Type>,<Node Count>,<Node Name>,<AirLoopHVAC Name>
#Nodes on Supply Air Path,4
   Supply Air Path Node,Inlet Node,1,NODE 222,SYS_6_VAV WITH REHEAT
   Supply Air Path Node,Outlet Node,2,NODE 237,SYS_6_VAV WITH REHEAT
   Supply Air Path Node,Outlet Node,3,NODE 244,SYS_6_VAV WITH REHEAT
   Supply Air Path Node,Outlet Node,4,NODE 251,SYS_6_VAV WITH REHEAT
 Supply Air Path,12,SYS_6_VAV WITH REHEAT 1 NODE 256 SUPPLY PATH,SYS_6_VAV WITH REHEAT 1
   #Components on Supply Air Path,1
   Supply Air Path Component,1,AIRLOOPHVAC:ZONESPLITTER,AIR LOOP HVAC ZONE SPLITTER 12,SYS_6_VAV WITH REHEAT 1
     #Outlet Nodes on Supply Air Path Component,2
     Supply Air Path Component Nodes,1,AIRLOOPHVAC:ZONESPLITTER,AIR LOOP HVAC ZONE SPLITTER 12,NODE 256,NODE 272,SYS_6_VAV WITH REHEAT 1
     Supply Air Path Component Nodes,2,AIRLOOPHVAC:ZONESPLITTER,AIR LOOP HVAC ZONE SPLITTER 12,NODE 256,NODE 279,SYS_6_VAV WITH REHEAT 1
! <#Nodes on Supply Air Path>,<Number of Nodes>
! <Supply Air Path Node>,<Node Type>,<Node Count>,<Node Name>,<AirLoopHVAC Name>
#Nodes on Supply Air Path,3
   Supply Air Path Node,Inlet Node,1,NODE 256,SYS_6_VAV WITH REHEAT 1
   Supply Air Path Node,Outlet Node,2,NODE 272,SYS_6_VAV WITH REHEAT 1
   Supply Air Path Node,Outlet Node,3,NODE 279,SYS_6_VAV WITH REHEAT 1
 Supply Air Path,13,SYS_6_VAV WITH REHEAT 2 NODE 284 SUPPLY PATH,SYS_6_VAV WITH REHEAT 2
   #Components on Supply Air Path,1
   Supply Air Path Component,1,AIRLOOPHVAC:ZONESPLITTER,AIR LOOP HVAC ZONE SPLITTER 13,SYS_6_VAV WITH REHEAT 2
     #Outlet Nodes on Supply Air Path Component,4
     Supply Air Path Component Nodes,1,AIRLOOPHVAC:ZONESPLITTER,AIR LOOP HVAC ZONE SPLITTER 13,NODE 284,NODE 300,SYS_6_VAV WITH REHEAT 2
     Supply Air Path Component Nodes,2,AIRLOOPHVAC:ZONESPLITTER,AIR LOOP HVAC ZONE SPLITTER 13,NODE 284,NODE 307,SYS_6_VAV WITH REHEAT 2
     Supply Air Path Component Nodes,3,AIRLOOPHVAC:ZONESPLITTER,AIR LOOP HVAC ZONE SPLITTER 13,NODE 284,NODE 314,SYS_6_VAV WITH REHEAT 2
     Supply Air Path Component Nodes,4,AIRLOOPHVAC:ZONESPLITTER,AIR LOOP HVAC ZONE SPLITTER 13,NODE 284,NODE 321,SYS_6_VAV WITH REHEAT 2
! <#Nodes on Supply Air Path>,<Number of Nodes>
! <Supply Air Path Node>,<Node Type>,<Node Count>,<Node Name>,<AirLoopHVAC Name>
#Nodes on Supply Air Path,5
   Supply Air Path Node,Inlet Node,1,NODE 284,SYS_6_VAV WITH REHEAT 2
   Supply Air Path Node,Outlet Node,2,NODE 300,SYS_6_VAV WITH REHEAT 2
   Supply Air Path Node,Outlet Node,3,NODE 307,SYS_6_VAV WITH REHEAT 2
   Supply Air Path Node,Outlet Node,4,NODE 314,SYS_6_VAV WITH REHEAT 2
   Supply Air Path Node,Outlet Node,5,NODE 321,SYS_6_VAV WITH REHEAT 2
 Supply Air Path,14,SYS_6_VAV WITH REHEAT 3 NODE 326 SUPPLY PATH,SYS_6_VAV WITH REHEAT 3
   #Components on Supply Air Path,1
   Supply Air Path Component,1,AIRLOOPHVAC:ZONESPLITTER,AIR LOOP HVAC ZONE SPLITTER 14,SYS_6_VAV WITH REHEAT 3
     #Outlet Nodes on Supply Air Path Component,1
     Supply Air Path Component Nodes,1,AIRLOOPHVAC:ZONESPLITTER,AIR LOOP HVAC ZONE SPLITTER 14,NODE 326,NODE 342,SYS_6_VAV WITH REHEAT 3
! <#Nodes on Supply Air Path>,<Number of Nodes>
! <Supply Air Path Node>,<Node Type>,<Node Count>,<Node Name>,<AirLoopHVAC Name>
#Nodes on Supply Air Path,2
   Supply Air Path Node,Inlet Node,1,NODE 326,SYS_6_VAV WITH REHEAT 3
   Supply Air Path Node,Outlet Node,2,NODE 342,SYS_6_VAV WITH REHEAT 3
! ===============================================================
! <#Return Air Paths>,<Number of Return Air Paths>
 #Return Air Paths,14
! <Return Air Path>,<Return Air Path Count>,<Return Air Path Name>,<AirLoopHVAC Name>
! <#Components on Return Air Path>,<Number of Components>
! <Return Air Path Component>,<Component Count>,<Component Type>,<Component Name>,<AirLoopHVAC Name>
! <#Inlet Nodes on Return Air Path Component>,<Number of Nodes>
! <Return Air Path Component Nodes>,<Node Count>,<Component Type>,<Component Name>,<Inlet Node Name>,<Outlet Node Name>,<AirLoopHVAC Name>
 Return Air Path,1,SYS_2_MAKE-UP AIR UNIT RETURN PATH,SYS_2_MAKE-UP AIR UNIT
   #Components on Return Air Path,1
   Return Air Path Component,1,AIRLOOPHVAC:ZONEMIXER,AIR LOOP HVAC ZONE MIXER 1,SYS_2_MAKE-UP AIR UNIT
     #Inlet Nodes on Return Air Path Component,1
     Return Air Path Component Nodes,1,AIRLOOPHVAC:ZONEMIXER,AIR LOOP HVAC ZONE MIXER 1,NODE 75,NODE 64,SYS_2_MAKE-UP AIR UNIT
! <#Nodes on Return Air Path>,<Number of Nodes>
! <Return Air Path Node>,<Node Type>,<Node Count>,<Node Name>,<AirLoopHVAC Name>
   #Nodes on Return Air Path,2
   Return Air Path Node,Outlet Node,1,NODE 64,SYS_2_MAKE-UP AIR UNIT
   Return Air Path Node,Inlet Node,2,NODE 75,SYS_2_MAKE-UP AIR UNIT
 Return Air Path,2,SYS_3_PSZ SP-RELIGIOUS BUILDING FELLOWSHIP HALL-SPACE FUNCTION SYS-3 FLR-4 SCH-C HPLCMT-SOUTH ZN RETURN PATH,SYS_3_PSZ SP-RELIGIOUS BUILDING FELLOWSHIP HALL-SPACE FUNCTION SYS-3 FLR-4 SCH-C HPLCMT-SOUTH ZN
   #Components on Return Air Path,1
   Return Air Path Component,1,AIRLOOPHVAC:ZONEMIXER,AIR LOOP HVAC ZONE MIXER 4,SYS_3_PSZ SP-RELIGIOUS BUILDING FELLOWSHIP HALL-SPACE FUNCTION SYS-3 FLR-4 SCH-C HPLCMT-SOUTH ZN
     #Inlet Nodes on Return Air Path Component,1
     Return Air Path Component Nodes,1,AIRLOOPHVAC:ZONEMIXER,AIR LOOP HVAC ZONE MIXER 4,NODE 112,NODE 105,SYS_3_PSZ SP-RELIGIOUS BUILDING FELLOWSHIP HALL-SPACE FUNCTION SYS-3 FLR-4 SCH-C HPLCMT-SOUTH ZN
! <#Nodes on Return Air Path>,<Number of Nodes>
! <Return Air Path Node>,<Node Type>,<Node Count>,<Node Name>,<AirLoopHVAC Name>
   #Nodes on Return Air Path,2
   Return Air Path Node,Outlet Node,1,NODE 105,SYS_3_PSZ SP-RELIGIOUS BUILDING FELLOWSHIP HALL-SPACE FUNCTION SYS-3 FLR-4 SCH-C HPLCMT-SOUTH ZN
   Return Air Path Node,Inlet Node,2,NODE 112,SYS_3_PSZ SP-RELIGIOUS BUILDING FELLOWSHIP HALL-SPACE FUNCTION SYS-3 FLR-4 SCH-C HPLCMT-SOUTH ZN
 Return Air Path,3,SYS_3_PSZ SP-RELIGIOUS BUILDING WORSHIP/PULPIT/CHOIR AREA-SPACE FUNCTION SYS-3 FLR-3 SCH-I HPLCMT-SOUTH ZN RETURN PATH,SYS_3_PSZ SP-RELIGIOUS BUILDING WORSHIP/PULPIT/CHOIR AREA-SPACE FUNCTION SYS-3 FLR-3 SCH-I HPLCMT-SOUTH ZN
   #Components on Return Air Path,1
   Return Air Path Component,1,AIRLOOPHVAC:ZONEMIXER,AIR LOOP HVAC ZONE MIXER 3,SYS_3_PSZ SP-RELIGIOUS BUILDING WORSHIP/PULPIT/CHOIR AREA-SPACE FUNCTION SYS-3 FLR-3 SCH-I HPLCMT-SOUTH ZN
     #Inlet Nodes on Return Air Path Component,1
     Return Air Path Component Nodes,1,AIRLOOPHVAC:ZONEMIXER,AIR LOOP HVAC ZONE MIXER 3,NODE 99,NODE 92,SYS_3_PSZ SP-RELIGIOUS BUILDING WORSHIP/PULPIT/CHOIR AREA-SPACE FUNCTION SYS-3 FLR-3 SCH-I HPLCMT-SOUTH ZN
! <#Nodes on Return Air Path>,<Number of Nodes>
! <Return Air Path Node>,<Node Type>,<Node Count>,<Node Name>,<AirLoopHVAC Name>
   #Nodes on Return Air Path,2
   Return Air Path Node,Outlet Node,1,NODE 92,SYS_3_PSZ SP-RELIGIOUS BUILDING WORSHIP/PULPIT/CHOIR AREA-SPACE FUNCTION SYS-3 FLR-3 SCH-I HPLCMT-SOUTH ZN
   Return Air Path Node,Inlet Node,2,NODE 99,SYS_3_PSZ SP-RELIGIOUS BUILDING WORSHIP/PULPIT/CHOIR AREA-SPACE FUNCTION SYS-3 FLR-3 SCH-I HPLCMT-SOUTH ZN
 Return Air Path,4,SYS_3_PSZ SP-SPACE DESIGNED TO ANSI/IES RP-28 CHAPEL (USED PRIMARILY BY RESIDENTS)-SPACE FUNCTION SYS-3 FLR-4 SCH-I HPLCMT-WEST ZN RETURN PATH,SYS_3_PSZ SP-SPACE DESIGNED TO ANSI/IES RP-28 CHAPEL (USED PRIMARILY BY RESIDENTS)-SPACE FUNCTION SYS-3 FLR-4 SCH-I HPLCMT-WEST ZN
   #Components on Return Air Path,1
   Return Air Path Component,1,AIRLOOPHVAC:ZONEMIXER,AIR LOOP HVAC ZONE MIXER 5,SYS_3_PSZ SP-SPACE DESIGNED TO ANSI/IES RP-28 CHAPEL (USED PRIMARILY BY RESIDENTS)-SPACE FUNCTION SYS-3 FLR-4 SCH-I HPLCMT-WEST ZN
     #Inlet Nodes on Return Air Path Component,1
     Return Air Path Component Nodes,1,AIRLOOPHVAC:ZONEMIXER,AIR LOOP HVAC ZONE MIXER 5,NODE 125,NODE 118,SYS_3_PSZ SP-SPACE DESIGNED TO ANSI/IES RP-28 CHAPEL (USED PRIMARILY BY RESIDENTS)-SPACE FUNCTION SYS-3 FLR-4 SCH-I HPLCMT-WEST ZN
! <#Nodes on Return Air Path>,<Number of Nodes>
! <Return Air Path Node>,<Node Type>,<Node Count>,<Node Name>,<AirLoopHVAC Name>
   #Nodes on Return Air Path,2
   Return Air Path Node,Outlet Node,1,NODE 118,SYS_3_PSZ SP-SPACE DESIGNED TO ANSI/IES RP-28 CHAPEL (USED PRIMARILY BY RESIDENTS)-SPACE FUNCTION SYS-3 FLR-4 SCH-I HPLCMT-WEST ZN
   Return Air Path Node,Inlet Node,2,NODE 125,SYS_3_PSZ SP-SPACE DESIGNED TO ANSI/IES RP-28 CHAPEL (USED PRIMARILY BY RESIDENTS)-SPACE FUNCTION SYS-3 FLR-4 SCH-I HPLCMT-WEST ZN
 Return Air Path,5,SYS_3_PSZ SP-SPACE DESIGNED TO ANSI/IES RP-28 RECREATION ROOM (USED PRIMARILY BY RESIDENTS)-SPACE FUNCTION SYS-3 FLR-2 SCH-B HPLCMT-NORTH ZN RETURN PATH,SYS_3_PSZ SP-SPACE DESIGNED TO ANSI/IES RP-28 RECREATION ROOM (USED PRIMARILY BY RESIDENTS)-SPACE FUNCTION SYS-3 FLR-2 SCH-B HPLCMT-NORTH ZN
   #Components on Return Air Path,1
   Return Air Path Component,1,AIRLOOPHVAC:ZONEMIXER,AIR LOOP HVAC ZONE MIXER 2,SYS_3_PSZ SP-SPACE DESIGNED TO ANSI/IES RP-28 RECREATION ROOM (USED PRIMARILY BY RESIDENTS)-SPACE FUNCTION SYS-3 FLR-2 SCH-B HPLCMT-NORTH ZN
     #Inlet Nodes on Return Air Path Component,1
     Return Air Path Component Nodes,1,AIRLOOPHVAC:ZONEMIXER,AIR LOOP HVAC ZONE MIXER 2,NODE 86,NODE 79,SYS_3_PSZ SP-SPACE DESIGNED TO ANSI/IES RP-28 RECREATION ROOM (USED PRIMARILY BY RESIDENTS)-SPACE FUNCTION SYS-3 FLR-2 SCH-B HPLCMT-NORTH ZN
! <#Nodes on Return Air Path>,<Number of Nodes>
! <Return Air Path Node>,<Node Type>,<Node Count>,<Node Name>,<AirLoopHVAC Name>
   #Nodes on Return Air Path,2
   Return Air Path Node,Outlet Node,1,NODE 79,SYS_3_PSZ SP-SPACE DESIGNED TO ANSI/IES RP-28 RECREATION ROOM (USED PRIMARILY BY RESIDENTS)-SPACE FUNCTION SYS-3 FLR-2 SCH-B HPLCMT-NORTH ZN
   Return Air Path Node,Inlet Node,2,NODE 86,SYS_3_PSZ SP-SPACE DESIGNED TO ANSI/IES RP-28 RECREATION ROOM (USED PRIMARILY BY RESIDENTS)-SPACE FUNCTION SYS-3 FLR-2 SCH-B HPLCMT-NORTH ZN
 Return Air Path,6,SYS_4_PSZ_SP-WAREHOUSE STORAGE AREA MEDIUM TO BULKY PALLETIZED ITEMS-SPACE FUNCTION SYS-4 FLR-1 SCH-A HPLCMT-CORE ZN RETURN PATH,SYS_4_PSZ_SP-WAREHOUSE STORAGE AREA MEDIUM TO BULKY PALLETIZED ITEMS-SPACE FUNCTION SYS-4 FLR-1 SCH-A HPLCMT-CORE ZN
   #Components on Return Air Path,1
   Return Air Path Component,1,AIRLOOPHVAC:ZONEMIXER,AIR LOOP HVAC ZONE MIXER 6,SYS_4_PSZ_SP-WAREHOUSE STORAGE AREA MEDIUM TO BULKY PALLETIZED ITEMS-SPACE FUNCTION SYS-4 FLR-1 SCH-A HPLCMT-CORE ZN
     #Inlet Nodes on Return Air Path Component,1
     Return Air Path Component Nodes,1,AIRLOOPHVAC:ZONEMIXER,AIR LOOP HVAC ZONE MIXER 6,NODE 138,NODE 131,SYS_4_PSZ_SP-WAREHOUSE STORAGE AREA MEDIUM TO BULKY PALLETIZED ITEMS-SPACE FUNCTION SYS-4 FLR-1 SCH-A HPLCMT-CORE ZN
! <#Nodes on Return Air Path>,<Number of Nodes>
! <Return Air Path Node>,<Node Type>,<Node Count>,<Node Name>,<AirLoopHVAC Name>
   #Nodes on Return Air Path,2
   Return Air Path Node,Outlet Node,1,NODE 131,SYS_4_PSZ_SP-WAREHOUSE STORAGE AREA MEDIUM TO BULKY PALLETIZED ITEMS-SPACE FUNCTION SYS-4 FLR-1 SCH-A HPLCMT-CORE ZN
   Return Air Path Node,Inlet Node,2,NODE 138,SYS_4_PSZ_SP-WAREHOUSE STORAGE AREA MEDIUM TO BULKY PALLETIZED ITEMS-SPACE FUNCTION SYS-4 FLR-1 SCH-A HPLCMT-CORE ZN
 Return Air Path,7,SYS_4_PSZ_SP-WAREHOUSE STORAGE AREA SMALL HAND-CARRIED ITEMS(4)-SPACE FUNCTION SYS-4 FLR-4 SCH-A HPLCMT-NORTH ZN RETURN PATH,SYS_4_PSZ_SP-WAREHOUSE STORAGE AREA SMALL HAND-CARRIED ITEMS(4)-SPACE FUNCTION SYS-4 FLR-4 SCH-A HPLCMT-NORTH ZN
   #Components on Return Air Path,1
   Return Air Path Component,1,AIRLOOPHVAC:ZONEMIXER,AIR LOOP HVAC ZONE MIXER 10,SYS_4_PSZ_SP-WAREHOUSE STORAGE AREA SMALL HAND-CARRIED ITEMS(4)-SPACE FUNCTION SYS-4 FLR-4 SCH-A HPLCMT-NORTH ZN
     #Inlet Nodes on Return Air Path Component,1
     Return Air Path Component Nodes,1,AIRLOOPHVAC:ZONEMIXER,AIR LOOP HVAC ZONE MIXER 10,NODE 190,NODE 183,SYS_4_PSZ_SP-WAREHOUSE STORAGE AREA SMALL HAND-CARRIED ITEMS(4)-SPACE FUNCTION SYS-4 FLR-4 SCH-A HPLCMT-NORTH ZN
! <#Nodes on Return Air Path>,<Number of Nodes>
! <Return Air Path Node>,<Node Type>,<Node Count>,<Node Name>,<AirLoopHVAC Name>
   #Nodes on Return Air Path,2
   Return Air Path Node,Outlet Node,1,NODE 183,SYS_4_PSZ_SP-WAREHOUSE STORAGE AREA SMALL HAND-CARRIED ITEMS(4)-SPACE FUNCTION SYS-4 FLR-4 SCH-A HPLCMT-NORTH ZN
   Return Air Path Node,Inlet Node,2,NODE 190,SYS_4_PSZ_SP-WAREHOUSE STORAGE AREA SMALL HAND-CARRIED ITEMS(4)-SPACE FUNCTION SYS-4 FLR-4 SCH-A HPLCMT-NORTH ZN
 Return Air Path,8,SYS_4_PSZ_SP-WHOLEBUILDING-AUTOMOTIVE FACILITY 1 SYS-4 FLR-2 SCH-E HPLCMT-WEST ZN RETURN PATH,SYS_4_PSZ_SP-WHOLEBUILDING-AUTOMOTIVE FACILITY 1 SYS-4 FLR-2 SCH-E HPLCMT-WEST ZN
   #Components on Return Air Path,1
   Return Air Path Component,1,AIRLOOPHVAC:ZONEMIXER,AIR LOOP HVAC ZONE MIXER 8,SYS_4_PSZ_SP-WHOLEBUILDING-AUTOMOTIVE FACILITY 1 SYS-4 FLR-2 SCH-E HPLCMT-WEST ZN
     #Inlet Nodes on Return Air Path Component,1
     Return Air Path Component Nodes,1,AIRLOOPHVAC:ZONEMIXER,AIR LOOP HVAC ZONE MIXER 8,NODE 164,NODE 157,SYS_4_PSZ_SP-WHOLEBUILDING-AUTOMOTIVE FACILITY 1 SYS-4 FLR-2 SCH-E HPLCMT-WEST ZN
! <#Nodes on Return Air Path>,<Number of Nodes>
! <Return Air Path Node>,<Node Type>,<Node Count>,<Node Name>,<AirLoopHVAC Name>
   #Nodes on Return Air Path,2
   Return Air Path Node,Outlet Node,1,NODE 157,SYS_4_PSZ_SP-WHOLEBUILDING-AUTOMOTIVE FACILITY 1 SYS-4 FLR-2 SCH-E HPLCMT-WEST ZN
   Return Air Path Node,Inlet Node,2,NODE 164,SYS_4_PSZ_SP-WHOLEBUILDING-AUTOMOTIVE FACILITY 1 SYS-4 FLR-2 SCH-E HPLCMT-WEST ZN
 Return Air Path,9,SYS_4_PSZ_SP-WHOLEBUILDING-AUTOMOTIVE FACILITY 2 SYS-4 FLR-2 SCH-E HPLCMT-SOUTH ZN RETURN PATH,SYS_4_PSZ_SP-WHOLEBUILDING-AUTOMOTIVE FACILITY 2 SYS-4 FLR-2 SCH-E HPLCMT-SOUTH ZN
   #Components on Return Air Path,1
   Return Air Path Component,1,AIRLOOPHVAC:ZONEMIXER,AIR LOOP HVAC ZONE MIXER 9,SYS_4_PSZ_SP-WHOLEBUILDING-AUTOMOTIVE FACILITY 2 SYS-4 FLR-2 SCH-E HPLCMT-SOUTH ZN
     #Inlet Nodes on Return Air Path Component,1
     Return Air Path Component Nodes,1,AIRLOOPHVAC:ZONEMIXER,AIR LOOP HVAC ZONE MIXER 9,NODE 177,NODE 170,SYS_4_PSZ_SP-WHOLEBUILDING-AUTOMOTIVE FACILITY 2 SYS-4 FLR-2 SCH-E HPLCMT-SOUTH ZN
! <#Nodes on Return Air Path>,<Number of Nodes>
! <Return Air Path Node>,<Node Type>,<Node Count>,<Node Name>,<AirLoopHVAC Name>
   #Nodes on Return Air Path,2
   Return Air Path Node,Outlet Node,1,NODE 170,SYS_4_PSZ_SP-WHOLEBUILDING-AUTOMOTIVE FACILITY 2 SYS-4 FLR-2 SCH-E HPLCMT-SOUTH ZN
   Return Air Path Node,Inlet Node,2,NODE 177,SYS_4_PSZ_SP-WHOLEBUILDING-AUTOMOTIVE FACILITY 2 SYS-4 FLR-2 SCH-E HPLCMT-SOUTH ZN
 Return Air Path,10,SYS_4_PSZ_SP-WHOLEBUILDING-AUTOMOTIVE FACILITY SYS-4 FLR-1 SCH-E HPLCMT-SOUTH ZN RETURN PATH,SYS_4_PSZ_SP-WHOLEBUILDING-AUTOMOTIVE FACILITY SYS-4 FLR-1 SCH-E HPLCMT-SOUTH ZN
   #Components on Return Air Path,1
   Return Air Path Component,1,AIRLOOPHVAC:ZONEMIXER,AIR LOOP HVAC ZONE MIXER 7,SYS_4_PSZ_SP-WHOLEBUILDING-AUTOMOTIVE FACILITY SYS-4 FLR-1 SCH-E HPLCMT-SOUTH ZN
     #Inlet Nodes on Return Air Path Component,1
     Return Air Path Component Nodes,1,AIRLOOPHVAC:ZONEMIXER,AIR LOOP HVAC ZONE MIXER 7,NODE 151,NODE 144,SYS_4_PSZ_SP-WHOLEBUILDING-AUTOMOTIVE FACILITY SYS-4 FLR-1 SCH-E HPLCMT-SOUTH ZN
! <#Nodes on Return Air Path>,<Number of Nodes>
! <Return Air Path Node>,<Node Type>,<Node Count>,<Node Name>,<AirLoopHVAC Name>
   #Nodes on Return Air Path,2
   Return Air Path Node,Outlet Node,1,NODE 144,SYS_4_PSZ_SP-WHOLEBUILDING-AUTOMOTIVE FACILITY SYS-4 FLR-1 SCH-E HPLCMT-SOUTH ZN
   Return Air Path Node,Inlet Node,2,NODE 151,SYS_4_PSZ_SP-WHOLEBUILDING-AUTOMOTIVE FACILITY SYS-4 FLR-1 SCH-E HPLCMT-SOUTH ZN
 Return Air Path,11,SYS_6_VAV WITH REHEAT RETURN PATH,SYS_6_VAV WITH REHEAT
   #Components on Return Air Path,1
   Return Air Path Component,1,AIRLOOPHVAC:ZONEMIXER,AIR LOOP HVAC ZONE MIXER 11,SYS_6_VAV WITH REHEAT
     #Inlet Nodes on Return Air Path Component,3
     Return Air Path Component Nodes,1,AIRLOOPHVAC:ZONEMIXER,AIR LOOP HVAC ZONE MIXER 11,NODE 236,NODE 223,SYS_6_VAV WITH REHEAT
     Return Air Path Component Nodes,2,AIRLOOPHVAC:ZONEMIXER,AIR LOOP HVAC ZONE MIXER 11,NODE 243,NODE 223,SYS_6_VAV WITH REHEAT
     Return Air Path Component Nodes,3,AIRLOOPHVAC:ZONEMIXER,AIR LOOP HVAC ZONE MIXER 11,NODE 250,NODE 223,SYS_6_VAV WITH REHEAT
! <#Nodes on Return Air Path>,<Number of Nodes>
! <Return Air Path Node>,<Node Type>,<Node Count>,<Node Name>,<AirLoopHVAC Name>
   #Nodes on Return Air Path,4
   Return Air Path Node,Outlet Node,1,NODE 223,SYS_6_VAV WITH REHEAT
   Return Air Path Node,Inlet Node,2,NODE 236,SYS_6_VAV WITH REHEAT
   Return Air Path Node,Inlet Node,3,NODE 243,SYS_6_VAV WITH REHEAT
   Return Air Path Node,Inlet Node,4,NODE 250,SYS_6_VAV WITH REHEAT
 Return Air Path,12,SYS_6_VAV WITH REHEAT 1 RETURN PATH,SYS_6_VAV WITH REHEAT 1
   #Components on Return Air Path,1
   Return Air Path Component,1,AIRLOOPHVAC:ZONEMIXER,AIR LOOP HVAC ZONE MIXER 12,SYS_6_VAV WITH REHEAT 1
     #Inlet Nodes on Return Air Path Component,2
     Return Air Path Component Nodes,1,AIRLOOPHVAC:ZONEMIXER,AIR LOOP HVAC ZONE MIXER 12,NODE 271,NODE 257,SYS_6_VAV WITH REHEAT 1
     Return Air Path Component Nodes,2,AIRLOOPHVAC:ZONEMIXER,AIR LOOP HVAC ZONE MIXER 12,NODE 278,NODE 257,SYS_6_VAV WITH REHEAT 1
! <#Nodes on Return Air Path>,<Number of Nodes>
! <Return Air Path Node>,<Node Type>,<Node Count>,<Node Name>,<AirLoopHVAC Name>
   #Nodes on Return Air Path,3
   Return Air Path Node,Outlet Node,1,NODE 257,SYS_6_VAV WITH REHEAT 1
   Return Air Path Node,Inlet Node,2,NODE 271,SYS_6_VAV WITH REHEAT 1
   Return Air Path Node,Inlet Node,3,NODE 278,SYS_6_VAV WITH REHEAT 1
 Return Air Path,13,SYS_6_VAV WITH REHEAT 2 RETURN PATH,SYS_6_VAV WITH REHEAT 2
   #Components on Return Air Path,1
   Return Air Path Component,1,AIRLOOPHVAC:ZONEMIXER,AIR LOOP HVAC ZONE MIXER 13,SYS_6_VAV WITH REHEAT 2
     #Inlet Nodes on Return Air Path Component,4
     Return Air Path Component Nodes,1,AIRLOOPHVAC:ZONEMIXER,AIR LOOP HVAC ZONE MIXER 13,NODE 299,NODE 285,SYS_6_VAV WITH REHEAT 2
     Return Air Path Component Nodes,2,AIRLOOPHVAC:ZONEMIXER,AIR LOOP HVAC ZONE MIXER 13,NODE 306,NODE 285,SYS_6_VAV WITH REHEAT 2
     Return Air Path Component Nodes,3,AIRLOOPHVAC:ZONEMIXER,AIR LOOP HVAC ZONE MIXER 13,NODE 313,NODE 285,SYS_6_VAV WITH REHEAT 2
     Return Air Path Component Nodes,4,AIRLOOPHVAC:ZONEMIXER,AIR LOOP HVAC ZONE MIXER 13,NODE 320,NODE 285,SYS_6_VAV WITH REHEAT 2
! <#Nodes on Return Air Path>,<Number of Nodes>
! <Return Air Path Node>,<Node Type>,<Node Count>,<Node Name>,<AirLoopHVAC Name>
   #Nodes on Return Air Path,5
   Return Air Path Node,Outlet Node,1,NODE 285,SYS_6_VAV WITH REHEAT 2
   Return Air Path Node,Inlet Node,2,NODE 299,SYS_6_VAV WITH REHEAT 2
   Return Air Path Node,Inlet Node,3,NODE 306,SYS_6_VAV WITH REHEAT 2
   Return Air Path Node,Inlet Node,4,NODE 313,SYS_6_VAV WITH REHEAT 2
   Return Air Path Node,Inlet Node,5,NODE 320,SYS_6_VAV WITH REHEAT 2
 Return Air Path,14,SYS_6_VAV WITH REHEAT 3 RETURN PATH,SYS_6_VAV WITH REHEAT 3
   #Components on Return Air Path,1
   Return Air Path Component,1,AIRLOOPHVAC:ZONEMIXER,AIR LOOP HVAC ZONE MIXER 14,SYS_6_VAV WITH REHEAT 3
     #Inlet Nodes on Return Air Path Component,1
     Return Air Path Component Nodes,1,AIRLOOPHVAC:ZONEMIXER,AIR LOOP HVAC ZONE MIXER 14,NODE 341,NODE 327,SYS_6_VAV WITH REHEAT 3
! <#Nodes on Return Air Path>,<Number of Nodes>
! <Return Air Path Node>,<Node Type>,<Node Count>,<Node Name>,<AirLoopHVAC Name>
   #Nodes on Return Air Path,2
   Return Air Path Node,Outlet Node,1,NODE 327,SYS_6_VAV WITH REHEAT 3
   Return Air Path Node,Inlet Node,2,NODE 341,SYS_6_VAV WITH REHEAT 3
! ===============================================================
! #Outdoor Air Nodes,<Number of Outdoor Air Nodes>
 #Outdoor Air Nodes,16
! <Outdoor Air Node>,<NodeNumber>,<Node Name>
 Outdoor Air Node,379,ZONE HVAC FOUR PIPE FAN COIL 1 OA NODE
 Outdoor Air Node,380,NODE 66
 Outdoor Air Node,381,NODE 107
 Outdoor Air Node,382,NODE 94
 Outdoor Air Node,383,NODE 120
 Outdoor Air Node,384,NODE 81
 Outdoor Air Node,385,NODE 133
 Outdoor Air Node,386,NODE 185
 Outdoor Air Node,387,NODE 159
 Outdoor Air Node,388,NODE 172
 Outdoor Air Node,389,NODE 146
 Outdoor Air Node,390,NODE 228
 Outdoor Air Node,391,NODE 263
 Outdoor Air Node,392,NODE 291
 Outdoor Air Node,393,NODE 333
 Outdoor Air Node,394,MODEL OUTDOOR AIR NODE
! ===============================================================
! <#Component Sets>,<Number of Component Sets>
 #Component Sets,229
! <Component Set>,<Component Set Count>,<Parent Object Type>,<Parent Object Name>,<Component Type>,<Component Name>,<Inlet Node ID>,<Outlet Node ID>,<Description>
 Component Set,1,BRANCH,SYS_2_MAKE-UP AIR UNIT MAIN BRANCH,AIRLOOPHVAC:OUTDOORAIRSYSTEM,AIR LOOP HVAC OUTDOOR AIR SYSTEM 1,NODE 61,NODE 70,Air Nodes
 Component Set,2,BRANCH,SYS_2_MAKE-UP AIR UNIT MAIN BRANCH,COILSYSTEM:COOLING:DX,COIL COOLING DX SINGLE SPEED 1 308KBTU/HR 8.21EER COILSYSTEM,NODE 70,NODE 69,Air Nodes
 Component Set,3,BRANCH,SYS_2_MAKE-UP AIR UNIT MAIN BRANCH,COIL:HEATING:FUEL,COIL HEATING GAS 1,NODE 69,NODE 68,Air Nodes
 Component Set,4,BRANCH,SYS_2_MAKE-UP AIR UNIT MAIN BRANCH,FAN:CONSTANTVOLUME,FAN CONSTANT VOLUME 1,NODE 68,NODE 62,Air Nodes
 Component Set,5,BRANCH,SYS_3_PSZ SP-RELIGIOUS BUILDING FELLOWSHIP HALL-SPACE FUNCTION SYS-3 FLR-4 SCH-C HPLCMT-SOUTH ZN MAIN BRANCH,AIRLOOPHVAC:OUTDOORAIRSYSTEM,AIR LOOP HVAC OUTDOOR AIR SYSTEM 4,NODE 102,NODE 111,Air Nodes
 Component Set,6,BRANCH,SYS_3_PSZ SP-RELIGIOUS BUILDING FELLOWSHIP HALL-SPACE FUNCTION SYS-3 FLR-4 SCH-C HPLCMT-SOUTH ZN MAIN BRANCH,COILSYSTEM:COOLING:DX,COIL COOLING DX SINGLE SPEED 4 397KBTU/HR 8.21EER COILSYSTEM,NODE 111,NODE 110,Air Nodes
 Component Set,7,BRANCH,SYS_3_PSZ SP-RELIGIOUS BUILDING FELLOWSHIP HALL-SPACE FUNCTION SYS-3 FLR-4 SCH-C HPLCMT-SOUTH ZN MAIN BRANCH,COIL:HEATING:FUEL,COIL HEATING GAS 4,NODE 110,NODE 109,Air Nodes
 Component Set,8,BRANCH,SYS_3_PSZ SP-RELIGIOUS BUILDING FELLOWSHIP HALL-SPACE FUNCTION SYS-3 FLR-4 SCH-C HPLCMT-SOUTH ZN MAIN BRANCH,FAN:CONSTANTVOLUME,FAN CONSTANT VOLUME 5,NODE 109,NODE 103,Air Nodes
 Component Set,9,BRANCH,SYS_3_PSZ SP-RELIGIOUS BUILDING WORSHIP/PULPIT/CHOIR AREA-SPACE FUNCTION SYS-3 FLR-3 SCH-I HPLCMT-SOUTH ZN MAIN BRANCH,AIRLOOPHVAC:OUTDOORAIRSYSTEM,AIR LOOP HVAC OUTDOOR AIR SYSTEM 3,NODE 89,NODE 98,Air Nodes
 Component Set,10,BRANCH,SYS_3_PSZ SP-RELIGIOUS BUILDING WORSHIP/PULPIT/CHOIR AREA-SPACE FUNCTION SYS-3 FLR-3 SCH-I HPLCMT-SOUTH ZN MAIN BRANCH,COILSYSTEM:COOLING:DX,COIL COOLING DX SINGLE SPEED 3 404KBTU/HR 8.21EER COILSYSTEM,NODE 98,NODE 97,Air Nodes
 Component Set,11,BRANCH,SYS_3_PSZ SP-RELIGIOUS BUILDING WORSHIP/PULPIT/CHOIR AREA-SPACE FUNCTION SYS-3 FLR-3 SCH-I HPLCMT-SOUTH ZN MAIN BRANCH,COIL:HEATING:FUEL,COIL HEATING GAS 3,NODE 97,NODE 96,Air Nodes
 Component Set,12,BRANCH,SYS_3_PSZ SP-RELIGIOUS BUILDING WORSHIP/PULPIT/CHOIR AREA-SPACE FUNCTION SYS-3 FLR-3 SCH-I HPLCMT-SOUTH ZN MAIN BRANCH,FAN:CONSTANTVOLUME,FAN CONSTANT VOLUME 4,NODE 96,NODE 90,Air Nodes
 Component Set,13,BRANCH,SYS_3_PSZ SP-SPACE DESIGNED TO ANSI/IES RP-28 CHAPEL (USED PRIMARILY BY RESIDENTS)-SPACE FUNCTION SYS-3 FLR-4 SCH-I HPLCMT-WEST ZN MAIN BRANCH,AIRLOOPHVAC:OUTDOORAIRSYSTEM,AIR LOOP HVAC OUTDOOR AIR SYSTEM 5,NODE 115,NODE 124,Air Nodes
 Component Set,14,BRANCH,SYS_3_PSZ SP-SPACE DESIGNED TO ANSI/IES RP-28 CHAPEL (USED PRIMARILY BY RESIDENTS)-SPACE FUNCTION SYS-3 FLR-4 SCH-I HPLCMT-WEST ZN MAIN BRANCH,COILSYSTEM:COOLING:DX,COIL COOLING DX SINGLE SPEED 5 404KBTU/HR 8.21EER COILSYSTEM,NODE 124,NODE 123,Air Nodes
 Component Set,15,BRANCH,SYS_3_PSZ SP-SPACE DESIGNED TO ANSI/IES RP-28 CHAPEL (USED PRIMARILY BY RESIDENTS)-SPACE FUNCTION SYS-3 FLR-4 SCH-I HPLCMT-WEST ZN MAIN BRANCH,COIL:HEATING:FUEL,COIL HEATING GAS 5,NODE 123,NODE 122,Air Nodes
 Component Set,16,BRANCH,SYS_3_PSZ SP-SPACE DESIGNED TO ANSI/IES RP-28 CHAPEL (USED PRIMARILY BY RESIDENTS)-SPACE FUNCTION SYS-3 FLR-4 SCH-I HPLCMT-WEST ZN MAIN BRANCH,FAN:CONSTANTVOLUME,FAN CONSTANT VOLUME 6,NODE 122,NODE 116,Air Nodes
 Component Set,17,BRANCH,SYS_3_PSZ SP-SPACE DESIGNED TO ANSI/IES RP-28 RECREATION ROOM (USED PRIMARILY BY RESIDENTS)-SPACE FUNCTION SYS-3 FLR-2 SCH-B HPLCMT-NORTH ZN MAIN BRANCH,AIRLOOPHVAC:OUTDOORAIRSYSTEM,AIR LOOP HVAC OUTDOOR AIR SYSTEM 2,NODE 76,NODE 85,Air Nodes
 Component Set,18,BRANCH,SYS_3_PSZ SP-SPACE DESIGNED TO ANSI/IES RP-28 RECREATION ROOM (USED PRIMARILY BY RESIDENTS)-SPACE FUNCTION SYS-3 FLR-2 SCH-B HPLCMT-NORTH ZN MAIN BRANCH,COILSYSTEM:COOLING:DX,COIL COOLING DX SINGLE SPEED 2 387KBTU/HR 8.21EER COILSYSTEM,NODE 85,NODE 84,Air Nodes
 Component Set,19,BRANCH,SYS_3_PSZ SP-SPACE DESIGNED TO ANSI/IES RP-28 RECREATION ROOM (USED PRIMARILY BY RESIDENTS)-SPACE FUNCTION SYS-3 FLR-2 SCH-B HPLCMT-NORTH ZN MAIN BRANCH,COIL:HEATING:FUEL,COIL HEATING GAS 2,NODE 84,NODE 83,Air Nodes
 Component Set,20,BRANCH,SYS_3_PSZ SP-SPACE DESIGNED TO ANSI/IES RP-28 RECREATION ROOM (USED PRIMARILY BY RESIDENTS)-SPACE FUNCTION SYS-3 FLR-2 SCH-B HPLCMT-NORTH ZN MAIN BRANCH,FAN:CONSTANTVOLUME,FAN CONSTANT VOLUME 3,NODE 83,NODE 77,Air Nodes
 Component Set,21,BRANCH,SYS_4_PSZ_SP-WAREHOUSE STORAGE AREA MEDIUM TO BULKY PALLETIZED ITEMS-SPACE FUNCTION SYS-4 FLR-1 SCH-A HPLCMT-CORE ZN MAIN BRANCH,AIRLOOPHVAC:OUTDOORAIRSYSTEM,AIR LOOP HVAC OUTDOOR AIR SYSTEM 6,NODE 128,NODE 137,Air Nodes
 Component Set,22,BRANCH,SYS_4_PSZ_SP-WAREHOUSE STORAGE AREA MEDIUM TO BULKY PALLETIZED ITEMS-SPACE FUNCTION SYS-4 FLR-1 SCH-A HPLCMT-CORE ZN MAIN BRANCH,COILSYSTEM:COOLING:DX,COIL COOLING DX SINGLE SPEED 6 97KBTU/HR 9.26EER COILSYSTEM,NODE 137,NODE 136,Air Nodes
 Component Set,23,BRANCH,SYS_4_PSZ_SP-WAREHOUSE STORAGE AREA MEDIUM TO BULKY PALLETIZED ITEMS-SPACE FUNCTION SYS-4 FLR-1 SCH-A HPLCMT-CORE ZN MAIN BRANCH,COIL:HEATING:FUEL,COIL HEATING GAS 6,NODE 136,NODE 135,Air Nodes
 Component Set,24,BRANCH,SYS_4_PSZ_SP-WAREHOUSE STORAGE AREA MEDIUM TO BULKY PALLETIZED ITEMS-SPACE FUNCTION SYS-4 FLR-1 SCH-A HPLCMT-CORE ZN MAIN BRANCH,FAN:CONSTANTVOLUME,FAN CONSTANT VOLUME 7,NODE 135,NODE 129,Air Nodes
 Component Set,25,BRANCH,SYS_4_PSZ_SP-WAREHOUSE STORAGE AREA SMALL HAND-CARRIED ITEMS(4)-SPACE FUNCTION SYS-4 FLR-4 SCH-A HPLCMT-NORTH ZN MAIN BRANCH,AIRLOOPHVAC:OUTDOORAIRSYSTEM,AIR LOOP HVAC OUTDOOR AIR SYSTEM 10,NODE 180,NODE 189,Air Nodes
 Component Set,26,BRANCH,SYS_4_PSZ_SP-WAREHOUSE STORAGE AREA SMALL HAND-CARRIED ITEMS(4)-SPACE FUNCTION SYS-4 FLR-4 SCH-A HPLCMT-NORTH ZN MAIN BRANCH,COILSYSTEM:COOLING:DX,COIL COOLING DX SINGLE SPEED 10 203KBTU/HR 9.08EER COILSYSTEM,NODE 189,NODE 188,Air Nodes
 Component Set,27,BRANCH,SYS_4_PSZ_SP-WAREHOUSE STORAGE AREA SMALL HAND-CARRIED ITEMS(4)-SPACE FUNCTION SYS-4 FLR-4 SCH-A HPLCMT-NORTH ZN MAIN BRANCH,COIL:HEATING:FUEL,COIL HEATING GAS 10,NODE 188,NODE 187,Air Nodes
 Component Set,28,BRANCH,SYS_4_PSZ_SP-WAREHOUSE STORAGE AREA SMALL HAND-CARRIED ITEMS(4)-SPACE FUNCTION SYS-4 FLR-4 SCH-A HPLCMT-NORTH ZN MAIN BRANCH,FAN:CONSTANTVOLUME,FAN CONSTANT VOLUME 11,NODE 187,NODE 181,Air Nodes
 Component Set,29,BRANCH,SYS_4_PSZ_SP-WHOLEBUILDING-AUTOMOTIVE FACILITY 1 SYS-4 FLR-2 SCH-E HPLCMT-WEST ZN MAIN BRANCH,AIRLOOPHVAC:OUTDOORAIRSYSTEM,AIR LOOP HVAC OUTDOOR AIR SYSTEM 8,NODE 154,NODE 163,Air Nodes
 Component Set,30,BRANCH,SYS_4_PSZ_SP-WHOLEBUILDING-AUTOMOTIVE FACILITY 1 SYS-4 FLR-2 SCH-E HPLCMT-WEST ZN MAIN BRANCH,COILSYSTEM:COOLING:DX,COIL COOLING DX SINGLE SPEED 8 215KBTU/HR 9.08EER COILSYSTEM,NODE 163,NODE 162,Air Nodes
 Component Set,31,BRANCH,SYS_4_PSZ_SP-WHOLEBUILDING-AUTOMOTIVE FACILITY 1 SYS-4 FLR-2 SCH-E HPLCMT-WEST ZN MAIN BRANCH,COIL:HEATING:FUEL,COIL HEATING GAS 8,NODE 162,NODE 161,Air Nodes
 Component Set,32,BRANCH,SYS_4_PSZ_SP-WHOLEBUILDING-AUTOMOTIVE FACILITY 1 SYS-4 FLR-2 SCH-E HPLCMT-WEST ZN MAIN BRANCH,FAN:CONSTANTVOLUME,FAN CONSTANT VOLUME 9,NODE 161,NODE 155,Air Nodes
 Component Set,33,BRANCH,SYS_4_PSZ_SP-WHOLEBUILDING-AUTOMOTIVE FACILITY 2 SYS-4 FLR-2 SCH-E HPLCMT-SOUTH ZN MAIN BRANCH,AIRLOOPHVAC:OUTDOORAIRSYSTEM,AIR LOOP HVAC OUTDOOR AIR SYSTEM 9,NODE 167,NODE 176,Air Nodes
 Component Set,34,BRANCH,SYS_4_PSZ_SP-WHOLEBUILDING-AUTOMOTIVE FACILITY 2 SYS-4 FLR-2 SCH-E HPLCMT-SOUTH ZN MAIN BRANCH,COILSYSTEM:COOLING:DX,COIL COOLING DX SINGLE SPEED 9 208KBTU/HR 9.08EER COILSYSTEM,NODE 176,NODE 175,Air Nodes
 Component Set,35,BRANCH,SYS_4_PSZ_SP-WHOLEBUILDING-AUTOMOTIVE FACILITY 2 SYS-4 FLR-2 SCH-E HPLCMT-SOUTH ZN MAIN BRANCH,COIL:HEATING:FUEL,COIL HEATING GAS 9,NODE 175,NODE 174,Air Nodes
 Component Set,36,BRANCH,SYS_4_PSZ_SP-WHOLEBUILDING-AUTOMOTIVE FACILITY 2 SYS-4 FLR-2 SCH-E HPLCMT-SOUTH ZN MAIN BRANCH,FAN:CONSTANTVOLUME,FAN CONSTANT VOLUME 10,NODE 174,NODE 168,Air Nodes
 Component Set,37,BRANCH,SYS_4_PSZ_SP-WHOLEBUILDING-AUTOMOTIVE FACILITY SYS-4 FLR-1 SCH-E HPLCMT-SOUTH ZN MAIN BRANCH,AIRLOOPHVAC:OUTDOORAIRSYSTEM,AIR LOOP HVAC OUTDOOR AIR SYSTEM 7,NODE 141,NODE 150,Air Nodes
 Component Set,38,BRANCH,SYS_4_PSZ_SP-WHOLEBUILDING-AUTOMOTIVE FACILITY SYS-4 FLR-1 SCH-E HPLCMT-SOUTH ZN MAIN BRANCH,COILSYSTEM:COOLING:DX,COIL COOLING DX SINGLE SPEED 7 133KBTU/HR 9.26EER COILSYSTEM,NODE 150,NODE 149,Air Nodes
 Component Set,39,BRANCH,SYS_4_PSZ_SP-WHOLEBUILDING-AUTOMOTIVE FACILITY SYS-4 FLR-1 SCH-E HPLCMT-SOUTH ZN MAIN BRANCH,COIL:HEATING:FUEL,COIL HEATING GAS 7,NODE 149,NODE 148,Air Nodes
 Component Set,40,BRANCH,SYS_4_PSZ_SP-WHOLEBUILDING-AUTOMOTIVE FACILITY SYS-4 FLR-1 SCH-E HPLCMT-SOUTH ZN MAIN BRANCH,FAN:CONSTANTVOLUME,FAN CONSTANT VOLUME 8,NODE 148,NODE 142,Air Nodes
 Component Set,41,BRANCH,SYS_6_VAV WITH REHEAT MAIN BRANCH,FAN:VARIABLEVOLUME,SYS6 RETURN FAN,NODE 220,NODE 233,Air Nodes
 Component Set,42,BRANCH,SYS_6_VAV WITH REHEAT MAIN BRANCH,AIRLOOPHVAC:OUTDOORAIRSYSTEM,AIR LOOP HVAC OUTDOOR AIR SYSTEM 11,NODE 233,NODE 232,Air Nodes
 Component Set,43,BRANCH,SYS_6_VAV WITH REHEAT MAIN BRANCH,COIL:COOLING:WATER,COIL COOLING WATER 2,NODE 232,NODE 231,Air Nodes
 Component Set,44,BRANCH,SYS_6_VAV WITH REHEAT MAIN BRANCH,COIL:HEATING:WATER,COIL HEATING WATER 2,NODE 231,NODE 230,Air Nodes
 Component Set,45,BRANCH,SYS_6_VAV WITH REHEAT MAIN BRANCH,FAN:VARIABLEVOLUME,SYS6 SUPPLY FAN,NODE 230,NODE 221,Air Nodes
 Component Set,46,BRANCH,SYS_6_VAV WITH REHEAT 1 MAIN BRANCH,FAN:VARIABLEVOLUME,SYS6 RETURN FAN 1,NODE 254,NODE 268,Air Nodes
 Component Set,47,BRANCH,SYS_6_VAV WITH REHEAT 1 MAIN BRANCH,AIRLOOPHVAC:OUTDOORAIRSYSTEM,AIR LOOP HVAC OUTDOOR AIR SYSTEM 12,NODE 268,NODE 267,Air Nodes
 Component Set,48,BRANCH,SYS_6_VAV WITH REHEAT 1 MAIN BRANCH,COIL:COOLING:WATER,COIL COOLING WATER 3,NODE 267,NODE 266,Air Nodes
 Component Set,49,BRANCH,SYS_6_VAV WITH REHEAT 1 MAIN BRANCH,COIL:HEATING:WATER,COIL HEATING WATER 6,NODE 266,NODE 265,Air Nodes
 Component Set,50,BRANCH,SYS_6_VAV WITH REHEAT 1 MAIN BRANCH,FAN:VARIABLEVOLUME,SYS6 SUPPLY FAN 1,NODE 265,NODE 255,Air Nodes
 Component Set,51,BRANCH,SYS_6_VAV WITH REHEAT 2 MAIN BRANCH,FAN:VARIABLEVOLUME,SYS6 RETURN FAN 2,NODE 282,NODE 296,Air Nodes
 Component Set,52,BRANCH,SYS_6_VAV WITH REHEAT 2 MAIN BRANCH,AIRLOOPHVAC:OUTDOORAIRSYSTEM,AIR LOOP HVAC OUTDOOR AIR SYSTEM 13,NODE 296,NODE 295,Air Nodes
 Component Set,53,BRANCH,SYS_6_VAV WITH REHEAT 2 MAIN BRANCH,COIL:COOLING:WATER,COIL COOLING WATER 4,NODE 295,NODE 294,Air Nodes
 Component Set,54,BRANCH,SYS_6_VAV WITH REHEAT 2 MAIN BRANCH,COIL:HEATING:WATER,COIL HEATING WATER 9,NODE 294,NODE 293,Air Nodes
 Component Set,55,BRANCH,SYS_6_VAV WITH REHEAT 2 MAIN BRANCH,FAN:VARIABLEVOLUME,SYS6 SUPPLY FAN 2,NODE 293,NODE 283,Air Nodes
 Component Set,56,BRANCH,SYS_6_VAV WITH REHEAT 3 MAIN BRANCH,FAN:VARIABLEVOLUME,SYS6 RETURN FAN 3,NODE 324,NODE 338,Air Nodes
 Component Set,57,BRANCH,SYS_6_VAV WITH REHEAT 3 MAIN BRANCH,AIRLOOPHVAC:OUTDOORAIRSYSTEM,AIR LOOP HVAC OUTDOOR AIR SYSTEM 14,NODE 338,NODE 337,Air Nodes
 Component Set,58,BRANCH,SYS_6_VAV WITH REHEAT 3 MAIN BRANCH,COIL:COOLING:WATER,COIL COOLING WATER 5,NODE 337,NODE 336,Air Nodes
 Component Set,59,BRANCH,SYS_6_VAV WITH REHEAT 3 MAIN BRANCH,COIL:HEATING:WATER,COIL HEATING WATER 14,NODE 336,NODE 335,Air Nodes
 Component Set,60,BRANCH,SYS_6_VAV WITH REHEAT 3 MAIN BRANCH,FAN:VARIABLEVOLUME,SYS6 SUPPLY FAN 3,NODE 335,NODE 325,Air Nodes
 Component Set,61,BRANCH,CHILLED WATER LOOP SUPPLY INLET BRANCH,PUMP:CONSTANTSPEED,PUMP CONSTANT SPEED 1,NODE 34,NODE 40,Water Nodes
 Component Set,62,BRANCH,CHILLED WATER LOOP SUPPLY BRANCH 1,CHILLER:ELECTRIC:EIR,PRIMARY CHILLER WATERCOOLED SCROLL 25TONS 0.8KW/TON,NODE 36,NODE 41,Chilled Water Nodes
 Component Set,63,BRANCH,CHILLED WATER LOOP SUPPLY BRANCH 2,CHILLER:ELECTRIC:EIR,SECONDARY CHILLER WATERCOOLED SCROLL 0TONS 0.8KW/TON,NODE 42,NODE 43,Chilled Water Nodes
 Component Set,64,BRANCH,CHILLED WATER LOOP SUPPLY BRANCH 3,PIPE:ADIABATIC,PIPE ADIABATIC 3,NODE 44,NODE 45,Pipe Nodes
 Component Set,65,BRANCH,CHILLED WATER LOOP SUPPLY OUTLET BRANCH,PIPE:ADIABATIC,PIPE ADIABATIC 4,NODE 46,NODE 35,Pipe Nodes
 Component Set,66,BRANCH,CHILLED WATER LOOP DEMAND INLET BRANCH,PIPE:ADIABATIC,CHILLED WATER LOOP DEMAND INLET PIPE,NODE 37,CHILLED WATER LOOP DEMAND INLET PIPE NODE,Pipe Nodes
 Component Set,67,BRANCH,CHILLED WATER LOOP DEMAND BRANCH 1,COIL:COOLING:WATER,COIL COOLING WATER 1,NODE 39,NODE 72,Water Nodes
 Component Set,68,BRANCH,CHILLED WATER LOOP DEMAND BYPASS BRANCH,PIPE:ADIABATIC,CHILLED WATER LOOP DEMAND BYPASS PIPE,CHILLED WATER LOOP DEMAND BYPASS PIPE INLET NODE,CHILLED WATER LOOP DEMAND BYPASS PIPE OUTLET NODE,Pipe Nodes
 Component Set,69,BRANCH,CHILLED WATER LOOP DEMAND OUTLET BRANCH,PIPE:ADIABATIC,CHILLED WATER LOOP DEMAND OUTLET PIPE,CHILLED WATER LOOP DEMAND OUTLET PIPE NODE,NODE 38,Pipe Nodes
 Component Set,70,BRANCH,CHILLED WATER LOOP 1 SUPPLY INLET BRANCH,PUMP:CONSTANTSPEED,PUMP CONSTANT SPEED 3,NODE 193,NODE 199,Water Nodes
 Component Set,71,BRANCH,CHILLED WATER LOOP 1 SUPPLY BRANCH 1,CHILLER:ELECTRIC:EIR,PRIMARY CHILLER WATERCOOLED SCROLL 1 223TONS 0.7KW/TON,NODE 195,NODE 200,Chilled Water Nodes
 Component Set,72,BRANCH,CHILLED WATER LOOP 1 SUPPLY BRANCH 2,CHILLER:ELECTRIC:EIR,SECONDARY CHILLER WATERCOOLED SCROLL 1 0TONS 0.8KW/TON,NODE 201,NODE 202,Chilled Water Nodes
[...]
 Non-Parent Node Connection,NODE 150,CONTROLLER:OUTDOORAIR,CONTROLLER OUTDOOR AIR 7,Sensor,1
 Non-Parent Node Connection,NODE 146,CONTROLLER:OUTDOORAIR,CONTROLLER OUTDOOR AIR 7,Actuator,1
 Non-Parent Node Connection,NODE 415,CONTROLLER:OUTDOORAIR,CONTROLLER OUTDOOR AIR 7,Actuator,1
 Non-Parent Node Connection,NODE 141,CONTROLLER:OUTDOORAIR,CONTROLLER OUTDOOR AIR 7,Sensor,1
 Non-Parent Node Connection,NODE 232,CONTROLLER:OUTDOORAIR,CONTROLLER OUTDOOR AIR 11,Sensor,1
 Non-Parent Node Connection,NODE 228,CONTROLLER:OUTDOORAIR,CONTROLLER OUTDOOR AIR 11,Actuator,1
 Non-Parent Node Connection,NODE 417,CONTROLLER:OUTDOORAIR,CONTROLLER OUTDOOR AIR 11,Actuator,1
 Non-Parent Node Connection,NODE 233,CONTROLLER:OUTDOORAIR,CONTROLLER OUTDOOR AIR 11,Sensor,1
 Non-Parent Node Connection,NODE 267,CONTROLLER:OUTDOORAIR,CONTROLLER OUTDOOR AIR 12,Sensor,1
 Non-Parent Node Connection,NODE 263,CONTROLLER:OUTDOORAIR,CONTROLLER OUTDOOR AIR 12,Actuator,1
 Non-Parent Node Connection,NODE 419,CONTROLLER:OUTDOORAIR,CONTROLLER OUTDOOR AIR 12,Actuator,1
 Non-Parent Node Connection,NODE 268,CONTROLLER:OUTDOORAIR,CONTROLLER OUTDOOR AIR 12,Sensor,1
 Non-Parent Node Connection,NODE 295,CONTROLLER:OUTDOORAIR,CONTROLLER OUTDOOR AIR 13,Sensor,1
 Non-Parent Node Connection,NODE 291,CONTROLLER:OUTDOORAIR,CONTROLLER OUTDOOR AIR 13,Actuator,1
 Non-Parent Node Connection,NODE 421,CONTROLLER:OUTDOORAIR,CONTROLLER OUTDOOR AIR 13,Actuator,1
 Non-Parent Node Connection,NODE 296,CONTROLLER:OUTDOORAIR,CONTROLLER OUTDOOR AIR 13,Sensor,1
 Non-Parent Node Connection,NODE 337,CONTROLLER:OUTDOORAIR,CONTROLLER OUTDOOR AIR 14,Sensor,1
 Non-Parent Node Connection,NODE 333,CONTROLLER:OUTDOORAIR,CONTROLLER OUTDOOR AIR 14,Actuator,1
 Non-Parent Node Connection,NODE 423,CONTROLLER:OUTDOORAIR,CONTROLLER OUTDOOR AIR 14,Actuator,1
 Non-Parent Node Connection,NODE 338,CONTROLLER:OUTDOORAIR,CONTROLLER OUTDOOR AIR 14,Sensor,1
 Non-Parent Node Connection,NODE 66,HEATEXCHANGER:AIRTOAIR:SENSIBLEANDLATENT,SYS_2_MAKE-UP AIR UNIT ERV,Inlet,1
 Non-Parent Node Connection,NODE 396,HEATEXCHANGER:AIRTOAIR:SENSIBLEANDLATENT,SYS_2_MAKE-UP AIR UNIT ERV,Outlet,1
 Non-Parent Node Connection,NODE 397,HEATEXCHANGER:AIRTOAIR:SENSIBLEANDLATENT,SYS_2_MAKE-UP AIR UNIT ERV,Inlet,2
 Non-Parent Node Connection,NODE 67,HEATEXCHANGER:AIRTOAIR:SENSIBLEANDLATENT,SYS_2_MAKE-UP AIR UNIT ERV,Outlet,2
 Non-Parent Node Connection,NODE 107,HEATEXCHANGER:AIRTOAIR:SENSIBLEANDLATENT,SYS_3_PSZ SP-RELIGIOUS BUILDING FELLOWSHIP HALL-SPACE FUNCTION SYS-3 FLR-4 SCH-C HPLCMT-SOUTH ZN ERV,Inlet,1
 Non-Parent Node Connection,NODE 398,HEATEXCHANGER:AIRTOAIR:SENSIBLEANDLATENT,SYS_3_PSZ SP-RELIGIOUS BUILDING FELLOWSHIP HALL-SPACE FUNCTION SYS-3 FLR-4 SCH-C HPLCMT-SOUTH ZN ERV,Outlet,1
 Non-Parent Node Connection,NODE 399,HEATEXCHANGER:AIRTOAIR:SENSIBLEANDLATENT,SYS_3_PSZ SP-RELIGIOUS BUILDING FELLOWSHIP HALL-SPACE FUNCTION SYS-3 FLR-4 SCH-C HPLCMT-SOUTH ZN ERV,Inlet,2
 Non-Parent Node Connection,NODE 108,HEATEXCHANGER:AIRTOAIR:SENSIBLEANDLATENT,SYS_3_PSZ SP-RELIGIOUS BUILDING FELLOWSHIP HALL-SPACE FUNCTION SYS-3 FLR-4 SCH-C HPLCMT-SOUTH ZN ERV,Outlet,2
 Non-Parent Node Connection,NODE 94,HEATEXCHANGER:AIRTOAIR:SENSIBLEANDLATENT,SYS_3_PSZ SP-RELIGIOUS BUILDING WORSHIP/PULPIT/CHOIR AREA-SPACE FUNCTION SYS-3 FLR-3 SCH-I HPLCMT-SOUTH ZN ERV,Inlet,1
 Non-Parent Node Connection,NODE 400,HEATEXCHANGER:AIRTOAIR:SENSIBLEANDLATENT,SYS_3_PSZ SP-RELIGIOUS BUILDING WORSHIP/PULPIT/CHOIR AREA-SPACE FUNCTION SYS-3 FLR-3 SCH-I HPLCMT-SOUTH ZN ERV,Outlet,1
 Non-Parent Node Connection,NODE 401,HEATEXCHANGER:AIRTOAIR:SENSIBLEANDLATENT,SYS_3_PSZ SP-RELIGIOUS BUILDING WORSHIP/PULPIT/CHOIR AREA-SPACE FUNCTION SYS-3 FLR-3 SCH-I HPLCMT-SOUTH ZN ERV,Inlet,2
 Non-Parent Node Connection,NODE 95,HEATEXCHANGER:AIRTOAIR:SENSIBLEANDLATENT,SYS_3_PSZ SP-RELIGIOUS BUILDING WORSHIP/PULPIT/CHOIR AREA-SPACE FUNCTION SYS-3 FLR-3 SCH-I HPLCMT-SOUTH ZN ERV,Outlet,2
 Non-Parent Node Connection,NODE 120,HEATEXCHANGER:AIRTOAIR:SENSIBLEANDLATENT,SYS_3_PSZ SP-SPACE DESIGNED TO ANSI/IES RP-28 CHAPEL (USED PRIMARILY BY RESIDENTS)-SPACE FUNCTION SYS-3 FLR-4 SCH-I HPLCMT-WEST ZN ERV,Inlet,1
 Non-Parent Node Connection,NODE 402,HEATEXCHANGER:AIRTOAIR:SENSIBLEANDLATENT,SYS_3_PSZ SP-SPACE DESIGNED TO ANSI/IES RP-28 CHAPEL (USED PRIMARILY BY RESIDENTS)-SPACE FUNCTION SYS-3 FLR-4 SCH-I HPLCMT-WEST ZN ERV,Outlet,1
 Non-Parent Node Connection,NODE 403,HEATEXCHANGER:AIRTOAIR:SENSIBLEANDLATENT,SYS_3_PSZ SP-SPACE DESIGNED TO ANSI/IES RP-28 CHAPEL (USED PRIMARILY BY RESIDENTS)-SPACE FUNCTION SYS-3 FLR-4 SCH-I HPLCMT-WEST ZN ERV,Inlet,2
 Non-Parent Node Connection,NODE 121,HEATEXCHANGER:AIRTOAIR:SENSIBLEANDLATENT,SYS_3_PSZ SP-SPACE DESIGNED TO ANSI/IES RP-28 CHAPEL (USED PRIMARILY BY RESIDENTS)-SPACE FUNCTION SYS-3 FLR-4 SCH-I HPLCMT-WEST ZN ERV,Outlet,2
 Non-Parent Node Connection,NODE 81,HEATEXCHANGER:AIRTOAIR:SENSIBLEANDLATENT,SYS_3_PSZ SP-SPACE DESIGNED TO ANSI/IES RP-28 RECREATION ROOM (USED PRIMARILY BY RESIDENTS)-SPACE FUNCTION SYS-3 FLR-2 SCH-B HPLCMT-NORTH ZN ERV,Inlet,1
 Non-Parent Node Connection,NODE 404,HEATEXCHANGER:AIRTOAIR:SENSIBLEANDLATENT,SYS_3_PSZ SP-SPACE DESIGNED TO ANSI/IES RP-28 RECREATION ROOM (USED PRIMARILY BY RESIDENTS)-SPACE FUNCTION SYS-3 FLR-2 SCH-B HPLCMT-NORTH ZN ERV,Outlet,1
 Non-Parent Node Connection,NODE 405,HEATEXCHANGER:AIRTOAIR:SENSIBLEANDLATENT,SYS_3_PSZ SP-SPACE DESIGNED TO ANSI/IES RP-28 RECREATION ROOM (USED PRIMARILY BY RESIDENTS)-SPACE FUNCTION SYS-3 FLR-2 SCH-B HPLCMT-NORTH ZN ERV,Inlet,2
 Non-Parent Node Connection,NODE 82,HEATEXCHANGER:AIRTOAIR:SENSIBLEANDLATENT,SYS_3_PSZ SP-SPACE DESIGNED TO ANSI/IES RP-28 RECREATION ROOM (USED PRIMARILY BY RESIDENTS)-SPACE FUNCTION SYS-3 FLR-2 SCH-B HPLCMT-NORTH ZN ERV,Outlet,2
 Non-Parent Node Connection,NODE 133,HEATEXCHANGER:AIRTOAIR:SENSIBLEANDLATENT,SYS_4_PSZ_SP-WAREHOUSE STORAGE AREA MEDIUM TO BULKY PALLETIZED ITEMS-SPACE FUNCTION SYS-4 FLR-1 SCH-A HPLCMT-CORE ZN ERV,Inlet,1
 Non-Parent Node Connection,NODE 406,HEATEXCHANGER:AIRTOAIR:SENSIBLEANDLATENT,SYS_4_PSZ_SP-WAREHOUSE STORAGE AREA MEDIUM TO BULKY PALLETIZED ITEMS-SPACE FUNCTION SYS-4 FLR-1 SCH-A HPLCMT-CORE ZN ERV,Outlet,1
 Non-Parent Node Connection,NODE 407,HEATEXCHANGER:AIRTOAIR:SENSIBLEANDLATENT,SYS_4_PSZ_SP-WAREHOUSE STORAGE AREA MEDIUM TO BULKY PALLETIZED ITEMS-SPACE FUNCTION SYS-4 FLR-1 SCH-A HPLCMT-CORE ZN ERV,Inlet,2
 Non-Parent Node Connection,NODE 134,HEATEXCHANGER:AIRTOAIR:SENSIBLEANDLATENT,SYS_4_PSZ_SP-WAREHOUSE STORAGE AREA MEDIUM TO BULKY PALLETIZED ITEMS-SPACE FUNCTION SYS-4 FLR-1 SCH-A HPLCMT-CORE ZN ERV,Outlet,2
 Non-Parent Node Connection,NODE 185,HEATEXCHANGER:AIRTOAIR:SENSIBLEANDLATENT,SYS_4_PSZ_SP-WAREHOUSE STORAGE AREA SMALL HAND-CARRIED ITEMS(4)-SPACE FUNCTION SYS-4 FLR-4 SCH-A HPLCMT-NORTH ZN ERV,Inlet,1
 Non-Parent Node Connection,NODE 408,HEATEXCHANGER:AIRTOAIR:SENSIBLEANDLATENT,SYS_4_PSZ_SP-WAREHOUSE STORAGE AREA SMALL HAND-CARRIED ITEMS(4)-SPACE FUNCTION SYS-4 FLR-4 SCH-A HPLCMT-NORTH ZN ERV,Outlet,1
 Non-Parent Node Connection,NODE 409,HEATEXCHANGER:AIRTOAIR:SENSIBLEANDLATENT,SYS_4_PSZ_SP-WAREHOUSE STORAGE AREA SMALL HAND-CARRIED ITEMS(4)-SPACE FUNCTION SYS-4 FLR-4 SCH-A HPLCMT-NORTH ZN ERV,Inlet,2
 Non-Parent Node Connection,NODE 186,HEATEXCHANGER:AIRTOAIR:SENSIBLEANDLATENT,SYS_4_PSZ_SP-WAREHOUSE STORAGE AREA SMALL HAND-CARRIED ITEMS(4)-SPACE FUNCTION SYS-4 FLR-4 SCH-A HPLCMT-NORTH ZN ERV,Outlet,2
 Non-Parent Node Connection,NODE 159,HEATEXCHANGER:AIRTOAIR:SENSIBLEANDLATENT,SYS_4_PSZ_SP-WHOLEBUILDING-AUTOMOTIVE FACILITY 1 SYS-4 FLR-2 SCH-E HPLCMT-WEST ZN ERV,Inlet,1
 Non-Parent Node Connection,NODE 410,HEATEXCHANGER:AIRTOAIR:SENSIBLEANDLATENT,SYS_4_PSZ_SP-WHOLEBUILDING-AUTOMOTIVE FACILITY 1 SYS-4 FLR-2 SCH-E HPLCMT-WEST ZN ERV,Outlet,1
 Non-Parent Node Connection,NODE 411,HEATEXCHANGER:AIRTOAIR:SENSIBLEANDLATENT,SYS_4_PSZ_SP-WHOLEBUILDING-AUTOMOTIVE FACILITY 1 SYS-4 FLR-2 SCH-E HPLCMT-WEST ZN ERV,Inlet,2
 Non-Parent Node Connection,NODE 160,HEATEXCHANGER:AIRTOAIR:SENSIBLEANDLATENT,SYS_4_PSZ_SP-WHOLEBUILDING-AUTOMOTIVE FACILITY 1 SYS-4 FLR-2 SCH-E HPLCMT-WEST ZN ERV,Outlet,2
 Non-Parent Node Connection,NODE 172,HEATEXCHANGER:AIRTOAIR:SENSIBLEANDLATENT,SYS_4_PSZ_SP-WHOLEBUILDING-AUTOMOTIVE FACILITY 2 SYS-4 FLR-2 SCH-E HPLCMT-SOUTH ZN ERV,Inlet,1
 Non-Parent Node Connection,NODE 412,HEATEXCHANGER:AIRTOAIR:SENSIBLEANDLATENT,SYS_4_PSZ_SP-WHOLEBUILDING-AUTOMOTIVE FACILITY 2 SYS-4 FLR-2 SCH-E HPLCMT-SOUTH ZN ERV,Outlet,1
 Non-Parent Node Connection,NODE 413,HEATEXCHANGER:AIRTOAIR:SENSIBLEANDLATENT,SYS_4_PSZ_SP-WHOLEBUILDING-AUTOMOTIVE FACILITY 2 SYS-4 FLR-2 SCH-E HPLCMT-SOUTH ZN ERV,Inlet,2
 Non-Parent Node Connection,NODE 173,HEATEXCHANGER:AIRTOAIR:SENSIBLEANDLATENT,SYS_4_PSZ_SP-WHOLEBUILDING-AUTOMOTIVE FACILITY 2 SYS-4 FLR-2 SCH-E HPLCMT-SOUTH ZN ERV,Outlet,2
 Non-Parent Node Connection,NODE 146,HEATEXCHANGER:AIRTOAIR:SENSIBLEANDLATENT,SYS_4_PSZ_SP-WHOLEBUILDING-AUTOMOTIVE FACILITY SYS-4 FLR-1 SCH-E HPLCMT-SOUTH ZN ERV,Inlet,1
 Non-Parent Node Connection,NODE 414,HEATEXCHANGER:AIRTOAIR:SENSIBLEANDLATENT,SYS_4_PSZ_SP-WHOLEBUILDING-AUTOMOTIVE FACILITY SYS-4 FLR-1 SCH-E HPLCMT-SOUTH ZN ERV,Outlet,1
 Non-Parent Node Connection,NODE 415,HEATEXCHANGER:AIRTOAIR:SENSIBLEANDLATENT,SYS_4_PSZ_SP-WHOLEBUILDING-AUTOMOTIVE FACILITY SYS-4 FLR-1 SCH-E HPLCMT-SOUTH ZN ERV,Inlet,2
 Non-Parent Node Connection,NODE 147,HEATEXCHANGER:AIRTOAIR:SENSIBLEANDLATENT,SYS_4_PSZ_SP-WHOLEBUILDING-AUTOMOTIVE FACILITY SYS-4 FLR-1 SCH-E HPLCMT-SOUTH ZN ERV,Outlet,2
 Non-Parent Node Connection,NODE 228,HEATEXCHANGER:AIRTOAIR:SENSIBLEANDLATENT,SYS_6_VAV WITH REHEAT ERV,Inlet,1
 Non-Parent Node Connection,NODE 416,HEATEXCHANGER:AIRTOAIR:SENSIBLEANDLATENT,SYS_6_VAV WITH REHEAT ERV,Outlet,1
 Non-Parent Node Connection,NODE 417,HEATEXCHANGER:AIRTOAIR:SENSIBLEANDLATENT,SYS_6_VAV WITH REHEAT ERV,Inlet,2
 Non-Parent Node Connection,NODE 229,HEATEXCHANGER:AIRTOAIR:SENSIBLEANDLATENT,SYS_6_VAV WITH REHEAT ERV,Outlet,2
 Non-Parent Node Connection,NODE 263,HEATEXCHANGER:AIRTOAIR:SENSIBLEANDLATENT,SYS_6_VAV WITH REHEAT 1 ERV,Inlet,1
 Non-Parent Node Connection,NODE 418,HEATEXCHANGER:AIRTOAIR:SENSIBLEANDLATENT,SYS_6_VAV WITH REHEAT 1 ERV,Outlet,1
 Non-Parent Node Connection,NODE 419,HEATEXCHANGER:AIRTOAIR:SENSIBLEANDLATENT,SYS_6_VAV WITH REHEAT 1 ERV,Inlet,2
 Non-Parent Node Connection,NODE 264,HEATEXCHANGER:AIRTOAIR:SENSIBLEANDLATENT,SYS_6_VAV WITH REHEAT 1 ERV,Outlet,2
 Non-Parent Node Connection,NODE 291,HEATEXCHANGER:AIRTOAIR:SENSIBLEANDLATENT,SYS_6_VAV WITH REHEAT 2 ERV,Inlet,1
 Non-Parent Node Connection,NODE 420,HEATEXCHANGER:AIRTOAIR:SENSIBLEANDLATENT,SYS_6_VAV WITH REHEAT 2 ERV,Outlet,1
 Non-Parent Node Connection,NODE 421,HEATEXCHANGER:AIRTOAIR:SENSIBLEANDLATENT,SYS_6_VAV WITH REHEAT 2 ERV,Inlet,2
 Non-Parent Node Connection,NODE 292,HEATEXCHANGER:AIRTOAIR:SENSIBLEANDLATENT,SYS_6_VAV WITH REHEAT 2 ERV,Outlet,2
 Non-Parent Node Connection,NODE 333,HEATEXCHANGER:AIRTOAIR:SENSIBLEANDLATENT,SYS_6_VAV WITH REHEAT 3 ERV,Inlet,1
 Non-Parent Node Connection,NODE 422,HEATEXCHANGER:AIRTOAIR:SENSIBLEANDLATENT,SYS_6_VAV WITH REHEAT 3 ERV,Outlet,1
 Non-Parent Node Connection,NODE 423,HEATEXCHANGER:AIRTOAIR:SENSIBLEANDLATENT,SYS_6_VAV WITH REHEAT 3 ERV,Inlet,2
 Non-Parent Node Connection,NODE 334,HEATEXCHANGER:AIRTOAIR:SENSIBLEANDLATENT,SYS_6_VAV WITH REHEAT 3 ERV,Outlet,2
 Non-Parent Node Connection,NODE 70,COIL:COOLING:DX:SINGLESPEED,COIL COOLING DX SINGLE SPEED 1 308KBTU/HR 8.21EER,Inlet,1
 Non-Parent Node Connection,NODE 69,COIL:COOLING:DX:SINGLESPEED,COIL COOLING DX SINGLE SPEED 1 308KBTU/HR 8.21EER,Outlet,1
 Non-Parent Node Connection,NODE 111,COIL:COOLING:DX:SINGLESPEED,COIL COOLING DX SINGLE SPEED 4 397KBTU/HR 8.21EER,Inlet,1
 Non-Parent Node Connection,NODE 110,COIL:COOLING:DX:SINGLESPEED,COIL COOLING DX SINGLE SPEED 4 397KBTU/HR 8.21EER,Outlet,1
 Non-Parent Node Connection,NODE 98,COIL:COOLING:DX:SINGLESPEED,COIL COOLING DX SINGLE SPEED 3 404KBTU/HR 8.21EER,Inlet,1
 Non-Parent Node Connection,NODE 97,COIL:COOLING:DX:SINGLESPEED,COIL COOLING DX SINGLE SPEED 3 404KBTU/HR 8.21EER,Outlet,1
 Non-Parent Node Connection,NODE 124,COIL:COOLING:DX:SINGLESPEED,COIL COOLING DX SINGLE SPEED 5 404KBTU/HR 8.21EER,Inlet,1
 Non-Parent Node Connection,NODE 123,COIL:COOLING:DX:SINGLESPEED,COIL COOLING DX SINGLE SPEED 5 404KBTU/HR 8.21EER,Outlet,1
 Non-Parent Node Connection,NODE 85,COIL:COOLING:DX:SINGLESPEED,COIL COOLING DX SINGLE SPEED 2 387KBTU/HR 8.21EER,Inlet,1
 Non-Parent Node Connection,NODE 84,COIL:COOLING:DX:SINGLESPEED,COIL COOLING DX SINGLE SPEED 2 387KBTU/HR 8.21EER,Outlet,1
 Non-Parent Node Connection,NODE 137,COIL:COOLING:DX:SINGLESPEED,COIL COOLING DX SINGLE SPEED 6 97KBTU/HR 9.26EER,Inlet,1
 Non-Parent Node Connection,NODE 136,COIL:COOLING:DX:SINGLESPEED,COIL COOLING DX SINGLE SPEED 6 97KBTU/HR 9.26EER,Outlet,1
 Non-Parent Node Connection,NODE 189,COIL:COOLING:DX:SINGLESPEED,COIL COOLING DX SINGLE SPEED 10 203KBTU/HR 9.08EER,Inlet,1
 Non-Parent Node Connection,NODE 188,COIL:COOLING:DX:SINGLESPEED,COIL COOLING DX SINGLE SPEED 10 203KBTU/HR 9.08EER,Outlet,1
 Non-Parent Node Connection,NODE 163,COIL:COOLING:DX:SINGLESPEED,COIL COOLING DX SINGLE SPEED 8 215KBTU/HR 9.08EER,Inlet,1
 Non-Parent Node Connection,NODE 162,COIL:COOLING:DX:SINGLESPEED,COIL COOLING DX SINGLE SPEED 8 215KBTU/HR 9.08EER,Outlet,1
 Non-Parent Node Connection,NODE 176,COIL:COOLING:DX:SINGLESPEED,COIL COOLING DX SINGLE SPEED 9 208KBTU/HR 9.08EER,Inlet,1
 Non-Parent Node Connection,NODE 175,COIL:COOLING:DX:SINGLESPEED,COIL COOLING DX SINGLE SPEED 9 208KBTU/HR 9.08EER,Outlet,1
 Non-Parent Node Connection,NODE 150,COIL:COOLING:DX:SINGLESPEED,COIL COOLING DX SINGLE SPEED 7 133KBTU/HR 9.26EER,Inlet,1
 Non-Parent Node Connection,NODE 149,COIL:COOLING:DX:SINGLESPEED,COIL COOLING DX SINGLE SPEED 7 133KBTU/HR 9.26EER,Outlet,1
 Non-Parent Node Connection,NODE 69,COIL:HEATING:FUEL,COIL HEATING GAS 1,Inlet,1
 Non-Parent Node Connection,NODE 68,COIL:HEATING:FUEL,COIL HEATING GAS 1,Outlet,1
 Non-Parent Node Connection,NODE 68,COIL:HEATING:FUEL,COIL HEATING GAS 1,Sensor,1
 Non-Parent Node Connection,NODE 110,COIL:HEATING:FUEL,COIL HEATING GAS 4,Inlet,1
 Non-Parent Node Connection,NODE 109,COIL:HEATING:FUEL,COIL HEATING GAS 4,Outlet,1
 Non-Parent Node Connection,NODE 109,COIL:HEATING:FUEL,COIL HEATING GAS 4,Sensor,1
 Non-Parent Node Connection,NODE 97,COIL:HEATING:FUEL,COIL HEATING GAS 3,Inlet,1
 Non-Parent Node Connection,NODE 96,COIL:HEATING:FUEL,COIL HEATING GAS 3,Outlet,1
 Non-Parent Node Connection,NODE 96,COIL:HEATING:FUEL,COIL HEATING GAS 3,Sensor,1
 Non-Parent Node Connection,NODE 123,COIL:HEATING:FUEL,COIL HEATING GAS 5,Inlet,1
 Non-Parent Node Connection,NODE 122,COIL:HEATING:FUEL,COIL HEATING GAS 5,Outlet,1
 Non-Parent Node Connection,NODE 122,COIL:HEATING:FUEL,COIL HEATING GAS 5,Sensor,1
 Non-Parent Node Connection,NODE 84,COIL:HEATING:FUEL,COIL HEATING GAS 2,Inlet,1
 Non-Parent Node Connection,NODE 83,COIL:HEATING:FUEL,COIL HEATING GAS 2,Outlet,1
 Non-Parent Node Connection,NODE 83,COIL:HEATING:FUEL,COIL HEATING GAS 2,Sensor,1
 Non-Parent Node Connection,NODE 136,COIL:HEATING:FUEL,COIL HEATING GAS 6,Inlet,1
 Non-Parent Node Connection,NODE 135,COIL:HEATING:FUEL,COIL HEATING GAS 6,Outlet,1
 Non-Parent Node Connection,NODE 135,COIL:HEATING:FUEL,COIL HEATING GAS 6,Sensor,1
 Non-Parent Node Connection,NODE 188,COIL:HEATING:FUEL,COIL HEATING GAS 10,Inlet,1
 Non-Parent Node Connection,NODE 187,COIL:HEATING:FUEL,COIL HEATING GAS 10,Outlet,1
 Non-Parent Node Connection,NODE 187,COIL:HEATING:FUEL,COIL HEATING GAS 10,Sensor,1
 Non-Parent Node Connection,NODE 162,COIL:HEATING:FUEL,COIL HEATING GAS 8,Inlet,1
 Non-Parent Node Connection,NODE 161,COIL:HEATING:FUEL,COIL HEATING GAS 8,Outlet,1
 Non-Parent Node Connection,NODE 161,COIL:HEATING:FUEL,COIL HEATING GAS 8,Sensor,1
 Non-Parent Node Connection,NODE 175,COIL:HEATING:FUEL,COIL HEATING GAS 9,Inlet,1
 Non-Parent Node Connection,NODE 174,COIL:HEATING:FUEL,COIL HEATING GAS 9,Outlet,1
 Non-Parent Node Connection,NODE 174,COIL:HEATING:FUEL,COIL HEATING GAS 9,Sensor,1
 Non-Parent Node Connection,NODE 149,COIL:HEATING:FUEL,COIL HEATING GAS 7,Inlet,1
 Non-Parent Node Connection,NODE 148,COIL:HEATING:FUEL,COIL HEATING GAS 7,Outlet,1
 Non-Parent Node Connection,NODE 148,COIL:HEATING:FUEL,COIL HEATING GAS 7,Sensor,1
 Non-Parent Node Connection,NODE 36,CHILLER:ELECTRIC:EIR,PRIMARY CHILLER WATERCOOLED SCROLL 25TONS 0.8KW/TON,Inlet,1
 Non-Parent Node Connection,NODE 41,CHILLER:ELECTRIC:EIR,PRIMARY CHILLER WATERCOOLED SCROLL 25TONS 0.8KW/TON,Outlet,1
 Non-Parent Node Connection,NODE 52,CHILLER:ELECTRIC:EIR,PRIMARY CHILLER WATERCOOLED SCROLL 25TONS 0.8KW/TON,Inlet,2
 Non-Parent Node Connection,NODE 58,CHILLER:ELECTRIC:EIR,PRIMARY CHILLER WATERCOOLED SCROLL 25TONS 0.8KW/TON,Outlet,2
 Non-Parent Node Connection,NODE 42,CHILLER:ELECTRIC:EIR,SECONDARY CHILLER WATERCOOLED SCROLL 0TONS 0.8KW/TON,Inlet,1
 Non-Parent Node Connection,NODE 43,CHILLER:ELECTRIC:EIR,SECONDARY CHILLER WATERCOOLED SCROLL 0TONS 0.8KW/TON,Outlet,1
 Non-Parent Node Connection,NODE 59,CHILLER:ELECTRIC:EIR,SECONDARY CHILLER WATERCOOLED SCROLL 0TONS 0.8KW/TON,Inlet,2
 Non-Parent Node Connection,NODE 60,CHILLER:ELECTRIC:EIR,SECONDARY CHILLER WATERCOOLED SCROLL 0TONS 0.8KW/TON,Outlet,2
 Non-Parent Node Connection,NODE 195,CHILLER:ELECTRIC:EIR,PRIMARY CHILLER WATERCOOLED SCROLL 1 223TONS 0.7KW/TON,Inlet,1
 Non-Parent Node Connection,NODE 200,CHILLER:ELECTRIC:EIR,PRIMARY CHILLER WATERCOOLED SCROLL 1 223TONS 0.7KW/TON,Outlet,1
 Non-Parent Node Connection,NODE 211,CHILLER:ELECTRIC:EIR,PRIMARY CHILLER WATERCOOLED SCROLL 1 223TONS 0.7KW/TON,Inlet,2
 Non-Parent Node Connection,NODE 217,CHILLER:ELECTRIC:EIR,PRIMARY CHILLER WATERCOOLED SCROLL 1 223TONS 0.7KW/TON,Outlet,2
 Non-Parent Node Connection,NODE 201,CHILLER:ELECTRIC:EIR,SECONDARY CHILLER WATERCOOLED SCROLL 1 0TONS 0.8KW/TON,Inlet,1
 Non-Parent Node Connection,NODE 202,CHILLER:ELECTRIC:EIR,SECONDARY CHILLER WATERCOOLED SCROLL 1 0TONS 0.8KW/TON,Outlet,1
 Non-Parent Node Connection,NODE 218,CHILLER:ELECTRIC:EIR,SECONDARY CHILLER WATERCOOLED SCROLL 1 0TONS 0.8KW/TON,Inlet,2
 Non-Parent Node Connection,NODE 219,CHILLER:ELECTRIC:EIR,SECONDARY CHILLER WATERCOOLED SCROLL 1 0TONS 0.8KW/TON,Outlet,2
 Non-Parent Node Connection,NODE 49,COOLINGTOWER:SINGLESPEED,COOLING TOWER SINGLE SPEED 1,Inlet,1
 Non-Parent Node Connection,NODE 54,COOLINGTOWER:SINGLESPEED,COOLING TOWER SINGLE SPEED 1,Outlet,1
 Non-Parent Node Connection,NODE 208,COOLINGTOWER:SINGLESPEED,COOLING TOWER SINGLE SPEED 2,Inlet,1
 Non-Parent Node Connection,NODE 213,COOLINGTOWER:SINGLESPEED,COOLING TOWER SINGLE SPEED 2,Outlet,1
 Non-Parent Node Connection,NODE 23,BOILER:HOTWATER,PRIMARY BOILER 5031KBTU/HR 0.833 COMBUSTION EFF,Inlet,1
 Non-Parent Node Connection,NODE 28,BOILER:HOTWATER,PRIMARY BOILER 5031KBTU/HR 0.833 COMBUSTION EFF,Outlet,1
 Non-Parent Node Connection,NODE 29,BOILER:HOTWATER,SECONDARY BOILER 0KBTU/HR 0.85 AFUE,Inlet,1
 Non-Parent Node Connection,NODE 30,BOILER:HOTWATER,SECONDARY BOILER 0KBTU/HR 0.85 AFUE,Outlet,1
 Non-Parent Node Connection,NODE 21,PUMP:VARIABLESPEED,PUMP VARIABLE SPEED 1,Inlet,1
 Non-Parent Node Connection,NODE 27,PUMP:VARIABLESPEED,PUMP VARIABLE SPEED 1,Outlet,1
 Non-Parent Node Connection,NODE 34,PUMP:CONSTANTSPEED,PUMP CONSTANT SPEED 1,Inlet,1
 Non-Parent Node Connection,NODE 40,PUMP:CONSTANTSPEED,PUMP CONSTANT SPEED 1,Outlet,1
 Non-Parent Node Connection,NODE 193,PUMP:CONSTANTSPEED,PUMP CONSTANT SPEED 3,Inlet,1
 Non-Parent Node Connection,NODE 199,PUMP:CONSTANTSPEED,PUMP CONSTANT SPEED 3,Outlet,1
 Non-Parent Node Connection,NODE 47,PUMP:CONSTANTSPEED,PUMP CONSTANT SPEED 2,Inlet,1
 Non-Parent Node Connection,NODE 53,PUMP:CONSTANTSPEED,PUMP CONSTANT SPEED 2,Outlet,1
 Non-Parent Node Connection,NODE 206,PUMP:CONSTANTSPEED,PUMP CONSTANT SPEED 4,Inlet,1
 Non-Parent Node Connection,NODE 212,PUMP:CONSTANTSPEED,PUMP CONSTANT SPEED 4,Outlet,1
 Non-Parent Node Connection,NODE 345,PUMP:CONSTANTSPEED,SERVICE WATER LOOP PUMP,Inlet,1
 Non-Parent Node Connection,NODE 351,PUMP:CONSTANTSPEED,SERVICE WATER LOOP PUMP,Outlet,1
