Program Version,EnergyPlus, Version 8.9.0-eba93e8e1b, YMD=2019.03.20 17:53
! <Version>, Version ID
 Version, 8.9
! <Timesteps per Hour>, #TimeSteps, Minutes per TimeStep {minutes}
 Timesteps per Hour,  6, 10
! <System Convergence Limits>, Minimum System TimeStep {minutes}, Max HVAC Iterations, Minimum Plant Iterations, Maximum Plant Iterations
 System Convergence Limits, 1, 20, 2, 8
! <Simulation Control>, Do Zone Sizing, Do System Sizing, Do Plant Sizing, Do Design Days, Do Weather Simulation, Do HVAC Sizing Simulation
 Simulation Control, Yes, Yes, Yes, Yes, No, No
! <Output Reporting Tolerances>, Tolerance for Time Heating Setpoint Not Met, Tolerance for Zone Cooling Setpoint Not Met Time
 Output Reporting Tolerances, 1.000, 1.000, 
! <Site:GroundTemperature:BuildingSurface>,Jan{C},Feb{C},Mar{C},Apr{C},May{C},Jun{C},Jul{C},Aug{C},Sep{C},Oct{C},Nov{C},Dec{C}
 Site:GroundTemperature:BuildingSurface,  19.53,  19.50,  19.54,  19.60,  20.00,  21.64,  22.23,  22.38,  21.45,  20.12,  19.80,  19.63
! <Site:GroundTemperature:FCfactorMethod>,Jan{C},Feb{C},Mar{C},Apr{C},May{C},Jun{C},Jul{C},Aug{C},Sep{C},Oct{C},Nov{C},Dec{C}
 Site:GroundTemperature:FCfactorMethod, -12.27, -13.66, -11.19,  -7.33,   2.77,  10.57,  15.83,  17.43,  14.70,   8.65,   0.56,  -6.95
! <Site:GroundTemperature:Shallow>,Jan{C},Feb{C},Mar{C},Apr{C},May{C},Jun{C},Jul{C},Aug{C},Sep{C},Oct{C},Nov{C},Dec{C}
 Site:GroundTemperature:Shallow,  13.00,  13.00,  13.00,  13.00,  13.00,  13.00,  13.00,  13.00,  13.00,  13.00,  13.00,  13.00
! <Site:GroundTemperature:Deep>,Jan{C},Feb{C},Mar{C},Apr{C},May{C},Jun{C},Jul{C},Aug{C},Sep{C},Oct{C},Nov{C},Dec{C}
 Site:GroundTemperature:Deep,  16.00,  16.00,  16.00,  16.00,  16.00,  16.00,  16.00,  16.00,  16.00,  16.00,  16.00,  16.00
! <Site:GroundReflectance>,Jan{dimensionless},Feb{dimensionless},Mar{dimensionless},Apr{dimensionless},May{dimensionless},Jun{dimensionless},Jul{dimensionless},Aug{dimensionless},Sep{dimensionless},Oct{dimensionless},Nov{dimensionless},Dec{dimensionless}
 Site:GroundReflectance,  0.20,  0.20,  0.20,  0.20,  0.20,  0.20,  0.20,  0.20,  0.20,  0.20,  0.20,  0.20
! <Site:GroundReflectance:SnowModifier>, Normal, Daylighting {dimensionless}
 Site:GroundReflectance:SnowModifier,   1.000,   1.000
! <Site:GroundReflectance:Snow>,Jan{dimensionless},Feb{dimensionless},Mar{dimensionless},Apr{dimensionless},May{dimensionless},Jun{dimensionless},Jul{dimensionless},Aug{dimensionless},Sep{dimensionless},Oct{dimensionless},Nov{dimensionless},Dec{dimensionless}
 Site:GroundReflectance:Snow,  0.20,  0.20,  0.20,  0.20,  0.20,  0.20,  0.20,  0.20,  0.20,  0.20,  0.20,  0.20
! <Site:GroundReflectance:Snow:Daylighting>,Jan{dimensionless},Feb{dimensionless},Mar{dimensionless},Apr{dimensionless},May{dimensionless},Jun{dimensionless},Jul{dimensionless},Aug{dimensionless},Sep{dimensionless},Oct{dimensionless},Nov{dimensionless},Dec{dimensionless}
 Site:GroundReflectance:Snow:Daylighting,  0.20,  0.20,  0.20,  0.20,  0.20,  0.20,  0.20,  0.20,  0.20,  0.20,  0.20,  0.20
! <Environment:Weather Station>,Wind Sensor Height Above Ground {m},Wind Speed Profile Exponent {},Wind Speed Profile Boundary Layer Thickness {m},Air Temperature Sensor Height Above Ground {m},Wind Speed Modifier Coefficient-Internal,Temperature Modifier Coefficient-Internal
Environment:Weather Station,10.000,0.140,270.000,1.500,1.586,9.750E-003
! <Site:Location>, Location Name, Latitude {N+/S- Deg}, Longitude {E+/W- Deg},  Time Zone Number {GMT+/-}, Elevation {m},  Standard Pressure at Elevation {Pa}, Standard RhoAir at Elevation
Site:Location,Fort McMurray AP AB CAN CWEC2016 WMO#=716890,56.65,-111.22,-7.00,369.10,96969,1.1525
! <Building Information>, Building Name,North Axis {deg},Terrain,  Loads Convergence Tolerance Value,Temperature Convergence Tolerance Value,  Solar Distribution,Maximum Number of Warmup Days,Minimum Number of Warmup Days
 Building Information,Building 1,0.000,Suburbs,4.00000E-002,0.40000,FullExterior,25,6
! <Inside Convection Algorithm>, Algorithm {Simple | TARP | CeilingDiffuser | AdaptiveConvectionAlgorithm}
Inside Convection Algorithm,TARP
! <Outside Convection Algorithm>, Algorithm {SimpleCombined | TARP | MoWitt | DOE-2 | AdaptiveConvectionAlgorithm}
Outside Convection Algorithm,TARP
! <Sky Radiance Distribution>, Value {Anisotropic}
Sky Radiance Distribution,Anisotropic
! <Zone Air Solution Algorithm>, Value {ThirdOrderBackwardDifference | AnalyticalSolution | EulerMethod}
 Zone Air Solution Algorithm, ThirdOrderBackwardDifference
! <Zone Air Carbon Dioxide Balance Simulation>, Simulation {Yes/No}, Carbon Dioxide Concentration
 Zone Air Carbon Dioxide Balance Simulation, No,N/A
! <Zone Air Generic Contaminant Balance Simulation>, Simulation {Yes/No}, Generic Contaminant Concentration
 Zone Air Generic Contaminant Balance Simulation, No,N/A
! <Zone Air Mass Flow Balance Simulation>, Enforce Mass Balance, Adjust Zone Mixing, Adjust Zone Infiltration {AddInfiltration | AdjustInfiltration | None}, Infiltration Zones {MixingSourceZonesOnly | AllZones}
 Zone Air Mass Flow Balance Simulation, No,N/A,N/A,N/A
! <HVACSystemRootFindingAlgorithm>, Value {RegulaFalsi | Bisection | BisectionThenRegulaFalsi | RegulaFalsiThenBisection}
 HVACSystemRootFindingAlgorithm, RegulaFalsi
! <Environment:Site Atmospheric Variation>,Wind Speed Profile Exponent {},Wind Speed Profile Boundary Layer Thickness {m},Air Temperature Gradient Coefficient {K/m}
Environment:Site Atmospheric Variation,0.220,370.000,6.500000E-003
! <Surface Geometry>,Starting Corner,Vertex Input Direction,Coordinate System,Daylight Reference Point Coordinate System,Rectangular (Simple) Surface Coordinate System
 Surface Geometry,UpperLeftCorner,Counterclockwise,RelativeCoordinateSystem,RelativeCoordinateSystem,RelativeToZoneOrigin
! <Surface Heat Transfer Algorithm>, Value {CTF - ConductionTransferFunction | EMPD - MoisturePenetrationDepthConductionTransferFunction | CondFD - ConductionFiniteDifference | HAMT - CombinedHeatAndMoistureFiniteElement} - Description,Inside Surface Max Temperature Limit{C}, Surface Convection Coefficient Lower Limit {W/m2-K}, Surface Convection Coefficient Upper Limit {W/m2-K}
Surface Heat Transfer Algorithm, CTF - ConductionTransferFunction,200,0.10,1000.0
! <Shading Summary>, Number of Fixed Detached Shades, Number of Building Detached Shades, Number of Attached Shades
 Shading Summary,0,0,0
! <Zone Summary>, Number of Zones, Number of Zone Surfaces, Number of SubSurfaces
 Zone Summary,20,137,17
! <Zone Information>,Zone Name,North Axis {deg},Origin X-Coordinate {m},Origin Y-Coordinate {m},Origin Z-Coordinate {m},Centroid X-Coordinate {m},Centroid Y-Coordinate {m},Centroid Z-Coordinate {m},Type,Zone Multiplier,Zone List Multiplier,Minimum X {m},Maximum X {m},Minimum Y {m},Maximum Y {m},Minimum Z {m},Maximum Z {m},Ceiling Height {m},Volume {m3},Zone Inside Convection Algorithm {Simple-Detailed-CeilingDiffuser-TrombeWall},Zone Outside Convection Algorithm {Simple-Detailed-Tarp-MoWitt-DOE-2-BLAST}, Floor Area {m2},Exterior Gross Wall Area {m2},Exterior Net Wall Area {m2},Exterior Window Area {m2}, Number of Surfaces, Number of SubSurfaces, Number of Shading SubSurfaces,  Part of Total Building Area
 Zone Information, ALL_ST=COURTHOUSE - CHAMBERS_FL=STORY 2_SCH=A,0.0,75.00,25.00,3.80,89.15,50.00,5.70,1,1,1,75.00,100.00,0.00,100.00,3.80,7.60,3.80,7125.00,TARP,TARP,1875.00,380.00,285.00,95.00,6,1,0,Yes
 Zone Information, ALL_ST=COURTHOUSE - COURTROOM_FL=STORY 2_SCH=A,0.0,25.00,25.00,3.80,50.00,50.00,5.70,1,1,1,25.00,75.00,25.00,75.00,3.80,7.60,3.80,9500.00,TARP,TARP,2500.00,0.00,0.00,0.00,6,0,0,Yes
 Zone Information, DU_BT=SPACE FUNCTION_ST=COURTHOUSE - CELL_FL=STORY 3_SCHH,0.0,0.00,0.00,7.60,50.00,10.85,9.50,1,1,1,0.00,100.00,0.00,25.00,7.60,11.40,3.80,7125.00,TARP,TARP,1875.00,380.00,285.00,95.00,6,1,0,Yes
 Zone Information, WILD_ST=CORR. < 2.4M WIDE-SCH-B_FL=STORY 4_SCH=A,0.0,0.00,0.00,11.40,50.00,10.85,13.30,1,1,1,0.00,100.00,0.00,25.00,11.40,15.20,3.80,7125.00,TARP,TARP,1875.00,380.00,285.00,188.75,6,2,0,Yes
 Zone Information, WILD_ST=CORR. < 2.4M WIDE-SCH-C_FL=STORY 4_SCH=A,0.0,75.00,25.00,11.40,89.15,50.00,13.30,1,1,1,75.00,100.00,0.00,100.00,11.40,15.20,3.80,7125.00,TARP,TARP,1875.00,380.00,285.00,188.75,6,2,0,Yes
 Zone Information, WILD_ST=CORR. < 2.4M WIDE-SCH-D_FL=STORY 4_SCH=A,0.0,25.00,75.00,11.40,50.00,89.15,13.30,1,1,1,0.00,100.00,75.00,100.00,11.40,15.20,3.80,7125.00,TARP,TARP,1875.00,380.00,285.00,188.75,6,2,0,Yes
 Zone Information, WILD_ST=CORR. < 2.4M WIDE-SCH-E_FL=STORY 3_SCH=A,0.0,25.00,25.00,7.60,50.00,50.00,9.50,1,1,1,25.00,75.00,25.00,75.00,7.60,11.40,3.80,9500.00,TARP,TARP,2500.00,0.00,0.00,0.00,6,0,0,Yes
 Zone Information, WILD_ST=CORR. < 2.4M WIDE-SCH-F_FL=STORY 3_SCH=A,0.0,25.00,75.00,7.60,50.00,89.15,9.50,1,1,1,0.00,100.00,75.00,100.00,7.60,11.40,3.80,7125.00,TARP,TARP,1875.00,380.00,285.00,95.00,6,1,0,Yes
 Zone Information, WILD_ST=CORR. < 2.4M WIDE-SCH-G_FL=STORY 3_SCH=A,0.0,0.00,0.00,7.60,10.85,50.00,9.50,1,1,1,0.00,25.00,0.00,100.00,7.60,11.40,3.80,7125.00,TARP,TARP,1875.00,380.00,285.00,95.00,6,1,0,Yes
 Zone Information, WILD_ST=CORR. < 2.4M WIDE-SCH-H_FL=STORY 2_SCH=A,0.0,0.00,0.00,3.80,50.00,10.85,5.70,1,1,1,0.00,100.00,0.00,25.00,3.80,7.60,3.80,7125.00,TARP,TARP,1875.00,380.00,285.00,95.00,6,1,0,Yes
 Zone Information, WILD_ST=CORR. < 2.4M WIDE-SCH-I_FL=STORY 1_SCH=A,0.0,25.00,75.00,0.00,50.00,89.15,1.90,1,1,1,0.00,100.00,75.00,100.00,0.00,3.80,3.80,7125.00,TARP,TARP,1875.00,0.00,0.00,0.00,6,0,0,Yes
 Zone Information, WILD_ST=CORR. >= 2.4M WIDE-SCH-A_FL=STORY 2_SCH=A,0.0,0.00,0.00,3.80,10.85,50.00,5.70,1,1,1,0.00,25.00,0.00,100.00,3.80,7.60,3.80,7125.00,TARP,TARP,1875.00,380.00,285.00,95.00,6,1,0,Yes
 Zone Information, WILD_ST=CORR. >= 2.4M WIDE-SCH-B_FL=STORY 4_SCH=A,0.0,25.00,25.00,11.40,50.00,50.00,13.30,1,1,1,25.00,75.00,25.00,75.00,11.40,15.20,3.80,9500.00,TARP,TARP,2500.00,0.00,0.00,125.00,6,1,0,Yes
 Zone Information, WILD_ST=CORR. >= 2.4M WIDE-SCH-C_FL=STORY 1_SCH=A,0.0,0.00,0.00,0.00,10.85,50.00,1.90,1,1,1,0.00,25.00,0.00,100.00,0.00,3.80,3.80,7125.00,TARP,TARP,1875.00,0.00,0.00,0.00,6,0,0,Yes
 Zone Information, WILD_ST=CORR. >= 2.4M WIDE-SCH-D_FL=STORY 1_SCH=A,0.0,75.00,25.00,0.00,89.15,50.00,1.90,1,1,1,75.00,100.00,0.00,100.00,0.00,3.80,3.80,7125.00,TARP,TARP,1875.00,0.00,0.00,0.00,6,0,0,Yes
 Zone Information, WILD_ST=CORR. >= 2.4M WIDE-SCH-E_FL=STORY 3_SCH=A,0.0,75.00,25.00,7.60,89.15,50.00,9.50,1,1,1,75.00,100.00,0.00,100.00,7.60,11.40,3.80,7125.00,TARP,TARP,1875.00,380.00,285.00,95.00,6,1,0,Yes
 Zone Information, WILD_ST=CORR. >= 2.4M WIDE-SCH-F_FL=STORY 1_SCH=A,0.0,0.00,0.00,0.00,50.00,10.85,1.90,1,1,1,0.00,100.00,0.00,25.00,0.00,3.80,3.80,7125.00,TARP,TARP,1875.00,0.00,0.00,0.00,6,0,0,Yes
 Zone Information, WILD_ST=CORR. >= 2.4M WIDE-SCH-G_FL=STORY 1_SCH=A,0.0,25.00,25.00,0.00,50.00,50.00,1.90,1,1,1,25.00,75.00,25.00,75.00,0.00,3.80,3.80,9500.00,TARP,TARP,2500.00,0.00,0.00,0.00,6,0,0,Yes
 Zone Information, WILD_ST=CORR. >= 2.4M WIDE-SCH-H_FL=STORY 2_SCH=A,0.0,25.00,75.00,3.80,50.00,89.15,5.70,1,1,1,0.00,100.00,75.00,100.00,3.80,7.60,3.80,7125.00,TARP,TARP,1875.00,380.00,285.00,95.00,6,1,0,Yes
 Zone Information, WILD_ST=CORR. >= 2.4M WIDE-SCH-I_FL=STORY 4_SCH=A,0.0,0.00,0.00,11.40,10.85,50.00,13.30,1,1,1,0.00,25.00,0.00,100.00,11.40,15.20,3.80,7125.00,TARP,TARP,1875.00,380.00,285.00,188.75,6,2,0,Yes
! <Zone Internal Gains Nominal>,Zone Name, Floor Area {m2},# Occupants,Area per Occupant {m2/person},Occupant per Area {person/m2},Interior Lighting {W/m2},Electric Load {W/m2},Gas Load {W/m2},Other Load {W/m2},Hot Water Eq {W/m2},Steam Equipment {W/m2},Sum Loads per Area {W/m2},Outdoor Controlled Baseboard Heat
 Zone Internal Gains Nominal, ALL_ST=COURTHOUSE - CHAMBERS_FL=STORY 2_SCH=A,1875.00,93.8,19.979,5.005E-002,12.600,7.500,0.000,0.000,0.000,0.000,20.100,No
 Zone Internal Gains Nominal, ALL_ST=COURTHOUSE - COURTROOM_FL=STORY 2_SCH=A,2500.00,500.0,5.000,0.200,18.500,2.500,0.000,0.000,0.000,0.000,21.000,No
 Zone Internal Gains Nominal, DU_BT=SPACE FUNCTION_ST=COURTHOUSE - CELL_FL=STORY 3_SCHH,1875.00,75.1,24.974,4.004E-002,14.700,2.500,0.000,0.000,0.000,0.000,17.200,No
 Zone Internal Gains Nominal, WILD_ST=CORR. < 2.4M WIDE-SCH-B_FL=STORY 4_SCH=A,1875.00,18.8,99.896,1.001E-002,8.400,0.000,0.000,0.000,0.000,0.000,8.400,No
 Zone Internal Gains Nominal, WILD_ST=CORR. < 2.4M WIDE-SCH-C_FL=STORY 4_SCH=A,1875.00,18.8,99.896,1.001E-002,8.400,0.000,0.000,0.000,0.000,0.000,8.400,No
 Zone Internal Gains Nominal, WILD_ST=CORR. < 2.4M WIDE-SCH-D_FL=STORY 4_SCH=A,1875.00,18.8,99.896,1.001E-002,8.400,0.000,0.000,0.000,0.000,0.000,8.400,No
 Zone Internal Gains Nominal, WILD_ST=CORR. < 2.4M WIDE-SCH-E_FL=STORY 3_SCH=A,2500.00,25.0,99.896,1.001E-002,8.400,0.000,0.000,0.000,0.000,0.000,8.400,No
 Zone Internal Gains Nominal, WILD_ST=CORR. < 2.4M WIDE-SCH-F_FL=STORY 3_SCH=A,1875.00,18.8,99.896,1.001E-002,8.400,0.000,0.000,0.000,0.000,0.000,8.400,No
 Zone Internal Gains Nominal, WILD_ST=CORR. < 2.4M WIDE-SCH-G_FL=STORY 3_SCH=A,1875.00,18.8,99.896,1.001E-002,8.400,0.000,0.000,0.000,0.000,0.000,8.400,No
 Zone Internal Gains Nominal, WILD_ST=CORR. < 2.4M WIDE-SCH-H_FL=STORY 2_SCH=A,1875.00,18.8,99.896,1.001E-002,8.400,0.000,0.000,0.000,0.000,0.000,8.400,No
 Zone Internal Gains Nominal, WILD_ST=CORR. < 2.4M WIDE-SCH-I_FL=STORY 1_SCH=A,1875.00,18.8,99.896,1.001E-002,8.400,0.000,0.000,0.000,0.000,0.000,8.400,No
 Zone Internal Gains Nominal, WILD_ST=CORR. >= 2.4M WIDE-SCH-A_FL=STORY 2_SCH=A,1875.00,18.8,99.896,1.001E-002,7.100,0.000,0.000,0.000,0.000,0.000,7.100,No
 Zone Internal Gains Nominal, WILD_ST=CORR. >= 2.4M WIDE-SCH-B_FL=STORY 4_SCH=A,2500.00,25.0,99.896,1.001E-002,7.100,0.000,0.000,0.000,0.000,0.000,7.100,No
 Zone Internal Gains Nominal, WILD_ST=CORR. >= 2.4M WIDE-SCH-C_FL=STORY 1_SCH=A,1875.00,18.8,99.896,1.001E-002,7.100,0.000,0.000,0.000,0.000,0.000,7.100,No
 Zone Internal Gains Nominal, WILD_ST=CORR. >= 2.4M WIDE-SCH-D_FL=STORY 1_SCH=A,1875.00,18.8,99.896,1.001E-002,7.100,0.000,0.000,0.000,0.000,0.000,7.100,No
 Zone Internal Gains Nominal, WILD_ST=CORR. >= 2.4M WIDE-SCH-E_FL=STORY 3_SCH=A,1875.00,18.8,99.896,1.001E-002,7.100,0.000,0.000,0.000,0.000,0.000,7.100,No
 Zone Internal Gains Nominal, WILD_ST=CORR. >= 2.4M WIDE-SCH-F_FL=STORY 1_SCH=A,1875.00,18.8,99.896,1.001E-002,7.100,0.000,0.000,0.000,0.000,0.000,7.100,No
 Zone Internal Gains Nominal, WILD_ST=CORR. >= 2.4M WIDE-SCH-G_FL=STORY 1_SCH=A,2500.00,25.0,99.896,1.001E-002,7.100,0.000,0.000,0.000,0.000,0.000,7.100,No
 Zone Internal Gains Nominal, WILD_ST=CORR. >= 2.4M WIDE-SCH-H_FL=STORY 2_SCH=A,1875.00,18.8,99.896,1.001E-002,7.100,0.000,0.000,0.000,0.000,0.000,7.100,No
 Zone Internal Gains Nominal, WILD_ST=CORR. >= 2.4M WIDE-SCH-I_FL=STORY 4_SCH=A,1875.00,18.8,99.896,1.001E-002,7.100,0.000,0.000,0.000,0.000,0.000,7.100,No
! <People Internal Gains Nominal>,Name,Schedule Name,Zone Name,Zone Floor Area {m2},# Zone Occupants,Number of People {},People/Floor Area {person/m2},Floor Area per person {m2/person},Fraction Radiant,Fraction Convected,Sensible Fraction Calculation,Activity level,ASHRAE 55 Warnings,Carbon Dioxide Generation Rate,Nominal Minimum Number of People,Nominal Maximum Number of People
 People Internal Gains Nominal, WILD_ST=CORR. < 2.4M WIDE-SCH-B_FL=STORY 4_SCH=A SPACE FUNCTION CORR. < 2.4M WIDE-SCH-A PEOPLE,NECB-A-OCCUPANCY,WILD_ST=CORR. < 2.4M WIDE-SCH-B_FL=STORY 4_SCH=A,1875.00,18.8,18.8,1.001E-002,99.896,0.300,0.700,AutoCalculate,NECB-ACTIVITY,No,3.8200E-008,0,17
 People Internal Gains Nominal, WILD_ST=CORR. < 2.4M WIDE-SCH-C_FL=STORY 4_SCH=A SPACE FUNCTION CORR. < 2.4M WIDE-SCH-A PEOPLE,NECB-A-OCCUPANCY,WILD_ST=CORR. < 2.4M WIDE-SCH-C_FL=STORY 4_SCH=A,1875.00,18.8,18.8,1.001E-002,99.896,0.300,0.700,AutoCalculate,NECB-ACTIVITY,No,3.8200E-008,0,17
 People Internal Gains Nominal, WILD_ST=CORR. < 2.4M WIDE-SCH-D_FL=STORY 4_SCH=A SPACE FUNCTION CORR. < 2.4M WIDE-SCH-A PEOPLE,NECB-A-OCCUPANCY,WILD_ST=CORR. < 2.4M WIDE-SCH-D_FL=STORY 4_SCH=A,1875.00,18.8,18.8,1.001E-002,99.896,0.300,0.700,AutoCalculate,NECB-ACTIVITY,No,3.8200E-008,0,17
 People Internal Gains Nominal, WILD_ST=CORR. < 2.4M WIDE-SCH-E_FL=STORY 3_SCH=A SPACE FUNCTION CORR. < 2.4M WIDE-SCH-A PEOPLE,NECB-A-OCCUPANCY,WILD_ST=CORR. < 2.4M WIDE-SCH-E_FL=STORY 3_SCH=A,2500.00,25.0,25.0,1.001E-002,99.896,0.300,0.700,AutoCalculate,NECB-ACTIVITY,No,3.8200E-008,0,23
 People Internal Gains Nominal, WILD_ST=CORR. < 2.4M WIDE-SCH-F_FL=STORY 3_SCH=A SPACE FUNCTION CORR. < 2.4M WIDE-SCH-A PEOPLE,NECB-A-OCCUPANCY,WILD_ST=CORR. < 2.4M WIDE-SCH-F_FL=STORY 3_SCH=A,1875.00,18.8,18.8,1.001E-002,99.896,0.300,0.700,AutoCalculate,NECB-ACTIVITY,No,3.8200E-008,0,17
 People Internal Gains Nominal, WILD_ST=CORR. < 2.4M WIDE-SCH-G_FL=STORY 3_SCH=A SPACE FUNCTION CORR. < 2.4M WIDE-SCH-A PEOPLE,NECB-A-OCCUPANCY,WILD_ST=CORR. < 2.4M WIDE-SCH-G_FL=STORY 3_SCH=A,1875.00,18.8,18.8,1.001E-002,99.896,0.300,0.700,AutoCalculate,NECB-ACTIVITY,No,3.8200E-008,0,17
 People Internal Gains Nominal, WILD_ST=CORR. < 2.4M WIDE-SCH-H_FL=STORY 2_SCH=A SPACE FUNCTION CORR. < 2.4M WIDE-SCH-A PEOPLE,NECB-A-OCCUPANCY,WILD_ST=CORR. < 2.4M WIDE-SCH-H_FL=STORY 2_SCH=A,1875.00,18.8,18.8,1.001E-002,99.896,0.300,0.700,AutoCalculate,NECB-ACTIVITY,No,3.8200E-008,0,17
 People Internal Gains Nominal, WILD_ST=CORR. < 2.4M WIDE-SCH-I_FL=STORY 1_SCH=A SPACE FUNCTION CORR. < 2.4M WIDE-SCH-A PEOPLE,NECB-A-OCCUPANCY,WILD_ST=CORR. < 2.4M WIDE-SCH-I_FL=STORY 1_SCH=A,1875.00,18.8,18.8,1.001E-002,99.896,0.300,0.700,AutoCalculate,NECB-ACTIVITY,No,3.8200E-008,0,17
 People Internal Gains Nominal, WILD_ST=CORR. >= 2.4M WIDE-SCH-A_FL=STORY 2_SCH=A SPACE FUNCTION CORR. >= 2.4M WIDE-SCH-A PEOPLE,NECB-A-OCCUPANCY,WILD_ST=CORR. >= 2.4M WIDE-SCH-A_FL=STORY 2_SCH=A,1875.00,18.8,18.8,1.001E-002,99.896,0.300,0.700,AutoCalculate,NECB-ACTIVITY,No,3.8200E-008,0,17
 People Internal Gains Nominal, WILD_ST=CORR. >= 2.4M WIDE-SCH-B_FL=STORY 4_SCH=A SPACE FUNCTION CORR. >= 2.4M WIDE-SCH-A PEOPLE,NECB-A-OCCUPANCY,WILD_ST=CORR. >= 2.4M WIDE-SCH-B_FL=STORY 4_SCH=A,2500.00,25.0,25.0,1.001E-002,99.896,0.300,0.700,AutoCalculate,NECB-ACTIVITY,No,3.8200E-008,0,23
 People Internal Gains Nominal, WILD_ST=CORR. >= 2.4M WIDE-SCH-C_FL=STORY 1_SCH=A SPACE FUNCTION CORR. >= 2.4M WIDE-SCH-A PEOPLE,NECB-A-OCCUPANCY,WILD_ST=CORR. >= 2.4M WIDE-SCH-C_FL=STORY 1_SCH=A,1875.00,18.8,18.8,1.001E-002,99.896,0.300,0.700,AutoCalculate,NECB-ACTIVITY,No,3.8200E-008,0,17
 People Internal Gains Nominal, WILD_ST=CORR. >= 2.4M WIDE-SCH-D_FL=STORY 1_SCH=A SPACE FUNCTION CORR. >= 2.4M WIDE-SCH-A PEOPLE,NECB-A-OCCUPANCY,WILD_ST=CORR. >= 2.4M WIDE-SCH-D_FL=STORY 1_SCH=A,1875.00,18.8,18.8,1.001E-002,99.896,0.300,0.700,AutoCalculate,NECB-ACTIVITY,No,3.8200E-008,0,17
 People Internal Gains Nominal, WILD_ST=CORR. >= 2.4M WIDE-SCH-E_FL=STORY 3_SCH=A SPACE FUNCTION CORR. >= 2.4M WIDE-SCH-A PEOPLE,NECB-A-OCCUPANCY,WILD_ST=CORR. >= 2.4M WIDE-SCH-E_FL=STORY 3_SCH=A,1875.00,18.8,18.8,1.001E-002,99.896,0.300,0.700,AutoCalculate,NECB-ACTIVITY,No,3.8200E-008,0,17
 People Internal Gains Nominal, WILD_ST=CORR. >= 2.4M WIDE-SCH-F_FL=STORY 1_SCH=A SPACE FUNCTION CORR. >= 2.4M WIDE-SCH-A PEOPLE,NECB-A-OCCUPANCY,WILD_ST=CORR. >= 2.4M WIDE-SCH-F_FL=STORY 1_SCH=A,1875.00,18.8,18.8,1.001E-002,99.896,0.300,0.700,AutoCalculate,NECB-ACTIVITY,No,3.8200E-008,0,17
 People Internal Gains Nominal, WILD_ST=CORR. >= 2.4M WIDE-SCH-G_FL=STORY 1_SCH=A SPACE FUNCTION CORR. >= 2.4M WIDE-SCH-A PEOPLE,NECB-A-OCCUPANCY,WILD_ST=CORR. >= 2.4M WIDE-SCH-G_FL=STORY 1_SCH=A,2500.00,25.0,25.0,1.001E-002,99.896,0.300,0.700,AutoCalculate,NECB-ACTIVITY,No,3.8200E-008,0,23
 People Internal Gains Nominal, WILD_ST=CORR. >= 2.4M WIDE-SCH-H_FL=STORY 2_SCH=A SPACE FUNCTION CORR. >= 2.4M WIDE-SCH-A PEOPLE,NECB-A-OCCUPANCY,WILD_ST=CORR. >= 2.4M WIDE-SCH-H_FL=STORY 2_SCH=A,1875.00,18.8,18.8,1.001E-002,99.896,0.300,0.700,AutoCalculate,NECB-ACTIVITY,No,3.8200E-008,0,17
 People Internal Gains Nominal, WILD_ST=CORR. >= 2.4M WIDE-SCH-I_FL=STORY 4_SCH=A SPACE FUNCTION CORR. >= 2.4M WIDE-SCH-A PEOPLE,NECB-A-OCCUPANCY,WILD_ST=CORR. >= 2.4M WIDE-SCH-I_FL=STORY 4_SCH=A,1875.00,18.8,18.8,1.001E-002,99.896,0.300,0.700,AutoCalculate,NECB-ACTIVITY,No,3.8200E-008,0,17
 People Internal Gains Nominal, DU_BT=SPACE FUNCTION_ST=COURTHOUSE - CELL_FL=STORY 3_SCHH SPACE FUNCTION COURTHOUSE - CELL PEOPLE,NECB-H-OCCUPANCY,DU_BT=SPACE FUNCTION_ST=COURTHOUSE - CELL_FL=STORY 3_SCHH,1875.00,75.1,75.1,4.004E-002,24.974,0.300,0.700,AutoCalculate,NECB-ACTIVITY,No,3.8200E-008,68,68
 People Internal Gains Nominal, ALL_ST=COURTHOUSE - CHAMBERS_FL=STORY 2_SCH=A SPACE FUNCTION COURTHOUSE - CHAMBERS PEOPLE,NECB-A-OCCUPANCY,ALL_ST=COURTHOUSE - CHAMBERS_FL=STORY 2_SCH=A,1875.00,93.8,93.8,5.005E-002,19.979,0.300,0.700,AutoCalculate,NECB-ACTIVITY,No,3.8200E-008,0,84
 People Internal Gains Nominal, ALL_ST=COURTHOUSE - COURTROOM_FL=STORY 2_SCH=A SPACE FUNCTION COURTHOUSE - COURTROOM PEOPLE,NECB-A-OCCUPANCY,ALL_ST=COURTHOUSE - COURTROOM_FL=STORY 2_SCH=A,2500.00,500.0,500.0,0.200,5.000,0.300,0.700,AutoCalculate,NECB-ACTIVITY,No,3.8200E-008,0,450
! <Lights Internal Gains Nominal>,Name,Schedule Name,Zone Name,Zone Floor Area {m2},# Zone Occupants,Lighting Level {W},Lights/Floor Area {W/m2},Lights per person {W/person},Fraction Return Air,Fraction Radiant,Fraction Short Wave,Fraction Convected,Fraction Replaceable,End-Use Category,Nominal Minimum Lighting Level {W},Nominal Maximum Lighting Level {W}
 Lights Internal Gains Nominal, WILD_ST=CORR. < 2.4M WIDE-SCH-B_FL=STORY 4_SCH=A SPACE FUNCTION CORR. < 2.4M WIDE-SCH-A LIGHTS,NECB-A-LIGHTING,WILD_ST=CORR. < 2.4M WIDE-SCH-B_FL=STORY 4_SCH=A,1875.00,18.8,15749.869,8.400,839.117,0.000,0.500,0.200,0.300,1.000,General,787.493,14174.882
 Lights Internal Gains Nominal, WILD_ST=CORR. < 2.4M WIDE-SCH-C_FL=STORY 4_SCH=A SPACE FUNCTION CORR. < 2.4M WIDE-SCH-A LIGHTS,NECB-A-LIGHTING,WILD_ST=CORR. < 2.4M WIDE-SCH-C_FL=STORY 4_SCH=A,1875.00,18.8,15749.869,8.400,839.117,0.000,0.500,0.200,0.300,1.000,General,787.493,14174.882
 Lights Internal Gains Nominal, WILD_ST=CORR. < 2.4M WIDE-SCH-D_FL=STORY 4_SCH=A SPACE FUNCTION CORR. < 2.4M WIDE-SCH-A LIGHTS,NECB-A-LIGHTING,WILD_ST=CORR. < 2.4M WIDE-SCH-D_FL=STORY 4_SCH=A,1875.00,18.8,15749.869,8.400,839.117,0.000,0.500,0.200,0.300,1.000,General,787.493,14174.882
 Lights Internal Gains Nominal, WILD_ST=CORR. < 2.4M WIDE-SCH-E_FL=STORY 3_SCH=A SPACE FUNCTION CORR. < 2.4M WIDE-SCH-A LIGHTS,NECB-A-LIGHTING,WILD_ST=CORR. < 2.4M WIDE-SCH-E_FL=STORY 3_SCH=A,2500.00,25.0,20999.825,8.400,839.117,0.000,0.500,0.200,0.300,1.000,General,1049.991,18899.843
 Lights Internal Gains Nominal, WILD_ST=CORR. < 2.4M WIDE-SCH-F_FL=STORY 3_SCH=A SPACE FUNCTION CORR. < 2.4M WIDE-SCH-A LIGHTS,NECB-A-LIGHTING,WILD_ST=CORR. < 2.4M WIDE-SCH-F_FL=STORY 3_SCH=A,1875.00,18.8,15749.869,8.400,839.117,0.000,0.500,0.200,0.300,1.000,General,787.493,14174.882
 Lights Internal Gains Nominal, WILD_ST=CORR. < 2.4M WIDE-SCH-G_FL=STORY 3_SCH=A SPACE FUNCTION CORR. < 2.4M WIDE-SCH-A LIGHTS,NECB-A-LIGHTING,WILD_ST=CORR. < 2.4M WIDE-SCH-G_FL=STORY 3_SCH=A,1875.00,18.8,15749.869,8.400,839.117,0.000,0.500,0.200,0.300,1.000,General,787.493,14174.882
 Lights Internal Gains Nominal, WILD_ST=CORR. < 2.4M WIDE-SCH-H_FL=STORY 2_SCH=A SPACE FUNCTION CORR. < 2.4M WIDE-SCH-A LIGHTS,NECB-A-LIGHTING,WILD_ST=CORR. < 2.4M WIDE-SCH-H_FL=STORY 2_SCH=A,1875.00,18.8,15749.869,8.400,839.117,0.000,0.500,0.200,0.300,1.000,General,787.493,14174.882
 Lights Internal Gains Nominal, WILD_ST=CORR. < 2.4M WIDE-SCH-I_FL=STORY 1_SCH=A SPACE FUNCTION CORR. < 2.4M WIDE-SCH-A LIGHTS,NECB-A-LIGHTING,WILD_ST=CORR. < 2.4M WIDE-SCH-I_FL=STORY 1_SCH=A,1875.00,18.8,15749.869,8.400,839.117,0.000,0.500,0.200,0.300,1.000,General,787.493,14174.882
 Lights Internal Gains Nominal, WILD_ST=CORR. >= 2.4M WIDE-SCH-A_FL=STORY 2_SCH=A SPACE FUNCTION CORR. >= 2.4M WIDE-SCH-A LIGHTS,NECB-A-LIGHTING,WILD_ST=CORR. >= 2.4M WIDE-SCH-A_FL=STORY 2_SCH=A,1875.00,18.8,13312.389,7.100,709.254,0.000,0.500,0.200,0.300,1.000,General,665.619,11981.150
 Lights Internal Gains Nominal, WILD_ST=CORR. >= 2.4M WIDE-SCH-B_FL=STORY 4_SCH=A SPACE FUNCTION CORR. >= 2.4M WIDE-SCH-A LIGHTS,NECB-A-LIGHTING,WILD_ST=CORR. >= 2.4M WIDE-SCH-B_FL=STORY 4_SCH=A,2500.00,25.0,17749.852,7.100,709.254,0.000,0.500,0.200,0.300,1.000,General,887.493,15974.867
 Lights Internal Gains Nominal, WILD_ST=CORR. >= 2.4M WIDE-SCH-C_FL=STORY 1_SCH=A SPACE FUNCTION CORR. >= 2.4M WIDE-SCH-A LIGHTS,NECB-A-LIGHTING,WILD_ST=CORR. >= 2.4M WIDE-SCH-C_FL=STORY 1_SCH=A,1875.00,18.8,13312.389,7.100,709.254,0.000,0.500,0.200,0.300,1.000,General,665.619,11981.150
 Lights Internal Gains Nominal, WILD_ST=CORR. >= 2.4M WIDE-SCH-D_FL=STORY 1_SCH=A SPACE FUNCTION CORR. >= 2.4M WIDE-SCH-A LIGHTS,NECB-A-LIGHTING,WILD_ST=CORR. >= 2.4M WIDE-SCH-D_FL=STORY 1_SCH=A,1875.00,18.8,13312.389,7.100,709.254,0.000,0.500,0.200,0.300,1.000,General,665.619,11981.150
 Lights Internal Gains Nominal, WILD_ST=CORR. >= 2.4M WIDE-SCH-E_FL=STORY 3_SCH=A SPACE FUNCTION CORR. >= 2.4M WIDE-SCH-A LIGHTS,NECB-A-LIGHTING,WILD_ST=CORR. >= 2.4M WIDE-SCH-E_FL=STORY 3_SCH=A,1875.00,18.8,13312.389,7.100,709.254,0.000,0.500,0.200,0.300,1.000,General,665.619,11981.150
 Lights Internal Gains Nominal, WILD_ST=CORR. >= 2.4M WIDE-SCH-F_FL=STORY 1_SCH=A SPACE FUNCTION CORR. >= 2.4M WIDE-SCH-A LIGHTS,NECB-A-LIGHTING,WILD_ST=CORR. >= 2.4M WIDE-SCH-F_FL=STORY 1_SCH=A,1875.00,18.8,13312.389,7.100,709.254,0.000,0.500,0.200,0.300,1.000,General,665.619,11981.150
 Lights Internal Gains Nominal, WILD_ST=CORR. >= 2.4M WIDE-SCH-G_FL=STORY 1_SCH=A SPACE FUNCTION CORR. >= 2.4M WIDE-SCH-A LIGHTS,NECB-A-LIGHTING,WILD_ST=CORR. >= 2.4M WIDE-SCH-G_FL=STORY 1_SCH=A,2500.00,25.0,17749.852,7.100,709.254,0.000,0.500,0.200,0.300,1.000,General,887.493,15974.867
 Lights Internal Gains Nominal, WILD_ST=CORR. >= 2.4M WIDE-SCH-H_FL=STORY 2_SCH=A SPACE FUNCTION CORR. >= 2.4M WIDE-SCH-A LIGHTS,NECB-A-LIGHTING,WILD_ST=CORR. >= 2.4M WIDE-SCH-H_FL=STORY 2_SCH=A,1875.00,18.8,13312.389,7.100,709.254,0.000,0.500,0.200,0.300,1.000,General,665.619,11981.150
 Lights Internal Gains Nominal, WILD_ST=CORR. >= 2.4M WIDE-SCH-I_FL=STORY 4_SCH=A SPACE FUNCTION CORR. >= 2.4M WIDE-SCH-A LIGHTS,NECB-A-LIGHTING,WILD_ST=CORR. >= 2.4M WIDE-SCH-I_FL=STORY 4_SCH=A,1875.00,18.8,13312.389,7.100,709.254,0.000,0.500,0.200,0.300,1.000,General,665.619,11981.150
 Lights Internal Gains Nominal, DU_BT=SPACE FUNCTION_ST=COURTHOUSE - CELL_FL=STORY 3_SCHH SPACE FUNCTION COURTHOUSE - CELL LIGHTS,NECB-H-LIGHTING,DU_BT=SPACE FUNCTION_ST=COURTHOUSE - CELL_FL=STORY 3_SCHH,1875.00,75.1,27562.271,14.700,367.114,0.000,0.500,0.200,0.300,1.000,General,24806.044,24806.044
 Lights Internal Gains Nominal, ALL_ST=COURTHOUSE - CHAMBERS_FL=STORY 2_SCH=A SPACE FUNCTION COURTHOUSE - CHAMBERS LIGHTS,NECB-A-LIGHTING,ALL_ST=COURTHOUSE - CHAMBERS_FL=STORY 2_SCH=A,1875.00,93.8,23624.803,12.600,251.735,0.000,0.500,0.200,0.300,1.000,General,1181.240,21262.323
 Lights Internal Gains Nominal, ALL_ST=COURTHOUSE - COURTROOM_FL=STORY 2_SCH=A SPACE FUNCTION COURTHOUSE - COURTROOM LIGHTS,NECB-A-LIGHTING,ALL_ST=COURTHOUSE - COURTROOM_FL=STORY 2_SCH=A,2500.00,500.0,46249.615,18.500,92.502,0.000,0.500,0.200,0.300,1.000,General,2312.481,41624.654
! <ElectricEquipment Internal Gains Nominal>,Name,Schedule Name,Zone Name,Zone Floor Area {m2},# Zone Occupants,Equipment Level {W},Equipment/Floor Area {W/m2},Equipment per person {W/person},Fraction Latent,Fraction Radiant,Fraction Lost,Fraction Convected,End-Use SubCategory,Nominal Minimum Equipment Level {W},Nominal Maximum Equipment Level {W}
 ElectricEquipment Internal Gains Nominal, DU_BT=SPACE FUNCTION_ST=COURTHOUSE - CELL_FL=STORY 3_SCHH SPACE FUNCTION COURTHOUSE - CELL ELEC EQUIP,NECB-H-ELECTRIC-EQUIPMENT,DU_BT=SPACE FUNCTION_ST=COURTHOUSE - CELL_FL=STORY 3_SCHH,1875.00,75.1,4687.461,2.500,62.434,0.000,0.500,0.000,0.500,General,4218.715,4218.715
 ElectricEquipment Internal Gains Nominal, ALL_ST=COURTHOUSE - CHAMBERS_FL=STORY 2_SCH=A SPACE FUNCTION COURTHOUSE - CHAMBERS ELEC EQUIP,NECB-A-ELECTRIC-EQUIPMENT,ALL_ST=COURTHOUSE - CHAMBERS_FL=STORY 2_SCH=A,1875.00,93.8,14062.383,7.500,149.842,0.000,0.500,0.000,0.500,General,2812.477,12656.145
 ElectricEquipment Internal Gains Nominal, ALL_ST=COURTHOUSE - COURTROOM_FL=STORY 2_SCH=A SPACE FUNCTION COURTHOUSE - COURTROOM ELEC EQUIP,NECB-A-ELECTRIC-EQUIPMENT,ALL_ST=COURTHOUSE - COURTROOM_FL=STORY 2_SCH=A,2500.00,500.0,6249.948,2.500,12.500,0.000,0.500,0.000,0.500,General,1249.990,5624.953
! <Shadowing/Sun Position Calculations Annual Simulations>, Calculation Method, Value {days}, Allowable Number Figures in Shadow Overlap {}, Polygon Clipping Algorithm, Sky Diffuse Modeling Algorithm, External Shading Calculation Method, Output External Shading Calculation Results, Disable Self-Shading Within Shading Zone Groups, Disable Self-Shading From Shading Zone Groups to Other Zones
Shadowing/Sun Position Calculations Annual Simulations,AverageOverDaysInFrequency,20,15000,SutherlandHodgman,SimpleSkyDiffuseModeling,InternalCalculation,No,No,No
! <Water Heater Information>,Type,Name,Volume {m3},Maximum Capacity {W},Standard Rated Recovery Efficiency, Standard Rated Energy Factor
! <ZoneInfiltration Airflow Stats Nominal>,Name,Schedule Name,Zone Name, Zone Floor Area {m2}, # Zone Occupants,Design Volume Flow Rate {m3/s},Volume Flow Rate/Floor Area {m3/s/m2},Volume Flow Rate/Exterior Surface Area {m3/s/m2},ACH - Air Changes per Hour,Equation A - Constant Term Coefficient {},Equation B - Temperature Term Coefficient {1/C},Equation C - Velocity Term Coefficient {s/m}, Equation D - Velocity Squared Term Coefficient {s2/m2}
 ZoneInfiltration Airflow Stats Nominal, COURTHOUSE - CHAMBERS-SPACE FUNCTION INFILTRATION,ALWAYS ON DISCRETE,ALL_ST=COURTHOUSE - CHAMBERS_FL=STORY 2_SCH=A,1875.00,93.8,9.500E-002,5.067E-005,2.500E-004,4.800E-002,0.000,0.000,0.224,0.000
 ZoneInfiltration Airflow Stats Nominal, COURTHOUSE - CELL-SPACE FUNCTION INFILTRATION,ALWAYS ON DISCRETE,DU_BT=SPACE FUNCTION_ST=COURTHOUSE - CELL_FL=STORY 3_SCHH,1875.00,75.1,9.500E-002,5.067E-005,2.500E-004,4.800E-002,0.000,0.000,0.224,0.000
 ZoneInfiltration Airflow Stats Nominal, CORR. < 2.4M WIDE-SCH-B-SPACE FUNCTION INFILTRATION,ALWAYS ON DISCRETE,WILD_ST=CORR. < 2.4M WIDE-SCH-B_FL=STORY 4_SCH=A,1875.00,18.8,0.564,3.007E-004,2.500E-004,0.285,0.000,0.000,0.224,0.000
 ZoneInfiltration Airflow Stats Nominal, CORR. < 2.4M WIDE-SCH-C-SPACE FUNCTION INFILTRATION,ALWAYS ON DISCRETE,WILD_ST=CORR. < 2.4M WIDE-SCH-C_FL=STORY 4_SCH=A,1875.00,18.8,0.564,3.007E-004,2.500E-004,0.285,0.000,0.000,0.224,0.000
 ZoneInfiltration Airflow Stats Nominal, CORR. < 2.4M WIDE-SCH-D-SPACE FUNCTION INFILTRATION,ALWAYS ON DISCRETE,WILD_ST=CORR. < 2.4M WIDE-SCH-D_FL=STORY 4_SCH=A,1875.00,18.8,0.564,3.007E-004,2.500E-004,0.285,0.000,0.000,0.224,0.000
 ZoneInfiltration Airflow Stats Nominal, CORR. < 2.4M WIDE-SCH-F-SPACE FUNCTION INFILTRATION,ALWAYS ON DISCRETE,WILD_ST=CORR. < 2.4M WIDE-SCH-F_FL=STORY 3_SCH=A,1875.00,18.8,9.500E-002,5.067E-005,2.500E-004,4.800E-002,0.000,0.000,0.224,0.000
 ZoneInfiltration Airflow Stats Nominal, CORR. < 2.4M WIDE-SCH-G-SPACE FUNCTION INFILTRATION,ALWAYS ON DISCRETE,WILD_ST=CORR. < 2.4M WIDE-SCH-G_FL=STORY 3_SCH=A,1875.00,18.8,9.500E-002,5.067E-005,2.500E-004,4.800E-002,0.000,0.000,0.224,0.000
 ZoneInfiltration Airflow Stats Nominal, CORR. < 2.4M WIDE-SCH-H-SPACE FUNCTION INFILTRATION,ALWAYS ON DISCRETE,WILD_ST=CORR. < 2.4M WIDE-SCH-H_FL=STORY 2_SCH=A,1875.00,18.8,9.500E-002,5.067E-005,2.500E-004,4.800E-002,0.000,0.000,0.224,0.000
 ZoneInfiltration Airflow Stats Nominal, CORR. >= 2.4M WIDE-SCH-A-SPACE FUNCTION INFILTRATION,ALWAYS ON DISCRETE,WILD_ST=CORR. >= 2.4M WIDE-SCH-A_FL=STORY 2_SCH=A,1875.00,18.8,9.500E-002,5.067E-005,2.500E-004,4.800E-002,0.000,0.000,0.224,0.000
 ZoneInfiltration Airflow Stats Nominal, CORR. >= 2.4M WIDE-SCH-B-SPACE FUNCTION INFILTRATION,ALWAYS ON DISCRETE,WILD_ST=CORR. >= 2.4M WIDE-SCH-B_FL=STORY 4_SCH=A,2500.00,25.0,0.625,2.500E-004,2.500E-004,0.237,0.000,0.000,0.224,0.000
 ZoneInfiltration Airflow Stats Nominal, CORR. >= 2.4M WIDE-SCH-E-SPACE FUNCTION INFILTRATION,ALWAYS ON DISCRETE,WILD_ST=CORR. >= 2.4M WIDE-SCH-E_FL=STORY 3_SCH=A,1875.00,18.8,9.500E-002,5.067E-005,2.500E-004,4.800E-002,0.000,0.000,0.224,0.000
 ZoneInfiltration Airflow Stats Nominal, CORR. >= 2.4M WIDE-SCH-H-SPACE FUNCTION INFILTRATION,ALWAYS ON DISCRETE,WILD_ST=CORR. >= 2.4M WIDE-SCH-H_FL=STORY 2_SCH=A,1875.00,18.8,9.500E-002,5.067E-005,2.500E-004,4.800E-002,0.000,0.000,0.224,0.000
 ZoneInfiltration Airflow Stats Nominal, CORR. >= 2.4M WIDE-SCH-I-SPACE FUNCTION INFILTRATION,ALWAYS ON DISCRETE,WILD_ST=CORR. >= 2.4M WIDE-SCH-I_FL=STORY 4_SCH=A,1875.00,18.8,0.564,3.007E-004,2.500E-004,0.285,0.000,0.000,0.224,0.000
 ZoneInfiltration Airflow Stats Nominal, WILD_ST=CORR. < 2.4M WIDE-SCH-B_FL=STORY 4_SCH=A SPACE FUNCTION CORR. < 2.4M WIDE-SCH-A INFILTRATION,ALWAYS ON,WILD_ST=CORR. < 2.4M WIDE-SCH-B_FL=STORY 4_SCH=A,1875.00,18.8,0.564,3.007E-004,2.501E-004,0.285,1.000,0.000,0.000,0.000
 ZoneInfiltration Airflow Stats Nominal, WILD_ST=CORR. < 2.4M WIDE-SCH-C_FL=STORY 4_SCH=A SPACE FUNCTION CORR. < 2.4M WIDE-SCH-A INFILTRATION,ALWAYS ON,WILD_ST=CORR. < 2.4M WIDE-SCH-C_FL=STORY 4_SCH=A,1875.00,18.8,0.564,3.007E-004,2.501E-004,0.285,1.000,0.000,0.000,0.000
 ZoneInfiltration Airflow Stats Nominal, WILD_ST=CORR. < 2.4M WIDE-SCH-D_FL=STORY 4_SCH=A SPACE FUNCTION CORR. < 2.4M WIDE-SCH-A INFILTRATION,ALWAYS ON,WILD_ST=CORR. < 2.4M WIDE-SCH-D_FL=STORY 4_SCH=A,1875.00,18.8,0.564,3.007E-004,2.501E-004,0.285,1.000,0.000,0.000,0.000
 ZoneInfiltration Airflow Stats Nominal, WILD_ST=CORR. < 2.4M WIDE-SCH-E_FL=STORY 3_SCH=A SPACE FUNCTION CORR. < 2.4M WIDE-SCH-A INFILTRATION,ALWAYS ON,WILD_ST=CORR. < 2.4M WIDE-SCH-E_FL=STORY 3_SCH=A,2500.00,25.0,0.000,0.000,N/A,0.000,1.000,0.000,0.000,0.000
 ZoneInfiltration Airflow Stats Nominal, WILD_ST=CORR. < 2.4M WIDE-SCH-F_FL=STORY 3_SCH=A SPACE FUNCTION CORR. < 2.4M WIDE-SCH-A INFILTRATION,ALWAYS ON,WILD_ST=CORR. < 2.4M WIDE-SCH-F_FL=STORY 3_SCH=A,1875.00,18.8,9.502E-002,5.068E-005,2.501E-004,4.801E-002,1.000,0.000,0.000,0.000
 ZoneInfiltration Airflow Stats Nominal, WILD_ST=CORR. < 2.4M WIDE-SCH-G_FL=STORY 3_SCH=A SPACE FUNCTION CORR. < 2.4M WIDE-SCH-A INFILTRATION,ALWAYS ON,WILD_ST=CORR. < 2.4M WIDE-SCH-G_FL=STORY 3_SCH=A,1875.00,18.8,9.502E-002,5.068E-005,2.501E-004,4.801E-002,1.000,0.000,0.000,0.000
 ZoneInfiltration Airflow Stats Nominal, WILD_ST=CORR. < 2.4M WIDE-SCH-H_FL=STORY 2_SCH=A SPACE FUNCTION CORR. < 2.4M WIDE-SCH-A INFILTRATION,ALWAYS ON,WILD_ST=CORR. < 2.4M WIDE-SCH-H_FL=STORY 2_SCH=A,1875.00,18.8,9.502E-002,5.068E-005,2.501E-004,4.801E-002,1.000,0.000,0.000,0.000
 ZoneInfiltration Airflow Stats Nominal, WILD_ST=CORR. < 2.4M WIDE-SCH-I_FL=STORY 1_SCH=A SPACE FUNCTION CORR. < 2.4M WIDE-SCH-A INFILTRATION,ALWAYS ON,WILD_ST=CORR. < 2.4M WIDE-SCH-I_FL=STORY 1_SCH=A,1875.00,18.8,0.000,0.000,N/A,0.000,1.000,0.000,0.000,0.000
! <AirFlow Model>, Simple
 AirFlow Model, Simple
! <RoomAir Model>, Zone Name, Mixing/Mundt/UCSDDV/UCSDCV/UCSDUFI/UCSDUFE/User Defined
RoomAir Model,ALL_ST=COURTHOUSE - CHAMBERS_FL=STORY 2_SCH=A,Mixing/Well-Stirred
RoomAir Model,ALL_ST=COURTHOUSE - COURTROOM_FL=STORY 2_SCH=A,Mixing/Well-Stirred
RoomAir Model,DU_BT=SPACE FUNCTION_ST=COURTHOUSE - CELL_FL=STORY 3_SCHH,Mixing/Well-Stirred
RoomAir Model,WILD_ST=CORR. < 2.4M WIDE-SCH-B_FL=STORY 4_SCH=A,Mixing/Well-Stirred
RoomAir Model,WILD_ST=CORR. < 2.4M WIDE-SCH-C_FL=STORY 4_SCH=A,Mixing/Well-Stirred
RoomAir Model,WILD_ST=CORR. < 2.4M WIDE-SCH-D_FL=STORY 4_SCH=A,Mixing/Well-Stirred
RoomAir Model,WILD_ST=CORR. < 2.4M WIDE-SCH-E_FL=STORY 3_SCH=A,Mixing/Well-Stirred
RoomAir Model,WILD_ST=CORR. < 2.4M WIDE-SCH-F_FL=STORY 3_SCH=A,Mixing/Well-Stirred
RoomAir Model,WILD_ST=CORR. < 2.4M WIDE-SCH-G_FL=STORY 3_SCH=A,Mixing/Well-Stirred
RoomAir Model,WILD_ST=CORR. < 2.4M WIDE-SCH-H_FL=STORY 2_SCH=A,Mixing/Well-Stirred
RoomAir Model,WILD_ST=CORR. < 2.4M WIDE-SCH-I_FL=STORY 1_SCH=A,Mixing/Well-Stirred
RoomAir Model,WILD_ST=CORR. >= 2.4M WIDE-SCH-A_FL=STORY 2_SCH=A,Mixing/Well-Stirred
RoomAir Model,WILD_ST=CORR. >= 2.4M WIDE-SCH-B_FL=STORY 4_SCH=A,Mixing/Well-Stirred
RoomAir Model,WILD_ST=CORR. >= 2.4M WIDE-SCH-C_FL=STORY 1_SCH=A,Mixing/Well-Stirred
RoomAir Model,WILD_ST=CORR. >= 2.4M WIDE-SCH-D_FL=STORY 1_SCH=A,Mixing/Well-Stirred
RoomAir Model,WILD_ST=CORR. >= 2.4M WIDE-SCH-E_FL=STORY 3_SCH=A,Mixing/Well-Stirred
RoomAir Model,WILD_ST=CORR. >= 2.4M WIDE-SCH-F_FL=STORY 1_SCH=A,Mixing/Well-Stirred
RoomAir Model,WILD_ST=CORR. >= 2.4M WIDE-SCH-G_FL=STORY 1_SCH=A,Mixing/Well-Stirred
RoomAir Model,WILD_ST=CORR. >= 2.4M WIDE-SCH-H_FL=STORY 2_SCH=A,Mixing/Well-Stirred
RoomAir Model,WILD_ST=CORR. >= 2.4M WIDE-SCH-I_FL=STORY 4_SCH=A,Mixing/Well-Stirred
! <AirflowNetwork Model:Control>, No Multizone or Distribution/Multizone with Distribution/Multizone without Distribution/Multizone with Distribution only during Fan Operation
AirflowNetwork Model:Control,NoMultizoneOrDistribution
! <Zone Volume Capacitance Multiplier>, Sensible Heat Capacity Multiplier, Moisture Capacity Multiplier, Carbon Dioxide Capacity Multiplier, Generic Contaminant Capacity Multiplier
Zone Volume Capacitance Multiplier,   1.000 ,   1.000,   1.000,   1.000
! <Load Timesteps in Zone Design Calculation Averaging Window>, Value
 Load Timesteps in Zone Design Calculation Averaging Window,    6
! <Heating Sizing Factor Information>, Sizing Factor ID, Value
 Heating Sizing Factor Information, Global,   1.3000    
 Heating Sizing Factor Information, Zone ALL_ST=COURTHOUSE - CHAMBERS_FL=STORY 2_SCH=A,   1.3000    
 Heating Sizing Factor Information, Zone ALL_ST=COURTHOUSE - COURTROOM_FL=STORY 2_SCH=A,   1.3000    
 Heating Sizing Factor Information, Zone DU_BT=SPACE FUNCTION_ST=COURTHOUSE - CELL_FL=STORY 3_SCHH,   1.3000    
 Heating Sizing Factor Information, Zone WILD_ST=CORR. < 2.4M WIDE-SCH-B_FL=STORY 4_SCH=A,   1.3000    
 Heating Sizing Factor Information, Zone WILD_ST=CORR. < 2.4M WIDE-SCH-C_FL=STORY 4_SCH=A,   1.3000    
 Heating Sizing Factor Information, Zone WILD_ST=CORR. < 2.4M WIDE-SCH-D_FL=STORY 4_SCH=A,   1.3000    
 Heating Sizing Factor Information, Zone WILD_ST=CORR. < 2.4M WIDE-SCH-E_FL=STORY 3_SCH=A,   1.3000    
 Heating Sizing Factor Information, Zone WILD_ST=CORR. < 2.4M WIDE-SCH-F_FL=STORY 3_SCH=A,   1.3000    
 Heating Sizing Factor Information, Zone WILD_ST=CORR. < 2.4M WIDE-SCH-G_FL=STORY 3_SCH=A,   1.3000    
 Heating Sizing Factor Information, Zone WILD_ST=CORR. < 2.4M WIDE-SCH-H_FL=STORY 2_SCH=A,   1.3000    
 Heating Sizing Factor Information, Zone WILD_ST=CORR. < 2.4M WIDE-SCH-I_FL=STORY 1_SCH=A,   1.3000    
 Heating Sizing Factor Information, Zone WILD_ST=CORR. >= 2.4M WIDE-SCH-A_FL=STORY 2_SCH=A,   1.3000    
 Heating Sizing Factor Information, Zone WILD_ST=CORR. >= 2.4M WIDE-SCH-B_FL=STORY 4_SCH=A,   1.3000    
 Heating Sizing Factor Information, Zone WILD_ST=CORR. >= 2.4M WIDE-SCH-C_FL=STORY 1_SCH=A,   1.3000    
 Heating Sizing Factor Information, Zone WILD_ST=CORR. >= 2.4M WIDE-SCH-D_FL=STORY 1_SCH=A,   1.3000    
 Heating Sizing Factor Information, Zone WILD_ST=CORR. >= 2.4M WIDE-SCH-E_FL=STORY 3_SCH=A,   1.3000    
 Heating Sizing Factor Information, Zone WILD_ST=CORR. >= 2.4M WIDE-SCH-F_FL=STORY 1_SCH=A,   1.3000    
 Heating Sizing Factor Information, Zone WILD_ST=CORR. >= 2.4M WIDE-SCH-G_FL=STORY 1_SCH=A,   1.3000    
 Heating Sizing Factor Information, Zone WILD_ST=CORR. >= 2.4M WIDE-SCH-H_FL=STORY 2_SCH=A,   1.3000    
 Heating Sizing Factor Information, Zone WILD_ST=CORR. >= 2.4M WIDE-SCH-I_FL=STORY 4_SCH=A,   1.3000    
! <Cooling Sizing Factor Information>, Sizing Factor ID, Value
 Cooling Sizing Factor Information, Global,   1.1000    
 Cooling Sizing Factor Information, Zone ALL_ST=COURTHOUSE - CHAMBERS_FL=STORY 2_SCH=A,   1.1000    
 Cooling Sizing Factor Information, Zone ALL_ST=COURTHOUSE - COURTROOM_FL=STORY 2_SCH=A,   1.1000    
 Cooling Sizing Factor Information, Zone DU_BT=SPACE FUNCTION_ST=COURTHOUSE - CELL_FL=STORY 3_SCHH,   1.1000    
 Cooling Sizing Factor Information, Zone WILD_ST=CORR. < 2.4M WIDE-SCH-B_FL=STORY 4_SCH=A,   1.1000    
 Cooling Sizing Factor Information, Zone WILD_ST=CORR. < 2.4M WIDE-SCH-C_FL=STORY 4_SCH=A,   1.1000    
 Cooling Sizing Factor Information, Zone WILD_ST=CORR. < 2.4M WIDE-SCH-D_FL=STORY 4_SCH=A,   1.1000    
 Cooling Sizing Factor Information, Zone WILD_ST=CORR. < 2.4M WIDE-SCH-E_FL=STORY 3_SCH=A,   1.1000    
 Cooling Sizing Factor Information, Zone WILD_ST=CORR. < 2.4M WIDE-SCH-F_FL=STORY 3_SCH=A,   1.1000    
 Cooling Sizing Factor Information, Zone WILD_ST=CORR. < 2.4M WIDE-SCH-G_FL=STORY 3_SCH=A,   1.1000    
 Cooling Sizing Factor Information, Zone WILD_ST=CORR. < 2.4M WIDE-SCH-H_FL=STORY 2_SCH=A,   1.1000    
 Cooling Sizing Factor Information, Zone WILD_ST=CORR. < 2.4M WIDE-SCH-I_FL=STORY 1_SCH=A,   1.1000    
 Cooling Sizing Factor Information, Zone WILD_ST=CORR. >= 2.4M WIDE-SCH-A_FL=STORY 2_SCH=A,   1.1000    
 Cooling Sizing Factor Information, Zone WILD_ST=CORR. >= 2.4M WIDE-SCH-B_FL=STORY 4_SCH=A,   1.1000    
 Cooling Sizing Factor Information, Zone WILD_ST=CORR. >= 2.4M WIDE-SCH-C_FL=STORY 1_SCH=A,   1.1000    
 Cooling Sizing Factor Information, Zone WILD_ST=CORR. >= 2.4M WIDE-SCH-D_FL=STORY 1_SCH=A,   1.1000    
 Cooling Sizing Factor Information, Zone WILD_ST=CORR. >= 2.4M WIDE-SCH-E_FL=STORY 3_SCH=A,   1.1000    
 Cooling Sizing Factor Information, Zone WILD_ST=CORR. >= 2.4M WIDE-SCH-F_FL=STORY 1_SCH=A,   1.1000    
 Cooling Sizing Factor Information, Zone WILD_ST=CORR. >= 2.4M WIDE-SCH-G_FL=STORY 1_SCH=A,   1.1000    
 Cooling Sizing Factor Information, Zone WILD_ST=CORR. >= 2.4M WIDE-SCH-H_FL=STORY 2_SCH=A,   1.1000    
 Cooling Sizing Factor Information, Zone WILD_ST=CORR. >= 2.4M WIDE-SCH-I_FL=STORY 4_SCH=A,   1.1000    
! <Zone Sizing Information>, Zone Name, Load Type, Calc Des Load {W}, User Des Load {W}, Calc Des Air Flow Rate {m3/s}, User Des Air Flow Rate {m3/s}, Design Day Name, Date/Time of Peak, Temperature at Peak {C}, Humidity Ratio at Peak {kgWater/kgDryAir}, Floor Area {m2}, # Occupants, Calc Outdoor Air Flow Rate {m3/s}, Calc DOAS Heat Addition Rate {W}
 Zone Sizing Information, ALL_ST=COURTHOUSE - CHAMBERS_FL=STORY 2_SCH=A, Cooling, 47034.44577, 51737.89035, 3.63525, 3.99877, FORT MCMURRAY AP ANN CLG .4% CONDNS DB=>MWB, 7/21 10:00:00, 24.18800, 8.76969E-003, 1875.00000, 93.84784, 0.80963, 0.00000
 Zone Sizing Information, ALL_ST=COURTHOUSE - CHAMBERS_FL=STORY 2_SCH=A, Heating, 13422.04047, 17448.65261, 0.52331, 0.80963, FORT MCMURRAY AP ANN HTG 99.6% CONDNS DB, 1/21 08:00:00, -36.20000, 1.25811E-004, 1875.00000, 93.84784, 0.80963, 0.00000
 Zone Sizing Information, ALL_ST=COURTHOUSE - COURTROOM_FL=STORY 2_SCH=A, Cooling, 61096.24596, 67205.87056, 4.72383, 5.20700, FORT MCMURRAY AP ANN CLG .4% CONDNS DB=>MWB, 7/21 17:00:00, 27.16400, 8.76969E-003, 2500.00000, 499.98364, 5.20700, 0.00000
 Zone Sizing Information, ALL_ST=COURTHOUSE - COURTROOM_FL=STORY 2_SCH=A, Heating, 0.00000, 0.00000, 0.00000, 5.20700, FORT MCMURRAY AP ANN HTG 99.6% CONDNS DB, , -36.20000, 1.25811E-004, 2500.00000, 499.98364, 5.20700, 0.00000
 Zone Sizing Information, DU_BT=SPACE FUNCTION_ST=COURTHOUSE - CELL_FL=STORY 3_SCHH, Cooling, 47155.22282, 51870.74510, 3.64460, 4.00906, FORT MCMURRAY AP ANN CLG .4% CONDNS DB=>MWB, 7/21 14:20:00, 28.90000, 8.76969E-003, 1875.00000, 75.07828, 2.33363, 0.00000
 Zone Sizing Information, DU_BT=SPACE FUNCTION_ST=COURTHOUSE - CELL_FL=STORY 3_SCHH, Heating, 0.00000, 0.00000, 0.00000, 2.33363, FORT MCMURRAY AP ANN HTG 99.6% CONDNS DB, , -36.20000, 1.25811E-004, 1875.00000, 75.07828, 2.33363, 0.00000
 Zone Sizing Information, WILD_ST=CORR. < 2.4M WIDE-SCH-B_FL=STORY 4_SCH=A, Cooling, 75774.42021, 83351.86223, 5.85618, 6.44179, FORT MCMURRAY AP ANN CLG .4% CONDNS DB=>MWB, 7/21 13:30:00, 28.59000, 8.76969E-003, 1875.00000, 18.76957, 0.57150, 0.00000
 Zone Sizing Information, WILD_ST=CORR. < 2.4M WIDE-SCH-B_FL=STORY 4_SCH=A, Heating, 96117.28140, 124952.46582, 3.85666, 5.01366, FORT MCMURRAY AP ANN HTG 99.6% CONDNS DB, 1/21 08:00:00, -36.20000, 1.25811E-004, 1875.00000, 18.76957, 0.57150, 0.00000
 Zone Sizing Information, WILD_ST=CORR. < 2.4M WIDE-SCH-C_FL=STORY 4_SCH=A, Cooling, 61758.05524, 67933.86077, 4.77296, 5.25025, FORT MCMURRAY AP ANN CLG .4% CONDNS DB=>MWB, 7/21 10:30:00, 25.11800, 8.76969E-003, 1875.00000, 18.76957, 0.57150, 0.00000
 Zone Sizing Information, WILD_ST=CORR. < 2.4M WIDE-SCH-C_FL=STORY 4_SCH=A, Heating, 102831.90326, 133681.47424, 4.12831, 5.36680, FORT MCMURRAY AP ANN HTG 99.6% CONDNS DB, 1/21 08:00:00, -36.20000, 1.25811E-004, 1875.00000, 18.76957, 0.57150, 0.00000
 Zone Sizing Information, WILD_ST=CORR. < 2.4M WIDE-SCH-D_FL=STORY 4_SCH=A, Cooling, 55888.15426, 61476.96969, 4.31927, 4.75120, FORT MCMURRAY AP ANN CLG .4% CONDNS DB=>MWB, 7/21 14:10:00, 28.90000, 8.76969E-003, 1875.00000, 18.76957, 0.57150, 0.00000
 Zone Sizing Information, WILD_ST=CORR. < 2.4M WIDE-SCH-D_FL=STORY 4_SCH=A, Heating, 104749.75147, 136174.67691, 4.20588, 5.46764, FORT MCMURRAY AP ANN HTG 99.6% CONDNS DB, 1/21 08:00:00, -36.20000, 1.25811E-004, 1875.00000, 18.76957, 0.57150, 0.00000
 Zone Sizing Information, WILD_ST=CORR. < 2.4M WIDE-SCH-E_FL=STORY 3_SCH=A, Cooling, 30330.30504, 33363.33554, 2.34405, 2.57846, FORT MCMURRAY AP ANN CLG .4% CONDNS DB=>MWB, 7/21 17:00:00, 27.16400, 8.76969E-003, 2500.00000, 25.02609, 0.76200, 0.00000
 Zone Sizing Information, WILD_ST=CORR. < 2.4M WIDE-SCH-E_FL=STORY 3_SCH=A, Heating, 3056.81441, 3973.85873, 0.12275, 0.76200, FORT MCMURRAY AP ANN HTG 99.6% CONDNS DB, 1/21 08:00:00, -36.20000, 1.25811E-004, 2500.00000, 25.02609, 0.76200, 0.00000
 Zone Sizing Information, WILD_ST=CORR. < 2.4M WIDE-SCH-F_FL=STORY 3_SCH=A, Cooling, 23314.74990, 25646.22489, 1.80186, 1.98205, FORT MCMURRAY AP ANN CLG .4% CONDNS DB=>MWB, 7/21 17:00:00, 27.16400, 8.76969E-003, 1875.00000, 18.76957, 0.57150, 0.00000
 Zone Sizing Information, WILD_ST=CORR. < 2.4M WIDE-SCH-F_FL=STORY 3_SCH=A, Heating, 42989.93754, 55886.91880, 1.71112, 2.22446, FORT MCMURRAY AP ANN HTG 99.6% CONDNS DB, 1/21 08:00:00, -36.20000, 1.25811E-004, 1875.00000, 18.76957, 0.57150, 0.00000
 Zone Sizing Information, WILD_ST=CORR. < 2.4M WIDE-SCH-G_FL=STORY 3_SCH=A, Cooling, 40323.27618, 44355.60379, 3.11636, 3.42799, FORT MCMURRAY AP ANN CLG .4% CONDNS DB=>MWB, 7/21 17:50:00, 26.13067, 8.76969E-003, 1875.00000, 18.76957, 0.57150, 0.00000
 Zone Sizing Information, WILD_ST=CORR. < 2.4M WIDE-SCH-G_FL=STORY 3_SCH=A, Heating, 42437.24641, 55168.42033, 1.68881, 2.19546, FORT MCMURRAY AP ANN HTG 99.6% CONDNS DB, 1/21 08:00:00, -36.20000, 1.25811E-004, 1875.00000, 18.76957, 0.57150, 0.00000
 Zone Sizing Information, WILD_ST=CORR. < 2.4M WIDE-SCH-H_FL=STORY 2_SCH=A, Cooling, 29181.60956, 32099.77051, 2.25527, 2.48079, FORT MCMURRAY AP ANN CLG .4% CONDNS DB=>MWB, 7/21 13:50:00, 28.79667, 8.76969E-003, 1875.00000, 18.76957, 0.57150, 0.00000
 Zone Sizing Information, WILD_ST=CORR. < 2.4M WIDE-SCH-H_FL=STORY 2_SCH=A, Heating, 25363.62894, 32972.71762, 0.99716, 1.29631, FORT MCMURRAY AP ANN HTG 99.6% CONDNS DB, 1/21 08:00:00, -36.20000, 1.25811E-004, 1875.00000, 18.76957, 0.57150, 0.00000
 Zone Sizing Information, WILD_ST=CORR. < 2.4M WIDE-SCH-I_FL=STORY 1_SCH=A, Cooling, 11710.95755, 12882.05330, 0.90507, 0.99558, FORT MCMURRAY AP ANN CLG .4% CONDNS DB=>MWB, 7/21 17:00:00, 27.16400, 8.76969E-003, 1875.00000, 18.76957, 0.57150, 0.00000
 Zone Sizing Information, WILD_ST=CORR. < 2.4M WIDE-SCH-I_FL=STORY 1_SCH=A, Heating, 4582.88745, 5957.75368, 0.18283, 0.57150, FORT MCMURRAY AP ANN HTG 99.6% CONDNS DB, 1/21 08:00:00, -36.20000, 1.25811E-004, 1875.00000, 18.76957, 0.57150, 0.00000
 Zone Sizing Information, WILD_ST=CORR. >= 2.4M WIDE-SCH-A_FL=STORY 2_SCH=A, Cooling, 31140.40644, 34254.44709, 2.40666, 2.64733, FORT MCMURRAY AP ANN CLG .4% CONDNS DB=>MWB, 7/21 17:50:00, 26.13067, 8.76969E-003, 1875.00000, 18.76957, 0.57150, 0.00000
 Zone Sizing Information, WILD_ST=CORR. >= 2.4M WIDE-SCH-A_FL=STORY 2_SCH=A, Heating, 24918.93319, 32394.61314, 0.97913, 1.27286, FORT MCMURRAY AP ANN HTG 99.6% CONDNS DB, 1/21 08:00:00, -36.20000, 1.25811E-004, 1875.00000, 18.76957, 0.57150, 0.00000
 Zone Sizing Information, WILD_ST=CORR. >= 2.4M WIDE-SCH-B_FL=STORY 4_SCH=A, Cooling, 64130.63349, 70543.69684, 4.95626, 5.45189, FORT MCMURRAY AP ANN CLG .4% CONDNS DB=>MWB, 7/21 13:40:00, 28.69333, 8.76969E-003, 2500.00000, 25.02609, 0.76200, 0.00000
 Zone Sizing Information, WILD_ST=CORR. >= 2.4M WIDE-SCH-B_FL=STORY 4_SCH=A, Heating, 50006.44376, 65008.37689, 1.98481, 2.58025, FORT MCMURRAY AP ANN HTG 99.6% CONDNS DB, 1/21 08:00:00, -36.20000, 1.25811E-004, 2500.00000, 25.02609, 0.76200, 0.00000
 Zone Sizing Information, WILD_ST=CORR. >= 2.4M WIDE-SCH-C_FL=STORY 1_SCH=A, Cooling, 13261.91858, 14588.11044, 0.96575, 1.06232, FORT MCMURRAY AP ANN CLG .4% CONDNS DB=>MWB, 7/21 07:00:00, 17.61600, 8.76969E-003, 1875.00000, 18.76957, 0.57150, 0.00000
 Zone Sizing Information, WILD_ST=CORR. >= 2.4M WIDE-SCH-C_FL=STORY 1_SCH=A, Heating, 6160.84831, 8009.10280, 0.24518, 0.57150, FORT MCMURRAY AP ANN HTG 99.6% CONDNS DB, 1/21 08:00:00, -36.20000, 1.25811E-004, 1875.00000, 18.76957, 0.57150, 0.00000
 Zone Sizing Information, WILD_ST=CORR. >= 2.4M WIDE-SCH-D_FL=STORY 1_SCH=A, Cooling, 14359.60701, 15795.56771, 1.10977, 1.22075, FORT MCMURRAY AP ANN CLG .4% CONDNS DB=>MWB, 7/21 12:00:00, 27.28800, 8.76969E-003, 1875.00000, 18.76957, 0.57150, 0.00000
 Zone Sizing Information, WILD_ST=CORR. >= 2.4M WIDE-SCH-D_FL=STORY 1_SCH=A, Heating, 0.00000, 0.00000, 0.00000, 0.57150, FORT MCMURRAY AP ANN HTG 99.6% CONDNS DB, , -36.20000, 1.25811E-004, 1875.00000, 18.76957, 0.57150, 0.00000
 Zone Sizing Information, WILD_ST=CORR. >= 2.4M WIDE-SCH-E_FL=STORY 3_SCH=A, Cooling, 35782.51018, 39360.76119, 2.56825, 2.82508, FORT MCMURRAY AP ANN CLG .4% CONDNS DB=>MWB, 7/21 07:00:00, 17.61600, 8.76969E-003, 1875.00000, 18.76957, 0.57150, 0.00000
 Zone Sizing Information, WILD_ST=CORR. >= 2.4M WIDE-SCH-E_FL=STORY 3_SCH=A, Heating, 30357.55748, 39464.82472, 1.19993, 1.55991, FORT MCMURRAY AP ANN HTG 99.6% CONDNS DB, 1/21 08:00:00, -36.20000, 1.25811E-004, 1875.00000, 18.76957, 0.57150, 0.00000
 Zone Sizing Information, WILD_ST=CORR. >= 2.4M WIDE-SCH-F_FL=STORY 1_SCH=A, Cooling, 13025.82028, 14328.40231, 1.00669, 1.10736, FORT MCMURRAY AP ANN CLG .4% CONDNS DB=>MWB, 7/21 17:00:00, 27.16400, 8.76969E-003, 1875.00000, 18.76957, 0.57150, 0.00000
 Zone Sizing Information, WILD_ST=CORR. >= 2.4M WIDE-SCH-F_FL=STORY 1_SCH=A, Heating, 2349.93970, 3054.92161, 9.41940E-002, 0.57150, FORT MCMURRAY AP ANN HTG 99.6% CONDNS DB, 1/21 08:00:00, -36.20000, 1.25811E-004, 1875.00000, 18.76957, 0.57150, 0.00000
 Zone Sizing Information, WILD_ST=CORR. >= 2.4M WIDE-SCH-G_FL=STORY 1_SCH=A, Cooling, 16167.18451, 17783.90296, 1.17875, 1.29663, FORT MCMURRAY AP ANN CLG .4% CONDNS DB=>MWB, 7/21 07:00:00, 17.61600, 8.76969E-003, 2500.00000, 25.02609, 0.76200, 0.00000
 Zone Sizing Information, WILD_ST=CORR. >= 2.4M WIDE-SCH-G_FL=STORY 1_SCH=A, Heating, 0.00000, 0.00000, 0.00000, 0.76200, FORT MCMURRAY AP ANN HTG 99.6% CONDNS DB, , -36.20000, 1.25811E-004, 2500.00000, 25.02609, 0.76200, 0.00000
 Zone Sizing Information, WILD_ST=CORR. >= 2.4M WIDE-SCH-H_FL=STORY 2_SCH=A, Cooling, 16332.60614, 17965.86676, 1.26225, 1.38848, FORT MCMURRAY AP ANN CLG .4% CONDNS DB=>MWB, 7/21 16:40:00, 27.49467, 8.76969E-003, 1875.00000, 18.76957, 0.57150, 0.00000
 Zone Sizing Information, WILD_ST=CORR. >= 2.4M WIDE-SCH-H_FL=STORY 2_SCH=A, Heating, 24634.05354, 32024.26961, 0.96754, 1.25780, FORT MCMURRAY AP ANN HTG 99.6% CONDNS DB, 1/21 08:00:00, -36.20000, 1.25811E-004, 1875.00000, 18.76957, 0.57150, 0.00000
 Zone Sizing Information, WILD_ST=CORR. >= 2.4M WIDE-SCH-I_FL=STORY 4_SCH=A, Cooling, 65759.53882, 72335.49270, 5.08219, 5.59041, FORT MCMURRAY AP ANN CLG .4% CONDNS DB=>MWB, 7/21 16:10:00, 27.99067, 8.76969E-003, 1875.00000, 18.76957, 0.57150, 0.00000
 Zone Sizing Information, WILD_ST=CORR. >= 2.4M WIDE-SCH-I_FL=STORY 4_SCH=A, Heating, 57707.59195, 75019.86954, 2.30513, 2.99666, FORT MCMURRAY AP ANN HTG 99.6% CONDNS DB, 1/21 08:00:00, -36.20000, 1.25811E-004, 1875.00000, 18.76957, 0.57150, 0.00000
! <System Sizing Information>, System Name, Load Type, Peak Load Kind, User Design Capacity, Calc Des Air Flow Rate [m3/s], User Des Air Flow Rate [m3/s], Design Day Name, Date/Time of Peak
 System Sizing Information, SYS_3_PSZ ALL_ST=COURTHOUSE - CHAMBERS_FL=STORY 2_SCH=A, Cooling, Sensible, 51115.01, 3.99877, 3.99877, FORT MCMURRAY AP ANN CLG .4% CONDNS DB=>MWB, 7/21 05:00:00
 System Sizing Information, SYS_3_PSZ ALL_ST=COURTHOUSE - CHAMBERS_FL=STORY 2_SCH=A, Heating, Sensible, 74262.10, 0.80963, 0.80963, FORT MCMURRAY AP ANN HTG 99.6% CONDNS DB, 1/21 00:10:00
 System Sizing Information, SYS_3_PSZ ALL_ST=COURTHOUSE - COURTROOM_FL=STORY 2_SCH=A, Cooling, Sensible, 85414.50, 5.20700, 5.20700, FORT MCMURRAY AP ANN CLG .4% CONDNS DB=>MWB, 7/21 05:00:00
 System Sizing Information, SYS_3_PSZ ALL_ST=COURTHOUSE - COURTROOM_FL=STORY 2_SCH=A, Heating, Sensible, 477607.21, 5.20700, 5.20700, FORT MCMURRAY AP ANN HTG 99.6% CONDNS DB, 1/21 00:10:00
 System Sizing Information, SYS_3_PSZ DU_BT=SPACE FUNCTION_ST=COURTHOUSE - CELL_FL=STORY 3_SCHH, Cooling, Sensible, 64314.26, 4.00906, 4.00906, FORT MCMURRAY AP ANN CLG .4% CONDNS DB=>MWB, 7/21 05:00:00
 System Sizing Information, SYS_3_PSZ DU_BT=SPACE FUNCTION_ST=COURTHOUSE - CELL_FL=STORY 3_SCHH, Heating, Sensible, 214049.57, 2.33363, 2.33363, FORT MCMURRAY AP ANN HTG 99.6% CONDNS DB, 1/21 00:10:00
 System Sizing Information, SYS_4_PSZ_WILD_ST=CORR. < 2.4M WIDE-SCH-B_FL=STORY 4_SCH=A, Cooling, Sensible, 673108.73, 50.49835, 50.49835, FORT MCMURRAY AP ANN CLG .4% CONDNS DB=>MWB, 7/21 05:00:00
 System Sizing Information, SYS_4_PSZ_WILD_ST=CORR. < 2.4M WIDE-SCH-B_FL=STORY 4_SCH=A, Heating, Sensible, 1550000.25, 35.04183, 35.04183, FORT MCMURRAY AP ANN HTG 99.6% CONDNS DB, 1/21 08:00:00
! <Component Sizing Information>, Component Type, Component Name, Input Field Description, Value
 Component Sizing Information, AirTerminal:SingleDuct:Uncontrolled, AIR TERMINAL SINGLE DUCT UNCONTROLLED 19, Design Size Maximum Air Flow Rate [m3/s], 3.99877
 Component Sizing Information, ZoneHVAC:Baseboard:Convective:Water, ZONE HVAC BASEBOARD CONVECTIVE WATER 19, Design Size Maximum Water Flow Rate [m3/s], 2.60610E-004
 Component Sizing Information, ZoneHVAC:Baseboard:Convective:Water, ZONE HVAC BASEBOARD CONVECTIVE WATER 19, Design Size U-Factor Times Area Value [W/K], 528.03440
 Component Sizing Information, AirTerminal:SingleDuct:Uncontrolled, AIR TERMINAL SINGLE DUCT UNCONTROLLED 20, Design Size Maximum Air Flow Rate [m3/s], 5.20700
 Component Sizing Information, ZoneHVAC:Baseboard:Convective:Water, ZONE HVAC BASEBOARD CONVECTIVE WATER 20, Design Size Maximum Water Flow Rate [m3/s], 0.00000
 Component Sizing Information, ZoneHVAC:Baseboard:Convective:Water, ZONE HVAC BASEBOARD CONVECTIVE WATER 20, Design Size U-Factor Times Area Value [W/K], 0.00000
 Component Sizing Information, AirTerminal:SingleDuct:Uncontrolled, AIR TERMINAL SINGLE DUCT UNCONTROLLED 1, Design Size Maximum Air Flow Rate [m3/s], 4.00906
 Component Sizing Information, ZoneHVAC:Baseboard:Convective:Water, ZONE HVAC BASEBOARD CONVECTIVE WATER 1, Design Size Maximum Water Flow Rate [m3/s], 0.00000
 Component Sizing Information, ZoneHVAC:Baseboard:Convective:Water, ZONE HVAC BASEBOARD CONVECTIVE WATER 1, Design Size U-Factor Times Area Value [W/K], 0.00000
 Component Sizing Information, AirTerminal:SingleDuct:Uncontrolled, AIR TERMINAL SINGLE DUCT UNCONTROLLED 2, Design Size Maximum Air Flow Rate [m3/s], 6.44179
 Component Sizing Information, ZoneHVAC:Baseboard:Convective:Water, ZONE HVAC BASEBOARD CONVECTIVE WATER 2, Design Size Maximum Water Flow Rate [m3/s], 1.86627E-003
 Component Sizing Information, ZoneHVAC:Baseboard:Convective:Water, ZONE HVAC BASEBOARD CONVECTIVE WATER 2, Design Size U-Factor Times Area Value [W/K], 3812.19395
 Component Sizing Information, AirTerminal:SingleDuct:Uncontrolled, AIR TERMINAL SINGLE DUCT UNCONTROLLED 3, Design Size Maximum Air Flow Rate [m3/s], 5.36680
 Component Sizing Information, ZoneHVAC:Baseboard:Convective:Water, ZONE HVAC BASEBOARD CONVECTIVE WATER 3, Design Size Maximum Water Flow Rate [m3/s], 1.99664E-003
 Component Sizing Information, ZoneHVAC:Baseboard:Convective:Water, ZONE HVAC BASEBOARD CONVECTIVE WATER 3, Design Size U-Factor Times Area Value [W/K], 4078.12430
 Component Sizing Information, AirTerminal:SingleDuct:Uncontrolled, AIR TERMINAL SINGLE DUCT UNCONTROLLED 4, Design Size Maximum Air Flow Rate [m3/s], 5.46764
 Component Sizing Information, ZoneHVAC:Baseboard:Convective:Water, ZONE HVAC BASEBOARD CONVECTIVE WATER 4, Design Size Maximum Water Flow Rate [m3/s], 2.03388E-003
 Component Sizing Information, ZoneHVAC:Baseboard:Convective:Water, ZONE HVAC BASEBOARD CONVECTIVE WATER 4, Design Size U-Factor Times Area Value [W/K], 4154.07738
 Component Sizing Information, AirTerminal:SingleDuct:Uncontrolled, AIR TERMINAL SINGLE DUCT UNCONTROLLED 5, Design Size Maximum Air Flow Rate [m3/s], 2.57846
 Component Sizing Information, ZoneHVAC:Baseboard:Convective:Water, ZONE HVAC BASEBOARD CONVECTIVE WATER 5, Design Size Maximum Water Flow Rate [m3/s], 5.93528E-005
 Component Sizing Information, ZoneHVAC:Baseboard:Convective:Water, ZONE HVAC BASEBOARD CONVECTIVE WATER 5, Design Size U-Factor Times Area Value [W/K], 120.32510
 Component Sizing Information, AirTerminal:SingleDuct:Uncontrolled, AIR TERMINAL SINGLE DUCT UNCONTROLLED 6, Design Size Maximum Air Flow Rate [m3/s], 2.22446
 Component Sizing Information, ZoneHVAC:Baseboard:Convective:Water, ZONE HVAC BASEBOARD CONVECTIVE WATER 6, Design Size Maximum Water Flow Rate [m3/s], 8.34717E-004
 Component Sizing Information, ZoneHVAC:Baseboard:Convective:Water, ZONE HVAC BASEBOARD CONVECTIVE WATER 6, Design Size U-Factor Times Area Value [W/K], 1705.11599
 Component Sizing Information, AirTerminal:SingleDuct:Uncontrolled, AIR TERMINAL SINGLE DUCT UNCONTROLLED 7, Design Size Maximum Air Flow Rate [m3/s], 3.42799
 Component Sizing Information, ZoneHVAC:Baseboard:Convective:Water, ZONE HVAC BASEBOARD CONVECTIVE WATER 7, Design Size Maximum Water Flow Rate [m3/s], 8.23985E-004
 Component Sizing Information, ZoneHVAC:Baseboard:Convective:Water, ZONE HVAC BASEBOARD CONVECTIVE WATER 7, Design Size U-Factor Times Area Value [W/K], 1683.27162
 Component Sizing Information, AirTerminal:SingleDuct:Uncontrolled, AIR TERMINAL SINGLE DUCT UNCONTROLLED 8, Design Size Maximum Air Flow Rate [m3/s], 2.48079
 Component Sizing Information, ZoneHVAC:Baseboard:Convective:Water, ZONE HVAC BASEBOARD CONVECTIVE WATER 8, Design Size Maximum Water Flow Rate [m3/s], 4.92474E-004
 Component Sizing Information, ZoneHVAC:Baseboard:Convective:Water, ZONE HVAC BASEBOARD CONVECTIVE WATER 8, Design Size U-Factor Times Area Value [W/K], 1007.77345
 Component Sizing Information, AirTerminal:SingleDuct:Uncontrolled, AIR TERMINAL SINGLE DUCT UNCONTROLLED 9, Design Size Maximum Air Flow Rate [m3/s], 0.99558
 Component Sizing Information, ZoneHVAC:Baseboard:Convective:Water, ZONE HVAC BASEBOARD CONVECTIVE WATER 9, Design Size Maximum Water Flow Rate [m3/s], 8.89839E-005
 Component Sizing Information, ZoneHVAC:Baseboard:Convective:Water, ZONE HVAC BASEBOARD CONVECTIVE WATER 9, Design Size U-Factor Times Area Value [W/K], 180.43606
 Component Sizing Information, AirTerminal:SingleDuct:Uncontrolled, AIR TERMINAL SINGLE DUCT UNCONTROLLED 10, Design Size Maximum Air Flow Rate [m3/s], 2.64733
 Component Sizing Information, ZoneHVAC:Baseboard:Convective:Water, ZONE HVAC BASEBOARD CONVECTIVE WATER 10, Design Size Maximum Water Flow Rate [m3/s], 4.83840E-004
 Component Sizing Information, ZoneHVAC:Baseboard:Convective:Water, ZONE HVAC BASEBOARD CONVECTIVE WATER 10, Design Size U-Factor Times Area Value [W/K], 987.35767
 Component Sizing Information, AirTerminal:SingleDuct:Uncontrolled, AIR TERMINAL SINGLE DUCT UNCONTROLLED 11, Design Size Maximum Air Flow Rate [m3/s], 5.45189
 Component Sizing Information, ZoneHVAC:Baseboard:Convective:Water, ZONE HVAC BASEBOARD CONVECTIVE WATER 11, Design Size Maximum Water Flow Rate [m3/s], 9.70953E-004
 Component Sizing Information, ZoneHVAC:Baseboard:Convective:Water, ZONE HVAC BASEBOARD CONVECTIVE WATER 11, Design Size U-Factor Times Area Value [W/K], 1982.39466
 Component Sizing Information, AirTerminal:SingleDuct:Uncontrolled, AIR TERMINAL SINGLE DUCT UNCONTROLLED 12, Design Size Maximum Air Flow Rate [m3/s], 1.06232
 Component Sizing Information, ZoneHVAC:Baseboard:Convective:Water, ZONE HVAC BASEBOARD CONVECTIVE WATER 12, Design Size Maximum Water Flow Rate [m3/s], 1.19622E-004
 Component Sizing Information, ZoneHVAC:Baseboard:Convective:Water, ZONE HVAC BASEBOARD CONVECTIVE WATER 12, Design Size U-Factor Times Area Value [W/K], 242.75052
 Component Sizing Information, AirTerminal:SingleDuct:Uncontrolled, AIR TERMINAL SINGLE DUCT UNCONTROLLED 13, Design Size Maximum Air Flow Rate [m3/s], 1.22075
 Component Sizing Information, ZoneHVAC:Baseboard:Convective:Water, ZONE HVAC BASEBOARD CONVECTIVE WATER 13, Design Size Maximum Water Flow Rate [m3/s], 0.00000
 Component Sizing Information, ZoneHVAC:Baseboard:Convective:Water, ZONE HVAC BASEBOARD CONVECTIVE WATER 13, Design Size U-Factor Times Area Value [W/K], 0.00000
 Component Sizing Information, AirTerminal:SingleDuct:Uncontrolled, AIR TERMINAL SINGLE DUCT UNCONTROLLED 14, Design Size Maximum Air Flow Rate [m3/s], 2.82508
 Component Sizing Information, ZoneHVAC:Baseboard:Convective:Water, ZONE HVAC BASEBOARD CONVECTIVE WATER 14, Design Size Maximum Water Flow Rate [m3/s], 5.89439E-004
 Component Sizing Information, ZoneHVAC:Baseboard:Convective:Water, ZONE HVAC BASEBOARD CONVECTIVE WATER 14, Design Size U-Factor Times Area Value [W/K], 1202.87086
 Component Sizing Information, AirTerminal:SingleDuct:Uncontrolled, AIR TERMINAL SINGLE DUCT UNCONTROLLED 15, Design Size Maximum Air Flow Rate [m3/s], 1.10736
 Component Sizing Information, ZoneHVAC:Baseboard:Convective:Water, ZONE HVAC BASEBOARD CONVECTIVE WATER 15, Design Size Maximum Water Flow Rate [m3/s], 4.56277E-005
 Component Sizing Information, ZoneHVAC:Baseboard:Convective:Water, ZONE HVAC BASEBOARD CONVECTIVE WATER 15, Design Size U-Factor Times Area Value [W/K], 92.52392
 Component Sizing Information, AirTerminal:SingleDuct:Uncontrolled, AIR TERMINAL SINGLE DUCT UNCONTROLLED 16, Design Size Maximum Air Flow Rate [m3/s], 1.29663
 Component Sizing Information, ZoneHVAC:Baseboard:Convective:Water, ZONE HVAC BASEBOARD CONVECTIVE WATER 16, Design Size Maximum Water Flow Rate [m3/s], 0.00000
 Component Sizing Information, ZoneHVAC:Baseboard:Convective:Water, ZONE HVAC BASEBOARD CONVECTIVE WATER 16, Design Size U-Factor Times Area Value [W/K], 0.00000
 Component Sizing Information, AirTerminal:SingleDuct:Uncontrolled, AIR TERMINAL SINGLE DUCT UNCONTROLLED 17, Design Size Maximum Air Flow Rate [m3/s], 1.38848
 Component Sizing Information, ZoneHVAC:Baseboard:Convective:Water, ZONE HVAC BASEBOARD CONVECTIVE WATER 17, Design Size Maximum Water Flow Rate [m3/s], 4.78308E-004
 Component Sizing Information, ZoneHVAC:Baseboard:Convective:Water, ZONE HVAC BASEBOARD CONVECTIVE WATER 17, Design Size U-Factor Times Area Value [W/K], 976.07064
 Component Sizing Information, AirTerminal:SingleDuct:Uncontrolled, AIR TERMINAL SINGLE DUCT UNCONTROLLED 18, Design Size Maximum Air Flow Rate [m3/s], 5.59041
 Component Sizing Information, ZoneHVAC:Baseboard:Convective:Water, ZONE HVAC BASEBOARD CONVECTIVE WATER 18, Design Size Maximum Water Flow Rate [m3/s], 1.12048E-003
 Component Sizing Information, ZoneHVAC:Baseboard:Convective:Water, ZONE HVAC BASEBOARD CONVECTIVE WATER 18, Design Size U-Factor Times Area Value [W/K], 2286.80183
 Component Sizing Information, AirLoopHVAC, SYS_3_PSZ ALL_ST=COURTHOUSE - CHAMBERS_FL=STORY 2_SCH=A, Sum of Air Terminal Maximum Heating Flow Rates [m3/s], 3.99877
 Component Sizing Information, AirLoopHVAC, SYS_3_PSZ ALL_ST=COURTHOUSE - CHAMBERS_FL=STORY 2_SCH=A, Sum of Air Terminal Minimum Heating Flow Rates [m3/s], 3.99877
 Component Sizing Information, AirLoopHVAC, SYS_3_PSZ ALL_ST=COURTHOUSE - CHAMBERS_FL=STORY 2_SCH=A, Sum of Air Terminal Maximum Flow Rates [m3/s], 3.99877
 Component Sizing Information, AirLoopHVAC, SYS_3_PSZ ALL_ST=COURTHOUSE - CHAMBERS_FL=STORY 2_SCH=A, Adjusted Heating Design Air Flow Rate [m3/s], 3.99877
 Component Sizing Information, AirLoopHVAC, SYS_3_PSZ ALL_ST=COURTHOUSE - CHAMBERS_FL=STORY 2_SCH=A, Adjusted Cooling Design Air Flow Rate [m3/s], 3.99877
 Component Sizing Information, AirLoopHVAC, SYS_3_PSZ ALL_ST=COURTHOUSE - CHAMBERS_FL=STORY 2_SCH=A, Adjusted Main Design Air Flow Rate [m3/s], 3.99877
 Component Sizing Information, AirLoopHVAC, SYS_3_PSZ ALL_ST=COURTHOUSE - CHAMBERS_FL=STORY 2_SCH=A, User Heating Air Flow Ratio [], 1.00000
 Component Sizing Information, AirLoopHVAC, SYS_3_PSZ ALL_ST=COURTHOUSE - CHAMBERS_FL=STORY 2_SCH=A, Calculated Heating Air Flow Ratio [], 1.00000
 Component Sizing Information, AirLoopHVAC, SYS_3_PSZ ALL_ST=COURTHOUSE - COURTROOM_FL=STORY 2_SCH=A, Sum of Air Terminal Maximum Heating Flow Rates [m3/s], 5.20700
 Component Sizing Information, AirLoopHVAC, SYS_3_PSZ ALL_ST=COURTHOUSE - COURTROOM_FL=STORY 2_SCH=A, Sum of Air Terminal Minimum Heating Flow Rates [m3/s], 5.20700
 Component Sizing Information, AirLoopHVAC, SYS_3_PSZ ALL_ST=COURTHOUSE - COURTROOM_FL=STORY 2_SCH=A, Sum of Air Terminal Maximum Flow Rates [m3/s], 5.20700
 Component Sizing Information, AirLoopHVAC, SYS_3_PSZ ALL_ST=COURTHOUSE - COURTROOM_FL=STORY 2_SCH=A, Adjusted Heating Design Air Flow Rate [m3/s], 5.20700
 Component Sizing Information, AirLoopHVAC, SYS_3_PSZ ALL_ST=COURTHOUSE - COURTROOM_FL=STORY 2_SCH=A, Adjusted Cooling Design Air Flow Rate [m3/s], 5.20700
 Component Sizing Information, AirLoopHVAC, SYS_3_PSZ ALL_ST=COURTHOUSE - COURTROOM_FL=STORY 2_SCH=A, Adjusted Main Design Air Flow Rate [m3/s], 5.20700
 Component Sizing Information, AirLoopHVAC, SYS_3_PSZ ALL_ST=COURTHOUSE - COURTROOM_FL=STORY 2_SCH=A, User Heating Air Flow Ratio [], 1.00000
 Component Sizing Information, AirLoopHVAC, SYS_3_PSZ ALL_ST=COURTHOUSE - COURTROOM_FL=STORY 2_SCH=A, Calculated Heating Air Flow Ratio [], 1.00000
 Component Sizing Information, AirLoopHVAC, SYS_3_PSZ DU_BT=SPACE FUNCTION_ST=COURTHOUSE - CELL_FL=STORY 3_SCHH, Sum of Air Terminal Maximum Heating Flow Rates [m3/s], 4.00906
 Component Sizing Information, AirLoopHVAC, SYS_3_PSZ DU_BT=SPACE FUNCTION_ST=COURTHOUSE - CELL_FL=STORY 3_SCHH, Sum of Air Terminal Minimum Heating Flow Rates [m3/s], 4.00906
 Component Sizing Information, AirLoopHVAC, SYS_3_PSZ DU_BT=SPACE FUNCTION_ST=COURTHOUSE - CELL_FL=STORY 3_SCHH, Sum of Air Terminal Maximum Flow Rates [m3/s], 4.00906
 Component Sizing Information, AirLoopHVAC, SYS_3_PSZ DU_BT=SPACE FUNCTION_ST=COURTHOUSE - CELL_FL=STORY 3_SCHH, Adjusted Heating Design Air Flow Rate [m3/s], 4.00906
 Component Sizing Information, AirLoopHVAC, SYS_3_PSZ DU_BT=SPACE FUNCTION_ST=COURTHOUSE - CELL_FL=STORY 3_SCHH, Adjusted Cooling Design Air Flow Rate [m3/s], 4.00906
 Component Sizing Information, AirLoopHVAC, SYS_3_PSZ DU_BT=SPACE FUNCTION_ST=COURTHOUSE - CELL_FL=STORY 3_SCHH, Adjusted Main Design Air Flow Rate [m3/s], 4.00906
 Component Sizing Information, AirLoopHVAC, SYS_3_PSZ DU_BT=SPACE FUNCTION_ST=COURTHOUSE - CELL_FL=STORY 3_SCHH, User Heating Air Flow Ratio [], 1.00000
 Component Sizing Information, AirLoopHVAC, SYS_3_PSZ DU_BT=SPACE FUNCTION_ST=COURTHOUSE - CELL_FL=STORY 3_SCHH, Calculated Heating Air Flow Ratio [], 1.00000
 Component Sizing Information, AirLoopHVAC, SYS_4_PSZ_WILD_ST=CORR. < 2.4M WIDE-SCH-B_FL=STORY 4_SCH=A, Sum of Air Terminal Maximum Heating Flow Rates [m3/s], 51.57376
 Component Sizing Information, AirLoopHVAC, SYS_4_PSZ_WILD_ST=CORR. < 2.4M WIDE-SCH-B_FL=STORY 4_SCH=A, Sum of Air Terminal Minimum Heating Flow Rates [m3/s], 51.57376
 Component Sizing Information, AirLoopHVAC, SYS_4_PSZ_WILD_ST=CORR. < 2.4M WIDE-SCH-B_FL=STORY 4_SCH=A, Sum of Air Terminal Maximum Flow Rates [m3/s], 51.57376
 Component Sizing Information, AirLoopHVAC, SYS_4_PSZ_WILD_ST=CORR. < 2.4M WIDE-SCH-B_FL=STORY 4_SCH=A, Adjusted Heating Design Air Flow Rate [m3/s], 51.57376
 Component Sizing Information, AirLoopHVAC, SYS_4_PSZ_WILD_ST=CORR. < 2.4M WIDE-SCH-B_FL=STORY 4_SCH=A, Adjusted Cooling Design Air Flow Rate [m3/s], 51.57376
 Component Sizing Information, AirLoopHVAC, SYS_4_PSZ_WILD_ST=CORR. < 2.4M WIDE-SCH-B_FL=STORY 4_SCH=A, Adjusted Main Design Air Flow Rate [m3/s], 51.57376
 Component Sizing Information, AirLoopHVAC, SYS_4_PSZ_WILD_ST=CORR. < 2.4M WIDE-SCH-B_FL=STORY 4_SCH=A, User Heating Air Flow Ratio [], 1.00000
 Component Sizing Information, AirLoopHVAC, SYS_4_PSZ_WILD_ST=CORR. < 2.4M WIDE-SCH-B_FL=STORY 4_SCH=A, Calculated Heating Air Flow Ratio [], 1.00000
 Component Sizing Information, AirLoopHVAC, SYS_3_PSZ ALL_ST=COURTHOUSE - CHAMBERS_FL=STORY 2_SCH=A, Design Supply Air Flow Rate [m3/s], 3.99877
 Component Sizing Information, AirLoopHVAC, SYS_3_PSZ ALL_ST=COURTHOUSE - COURTROOM_FL=STORY 2_SCH=A, Design Supply Air Flow Rate [m3/s], 5.20700
 Component Sizing Information, AirLoopHVAC, SYS_3_PSZ DU_BT=SPACE FUNCTION_ST=COURTHOUSE - CELL_FL=STORY 3_SCHH, Design Supply Air Flow Rate [m3/s], 4.00906
 Component Sizing Information, AirLoopHVAC, SYS_4_PSZ_WILD_ST=CORR. < 2.4M WIDE-SCH-B_FL=STORY 4_SCH=A, Design Supply Air Flow Rate [m3/s], 51.57376
!<Controller:MechanicalVentilation>,Name,Availability Schedule Name,Demand Controlled Ventilation {Yes/No},System Outdoor Air Method,Zone Maximum Outdoor Air Fraction,Number of Zones,Zone Name,DSOA Name,DSZAD Name
 Controller:MechanicalVentilation,CONTROLLER MECHANICAL VENTILATION 3,ALWAYS ON DISCRETE,No,ZoneSum,1.00,1,ALL_ST=COURTHOUSE - CHAMBERS_FL=STORY 2_SCH=A,SPACE FUNCTION COURTHOUSE - CHAMBERS VENTILATION,ALL_ST=COURTHOUSE - CHAMBERS_FL=STORY 2_SCH=A DESIGN SPEC ZONE AIR DIST
 Controller:MechanicalVentilation,CONTROLLER MECHANICAL VENTILATION 4,ALWAYS ON DISCRETE,No,ZoneSum,1.00,1,ALL_ST=COURTHOUSE - COURTROOM_FL=STORY 2_SCH=A,SPACE FUNCTION COURTHOUSE - COURTROOM VENTILATION,ALL_ST=COURTHOUSE - COURTROOM_FL=STORY 2_SCH=A DESIGN SPEC ZONE AIR DIST
 Controller:MechanicalVentilation,CONTROLLER MECHANICAL VENTILATION 1,ALWAYS ON DISCRETE,No,ZoneSum,1.00,1,DU_BT=SPACE FUNCTION_ST=COURTHOUSE - CELL_FL=STORY 3_SCHH,SPACE FUNCTION COURTHOUSE - CELL VENTILATION,DU_BT=SPACE FUNCTION_ST=COURTHOUSE - CELL_FL=STORY 3_SCHH DESIGN SPEC ZONE AIR DIST
 Controller:MechanicalVentilation,CONTROLLER MECHANICAL VENTILATION 2,ALWAYS ON DISCRETE,No,ZoneSum,1.00,17,WILD_ST=CORR. < 2.4M WIDE-SCH-B_FL=STORY 4_SCH=A,SPACE FUNCTION CORR. < 2.4M WIDE-SCH-A VENTILATION,WILD_ST=CORR. < 2.4M WIDE-SCH-B_FL=STORY 4_SCH=A DESIGN SPEC ZONE AIR DIST,WILD_ST=CORR. < 2.4M WIDE-SCH-C_FL=STORY 4_SCH=A,SPACE FUNCTION CORR. < 2.4M WIDE-SCH-A VENTILATION,WILD_ST=CORR. < 2.4M WIDE-SCH-C_FL=STORY 4_SCH=A DESIGN SPEC ZONE AIR DIST,WILD_ST=CORR. < 2.4M WIDE-SCH-D_FL=STORY 4_SCH=A,SPACE FUNCTION CORR. < 2.4M WIDE-SCH-A VENTILATION,WILD_ST=CORR. < 2.4M WIDE-SCH-D_FL=STORY 4_SCH=A DESIGN SPEC ZONE AIR DIST,WILD_ST=CORR. < 2.4M WIDE-SCH-E_FL=STORY 3_SCH=A,SPACE FUNCTION CORR. < 2.4M WIDE-SCH-A VENTILATION,WILD_ST=CORR. < 2.4M WIDE-SCH-E_FL=STORY 3_SCH=A DESIGN SPEC ZONE AIR DIST,WILD_ST=CORR. < 2.4M WIDE-SCH-F_FL=STORY 3_SCH=A,SPACE FUNCTION CORR. < 2.4M WIDE-SCH-A VENTILATION,WILD_ST=CORR. < 2.4M WIDE-SCH-F_FL=STORY 3_SCH=A DESIGN SPEC ZONE AIR DIST,WILD_ST=CORR. < 2.4M WIDE-SCH-G_FL=STORY 3_SCH=A,SPACE FUNCTION CORR. < 2.4M WIDE-SCH-A VENTILATION,WILD_ST=CORR. < 2.4M WIDE-SCH-G_FL=STORY 3_SCH=A DESIGN SPEC ZONE AIR DIST,WILD_ST=CORR. < 2.4M WIDE-SCH-H_FL=STORY 2_SCH=A,SPACE FUNCTION CORR. < 2.4M WIDE-SCH-A VENTILATION,WILD_ST=CORR. < 2.4M WIDE-SCH-H_FL=STORY 2_SCH=A DESIGN SPEC ZONE AIR DIST,WILD_ST=CORR. < 2.4M WIDE-SCH-I_FL=STORY 1_SCH=A,SPACE FUNCTION CORR. < 2.4M WIDE-SCH-A VENTILATION,WILD_ST=CORR. < 2.4M WIDE-SCH-I_FL=STORY 1_SCH=A DESIGN SPEC ZONE AIR DIST,WILD_ST=CORR. >= 2.4M WIDE-SCH-A_FL=STORY 2_SCH=A,SPACE FUNCTION CORR. >= 2.4M WIDE-SCH-A VENTILATION,WILD_ST=CORR. >= 2.4M WIDE-SCH-A_FL=STORY 2_SCH=A DESIGN SPEC ZONE AIR DIST,WILD_ST=CORR. >= 2.4M WIDE-SCH-B_FL=STORY 4_SCH=A,SPACE FUNCTION CORR. >= 2.4M WIDE-SCH-A VENTILATION,WILD_ST=CORR. >= 2.4M WIDE-SCH-B_FL=STORY 4_SCH=A DESIGN SPEC ZONE AIR DIST,WILD_ST=CORR. >= 2.4M WIDE-SCH-C_FL=STORY 1_SCH=A,SPACE FUNCTION CORR. >= 2.4M WIDE-SCH-A VENTILATION,WILD_ST=CORR. >= 2.4M WIDE-SCH-C_FL=STORY 1_SCH=A DESIGN SPEC ZONE AIR DIST,WILD_ST=CORR. >= 2.4M WIDE-SCH-D_FL=STORY 1_SCH=A,SPACE FUNCTION CORR. >= 2.4M WIDE-SCH-A VENTILATION,WILD_ST=CORR. >= 2.4M WIDE-SCH-D_FL=STORY 1_SCH=A DESIGN SPEC ZONE AIR DIST,WILD_ST=CORR. >= 2.4M WIDE-SCH-E_FL=STORY 3_SCH=A,SPACE FUNCTION CORR. >= 2.4M WIDE-SCH-A VENTILATION,WILD_ST=CORR. >= 2.4M WIDE-SCH-E_FL=STORY 3_SCH=A DESIGN SPEC ZONE AIR DIST,WILD_ST=CORR. >= 2.4M WIDE-SCH-F_FL=STORY 1_SCH=A,SPACE FUNCTION CORR. >= 2.4M WIDE-SCH-A VENTILATION,WILD_ST=CORR. >= 2.4M WIDE-SCH-F_FL=STORY 1_SCH=A DESIGN SPEC ZONE AIR DIST,WILD_ST=CORR. >= 2.4M WIDE-SCH-G_FL=STORY 1_SCH=A,SPACE FUNCTION CORR. >= 2.4M WIDE-SCH-A VENTILATION,WILD_ST=CORR. >= 2.4M WIDE-SCH-G_FL=STORY 1_SCH=A DESIGN SPEC ZONE AIR DIST,WILD_ST=CORR. >= 2.4M WIDE-SCH-H_FL=STORY 2_SCH=A,SPACE FUNCTION CORR. >= 2.4M WIDE-SCH-A VENTILATION,WILD_ST=CORR. >= 2.4M WIDE-SCH-H_FL=STORY 2_SCH=A DESIGN SPEC ZONE AIR DIST,WILD_ST=CORR. >= 2.4M WIDE-SCH-I_FL=STORY 4_SCH=A,SPACE FUNCTION CORR. >= 2.4M WIDE-SCH-A VENTILATION,WILD_ST=CORR. >= 2.4M WIDE-SCH-I_FL=STORY 4_SCH=A DESIGN SPEC ZONE AIR DIST
 Component Sizing Information, Controller:OutdoorAir, CONTROLLER OUTDOOR AIR 3, Maximum Outdoor Air Flow Rate [m3/s], 3.99877
 Component Sizing Information, Controller:OutdoorAir, CONTROLLER OUTDOOR AIR 3, Minimum Outdoor Air Flow Rate [m3/s], 0.80963
 Component Sizing Information, Coil:Cooling:DX:SingleSpeed, COIL COOLING DX SINGLE SPEED 3, Design Size Rated Air Flow Rate [m3/s], 3.99877
 Component Sizing Information, Coil:Cooling:DX:SingleSpeed, COIL COOLING DX SINGLE SPEED 3, Design Size Gross Rated Total Cooling Capacity [W], 66193.90180
 Component Sizing Information, Coil:Cooling:DX:SingleSpeed, COIL COOLING DX SINGLE SPEED 3, Design Size Gross Rated Sensible Heat Ratio, 0.80066
! <DX Cooling Coil Standard Rating Information>, Component Type, Component Name, Standard Rating (Net) Cooling Capacity {W}, Standard Rated Net COP {W/W}, EER {Btu/W-h}, SEER {Btu/W-h}, IEER {Btu/W-h}
 DX Cooling Coil Standard Rating Information, Coil:Cooling:DX:SingleSpeed, COIL COOLING DX SINGLE SPEED 3, 63091.0, 2.51, 8.56, 9.08, 8.70
 Component Sizing Information, Coil:Heating:Fuel, COIL HEATING GAS 3, Design Size Nominal Capacity [W], 153472.16786
 Component Sizing Information, Fan:ConstantVolume, FAN CONSTANT VOLUME 3, Design Size Maximum Flow Rate [m3/s], 3.99877
 Component Sizing Information, Controller:OutdoorAir, CONTROLLER OUTDOOR AIR 4, Maximum Outdoor Air Flow Rate [m3/s], 5.20700
 Component Sizing Information, Controller:OutdoorAir, CONTROLLER OUTDOOR AIR 4, Minimum Outdoor Air Flow Rate [m3/s], 5.20700
 Component Sizing Information, Coil:Cooling:DX:SingleSpeed, COIL COOLING DX SINGLE SPEED 4, Design Size Rated Air Flow Rate [m3/s], 5.20700
 Component Sizing Information, Coil:Cooling:DX:SingleSpeed, COIL COOLING DX SINGLE SPEED 4, Design Size Gross Rated Total Cooling Capacity [W], 88520.09786
 Component Sizing Information, Coil:Cooling:DX:SingleSpeed, COIL COOLING DX SINGLE SPEED 4, Design Size Gross Rated Sensible Heat Ratio, 0.80100
 DX Cooling Coil Standard Rating Information, Coil:Cooling:DX:SingleSpeed, COIL COOLING DX SINGLE SPEED 4, 84479.3, 2.52, 8.60, 9.12, 8.76
 Component Sizing Information, Coil:Heating:Fuel, COIL HEATING GAS 4, Design Size Nominal Capacity [W], 477607.21393
 Component Sizing Information, Fan:ConstantVolume, FAN CONSTANT VOLUME 4, Design Size Maximum Flow Rate [m3/s], 5.20700
 Component Sizing Information, Controller:OutdoorAir, CONTROLLER OUTDOOR AIR 1, Maximum Outdoor Air Flow Rate [m3/s], 4.00906
 Component Sizing Information, Controller:OutdoorAir, CONTROLLER OUTDOOR AIR 1, Minimum Outdoor Air Flow Rate [m3/s], 2.33363
 Component Sizing Information, Coil:Cooling:DX:SingleSpeed, COIL COOLING DX SINGLE SPEED 1, Design Size Rated Air Flow Rate [m3/s], 4.00906
 Component Sizing Information, Coil:Cooling:DX:SingleSpeed, COIL COOLING DX SINGLE SPEED 1, Design Size Gross Rated Total Cooling Capacity [W], 68750.35672
 Component Sizing Information, Coil:Cooling:DX:SingleSpeed, COIL COOLING DX SINGLE SPEED 1, Design Size Gross Rated Sensible Heat Ratio, 0.80089
 DX Cooling Coil Standard Rating Information, Coil:Cooling:DX:SingleSpeed, COIL COOLING DX SINGLE SPEED 1, 65639.1, 2.52, 8.61, 9.13, 8.78
 Component Sizing Information, Coil:Heating:Fuel, COIL HEATING GAS 1, Design Size Nominal Capacity [W], 254797.36149
 Component Sizing Information, Fan:ConstantVolume, FAN CONSTANT VOLUME 1, Design Size Maximum Flow Rate [m3/s], 4.00906
 Component Sizing Information, Controller:OutdoorAir, CONTROLLER OUTDOOR AIR 2, Maximum Outdoor Air Flow Rate [m3/s], 51.57376
 Component Sizing Information, Controller:OutdoorAir, CONTROLLER OUTDOOR AIR 2, Minimum Outdoor Air Flow Rate [m3/s], 10.28700
 Component Sizing Information, Coil:Cooling:DX:SingleSpeed, COIL COOLING DX SINGLE SPEED 2, Design Size Rated Air Flow Rate [m3/s], 51.57376
 Component Sizing Information, Coil:Cooling:DX:SingleSpeed, COIL COOLING DX SINGLE SPEED 2, Design Size Gross Rated Total Cooling Capacity [W], 853728.84876
 Component Sizing Information, Coil:Cooling:DX:SingleSpeed, COIL COOLING DX SINGLE SPEED 2, Design Size Gross Rated Sensible Heat Ratio, 0.80066
 DX Cooling Coil Standard Rating Information, Coil:Cooling:DX:SingleSpeed, COIL COOLING DX SINGLE SPEED 2, 813687.1, 2.51, 8.56, 9.04, 8.63
 Component Sizing Information, Coil:Heating:Fuel, COIL HEATING GAS 2, Design Size Nominal Capacity [W], 1954993.49818
 Component Sizing Information, Fan:ConstantVolume, FAN CONSTANT VOLUME 2, Design Size Maximum Flow Rate [m3/s], 51.57376
Water Heater Information,WaterHeater:Mixed,356GAL NATURALGAS WATER HEATER - 240KBTU/HR,1.3478,70424.5,0.432,0.6821
 Component Sizing Information, PlantLoop, HOT WATER LOOP, Maximum Loop Flow Rate [m3/s], 1.22652E-002
 Component Sizing Information, PlantLoop, HOT WATER LOOP, Plant Loop Volume [m3], 1.47182
 Component Sizing Information, Pump:VariableSpeed, PUMP VARIABLE SPEED 1, Design Flow Rate [m3/s], 1.22652E-002
 Component Sizing Information, Pump:VariableSpeed, PUMP VARIABLE SPEED 1, Design Power Consumption [W], 3133.59714
 Component Sizing Information, Boiler:HotWater, PRIMARY BOILER, Design Size Nominal Capacity [W], 824371.72835
 Component Sizing Information, Boiler:HotWater, PRIMARY BOILER, Design Size Design Water Flow Rate [m3/s], 1.22652E-002
 Component Sizing Information, Boiler:HotWater, SECONDARY BOILER, Design Size Nominal Capacity [W], 824371.72835
 Component Sizing Information, Boiler:HotWater, SECONDARY BOILER, Design Size Design Water Flow Rate [m3/s], 1.22652E-002
 Component Sizing Information, PlantLoop, MAIN SERVICE WATER LOOP, Maximum Loop Flow Rate [m3/s], 2.56894E-004
 Component Sizing Information, PlantLoop, MAIN SERVICE WATER LOOP, Plant Loop Volume [m3], 3.08273E-002
 Component Sizing Information, Pump:ConstantSpeed, SERVICE WATER LOOP PUMP, Design Flow Rate [m3/s], 2.56894E-004
 Component Sizing Information, Pump:ConstantSpeed, SERVICE WATER LOOP PUMP, Design Power Consumption [W], 43.01248
 Component Sizing Information, WaterHeater:Mixed, 356GAL NATURALGAS WATER HEATER - 240KBTU/HR, Use Side Design Flow Rate [m3/s], 2.56894E-004
! <Environment>,Environment Name,Environment Type, Start Date, End Date, Start DayOfWeek, Duration {#days}, Source:Start DayOfWeek,  Use Daylight Saving, Use Holidays, Apply Weekend Holiday Rule,  Use Rain Values, Use Snow Values
! <Environment:Special Days>, Special Day Name, Special Day Type, Source, Start Date, Duration {#days}
! <Environment:Daylight Saving>, Daylight Saving Indicator, Source, Start Date, End Date
! <Environment:WarmupDays>, NumberofWarmupDays
Environment,FORT MCMURRAY AP ANN CLG .4% CONDNS DB=>MWB,SizingPeriod:DesignDay,07/21,07/21,SummerDesignDay,1,N/A,N/A,N/A,N/A,N/A,N/A
Environment:Daylight Saving,No,SizingPeriod:DesignDay
! <Environment:Design Day Data>, Max Dry-Bulb Temp {C}, Temp Range {dC}, Temp Range Ind Type, Hum Ind Value at Max Temp, Hum Ind Type,Pressure {Pa}, Wind Direction {deg CW from N}, Wind Speed {m/s}, Clearness, Rain, Snow
! <Environment:Design Day Misc>,DayOfYear,ASHRAE A Coeff,ASHRAE B Coeff,ASHRAE C Coeff,Solar Constant-Annual Variation,Eq of Time {minutes}, Solar Declination Angle {deg}, Solar Model
Environment:Design Day Data,28.90,12.40,DefaultMultipliers,96969,250,3.7,0.00,No,No
Environment:Design Day Misc,202,1084.4,0.2082,0.1365,1.0,-6.23,20.6,ASHRAETau
Environment:WarmupDays,  9
! <Tabular Report>,Style,Unit Conversion
Tabular Report,HTML,None
! <Warmup Convergence Information>,Zone Name,Environment Type/Name,Average Warmup Temperature Difference {deltaC},Std Dev Warmup Temperature Difference {deltaC},Max Temperature Pass/Fail Convergence,Min Temperature Pass/Fail Convergence,Average Warmup Load Difference {W},Std Dev Warmup Load Difference {W},Heating Load Pass/Fail Convergence,Cooling Load Pass/Fail Convergence
 Warmup Convergence Information,ALL_ST=COURTHOUSE - CHAMBERS_FL=STORY 2_SCH=A,SizingPeriod: FORT MCMURRAY AP ANN CLG .4% CONDNS DB=>MWB,3.7784202563E-002,0.1348902094,Pass,Pass,5.9146941672E-002,0.2996565571,Pass,Pass
 Warmup Convergence Information,ALL_ST=COURTHOUSE - COURTROOM_FL=STORY 2_SCH=A,SizingPeriod: FORT MCMURRAY AP ANN CLG .4% CONDNS DB=>MWB,3.4159209268E-002,6.6280592535E-002,Pass,Pass,3.1022005288E-002,9.3362337056E-002,Pass,Pass
 Warmup Convergence Information,DU_BT=SPACE FUNCTION_ST=COURTHOUSE - CELL_FL=STORY 3_SCHH,SizingPeriod: FORT MCMURRAY AP ANN CLG .4% CONDNS DB=>MWB,7.4054681414E-004,2.6457174538E-003,Pass,Pass,5.9662522588E-003,4.4462514144E-003,Pass,Pass
 Warmup Convergence Information,WILD_ST=CORR. < 2.4M WIDE-SCH-B_FL=STORY 4_SCH=A,SizingPeriod: FORT MCMURRAY AP ANN CLG .4% CONDNS DB=>MWB,2.5910409440E-002,4.5863258944E-002,Pass,Pass,0.1312818848,0.6601437232,Pass,Pass
 Warmup Convergence Information,WILD_ST=CORR. < 2.4M WIDE-SCH-C_FL=STORY 4_SCH=A,SizingPeriod: FORT MCMURRAY AP ANN CLG .4% CONDNS DB=>MWB,5.9273209093E-002,5.5306390020E-002,Pass,Pass,0.2651171198,1.8923510448,Pass,Pass
 Warmup Convergence Information,WILD_ST=CORR. < 2.4M WIDE-SCH-D_FL=STORY 4_SCH=A,SizingPeriod: FORT MCMURRAY AP ANN CLG .4% CONDNS DB=>MWB,3.8024487904E-002,3.3890054870E-002,Pass,Pass,1.1995567253,11.7737771198,Pass,Pass
 Warmup Convergence Information,WILD_ST=CORR. < 2.4M WIDE-SCH-E_FL=STORY 3_SCH=A,SizingPeriod: FORT MCMURRAY AP ANN CLG .4% CONDNS DB=>MWB,3.5075728612E-002,2.1989932601E-002,Pass,Pass,3.8329763025E-002,0.1136676900,Pass,Pass
 Warmup Convergence Information,WILD_ST=CORR. < 2.4M WIDE-SCH-F_FL=STORY 3_SCH=A,SizingPeriod: FORT MCMURRAY AP ANN CLG .4% CONDNS DB=>MWB,3.4278116797E-002,2.0467516685E-002,Pass,Pass,4.0180576499E-002,0.1243388779,Pass,Pass
 Warmup Convergence Information,WILD_ST=CORR. < 2.4M WIDE-SCH-G_FL=STORY 3_SCH=A,SizingPeriod: FORT MCMURRAY AP ANN CLG .4% CONDNS DB=>MWB,5.5629200241E-002,4.0206020361E-002,Pass,Pass,3.1537682636E-002,8.6688617430E-002,Pass,Pass
 Warmup Convergence Information,WILD_ST=CORR. < 2.4M WIDE-SCH-H_FL=STORY 2_SCH=A,SizingPeriod: FORT MCMURRAY AP ANN CLG .4% CONDNS DB=>MWB,2.6459795446E-002,2.1095595142E-002,Pass,Pass,4.1029217472E-002,0.1254563485,Pass,Pass
 Warmup Convergence Information,WILD_ST=CORR. < 2.4M WIDE-SCH-I_FL=STORY 1_SCH=A,SizingPeriod: FORT MCMURRAY AP ANN CLG .4% CONDNS DB=>MWB,2.4113219757E-002,1.5670417480E-002,Pass,Pass,5.5816934881E-002,0.2193398700,Pass,Pass
 Warmup Convergence Information,WILD_ST=CORR. >= 2.4M WIDE-SCH-A_FL=STORY 2_SCH=A,SizingPeriod: FORT MCMURRAY AP ANN CLG .4% CONDNS DB=>MWB,4.8764493105E-002,3.6863844080E-002,Pass,Pass,3.6488057657E-002,0.1103777090,Pass,Pass
 Warmup Convergence Information,WILD_ST=CORR. >= 2.4M WIDE-SCH-B_FL=STORY 4_SCH=A,SizingPeriod: FORT MCMURRAY AP ANN CLG .4% CONDNS DB=>MWB,3.4896107723E-002,3.4517585424E-002,Pass,Pass,0.1491298356,0.8278544454,Pass,Pass
 Warmup Convergence Information,WILD_ST=CORR. >= 2.4M WIDE-SCH-C_FL=STORY 1_SCH=A,SizingPeriod: FORT MCMURRAY AP ANN CLG .4% CONDNS DB=>MWB,2.5866810322E-002,1.6697491457E-002,Pass,Pass,4.8320876549E-002,0.1722756533,Pass,Pass
 Warmup Convergence Information,WILD_ST=CORR. >= 2.4M WIDE-SCH-D_FL=STORY 1_SCH=A,SizingPeriod: FORT MCMURRAY AP ANN CLG .4% CONDNS DB=>MWB,2.4724275496E-002,1.5544980718E-002,Pass,Pass,4.8308990940E-002,0.1736371349,Pass,Pass
 Warmup Convergence Information,WILD_ST=CORR. >= 2.4M WIDE-SCH-E_FL=STORY 3_SCH=A,SizingPeriod: FORT MCMURRAY AP ANN CLG .4% CONDNS DB=>MWB,4.8212086392E-002,3.1155194654E-002,Pass,Pass,2.9711421908E-002,8.8089617277E-002,Pass,Pass
 Warmup Convergence Information,WILD_ST=CORR. >= 2.4M WIDE-SCH-F_FL=STORY 1_SCH=A,SizingPeriod: FORT MCMURRAY AP ANN CLG .4% CONDNS DB=>MWB,2.4410433430E-002,1.5726338366E-002,Pass,Pass,5.0894093671E-002,0.1870087252,Pass,Pass
 Warmup Convergence Information,WILD_ST=CORR. >= 2.4M WIDE-SCH-G_FL=STORY 1_SCH=A,SizingPeriod: FORT MCMURRAY AP ANN CLG .4% CONDNS DB=>MWB,2.4295312027E-002,1.4951950155E-002,Pass,Pass,6.2716825937E-002,0.2614283280,Pass,Pass
 Warmup Convergence Information,WILD_ST=CORR. >= 2.4M WIDE-SCH-H_FL=STORY 2_SCH=A,SizingPeriod: FORT MCMURRAY AP ANN CLG .4% CONDNS DB=>MWB,2.5546062443E-002,1.4738972474E-002,Pass,Pass,4.3397238073E-002,0.1426383512,Pass,Pass
 Warmup Convergence Information,WILD_ST=CORR. >= 2.4M WIDE-SCH-I_FL=STORY 4_SCH=A,SizingPeriod: FORT MCMURRAY AP ANN CLG .4% CONDNS DB=>MWB,5.9228968014E-002,4.4321233764E-002,Pass,Pass,5.5444702920E-002,0.2260359017,Pass,Pass
Environment,FORT MCMURRAY AP ANN HTG 99.6% CONDNS DB,SizingPeriod:DesignDay,01/21,01/21,WinterDesignDay,1,N/A,N/A,N/A,N/A,N/A,N/A
Environment:Daylight Saving,No,SizingPeriod:DesignDay
Environment:Design Day Data,-36.20,0.00,DefaultMultipliers,96969,90,1.0,0.00,No,No
Environment:Design Day Misc, 21,1229.0,0.1415,5.7310E-002,1.0,-11.15,-20.1,ASHRAEClearSky
Environment:WarmupDays,  6
 Warmup Convergence Information,ALL_ST=COURTHOUSE - CHAMBERS_FL=STORY 2_SCH=A,SizingPeriod: FORT MCMURRAY AP ANN HTG 99.6% CONDNS DB,5.5551856200E-002,0.2476689236,Pass,Pass,0.2425306466,1.1854024469,Pass,Pass
 Warmup Convergence Information,ALL_ST=COURTHOUSE - COURTROOM_FL=STORY 2_SCH=A,SizingPeriod: FORT MCMURRAY AP ANN HTG 99.6% CONDNS DB,6.2281208879E-002,0.1810031431,Pass,Pass,6.3791181905E-002,0.2678099271,Pass,Pass
 Warmup Convergence Information,DU_BT=SPACE FUNCTION_ST=COURTHOUSE - CELL_FL=STORY 3_SCHH,SizingPeriod: FORT MCMURRAY AP ANN HTG 99.6% CONDNS DB,4.4394555699E-002,0.2011952017,Pass,Pass,0.2367499803,2.0005307505,Pass,Pass
 Warmup Convergence Information,WILD_ST=CORR. < 2.4M WIDE-SCH-B_FL=STORY 4_SCH=A,SizingPeriod: FORT MCMURRAY AP ANN HTG 99.6% CONDNS DB,5.5558017123E-002,0.3451534703,Pass,Pass,2.1238922391E-002,7.9791738301E-002,Pass,Pass
 Warmup Convergence Information,WILD_ST=CORR. < 2.4M WIDE-SCH-C_FL=STORY 4_SCH=A,SizingPeriod: FORT MCMURRAY AP ANN HTG 99.6% CONDNS DB,5.5714360292E-002,0.3386874067,Pass,Pass,2.0759782975E-002,7.6033882346E-002,Pass,Pass
 Warmup Convergence Information,WILD_ST=CORR. < 2.4M WIDE-SCH-D_FL=STORY 4_SCH=A,SizingPeriod: FORT MCMURRAY AP ANN HTG 99.6% CONDNS DB,5.5692238050E-002,0.3397259620,Pass,Pass,2.0891373822E-002,7.8280649430E-002,Pass,Pass
 Warmup Convergence Information,WILD_ST=CORR. < 2.4M WIDE-SCH-E_FL=STORY 3_SCH=A,SizingPeriod: FORT MCMURRAY AP ANN HTG 99.6% CONDNS DB,3.7789023913E-002,0.1061737559,Pass,Pass,9.0363662993E-002,0.3863739501,Pass,Pass
 Warmup Convergence Information,WILD_ST=CORR. < 2.4M WIDE-SCH-F_FL=STORY 3_SCH=A,SizingPeriod: FORT MCMURRAY AP ANN HTG 99.6% CONDNS DB,3.8681717451E-002,0.1204175998,Pass,Pass,4.1531318591E-002,0.2059016131,Pass,Pass
 Warmup Convergence Information,WILD_ST=CORR. < 2.4M WIDE-SCH-G_FL=STORY 3_SCH=A,SizingPeriod: FORT MCMURRAY AP ANN HTG 99.6% CONDNS DB,4.2877700274E-002,0.1764032252,Pass,Pass,6.6226678225E-002,0.3897385584,Pass,Pass
 Warmup Convergence Information,WILD_ST=CORR. < 2.4M WIDE-SCH-H_FL=STORY 2_SCH=A,SizingPeriod: FORT MCMURRAY AP ANN HTG 99.6% CONDNS DB,3.8144976730E-002,0.1367241779,Pass,Pass,5.9916166794E-002,0.3431838705,Pass,Pass
 Warmup Convergence Information,WILD_ST=CORR. < 2.4M WIDE-SCH-I_FL=STORY 1_SCH=A,SizingPeriod: FORT MCMURRAY AP ANN HTG 99.6% CONDNS DB,2.9935277924E-002,6.1404669046E-002,Pass,Pass,0.1512839751,1.0423010619,Pass,Pass
 Warmup Convergence Information,WILD_ST=CORR. >= 2.4M WIDE-SCH-A_FL=STORY 2_SCH=A,SizingPeriod: FORT MCMURRAY AP ANN HTG 99.6% CONDNS DB,3.5831516688E-002,0.1413632939,Pass,Pass,0.3673964893,3.7706435776,Pass,Pass
 Warmup Convergence Information,WILD_ST=CORR. >= 2.4M WIDE-SCH-B_FL=STORY 4_SCH=A,SizingPeriod: FORT MCMURRAY AP ANN HTG 99.6% CONDNS DB,5.6487628297E-002,0.2119229813,Pass,Pass,5.4666922188E-002,0.2772636371,Pass,Pass
 Warmup Convergence Information,WILD_ST=CORR. >= 2.4M WIDE-SCH-C_FL=STORY 1_SCH=A,SizingPeriod: FORT MCMURRAY AP ANN HTG 99.6% CONDNS DB,2.8882947989E-002,6.4398065998E-002,Pass,Pass,9.5069373650E-002,0.4167967176,Pass,Pass
 Warmup Convergence Information,WILD_ST=CORR. >= 2.4M WIDE-SCH-D_FL=STORY 1_SCH=A,SizingPeriod: FORT MCMURRAY AP ANN HTG 99.6% CONDNS DB,3.1855832551E-002,7.0212723166E-002,Pass,Pass,6.5748983409,78.0712699166,Pass,Pass
 Warmup Convergence Information,WILD_ST=CORR. >= 2.4M WIDE-SCH-E_FL=STORY 3_SCH=A,SizingPeriod: FORT MCMURRAY AP ANN HTG 99.6% CONDNS DB,3.8895423946E-002,0.1429319652,Pass,Pass,5.4963081313E-002,0.3091157727,Pass,Pass
 Warmup Convergence Information,WILD_ST=CORR. >= 2.4M WIDE-SCH-F_FL=STORY 1_SCH=A,SizingPeriod: FORT MCMURRAY AP ANN HTG 99.6% CONDNS DB,2.8932586285E-002,6.5957465013E-002,Pass,Pass,0.1642721614,0.9906425802,Pass,Pass
 Warmup Convergence Information,WILD_ST=CORR. >= 2.4M WIDE-SCH-G_FL=STORY 1_SCH=A,SizingPeriod: FORT MCMURRAY AP ANN HTG 99.6% CONDNS DB,3.1010066102E-002,5.9124330493E-002,Pass,Pass,9.8741568308E-002,0.4756633592,Pass,Pass
 Warmup Convergence Information,WILD_ST=CORR. >= 2.4M WIDE-SCH-H_FL=STORY 2_SCH=A,SizingPeriod: FORT MCMURRAY AP ANN HTG 99.6% CONDNS DB,3.0883753886E-002,8.0679624084E-002,Pass,Pass,7.7801924048E-002,0.5291016568,Pass,Pass
 Warmup Convergence Information,WILD_ST=CORR. >= 2.4M WIDE-SCH-I_FL=STORY 4_SCH=A,SizingPeriod: FORT MCMURRAY AP ANN HTG 99.6% CONDNS DB,5.7403314266E-002,0.2634594546,Pass,Pass,4.0512741148E-002,0.1728612693,Pass,Pass
! <Program Control Information:Threads/Parallel Sims>, Threading Supported,Maximum Number of Threads, Env Set Threads (OMP_NUM_THREADS), EP Env Set Threads (EP_OMP_NUM_THREADS), IDF Set Threads, Number of Threads Used (Interior Radiant Exchange), Number Nominal Surfaces, Number Parallel Sims
Program Control:Threads/Parallel Sims, No,1, N/A, N/A, N/A, N/A, N/A, N/A
End of Data
