{
   "completed_at" : "20190326T203953Z",
   "completed_status" : "Success",
   "created_at" : "20190326T202201Z",
   "current_step" : 0,
   "eplusout_err" : "Program Version,EnergyPlus, Version 8.9.0-eba93e8e1b, YMD=2019.03.26 20:22,\n   ************* Beginning Zone Sizing Calculations\n   ** Warning ** ProcessScheduleInput: Schedule:Day:Interval=\"ECONOMIZER MAX OA FRACTION 100 PCT DEFAULT\", Blank Schedule Type Limits Name input -- will not be validated.\n   ** Warning ** ProcessScheduleInput: Schedule:Day:Interval=\"SCHEDULE DAY 1\", Blank Schedule Type Limits Name input -- will not be validated.\n   ** Warning ** ProcessScheduleInput: Schedule:Day:Interval=\"SCHEDULE DAY 11\", Blank Schedule Type Limits Name input -- will not be validated.\n   ** Warning ** ProcessScheduleInput: Schedule:Day:Interval=\"SCHEDULE DAY 12\", Blank Schedule Type Limits Name input -- will not be validated.\n   ** Warning ** ProcessScheduleInput: Schedule:Day:Interval=\"SCHEDULE DAY 13\", Blank Schedule Type Limits Name input -- will not be validated.\n   ** Warning ** ProcessScheduleInput: Schedule:Day:Interval=\"SCHEDULE DAY 14\", Blank Schedule Type Limits Name input -- will not be validated.\n   ** Warning ** ProcessScheduleInput: Schedule:Day:Interval=\"SCHEDULE DAY 15\", Blank Schedule Type Limits Name input -- will not be validated.\n   ** Warning ** ProcessScheduleInput: Schedule:Day:Interval=\"SCHEDULE DAY 16\", Blank Schedule Type Limits Name input -- will not be validated.\n   ** Warning ** ProcessScheduleInput: Schedule:Day:Interval=\"SCHEDULE DAY 17\", Blank Schedule Type Limits Name input -- will not be validated.\n   ** Warning ** ProcessScheduleInput: Schedule:Day:Interval=\"SCHEDULE DAY 18\", Blank Schedule Type Limits Name input -- will not be validated.\n   ** Warning ** ProcessScheduleInput: Schedule:Day:Interval=\"SCHEDULE DAY 19\", Blank Schedule Type Limits Name input -- will not be validated.\n   ** Warning ** ProcessScheduleInput: Schedule:Day:Interval=\"SCHEDULE DAY 2\", Blank Schedule Type Limits Name input -- will not be validated.\n   ** Warning ** ProcessScheduleInput: Schedule:Day:Interval=\"SCHEDULE DAY 20\", Blank Schedule Type Limits Name input -- will not be validated.\n   ** Warning ** ProcessScheduleInput: Schedule:Day:Interval=\"SCHEDULE DAY 21\", Blank Schedule Type Limits Name input -- will not be validated.\n   ** Warning ** ProcessScheduleInput: Schedule:Day:Interval=\"SCHEDULE DAY 22\", Blank Schedule Type Limits Name input -- will not be validated.\n   ** Warning ** ProcessScheduleInput: Schedule:Day:Interval=\"SCHEDULE DAY 23\", Blank Schedule Type Limits Name input -- will not be validated.\n   ** Warning ** ProcessScheduleInput: Schedule:Day:Interval=\"SCHEDULE DAY 24\", Blank Schedule Type Limits Name input -- will not be validated.\n   ** Warning ** ProcessScheduleInput: Schedule:Day:Interval=\"SCHEDULE DAY 25\", Blank Schedule Type Limits Name input -- will not be validated.\n   ** Warning ** ProcessScheduleInput: Schedule:Day:Interval=\"SCHEDULE DAY 26\", Blank Schedule Type Limits Name input -- will not be validated.\n   ** Warning ** ProcessScheduleInput: Schedule:Day:Interval=\"SCHEDULE DAY 27\", Blank Schedule Type Limits Name input -- will not be validated.\n   ** Warning ** ProcessScheduleInput: Schedule:Day:Interval=\"SCHEDULE DAY 28\", Blank Schedule Type Limits Name input -- will not be validated.\n   ** Warning ** ProcessScheduleInput: Schedule:Day:Interval=\"SCHEDULE DAY 29\", Blank Schedule Type Limits Name input -- will not be validated.\n   ** Warning ** ProcessScheduleInput: Schedule:Day:Interval=\"SCHEDULE DAY 3\", Blank Schedule Type Limits Name input -- will not be validated.\n   ** Warning ** ProcessScheduleInput: Schedule:Day:Interval=\"SCHEDULE DAY 30\", Blank Schedule Type Limits Name input -- will not be validated.\n   ** Warning ** ProcessScheduleInput: Schedule:Day:Interval=\"SCHEDULE DAY 31\", Blank Schedule Type Limits Name input -- will not be validated.\n   ** Warning ** ProcessScheduleInput: Schedule:Day:Interval=\"SCHEDULE DAY 32\", Blank Schedule Type Limits Name input -- will not be validated.\n   ** Warning ** ProcessScheduleInput: Schedule:Day:Interval=\"SCHEDULE DAY 33\", Blank Schedule Type Limits Name input -- will not be validated.\n   ** Warning ** ProcessScheduleInput: Schedule:Day:Interval=\"SCHEDULE DAY 34\", Blank Schedule Type Limits Name input -- will not be validated.\n   ** Warning ** ProcessScheduleInput: Schedule:Day:Interval=\"SCHEDULE DAY 35\", Blank Schedule Type Limits Name input -- will not be validated.\n   ** Warning ** ProcessScheduleInput: Schedule:Day:Interval=\"SCHEDULE DAY 36\", Blank Schedule Type Limits Name input -- will not be validated.\n   ** Warning ** ProcessScheduleInput: Schedule:Day:Interval=\"SCHEDULE DAY 37\", Blank Schedule Type Limits Name input -- will not be validated.\n   ** Warning ** ProcessScheduleInput: Schedule:Day:Interval=\"SCHEDULE DAY 38\", Blank Schedule Type Limits Name input -- will not be validated.\n   ** Warning ** ProcessScheduleInput: Schedule:Day:Interval=\"SCHEDULE DAY 39\", Blank Schedule Type Limits Name input -- will not be validated.\n   ** Warning ** ProcessScheduleInput: Schedule:Day:Interval=\"SCHEDULE DAY 40\", Blank Schedule Type Limits Name input -- will not be validated.\n   ** Warning ** ProcessScheduleInput: Schedule:Day:Interval=\"SCHEDULE DAY 41\", Blank Schedule Type Limits Name input -- will not be validated.\n   ** Warning ** ProcessScheduleInput: Schedule:Day:Interval=\"SCHEDULE DAY 42\", Blank Schedule Type Limits Name input -- will not be validated.\n   ** Warning ** ProcessScheduleInput: Schedule:Day:Interval=\"SCHEDULE DAY 43\", Blank Schedule Type Limits Name input -- will not be validated.\n   ** Warning ** ProcessScheduleInput: Schedule:Day:Interval=\"SCHEDULE DAY 44\", Blank Schedule Type Limits Name input -- will not be validated.\n   ** Warning ** ProcessScheduleInput: Schedule:Day:Interval=\"SCHEDULE DAY 45\", Blank Schedule Type Limits Name input -- will not be validated.\n   ** Warning ** ProcessScheduleInput: Schedule:Day:Interval=\"SCHEDULE DAY 46\", Blank Schedule Type Limits Name input -- will not be validated.\n   ** Warning ** ProcessScheduleInput: Schedule:Day:Interval=\"SCHEDULE DAY 47\", Blank Schedule Type Limits Name input -- will not be validated.\n   ** Warning ** ProcessScheduleInput: Schedule:Day:Interval=\"SCHEDULE DAY 48\", Blank Schedule Type Limits Name input -- will not be validated.\n   ** Warning ** ProcessScheduleInput: Schedule:Day:Interval=\"SCHEDULE DAY 49\", Blank Schedule Type Limits Name input -- will not be validated.\n   ** Warning ** ProcessScheduleInput: Schedule:Day:Interval=\"SCHEDULE DAY 50\", Blank Schedule Type Limits Name input -- will not be validated.\n   ** Warning ** ProcessScheduleInput: Schedule:Day:Interval=\"SCHEDULE DAY 51\", Blank Schedule Type Limits Name input -- will not be validated.\n   ** Warning ** ProcessScheduleInput: Schedule:Day:Interval=\"SCHEDULE DAY 52\", Blank Schedule Type Limits Name input -- will not be validated.\n   ** Warning ** ProcessScheduleInput: Schedule:Day:Interval=\"SCHEDULE DAY 53\", Blank Schedule Type Limits Name input -- will not be validated.\n   ** Warning ** ProcessScheduleInput: Schedule:Day:Interval=\"SCHEDULE DAY 54\", Blank Schedule Type Limits Name input -- will not be validated.\n   ** Warning ** ProcessScheduleInput: Schedule:Day:Interval=\"SCHEDULE DAY 55\", Blank Schedule Type Limits Name input -- will not be validated.\n   ** Warning ** ProcessScheduleInput: Schedule:Day:Interval=\"SCHEDULE DAY 56\", Blank Schedule Type Limits Name input -- will not be validated.\n   ** Warning ** ProcessScheduleInput: Schedule:Day:Interval=\"SCHEDULE DAY 57\", Blank Schedule Type Limits Name input -- will not be validated.\n   ** Warning ** ProcessScheduleInput: Schedule:Day:Interval=\"SCHEDULE DAY 58\", Blank Schedule Type Limits Name input -- will not be validated.\n   ** Warning ** ProcessScheduleInput: Schedule:Day:Interval=\"SCHEDULE DAY 59\", Blank Schedule Type Limits Name input -- will not be validated.\n   ** Warning ** ProcessScheduleInput: Schedule:Day:Interval=\"SCHEDULE DAY 60\", Blank Schedule Type Limits Name input -- will not be validated.\n   ** Warning ** ProcessScheduleInput: Schedule:Day:Interval=\"SCHEDULE DAY 61\", Blank Schedule Type Limits Name input -- will not be validated.\n   ** Warning ** ProcessScheduleInput: Schedule:Day:Interval=\"SCHEDULE DAY 62\", Blank Schedule Type Limits Name input -- will not be validated.\n   ** Warning ** ProcessScheduleInput: Schedule:Day:Interval=\"SCHEDULE DAY 63\", Blank Schedule Type Limits Name input -- will not be validated.\n   ** Warning ** ProcessScheduleInput: Schedule:Day:Interval=\"SCHEDULE DAY 64\", Blank Schedule Type Limits Name input -- will not be validated.\n   ** Warning ** ProcessScheduleInput: Schedule:Day:Interval=\"SCHEDULE DAY 65\", Blank Schedule Type Limits Name input -- will not be validated.\n   ** Warning ** ProcessScheduleInput: Schedule:Day:Interval=\"SCHEDULE DAY 66\", Blank Schedule Type Limits Name input -- will not be validated.\n   ** Warning ** ProcessScheduleInput: Schedule:Day:Interval=\"SCHEDULE DAY 67\", Blank Schedule Type Limits Name input -- will not be validated.\n   ** Warning ** ProcessScheduleInput: Schedule:Day:Interval=\"SCHEDULE DAY 68\", Blank Schedule Type Limits Name input -- will not be validated.\n   ** Warning ** ProcessScheduleInput: Schedule:Day:Interval=\"SCHEDULE DAY 69\", Blank Schedule Type Limits Name input -- will not be validated.\n   ** Warning ** ProcessScheduleInput: Schedule:Day:Interval=\"SCHEDULE DAY 70\", Blank Schedule Type Limits Name input -- will not be validated.\n   ** Warning ** ProcessScheduleInput: Schedule:Day:Interval=\"SCHEDULE DAY 71\", Blank Schedule Type Limits Name input -- will not be validated.\n   ** Warning ** ProcessScheduleInput: Schedule:Day:Interval=\"SCHEDULE DAY 72\", Blank Schedule Type Limits Name input -- will not be validated.\n   ** Warning ** ProcessScheduleInput: Schedule:Day:Interval=\"SCHEDULE DAY 73\", Blank Schedule Type Limits Name input -- will not be validated.\n   ** Warning ** ProcessScheduleInput: Schedule:Day:Interval=\"SCHEDULE DAY 74\", Blank Schedule Type Limits Name input -- will not be validated.\n   ** Warning ** ProcessScheduleInput: Schedule:Day:Interval=\"SCHEDULE DAY 75\", Blank Schedule Type Limits Name input -- will not be validated.\n   ** Warning ** ProcessScheduleInput: Schedule:Day:Interval=\"SCHEDULE DAY 76\", Blank Schedule Type Limits Name input -- will not be validated.\n   ** Warning ** ProcessScheduleInput: Schedule:Day:Interval=\"SCHEDULE DAY 77\", Blank Schedule Type Limits Name input -- will not be validated.\n   ** Warning ** ProcessScheduleInput: Schedule:Day:Interval=\"SCHEDULE DAY 78\", Blank Schedule Type Limits Name input -- will not be validated.\n   ** Warning ** ProcessScheduleInput: Schedule:Day:Interval=\"SCHEDULE DAY 79\", Blank Schedule Type Limits Name input -- will not be validated.\n   ** Warning ** ProcessScheduleInput: Schedule:Day:Interval=\"SCHEDULE DAY 80\", Blank Schedule Type Limits Name input -- will not be validated.\n   ** Warning ** ProcessScheduleInput: Schedule:Day:Interval=\"SCHEDULE DAY 81\", Blank Schedule Type Limits Name input -- will not be validated.\n   ** Warning ** ProcessScheduleInput: Schedule:Day:Interval=\"SCHEDULE DAY 82\", Blank Schedule Type Limits Name input -- will not be validated.\n   ** Warning ** ProcessScheduleInput: Schedule:Day:Interval=\"SCHEDULE DAY 83\", Blank Schedule Type Limits Name input -- will not be validated.\n   ** Warning ** ProcessScheduleInput: Schedule:Day:Interval=\"SCHEDULE DAY 84\", Blank Schedule Type Limits Name input -- will not be validated.\n   ** Warning ** ProcessScheduleInput: Schedule:Day:Interval=\"SCHEDULE DAY 85\", Blank Schedule Type Limits Name input -- will not be validated.\n   ** Warning ** ProcessScheduleInput: Schedule:Day:Interval=\"SCHEDULE DAY 86\", Blank Schedule Type Limits Name input -- will not be validated.\n   ** Warning ** ProcessScheduleInput: Schedule:Day:Interval=\"SCHEDULE DAY 87\", Blank Schedule Type Limits Name input -- will not be validated.\n   ** Warning ** ProcessScheduleInput: Schedule:Day:Interval=\"SCHEDULE DAY 88\", Blank Schedule Type Limits Name input -- will not be validated.\n   ** Warning ** ProcessScheduleInput: Schedule:Day:Interval=\"SCHEDULE DAY 89\", Blank Schedule Type Limits Name input -- will not be validated.\n   ** Warning ** ProcessScheduleInput: Schedule:Day:Interval=\"SCHEDULE DAY 90\", Blank Schedule Type Limits Name input -- will not be validated.\n   ** Warning ** ProcessScheduleInput: Schedule:Day:Interval=\"SCHEDULE DAY 91\", Blank Schedule Type Limits Name input -- will not be validated.\n   ** Warning ** ProcessScheduleInput: Schedule:Day:Interval=\"SCHEDULE DAY 92\", Blank Schedule Type Limits Name input -- will not be validated.\n   ** Warning ** ProcessScheduleInput: Schedule:Day:Interval=\"SCHEDULE DAY 93\", Blank Schedule Type Limits Name input -- will not be validated.\n   ** Warning ** ProcessScheduleInput: Schedule:Day:Interval=\"SCHEDULE DAY 94\", Blank Schedule Type Limits Name input -- will not be validated.\n   ** Warning ** ProcessScheduleInput: Schedule:Day:Interval=\"SCHEDULE DAY 95\", Blank Schedule Type Limits Name input -- will not be validated.\n   ** Warning ** ProcessScheduleInput: Schedule:Day:Interval=\"SCHEDULE DAY 96\", Blank Schedule Type Limits Name input -- will not be validated.\n   ** Warning ** ProcessScheduleInput: Schedule:Day:Interval=\"TPFC_HTG_AVAILABILITY_SCH_RULE_DAY\", Blank Schedule Type Limits Name input -- will not be validated.\n   ** Warning ** ProcessScheduleInput: Schedule:Day:Interval=\"TPFC_HTG_AVAILABILITY_SCH_RULE_DAY 1\", Blank Schedule Type Limits Name input -- will not be validated.\n   ** Warning ** ProcessScheduleInput: Schedule:Day:Interval=\"TPFC_HTG_AVAILABILITY_SCH_RULE_DAY 2\", Blank Schedule Type Limits Name input -- will not be validated.\n   ** Warning ** ProcessScheduleInput: Schedule:Year=\"ECONOMIZER MAX OA FRACTION 100 PCT\", Blank Schedule Type Limits Name input -- will not be validated.\n   ** Warning ** ProcessScheduleInput: Schedule:Year=\"SCHEDULE RULESET 10\", Blank Schedule Type Limits Name input -- will not be validated.\n   ** Warning ** ProcessScheduleInput: Schedule:Year=\"SCHEDULE RULESET 11\", Blank Schedule Type Limits Name input -- will not be validated.\n   ** Warning ** ProcessScheduleInput: Schedule:Year=\"SCHEDULE RULESET 12\", Blank Schedule Type Limits Name input -- will not be validated.\n   ** Warning ** ProcessScheduleInput: Schedule:Year=\"SCHEDULE RULESET 13\", Blank Schedule Type Limits Name input -- will not be validated.\n   ** Warning ** ProcessScheduleInput: Schedule:Year=\"SCHEDULE RULESET 14\", Blank Schedule Type Limits Name input -- will not be validated.\n   ** Warning ** ProcessScheduleInput: Schedule:Year=\"SCHEDULE RULESET 15\", Blank Schedule Type Limits Name input -- will not be validated.\n   ** Warning ** ProcessScheduleInput: Schedule:Year=\"SCHEDULE RULESET 16\", Blank Schedule Type Limits Name input -- will not be validated.\n   ** Warning ** ProcessScheduleInput: Schedule:Year=\"SCHEDULE RULESET 17\", Blank Schedule Type Limits Name input -- will not be validated.\n   ** Warning ** ProcessScheduleInput: Schedule:Year=\"SCHEDULE RULESET 18\", Blank Schedule Type Limits Name input -- will not be validated.\n   ** Warning ** ProcessScheduleInput: Schedule:Year=\"SCHEDULE RULESET 19\", Blank Schedule Type Limits Name input -- will not be validated.\n   ** Warning ** ProcessScheduleInput: Schedule:Year=\"SCHEDULE RULESET 20\", Blank Schedule Type Limits Name input -- will not be validated.\n   ** Warning ** ProcessScheduleInput: Schedule:Year=\"SCHEDULE RULESET 21\", Blank Schedule Type Limits Name input -- will not be validated.\n   ** Warning ** ProcessScheduleInput: Schedule:Year=\"SCHEDULE RULESET 22\", Blank Schedule Type Limits Name input -- will not be validated.\n   ** Warning ** ProcessScheduleInput: Schedule:Year=\"SCHEDULE RULESET 23\", Blank Schedule Type Limits Name input -- will not be validated.\n   ** Warning ** ProcessScheduleInput: Schedule:Year=\"SCHEDULE RULESET 24\", Blank Schedule Type Limits Name input -- will not be validated.\n   ** Warning ** ProcessScheduleInput: Schedule:Year=\"SCHEDULE RULESET 25\", Blank Schedule Type Limits Name input -- will not be validated.\n   ** Warning ** ProcessScheduleInput: Schedule:Year=\"SCHEDULE RULESET 26\", Blank Schedule Type Limits Name input -- will not be validated.\n   ** Warning ** ProcessScheduleInput: Schedule:Year=\"SCHEDULE RULESET 27\", Blank Schedule Type Limits Name input -- will not be validated.\n   ** Warning ** ProcessScheduleInput: Schedule:Year=\"SCHEDULE RULESET 28\", Blank Schedule Type Limits Name input -- will not be validated.\n   ** Warning ** ProcessScheduleInput: Schedule:Year=\"SCHEDULE RULESET 29\", Blank Schedule Type Limits Name input -- will not be validated.\n   ** Warning ** ProcessScheduleInput: Schedule:Year=\"SCHEDULE RULESET 3\", Blank Schedule Type Limits Name input -- will not be validated.\n   ** Warning ** ProcessScheduleInput: Schedule:Year=\"SCHEDULE RULESET 30\", Blank Schedule Type Limits Name input -- will not be validated.\n   ** Warning ** ProcessScheduleInput: Schedule:Year=\"SCHEDULE RULESET 31\", Blank Schedule Type Limits Name input -- will not be validated.\n   ** Warning ** ProcessScheduleInput: Schedule:Year=\"SCHEDULE RULESET 32\", Blank Schedule Type Limits Name input -- will not be validated.\n   ** Warning ** ProcessScheduleInput: Schedule:Year=\"SCHEDULE RULESET 33\", Blank Schedule Type Limits Name input -- will not be validated.\n   ** Warning ** ProcessScheduleInput: Schedule:Year=\"SCHEDULE RULESET 34\", Blank Schedule Type Limits Name input -- will not be validated.\n   ** Warning ** ProcessScheduleInput: Schedule:Year=\"SCHEDULE RULESET 35\", Blank Schedule Type Limits Name input -- will not be validated.\n   ** Warning ** ProcessScheduleInput: Schedule:Year=\"SCHEDULE RULESET 36\", Blank Schedule Type Limits Name input -- will not be validated.\n   ** Warning ** ProcessScheduleInput: Schedule:Year=\"SCHEDULE RULESET 37\", Blank Schedule Type Limits Name input -- will not be validated.\n   ** Warning ** ProcessScheduleInput: Schedule:Year=\"SCHEDULE RULESET 38\", Blank Schedule Type Limits Name input -- will not be validated.\n   ** Warning ** ProcessScheduleInput: Schedule:Year=\"SCHEDULE RULESET 39\", Blank Schedule Type Limits Name input -- will not be validated.\n   ** Warning ** ProcessScheduleInput: Schedule:Year=\"SCHEDULE RULESET 4\", Blank Schedule Type Limits Name input -- will not be validated.\n   ** Warning ** ProcessScheduleInput: Schedule:Year=\"SCHEDULE RULESET 40\", Blank Schedule Type Limits Name input -- will not be validated.\n   ** Warning ** ProcessScheduleInput: Schedule:Year=\"SCHEDULE RULESET 41\", Blank Schedule Type Limits Name input -- will not be validated.\n   ** Warning ** ProcessScheduleInput: Schedule:Year=\"SCHEDULE RULESET 42\", Blank Schedule Type Limits Name input -- will not be validated.\n   ** Warning ** ProcessScheduleInput: Schedule:Year=\"SCHEDULE RULESET 43\", Blank Schedule Type Limits Name input -- will not be validated.\n   ** Warning ** ProcessScheduleInput: Schedule:Year=\"SCHEDULE RULESET 44\", Blank Schedule Type Limits Name input -- will not be validated.\n   ** Warning ** ProcessScheduleInput: Schedule:Year=\"SCHEDULE RULESET 45\", Blank Schedule Type Limits Name input -- will not be validated.\n   ** Warning ** ProcessScheduleInput: Schedule:Year=\"SCHEDULE RULESET 46\", Blank Schedule Type Limits Name input -- will not be validated.\n   ** Warning ** ProcessScheduleInput: Schedule:Year=\"SCHEDULE RULESET 47\", Blank Schedule Type Limits Name input -- will not be validated.\n   ** Warning ** ProcessScheduleInput: Schedule:Year=\"SCHEDULE RULESET 48\", Blank Schedule Type Limits Name input -- will not be validated.\n   ** Warning ** ProcessScheduleInput: Schedule:Year=\"SCHEDULE RULESET 49\", Blank Schedule Type Limits Name input -- will not be validated.\n   ** Warning ** ProcessScheduleInput: Schedule:Year=\"SCHEDULE RULESET 5\", Blank Schedule Type Limits Name input -- will not be validated.\n   ** Warning ** ProcessScheduleInput: Schedule:Year=\"SCHEDULE RULESET 50\", Blank Schedule Type Limits Name input -- will not be validated.\n   ** Warning ** ProcessScheduleInput: Schedule:Year=\"SCHEDULE RULESET 51\", Blank Schedule Type Limits Name input -- will not be validated.\n   ** Warning ** ProcessScheduleInput: Schedule:Year=\"SCHEDULE RULESET 52\", Blank Schedule Type Limits Name input -- will not be validated.\n   ** Warning ** ProcessScheduleInput: Schedule:Year=\"SCHEDULE RULESET 53\", Blank Schedule Type Limits Name input -- will not be validated.\n   ** Warning ** ProcessScheduleInput: Schedule:Year=\"SCHEDULE RULESET 54\", Blank Schedule Type Limits Name input -- will not be validated.\n   ** Warning ** ProcessScheduleInput: Schedule:Year=\"SCHEDULE RULESET 55\", Blank Schedule Type Limits Name input -- will not be validated.\n   ** Warning ** ProcessScheduleInput: Schedule:Year=\"SCHEDULE RULESET 56\", Blank Schedule Type Limits Name input -- will not be validated.\n   ** Warning ** ProcessScheduleInput: Schedule:Year=\"SCHEDULE RULESET 57\", Blank Schedule Type Limits Name input -- will not be validated.\n   ** Warning ** ProcessScheduleInput: Schedule:Year=\"SCHEDULE RULESET 58\", Blank Schedule Type Limits Name input -- will not be validated.\n   ** Warning ** ProcessScheduleInput: Schedule:Year=\"SCHEDULE RULESET 59\", Blank Schedule Type Limits Name input -- will not be validated.\n   ** Warning ** ProcessScheduleInput: Schedule:Year=\"SCHEDULE RULESET 6\", Blank Schedule Type Limits Name input -- will not be validated.\n   ** Warning ** ProcessScheduleInput: Schedule:Year=\"SCHEDULE RULESET 60\", Blank Schedule Type Limits Name input -- will not be validated.\n   ** Warning ** ProcessScheduleInput: Schedule:Year=\"SCHEDULE RULESET 61\", Blank Schedule Type Limits Name input -- will not be validated.\n   ** Warning ** ProcessScheduleInput: Schedule:Year=\"SCHEDULE RULESET 62\", Blank Schedule Type Limits Name input -- will not be validated.\n   ** Warning ** ProcessScheduleInput: Schedule:Year=\"SCHEDULE RULESET 7\", Blank Schedule Type Limits Name input -- will not be validated.\n   ** Warning ** ProcessScheduleInput: Schedule:Year=\"SCHEDULE RULESET 8\", Blank Schedule Type Limits Name input -- will not be validated.\n   ** Warning ** ProcessScheduleInput: Schedule:Year=\"SCHEDULE RULESET 9\", Blank Schedule Type Limits Name input -- will not be validated.\n   ** Warning ** ProcessScheduleInput: Schedule:Year=\"TPFC_HTG_AVAILABILITY\", Blank Schedule Type Limits Name input -- will not be validated.\n   ** Warning ** ProcessScheduleInput: Schedule:Constant=\"ALWAYS OFF DISCRETE\", Blank Schedule Type Limits Name input -- will not be validated.\n   ** Warning ** ProcessScheduleInput: Schedule:Constant=\"ALWAYS ON CONTINUOUS\", Blank Schedule Type Limits Name input -- will not be validated.\n   ** Warning ** CheckUsedConstructions: There are 27 nominally unused constructions in input.\n   **   ~~~   ** For explicit details on each unused construction, use Output:Diagnostics,DisplayExtraWarnings;\n   ** Warning ** GetInternalHeatGains: People Combination of ZoneList and Object Name generate a name too long.\n   **   ~~~   ** Object Name=\"SPACE FUNCTION MANUFACTURING FACILITY EQUIPMENT ROOM PEOPLE\".\n   **   ~~~   ** ZoneList/Zone Name=\"SP-MANUFACTURING FACILITY EQUIPMENT ROOM-SPACE FUNCTION SYS-3 FLR-4 SCH-A HPLCMT-SOUTH ZN\".\n   **   ~~~   ** Item length=[148] > Maximum Length=[100]. You may need to shorten the names.\n   **   ~~~   ** Shortening the Object Name by [49] characters will assure uniqueness for this ZoneList.\n   **   ~~~   ** name that will be used (may be needed in reporting)=\"SP-MANUFACTURING FACILITY EQUIPMENT ROOM-SPACE FUNCTION SYS-3 FLR-4 SCH-A HPLCMT-SOUTH ZN SPACE FUNCTION MANUFACTURING FACILITY EQUIPMENT ROOM PEOPLE\".\n   ** Warning ** GetInternalHeatGains: People Combination of ZoneList and Object Name generate a name too long.\n   **   ~~~   ** Object Name=\"SPACE FUNCTION MANUFACTURING FACILITY EXTRA HIGH BAY AREA (> 15 M FLOOR-TO-CEILING HEIGHT) PEOPLE\".\n   **   ~~~   ** ZoneList/Zone Name=\"SP-MANUFACTURING FACILITY EXTRA HIGH BAY AREA (> 15 M FLOOR-TO-CEILING HEIGHT)-SPACE FUNCTION SYS-3 FLR-4 SCH-A HPLCMT-NORTH ZN\".\n   **   ~~~   ** Item length=[224] > Maximum Length=[100]. You may need to shorten the names.\n   **   ~~~   ** Shortening the Object Name by [125] characters will assure uniqueness for this ZoneList.\n   **   ~~~   ** name that will be used (may be needed in reporting)=\"SP-MANUFACTURING FACILITY EXTRA HIGH BAY AREA (> 15 M FLOOR-TO-CEILING HEIGHT)-SPACE FUNCTION SYS-3 FLR-4 SCH-A HPLCMT-NORTH ZN SPACE FUNCTION MANUFACTURING FACILITY EXTRA HIGH BAY AREA (> 15 M FLOOR-TO-CEILING HEIGHT) PEOPLE\".\n   ** Warning ** GetInternalHeatGains: People Combination of ZoneList and Object Name generate a name too long.\n   **   ~~~   ** Object Name=\"SPACE FUNCTION MANUFACTURING FACILITY HIGH BAY AREA (7.5 TO 15 M FLOOR-TO-CEILING HEIGHT) PEOPLE\".\n   **   ~~~   ** ZoneList/Zone Name=\"SP-MANUFACTURING FACILITY HIGH BAY AREA (7.5 TO 15 M FLOOR-TO-CEILING HEIGHT)-SPACE FUNCTION SYS-3 FLR-3 SCH-A HPLCMT-SOUTH ZN\".\n   **   ~~~   ** Item length=[222] > Maximum Length=[100]. You may need to shorten the names.\n   **   ~~~   ** Shortening the Object Name by [123] characters will assure uniqueness for this ZoneList.\n   **   ~~~   ** name that will be used (may be needed in reporting)=\"SP-MANUFACTURING FACILITY HIGH BAY AREA (7.5 TO 15 M FLOOR-TO-CEILING HEIGHT)-SPACE FUNCTION SYS-3 FLR-3 SCH-A HPLCMT-SOUTH ZN SPACE FUNCTION MANUFACTURING FACILITY HIGH BAY AREA (7.5 TO 15 M FLOOR-TO-CEILING HEIGHT) PEOPLE\".\n   ** Warning ** GetInternalHeatGains: People Combination of ZoneList and Object Name generate a name too long.\n   **   ~~~   ** Object Name=\"SPACE FUNCTION MANUFACTURING FACILITY LOW BAY AREA (< 7.5 M FLOOR-TO-CEILING HEIGHT) PEOPLE\".\n   **   ~~~   ** ZoneList/Zone Name=\"SP-MANUFACTURING FACILITY LOW BAY AREA (< 7.5 M FLOOR-TO-CEILING HEIGHT)-SPACE FUNCTION SYS-3 FLR-3 SCH-A HPLCMT-NORTH ZN\".\n   **   ~~~   ** Item length=[212] > Maximum Length=[100]. You may need to shorten the names.\n   **   ~~~   ** Shortening the Object Name by [113] characters will assure uniqueness for this ZoneList.\n   **   ~~~   ** name that will be used (may be needed in reporting)=\"SP-MANUFACTURING FACILITY LOW BAY AREA (< 7.5 M FLOOR-TO-CEILING HEIGHT)-SPACE FUNCTION SYS-3 FLR-3 SCH-A HPLCMT-NORTH ZN SPACE FUNCTION MANUFACTURING FACILITY LOW BAY AREA (< 7.5 M FLOOR-TO-CEILING HEIGHT) PEOPLE\".\n   ** Warning ** GetInternalHeatGains: People Combination of ZoneList and Object Name generate a name too long.\n   **   ~~~   ** Object Name=\"SPACE FUNCTION MUSEUM GENERAL EXHIBITION AREA PEOPLE\".\n   **   ~~~   ** ZoneList/Zone Name=\"SP-MUSEUM GENERAL EXHIBITION AREA-SPACE FUNCTION SYS-2 FLR-3 SCH-C HPLCMT-WEST ZN\".\n   **   ~~~   ** Item length=[133] > Maximum Length=[100]. You may need to shorten the names.\n   **   ~~~   ** Shortening the Object Name by [34] characters will assure uniqueness for this ZoneList.\n   **   ~~~   ** name that will be used (may be needed in reporting)=\"SP-MUSEUM GENERAL EXHIBITION AREA-SPACE FUNCTION SYS-2 FLR-3 SCH-C HPLCMT-WEST ZN SPACE FUNCTION MUSEUM GENERAL EXHIBITION AREA PEOPLE\".\n   ** Warning ** GetInternalHeatGains: People Combination of ZoneList and Object Name generate a name too long.\n   **   ~~~   ** Object Name=\"SPACE FUNCTION MUSEUM RESTORATION ROOM PEOPLE\".\n   **   ~~~   ** ZoneList/Zone Name=\"SP-MUSEUM RESTORATION ROOM-SPACE FUNCTION SYS-2 FLR-1 SCH-A HPLCMT-WEST ZN\".\n   **   ~~~   ** Item length=[119] > Maximum Length=[100]. You may need to shorten the names.\n   **   ~~~   ** Shortening the Object Name by [20] characters will assure uniqueness for this ZoneList.\n   **   ~~~   ** name that will be used (may be needed in reporting)=\"SP-MUSEUM RESTORATION ROOM-SPACE FUNCTION SYS-2 FLR-1 SCH-A HPLCMT-WEST ZN SPACE FUNCTION MUSEUM RESTORATION ROOM PEOPLE\".\n   ** Warning ** GetInternalHeatGains: People Combination of ZoneList and Object Name generate a name too long.\n   **   ~~~   ** Object Name=\"SPACE FUNCTION POST OFFICE SORTING AREA PEOPLE\".\n   **   ~~~   ** ZoneList/Zone Name=\"SP-POST OFFICE SORTING AREA-SPACE FUNCTION SYS-6 FLR-4 SCH-A HPLCMT-EAST ZN\".\n   **   ~~~   ** Item length=[121] > Maximum Length=[100]. You may need to shorten the names.\n   **   ~~~   ** Shortening the Object Name by [22] characters will assure uniqueness for this ZoneList.\n   **   ~~~   ** name that will be used (may be needed in reporting)=\"SP-POST OFFICE SORTING AREA-SPACE FUNCTION SYS-6 FLR-4 SCH-A HPLCMT-EAST ZN SPACE FUNCTION POST OFFICE SORTING AREA PEOPLE\".\n   ** Warning ** GetInternalHeatGains: People Combination of ZoneList and Object Name generate a name too long.\n   **   ~~~   ** Object Name=\"SPACE FUNCTION RELIGIOUS BUILDING FELLOWSHIP HALL PEOPLE\".\n   **   ~~~   ** ZoneList/Zone Name=\"SP-RELIGIOUS BUILDING FELLOWSHIP HALL-SPACE FUNCTION SYS-3 FLR-1 SCH-C HPLCMT-NORTH ZN\".\n   **   ~~~   ** Item length=[142] > Maximum Length=[100]. You may need to shorten the names.\n   **   ~~~   ** Shortening the Object Name by [43] characters will assure uniqueness for this ZoneList.\n   **   ~~~   ** name that will be used (may be needed in reporting)=\"SP-RELIGIOUS BUILDING FELLOWSHIP HALL-SPACE FUNCTION SYS-3 FLR-1 SCH-C HPLCMT-NORTH ZN SPACE FUNCTION RELIGIOUS BUILDING FELLOWSHIP HALL PEOPLE\".\n   ** Warning ** GetInternalHeatGains: People Combination of ZoneList and Object Name generate a name too long.\n   **   ~~~   ** Object Name=\"SPACE FUNCTION RETAIL FACILITY DRESSING/FITTING ROOM PEOPLE\".\n   **   ~~~   ** ZoneList/Zone Name=\"SP-RETAIL FACILITY DRESSING/FITTING ROOM-SPACE FUNCTION SYS-6 FLR-3 SCH-C HPLCMT-CORE ZN\".\n   **   ~~~   ** Item length=[147] > Maximum Length=[100]. You may need to shorten the names.\n   **   ~~~   ** Shortening the Object Name by [48] characters will assure uniqueness for this ZoneList.\n   **   ~~~   ** name that will be used (may be needed in reporting)=\"SP-RETAIL FACILITY DRESSING/FITTING ROOM-SPACE FUNCTION SYS-6 FLR-3 SCH-C HPLCMT-CORE ZN SPACE FUNCTION RETAIL FACILITY DRESSING/FITTING ROOM PEOPLE\".\n   ** Warning ** GetInternalHeatGains: People Combination of ZoneList and Object Name generate a name too long.\n   **   ~~~   ** Object Name=\"SPACE FUNCTION RETAIL FACILITY MALL CONCOURSE PEOPLE\".\n   **   ~~~   ** ZoneList/Zone Name=\"SP-RETAIL FACILITY MALL CONCOURSE-SPACE FUNCTION SYS-6 FLR-2 SCH-C HPLCMT-CORE ZN\".\n   **   ~~~   ** Item length=[133] > Maximum Length=[100]. You may need to shorten the names.\n   **   ~~~   ** Shortening the Object Name by [34] characters will assure uniqueness for this ZoneList.\n   **   ~~~   ** name that will be used (may be needed in reporting)=\"SP-RETAIL FACILITY MALL CONCOURSE-SPACE FUNCTION SYS-6 FLR-2 SCH-C HPLCMT-CORE ZN SPACE FUNCTION RETAIL FACILITY MALL CONCOURSE PEOPLE\".\n   ** Warning ** GetInternalHeatGains: People Combination of ZoneList and Object Name generate a name too long.\n   **   ~~~   ** Object Name=\"SPACE FUNCTION SPACE DESIGNED TO ANSI/IES RP-28 RECREATION ROOM (USED PRIMARILY BY RESIDENTS) PEOPLE\".\n   **   ~~~   ** ZoneList/Zone Name=\"SP-SPACE DESIGNED TO ANSI/IES RP-28 RECREATION ROOM (USED PRIMARILY BY RESIDENTS)-SPACE FUNCTION SYS-3 FLR-4 SCH-B HPLCMT-CORE ZN\".\n   **   ~~~   ** Item length=[229] > Maximum Length=[100]. You may need to shorten the names.\n   **   ~~~   ** Shortening the Object Name by [130] characters will assure uniqueness for this ZoneList.\n   **   ~~~   ** name that will be used (may be needed in reporting)=\"SP-SPACE DESIGNED TO ANSI/IES RP-28 RECREATION ROOM (USED PRIMARILY BY RESIDENTS)-SPACE FUNCTION SYS-3 FLR-4 SCH-B HPLCMT-CORE ZN SPACE FUNCTION SPACE DESIGNED TO ANSI/IES RP-28 RECREATION ROOM (USED PRIMARILY BY RESIDENTS) PEOPLE\".\n   ** Warning ** GetInternalHeatGains: People Combination of ZoneList and Object Name generate a name too long.\n   **   ~~~   ** Object Name=\"SPACE FUNCTION SPORTS ARENA PLAYING AREA CLASS I FACILITY(4) PEOPLE\".\n   **   ~~~   ** ZoneList/Zone Name=\"SP-SPORTS ARENA PLAYING AREA CLASS I FACILITY(4)-SPACE FUNCTION SYS-6 FLR-4 SCH-B HPLCMT-WEST ZN\".\n   **   ~~~   ** Item length=[163] > Maximum Length=[100]. You may need to shorten the names.\n   **   ~~~   ** Shortening the Object Name by [64] characters will assure uniqueness for this ZoneList.\n   **   ~~~   ** name that will be used (may be needed in reporting)=\"SP-SPORTS ARENA PLAYING AREA CLASS I FACILITY(4)-SPACE FUNCTION SYS-6 FLR-4 SCH-B HPLCMT-WEST ZN SPACE FUNCTION SPORTS ARENA PLAYING AREA CLASS I FACILITY(4) PEOPLE\".\n   ** Warning ** GetInternalHeatGains: People Combination of ZoneList and Object Name generate a name too long.\n   **   ~~~   ** Object Name=\"SPACE FUNCTION SPORTS ARENA PLAYING AREA CLASS II FACILITY(4) PEOPLE\".\n   **   ~~~   ** ZoneList/Zone Name=\"SP-SPORTS ARENA PLAYING AREA CLASS II FACILITY(4)-SPACE FUNCTION SYS-6 FLR-1 SCH-B HPLCMT-EAST ZN\".\n   **   ~~~   ** Item length=[165] > Maximum Length=[100]. You may need to shorten the names.\n   **   ~~~   ** Shortening the Object Name by [66] characters will assure uniqueness for this ZoneList.\n   **   ~~~   ** name that will be used (may be needed in reporting)=\"SP-SPORTS ARENA PLAYING AREA CLASS II FACILITY(4)-SPACE FUNCTION SYS-6 FLR-1 SCH-B HPLCMT-EAST ZN SPACE FUNCTION SPORTS ARENA PLAYING AREA CLASS II FACILITY(4) PEOPLE\".\n   ** Warning ** GetInternalHeatGains: People Combination of ZoneList and Object Name generate a name too long.\n   **   ~~~   ** Object Name=\"SPACE FUNCTION SPORTS ARENA PLAYING AREA CLASS III FACILITY(4) PEOPLE\".\n   **   ~~~   ** ZoneList/Zone Name=\"SP-SPORTS ARENA PLAYING AREA CLASS III FACILITY(4)-SPACE FUNCTION SYS-6 FLR-3 SCH-B HPLCMT-EAST ZN\".\n   **   ~~~   ** Item length=[167] > Maximum Length=[100]. You may need to shorten the names.\n   **   ~~~   ** Shortening the Object Name by [68] characters will assure uniqueness for this ZoneList.\n   **   ~~~   ** name that will be used (may be needed in reporting)=\"SP-SPORTS ARENA PLAYING AREA CLASS III FACILITY(4)-SPACE FUNCTION SYS-6 FLR-3 SCH-B HPLCMT-EAST ZN SPACE FUNCTION SPORTS ARENA PLAYING AREA CLASS III FACILITY(4) PEOPLE\".\n   ** Warning ** GetInternalHeatGains: People Combination of ZoneList and Object Name generate a name too long.\n   **   ~~~   ** Object Name=\"SPACE FUNCTION SPORTS ARENA PLAYING AREA CLASS IV FACILITY(4) PEOPLE\".\n   **   ~~~   ** ZoneList/Zone Name=\"SP-SPORTS ARENA PLAYING AREA CLASS IV FACILITY(4)-SPACE FUNCTION SYS-6 FLR-1 SCH-B HPLCMT-SOUTH ZN\".\n   **   ~~~   ** Item length=[166] > Maximum Length=[100]. You may need to shorten the names.\n   **   ~~~   ** Shortening the Object Name by [67] characters will assure uniqueness for this ZoneList.\n   **   ~~~   ** name that will be used (may be needed in reporting)=\"SP-SPORTS ARENA PLAYING AREA CLASS IV FACILITY(4)-SPACE FUNCTION SYS-6 FLR-1 SCH-B HPLCMT-SOUTH ZN SPACE FUNCTION SPORTS ARENA PLAYING AREA CLASS IV FACILITY(4) PEOPLE\".\n   ** Warning ** GetInternalHeatGains: People Combination of ZoneList and Object Name generate a name too long.\n   **   ~~~   ** Object Name=\"SPACE FUNCTION TRANSPORTATION FACILITY AIRPORT CONCOURSE PEOPLE\".\n   **   ~~~   ** ZoneList/Zone Name=\"SP-TRANSPORTATION FACILITY AIRPORT CONCOURSE-SPACE FUNCTION SYS-6 FLR-1 SCH-H HPLCMT-CORE ZN\".\n   **   ~~~   ** Item length=[155] > Maximum Length=[100]. You may need to shorten the names.\n   **   ~~~   ** Shortening the Object Name by [56] characters will assure uniqueness for this ZoneList.\n   **   ~~~   ** name that will be used (may be needed in reporting)=\"SP-TRANSPORTATION FACILITY AIRPORT CONCOURSE-SPACE FUNCTION SYS-6 FLR-1 SCH-H HPLCMT-CORE ZN SPACE FUNCTION TRANSPORTATION FACILITY AIRPORT CONCOURSE PEOPLE\".\n   ** Warning ** GetInternalHeatGains: People Combination of ZoneList and Object Name generate a name too long.\n   **   ~~~   ** Object Name=\"SPACE FUNCTION TRANSPORTATION FACILITY BAGGAGE/CAROUSEL AREA PEOPLE\".\n   **   ~~~   ** ZoneList/Zone Name=\"SP-TRANSPORTATION FACILITY BAGGAGE/CAROUSEL AREA-SPACE FUNCTION SYS-6 FLR-2 SCH-H HPLCMT-NORTH ZN\".\n   **   ~~~   ** Item length=[164] > Maximum Length=[100]. You may need to shorten the names.\n   **   ~~~   ** Shortening the Object Name by [65] characters will assure uniqueness for this ZoneList.\n   **   ~~~   ** name that will be used (may be needed in reporting)=\"SP-TRANSPORTATION FACILITY BAGGAGE/CAROUSEL AREA-SPACE FUNCTION SYS-6 FLR-2 SCH-H HPLCMT-NORTH ZN SPACE FUNCTION TRANSPORTATION FACILITY BAGGAGE/CAROUSEL AREA PEOPLE\".\n   ** Warning ** GetInternalHeatGains: People Combination of ZoneList and Object Name generate a name too long.\n   **   ~~~   ** Object Name=\"SPACE FUNCTION TRANSPORTATION FACILITY TERMINAL TICKET COUNTER PEOPLE\".\n   **   ~~~   ** ZoneList/Zone Name=\"SP-TRANSPORTATION FACILITY TERMINAL TICKET COUNTER-SPACE FUNCTION SYS-6 FLR-2 SCH-H HPLCMT-SOUTH ZN\".\n   **   ~~~   ** Item length=[168] > Maximum Length=[100]. You may need to shorten the names.\n   **   ~~~   ** Shortening the Object Name by [69] characters will assure uniqueness for this ZoneList.\n   **   ~~~   ** name that will be used (may be needed in reporting)=\"SP-TRANSPORTATION FACILITY TERMINAL TICKET COUNTER-SPACE FUNCTION SYS-6 FLR-2 SCH-H HPLCMT-SOUTH ZN SPACE FUNCTION TRANSPORTATION FACILITY TERMINAL TICKET COUNTER PEOPLE\".\n   ** Warning ** GetInternalHeatGains: People Combination of ZoneList and Object Name generate a name too long.\n   **   ~~~   ** Object Name=\"SPACE FUNCTION WAREHOUSE STORAGE AREA MEDIUM TO BULKY PALLETIZED ITEMS PEOPLE\".\n   **   ~~~   ** ZoneList/Zone Name=\"SP-WAREHOUSE STORAGE AREA MEDIUM TO BULKY PALLETIZED ITEMS-SPACE FUNCTION SYS-4 FLR-2 SCH-A HPLCMT-WEST ZN\".\n   **   ~~~   ** Item length=[183] > Maximum Length=[100]. You may need to shorten the names.\n   **   ~~~   ** Shortening the Object Name by [84] characters will assure uniqueness for this ZoneList.\n   **   ~~~   ** name that will be used (may be needed in reporting)=\"SP-WAREHOUSE STORAGE AREA MEDIUM TO BULKY PALLETIZED ITEMS-SPACE FUNCTION SYS-4 FLR-2 SCH-A HPLCMT-WEST ZN SPACE FUNCTION WAREHOUSE STORAGE AREA MEDIUM TO BULKY PALLETIZED ITEMS PEOPLE\".\n   ** Warning ** GetInternalHeatGains: People Combination of ZoneList and Object Name generate a name too long.\n   **   ~~~   ** Object Name=\"SPACE FUNCTION WAREHOUSE STORAGE AREA SMALL HAND-CARRIED ITEMS(4) PEOPLE\".\n   **   ~~~   ** ZoneList/Zone Name=\"SP-WAREHOUSE STORAGE AREA SMALL HAND-CARRIED ITEMS(4)-SPACE FUNCTION SYS-4 FLR-2 SCH-A HPLCMT-EAST ZN\".\n   **   ~~~   ** Item length=[173] > Maximum Length=[100]. You may need to shorten the names.\n   **   ~~~   ** Shortening the Object Name by [74] characters will assure uniqueness for this ZoneList.\n   **   ~~~   ** name that will be used (may be needed in reporting)=\"SP-WAREHOUSE STORAGE AREA SMALL HAND-CARRIED ITEMS(4)-SPACE FUNCTION SYS-4 FLR-2 SCH-A HPLCMT-EAST ZN SPACE FUNCTION WAREHOUSE STORAGE AREA SMALL HAND-CARRIED ITEMS(4) PEOPLE\".\n   ** Warning ** GetInternalHeatGains: Lights Combination of ZoneList and Object Name generate a name too long.\n   **   ~~~   ** Object Name=\"SPACE FUNCTION MANUFACTURING FACILITY EQUIPMENT ROOM LIGHTS\".\n   **   ~~~   ** ZoneList/Zone Name=\"SP-MANUFACTURING FACILITY EQUIPMENT ROOM-SPACE FUNCTION SYS-3 FLR-4 SCH-A HPLCMT-SOUTH ZN\".\n   **   ~~~   ** Item length=[148] > Maximum Length=[100]. You may need to shorten the names.\n   **   ~~~   ** Shortening the Object Name by [49] characters will assure uniqueness for this ZoneList.\n   **   ~~~   ** name that will be used (may be needed in reporting)=\"SP-MANUFACTURING FACILITY EQUIPMENT ROOM-SPACE FUNCTION SYS-3 FLR-4 SCH-A HPLCMT-SOUTH ZN SPACE FUNCTION MANUFACTURING FACILITY EQUIPMENT ROOM LIGHTS\".\n   ** Warning ** GetInternalHeatGains: Lights Combination of ZoneList and Object Name generate a name too long.\n   **   ~~~   ** Object Name=\"SPACE FUNCTION MANUFACTURING FACILITY EXTRA HIGH BAY AREA (> 15 M FLOOR-TO-CEILING HEIGHT) LIGHTS\".\n   **   ~~~   ** ZoneList/Zone Name=\"SP-MANUFACTURING FACILITY EXTRA HIGH BAY AREA (> 15 M FLOOR-TO-CEILING HEIGHT)-SPACE FUNCTION SYS-3 FLR-4 SCH-A HPLCMT-NORTH ZN\".\n   **   ~~~   ** Item length=[224] > Maximum Length=[100]. You may need to shorten the names.\n   **   ~~~   ** Shortening the Object Name by [125] characters will assure uniqueness for this ZoneList.\n   **   ~~~   ** name that will be used (may be needed in reporting)=\"SP-MANUFACTURING FACILITY EXTRA HIGH BAY AREA (> 15 M FLOOR-TO-CEILING HEIGHT)-SPACE FUNCTION SYS-3 FLR-4 SCH-A HPLCMT-NORTH ZN SPACE FUNCTION MANUFACTURING FACILITY EXTRA HIGH BAY AREA (> 15 M FLOOR-TO-CEILING HEIGHT) LIGHTS\".\n   ** Warning ** GetInternalHeatGains: Lights Combination of ZoneList and Object Name generate a name too long.\n   **   ~~~   ** Object Name=\"SPACE FUNCTION MANUFACTURING FACILITY HIGH BAY AREA (7.5 TO 15 M FLOOR-TO-CEILING HEIGHT) LIGHTS\".\n   **   ~~~   ** ZoneList/Zone Name=\"SP-MANUFACTURING FACILITY HIGH BAY AREA (7.5 TO 15 M FLOOR-TO-CEILING HEIGHT)-SPACE FUNCTION SYS-3 FLR-3 SCH-A HPLCMT-SOUTH ZN\".\n   **   ~~~   ** Item length=[222] > Maximum Length=[100]. You may need to shorten the names.\n   **   ~~~   ** Shortening the Object Name by [123] characters will assure uniqueness for this ZoneList.\n   **   ~~~   ** name that will be used (may be needed in reporting)=\"SP-MANUFACTURING FACILITY HIGH BAY AREA (7.5 TO 15 M FLOOR-TO-CEILING HEIGHT)-SPACE FUNCTION SYS-3 FLR-3 SCH-A HPLCMT-SOUTH ZN SPACE FUNCTION MANUFACTURING FACILITY HIGH BAY AREA (7.5 TO 15 M FLOOR-TO-CEILING HEIGHT) LIGHTS\".\n   ** Warning ** GetInternalHeatGains: Lights Combination of ZoneList and Object Name generate a name too long.\n   **   ~~~   ** Object Name=\"SPACE FUNCTION MANUFACTURING FACILITY LOW BAY AREA (< 7.5 M FLOOR-TO-CEILING HEIGHT) LIGHTS\".\n   **   ~~~   ** ZoneList/Zone Name=\"SP-MANUFACTURING FACILITY LOW BAY AREA (< 7.5 M FLOOR-TO-CEILING HEIGHT)-SPACE FUNCTION SYS-3 FLR-3 SCH-A HPLCMT-NORTH ZN\".\n   **   ~~~   ** Item length=[212] > Maximum Length=[100]. You may need to shorten the names.\n   **   ~~~   ** Shortening the Object Name by [113] characters will assure uniqueness for this ZoneList.\n   **   ~~~   ** name that will be used (may be needed in reporting)=\"SP-MANUFACTURING FACILITY LOW BAY AREA (< 7.5 M FLOOR-TO-CEILING HEIGHT)-SPACE FUNCTION SYS-3 FLR-3 SCH-A HPLCMT-NORTH ZN SPACE FUNCTION MANUFACTURING FACILITY LOW BAY AREA (< 7.5 M FLOOR-TO-CEILING HEIGHT) LIGHTS\".\n   ** Warning ** GetInternalHeatGains: Lights Combination of ZoneList and Object Name generate a name too long.\n   **   ~~~   ** Object Name=\"SPACE FUNCTION MUSEUM GENERAL EXHIBITION AREA LIGHTS\".\n   **   ~~~   ** ZoneList/Zone Name=\"SP-MUSEUM GENERAL EXHIBITION AREA-SPACE FUNCTION SYS-2 FLR-3 SCH-C HPLCMT-WEST ZN\".\n   **   ~~~   ** Item length=[133] > Maximum Length=[100]. You may need to shorten the names.\n   **   ~~~   ** Shortening the Object Name by [34] characters will assure uniqueness for this ZoneList.\n   **   ~~~   ** name that will be used (may be needed in reporting)=\"SP-MUSEUM GENERAL EXHIBITION AREA-SPACE FUNCTION SYS-2 FLR-3 SCH-C HPLCMT-WEST ZN SPACE FUNCTION MUSEUM GENERAL EXHIBITION AREA LIGHTS\".\n   ** Warning ** GetInternalHeatGains: Lights Combination of ZoneList and Object Name generate a name too long.\n   **   ~~~   ** Object Name=\"SPACE FUNCTION MUSEUM RESTORATION ROOM LIGHTS\".\n   **   ~~~   ** ZoneList/Zone Name=\"SP-MUSEUM RESTORATION ROOM-SPACE FUNCTION SYS-2 FLR-1 SCH-A HPLCMT-WEST ZN\".\n   **   ~~~   ** Item length=[119] > Maximum Length=[100]. You may need to shorten the names.\n   **   ~~~   ** Shortening the Object Name by [20] characters will assure uniqueness for this ZoneList.\n   **   ~~~   ** name that will be used (may be needed in reporting)=\"SP-MUSEUM RESTORATION ROOM-SPACE FUNCTION SYS-2 FLR-1 SCH-A HPLCMT-WEST ZN SPACE FUNCTION MUSEUM RESTORATION ROOM LIGHTS\".\n   ** Warning ** GetInternalHeatGains: Lights Combination of ZoneList and Object Name generate a name too long.\n   **   ~~~   ** Object Name=\"SPACE FUNCTION POST OFFICE SORTING AREA LIGHTS\".\n   **   ~~~   ** ZoneList/Zone Name=\"SP-POST OFFICE SORTING AREA-SPACE FUNCTION SYS-6 FLR-4 SCH-A HPLCMT-EAST ZN\".\n   **   ~~~   ** Item length=[121] > Maximum Length=[100]. You may need to shorten the names.\n   **   ~~~   ** Shortening the Object Name by [22] characters will assure uniqueness for this ZoneList.\n   **   ~~~   ** name that will be used (may be needed in reporting)=\"SP-POST OFFICE SORTING AREA-SPACE FUNCTION SYS-6 FLR-4 SCH-A HPLCMT-EAST ZN SPACE FUNCTION POST OFFICE SORTING AREA LIGHTS\".\n   ** Warning ** GetInternalHeatGains: Lights Combination of ZoneList and Object Name generate a name too long.\n   **   ~~~   ** Object Name=\"SPACE FUNCTION RELIGIOUS BUILDING FELLOWSHIP HALL LIGHTS\".\n   **   ~~~   ** ZoneList/Zone Name=\"SP-RELIGIOUS BUILDING FELLOWSHIP HALL-SPACE FUNCTION SYS-3 FLR-1 SCH-C HPLCMT-NORTH ZN\".\n   **   ~~~   ** Item length=[142] > Maximum Length=[100]. You may need to shorten the names.\n   **   ~~~   ** Shortening the Object Name by [43] characters will assure uniqueness for this ZoneList.\n   **   ~~~   ** name that will be used (may be needed in reporting)=\"SP-RELIGIOUS BUILDING FELLOWSHIP HALL-SPACE FUNCTION SYS-3 FLR-1 SCH-C HPLCMT-NORTH ZN SPACE FUNCTION RELIGIOUS BUILDING FELLOWSHIP HALL LIGHTS\".\n   ** Warning ** GetInternalHeatGains: Lights Combination of ZoneList and Object Name generate a name too long.\n   **   ~~~   ** Object Name=\"SPACE FUNCTION RETAIL FACILITY DRESSING/FITTING ROOM LIGHTS\".\n   **   ~~~   ** ZoneList/Zone Name=\"SP-RETAIL FACILITY DRESSING/FITTING ROOM-SPACE FUNCTION SYS-6 FLR-3 SCH-C HPLCMT-CORE ZN\".\n   **   ~~~   ** Item length=[147] > Maximum Length=[100]. You may need to shorten the names.\n   **   ~~~   ** Shortening the Object Name by [48] characters will assure uniqueness for this ZoneList.\n   **   ~~~   ** name that will be used (may be needed in reporting)=\"SP-RETAIL FACILITY DRESSING/FITTING ROOM-SPACE FUNCTION SYS-6 FLR-3 SCH-C HPLCMT-CORE ZN SPACE FUNCTION RETAIL FACILITY DRESSING/FITTING ROOM LIGHTS\".\n   ** Warning ** GetInternalHeatGains: Lights Combination of ZoneList and Object Name generate a name too long.\n   **   ~~~   ** Object Name=\"SPACE FUNCTION RETAIL FACILITY MALL CONCOURSE LIGHTS\".\n   **   ~~~   ** ZoneList/Zone Name=\"SP-RETAIL FACILITY MALL CONCOURSE-SPACE FUNCTION SYS-6 FLR-2 SCH-C HPLCMT-CORE ZN\".\n   **   ~~~   ** Item length=[133] > Maximum Length=[100]. You may need to shorten the names.\n   **   ~~~   ** Shortening the Object Name by [34] characters will assure uniqueness for this ZoneList.\n   **   ~~~   ** name that will be used (may be needed in reporting)=\"SP-RETAIL FACILITY MALL CONCOURSE-SPACE FUNCTION SYS-6 FLR-2 SCH-C HPLCMT-CORE ZN SPACE FUNCTION RETAIL FACILITY MALL CONCOURSE LIGHTS\".\n   ** Warning ** GetInternalHeatGains: Lights Combination of ZoneList and Object Name generate a name too long.\n   **   ~~~   ** Object Name=\"SPACE FUNCTION SPACE DESIGNED TO ANSI/IES RP-28 RECREATION ROOM (USED PRIMARILY BY RESIDENTS) LIGHTS\".\n   **   ~~~   ** ZoneList/Zone Name=\"SP-SPACE DESIGNED TO ANSI/IES RP-28 RECREATION ROOM (USED PRIMARILY BY RESIDENTS)-SPACE FUNCTION SYS-3 FLR-4 SCH-B HPLCMT-CORE ZN\".\n   **   ~~~   ** Item length=[229] > Maximum Length=[100]. You may need to shorten the names.\n   **   ~~~   ** Shortening the Object Name by [130] characters will assure uniqueness for this ZoneList.\n   **   ~~~   ** name that will be used (may be needed in reporting)=\"SP-SPACE DESIGNED TO ANSI/IES RP-28 RECREATION ROOM (USED PRIMARILY BY RESIDENTS)-SPACE FUNCTION SYS-3 FLR-4 SCH-B HPLCMT-CORE ZN SPACE FUNCTION SPACE DESIGNED TO ANSI/IES RP-28 RECREATION ROOM (USED PRIMARILY BY RESIDENTS) LIGHTS\".\n   ** Warning ** GetInternalHeatGains: Lights Combination of ZoneList and Object Name generate a name too long.\n   **   ~~~   ** Object Name=\"SPACE FUNCTION SPORTS ARENA PLAYING AREA CLASS I FACILITY(4) LIGHTS\".\n   **   ~~~   ** ZoneList/Zone Name=\"SP-SPORTS ARENA PLAYING AREA CLASS I FACILITY(4)-SPACE FUNCTION SYS-6 FLR-4 SCH-B HPLCMT-WEST ZN\".\n   **   ~~~   ** Item length=[163] > Maximum Length=[100]. You may need to shorten the names.\n   **   ~~~   ** Shortening the Object Name by [64] characters will assure uniqueness for this ZoneList.\n   **   ~~~   ** name that will be used (may be needed in reporting)=\"SP-SPORTS ARENA PLAYING AREA CLASS I FACILITY(4)-SPACE FUNCTION SYS-6 FLR-4 SCH-B HPLCMT-WEST ZN SPACE FUNCTION SPORTS ARENA PLAYING AREA CLASS I FACILITY(4) LIGHTS\".\n   ** Warning ** GetInternalHeatGains: Lights Combination of ZoneList and Object Name generate a name too long.\n   **   ~~~   ** Object Name=\"SPACE FUNCTION SPORTS ARENA PLAYING AREA CLASS II FACILITY(4) LIGHTS\".\n   **   ~~~   ** ZoneList/Zone Name=\"SP-SPORTS ARENA PLAYING AREA CLASS II FACILITY(4)-SPACE FUNCTION SYS-6 FLR-1 SCH-B HPLCMT-EAST ZN\".\n   **   ~~~   ** Item length=[165] > Maximum Length=[100]. You may need to shorten the names.\n   **   ~~~   ** Shortening the Object Name by [66] characters will assure uniqueness for this ZoneList.\n   **   ~~~   ** name that will be used (may be needed in reporting)=\"SP-SPORTS ARENA PLAYING AREA CLASS II FACILITY(4)-SPACE FUNCTION SYS-6 FLR-1 SCH-B HPLCMT-EAST ZN SPACE FUNCTION SPORTS ARENA PLAYING AREA CLASS II FACILITY(4) LIGHTS\".\n   ** Warning ** GetInternalHeatGains: Lights Combination of ZoneList and Object Name generate a name too long.\n   **   ~~~   ** Object Name=\"SPACE FUNCTION SPORTS ARENA PLAYING AREA CLASS III FACILITY(4) LIGHTS\".\n   **   ~~~   ** ZoneList/Zone Name=\"SP-SPORTS ARENA PLAYING AREA CLASS III FACILITY(4)-SPACE FUNCTION SYS-6 FLR-3 SCH-B HPLCMT-EAST ZN\".\n   **   ~~~   ** Item length=[167] > Maximum Length=[100]. You may need to shorten the names.\n   **   ~~~   ** Shortening the Object Name by [68] characters will assure uniqueness for this ZoneList.\n   **   ~~~   ** name that will be used (may be needed in reporting)=\"SP-SPORTS ARENA PLAYING AREA CLASS III FACILITY(4)-SPACE FUNCTION SYS-6 FLR-3 SCH-B HPLCMT-EAST ZN SPACE FUNCTION SPORTS ARENA PLAYING AREA CLASS III FACILITY(4) LIGHTS\".\n   ** Warning ** GetInternalHeatGains: Lights Combination of ZoneList and Object Name generate a name too long.\n   **   ~~~   ** Object Name=\"SPACE FUNCTION SPORTS ARENA PLAYING AREA CLASS IV FACILITY(4) LIGHTS\".\n   **   ~~~   ** ZoneList/Zone Name=\"SP-SPORTS ARENA PLAYING AREA CLASS IV FACILITY(4)-SPACE FUNCTION SYS-6 FLR-1 SCH-B HPLCMT-SOUTH ZN\".\n   **   ~~~   ** Item length=[166] > Maximum Length=[100]. You may need to shorten the names.\n   **   ~~~   ** Shortening the Object Name by [67] characters will assure uniqueness for this ZoneList.\n   **   ~~~   ** name that will be used (may be needed in reporting)=\"SP-SPORTS ARENA PLAYING AREA CLASS IV FACILITY(4)-SPACE FUNCTION SYS-6 FLR-1 SCH-B HPLCMT-SOUTH ZN SPACE FUNCTION SPORTS ARENA PLAYING AREA CLASS IV FACILITY(4) LIGHTS\".\n   ** Warning ** GetInternalHeatGains: Lights Combination of ZoneList and Object Name generate a name too long.\n   **   ~~~   ** Object Name=\"SPACE FUNCTION TRANSPORTATION FACILITY AIRPORT CONCOURSE LIGHTS\".\n   **   ~~~   ** ZoneList/Zone Name=\"SP-TRANSPORTATION FACILITY AIRPORT CONCOURSE-SPACE FUNCTION SYS-6 FLR-1 SCH-H HPLCMT-CORE ZN\".\n   **   ~~~   ** Item length=[155] > Maximum Length=[100]. You may need to shorten the names.\n   **   ~~~   ** Shortening the Object Name by [56] characters will assure uniqueness for this ZoneList.\n   **   ~~~   ** name that will be used (may be needed in reporting)=\"SP-TRANSPORTATION FACILITY AIRPORT CONCOURSE-SPACE FUNCTION SYS-6 FLR-1 SCH-H HPLCMT-CORE ZN SPACE FUNCTION TRANSPORTATION FACILITY AIRPORT CONCOURSE LIGHTS\".\n   ** Warning ** GetInternalHeatGains: Lights Combination of ZoneList and Object Name generate a name too long.\n   **   ~~~   ** Object Name=\"SPACE FUNCTION TRANSPORTATION FACILITY BAGGAGE/CAROUSEL AREA LIGHTS\".\n   **   ~~~   ** ZoneList/Zone Name=\"SP-TRANSPORTATION FACILITY BAGGAGE/CAROUSEL AREA-SPACE FUNCTION SYS-6 FLR-2 SCH-H HPLCMT-NORTH ZN\".\n   **   ~~~   ** Item length=[164] > Maximum Length=[100]. You may need to shorten the names.\n   **   ~~~   ** Shortening the Object Name by [65] characters will assure uniqueness for this ZoneList.\n   **   ~~~   ** name that will be used (may be needed in reporting)=\"SP-TRANSPORTATION FACILITY BAGGAGE/CAROUSEL AREA-SPACE FUNCTION SYS-6 FLR-2 SCH-H HPLCMT-NORTH ZN SPACE FUNCTION TRANSPORTATION FACILITY BAGGAGE/CAROUSEL AREA LIGHTS\".\n   ** Warning ** GetInternalHeatGains: Lights Combination of ZoneList and Object Name generate a name too long.\n   **   ~~~   ** Object Name=\"SPACE FUNCTION TRANSPORTATION FACILITY TERMINAL TICKET COUNTER LIGHTS\".\n   **   ~~~   ** ZoneList/Zone Name=\"SP-TRANSPORTATION FACILITY TERMINAL TICKET COUNTER-SPACE FUNCTION SYS-6 FLR-2 SCH-H HPLCMT-SOUTH ZN\".\n   **   ~~~   ** Item length=[168] > Maximum Length=[100]. You may need to shorten the names.\n   **   ~~~   ** Shortening the Object Name by [69] characters will assure uniqueness for this ZoneList.\n   **   ~~~   ** name that will be used (may be needed in reporting)=\"SP-TRANSPORTATION FACILITY TERMINAL TICKET COUNTER-SPACE FUNCTION SYS-6 FLR-2 SCH-H HPLCMT-SOUTH ZN SPACE FUNCTION TRANSPORTATION FACILITY TERMINAL TICKET COUNTER LIGHTS\".\n   ** Warning ** GetInternalHeatGains: Lights Combination of ZoneList and Object Name generate a name too long.\n   **   ~~~   ** Object Name=\"SPACE FUNCTION WAREHOUSE STORAGE AREA MEDIUM TO BULKY PALLETIZED ITEMS LIGHTS\".\n   **   ~~~   ** ZoneList/Zone Name=\"SP-WAREHOUSE STORAGE AREA MEDIUM TO BULKY PALLETIZED ITEMS-SPACE FUNCTION SYS-4 FLR-2 SCH-A HPLCMT-WEST ZN\".\n   **   ~~~   ** Item length=[183] > Maximum Length=[100]. You may need to shorten the names.\n   **   ~~~   ** Shortening the Object Name by [84] characters will assure uniqueness for this ZoneList.\n   **   ~~~   ** name that will be used (may be needed in reporting)=\"SP-WAREHOUSE STORAGE AREA MEDIUM TO BULKY PALLETIZED ITEMS-SPACE FUNCTION SYS-4 FLR-2 SCH-A HPLCMT-WEST ZN SPACE FUNCTION WAREHOUSE STORAGE AREA MEDIUM TO BULKY PALLETIZED ITEMS LIGHTS\".\n   ** Warning ** GetInternalHeatGains: Lights Combination of ZoneList and Object Name generate a name too long.\n   **   ~~~   ** Object Name=\"SPACE FUNCTION WAREHOUSE STORAGE AREA SMALL HAND-CARRIED ITEMS(4) LIGHTS\".\n   **   ~~~   ** ZoneList/Zone Name=\"SP-WAREHOUSE STORAGE AREA SMALL HAND-CARRIED ITEMS(4)-SPACE FUNCTION SYS-4 FLR-2 SCH-A HPLCMT-EAST ZN\".\n   **   ~~~   ** Item length=[173] > Maximum Length=[100]. You may need to shorten the names.\n   **   ~~~   ** Shortening the Object Name by [74] characters will assure uniqueness for this ZoneList.\n   **   ~~~   ** name that will be used (may be needed in reporting)=\"SP-WAREHOUSE STORAGE AREA SMALL HAND-CARRIED ITEMS(4)-SPACE FUNCTION SYS-4 FLR-2 SCH-A HPLCMT-EAST ZN SPACE FUNCTION WAREHOUSE STORAGE AREA SMALL HAND-CARRIED ITEMS(4) LIGHTS\".\n   ** Warning ** GetInternalHeatGains: ElectricEquipment Combination of ZoneList and Object Name generate a name too long.\n   **   ~~~   ** Object Name=\"SPACE FUNCTION MANUFACTURING FACILITY EQUIPMENT ROOM ELEC EQUIP\".\n   **   ~~~   ** ZoneList/Zone Name=\"SP-MANUFACTURING FACILITY EQUIPMENT ROOM-SPACE FUNCTION SYS-3 FLR-4 SCH-A HPLCMT-SOUTH ZN\".\n   **   ~~~   ** Item length=[152] > Maximum Length=[100]. You may need to shorten the names.\n   **   ~~~   ** Shortening the Object Name by [53] characters will assure uniqueness for this ZoneList.\n   **   ~~~   ** name that will be used (may be needed in reporting)=\"SP-MANUFACTURING FACILITY EQUIPMENT ROOM-SPACE FUNCTION SYS-3 FLR-4 SCH-A HPLCMT-SOUTH ZN SPACE FUNCTION MANUFACTURING FACILITY EQUIPMENT ROOM ELEC EQUIP\".\n   ** Warning ** GetInternalHeatGains: ElectricEquipment Combination of ZoneList and Object Name generate a name too long.\n   **   ~~~   ** Object Name=\"SPACE FUNCTION MANUFACTURING FACILITY EXTRA HIGH BAY AREA (> 15 M FLOOR-TO-CEILING HEIGHT) ELEC EQUIP\".\n   **   ~~~   ** ZoneList/Zone Name=\"SP-MANUFACTURING FACILITY EXTRA HIGH BAY AREA (> 15 M FLOOR-TO-CEILING HEIGHT)-SPACE FUNCTION SYS-3 FLR-4 SCH-A HPLCMT-NORTH ZN\".\n   **   ~~~   ** Item length=[228] > Maximum Length=[100]. You may need to shorten the names.\n   **   ~~~   ** Shortening the Object Name by [129] characters will assure uniqueness for this ZoneList.\n   **   ~~~   ** name that will be used (may be needed in reporting)=\"SP-MANUFACTURING FACILITY EXTRA HIGH BAY AREA (> 15 M FLOOR-TO-CEILING HEIGHT)-SPACE FUNCTION SYS-3 FLR-4 SCH-A HPLCMT-NORTH ZN SPACE FUNCTION MANUFACTURING FACILITY EXTRA HIGH BAY AREA (> 15 M FLOOR-TO-CEILING HEIGHT) ELEC EQUIP\".\n   ** Warning ** GetInternalHeatGains: ElectricEquipment Combination of ZoneList and Object Name generate a name too long.\n   **   ~~~   ** Object Name=\"SPACE FUNCTION MANUFACTURING FACILITY HIGH BAY AREA (7.5 TO 15 M FLOOR-TO-CEILING HEIGHT) ELEC EQUIP\".\n   **   ~~~   ** ZoneList/Zone Name=\"SP-MANUFACTURING FACILITY HIGH BAY AREA (7.5 TO 15 M FLOOR-TO-CEILING HEIGHT)-SPACE FUNCTION SYS-3 FLR-3 SCH-A HPLCMT-SOUTH ZN\".\n   **   ~~~   ** Item length=[226] > Maximum Length=[100]. You may need to shorten the names.\n   **   ~~~   ** Shortening the Object Name by [127] characters will assure uniqueness for this ZoneList.\n   **   ~~~   ** name that will be used (may be needed in reporting)=\"SP-MANUFACTURING FACILITY HIGH BAY AREA (7.5 TO 15 M FLOOR-TO-CEILING HEIGHT)-SPACE FUNCTION SYS-3 FLR-3 SCH-A HPLCMT-SOUTH ZN SPACE FUNCTION MANUFACTURING FACILITY HIGH BAY AREA (7.5 TO 15 M FLOOR-TO-CEILING HEIGHT) ELEC EQUIP\".\n   ** Warning ** GetInternalHeatGains: ElectricEquipment Combination of ZoneList and Object Name generate a name too long.\n   **   ~~~   ** Object Name=\"SPACE FUNCTION MANUFACTURING FACILITY LOW BAY AREA (< 7.5 M FLOOR-TO-CEILING HEIGHT) ELEC EQUIP\".\n   **   ~~~   ** ZoneList/Zone Name=\"SP-MANUFACTURING FACILITY LOW BAY AREA (< 7.5 M FLOOR-TO-CEILING HEIGHT)-SPACE FUNCTION SYS-3 FLR-3 SCH-A HPLCMT-NORTH ZN\".\n   **   ~~~   ** Item length=[216] > Maximum Length=[100]. You may need to shorten the names.\n   **   ~~~   ** Shortening the Object Name by [117] characters will assure uniqueness for this ZoneList.\n   **   ~~~   ** name that will be used (may be needed in reporting)=\"SP-MANUFACTURING FACILITY LOW BAY AREA (< 7.5 M FLOOR-TO-CEILING HEIGHT)-SPACE FUNCTION SYS-3 FLR-3 SCH-A HPLCMT-NORTH ZN SPACE FUNCTION MANUFACTURING FACILITY LOW BAY AREA (< 7.5 M FLOOR-TO-CEILING HEIGHT) ELEC EQUIP\".\n   ** Warning ** GetInternalHeatGains: ElectricEquipment Combination of ZoneList and Object Name generate a name too long.\n   **   ~~~   ** Object Name=\"SPACE FUNCTION MUSEUM GENERAL EXHIBITION AREA ELEC EQUIP\".\n   **   ~~~   ** ZoneList/Zone Name=\"SP-MUSEUM GENERAL EXHIBITION AREA-SPACE FUNCTION SYS-2 FLR-3 SCH-C HPLCMT-WEST ZN\".\n   **   ~~~   ** Item length=[137] > Maximum Length=[100]. You may need to shorten the names.\n   **   ~~~   ** Shortening the Object Name by [38] characters will assure uniqueness for this ZoneList.\n   **   ~~~   ** name that will be used (may be needed in reporting)=\"SP-MUSEUM GENERAL EXHIBITION AREA-SPACE FUNCTION SYS-2 FLR-3 SCH-C HPLCMT-WEST ZN SPACE FUNCTION MUSEUM GENERAL EXHIBITION AREA ELEC EQUIP\".\n   ** Warning ** GetInternalHeatGains: ElectricEquipment Combination of ZoneList and Object Name generate a name too long.\n   **   ~~~   ** Object Name=\"SPACE FUNCTION MUSEUM RESTORATION ROOM ELEC EQUIP\".\n   **   ~~~   ** ZoneList/Zone Name=\"SP-MUSEUM RESTORATION ROOM-SPACE FUNCTION SYS-2 FLR-1 SCH-A HPLCMT-WEST ZN\".\n   **   ~~~   ** Item length=[123] > Maximum Length=[100]. You may need to shorten the names.\n   **   ~~~   ** Shortening the Object Name by [24] characters will assure uniqueness for this ZoneList.\n   **   ~~~   ** name that will be used (may be needed in reporting)=\"SP-MUSEUM RESTORATION ROOM-SPACE FUNCTION SYS-2 FLR-1 SCH-A HPLCMT-WEST ZN SPACE FUNCTION MUSEUM RESTORATION ROOM ELEC EQUIP\".\n   ** Warning ** GetInternalHeatGains: ElectricEquipment Combination of ZoneList and Object Name generate a name too long.\n   **   ~~~   ** Object Name=\"SPACE FUNCTION POST OFFICE SORTING AREA ELEC EQUIP\".\n   **   ~~~   ** ZoneList/Zone Name=\"SP-POST OFFICE SORTING AREA-SPACE FUNCTION SYS-6 FLR-4 SCH-A HPLCMT-EAST ZN\".\n   **   ~~~   ** Item length=[125] > Maximum Length=[100]. You may need to shorten the names.\n   **   ~~~   ** Shortening the Object Name by [26] characters will assure uniqueness for this ZoneList.\n   **   ~~~   ** name that will be used (may be needed in reporting)=\"SP-POST OFFICE SORTING AREA-SPACE FUNCTION SYS-6 FLR-4 SCH-A HPLCMT-EAST ZN SPACE FUNCTION POST OFFICE SORTING AREA ELEC EQUIP\".\n   ** Warning ** GetInternalHeatGains: ElectricEquipment Combination of ZoneList and Object Name generate a name too long.\n   **   ~~~   ** Object Name=\"SPACE FUNCTION RELIGIOUS BUILDING FELLOWSHIP HALL ELEC EQUIP\".\n   **   ~~~   ** ZoneList/Zone Name=\"SP-RELIGIOUS BUILDING FELLOWSHIP HALL-SPACE FUNCTION SYS-3 FLR-1 SCH-C HPLCMT-NORTH ZN\".\n   **   ~~~   ** Item length=[146] > Maximum Length=[100]. You may need to shorten the names.\n   **   ~~~   ** Shortening the Object Name by [47] characters will assure uniqueness for this ZoneList.\n   **   ~~~   ** name that will be used (may be needed in reporting)=\"SP-RELIGIOUS BUILDING FELLOWSHIP HALL-SPACE FUNCTION SYS-3 FLR-1 SCH-C HPLCMT-NORTH ZN SPACE FUNCTION RELIGIOUS BUILDING FELLOWSHIP HALL ELEC EQUIP\".\n   ** Warning ** GetInternalHeatGains: ElectricEquipment Combination of ZoneList and Object Name generate a name too long.\n   **   ~~~   ** Object Name=\"SPACE FUNCTION RETAIL FACILITY DRESSING/FITTING ROOM ELEC EQUIP\".\n   **   ~~~   ** ZoneList/Zone Name=\"SP-RETAIL FACILITY DRESSING/FITTING ROOM-SPACE FUNCTION SYS-6 FLR-3 SCH-C HPLCMT-CORE ZN\".\n   **   ~~~   ** Item length=[151] > Maximum Length=[100]. You may need to shorten the names.\n   **   ~~~   ** Shortening the Object Name by [52] characters will assure uniqueness for this ZoneList.\n   **   ~~~   ** name that will be used (may be needed in reporting)=\"SP-RETAIL FACILITY DRESSING/FITTING ROOM-SPACE FUNCTION SYS-6 FLR-3 SCH-C HPLCMT-CORE ZN SPACE FUNCTION RETAIL FACILITY DRESSING/FITTING ROOM ELEC EQUIP\".\n   ** Warning ** GetInternalHeatGains: ElectricEquipment Combination of ZoneList and Object Name generate a name too long.\n   **   ~~~   ** Object Name=\"SPACE FUNCTION RETAIL FACILITY MALL CONCOURSE ELEC EQUIP\".\n   **   ~~~   ** ZoneList/Zone Name=\"SP-RETAIL FACILITY MALL CONCOURSE-SPACE FUNCTION SYS-6 FLR-2 SCH-C HPLCMT-CORE ZN\".\n   **   ~~~   ** Item length=[137] > Maximum Length=[100]. You may need to shorten the names.\n   **   ~~~   ** Shortening the Object Name by [38] characters will assure uniqueness for this ZoneList.\n   **   ~~~   ** name that will be used (may be needed in reporting)=\"SP-RETAIL FACILITY MALL CONCOURSE-SPACE FUNCTION SYS-6 FLR-2 SCH-C HPLCMT-CORE ZN SPACE FUNCTION RETAIL FACILITY MALL CONCOURSE ELEC EQUIP\".\n   ** Warning ** GetInternalHeatGains: ElectricEquipment Combination of ZoneList and Object Name generate a name too long.\n   **   ~~~   ** Object Name=\"SPACE FUNCTION SPACE DESIGNED TO ANSI/IES RP-28 RECREATION ROOM (USED PRIMARILY BY RESIDENTS) ELEC EQUIP\".\n   **   ~~~   ** ZoneList/Zone Name=\"SP-SPACE DESIGNED TO ANSI/IES RP-28 RECREATION ROOM (USED PRIMARILY BY RESIDENTS)-SPACE FUNCTION SYS-3 FLR-4 SCH-B HPLCMT-CORE ZN\".\n   **   ~~~   ** Item length=[233] > Maximum Length=[100]. You may need to shorten the names.\n   **   ~~~   ** Shortening the Object Name by [134] characters will assure uniqueness for this ZoneList.\n   **   ~~~   ** name that will be used (may be needed in reporting)=\"SP-SPACE DESIGNED TO ANSI/IES RP-28 RECREATION ROOM (USED PRIMARILY BY RESIDENTS)-SPACE FUNCTION SYS-3 FLR-4 SCH-B HPLCMT-CORE ZN SPACE FUNCTION SPACE DESIGNED TO ANSI/IES RP-28 RECREATION ROOM (USED PRIMARILY BY RESIDENTS) ELEC EQUIP\".\n   ** Warning ** GetInternalHeatGains: ElectricEquipment Combination of ZoneList and Object Name generate a name too long.\n   **   ~~~   ** Object Name=\"SPACE FUNCTION SPORTS ARENA PLAYING AREA CLASS I FACILITY(4) ELEC EQUIP\".\n   **   ~~~   ** ZoneList/Zone Name=\"SP-SPORTS ARENA PLAYING AREA CLASS I FACILITY(4)-SPACE FUNCTION SYS-6 FLR-4 SCH-B HPLCMT-WEST ZN\".\n   **   ~~~   ** Item length=[167] > Maximum Length=[100]. You may need to shorten the names.\n   **   ~~~   ** Shortening the Object Name by [68] characters will assure uniqueness for this ZoneList.\n   **   ~~~   ** name that will be used (may be needed in reporting)=\"SP-SPORTS ARENA PLAYING AREA CLASS I FACILITY(4)-SPACE FUNCTION SYS-6 FLR-4 SCH-B HPLCMT-WEST ZN SPACE FUNCTION SPORTS ARENA PLAYING AREA CLASS I FACILITY(4) ELEC EQUIP\".\n   ** Warning ** GetInternalHeatGains: ElectricEquipment Combination of ZoneList and Object Name generate a name too long.\n   **   ~~~   ** Object Name=\"SPACE FUNCTION SPORTS ARENA PLAYING AREA CLASS II FACILITY(4) ELEC EQUIP\".\n   **   ~~~   ** ZoneList/Zone Name=\"SP-SPORTS ARENA PLAYING AREA CLASS II FACILITY(4)-SPACE FUNCTION SYS-6 FLR-1 SCH-B HPLCMT-EAST ZN\".\n   **   ~~~   ** Item length=[169] > Maximum Length=[100]. You may need to shorten the names.\n   **   ~~~   ** Shortening the Object Name by [70] characters will assure uniqueness for this ZoneList.\n   **   ~~~   ** name that will be used (may be needed in reporting)=\"SP-SPORTS ARENA PLAYING AREA CLASS II FACILITY(4)-SPACE FUNCTION SYS-6 FLR-1 SCH-B HPLCMT-EAST ZN SPACE FUNCTION SPORTS ARENA PLAYING AREA CLASS II FACILITY(4) ELEC EQUIP\".\n   ** Warning ** GetInternalHeatGains: ElectricEquipment Combination of ZoneList and Object Name generate a name too long.\n   **   ~~~   ** Object Name=\"SPACE FUNCTION SPORTS ARENA PLAYING AREA CLASS III FACILITY(4) ELEC EQUIP\".\n   **   ~~~   ** ZoneList/Zone Name=\"SP-SPORTS ARENA PLAYING AREA CLASS III FACILITY(4)-SPACE FUNCTION SYS-6 FLR-3 SCH-B HPLCMT-EAST ZN\".\n   **   ~~~   ** Item length=[171] > Maximum Length=[100]. You may need to shorten the names.\n   **   ~~~   ** Shortening the Object Name by [72] characters will assure uniqueness for this ZoneList.\n   **   ~~~   ** name that will be used (may be needed in reporting)=\"SP-SPORTS ARENA PLAYING AREA CLASS III FACILITY(4)-SPACE FUNCTION SYS-6 FLR-3 SCH-B HPLCMT-EAST ZN SPACE FUNCTION SPORTS ARENA PLAYING AREA CLASS III FACILITY(4) ELEC EQUIP\".\n   ** Warning ** GetInternalHeatGains: ElectricEquipment Combination of ZoneList and Object Name generate a name too long.\n   **   ~~~   ** Object Name=\"SPACE FUNCTION SPORTS ARENA PLAYING AREA CLASS IV FACILITY(4) ELEC EQUIP\".\n   **   ~~~   ** ZoneList/Zone Name=\"SP-SPORTS ARENA PLAYING AREA CLASS IV FACILITY(4)-SPACE FUNCTION SYS-6 FLR-1 SCH-B HPLCMT-SOUTH ZN\".\n   **   ~~~   ** Item length=[170] > Maximum Length=[100]. You may need to shorten the names.\n   **   ~~~   ** Shortening the Object Name by [71] characters will assure uniqueness for this ZoneList.\n   **   ~~~   ** name that will be used (may be needed in reporting)=\"SP-SPORTS ARENA PLAYING AREA CLASS IV FACILITY(4)-SPACE FUNCTION SYS-6 FLR-1 SCH-B HPLCMT-SOUTH ZN SPACE FUNCTION SPORTS ARENA PLAYING AREA CLASS IV FACILITY(4) ELEC EQUIP\".\n   ** Warning ** GetInternalHeatGains: ElectricEquipment Combination of ZoneList and Object Name generate a name too long.\n   **   ~~~   ** Object Name=\"SPACE FUNCTION TRANSPORTATION FACILITY BAGGAGE/CAROUSEL AREA ELEC EQUIP\".\n   **   ~~~   ** ZoneList/Zone Name=\"SP-TRANSPORTATION FACILITY BAGGAGE/CAROUSEL AREA-SPACE FUNCTION SYS-6 FLR-2 SCH-H HPLCMT-NORTH ZN\".\n   **   ~~~   ** Item length=[168] > Maximum Length=[100]. You may need to shorten the names.\n   **   ~~~   ** Shortening the Object Name by [69] characters will assure uniqueness for this ZoneList.\n   **   ~~~   ** name that will be used (may be needed in reporting)=\"SP-TRANSPORTATION FACILITY BAGGAGE/CAROUSEL AREA-SPACE FUNCTION SYS-6 FLR-2 SCH-H HPLCMT-NORTH ZN SPACE FUNCTION TRANSPORTATION FACILITY BAGGAGE/CAROUSEL AREA ELEC EQUIP\".\n   ** Warning ** GetInternalHeatGains: ElectricEquipment Combination of ZoneList and Object Name generate a name too long.\n   **   ~~~   ** Object Name=\"SPACE FUNCTION TRANSPORTATION FACILITY TERMINAL TICKET COUNTER ELEC EQUIP\".\n   **   ~~~   ** ZoneList/Zone Name=\"SP-TRANSPORTATION FACILITY TERMINAL TICKET COUNTER-SPACE FUNCTION SYS-6 FLR-2 SCH-H HPLCMT-SOUTH ZN\".\n   **   ~~~   ** Item length=[172] > Maximum Length=[100]. You may need to shorten the names.\n   **   ~~~   ** Shortening the Object Name by [73] characters will assure uniqueness for this ZoneList.\n   **   ~~~   ** name that will be used (may be needed in reporting)=\"SP-TRANSPORTATION FACILITY TERMINAL TICKET COUNTER-SPACE FUNCTION SYS-6 FLR-2 SCH-H HPLCMT-SOUTH ZN SPACE FUNCTION TRANSPORTATION FACILITY TERMINAL TICKET COUNTER ELEC EQUIP\".\n   ** Warning ** GetInternalHeatGains: ElectricEquipment Combination of ZoneList and Object Name generate a name too long.\n   **   ~~~   ** Object Name=\"SPACE FUNCTION WAREHOUSE STORAGE AREA MEDIUM TO BULKY PALLETIZED ITEMS ELEC EQUIP\".\n   **   ~~~   ** ZoneList/Zone Name=\"SP-WAREHOUSE STORAGE AREA MEDIUM TO BULKY PALLETIZED ITEMS-SPACE FUNCTION SYS-4 FLR-2 SCH-A HPLCMT-WEST ZN\".\n   **   ~~~   ** Item length=[187] > Maximum Length=[100]. You may need to shorten the names.\n   **   ~~~   ** Shortening the Object Name by [88] characters will assure uniqueness for this ZoneList.\n   **   ~~~   ** name that will be used (may be needed in reporting)=\"SP-WAREHOUSE STORAGE AREA MEDIUM TO BULKY PALLETIZED ITEMS-SPACE FUNCTION SYS-4 FLR-2 SCH-A HPLCMT-WEST ZN SPACE FUNCTION WAREHOUSE STORAGE AREA MEDIUM TO BULKY PALLETIZED ITEMS ELEC EQUIP\".\n   ** Warning ** GetInternalHeatGains: ElectricEquipment Combination of ZoneList and Object Name generate a name too long.\n   **   ~~~   ** Object Name=\"SPACE FUNCTION WAREHOUSE STORAGE AREA SMALL HAND-CARRIED ITEMS(4) ELEC EQUIP\".\n   **   ~~~   ** ZoneList/Zone Name=\"SP-WAREHOUSE STORAGE AREA SMALL HAND-CARRIED ITEMS(4)-SPACE FUNCTION SYS-4 FLR-2 SCH-A HPLCMT-EAST ZN\".\n   **   ~~~   ** Item length=[177] > Maximum Length=[100]. You may need to shorten the names.\n   **   ~~~   ** Shortening the Object Name by [78] characters will assure uniqueness for this ZoneList.\n   **   ~~~   ** name that will be used (may be needed in reporting)=\"SP-WAREHOUSE STORAGE AREA SMALL HAND-CARRIED ITEMS(4)-SPACE FUNCTION SYS-4 FLR-2 SCH-A HPLCMT-EAST ZN SPACE FUNCTION WAREHOUSE STORAGE AREA SMALL HAND-CARRIED ITEMS(4) ELEC EQUIP\".\n   ** Warning ** GetSetPointManagerInputs: SetpointManager:SingleZone:Reheat=\"SETPOINT MANAGER SINGLE ZONE REHEAT 1\",\n   **   ~~~   ** ...Maximum Supply Air Temperature=[13.0] is less than Minimum Supply Air Temperature=[13.1].\n   ** Warning ** Calculated design heating load for zone=SP-MUSEUM RESTORATION ROOM-SPACE FUNCTION SYS-2 FLR-1 SCH-A HPLCMT-WEST ZN is zero.\n   **   ~~~   ** Check Sizing:Zone and ZoneControl:Thermostat inputs.\n   ** Warning ** Calculated design heating load for zone=SP-RELIGIOUS BUILDING FELLOWSHIP HALL-SPACE FUNCTION SYS-3 FLR-1 SCH-C HPLCMT-NORTH ZN is zero.\n   **   ~~~   ** Check Sizing:Zone and ZoneControl:Thermostat inputs.\n   ** Warning ** Calculated design heating load for zone=SP-RETAIL FACILITY DRESSING/FITTING ROOM-SPACE FUNCTION SYS-6 FLR-3 SCH-C HPLCMT-CORE ZN is zero.\n   **   ~~~   ** Check Sizing:Zone and ZoneControl:Thermostat inputs.\n   ** Warning ** Calculated design heating load for zone=SP-RETAIL FACILITY MALL CONCOURSE-SPACE FUNCTION SYS-6 FLR-2 SCH-C HPLCMT-CORE ZN is zero.\n   **   ~~~   ** Check Sizing:Zone and ZoneControl:Thermostat inputs.\n   ** Warning ** Calculated design heating load for zone=SP-SPORTS ARENA PLAYING AREA CLASS II FACILITY(4)-SPACE FUNCTION SYS-6 FLR-1 SCH-B HPLCMT-EAST ZN is zero.\n   **   ~~~   ** Check Sizing:Zone and ZoneControl:Thermostat inputs.\n   ** Warning ** Calculated design heating load for zone=SP-SPORTS ARENA PLAYING AREA CLASS IV FACILITY(4)-SPACE FUNCTION SYS-6 FLR-1 SCH-B HPLCMT-SOUTH ZN is zero.\n   **   ~~~   ** Check Sizing:Zone and ZoneControl:Thermostat inputs.\n   ** Warning ** Calculated design heating load for zone=SP-TRANSPORTATION FACILITY AIRPORT CONCOURSE-SPACE FUNCTION SYS-6 FLR-1 SCH-H HPLCMT-CORE ZN is zero.\n   **   ~~~   ** Check Sizing:Zone and ZoneControl:Thermostat inputs.\n   ** Warning ** Calculated design heating load for zone=SP-TRANSPORTATION FACILITY BAGGAGE/CAROUSEL AREA-SPACE FUNCTION SYS-6 FLR-2 SCH-H HPLCMT-NORTH ZN is zero.\n   **   ~~~   ** Check Sizing:Zone and ZoneControl:Thermostat inputs.\n   ** Warning ** Calculated design heating load for zone=SP-TRANSPORTATION FACILITY TERMINAL TICKET COUNTER-SPACE FUNCTION SYS-6 FLR-2 SCH-H HPLCMT-SOUTH ZN is zero.\n   **   ~~~   ** Check Sizing:Zone and ZoneControl:Thermostat inputs.\n   ** Warning ** Calculated design heating load for zone=SP-WAREHOUSE STORAGE AREA SMALL HAND-CARRIED ITEMS(4)-SPACE FUNCTION SYS-4 FLR-2 SCH-A HPLCMT-EAST ZN is zero.\n   **   ~~~   ** Check Sizing:Zone and ZoneControl:Thermostat inputs.\n   ************* Beginning System Sizing Calculations\n   ** Warning ** Since Zone Minimum Air Flow Input Method = CONSTANT, input for Fixed Minimum Air Flow Rate will be ignored.\n   **   ~~~   ** Occurs in AirTerminal:SingleDuct:VAV:Reheat = AIR TERMINAL SINGLE DUCT VAV REHEAT 9\n   ** Warning ** Since Damper Heating Action = NORMAL, input for Maximum Flow Fraction During Reheat will be ignored.\n   **   ~~~   ** Occurs in AirTerminal:SingleDuct:VAV:Reheat = AIR TERMINAL SINGLE DUCT VAV REHEAT 9\n   ** Warning ** Since Zone Minimum Air Flow Input Method = CONSTANT, input for Fixed Minimum Air Flow Rate will be ignored.\n   **   ~~~   ** Occurs in AirTerminal:SingleDuct:VAV:Reheat = AIR TERMINAL SINGLE DUCT VAV REHEAT 7\n   ** Warning ** Since Damper Heating Action = NORMAL, input for Maximum Flow Fraction During Reheat will be ignored.\n   **   ~~~   ** Occurs in AirTerminal:SingleDuct:VAV:Reheat = AIR TERMINAL SINGLE DUCT VAV REHEAT 7\n   ** Warning ** Since Zone Minimum Air Flow Input Method = CONSTANT, input for Fixed Minimum Air Flow Rate will be ignored.\n   **   ~~~   ** Occurs in AirTerminal:SingleDuct:VAV:Reheat = AIR TERMINAL SINGLE DUCT VAV REHEAT 4\n   ** Warning ** Since Damper Heating Action = NORMAL, input for Maximum Flow Fraction During Reheat will be ignored.\n   **   ~~~   ** Occurs in AirTerminal:SingleDuct:VAV:Reheat = AIR TERMINAL SINGLE DUCT VAV REHEAT 4\n   ** Warning ** Since Zone Minimum Air Flow Input Method = CONSTANT, input for Fixed Minimum Air Flow Rate will be ignored.\n   **   ~~~   ** Occurs in AirTerminal:SingleDuct:VAV:Reheat = AIR TERMINAL SINGLE DUCT VAV REHEAT 10\n   ** Warning ** Since Damper Heating Action = NORMAL, input for Maximum Flow Fraction During Reheat will be ignored.\n   **   ~~~   ** Occurs in AirTerminal:SingleDuct:VAV:Reheat = AIR TERMINAL SINGLE DUCT VAV REHEAT 10\n   ** Warning ** Since Zone Minimum Air Flow Input Method = CONSTANT, input for Fixed Minimum Air Flow Rate will be ignored.\n   **   ~~~   ** Occurs in AirTerminal:SingleDuct:VAV:Reheat = AIR TERMINAL SINGLE DUCT VAV REHEAT 1\n   ** Warning ** Since Damper Heating Action = NORMAL, input for Maximum Flow Fraction During Reheat will be ignored.\n   **   ~~~   ** Occurs in AirTerminal:SingleDuct:VAV:Reheat = AIR TERMINAL SINGLE DUCT VAV REHEAT 1\n   ** Warning ** Since Zone Minimum Air Flow Input Method = CONSTANT, input for Fixed Minimum Air Flow Rate will be ignored.\n   **   ~~~   ** Occurs in AirTerminal:SingleDuct:VAV:Reheat = AIR TERMINAL SINGLE DUCT VAV REHEAT 8\n   ** Warning ** Since Damper Heating Action = NORMAL, input for Maximum Flow Fraction During Reheat will be ignored.\n   **   ~~~   ** Occurs in AirTerminal:SingleDuct:VAV:Reheat = AIR TERMINAL SINGLE DUCT VAV REHEAT 8\n   ** Warning ** Since Zone Minimum Air Flow Input Method = CONSTANT, input for Fixed Minimum Air Flow Rate will be ignored.\n   **   ~~~   ** Occurs in AirTerminal:SingleDuct:VAV:Reheat = AIR TERMINAL SINGLE DUCT VAV REHEAT 2\n   ** Warning ** Since Damper Heating Action = NORMAL, input for Maximum Flow Fraction During Reheat will be ignored.\n   **   ~~~   ** Occurs in AirTerminal:SingleDuct:VAV:Reheat = AIR TERMINAL SINGLE DUCT VAV REHEAT 2\n   ** Warning ** Since Zone Minimum Air Flow Input Method = CONSTANT, input for Fixed Minimum Air Flow Rate will be ignored.\n   **   ~~~   ** Occurs in AirTerminal:SingleDuct:VAV:Reheat = AIR TERMINAL SINGLE DUCT VAV REHEAT 3\n   ** Warning ** Since Damper Heating Action = NORMAL, input for Maximum Flow Fraction During Reheat will be ignored.\n   **   ~~~   ** Occurs in AirTerminal:SingleDuct:VAV:Reheat = AIR TERMINAL SINGLE DUCT VAV REHEAT 3\n   ** Warning ** Since Zone Minimum Air Flow Input Method = CONSTANT, input for Fixed Minimum Air Flow Rate will be ignored.\n   **   ~~~   ** Occurs in AirTerminal:SingleDuct:VAV:Reheat = AIR TERMINAL SINGLE DUCT VAV REHEAT 5\n   ** Warning ** Since Damper Heating Action = NORMAL, input for Maximum Flow Fraction During Reheat will be ignored.\n   **   ~~~   ** Occurs in AirTerminal:SingleDuct:VAV:Reheat = AIR TERMINAL SINGLE DUCT VAV REHEAT 5\n   ** Warning ** Since Zone Minimum Air Flow Input Method = CONSTANT, input for Fixed Minimum Air Flow Rate will be ignored.\n   **   ~~~   ** Occurs in AirTerminal:SingleDuct:VAV:Reheat = AIR TERMINAL SINGLE DUCT VAV REHEAT 6\n   ** Warning ** Since Damper Heating Action = NORMAL, input for Maximum Flow Fraction During Reheat will be ignored.\n   **   ~~~   ** Occurs in AirTerminal:SingleDuct:VAV:Reheat = AIR TERMINAL SINGLE DUCT VAV REHEAT 6\n   ************* Beginning Plant Sizing Calculations\n   ** Warning ** GetDXCoils: Coil:Cooling:DX:SingleSpeed=\"COIL COOLING DX SINGLE SPEED 1 474KBTU/HR 8.21EER\", invalid\n   **   ~~~   ** ...Part Load Fraction Correlation Curve Name = DXCOOL-NECB2011-REF-COOLPLFFPLR has out of range value.\n   **   ~~~   ** ...Curve maximum must be <= 1.0, curve max at PLR = 0.99 is 1.015\n   **   ~~~   ** ...Setting curve maximum to 1.0 and simulation continues.\n   ** Warning ** The Standard Ratings is calculated for Coil:Cooling:DX:SingleSpeed = COIL COOLING DX SINGLE SPEED 1 474KBTU/HR 8.21EER but not at the AHRI test condition due to curve out of bound.\n   **   ~~~   **  Review the Standard Ratings calculations in the Engineering Reference for this coil type. Also, use Output:Diagnostics, DisplayExtraWarnings for further guidance.\n   ** Warning ** The Standard Ratings is calculated for Coil:Cooling:DX:SingleSpeed = COIL COOLING DX SINGLE SPEED 6 440KBTU/HR 8.21EER but not at the AHRI test condition due to curve out of bound.\n   **   ~~~   **  Review the Standard Ratings calculations in the Engineering Reference for this coil type. Also, use Output:Diagnostics, DisplayExtraWarnings for further guidance.\n   ** Warning ** The Standard Ratings is calculated for Coil:Cooling:DX:SingleSpeed = COIL COOLING DX SINGLE SPEED 5 374KBTU/HR 8.21EER but not at the AHRI test condition due to curve out of bound.\n   **   ~~~   **  Review the Standard Ratings calculations in the Engineering Reference for this coil type. Also, use Output:Diagnostics, DisplayExtraWarnings for further guidance.\n   ** Warning ** The Standard Ratings is calculated for Coil:Cooling:DX:SingleSpeed = COIL COOLIN
[...]
UN PERIOD 1, 07/03 07:50 - 07:53\n   **   ~~~   ** ... Possible reasons for low outlet air dry-bulb temperatures are: This DX coil\n   **   ~~~   **    1) may have a low inlet air dry-bulb temperature. Inlet air temperature = 12.100 C.\n   **   ~~~   **    2) may have a low air flow rate per watt of cooling capacity. Check inputs.\n   **   ~~~   **    3) is used as part of a HX assisted cooling coil which uses a high sensible effectiveness. Check inputs.\n   ** Warning ** CalcDoe2DXCoil: Coil:Cooling:DX:SingleSpeed \"COIL COOLING DX SINGLE SPEED 1 474KBTU/HR 8.21EER\" - Air-cooled condenser inlet dry-bulb temperature below 0 C. Outdoor dry-bulb temperature = -0.45\n   **   ~~~   **  ... Occurrence info = RUN PERIOD 1, 09/24 09:02 - 09:03\n   **   ~~~   ** ... Operation at low ambient temperatures may require special performance curves.\n   ** Warning ** GetSpecificHeatGlycol: Temperature is out of range (too low) for fluid [WATER] specific heat supplied values **\n   **   ~~~   ** ..Called From:PlantLoopSolver::EvaluateLoopSetPointLoad,Temperature=[-29.41], supplied data range=[0.00,125.00]\n   **   ~~~   **  Environment=RUN PERIOD 1, at Simulation time=11/18 15:58 - 16:00\n   ** Warning ** GetDensityGlycol: Temperature is out of range (too low) for fluid [WATER] density **\n   **   ~~~   ** ..Called From:PlantPumps:CalcPumps: ,Temperature=[-29.41], supplied data range=[0.00,100.00]\n   **   ~~~   **  Environment=RUN PERIOD 1, at Simulation time=11/18 15:58 - 16:00\n   ** Warning ** The resource referenced by LifeCycleCost:UsePriceEscalation= \"U.S. AVG  COMMERCIAL-ELECTRICITY\" has no energy cost. \n   **   ~~~   ** ... It is likely that the wrong resource is used. The resource should match the meter used in Utility:Tariff.\n   ** Warning ** The resource referenced by LifeCycleCost:UsePriceEscalation= \"U.S. AVG  COMMERCIAL-DISTILLATE OIL\" has no energy cost. \n   **   ~~~   ** ... It is likely that the wrong resource is used. The resource should match the meter used in Utility:Tariff.\n   ** Warning ** The resource referenced by LifeCycleCost:UsePriceEscalation= \"U.S. AVG  COMMERCIAL-RESIDUAL OIL\" has no energy cost. \n   **   ~~~   ** ... It is likely that the wrong resource is used. The resource should match the meter used in Utility:Tariff.\n   ** Warning ** The resource referenced by LifeCycleCost:UsePriceEscalation= \"U.S. AVG  COMMERCIAL-NATURAL GAS\" has no energy cost. \n   **   ~~~   ** ... It is likely that the wrong resource is used. The resource should match the meter used in Utility:Tariff.\n   ** Warning ** The resource referenced by LifeCycleCost:UsePriceEscalation= \"U.S. AVG  COMMERCIAL-COAL\" has no energy cost. \n   **   ~~~   ** ... It is likely that the wrong resource is used. The resource should match the meter used in Utility:Tariff.\n   ************* Simulation Error Summary *************\n   ************* There are 10 unused schedules in input.\n   ************* There are 14 unused week schedules in input.\n   ************* There are 54 unused day schedules in input.\n   ************* Use Output:Diagnostics,DisplayUnusedSchedules; to see them.\n   *************\n   ************* ===== Recurring Error Summary =====\n   ************* The following recurring error messages occurred.\n   *************\n   *************  ** Warning ** Plant loop falling below lower temperature limit, PlantLoop=\"MAIN SERVICE WATER LOOP\"\n   *************  **   ~~~   **   This error occurred 311 total times;\n   *************  **   ~~~   **   during Warmup 64 times;\n   *************  **   ~~~   **   during Sizing 0 times.\n   *************  **   ~~~   **   Min=0.\n   *************\n   *************  ** Warning ** HeatExchanger:AirToAir:SensibleAndLatent \"SYS_6_VAV WITH REHEAT 3 ERV\":  Average air volume flow rate is <50% or >130% warning continues. Air flow rate ratio statistics follow.\n   *************  **   ~~~   **   This error occurred 2873180 total times;\n   *************  **   ~~~   **   during Warmup 0 times;\n   *************  **   ~~~   **   during Sizing 0 times.\n   *************  **   ~~~   **   Max=2.814824  Min=1.312916\n   *************\n   *************  ** Warning ** HeatExchanger:AirToAir:SensibleAndLatent \"SYS_3_PSZ SP-SPACE DESIGNED TO ANSI/IES RP-28 RECREATION ROOM (USED PRIMARILY BY RESIDENTS)-SPACE FUNCTION SYS-3 FLR-4 SCH-B HPLCMT-CORE ZN ERV\":  Average air volume flow rate is <50% or >130% warning continues. Air flow rate ratio statistics follow.\n   *************  **   ~~~   **   This error occurred 4496 total times;\n   *************  **   ~~~   **   during Warmup 0 times;\n   *************  **   ~~~   **   during Sizing 0 times.\n   *************  **   ~~~   **   Max=0.455929  Min=9.635691E-005\n   *************\n   *************  ** Warning ** HeatExchanger:AirToAir:SensibleAndLatent \"SYS_2_MAKE-UP AIR UNIT ERV\":  Average air volume flow rate is <50% or >130% warning continues. Air flow rate ratio statistics follow.\n   *************  **   ~~~   **   This error occurred 696584 total times;\n   *************  **   ~~~   **   during Warmup 0 times;\n   *************  **   ~~~   **   during Sizing 0 times.\n   *************  **   ~~~   **   Max=1.713542  Min=1.3459\n   *************\n   *************  ** Warning ** HeatExchanger:AirToAir:SensibleAndLatent \"SYS_6_VAV WITH REHEAT 2 ERV\":  Average air volume flow rate is <50% or >130% warning continues. Air flow rate ratio statistics follow.\n   *************  **   ~~~   **   This error occurred 1005923 total times;\n   *************  **   ~~~   **   during Warmup 0 times;\n   *************  **   ~~~   **   during Sizing 0 times.\n   *************  **   ~~~   **   Max=1.571383  Min=1.300016\n   *************\n   *************  ** Warning ** HeatExchanger:AirToAir:SensibleAndLatent \"SYS_3_PSZ SP-MANUFACTURING FACILITY EQUIPMENT ROOM-SPACE FUNCTION SYS-3 FLR-4 SCH-A HPLCMT-SOUTH ZN ERV\":  Average air volume flow rate is <50% or >130% warning continues. Air flow rate ratio statistics follow.\n   *************  **   ~~~   **   This error occurred 203135 total times;\n   *************  **   ~~~   **   during Warmup 0 times;\n   *************  **   ~~~   **   during Sizing 0 times.\n   *************  **   ~~~   **   Max=3.360596  Min=3.871194E-004\n   *************\n   *************  ** Warning ** HeatExchanger:AirToAir:SensibleAndLatent \"SYS_3_PSZ SP-MANUFACTURING FACILITY EXTRA HIGH BAY AREA (> 15 M FLOOR-TO-CEILING HEIGHT)-SPACE FUNCTION SYS-3 FLR-4 SCH-A HPLCMT-NORTH ZN ERV\":  Average air volume flow rate is <50% or >130% warning continues. Air flow rate ratio statistics follow.\n   *************  **   ~~~   **   This error occurred 161684 total times;\n   *************  **   ~~~   **   during Warmup 0 times;\n   *************  **   ~~~   **   during Sizing 0 times.\n   *************  **   ~~~   **   Max=2.857358  Min=4.678124E-004\n   *************\n   *************  ** Warning ** HeatExchanger:AirToAir:SensibleAndLatent \"SYS_3_PSZ SP-MANUFACTURING FACILITY LOW BAY AREA (< 7.5 M FLOOR-TO-CEILING HEIGHT)-SPACE FUNCTION SYS-3 FLR-3 SCH-A HPLCMT-NORTH ZN ERV\":  Average air volume flow rate is <50% or >130% warning continues. Air flow rate ratio statistics follow.\n   *************  **   ~~~   **   This error occurred 206366 total times;\n   *************  **   ~~~   **   during Warmup 0 times;\n   *************  **   ~~~   **   during Sizing 0 times.\n   *************  **   ~~~   **   Max=1.711667  Min=3.641414E-004\n   *************\n   *************  ** Warning ** HeatExchanger:AirToAir:SensibleAndLatent \"SYS_3_PSZ SP-MANUFACTURING FACILITY HIGH BAY AREA (7.5 TO 15 M FLOOR-TO-CEILING HEIGHT)-SPACE FUNCTION SYS-3 FLR-3 SCH-A HPLCMT-SOUTH ZN ERV\":  Average air volume flow rate is <50% or >130% warning continues. Air flow rate ratio statistics follow.\n   *************  **   ~~~   **   This error occurred 280814 total times;\n   *************  **   ~~~   **   during Warmup 0 times;\n   *************  **   ~~~   **   during Sizing 0 times.\n   *************  **   ~~~   **   Max=2.143249  Min=3.663642E-004\n   *************\n   *************  ** Warning ** HeatExchanger:AirToAir:SensibleAndLatent \"SYS_6_VAV WITH REHEAT 1 ERV\":  Average air volume flow rate is <50% or >130% warning continues. Air flow rate ratio statistics follow.\n   *************  **   ~~~   **   This error occurred 50234 total times;\n   *************  **   ~~~   **   during Warmup 0 times;\n   *************  **   ~~~   **   during Sizing 0 times.\n   *************  **   ~~~   **   Max=1.375794  Min=1.300244\n   *************\n   *************  ** Warning ** CalcDoe2DXCoil: Coil:Cooling:DX:SingleSpeed=\"COIL COOLING DX SINGLE SPEED 4 280KBTU/HR 8.21EER\" - Low condenser dry-bulb temperature error continues...\n   *************  **   ~~~   **   This error occurred 35 total times;\n   *************  **   ~~~   **   during Warmup 0 times;\n   *************  **   ~~~   **   during Sizing 0 times.\n   *************  **   ~~~   **   Max=-1.666667E-002 [C]  Min=-9.033333 [C]\n   *************\n   *************  ** Warning ** HeatExchanger:AirToAir:SensibleAndLatent \"SYS_3_PSZ SP-RELIGIOUS BUILDING FELLOWSHIP HALL-SPACE FUNCTION SYS-3 FLR-1 SCH-C HPLCMT-NORTH ZN ERV\":  Average air volume flow rate is <50% or >130% warning continues. Air flow rate ratio statistics follow.\n   *************  **   ~~~   **   This error occurred 743 total times;\n   *************  **   ~~~   **   during Warmup 0 times;\n   *************  **   ~~~   **   during Sizing 0 times.\n   *************  **   ~~~   **   Max=0.325796  Min=1.464427E-004\n   *************\n   *************  ** Warning ** SimHVAC: Exceeding Maximum iterations for all HVAC loops, during RUN PERIOD 1 continues\n   *************  **   ~~~   **   This error occurred 603 total times;\n   *************  **   ~~~   **   during Warmup 0 times;\n   *************  **   ~~~   **   during Sizing 0 times.\n   *************\n   *************  ** Warning ** CalcDoe2DXCoil: Coil:Cooling:DX:SingleSpeed=\"COIL COOLING DX SINGLE SPEED 4 280KBTU/HR 8.21EER\" - Full load outlet temperature indicates a possibility of frost/freeze error continues. Outlet air temperature statistics follow:\n   *************  **   ~~~   **   This error occurred 184 total times;\n   *************  **   ~~~   **   during Warmup 0 times;\n   *************  **   ~~~   **   during Sizing 0 times.\n   *************  **   ~~~   **   Max=1.985108  Min=-2.402002\n   *************\n   *************  ** Warning ** CalcDoe2DXCoil: Coil:Cooling:DX:SingleSpeed=\"COIL COOLING DX SINGLE SPEED 3 224KBTU/HR 9.08EER\" - Full load outlet temperature indicates a possibility of frost/freeze error continues. Outlet air temperature statistics follow:\n   *************  **   ~~~   **   This error occurred 33 total times;\n   *************  **   ~~~   **   during Warmup 0 times;\n   *************  **   ~~~   **   during Sizing 0 times.\n   *************  **   ~~~   **   Max=1.838412  Min=-1.919479\n   *************\n   *************  ** Warning ** CalcDoe2DXCoil: Coil:Cooling:DX:SingleSpeed=\"COIL COOLING DX SINGLE SPEED 6 440KBTU/HR 8.21EER\" - Low condenser dry-bulb temperature error continues...\n   *************  **   ~~~   **   This error occurred 10 total times;\n   *************  **   ~~~   **   during Warmup 0 times;\n   *************  **   ~~~   **   during Sizing 0 times.\n   *************  **   ~~~   **   Max=-0.216667 [C]  Min=-8.2 [C]\n   *************\n   *************  ** Severe  ** FindRootSimpleController: Previous controller action error continues for controller = CONTROLLER WATER COIL 5\n   *************  **   ~~~   **   This error occurred 13 total times;\n   *************  **   ~~~   **   during Warmup 0 times;\n   *************  **   ~~~   **   during Sizing 0 times.\n   *************\n   *************  ** Warning ** CalcDoe2DXCoil: Coil:Cooling:DX:SingleSpeed=\"COIL COOLING DX SINGLE SPEED 5 374KBTU/HR 8.21EER\" - Full load outlet temperature indicates a possibility of frost/freeze error continues. Outlet air temperature statistics follow:\n   *************  **   ~~~   **   This error occurred 44 total times;\n   *************  **   ~~~   **   during Warmup 0 times;\n   *************  **   ~~~   **   during Sizing 0 times.\n   *************  **   ~~~   **   Max=1.991037  Min=1.057643\n   *************\n   *************  ** Warning ** CalcDoe2DXCoil: Coil:Cooling:DX:SingleSpeed=\"COIL COOLING DX SINGLE SPEED 3 224KBTU/HR 9.08EER\" - Low condenser dry-bulb temperature error continues...\n   *************  **   ~~~   **   This error occurred 2 total times;\n   *************  **   ~~~   **   during Warmup 0 times;\n   *************  **   ~~~   **   during Sizing 0 times.\n   *************  **   ~~~   **   Max=-2.366667 [C]  Min=-3.366667 [C]\n   *************\n   *************  ** Warning ** CalcDoe2DXCoil: Coil:Cooling:DX:SingleSpeed=\"COIL COOLING DX SINGLE SPEED 5 374KBTU/HR 8.21EER\" - Low condenser dry-bulb temperature error continues...\n   *************  **   ~~~   **   This error occurred 3 total times;\n   *************  **   ~~~   **   during Warmup 0 times;\n   *************  **   ~~~   **   during Sizing 0 times.\n   *************  **   ~~~   **   Max=-0.533333 [C]  Min=-0.966667 [C]\n   *************\n   *************  ** Severe  ** FindRootSimpleController: Previous controller action error continues for controller = CONTROLLER WATER COIL 10\n   *************  **   ~~~   **   This error occurred 3 total times;\n   *************  **   ~~~   **   during Warmup 0 times;\n   *************  **   ~~~   **   during Sizing 0 times.\n   *************\n   *************  ** Warning ** CalcDoe2DXCoil: Coil:Cooling:DX:SingleSpeed=\"COIL COOLING DX SINGLE SPEED 7 574KBTU/HR 8.21EER\" - Full load outlet temperature indicates a possibility of frost/freeze error continues. Outlet air temperature statistics follow:\n   *************  **   ~~~   **   This error occurred 488 total times;\n   *************  **   ~~~   **   during Warmup 0 times;\n   *************  **   ~~~   **   during Sizing 0 times.\n   *************  **   ~~~   **   Max=1.986492  Min=-2.908599\n   *************\n   *************  ** Warning ** CalcDoe2DXCoil: Coil:Cooling:DX:SingleSpeed=\"COIL COOLING DX SINGLE SPEED 8 210KBTU/HR 9.08EER\" - Full load outlet temperature indicates a possibility of frost/freeze error continues. Outlet air temperature statistics follow:\n   *************  **   ~~~   **   This error occurred 12 total times;\n   *************  **   ~~~   **   during Warmup 0 times;\n   *************  **   ~~~   **   during Sizing 0 times.\n   *************  **   ~~~   **   Max=1.935811  Min=-0.304948\n   *************\n   *************  ** Warning ** CalcDoe2DXCoil: Coil:Cooling:DX:SingleSpeed=\"COIL COOLING DX SINGLE SPEED 6 440KBTU/HR 8.21EER\" - Full load outlet temperature indicates a possibility of frost/freeze error continues. Outlet air temperature statistics follow:\n   *************  **   ~~~   **   This error occurred 24 total times;\n   *************  **   ~~~   **   during Warmup 0 times;\n   *************  **   ~~~   **   during Sizing 0 times.\n   *************  **   ~~~   **   Max=1.998843  Min=-1.363948\n   *************\n   *************  ** Warning ** CalcDoe2DXCoil: Coil:Cooling:DX:SingleSpeed=\"COIL COOLING DX SINGLE SPEED 2 365KBTU/HR 8.21EER\" - Full load outlet temperature indicates a possibility of frost/freeze error continues. Outlet air temperature statistics follow:\n   *************  **   ~~~   **   This error occurred 4 total times;\n   *************  **   ~~~   **   during Warmup 0 times;\n   *************  **   ~~~   **   during Sizing 0 times.\n   *************  **   ~~~   **   Max=1.783073  Min=-0.313646\n   *************\n   *************  ** Warning ** CalcDoe2DXCoil: Coil:Cooling:DX:SingleSpeed=\"COIL COOLING DX SINGLE SPEED 9 177KBTU/HR 9.08EER\" - Full load outlet temperature indicates a possibility of frost/freeze error continues. Outlet air temperature statistics follow:\n   *************  **   ~~~   **   This error occurred 6 total times;\n   *************  **   ~~~   **   during Warmup 0 times;\n   *************  **   ~~~   **   during Sizing 0 times.\n   *************  **   ~~~   **   Max=1.935811  Min=1.522712\n   *************\n   *************  ** Warning ** CalcDoe2DXCoil: Coil:Cooling:DX:SingleSpeed=\"COIL COOLING DX SINGLE SPEED 1 474KBTU/HR 8.21EER\" - Full load outlet temperature indicates a possibility of frost/freeze error continues. Outlet air temperature statistics follow:\n   *************  **   ~~~   **   This error occurred 291 total times;\n   *************  **   ~~~   **   during Warmup 0 times;\n   *************  **   ~~~   **   during Sizing 0 times.\n   *************  **   ~~~   **   Max=1.996984  Min=-2.048081\n   *************\n   *************  ** Warning ** CalcDoe2DXCoil: Coil:Cooling:DX:SingleSpeed=\"COIL COOLING DX SINGLE SPEED 1 474KBTU/HR 8.21EER\" - Low condenser dry-bulb temperature error continues...\n   *************  **   ~~~   **   This error occurred 11 total times;\n   *************  **   ~~~   **   during Warmup 0 times;\n   *************  **   ~~~   **   during Sizing 0 times.\n   *************  **   ~~~   **   Max=-0.45 [C]  Min=-6.1 [C]\n   *************\n   *************  ** Warning ** GetSpecificHeatGlycol: Temperature out of range (too low) for fluid [WATER] specific heat **\n   *************  **   ~~~   **   This error occurred 4 total times;\n   *************  **   ~~~   **   during Warmup 0 times;\n   *************  **   ~~~   **   during Sizing 0 times.\n   *************  **   ~~~   **   Max=-29.414167 {C}  Min=-29.414167 {C}\n   *************\n   *************  ** Warning ** GetDensityGlycol: Temperature out of range (too low) for fluid [WATER] density **\n   *************  **   ~~~   **   This error occurred 1 total times;\n   *************  **   ~~~   **   during Warmup 0 times;\n   *************  **   ~~~   **   during Sizing 0 times.\n   *************  **   ~~~   **   Max=-29.414167 {C}  Min=-29.414167 {C}\n   *************\n   *************\n   ************* ===== Final Error Summary =====\n   ************* The following error categories occurred.  Consider correcting or noting.\n   ************* Loads Initialization did not Converge\n   ************* ..1) very high thermal mass such as very thick concrete (solution: increase max number of warmup\n   ************* ..   days in the BUILDING object);\n   ************* ..2) moderate mass and inadequate space conditioning such that the building keeps getting warmer\n   ************* ..   and warmer on successive days (solution: add HVAC, check building thermal properties,\n   ************* ..   check if infiltration is included, make sure HVAC properly controlled);\n   ************* ..3) a soil layer modeled below the concrete slab - (solution remove this layer and read about\n   ************* ..   ground temperatures in the Auxiliary Programs document).\n   ************* ..4) unreasonable (too small) limits in the BUILDING object for temperature (.4 default) or\n   ************* ..   loads tolerances (.04 default)\n   ************* Nominally Unused Constructions\n   ************* ..The nominally unused constructions warning is provided to alert you to potential conditions that can cause\n   ************* ..extra time during simulation. Each construction is calculated by the algorithm indicated in the HeatBalanceAlgorithm\n   ************* ..object. You may remove the constructions indicated (when you use the DisplayExtraWarnings option).\n   *************\n   ************* EnergyPlus Warmup Error Summary. During Warmup: 0 Warning; 11 Severe Errors.\n   ************* EnergyPlus Sizing Error Summary. During Sizing: 248 Warning; 0 Severe Errors.\n   ************* EnergyPlus Completed Successfully-- 5485533 Warning; 29 Severe Errors; Elapsed Time=00hr 17min 41.79sec\n",
   "hash" : "BE8AD3C3",
   "seed_file" : "in.osm",
   "started_at" : "20190326T202205Z",
   "steps" : [],
   "updated_at" : "20190326T203953Z",
   "weather_file" : "in.epw"
}
