! Program Version,EnergyPlus, Version 8.9.0-eba93e8e1b, YMD=2019.03.28 13:53,
! Output:Meter Objects (applicable to this run)
Output:Meter,Electricity:Facility,hourly; !- [J]
Output:Meter:Cumulative,Electricity:Facility,hourly; !- [J]
Output:Meter,Electricity:Building,hourly; !- [J]
Output:Meter:Cumulative,Electricity:Building,hourly; !- [J]
Output:Meter,Electricity:Zone:CONVENTION CENTRE EXHIBIT SPACE-SPACE FUNCTION ZN,hourly; !- [J]
Output:Meter:Cumulative,Electricity:Zone:CONVENTION CENTRE EXHIBIT SPACE-SPACE FUNCTION ZN,hourly; !- [J]
Output:Meter,InteriorLights:Electricity,hourly; !- [J]
Output:Meter:Cumulative,InteriorLights:Electricity,hourly; !- [J]
Output:Meter,InteriorLights:Electricity:Zone:CONVENTION CENTRE EXHIBIT SPACE-SPACE FUNCTION ZN,hourly; !- [J]
Output:Meter:Cumulative,InteriorLights:Electricity:Zone:CONVENTION CENTRE EXHIBIT SPACE-SPACE FUNCTION ZN,hourly; !- [J]
Output:Meter,General:InteriorLights:Electricity,hourly; !- [J]
Output:Meter:Cumulative,General:InteriorLights:Electricity,hourly; !- [J]
Output:Meter,Electricity:Zone:DORMITORY LIVING QUARTERS-SPACE FUNCTION ZN,hourly; !- [J]
Output:Meter:Cumulative,Electricity:Zone:DORMITORY LIVING QUARTERS-SPACE FUNCTION ZN,hourly; !- [J]
Output:Meter,InteriorLights:Electricity:Zone:DORMITORY LIVING QUARTERS-SPACE FUNCTION ZN,hourly; !- [J]
Output:Meter:Cumulative,InteriorLights:Electricity:Zone:DORMITORY LIVING QUARTERS-SPACE FUNCTION ZN,hourly; !- [J]
Output:Meter,Electricity:Zone:DWELLING UNITS GENERAL-SPACE FUNCTION ZN,hourly; !- [J]
Output:Meter:Cumulative,Electricity:Zone:DWELLING UNITS GENERAL-SPACE FUNCTION ZN,hourly; !- [J]
Output:Meter,InteriorLights:Electricity:Zone:DWELLING UNITS GENERAL-SPACE FUNCTION ZN,hourly; !- [J]
Output:Meter:Cumulative,InteriorLights:Electricity:Zone:DWELLING UNITS GENERAL-SPACE FUNCTION ZN,hourly; !- [J]
Output:Meter,Electricity:Zone:DWELLING UNITS LONG-TERM-SPACE FUNCTION ZN,hourly; !- [J]
Output:Meter:Cumulative,Electricity:Zone:DWELLING UNITS LONG-TERM-SPACE FUNCTION ZN,hourly; !- [J]
Output:Meter,InteriorLights:Electricity:Zone:DWELLING UNITS LONG-TERM-SPACE FUNCTION ZN,hourly; !- [J]
Output:Meter:Cumulative,InteriorLights:Electricity:Zone:DWELLING UNITS LONG-TERM-SPACE FUNCTION ZN,hourly; !- [J]
Output:Meter,Electricity:Zone:STORAGE ROOM <= 5 M2 <= 100 M2-SCH-I-SPACE FUNCTION ZN,hourly; !- [J]
Output:Meter:Cumulative,Electricity:Zone:STORAGE ROOM <= 5 M2 <= 100 M2-SCH-I-SPACE FUNCTION ZN,hourly; !- [J]
Output:Meter,InteriorLights:Electricity:Zone:STORAGE ROOM <= 5 M2 <= 100 M2-SCH-I-SPACE FUNCTION ZN,hourly; !- [J]
Output:Meter:Cumulative,InteriorLights:Electricity:Zone:STORAGE ROOM <= 5 M2 <= 100 M2-SCH-I-SPACE FUNCTION ZN,hourly; !- [J]
Output:Meter,Electricity:Zone:STORAGE ROOM <= 5 M2 <= 100 M2-SCH-J-SPACE FUNCTION ZN,hourly; !- [J]
Output:Meter:Cumulative,Electricity:Zone:STORAGE ROOM <= 5 M2 <= 100 M2-SCH-J-SPACE FUNCTION ZN,hourly; !- [J]
Output:Meter,InteriorLights:Electricity:Zone:STORAGE ROOM <= 5 M2 <= 100 M2-SCH-J-SPACE FUNCTION ZN,hourly; !- [J]
Output:Meter:Cumulative,InteriorLights:Electricity:Zone:STORAGE ROOM <= 5 M2 <= 100 M2-SCH-J-SPACE FUNCTION ZN,hourly; !- [J]
Output:Meter,Electricity:Zone:STORAGE ROOM <= 5 M2 <= 100 M2-SCH-K-SPACE FUNCTION ZN,hourly; !- [J]
Output:Meter:Cumulative,Electricity:Zone:STORAGE ROOM <= 5 M2 <= 100 M2-SCH-K-SPACE FUNCTION ZN,hourly; !- [J]
Output:Meter,InteriorLights:Electricity:Zone:STORAGE ROOM <= 5 M2 <= 100 M2-SCH-K-SPACE FUNCTION ZN,hourly; !- [J]
Output:Meter:Cumulative,InteriorLights:Electricity:Zone:STORAGE ROOM <= 5 M2 <= 100 M2-SCH-K-SPACE FUNCTION ZN,hourly; !- [J]
Output:Meter,Electricity:Zone:STORAGE ROOM > 100 M2-SCH-A-SPACE FUNCTION ZN,hourly; !- [J]
Output:Meter:Cumulative,Electricity:Zone:STORAGE ROOM > 100 M2-SCH-A-SPACE FUNCTION ZN,hourly; !- [J]
Output:Meter,InteriorLights:Electricity:Zone:STORAGE ROOM > 100 M2-SCH-A-SPACE FUNCTION ZN,hourly; !- [J]
Output:Meter:Cumulative,InteriorLights:Electricity:Zone:STORAGE ROOM > 100 M2-SCH-A-SPACE FUNCTION ZN,hourly; !- [J]
Output:Meter,Electricity:Zone:STORAGE ROOM > 100 M2-SCH-B-SPACE FUNCTION ZN,hourly; !- [J]
Output:Meter:Cumulative,Electricity:Zone:STORAGE ROOM > 100 M2-SCH-B-SPACE FUNCTION ZN,hourly; !- [J]
Output:Meter,InteriorLights:Electricity:Zone:STORAGE ROOM > 100 M2-SCH-B-SPACE FUNCTION ZN,hourly; !- [J]
Output:Meter:Cumulative,InteriorLights:Electricity:Zone:STORAGE ROOM > 100 M2-SCH-B-SPACE FUNCTION ZN,hourly; !- [J]
Output:Meter,Electricity:Zone:STORAGE ROOM > 100 M2-SCH-C-SPACE FUNCTION ZN,hourly; !- [J]
Output:Meter:Cumulative,Electricity:Zone:STORAGE ROOM > 100 M2-SCH-C-SPACE FUNCTION ZN,hourly; !- [J]
Output:Meter,InteriorLights:Electricity:Zone:STORAGE ROOM > 100 M2-SCH-C-SPACE FUNCTION ZN,hourly; !- [J]
Output:Meter:Cumulative,InteriorLights:Electricity:Zone:STORAGE ROOM > 100 M2-SCH-C-SPACE FUNCTION ZN,hourly; !- [J]
Output:Meter,Electricity:Zone:STORAGE ROOM > 100 M2-SCH-D-SPACE FUNCTION ZN,hourly; !- [J]
Output:Meter:Cumulative,Electricity:Zone:STORAGE ROOM > 100 M2-SCH-D-SPACE FUNCTION ZN,hourly; !- [J]
Output:Meter,InteriorLights:Electricity:Zone:STORAGE ROOM > 100 M2-SCH-D-SPACE FUNCTION ZN,hourly; !- [J]
Output:Meter:Cumulative,InteriorLights:Electricity:Zone:STORAGE ROOM > 100 M2-SCH-D-SPACE FUNCTION ZN,hourly; !- [J]
Output:Meter,Electricity:Zone:STORAGE ROOM > 100 M2-SCH-E-SPACE FUNCTION ZN,hourly; !- [J]
Output:Meter:Cumulative,Electricity:Zone:STORAGE ROOM > 100 M2-SCH-E-SPACE FUNCTION ZN,hourly; !- [J]
Output:Meter,InteriorLights:Electricity:Zone:STORAGE ROOM > 100 M2-SCH-E-SPACE FUNCTION ZN,hourly; !- [J]
Output:Meter:Cumulative,InteriorLights:Electricity:Zone:STORAGE ROOM > 100 M2-SCH-E-SPACE FUNCTION ZN,hourly; !- [J]
Output:Meter,Electricity:Zone:STORAGE ROOM > 100 M2-SCH-F-SPACE FUNCTION ZN,hourly; !- [J]
Output:Meter:Cumulative,Electricity:Zone:STORAGE ROOM > 100 M2-SCH-F-SPACE FUNCTION ZN,hourly; !- [J]
Output:Meter,InteriorLights:Electricity:Zone:STORAGE ROOM > 100 M2-SCH-F-SPACE FUNCTION ZN,hourly; !- [J]
Output:Meter:Cumulative,InteriorLights:Electricity:Zone:STORAGE ROOM > 100 M2-SCH-F-SPACE FUNCTION ZN,hourly; !- [J]
Output:Meter,Electricity:Zone:STORAGE ROOM > 100 M2-SCH-G-SPACE FUNCTION ZN,hourly; !- [J]
Output:Meter:Cumulative,Electricity:Zone:STORAGE ROOM > 100 M2-SCH-G-SPACE FUNCTION ZN,hourly; !- [J]
Output:Meter,InteriorLights:Electricity:Zone:STORAGE ROOM > 100 M2-SCH-G-SPACE FUNCTION ZN,hourly; !- [J]
Output:Meter:Cumulative,InteriorLights:Electricity:Zone:STORAGE ROOM > 100 M2-SCH-G-SPACE FUNCTION ZN,hourly; !- [J]
Output:Meter,Electricity:Zone:STORAGE ROOM > 100 M2-SCH-H-SPACE FUNCTION ZN,hourly; !- [J]
Output:Meter:Cumulative,Electricity:Zone:STORAGE ROOM > 100 M2-SCH-H-SPACE FUNCTION ZN,hourly; !- [J]
Output:Meter,InteriorLights:Electricity:Zone:STORAGE ROOM > 100 M2-SCH-H-SPACE FUNCTION ZN,hourly; !- [J]
Output:Meter:Cumulative,InteriorLights:Electricity:Zone:STORAGE ROOM > 100 M2-SCH-H-SPACE FUNCTION ZN,hourly; !- [J]
Output:Meter,Electricity:Zone:STORAGE ROOM > 100 M2-SCH-I-SPACE FUNCTION ZN,hourly; !- [J]
Output:Meter:Cumulative,Electricity:Zone:STORAGE ROOM > 100 M2-SCH-I-SPACE FUNCTION ZN,hourly; !- [J]
Output:Meter,InteriorLights:Electricity:Zone:STORAGE ROOM > 100 M2-SCH-I-SPACE FUNCTION ZN,hourly; !- [J]
Output:Meter:Cumulative,InteriorLights:Electricity:Zone:STORAGE ROOM > 100 M2-SCH-I-SPACE FUNCTION ZN,hourly; !- [J]
Output:Meter,Electricity:Zone:STORAGE ROOM > 100 M2-SCH-J-SPACE FUNCTION ZN,hourly; !- [J]
Output:Meter:Cumulative,Electricity:Zone:STORAGE ROOM > 100 M2-SCH-J-SPACE FUNCTION ZN,hourly; !- [J]
Output:Meter,InteriorLights:Electricity:Zone:STORAGE ROOM > 100 M2-SCH-J-SPACE FUNCTION ZN,hourly; !- [J]
Output:Meter:Cumulative,InteriorLights:Electricity:Zone:STORAGE ROOM > 100 M2-SCH-J-SPACE FUNCTION ZN,hourly; !- [J]
Output:Meter,Electricity:Zone:STORAGE ROOM > 100 M2-SCH-K-SPACE FUNCTION ZN,hourly; !- [J]
Output:Meter:Cumulative,Electricity:Zone:STORAGE ROOM > 100 M2-SCH-K-SPACE FUNCTION ZN,hourly; !- [J]
Output:Meter,InteriorLights:Electricity:Zone:STORAGE ROOM > 100 M2-SCH-K-SPACE FUNCTION ZN,hourly; !- [J]
Output:Meter:Cumulative,InteriorLights:Electricity:Zone:STORAGE ROOM > 100 M2-SCH-K-SPACE FUNCTION ZN,hourly; !- [J]
Output:Meter,Electricity:Zone:VEHICLE MAINTENANCE AREA-SPACE FUNCTION ZN,hourly; !- [J]
Output:Meter:Cumulative,Electricity:Zone:VEHICLE MAINTENANCE AREA-SPACE FUNCTION ZN,hourly; !- [J]
Output:Meter,InteriorLights:Electricity:Zone:VEHICLE MAINTENANCE AREA-SPACE FUNCTION ZN,hourly; !- [J]
Output:Meter:Cumulative,InteriorLights:Electricity:Zone:VEHICLE MAINTENANCE AREA-SPACE FUNCTION ZN,hourly; !- [J]
Output:Meter,Electricity:Zone:WORKSHOP-SPACE FUNCTION ZN,hourly; !- [J]
Output:Meter:Cumulative,Electricity:Zone:WORKSHOP-SPACE FUNCTION ZN,hourly; !- [J]
Output:Meter,InteriorLights:Electricity:Zone:WORKSHOP-SPACE FUNCTION ZN,hourly; !- [J]
Output:Meter:Cumulative,InteriorLights:Electricity:Zone:WORKSHOP-SPACE FUNCTION ZN,hourly; !- [J]
Output:Meter,InteriorEquipment:Electricity,hourly; !- [J]
Output:Meter:Cumulative,InteriorEquipment:Electricity,hourly; !- [J]
Output:Meter,InteriorEquipment:Electricity:Zone:CONVENTION CENTRE EXHIBIT SPACE-SPACE FUNCTION ZN,hourly; !- [J]
Output:Meter:Cumulative,InteriorEquipment:Electricity:Zone:CONVENTION CENTRE EXHIBIT SPACE-SPACE FUNCTION ZN,hourly; !- [J]
Output:Meter,General:InteriorEquipment:Electricity,hourly; !- [J]
Output:Meter:Cumulative,General:InteriorEquipment:Electricity,hourly; !- [J]
Output:Meter,InteriorEquipment:Electricity:Zone:DORMITORY LIVING QUARTERS-SPACE FUNCTION ZN,hourly; !- [J]
Output:Meter:Cumulative,InteriorEquipment:Electricity:Zone:DORMITORY LIVING QUARTERS-SPACE FUNCTION ZN,hourly; !- [J]
Output:Meter,InteriorEquipment:Electricity:Zone:DWELLING UNITS GENERAL-SPACE FUNCTION ZN,hourly; !- [J]
Output:Meter:Cumulative,InteriorEquipment:Electricity:Zone:DWELLING UNITS GENERAL-SPACE FUNCTION ZN,hourly; !- [J]
Output:Meter,InteriorEquipment:Electricity:Zone:DWELLING UNITS LONG-TERM-SPACE FUNCTION ZN,hourly; !- [J]
Output:Meter:Cumulative,InteriorEquipment:Electricity:Zone:DWELLING UNITS LONG-TERM-SPACE FUNCTION ZN,hourly; !- [J]
Output:Meter,InteriorEquipment:Electricity:Zone:VEHICLE MAINTENANCE AREA-SPACE FUNCTION ZN,hourly; !- [J]
Output:Meter:Cumulative,InteriorEquipment:Electricity:Zone:VEHICLE MAINTENANCE AREA-SPACE FUNCTION ZN,hourly; !- [J]
Output:Meter,InteriorEquipment:Electricity:Zone:WORKSHOP-SPACE FUNCTION ZN,hourly; !- [J]
Output:Meter:Cumulative,InteriorEquipment:Electricity:Zone:WORKSHOP-SPACE FUNCTION ZN,hourly; !- [J]
Output:Meter,EnergyTransfer:Facility,hourly; !- [J]
Output:Meter:Cumulative,EnergyTransfer:Facility,hourly; !- [J]
Output:Meter,EnergyTransfer:Building,hourly; !- [J]
Output:Meter:Cumulative,EnergyTransfer:Building,hourly; !- [J]
Output:Meter,EnergyTransfer:Zone:CONVENTION CENTRE EXHIBIT SPACE-SPACE FUNCTION ZN,hourly; !- [J]
Output:Meter:Cumulative,EnergyTransfer:Zone:CONVENTION CENTRE EXHIBIT SPACE-SPACE FUNCTION ZN,hourly; !- [J]
Output:Meter,Heating:EnergyTransfer,hourly; !- [J]
Output:Meter:Cumulative,Heating:EnergyTransfer,hourly; !- [J]
Output:Meter,Heating:EnergyTransfer:Zone:CONVENTION CENTRE EXHIBIT SPACE-SPACE FUNCTION ZN,hourly; !- [J]
Output:Meter:Cumulative,Heating:EnergyTransfer:Zone:CONVENTION CENTRE EXHIBIT SPACE-SPACE FUNCTION ZN,hourly; !- [J]
Output:Meter,Cooling:EnergyTransfer,hourly; !- [J]
Output:Meter:Cumulative,Cooling:EnergyTransfer,hourly; !- [J]
Output:Meter,Cooling:EnergyTransfer:Zone:CONVENTION CENTRE EXHIBIT SPACE-SPACE FUNCTION ZN,hourly; !- [J]
Output:Meter:Cumulative,Cooling:EnergyTransfer:Zone:CONVENTION CENTRE EXHIBIT SPACE-SPACE FUNCTION ZN,hourly; !- [J]
Output:Meter,EnergyTransfer:Zone:DORMITORY LIVING QUARTERS-SPACE FUNCTION ZN,hourly; !- [J]
Output:Meter:Cumulative,EnergyTransfer:Zone:DORMITORY LIVING QUARTERS-SPACE FUNCTION ZN,hourly; !- [J]
Output:Meter,Heating:EnergyTransfer:Zone:DORMITORY LIVING QUARTERS-SPACE FUNCTION ZN,hourly; !- [J]
Output:Meter:Cumulative,Heating:EnergyTransfer:Zone:DORMITORY LIVING QUARTERS-SPACE FUNCTION ZN,hourly; !- [J]
Output:Meter,Cooling:EnergyTransfer:Zone:DORMITORY LIVING QUARTERS-SPACE FUNCTION ZN,hourly; !- [J]
Output:Meter:Cumulative,Cooling:EnergyTransfer:Zone:DORMITORY LIVING QUARTERS-SPACE FUNCTION ZN,hourly; !- [J]
Output:Meter,EnergyTransfer:Zone:DWELLING UNITS GENERAL-SPACE FUNCTION ZN,hourly; !- [J]
Output:Meter:Cumulative,EnergyTransfer:Zone:DWELLING UNITS GENERAL-SPACE FUNCTION ZN,hourly; !- [J]
Output:Meter,Heating:EnergyTransfer:Zone:DWELLING UNITS GENERAL-SPACE FUNCTION ZN,hourly; !- [J]
Output:Meter:Cumulative,Heating:EnergyTransfer:Zone:DWELLING UNITS GENERAL-SPACE FUNCTION ZN,hourly; !- [J]
Output:Meter,Cooling:EnergyTransfer:Zone:DWELLING UNITS GENERAL-SPACE FUNCTION ZN,hourly; !- [J]
Output:Meter:Cumulative,Cooling:EnergyTransfer:Zone:DWELLING UNITS GENERAL-SPACE FUNCTION ZN,hourly; !- [J]
Output:Meter,EnergyTransfer:Zone:DWELLING UNITS LONG-TERM-SPACE FUNCTION ZN,hourly; !- [J]
Output:Meter:Cumulative,EnergyTransfer:Zone:DWELLING UNITS LONG-TERM-SPACE FUNCTION ZN,hourly; !- [J]
Output:Meter,Heating:EnergyTransfer:Zone:DWELLING UNITS LONG-TERM-SPACE FUNCTION ZN,hourly; !- [J]
Output:Meter:Cumulative,Heating:EnergyTransfer:Zone:DWELLING UNITS LONG-TERM-SPACE FUNCTION ZN,hourly; !- [J]
Output:Meter,Cooling:EnergyTransfer:Zone:DWELLING UNITS LONG-TERM-SPACE FUNCTION ZN,hourly; !- [J]
Output:Meter:Cumulative,Cooling:EnergyTransfer:Zone:DWELLING UNITS LONG-TERM-SPACE FUNCTION ZN,hourly; !- [J]
Output:Meter,EnergyTransfer:Zone:STORAGE ROOM <= 5 M2 <= 100 M2-SCH-I-SPACE FUNCTION ZN,hourly; !- [J]
Output:Meter:Cumulative,EnergyTransfer:Zone:STORAGE ROOM <= 5 M2 <= 100 M2-SCH-I-SPACE FUNCTION ZN,hourly; !- [J]
Output:Meter,Heating:EnergyTransfer:Zone:STORAGE ROOM <= 5 M2 <= 100 M2-SCH-I-SPACE FUNCTION ZN,hourly; !- [J]
Output:Meter:Cumulative,Heating:EnergyTransfer:Zone:STORAGE ROOM <= 5 M2 <= 100 M2-SCH-I-SPACE FUNCTION ZN,hourly; !- [J]
Output:Meter,Cooling:EnergyTransfer:Zone:STORAGE ROOM <= 5 M2 <= 100 M2-SCH-I-SPACE FUNCTION ZN,hourly; !- [J]
Output:Meter:Cumulative,Cooling:EnergyTransfer:Zone:STORAGE ROOM <= 5 M2 <= 100 M2-SCH-I-SPACE FUNCTION ZN,hourly; !- [J]
Output:Meter,EnergyTransfer:Zone:STORAGE ROOM <= 5 M2 <= 100 M2-SCH-J-SPACE FUNCTION ZN,hourly; !- [J]
Output:Meter:Cumulative,EnergyTransfer:Zone:STORAGE ROOM <= 5 M2 <= 100 M2-SCH-J-SPACE FUNCTION ZN,hourly; !- [J]
Output:Meter,Heating:EnergyTransfer:Zone:STORAGE ROOM <= 5 M2 <= 100 M2-SCH-J-SPACE FUNCTION ZN,hourly; !- [J]
Output:Meter:Cumulative,Heating:EnergyTransfer:Zone:STORAGE ROOM <= 5 M2 <= 100 M2-SCH-J-SPACE FUNCTION ZN,hourly; !- [J]
Output:Meter,Cooling:EnergyTransfer:Zone:STORAGE ROOM <= 5 M2 <= 100 M2-SCH-J-SPACE FUNCTION ZN,hourly; !- [J]
Output:Meter:Cumulative,Cooling:EnergyTransfer:Zone:STORAGE ROOM <= 5 M2 <= 100 M2-SCH-J-SPACE FUNCTION ZN,hourly; !- [J]
Output:Meter,EnergyTransfer:Zone:STORAGE ROOM <= 5 M2 <= 100 M2-SCH-K-SPACE FUNCTION ZN,hourly; !- [J]
Output:Meter:Cumulative,EnergyTransfer:Zone:STORAGE ROOM <= 5 M2 <= 100 M2-SCH-K-SPACE FUNCTION ZN,hourly; !- [J]
Output:Meter,Heating:EnergyTransfer:Zone:STORAGE ROOM <= 5 M2 <= 100 M2-SCH-K-SPACE FUNCTION ZN,hourly; !- [J]
Output:Meter:Cumulative,Heating:EnergyTransfer:Zone:STORAGE ROOM <= 5 M2 <= 100 M2-SCH-K-SPACE FUNCTION ZN,hourly; !- [J]
Output:Meter,Cooling:EnergyTransfer:Zone:STORAGE ROOM <= 5 M2 <= 100 M2-SCH-K-SPACE FUNCTION ZN,hourly; !- [J]
Output:Meter:Cumulative,Cooling:EnergyTransfer:Zone:STORAGE ROOM <= 5 M2 <= 100 M2-SCH-K-SPACE FUNCTION ZN,hourly; !- [J]
Output:Meter,EnergyTransfer:Zone:STORAGE ROOM > 100 M2-SCH-A-SPACE FUNCTION ZN,hourly; !- [J]
Output:Meter:Cumulative,EnergyTransfer:Zone:STORAGE ROOM > 100 M2-SCH-A-SPACE FUNCTION ZN,hourly; !- [J]
Output:Meter,Heating:EnergyTransfer:Zone:STORAGE ROOM > 100 M2-SCH-A-SPACE FUNCTION ZN,hourly; !- [J]
Output:Meter:Cumulative,Heating:EnergyTransfer:Zone:STORAGE ROOM > 100 M2-SCH-A-SPACE FUNCTION ZN,hourly; !- [J]
Output:Meter,Cooling:EnergyTransfer:Zone:STORAGE ROOM > 100 M2-SCH-A-SPACE FUNCTION ZN,hourly; !- [J]
Output:Meter:Cumulative,Cooling:EnergyTransfer:Zone:STORAGE ROOM > 100 M2-SCH-A-SPACE FUNCTION ZN,hourly; !- [J]
Output:Meter,EnergyTransfer:Zone:STORAGE ROOM > 100 M2-SCH-B-SPACE FUNCTION ZN,hourly; !- [J]
Output:Meter:Cumulative,EnergyTransfer:Zone:STORAGE ROOM > 100 M2-SCH-B-SPACE FUNCTION ZN,hourly; !- [J]
Output:Meter,Heating:EnergyTransfer:Zone:STORAGE ROOM > 100 M2-SCH-B-SPACE FUNCTION ZN,hourly; !- [J]
Output:Meter:Cumulative,Heating:EnergyTransfer:Zone:STORAGE ROOM > 100 M2-SCH-B-SPACE FUNCTION ZN,hourly; !- [J]
Output:Meter,Cooling:EnergyTransfer:Zone:STORAGE ROOM > 100 M2-SCH-B-SPACE FUNCTION ZN,hourly; !- [J]
Output:Meter:Cumulative,Cooling:EnergyTransfer:Zone:STORAGE ROOM > 100 M2-SCH-B-SPACE FUNCTION ZN,hourly; !- [J]
Output:Meter,EnergyTransfer:Zone:STORAGE ROOM > 100 M2-SCH-C-SPACE FUNCTION ZN,hourly; !- [J]
Output:Meter:Cumulative,EnergyTransfer:Zone:STORAGE ROOM > 100 M2-SCH-C-SPACE FUNCTION ZN,hourly; !- [J]
Output:Meter,Heating:EnergyTransfer:Zone:STORAGE ROOM > 100 M2-SCH-C-SPACE FUNCTION ZN,hourly; !- [J]
Output:Meter:Cumulative,Heating:EnergyTransfer:Zone:STORAGE ROOM > 100 M2-SCH-C-SPACE FUNCTION ZN,hourly; !- [J]
Output:Meter,Cooling:EnergyTransfer:Zone:STORAGE ROOM > 100 M2-SCH-C-SPACE FUNCTION ZN,hourly; !- [J]
Output:Meter:Cumulative,Cooling:EnergyTransfer:Zone:STORAGE ROOM > 100 M2-SCH-C-SPACE FUNCTION ZN,hourly; !- [J]
Output:Meter,EnergyTransfer:Zone:STORAGE ROOM > 100 M2-SCH-D-SPACE FUNCTION ZN,hourly; !- [J]
Output:Meter:Cumulative,EnergyTransfer:Zone:STORAGE ROOM > 100 M2-SCH-D-SPACE FUNCTION ZN,hourly; !- [J]
Output:Meter,Heating:EnergyTransfer:Zone:STORAGE ROOM > 100 M2-SCH-D-SPACE FUNCTION ZN,hourly; !- [J]
Output:Meter:Cumulative,Heating:EnergyTransfer:Zone:STORAGE ROOM > 100 M2-SCH-D-SPACE FUNCTION ZN,hourly; !- [J]
Output:Meter,Cooling:EnergyTransfer:Zone:STORAGE ROOM > 100 M2-SCH-D-SPACE FUNCTION ZN,hourly; !- [J]
Output:Meter:Cumulative,Cooling:EnergyTransfer:Zone:STORAGE ROOM > 100 M2-SCH-D-SPACE FUNCTION ZN,hourly; !- [J]
Output:Meter,EnergyTransfer:Zone:STORAGE ROOM > 100 M2-SCH-E-SPACE FUNCTION ZN,hourly; !- [J]
Output:Meter:Cumulative,EnergyTransfer:Zone:STORAGE ROOM > 100 M2-SCH-E-SPACE FUNCTION ZN,hourly; !- [J]
Output:Meter,Heating:EnergyTransfer:Zone:STORAGE ROOM > 100 M2-SCH-E-SPACE FUNCTION ZN,hourly; !- [J]
Output:Meter:Cumulative,Heating:EnergyTransfer:Zone:STORAGE ROOM > 100 M2-SCH-E-SPACE FUNCTION ZN,hourly; !- [J]
Output:Meter,Cooling:EnergyTransfer:Zone:STORAGE ROOM > 100 M2-SCH-E-SPACE FUNCTION ZN,hourly; !- [J]
Output:Meter:Cumulative,Cooling:EnergyTransfer:Zone:STORAGE ROOM > 100 M2-SCH-E-SPACE FUNCTION ZN,hourly; !- [J]
Output:Meter,EnergyTransfer:Zone:STORAGE ROOM > 100 M2-SCH-F-SPACE FUNCTION ZN,hourly; !- [J]
Output:Meter:Cumulative,EnergyTransfer:Zone:STORAGE ROOM > 100 M2-SCH-F-SPACE FUNCTION ZN,hourly; !- [J]
Output:Meter,Heating:EnergyTransfer:Zone:STORAGE ROOM > 100 M2-SCH-F-SPACE FUNCTION ZN,hourly; !- [J]
Output:Meter:Cumulative,Heating:EnergyTransfer:Zone:STORAGE ROOM > 100 M2-SCH-F-SPACE FUNCTION ZN,hourly; !- [J]
Output:Meter,Cooling:EnergyTransfer:Zone:STORAGE ROOM > 100 M2-SCH-F-SPACE FUNCTION ZN,hourly; !- [J]
Output:Meter:Cumulative,Cooling:EnergyTransfer:Zone:STORAGE ROOM > 100 M2-SCH-F-SPACE FUNCTION ZN,hourly; !- [J]
Output:Meter,EnergyTransfer:Zone:STORAGE ROOM > 100 M2-SCH-G-SPACE FUNCTION ZN,hourly; !- [J]
Output:Meter:Cumulative,EnergyTransfer:Zone:STORAGE ROOM > 100 M2-SCH-G-SPACE FUNCTION ZN,hourly; !- [J]
Output:Meter,Heating:EnergyTransfer:Zone:STORAGE ROOM > 100 M2-SCH-G-SPACE FUNCTION ZN,hourly; !- [J]
Output:Meter:Cumulative,Heating:EnergyTransfer:Zone:STORAGE ROOM > 100 M2-SCH-G-SPACE FUNCTION ZN,hourly; !- [J]
Output:Meter,Cooling:EnergyTransfer:Zone:STORAGE ROOM > 100 M2-SCH-G-SPACE FUNCTION ZN,hourly; !- [J]
Output:Meter:Cumulative,Cooling:EnergyTransfer:Zone:STORAGE ROOM > 100 M2-SCH-G-SPACE FUNCTION ZN,hourly; !- [J]
Output:Meter,EnergyTransfer:Zone:STORAGE ROOM > 100 M2-SCH-H-SPACE FUNCTION ZN,hourly; !- [J]
Output:Meter:Cumulative,EnergyTransfer:Zone:STORAGE ROOM > 100 M2-SCH-H-SPACE FUNCTION ZN,hourly; !- [J]
Output:Meter,Heating:EnergyTransfer:Zone:STORAGE ROOM > 100 M2-SCH-H-SPACE FUNCTION ZN,hourly; !- [J]
Output:Meter:Cumulative,Heating:EnergyTransfer:Zone:STORAGE ROOM > 100 M2-SCH-H-SPACE FUNCTION ZN,hourly; !- [J]
Output:Meter,Cooling:EnergyTransfer:Zone:STORAGE ROOM > 100 M2-SCH-H-SPACE FUNCTION ZN,hourly; !- [J]
Output:Meter:Cumulative,Cooling:EnergyTransfer:Zone:STORAGE ROOM > 100 M2-SCH-H-SPACE FUNCTION ZN,hourly; !- [J]
Output:Meter,EnergyTransfer:Zone:STORAGE ROOM > 100 M2-SCH-I-SPACE FUNCTION ZN,hourly; !- [J]
Output:Meter:Cumulative,EnergyTransfer:Zone:STORAGE ROOM > 100 M2-SCH-I-SPACE FUNCTION ZN,hourly; !- [J]
Output:Meter,Heating:EnergyTransfer:Zone:STORAGE ROOM > 100 M2-SCH-I-SPACE FUNCTION ZN,hourly; !- [J]
Output:Meter:Cumulative,Heating:EnergyTransfer:Zone:STORAGE ROOM > 100 M2-SCH-I-SPACE FUNCTION ZN,hourly; !- [J]
Output:Meter,Cooling:EnergyTransfer:Zone:STORAGE ROOM > 100 M2-SCH-I-SPACE FUNCTION ZN,hourly; !- [J]
Output:Meter:Cumulative,Cooling:EnergyTransfer:Zone:STORAGE ROOM > 100 M2-SCH-I-SPACE FUNCTION ZN,hourly; !- [J]
Output:Meter,EnergyTransfer:Zone:STORAGE ROOM > 100 M2-SCH-J-SPACE FUNCTION ZN,hourly; !- [J]
Output:Meter:Cumulative,EnergyTransfer:Zone:STORAGE ROOM > 100 M2-SCH-J-SPACE FUNCTION ZN,hourly; !- [J]
Output:Meter,Heating:EnergyTransfer:Zone:STORAGE ROOM > 100 M2-SCH-J-SPACE FUNCTION ZN,hourly; !- [J]
Output:Meter:Cumulative,Heating:EnergyTransfer:Zone:STORAGE ROOM > 100 M2-SCH-J-SPACE FUNCTION ZN,hourly; !- [J]
Output:Meter,Cooling:EnergyTransfer:Zone:STORAGE ROOM > 100 M2-SCH-J-SPACE FUNCTION ZN,hourly; !- [J]
Output:Meter:Cumulative,Cooling:EnergyTransfer:Zone:STORAGE ROOM > 100 M2-SCH-J-SPACE FUNCTION ZN,hourly; !- [J]
Output:Meter,EnergyTransfer:Zone:STORAGE ROOM > 100 M2-SCH-K-SPACE FUNCTION ZN,hourly; !- [J]
Output:Meter:Cumulative,EnergyTransfer:Zone:STORAGE ROOM > 100 M2-SCH-K-SPACE FUNCTION ZN,hourly; !- [J]
Output:Meter,Heating:EnergyTransfer:Zone:STORAGE ROOM > 100 M2-SCH-K-SPACE FUNCTION ZN,hourly; !- [J]
Output:Meter:Cumulative,Heating:EnergyTransfer:Zone:STORAGE ROOM > 100 M2-SCH-K-SPACE FUNCTION ZN,hourly; !- [J]
Output:Meter,Cooling:EnergyTransfer:Zone:STORAGE ROOM > 100 M2-SCH-K-SPACE FUNCTION ZN,hourly; !- [J]
Output:Meter:Cumulative,Cooling:EnergyTransfer:Zone:STORAGE ROOM > 100 M2-SCH-K-SPACE FUNCTION ZN,hourly; !- [J]
Output:Meter,EnergyTransfer:Zone:VEHICLE MAINTENANCE AREA-SPACE FUNCTION ZN,hourly; !- [J]
Output:Meter:Cumulative,EnergyTransfer:Zone:VEHICLE MAINTENANCE AREA-SPACE FUNCTION ZN,hourly; !- [J]
Output:Meter,Heating:EnergyTransfer:Zone:VEHICLE MAINTENANCE AREA-SPACE FUNCTION ZN,hourly; !- [J]
Output:Meter:Cumulative,Heating:EnergyTransfer:Zone:VEHICLE MAINTENANCE AREA-SPACE FUNCTION ZN,hourly; !- [J]
Output:Meter,Cooling:EnergyTransfer:Zone:VEHICLE MAINTENANCE AREA-SPACE FUNCTION ZN,hourly; !- [J]
Output:Meter:Cumulative,Cooling:EnergyTransfer:Zone:VEHICLE MAINTENANCE AREA-SPACE FUNCTION ZN,hourly; !- [J]
Output:Meter,EnergyTransfer:Zone:WORKSHOP-SPACE FUNCTION ZN,hourly; !- [J]
Output:Meter:Cumulative,EnergyTransfer:Zone:WORKSHOP-SPACE FUNCTION ZN,hourly; !- [J]
Output:Meter,Heating:EnergyTransfer:Zone:WORKSHOP-SPACE FUNCTION ZN,hourly; !- [J]
Output:Meter:Cumulative,Heating:EnergyTransfer:Zone:WORKSHOP-SPACE FUNCTION ZN,hourly; !- [J]
Output:Meter,Cooling:EnergyTransfer:Zone:WORKSHOP-SPACE FUNCTION ZN,hourly; !- [J]
Output:Meter:Cumulative,Cooling:EnergyTransfer:Zone:WORKSHOP-SPACE FUNCTION ZN,hourly; !- [J]
Output:Meter,ElectricityPurchased:Facility,hourly; !- [J]
Output:Meter:Cumulative,ElectricityPurchased:Facility,hourly; !- [J]
Output:Meter,ElectricityPurchased:Plant,hourly; !- [J]
Output:Meter:Cumulative,ElectricityPurchased:Plant,hourly; !- [J]
Output:Meter,Cogeneration:ElectricityPurchased,hourly; !- [J]
Output:Meter:Cumulative,Cogeneration:ElectricityPurchased,hourly; !- [J]
Output:Meter,ElectricitySurplusSold:Facility,hourly; !- [J]
Output:Meter:Cumulative,ElectricitySurplusSold:Facility,hourly; !- [J]
Output:Meter,ElectricitySurplusSold:Plant,hourly; !- [J]
Output:Meter:Cumulative,ElectricitySurplusSold:Plant,hourly; !- [J]
Output:Meter,Cogeneration:ElectricitySurplusSold,hourly; !- [J]
Output:Meter:Cumulative,Cogeneration:ElectricitySurplusSold,hourly; !- [J]
Output:Meter,ElectricityNet:Facility,hourly; !- [J]
Output:Meter:Cumulative,ElectricityNet:Facility,hourly; !- [J]
Output:Meter,ElectricityNet:Plant,hourly; !- [J]
Output:Meter:Cumulative,ElectricityNet:Plant,hourly; !- [J]
Output:Meter,Cogeneration:ElectricityNet,hourly; !- [J]
Output:Meter:Cumulative,Cogeneration:ElectricityNet,hourly; !- [J]
Output:Meter,DistrictHeating:Facility,hourly; !- [J]
Output:Meter:Cumulative,DistrictHeating:Facility,hourly; !- [J]
Output:Meter,DistrictHeating:HVAC,hourly; !- [J]
Output:Meter:Cumulative,DistrictHeating:HVAC,hourly; !- [J]
Output:Meter,Heating:DistrictHeating,hourly; !- [J]
Output:Meter:Cumulative,Heating:DistrictHeating,hourly; !- [J]
Output:Meter,DistrictCooling:Facility,hourly; !- [J]
Output:Meter:Cumulative,DistrictCooling:Facility,hourly; !- [J]
Output:Meter,DistrictCooling:HVAC,hourly; !- [J]
Output:Meter:Cumulative,DistrictCooling:HVAC,hourly; !- [J]
Output:Meter,Cooling:DistrictCooling,hourly; !- [J]
Output:Meter:Cumulative,Cooling:DistrictCooling,hourly; !- [J]
Output:Meter,Carbon Equivalent:Facility,hourly; !- [kg]
Output:Meter:Cumulative,Carbon Equivalent:Facility,hourly; !- [kg]
Output:Meter,CarbonEquivalentEmissions:Carbon Equivalent,hourly; !- [kg]
Output:Meter:Cumulative,CarbonEquivalentEmissions:Carbon Equivalent,hourly; !- [kg]
