Program Version,EnergyPlus, Version 8.9.0-eba93e8e1b, YMD=2019.03.28 13:53
! <Version>, Version ID
 Version, 8.9
! <Timesteps per Hour>, #TimeSteps, Minutes per TimeStep {minutes}
 Timesteps per Hour,  6, 10
! <System Convergence Limits>, Minimum System TimeStep {minutes}, Max HVAC Iterations, Minimum Plant Iterations, Maximum Plant Iterations
 System Convergence Limits, 1, 20, 2, 8
! <Simulation Control>, Do Zone Sizing, Do System Sizing, Do Plant Sizing, Do Design Days, Do Weather Simulation, Do HVAC Sizing Simulation
 Simulation Control, Yes, No, No, Yes, No, No
! <Output Reporting Tolerances>, Tolerance for Time Heating Setpoint Not Met, Tolerance for Zone Cooling Setpoint Not Met Time
 Output Reporting Tolerances, 0.200, 0.200, 
! <Site:GroundTemperature:BuildingSurface>,Jan{C},Feb{C},Mar{C},Apr{C},May{C},Jun{C},Jul{C},Aug{C},Sep{C},Oct{C},Nov{C},Dec{C}
 Site:GroundTemperature:BuildingSurface,  19.53,  19.50,  19.54,  19.60,  20.00,  21.64,  22.23,  22.38,  21.45,  20.12,  19.80,  19.63
! <Site:GroundTemperature:FCfactorMethod>,Jan{C},Feb{C},Mar{C},Apr{C},May{C},Jun{C},Jul{C},Aug{C},Sep{C},Oct{C},Nov{C},Dec{C}
 Site:GroundTemperature:FCfactorMethod, -12.27, -13.66, -11.19,  -7.33,   2.77,  10.57,  15.83,  17.43,  14.70,   8.65,   0.56,  -6.95
! <Site:GroundTemperature:Shallow>,Jan{C},Feb{C},Mar{C},Apr{C},May{C},Jun{C},Jul{C},Aug{C},Sep{C},Oct{C},Nov{C},Dec{C}
 Site:GroundTemperature:Shallow,  13.00,  13.00,  13.00,  13.00,  13.00,  13.00,  13.00,  13.00,  13.00,  13.00,  13.00,  13.00
! <Site:GroundTemperature:Deep>,Jan{C},Feb{C},Mar{C},Apr{C},May{C},Jun{C},Jul{C},Aug{C},Sep{C},Oct{C},Nov{C},Dec{C}
 Site:GroundTemperature:Deep,  16.00,  16.00,  16.00,  16.00,  16.00,  16.00,  16.00,  16.00,  16.00,  16.00,  16.00,  16.00
! <Site:GroundReflectance>,Jan{dimensionless},Feb{dimensionless},Mar{dimensionless},Apr{dimensionless},May{dimensionless},Jun{dimensionless},Jul{dimensionless},Aug{dimensionless},Sep{dimensionless},Oct{dimensionless},Nov{dimensionless},Dec{dimensionless}
 Site:GroundReflectance,  0.20,  0.20,  0.20,  0.20,  0.20,  0.20,  0.20,  0.20,  0.20,  0.20,  0.20,  0.20
! <Site:GroundReflectance:SnowModifier>, Normal, Daylighting {dimensionless}
 Site:GroundReflectance:SnowModifier,   1.000,   1.000
! <Site:GroundReflectance:Snow>,Jan{dimensionless},Feb{dimensionless},Mar{dimensionless},Apr{dimensionless},May{dimensionless},Jun{dimensionless},Jul{dimensionless},Aug{dimensionless},Sep{dimensionless},Oct{dimensionless},Nov{dimensionless},Dec{dimensionless}
 Site:GroundReflectance:Snow,  0.20,  0.20,  0.20,  0.20,  0.20,  0.20,  0.20,  0.20,  0.20,  0.20,  0.20,  0.20
! <Site:GroundReflectance:Snow:Daylighting>,Jan{dimensionless},Feb{dimensionless},Mar{dimensionless},Apr{dimensionless},May{dimensionless},Jun{dimensionless},Jul{dimensionless},Aug{dimensionless},Sep{dimensionless},Oct{dimensionless},Nov{dimensionless},Dec{dimensionless}
 Site:GroundReflectance:Snow:Daylighting,  0.20,  0.20,  0.20,  0.20,  0.20,  0.20,  0.20,  0.20,  0.20,  0.20,  0.20,  0.20
! <Environment:Weather Station>,Wind Sensor Height Above Ground {m},Wind Speed Profile Exponent {},Wind Speed Profile Boundary Layer Thickness {m},Air Temperature Sensor Height Above Ground {m},Wind Speed Modifier Coefficient-Internal,Temperature Modifier Coefficient-Internal
Environment:Weather Station,10.000,0.140,270.000,1.500,1.586,9.750E-003
! <Site:Location>, Location Name, Latitude {N+/S- Deg}, Longitude {E+/W- Deg},  Time Zone Number {GMT+/-}, Elevation {m},  Standard Pressure at Elevation {Pa}, Standard RhoAir at Elevation
Site:Location,Fort McMurray AP AB CAN CWEC2016 WMO#=716890,56.65,-111.22,-7.00,369.10,96969,1.1525
! <Building Information>, Building Name,North Axis {deg},Terrain,  Loads Convergence Tolerance Value,Temperature Convergence Tolerance Value,  Solar Distribution,Maximum Number of Warmup Days,Minimum Number of Warmup Days
 Building Information,Building 1,0.000,Suburbs,4.00000E-002,0.40000,FullExterior,25,6
! <Inside Convection Algorithm>, Algorithm {Simple | TARP | CeilingDiffuser | AdaptiveConvectionAlgorithm}
Inside Convection Algorithm,TARP
! <Outside Convection Algorithm>, Algorithm {SimpleCombined | TARP | MoWitt | DOE-2 | AdaptiveConvectionAlgorithm}
Outside Convection Algorithm,TARP
! <Sky Radiance Distribution>, Value {Anisotropic}
Sky Radiance Distribution,Anisotropic
! <Zone Air Solution Algorithm>, Value {ThirdOrderBackwardDifference | AnalyticalSolution | EulerMethod}
 Zone Air Solution Algorithm, ThirdOrderBackwardDifference
! <Zone Air Carbon Dioxide Balance Simulation>, Simulation {Yes/No}, Carbon Dioxide Concentration
 Zone Air Carbon Dioxide Balance Simulation, No,N/A
! <Zone Air Generic Contaminant Balance Simulation>, Simulation {Yes/No}, Generic Contaminant Concentration
 Zone Air Generic Contaminant Balance Simulation, No,N/A
! <Zone Air Mass Flow Balance Simulation>, Enforce Mass Balance, Adjust Zone Mixing, Adjust Zone Infiltration {AddInfiltration | AdjustInfiltration | None}, Infiltration Zones {MixingSourceZonesOnly | AllZones}
 Zone Air Mass Flow Balance Simulation, No,N/A,N/A,N/A
! <HVACSystemRootFindingAlgorithm>, Value {RegulaFalsi | Bisection | BisectionThenRegulaFalsi | RegulaFalsiThenBisection}
 HVACSystemRootFindingAlgorithm, RegulaFalsi
! <Environment:Site Atmospheric Variation>,Wind Speed Profile Exponent {},Wind Speed Profile Boundary Layer Thickness {m},Air Temperature Gradient Coefficient {K/m}
Environment:Site Atmospheric Variation,0.220,370.000,6.500000E-003
! <Surface Geometry>,Starting Corner,Vertex Input Direction,Coordinate System,Daylight Reference Point Coordinate System,Rectangular (Simple) Surface Coordinate System
 Surface Geometry,UpperLeftCorner,Counterclockwise,RelativeCoordinateSystem,RelativeCoordinateSystem,RelativeToZoneOrigin
! <Surface Heat Transfer Algorithm>, Value {CTF - ConductionTransferFunction | EMPD - MoisturePenetrationDepthConductionTransferFunction | CondFD - ConductionFiniteDifference | HAMT - CombinedHeatAndMoistureFiniteElement} - Description,Inside Surface Max Temperature Limit{C}, Surface Convection Coefficient Lower Limit {W/m2-K}, Surface Convection Coefficient Upper Limit {W/m2-K}
Surface Heat Transfer Algorithm, CTF - ConductionTransferFunction,200,0.10,1000.0
! <Shading Summary>, Number of Fixed Detached Shades, Number of Building Detached Shades, Number of Attached Shades
 Shading Summary,0,0,0
! <Zone Summary>, Number of Zones, Number of Zone Surfaces, Number of SubSurfaces
 Zone Summary,20,134,14
! <Zone Information>,Zone Name,North Axis {deg},Origin X-Coordinate {m},Origin Y-Coordinate {m},Origin Z-Coordinate {m},Centroid X-Coordinate {m},Centroid Y-Coordinate {m},Centroid Z-Coordinate {m},Type,Zone Multiplier,Zone List Multiplier,Minimum X {m},Maximum X {m},Minimum Y {m},Maximum Y {m},Minimum Z {m},Maximum Z {m},Ceiling Height {m},Volume {m3},Zone Inside Convection Algorithm {Simple-Detailed-CeilingDiffuser-TrombeWall},Zone Outside Convection Algorithm {Simple-Detailed-Tarp-MoWitt-DOE-2-BLAST}, Floor Area {m2},Exterior Gross Wall Area {m2},Exterior Net Wall Area {m2},Exterior Window Area {m2}, Number of Surfaces, Number of SubSurfaces, Number of Shading SubSurfaces,  Part of Total Building Area
 Zone Information, CONVENTION CENTRE EXHIBIT SPACE-SPACE FUNCTION ZN,0.0,25.00,75.00,3.80,50.00,89.15,5.70,1,1,1,0.00,100.00,75.00,100.00,3.80,7.60,3.80,7125.00,TARP,TARP,1875.00,380.00,285.00,95.00,6,1,0,Yes
 Zone Information, DORMITORY LIVING QUARTERS-SPACE FUNCTION ZN,0.0,75.00,25.00,3.80,89.15,50.00,5.70,1,1,1,75.00,100.00,0.00,100.00,3.80,7.60,3.80,7125.00,TARP,TARP,1875.00,380.00,285.00,95.00,6,1,0,Yes
 Zone Information, DWELLING UNITS GENERAL-SPACE FUNCTION ZN,0.0,0.00,0.00,3.80,10.85,50.00,5.70,1,1,1,0.00,25.00,0.00,100.00,3.80,7.60,3.80,7125.00,TARP,TARP,1875.00,380.00,285.00,95.00,6,1,0,Yes
 Zone Information, DWELLING UNITS LONG-TERM-SPACE FUNCTION ZN,0.0,0.00,0.00,3.80,50.00,10.85,5.70,1,1,1,0.00,100.00,0.00,25.00,3.80,7.60,3.80,7125.00,TARP,TARP,1875.00,380.00,285.00,95.00,6,1,0,Yes
 Zone Information, STORAGE ROOM <= 5 M2 <= 100 M2-SCH-I-SPACE FUNCTION ZN,0.0,0.00,0.00,11.40,50.00,10.85,13.30,1,1,1,0.00,100.00,0.00,25.00,11.40,15.20,3.80,7125.00,TARP,TARP,1875.00,380.00,285.00,188.75,6,2,0,Yes
 Zone Information, STORAGE ROOM <= 5 M2 <= 100 M2-SCH-J-SPACE FUNCTION ZN,0.0,75.00,25.00,11.40,89.15,50.00,13.30,1,1,1,75.00,100.00,0.00,100.00,11.40,15.20,3.80,7125.00,TARP,TARP,1875.00,380.00,285.00,188.75,6,2,0,Yes
 Zone Information, STORAGE ROOM <= 5 M2 <= 100 M2-SCH-K-SPACE FUNCTION ZN,0.0,25.00,75.00,11.40,50.00,89.15,13.30,1,1,1,0.00,100.00,75.00,100.00,11.40,15.20,3.80,7125.00,TARP,TARP,1875.00,380.00,380.00,0.00,6,0,0,Yes
 Zone Information, STORAGE ROOM > 100 M2-SCH-A-SPACE FUNCTION ZN,0.0,25.00,25.00,7.60,50.00,50.00,9.50,1,1,1,25.00,75.00,25.00,75.00,7.60,11.40,3.80,9500.00,TARP,TARP,2500.00,0.00,0.00,0.00,6,0,0,Yes
 Zone Information, STORAGE ROOM > 100 M2-SCH-B-SPACE FUNCTION ZN,0.0,75.00,25.00,7.60,89.15,50.00,9.50,1,1,1,75.00,100.00,0.00,100.00,7.60,11.40,3.80,7125.00,TARP,TARP,1875.00,380.00,285.00,95.00,6,1,0,Yes
 Zone Information, STORAGE ROOM > 100 M2-SCH-C-SPACE FUNCTION ZN,0.0,25.00,75.00,7.60,50.00,89.15,9.50,1,1,1,0.00,100.00,75.00,100.00,7.60,11.40,3.80,7125.00,TARP,TARP,1875.00,380.00,285.00,95.00,6,1,0,Yes
 Zone Information, STORAGE ROOM > 100 M2-SCH-D-SPACE FUNCTION ZN,0.0,0.00,0.00,0.00,10.85,50.00,1.90,1,1,1,0.00,25.00,0.00,100.00,0.00,3.80,3.80,7125.00,TARP,TARP,1875.00,0.00,0.00,0.00,6,0,0,Yes
 Zone Information, STORAGE ROOM > 100 M2-SCH-E-SPACE FUNCTION ZN,0.0,75.00,25.00,0.00,89.15,50.00,1.90,1,1,1,75.00,100.00,0.00,100.00,0.00,3.80,3.80,7125.00,TARP,TARP,1875.00,0.00,0.00,0.00,6,0,0,Yes
 Zone Information, STORAGE ROOM > 100 M2-SCH-F-SPACE FUNCTION ZN,0.0,0.00,0.00,11.40,10.85,50.00,13.30,1,1,1,0.00,25.00,0.00,100.00,11.40,15.20,3.80,7125.00,TARP,TARP,1875.00,380.00,285.00,188.75,6,2,0,Yes
 Zone Information, STORAGE ROOM > 100 M2-SCH-G-SPACE FUNCTION ZN,0.0,0.00,0.00,0.00,50.00,10.85,1.90,1,1,1,0.00,100.00,0.00,25.00,0.00,3.80,3.80,7125.00,TARP,TARP,1875.00,0.00,0.00,0.00,6,0,0,Yes
 Zone Information, STORAGE ROOM > 100 M2-SCH-H-SPACE FUNCTION ZN,0.0,0.00,0.00,7.60,50.00,10.85,9.50,1,1,1,0.00,100.00,0.00,25.00,7.60,11.40,3.80,7125.00,TARP,TARP,1875.00,380.00,285.00,95.00,6,1,0,Yes
 Zone Information, STORAGE ROOM > 100 M2-SCH-I-SPACE FUNCTION ZN,0.0,25.00,75.00,0.00,50.00,89.15,1.90,1,1,1,0.00,100.00,75.00,100.00,0.00,3.80,3.80,7125.00,TARP,TARP,1875.00,0.00,0.00,0.00,6,0,0,Yes
 Zone Information, STORAGE ROOM > 100 M2-SCH-J-SPACE FUNCTION ZN,0.0,25.00,25.00,0.00,50.00,50.00,1.90,1,1,1,25.00,75.00,25.00,75.00,0.00,3.80,3.80,9500.00,TARP,TARP,2500.00,0.00,0.00,0.00,6,0,0,Yes
 Zone Information, STORAGE ROOM > 100 M2-SCH-K-SPACE FUNCTION ZN,0.0,25.00,25.00,11.40,50.00,50.00,13.30,1,1,1,25.00,75.00,25.00,75.00,11.40,15.20,3.80,9500.00,TARP,TARP,2500.00,0.00,0.00,0.00,6,0,0,Yes
 Zone Information, VEHICLE MAINTENANCE AREA-SPACE FUNCTION ZN,0.0,0.00,0.00,7.60,10.85,50.00,9.50,1,1,1,0.00,25.00,0.00,100.00,7.60,11.40,3.80,7125.00,TARP,TARP,1875.00,380.00,285.00,95.00,6,1,0,Yes
 Zone Information, WORKSHOP-SPACE FUNCTION ZN,0.0,25.00,25.00,3.80,50.00,50.00,5.70,1,1,1,25.00,75.00,25.00,75.00,3.80,7.60,3.80,9500.00,TARP,TARP,2500.00,0.00,0.00,0.00,6,0,0,Yes
! <Zone Internal Gains Nominal>,Zone Name, Floor Area {m2},# Occupants,Area per Occupant {m2/person},Occupant per Area {person/m2},Interior Lighting {W/m2},Electric Load {W/m2},Gas Load {W/m2},Other Load {W/m2},Hot Water Eq {W/m2},Steam Equipment {W/m2},Sum Loads per Area {W/m2},Outdoor Controlled Baseboard Heat
 Zone Internal Gains Nominal, CONVENTION CENTRE EXHIBIT SPACE-SPACE FUNCTION ZN,1875.00,187.6,9.996,0.100,15.706,2.501,0.000,0.000,0.000,0.000,18.207,No
 Zone Internal Gains Nominal, DORMITORY LIVING QUARTERS-SPACE FUNCTION ZN,1875.00,75.0,24.991,4.001E-002,4.202,2.501,0.000,0.000,0.000,0.000,6.702,No
 Zone Internal Gains Nominal, DWELLING UNITS GENERAL-SPACE FUNCTION ZN,1875.00,75.0,24.991,4.001E-002,5.002,5.002,0.000,0.000,0.000,0.000,10.004,No
 Zone Internal Gains Nominal, DWELLING UNITS LONG-TERM-SPACE FUNCTION ZN,1875.00,75.0,24.991,4.001E-002,5.002,2.501,0.000,0.000,0.000,0.000,7.503,No
 Zone Internal Gains Nominal, STORAGE ROOM <= 5 M2 <= 100 M2-SCH-I-SPACE FUNCTION ZN,1875.00,18.8,99.964,1.000E-002,6.802,0.000,0.000,0.000,0.000,0.000,6.802,No
 Zone Internal Gains Nominal, STORAGE ROOM <= 5 M2 <= 100 M2-SCH-J-SPACE FUNCTION ZN,1875.00,18.8,99.964,1.000E-002,6.802,0.000,0.000,0.000,0.000,0.000,6.802,No
 Zone Internal Gains Nominal, STORAGE ROOM <= 5 M2 <= 100 M2-SCH-K-SPACE FUNCTION ZN,1875.00,18.8,99.964,1.000E-002,6.802,0.000,0.000,0.000,0.000,0.000,6.802,No
 Zone Internal Gains Nominal, STORAGE ROOM > 100 M2-SCH-A-SPACE FUNCTION ZN,2500.00,25.0,99.964,1.000E-002,6.802,0.000,0.000,0.000,0.000,0.000,6.802,No
 Zone Internal Gains Nominal, STORAGE ROOM > 100 M2-SCH-B-SPACE FUNCTION ZN,1875.00,18.8,99.964,1.000E-002,6.802,0.000,0.000,0.000,0.000,0.000,6.802,No
 Zone Internal Gains Nominal, STORAGE ROOM > 100 M2-SCH-C-SPACE FUNCTION ZN,1875.00,18.8,99.964,1.000E-002,6.802,0.000,0.000,0.000,0.000,0.000,6.802,No
 Zone Internal Gains Nominal, STORAGE ROOM > 100 M2-SCH-D-SPACE FUNCTION ZN,1875.00,18.8,99.964,1.000E-002,6.802,0.000,0.000,0.000,0.000,0.000,6.802,No
 Zone Internal Gains Nominal, STORAGE ROOM > 100 M2-SCH-E-SPACE FUNCTION ZN,1875.00,18.8,99.964,1.000E-002,6.802,0.000,0.000,0.000,0.000,0.000,6.802,No
 Zone Internal Gains Nominal, STORAGE ROOM > 100 M2-SCH-F-SPACE FUNCTION ZN,1875.00,18.8,99.964,1.000E-002,6.802,0.000,0.000,0.000,0.000,0.000,6.802,No
 Zone Internal Gains Nominal, STORAGE ROOM > 100 M2-SCH-G-SPACE FUNCTION ZN,1875.00,18.8,99.964,1.000E-002,6.802,0.000,0.000,0.000,0.000,0.000,6.802,No
 Zone Internal Gains Nominal, STORAGE ROOM > 100 M2-SCH-H-SPACE FUNCTION ZN,1875.00,18.8,99.964,1.000E-002,6.802,0.000,0.000,0.000,0.000,0.000,6.802,No
 Zone Internal Gains Nominal, STORAGE ROOM > 100 M2-SCH-I-SPACE FUNCTION ZN,1875.00,18.8,99.964,1.000E-002,6.802,0.000,0.000,0.000,0.000,0.000,6.802,No
 Zone Internal Gains Nominal, STORAGE ROOM > 100 M2-SCH-J-SPACE FUNCTION ZN,2500.00,25.0,99.964,1.000E-002,6.802,0.000,0.000,0.000,0.000,0.000,6.802,No
 Zone Internal Gains Nominal, STORAGE ROOM > 100 M2-SCH-K-SPACE FUNCTION ZN,2500.00,25.0,99.964,1.000E-002,6.802,0.000,0.000,0.000,0.000,0.000,6.802,No
 Zone Internal Gains Nominal, VEHICLE MAINTENANCE AREA-SPACE FUNCTION ZN,1875.00,93.8,19.993,5.002E-002,6.802,5.002,0.000,0.000,0.000,0.000,11.804,No
 Zone Internal Gains Nominal, WORKSHOP-SPACE FUNCTION ZN,2500.00,83.4,29.989,3.335E-002,17.206,10.004,0.000,0.000,0.000,0.000,27.210,No
! <People Internal Gains Nominal>,Name,Schedule Name,Zone Name,Zone Floor Area {m2},# Zone Occupants,Number of People {},People/Floor Area {person/m2},Floor Area per person {m2/person},Fraction Radiant,Fraction Convected,Sensible Fraction Calculation,Activity level,ASHRAE 55 Warnings,Carbon Dioxide Generation Rate,Nominal Minimum Number of People,Nominal Maximum Number of People
 People Internal Gains Nominal, CONVENTION CENTRE EXHIBIT SPACE-SPACE FUNCTION ZN SPACE FUNCTION CONVENTION CENTRE EXHIBIT SPACE PEOPLE,NECB-C-OCCUPANCY,CONVENTION CENTRE EXHIBIT SPACE-SPACE FUNCTION ZN,1875.00,187.6,187.6,0.100,9.996,0.300,0.700,AutoCalculate,NECB-ACTIVITY,No,3.8200E-008,0,169
 People Internal Gains Nominal, DORMITORY LIVING QUARTERS-SPACE FUNCTION ZN SPACE FUNCTION DORMITORY LIVING QUARTERS PEOPLE,NECB-G-OCCUPANCY,DORMITORY LIVING QUARTERS-SPACE FUNCTION ZN,1875.00,75.0,75.0,4.001E-002,24.991,0.300,0.700,AutoCalculate,NECB-ACTIVITY,No,3.8200E-008,23,68
 People Internal Gains Nominal, DWELLING UNITS GENERAL-SPACE FUNCTION ZN SPACE FUNCTION DWELLING UNITS GENERAL PEOPLE,NECB-G-OCCUPANCY,DWELLING UNITS GENERAL-SPACE FUNCTION ZN,1875.00,75.0,75.0,4.001E-002,24.991,0.300,0.700,AutoCalculate,NECB-ACTIVITY,No,3.8200E-008,23,68
 People Internal Gains Nominal, DWELLING UNITS LONG-TERM-SPACE FUNCTION ZN SPACE FUNCTION DWELLING UNITS LONG-TERM PEOPLE,NECB-J-OCCUPANCY,DWELLING UNITS LONG-TERM-SPACE FUNCTION ZN,1875.00,75.0,75.0,4.001E-002,24.991,0.300,0.700,AutoCalculate,NECB-ACTIVITY,No,3.8200E-008,45,68
 People Internal Gains Nominal, STORAGE ROOM <= 5 M2 <= 100 M2-SCH-I-SPACE FUNCTION ZN SPACE FUNCTION STORAGE ROOM <= 5 M2 <= 100 M2-SCH-I PEOPLE,NECB-I-OCCUPANCY,STORAGE ROOM <= 5 M2 <= 100 M2-SCH-I-SPACE FUNCTION ZN,1875.00,18.8,18.8,1.000E-002,99.964,0.300,0.700,AutoCalculate,NECB-ACTIVITY,No,3.8200E-008,0,15
 People Internal Gains Nominal, STORAGE ROOM <= 5 M2 <= 100 M2-SCH-J-SPACE FUNCTION ZN SPACE FUNCTION STORAGE ROOM <= 5 M2 <= 100 M2-SCH-J PEOPLE,NECB-J-OCCUPANCY,STORAGE ROOM <= 5 M2 <= 100 M2-SCH-J-SPACE FUNCTION ZN,1875.00,18.8,18.8,1.000E-002,99.964,0.300,0.700,AutoCalculate,NECB-ACTIVITY,No,3.8200E-008,11,17
 People Internal Gains Nominal, STORAGE ROOM <= 5 M2 <= 100 M2-SCH-K-SPACE FUNCTION ZN SPACE FUNCTION STORAGE ROOM <= 5 M2 <= 100 M2-SCH-K PEOPLE,NECB-K-OCCUPANCY,STORAGE ROOM <= 5 M2 <= 100 M2-SCH-K-SPACE FUNCTION ZN,1875.00,18.8,18.8,1.000E-002,99.964,0.300,0.700,AutoCalculate,NECB-ACTIVITY,No,3.8200E-008,0,17
 People Internal Gains Nominal, STORAGE ROOM > 100 M2-SCH-A-SPACE FUNCTION ZN SPACE FUNCTION STORAGE ROOM > 100 M2-SCH-A PEOPLE,NECB-A-OCCUPANCY,STORAGE ROOM > 100 M2-SCH-A-SPACE FUNCTION ZN,2500.00,25.0,25.0,1.000E-002,99.964,0.300,0.700,AutoCalculate,NECB-ACTIVITY,No,3.8200E-008,0,23
 People Internal Gains Nominal, STORAGE ROOM > 100 M2-SCH-B-SPACE FUNCTION ZN SPACE FUNCTION STORAGE ROOM > 100 M2-SCH-B PEOPLE,NECB-B-OCCUPANCY,STORAGE ROOM > 100 M2-SCH-B-SPACE FUNCTION ZN,1875.00,18.8,18.8,1.000E-002,99.964,0.300,0.700,AutoCalculate,NECB-ACTIVITY,No,3.8200E-008,0,17
 People Internal Gains Nominal, STORAGE ROOM > 100 M2-SCH-C-SPACE FUNCTION ZN SPACE FUNCTION STORAGE ROOM > 100 M2-SCH-C PEOPLE,NECB-C-OCCUPANCY,STORAGE ROOM > 100 M2-SCH-C-SPACE FUNCTION ZN,1875.00,18.8,18.8,1.000E-002,99.964,0.300,0.700,AutoCalculate,NECB-ACTIVITY,No,3.8200E-008,0,17
 People Internal Gains Nominal, STORAGE ROOM > 100 M2-SCH-D-SPACE FUNCTION ZN SPACE FUNCTION STORAGE ROOM > 100 M2-SCH-D PEOPLE,NECB-D-OCCUPANCY,STORAGE ROOM > 100 M2-SCH-D-SPACE FUNCTION ZN,1875.00,18.8,18.8,1.000E-002,99.964,0.300,0.700,AutoCalculate,NECB-ACTIVITY,No,3.8200E-008,0,17
 People Internal Gains Nominal, STORAGE ROOM > 100 M2-SCH-E-SPACE FUNCTION ZN SPACE FUNCTION STORAGE ROOM > 100 M2-SCH-E PEOPLE,NECB-E-OCCUPANCY,STORAGE ROOM > 100 M2-SCH-E-SPACE FUNCTION ZN,1875.00,18.8,18.8,1.000E-002,99.964,0.300,0.700,AutoCalculate,NECB-ACTIVITY,No,3.8200E-008,0,17
 People Internal Gains Nominal, STORAGE ROOM > 100 M2-SCH-F-SPACE FUNCTION ZN SPACE FUNCTION STORAGE ROOM > 100 M2-SCH-F PEOPLE,NECB-F-OCCUPANCY,STORAGE ROOM > 100 M2-SCH-F-SPACE FUNCTION ZN,1875.00,18.8,18.8,1.000E-002,99.964,0.300,0.700,AutoCalculate,NECB-ACTIVITY,No,3.8200E-008,3,12
 People Internal Gains Nominal, STORAGE ROOM > 100 M2-SCH-G-SPACE FUNCTION ZN SPACE FUNCTION STORAGE ROOM > 100 M2-SCH-G PEOPLE,NECB-G-OCCUPANCY,STORAGE ROOM > 100 M2-SCH-G-SPACE FUNCTION ZN,1875.00,18.8,18.8,1.000E-002,99.964,0.300,0.700,AutoCalculate,NECB-ACTIVITY,No,3.8200E-008,6,17
 People Internal Gains Nominal, STORAGE ROOM > 100 M2-SCH-H-SPACE FUNCTION ZN SPACE FUNCTION STORAGE ROOM > 100 M2-SCH-H PEOPLE,NECB-H-OCCUPANCY,STORAGE ROOM > 100 M2-SCH-H-SPACE FUNCTION ZN,1875.00,18.8,18.8,1.000E-002,99.964,0.300,0.700,AutoCalculate,NECB-ACTIVITY,No,3.8200E-008,17,17
 People Internal Gains Nominal, STORAGE ROOM > 100 M2-SCH-I-SPACE FUNCTION ZN SPACE FUNCTION STORAGE ROOM > 100 M2-SCH-I PEOPLE,NECB-I-OCCUPANCY,STORAGE ROOM > 100 M2-SCH-I-SPACE FUNCTION ZN,1875.00,18.8,18.8,1.000E-002,99.964,0.300,0.700,AutoCalculate,NECB-ACTIVITY,No,3.8200E-008,0,15
 People Internal Gains Nominal, STORAGE ROOM > 100 M2-SCH-J-SPACE FUNCTION ZN SPACE FUNCTION STORAGE ROOM > 100 M2-SCH-J PEOPLE,NECB-J-OCCUPANCY,STORAGE ROOM > 100 M2-SCH-J-SPACE FUNCTION ZN,2500.00,25.0,25.0,1.000E-002,99.964,0.300,0.700,AutoCalculate,NECB-ACTIVITY,No,3.8200E-008,15,23
 People Internal Gains Nominal, STORAGE ROOM > 100 M2-SCH-K-SPACE FUNCTION ZN SPACE FUNCTION STORAGE ROOM > 100 M2-SCH-K PEOPLE,NECB-K-OCCUPANCY,STORAGE ROOM > 100 M2-SCH-K-SPACE FUNCTION ZN,2500.00,25.0,25.0,1.000E-002,99.964,0.300,0.700,AutoCalculate,NECB-ACTIVITY,No,3.8200E-008,0,23
 People Internal Gains Nominal, VEHICLE MAINTENANCE AREA-SPACE FUNCTION ZN SPACE FUNCTION VEHICLE MAINTENANCE AREA PEOPLE,NECB-E-OCCUPANCY,VEHICLE MAINTENANCE AREA-SPACE FUNCTION ZN,1875.00,93.8,93.8,5.002E-002,19.993,0.300,0.700,AutoCalculate,NECB-ACTIVITY,No,3.8200E-008,0,84
 People Internal Gains Nominal, WORKSHOP-SPACE FUNCTION ZN SPACE FUNCTION WORKSHOP PEOPLE,NECB-A-OCCUPANCY,WORKSHOP-SPACE FUNCTION ZN,2500.00,83.4,83.4,3.335E-002,29.989,0.300,0.700,AutoCalculate,NECB-ACTIVITY,No,3.8200E-008,0,75
! <Lights Internal Gains Nominal>,Name,Schedule Name,Zone Name,Zone Floor Area {m2},# Zone Occupants,Lighting Level {W},Lights/Floor Area {W/m2},Lights per person {W/person},Fraction Return Air,Fraction Radiant,Fraction Short Wave,Fraction Convected,Fraction Replaceable,End-Use Category,Nominal Minimum Lighting Level {W},Nominal Maximum Lighting Level {W}
 Lights Internal Gains Nominal, CONVENTION CENTRE EXHIBIT SPACE-SPACE FUNCTION ZN SPACE FUNCTION CONVENTION CENTRE EXHIBIT SPACE LIGHTS,NECB-C-OCCUPANCY-NECB-C-LIGHTING-0.0-0.0-0.67-LIGHT RULESET,CONVENTION CENTRE EXHIBIT SPACE-SPACE FUNCTION ZN,1875.00,187.6,29448.198,15.706,157.000,0.000,0.500,0.200,0.300,1.000,General,1472.410,26503.378
 Lights Internal Gains Nominal, DORMITORY LIVING QUARTERS-SPACE FUNCTION ZN SPACE FUNCTION DORMITORY LIVING QUARTERS LIGHTS,NECB-G-LIGHTING,DORMITORY LIVING QUARTERS-SPACE FUNCTION ZN,1875.00,75.0,7877.862,4.202,105.000,0.000,0.500,0.200,0.300,1.000,General,0.000,7090.076
 Lights Internal Gains Nominal, DWELLING UNITS GENERAL-SPACE FUNCTION ZN SPACE FUNCTION DWELLING UNITS GENERAL LIGHTS,NECB-G-LIGHTING,DWELLING UNITS GENERAL-SPACE FUNCTION ZN,1875.00,75.0,9378.407,5.002,125.000,0.000,0.500,0.200,0.300,1.000,General,0.000,8440.566
 Lights Internal Gains Nominal, DWELLING UNITS LONG-TERM-SPACE FUNCTION ZN SPACE FUNCTION DWELLING UNITS LONG-TERM LIGHTS,NECB-J-LIGHTING,DWELLING UNITS LONG-TERM-SPACE FUNCTION ZN,1875.00,75.0,9378.407,5.002,125.000,0.000,0.500,0.200,0.300,1.000,General,937.841,6564.885
 Lights Internal Gains Nominal, STORAGE ROOM <= 5 M2 <= 100 M2-SCH-I-SPACE FUNCTION ZN SPACE FUNCTION STORAGE ROOM <= 5 M2 <= 100 M2-SCH-I LIGHTS,NECB-I-LIGHTING,STORAGE ROOM <= 5 M2 <= 100 M2-SCH-I-SPACE FUNCTION ZN,1875.00,18.8,12754.634,6.802,680.000,0.000,0.500,0.200,0.300,1.000,General,637.732,11479.170
 Lights Internal Gains Nominal, STORAGE ROOM <= 5 M2 <= 100 M2-SCH-J-SPACE FUNCTION ZN SPACE FUNCTION STORAGE ROOM <= 5 M2 <= 100 M2-SCH-J LIGHTS,NECB-J-LIGHTING,STORAGE ROOM <= 5 M2 <= 100 M2-SCH-J-SPACE FUNCTION ZN,1875.00,18.8,12754.634,6.802,680.000,0.000,0.500,0.200,0.300,1.000,General,1275.463,8928.244
 Lights Internal Gains Nominal, STORAGE ROOM <= 5 M2 <= 100 M2-SCH-K-SPACE FUNCTION ZN SPACE FUNCTION STORAGE ROOM <= 5 M2 <= 100 M2-SCH-K LIGHTS,NECB-K-LIGHTING,STORAGE ROOM <= 5 M2 <= 100 M2-SCH-K-SPACE FUNCTION ZN,1875.00,18.8,12754.634,6.802,680.000,0.000,0.500,0.200,0.300,1.000,General,11479.170,11479.170
 Lights Internal Gains Nominal, STORAGE ROOM > 100 M2-SCH-A-SPACE FUNCTION ZN SPACE FUNCTION STORAGE ROOM > 100 M2-SCH-A LIGHTS,NECB-A-LIGHTING,STORAGE ROOM > 100 M2-SCH-A-SPACE FUNCTION ZN,2500.00,25.0,17006.178,6.802,680.000,0.000,0.500,0.200,0.300,1.000,General,850.309,15305.560
 Lights Internal Gains Nominal, STORAGE ROOM > 100 M2-SCH-B-SPACE FUNCTION ZN SPACE FUNCTION STORAGE ROOM > 100 M2-SCH-B LIGHTS,NECB-B-LIGHTING,STORAGE ROOM > 100 M2-SCH-B-SPACE FUNCTION ZN,1875.00,18.8,12754.634,6.802,680.000,0.000,0.500,0.200,0.300,1.000,General,1275.463,11479.170
 Lights Internal Gains Nominal, STORAGE ROOM > 100 M2-SCH-C-SPACE FUNCTION ZN SPACE FUNCTION STORAGE ROOM > 100 M2-SCH-C LIGHTS,NECB-C-LIGHTING,STORAGE ROOM > 100 M2-SCH-C-SPACE FUNCTION ZN,1875.00,18.8,12754.634,6.802,680.000,0.000,0.500,0.200,0.300,1.000,General,637.732,11479.170
 Lights Internal Gains Nominal, STORAGE ROOM > 100 M2-SCH-D-SPACE FUNCTION ZN SPACE FUNCTION STORAGE ROOM > 100 M2-SCH-D LIGHTS,NECB-D-LIGHTING,STORAGE ROOM > 100 M2-SCH-D-SPACE FUNCTION ZN,1875.00,18.8,12754.634,6.802,680.000,0.000,0.500,0.200,0.300,1.000,General,637.732,11479.170
 Lights Internal Gains Nominal, STORAGE ROOM > 100 M2-SCH-E-SPACE FUNCTION ZN SPACE FUNCTION STORAGE ROOM > 100 M2-SCH-E LIGHTS,NECB-E-LIGHTING,STORAGE ROOM > 100 M2-SCH-E-SPACE FUNCTION ZN,1875.00,18.8,12754.634,6.802,680.000,0.000,0.500,0.200,0.300,1.000,General,637.732,11479.170
 Lights Internal Gains Nominal, STORAGE ROOM > 100 M2-SCH-F-SPACE FUNCTION ZN SPACE FUNCTION STORAGE ROOM > 100 M2-SCH-F LIGHTS,NECB-F-LIGHTING,STORAGE ROOM > 100 M2-SCH-F-SPACE FUNCTION ZN,1875.00,18.8,12754.634,6.802,680.000,0.000,0.500,0.200,0.300,1.000,General,892.824,8035.419
 Lights Internal Gains Nominal, STORAGE ROOM > 100 M2-SCH-G-SPACE FUNCTION ZN SPACE FUNCTION STORAGE ROOM > 100 M2-SCH-G LIGHTS,NECB-G-LIGHTING,STORAGE ROOM > 100 M2-SCH-G-SPACE FUNCTION ZN,1875.00,18.8,12754.634,6.802,680.000,0.000,0.500,0.200,0.300,1.000,General,0.000,11479.170
 Lights Internal Gains Nominal, STORAGE ROOM > 100 M2-SCH-H-SPACE FUNCTION ZN SPACE FUNCTION STORAGE ROOM > 100 M2-SCH-H LIGHTS,NECB-H-LIGHTING,STORAGE ROOM > 100 M2-SCH-H-SPACE FUNCTION ZN,1875.00,18.8,12754.634,6.802,680.000,0.000,0.500,0.200,0.300,1.000,General,11479.170,11479.170
 Lights Internal Gains Nominal, STORAGE ROOM > 100 M2-SCH-I-SPACE FUNCTION ZN SPACE FUNCTION STORAGE ROOM > 100 M2-SCH-I LIGHTS,NECB-I-LIGHTING,STORAGE ROOM > 100 M2-SCH-I-SPACE FUNCTION ZN,1875.00,18.8,12754.634,6.802,680.000,0.000,0.500,0.200,0.300,1.000,General,637.732,11479.170
 Lights Internal Gains Nominal, STORAGE ROOM > 100 M2-SCH-J-SPACE FUNCTION ZN SPACE FUNCTION STORAGE ROOM > 100 M2-SCH-J LIGHTS,NECB-J-LIGHTING,STORAGE ROOM > 100 M2-SCH-J-SPACE FUNCTION ZN,2500.00,25.0,17006.178,6.802,680.000,0.000,0.500,0.200,0.300,1.000,General,1700.618,11904.325
 Lights Internal Gains Nominal, STORAGE ROOM > 100 M2-SCH-K-SPACE FUNCTION ZN SPACE FUNCTION STORAGE ROOM > 100 M2-SCH-K LIGHTS,NECB-K-LIGHTING,STORAGE ROOM > 100 M2-SCH-K-SPACE FUNCTION ZN,2500.00,25.0,17006.178,6.802,680.000,0.000,0.500,0.200,0.300,1.000,General,15305.560,15305.560
 Lights Internal Gains Nominal, VEHICLE MAINTENANCE AREA-SPACE FUNCTION ZN SPACE FUNCTION VEHICLE MAINTENANCE AREA LIGHTS,NECB-E-LIGHTING,VEHICLE MAINTENANCE AREA-SPACE FUNCTION ZN,1875.00,93.8,12754.634,6.802,136.000,0.000,0.500,0.200,0.300,1.000,General,637.732,11479.170
 Lights Internal Gains Nominal, WORKSHOP-SPACE FUNCTION ZN SPACE FUNCTION WORKSHOP LIGHTS,NECB-A-OCCUPANCY-NECB-A-LIGHTING-0.0-0.0-0.67-LIGHT RULESET,WORKSHOP-SPACE FUNCTION ZN,2500.00,83.4,43015.627,17.206,516.000,0.000,0.500,0.200,0.300,1.000,General,2150.781,38714.064
! <ElectricEquipment Internal Gains Nominal>,Name,Schedule Name,Zone Name,Zone Floor Area {m2},# Zone Occupants,Equipment Level {W},Equipment/Floor Area {W/m2},Equipment per person {W/person},Fraction Latent,Fraction Radiant,Fraction Lost,Fraction Convected,End-Use SubCategory,Nominal Minimum Equipment Level {W},Nominal Maximum Equipment Level {W}
 ElectricEquipment Internal Gains Nominal, CONVENTION CENTRE EXHIBIT SPACE-SPACE FUNCTION ZN SPACE FUNCTION CONVENTION CENTRE EXHIBIT SPACE ELEC EQUIP,NECB-C-ELECTRIC-EQUIPMENT,CONVENTION CENTRE EXHIBIT SPACE-SPACE FUNCTION ZN,1875.00,187.6,4689.204,2.501,25.000,0.000,0.500,0.000,0.500,General,234.460,4220.283
 ElectricEquipment Internal Gains Nominal, DORMITORY LIVING QUARTERS-SPACE FUNCTION ZN SPACE FUNCTION DORMITORY LIVING QUARTERS ELEC EQUIP,NECB-G-ELECTRIC-EQUIPMENT,DORMITORY LIVING QUARTERS-SPACE FUNCTION ZN,1875.00,75.0,4689.204,2.501,62.500,0.000,0.500,0.000,0.500,General,937.841,4220.283
 ElectricEquipment Internal Gains Nominal, DWELLING UNITS GENERAL-SPACE FUNCTION ZN SPACE FUNCTION DWELLING UNITS GENERAL ELEC EQUIP,NECB-G-ELECTRIC-EQUIPMENT,DWELLING UNITS GENERAL-SPACE FUNCTION ZN,1875.00,75.0,9378.407,5.002,125.000,0.000,0.500,0.000,0.500,General,1875.681,8440.566
 ElectricEquipment Internal Gains Nominal, DWELLING UNITS LONG-TERM-SPACE FUNCTION ZN SPACE FUNCTION DWELLING UNITS LONG-TERM ELEC EQUIP,NECB-J-ELECTRIC-EQUIPMENT,DWELLING UNITS LONG-TERM-SPACE FUNCTION ZN,1875.00,75.0,4689.204,2.501,62.500,0.000,0.500,0.000,0.500,General,468.920,3282.442
 ElectricEquipment Internal Gains Nominal, VEHICLE MAINTENANCE AREA-SPACE FUNCTION ZN SPACE FUNCTION VEHICLE MAINTENANCE AREA ELEC EQUIP,NECB-E-ELECTRIC-EQUIPMENT,VEHICLE MAINTENANCE AREA-SPACE FUNCTION ZN,1875.00,93.8,9378.407,5.002,100.000,0.000,0.500,0.000,0.500,General,468.920,8440.566
 ElectricEquipment Internal Gains Nominal, WORKSHOP-SPACE FUNCTION ZN SPACE FUNCTION WORKSHOP ELEC EQUIP,NECB-A-ELECTRIC-EQUIPMENT,WORKSHOP-SPACE FUNCTION ZN,2500.00,83.4,25009.086,10.004,300.000,0.000,0.500,0.000,0.500,General,5001.817,22508.177
! <Shadowing/Sun Position Calculations Annual Simulations>, Calculation Method, Value {days}, Allowable Number Figures in Shadow Overlap {}, Polygon Clipping Algorithm, Sky Diffuse Modeling Algorithm, External Shading Calculation Method, Output External Shading Calculation Results, Disable Self-Shading Within Shading Zone Groups, Disable Self-Shading From Shading Zone Groups to Other Zones
Shadowing/Sun Position Calculations Annual Simulations,AverageOverDaysInFrequency,20,15000,SutherlandHodgman,SimpleSkyDiffuseModeling,InternalCalculation,No,No,No
! <ZoneInfiltration Airflow Stats Nominal>,Name,Schedule Name,Zone Name, Zone Floor Area {m2}, # Zone Occupants,Design Volume Flow Rate {m3/s},Volume Flow Rate/Floor Area {m3/s/m2},Volume Flow Rate/Exterior Surface Area {m3/s/m2},ACH - Air Changes per Hour,Equation A - Constant Term Coefficient {},Equation B - Temperature Term Coefficient {1/C},Equation C - Velocity Term Coefficient {s/m}, Equation D - Velocity Squared Term Coefficient {s2/m2}
 ZoneInfiltration Airflow Stats Nominal, CONVENTION CENTRE EXHIBIT SPACE-SPACE FUNCTION INFILTRATION,ALWAYS ON DISCRETE,CONVENTION CENTRE EXHIBIT SPACE-SPACE FUNCTION ZN,1875.00,187.6,9.500E-002,5.067E-005,2.500E-004,4.800E-002,0.000,0.000,0.224,0.000
 ZoneInfiltration Airflow Stats Nominal, DORMITORY LIVING QUARTERS-SPACE FUNCTION INFILTRATION,ALWAYS ON DISCRETE,DORMITORY LIVING QUARTERS-SPACE FUNCTION ZN,1875.00,75.0,9.500E-002,5.067E-005,2.500E-004,4.800E-002,0.000,0.000,0.224,0.000
 ZoneInfiltration Airflow Stats Nominal, DWELLING UNITS GENERAL-SPACE FUNCTION INFILTRATION,ALWAYS ON DISCRETE,DWELLING UNITS GENERAL-SPACE FUNCTION ZN,1875.00,75.0,9.500E-002,5.067E-005,2.500E-004,4.800E-002,0.000,0.000,0.224,0.000
 ZoneInfiltration Airflow Stats Nominal, DWELLING UNITS LONG-TERM-SPACE FUNCTION INFILTRATION,ALWAYS ON DISCRETE,DWELLING UNITS LONG-TERM-SPACE FUNCTION ZN,1875.00,75.0,9.500E-002,5.067E-005,2.500E-004,4.800E-002,0.000,0.000,0.224,0.000
 ZoneInfiltration Airflow Stats Nominal, STORAGE ROOM <= 5 M2 <= 100 M2-SCH-I-SPACE FUNCTION INFILTRATION,ALWAYS ON DISCRETE,STORAGE ROOM <= 5 M2 <= 100 M2-SCH-I-SPACE FUNCTION ZN,1875.00,18.8,0.564,3.007E-004,2.500E-004,0.285,0.000,0.000,0.224,0.000
 ZoneInfiltration Airflow Stats Nominal, STORAGE ROOM <= 5 M2 <= 100 M2-SCH-J-SPACE FUNCTION INFILTRATION,ALWAYS ON DISCRETE,STORAGE ROOM <= 5 M2 <= 100 M2-SCH-J-SPACE FUNCTION ZN,1875.00,18.8,0.564,3.007E-004,2.500E-004,0.285,0.000,0.000,0.224,0.000
 ZoneInfiltration Airflow Stats Nominal, STORAGE ROOM <= 5 M2 <= 100 M2-SCH-K-SPACE FUNCTION INFILTRATION,ALWAYS ON DISCRETE,STORAGE ROOM <= 5 M2 <= 100 M2-SCH-K-SPACE FUNCTION ZN,1875.00,18.8,0.564,3.007E-004,2.500E-004,0.285,0.000,0.000,0.224,0.000
 ZoneInfiltration Airflow Stats Nominal, STORAGE ROOM > 100 M2-SCH-B-SPACE FUNCTION INFILTRATION,ALWAYS ON DISCRETE,STORAGE ROOM > 100 M2-SCH-B-SPACE FUNCTION ZN,1875.00,18.8,9.500E-002,5.067E-005,2.500E-004,4.800E-002,0.000,0.000,0.224,0.000
 ZoneInfiltration Airflow Stats Nominal, STORAGE ROOM > 100 M2-SCH-C-SPACE FUNCTION INFILTRATION,ALWAYS ON DISCRETE,STORAGE ROOM > 100 M2-SCH-C-SPACE FUNCTION ZN,1875.00,18.8,9.500E-002,5.067E-005,2.500E-004,4.800E-002,0.000,0.000,0.224,0.000
 ZoneInfiltration Airflow Stats Nominal, STORAGE ROOM > 100 M2-SCH-F-SPACE FUNCTION INFILTRATION,ALWAYS ON DISCRETE,STORAGE ROOM > 100 M2-SCH-F-SPACE FUNCTION ZN,1875.00,18.8,0.564,3.007E-004,2.500E-004,0.285,0.000,0.000,0.224,0.000
 ZoneInfiltration Airflow Stats Nominal, STORAGE ROOM > 100 M2-SCH-H-SPACE FUNCTION INFILTRATION,ALWAYS ON DISCRETE,STORAGE ROOM > 100 M2-SCH-H-SPACE FUNCTION ZN,1875.00,18.8,9.500E-002,5.067E-005,2.500E-004,4.800E-002,0.000,0.000,0.224,0.000
 ZoneInfiltration Airflow Stats Nominal, STORAGE ROOM > 100 M2-SCH-K-SPACE FUNCTION INFILTRATION,ALWAYS ON DISCRETE,STORAGE ROOM > 100 M2-SCH-K-SPACE FUNCTION ZN,2500.00,25.0,0.625,2.500E-004,2.500E-004,0.237,0.000,0.000,0.224,0.000
 ZoneInfiltration Airflow Stats Nominal, VEHICLE MAINTENANCE AREA-SPACE FUNCTION INFILTRATION,ALWAYS ON DISCRETE,VEHICLE MAINTENANCE AREA-SPACE FUNCTION ZN,1875.00,93.8,9.500E-002,5.067E-005,2.500E-004,4.800E-002,0.000,0.000,0.224,0.000
! <AirFlow Model>, Simple
 AirFlow Model, Simple
! <RoomAir Model>, Zone Name, Mixing/Mundt/UCSDDV/UCSDCV/UCSDUFI/UCSDUFE/User Defined
RoomAir Model,CONVENTION CENTRE EXHIBIT SPACE-SPACE FUNCTION ZN,Mixing/Well-Stirred
RoomAir Model,DORMITORY LIVING QUARTERS-SPACE FUNCTION ZN,Mixing/Well-Stirred
RoomAir Model,DWELLING UNITS GENERAL-SPACE FUNCTION ZN,Mixing/Well-Stirred
RoomAir Model,DWELLING UNITS LONG-TERM-SPACE FUNCTION ZN,Mixing/Well-Stirred
RoomAir Model,STORAGE ROOM <= 5 M2 <= 100 M2-SCH-I-SPACE FUNCTION ZN,Mixing/Well-Stirred
RoomAir Model,STORAGE ROOM <= 5 M2 <= 100 M2-SCH-J-SPACE FUNCTION ZN,Mixing/Well-Stirred
RoomAir Model,STORAGE ROOM <= 5 M2 <= 100 M2-SCH-K-SPACE FUNCTION ZN,Mixing/Well-Stirred
RoomAir Model,STORAGE ROOM > 100 M2-SCH-A-SPACE FUNCTION ZN,Mixing/Well-Stirred
RoomAir Model,STORAGE ROOM > 100 M2-SCH-B-SPACE FUNCTION ZN,Mixing/Well-Stirred
RoomAir Model,STORAGE ROOM > 100 M2-SCH-C-SPACE FUNCTION ZN,Mixing/Well-Stirred
RoomAir Model,STORAGE ROOM > 100 M2-SCH-D-SPACE FUNCTION ZN,Mixing/Well-Stirred
RoomAir Model,STORAGE ROOM > 100 M2-SCH-E-SPACE FUNCTION ZN,Mixing/Well-Stirred
RoomAir Model,STORAGE ROOM > 100 M2-SCH-F-SPACE FUNCTION ZN,Mixing/Well-Stirred
RoomAir Model,STORAGE ROOM > 100 M2-SCH-G-SPACE FUNCTION ZN,Mixing/Well-Stirred
RoomAir Model,STORAGE ROOM > 100 M2-SCH-H-SPACE FUNCTION ZN,Mixing/Well-Stirred
RoomAir Model,STORAGE ROOM > 100 M2-SCH-I-SPACE FUNCTION ZN,Mixing/Well-Stirred
RoomAir Model,STORAGE ROOM > 100 M2-SCH-J-SPACE FUNCTION ZN,Mixing/Well-Stirred
RoomAir Model,STORAGE ROOM > 100 M2-SCH-K-SPACE FUNCTION ZN,Mixing/Well-Stirred
RoomAir Model,VEHICLE MAINTENANCE AREA-SPACE FUNCTION ZN,Mixing/Well-Stirred
RoomAir Model,WORKSHOP-SPACE FUNCTION ZN,Mixing/Well-Stirred
! <AirflowNetwork Model:Control>, No Multizone or Distribution/Multizone with Distribution/Multizone without Distribution/Multizone with Distribution only during Fan Operation
AirflowNetwork Model:Control,NoMultizoneOrDistribution
! <Zone Volume Capacitance Multiplier>, Sensible Heat Capacity Multiplier, Moisture Capacity Multiplier, Carbon Dioxide Capacity Multiplier, Generic Contaminant Capacity Multiplier
Zone Volume Capacitance Multiplier,   1.000 ,   1.000,   1.000,   1.000
! <Load Timesteps in Zone Design Calculation Averaging Window>, Value
 Load Timesteps in Zone Design Calculation Averaging Window,    6
! <Heating Sizing Factor Information>, Sizing Factor ID, Value
 Heating Sizing Factor Information, Global,   1.2500    
 Heating Sizing Factor Information, Zone CONVENTION CENTRE EXHIBIT SPACE-SPACE FUNCTION ZN,   1.2500    
 Heating Sizing Factor Information, Zone DORMITORY LIVING QUARTERS-SPACE FUNCTION ZN,   1.2500    
 Heating Sizing Factor Information, Zone DWELLING UNITS GENERAL-SPACE FUNCTION ZN,   1.2500    
 Heating Sizing Factor Information, Zone DWELLING UNITS LONG-TERM-SPACE FUNCTION ZN,   1.2500    
 Heating Sizing Factor Information, Zone STORAGE ROOM <= 5 M2 <= 100 M2-SCH-I-SPACE FUNCTION ZN,   1.2500    
 Heating Sizing Factor Information, Zone STORAGE ROOM <= 5 M2 <= 100 M2-SCH-J-SPACE FUNCTION ZN,   1.2500    
 Heating Sizing Factor Information, Zone STORAGE ROOM <= 5 M2 <= 100 M2-SCH-K-SPACE FUNCTION ZN,   1.2500    
 Heating Sizing Factor Information, Zone STORAGE ROOM > 100 M2-SCH-A-SPACE FUNCTION ZN,   1.2500    
 Heating Sizing Factor Information, Zone STORAGE ROOM > 100 M2-SCH-B-SPACE FUNCTION ZN,   1.2500    
 Heating Sizing Factor Information, Zone STORAGE ROOM > 100 M2-SCH-C-SPACE FUNCTION ZN,   1.2500    
 Heating Sizing Factor Information, Zone STORAGE ROOM > 100 M2-SCH-D-SPACE FUNCTION ZN,   1.2500    
 Heating Sizing Factor Information, Zone STORAGE ROOM > 100 M2-SCH-E-SPACE FUNCTION ZN,   1.2500    
 Heating Sizing Factor Information, Zone STORAGE ROOM > 100 M2-SCH-F-SPACE FUNCTION ZN,   1.2500    
 Heating Sizing Factor Information, Zone STORAGE ROOM > 100 M2-SCH-G-SPACE FUNCTION ZN,   1.2500    
 Heating Sizing Factor Information, Zone STORAGE ROOM > 100 M2-SCH-H-SPACE FUNCTION ZN,   1.2500    
 Heating Sizing Factor Information, Zone STORAGE ROOM > 100 M2-SCH-I-SPACE FUNCTION ZN,   1.2500    
 Heating Sizing Factor Information, Zone STORAGE ROOM > 100 M2-SCH-J-SPACE FUNCTION ZN,   1.2500    
 Heating Sizing Factor Information, Zone STORAGE ROOM > 100 M2-SCH-K-SPACE FUNCTION ZN,   1.2500    
 Heating Sizing Factor Information, Zone VEHICLE MAINTENANCE AREA-SPACE FUNCTION ZN,   1.2500    
 Heating Sizing Factor Information, Zone WORKSHOP-SPACE FUNCTION ZN,   1.2500    
! <Cooling Sizing Factor Information>, Sizing Factor ID, Value
 Cooling Sizing Factor Information, Global,   1.1500    
 Cooling Sizing Factor Information, Zone CONVENTION CENTRE EXHIBIT SPACE-SPACE FUNCTION ZN,   1.1500    
 Cooling Sizing Factor Information, Zone DORMITORY LIVING QUARTERS-SPACE FUNCTION ZN,   1.1500    
 Cooling Sizing Factor Information, Zone DWELLING UNITS GENERAL-SPACE FUNCTION ZN,   1.1500    
 Cooling Sizing Factor Information, Zone DWELLING UNITS LONG-TERM-SPACE FUNCTION ZN,   1.1500    
 Cooling Sizing Factor Information, Zone STORAGE ROOM <= 5 M2 <= 100 M2-SCH-I-SPACE FUNCTION ZN,   1.1500    
 Cooling Sizing Factor Information, Zone STORAGE ROOM <= 5 M2 <= 100 M2-SCH-J-SPACE FUNCTION ZN,   1.1500    
 Cooling Sizing Factor Information, Zone STORAGE ROOM <= 5 M2 <= 100 M2-SCH-K-SPACE FUNCTION ZN,   1.1500    
 Cooling Sizing Factor Information, Zone STORAGE ROOM > 100 M2-SCH-A-SPACE FUNCTION ZN,   1.1500    
 Cooling Sizing Factor Information, Zone STORAGE ROOM > 100 M2-SCH-B-SPACE FUNCTION ZN,   1.1500    
 Cooling Sizing Factor Information, Zone STORAGE ROOM > 100 M2-SCH-C-SPACE FUNCTION ZN,   1.1500    
 Cooling Sizing Factor Information, Zone STORAGE ROOM > 100 M2-SCH-D-SPACE FUNCTION ZN,   1.1500    
 Cooling Sizing Factor Information, Zone STORAGE ROOM > 100 M2-SCH-E-SPACE FUNCTION ZN,   1.1500    
 Cooling Sizing Factor Information, Zone STORAGE ROOM > 100 M2-SCH-F-SPACE FUNCTION ZN,   1.1500    
 Cooling Sizing Factor Information, Zone STORAGE ROOM > 100 M2-SCH-G-SPACE FUNCTION ZN,   1.1500    
 Cooling Sizing Factor Information, Zone STORAGE ROOM > 100 M2-SCH-H-SPACE FUNCTION ZN,   1.1500    
 Cooling Sizing Factor Information, Zone STORAGE ROOM > 100 M2-SCH-I-SPACE FUNCTION ZN,   1.1500    
 Cooling Sizing Factor Information, Zone STORAGE ROOM > 100 M2-SCH-J-SPACE FUNCTION ZN,   1.1500    
 Cooling Sizing Factor Information, Zone STORAGE ROOM > 100 M2-SCH-K-SPACE FUNCTION ZN,   1.1500    
 Cooling Sizing Factor Information, Zone VEHICLE MAINTENANCE AREA-SPACE FUNCTION ZN,   1.1500    
 Cooling Sizing Factor Information, Zone WORKSHOP-SPACE FUNCTION ZN,   1.1500    
! <Zone Sizing Information>, Zone Name, Load Type, Calc Des Load {W}, User Des Load {W}, Calc Des Air Flow Rate {m3/s}, User Des Air Flow Rate {m3/s}, Design Day Name, Date/Time of Peak, Temperature at Peak {C}, Humidity Ratio at Peak {kgWater/kgDryAir}, Floor Area {m2}, # Occupants, Calc Outdoor Air Flow Rate {m3/s}, Calc DOAS Heat Addition Rate {W}
 Zone Sizing Information, CONVENTION CENTRE EXHIBIT SPACE-SPACE FUNCTION ZN, Cooling, 36851.70373, 42379.45929, 3.13336, 3.60337, FORT MCMURRAY AP ANN CLG .4% CONDNS DB=>MWB, 7/21 17:00:00, 27.16400, 8.76969E-003, 1875.00000, 187.56814, 1.61925, 0.00000
 Zone Sizing Information, CONVENTION CENTRE EXHIBIT SPACE-SPACE FUNCTION ZN, Heating, 17169.50700, 21461.88375, 0.77142, 1.61925, FORT MCMURRAY AP ANN HTG 99.6% CONDNS DB, 1/21 09:00:00, -36.20000, 1.25811E-004, 1875.00000, 187.56814, 1.61925, 0.00000
 Zone Sizing Information, DORMITORY LIVING QUARTERS-SPACE FUNCTION ZN, Cooling, 27194.57843, 31273.76519, 2.31194, 2.65873, FORT MCMURRAY AP ANN CLG .4% CONDNS DB=>MWB, 7/21 08:50:00, 21.68733, 8.76969E-003, 1875.00000, 75.02726, 1.04775, 0.00000
 Zone Sizing Information, DORMITORY LIVING QUARTERS-SPACE FUNCTION ZN, Heating, 12279.75691, 15349.69613, 0.56798, 1.04775, FORT MCMURRAY AP ANN HTG 99.6% CONDNS DB, 1/21 09:00:00, -36.20000, 1.25811E-004, 1875.00000, 75.02726, 1.04775, 0.00000
 Zone Sizing Information, DWELLING UNITS GENERAL-SPACE FUNCTION ZN, Cooling, 32999.14780, 37949.01997, 2.80540, 3.22621, FORT MCMURRAY AP ANN CLG .4% CONDNS DB=>MWB, 7/21 20:00:00, 22.70000, 8.76969E-003, 1875.00000, 75.02726, 0.74295, 0.00000
 Zone Sizing Information, DWELLING UNITS GENERAL-SPACE FUNCTION ZN, Heating, 9710.89006, 12138.61258, 0.45911, 0.74295, FORT MCMURRAY AP ANN HTG 99.6% CONDNS DB, 1/21 10:10:00, -36.20000, 1.25811E-004, 1875.00000, 75.02726, 0.74295, 0.00000
 Zone Sizing Information, DWELLING UNITS LONG-TERM-SPACE FUNCTION ZN, Cooling, 23677.79585, 27229.46523, 2.01300, 2.31495, FORT MCMURRAY AP ANN CLG .4% CONDNS DB=>MWB, 7/21 13:50:00, 28.79667, 8.76969E-003, 1875.00000, 75.02726, 1.04775, 0.00000
 Zone Sizing Information, DWELLING UNITS LONG-TERM-SPACE FUNCTION ZN, Heating, 5723.38691, 7154.23364, 0.27057, 1.04775, FORT MCMURRAY AP ANN HTG 99.6% CONDNS DB, 1/21 05:00:00, -36.20000, 1.25811E-004, 1875.00000, 75.02726, 1.04775, 0.00000
 Zone Sizing Information, STORAGE ROOM <= 5 M2 <= 100 M2-SCH-I-SPACE FUNCTION ZN, Cooling, 119162.25662, 137036.59512, 8.12323, 9.34171, FORT MCMURRAY AP ANN CLG .4% CONDNS DB=>MWB, 7/21 15:00:00, 28.90000, 8.76969E-003, 1875.00000, 18.75681, 0.66675, 0.00000
 Zone Sizing Information, STORAGE ROOM <= 5 M2 <= 100 M2-SCH-I-SPACE FUNCTION ZN, Heating, 51309.16132, 64136.45165, 2.38164, 2.97705, FORT MCMURRAY AP ANN HTG 99.6% CONDNS DB, 1/21 16:00:00, -36.20000, 1.25811E-004, 1875.00000, 18.75681, 0.66675, 0.00000
 Zone Sizing Information, STORAGE ROOM <= 5 M2 <= 100 M2-SCH-J-SPACE FUNCTION ZN, Cooling, 59625.51925, 68569.34714, 5.06887, 5.82920, FORT MCMURRAY AP ANN CLG .4% CONDNS DB=>MWB, 7/21 10:20:00, 24.80800, 8.76969E-003, 1875.00000, 18.75681, 0.66675, 0.00000
 Zone Sizing Information, STORAGE ROOM <= 5 M2 <= 100 M2-SCH-J-SPACE FUNCTION ZN, Heating, 42819.94389, 53524.92987, 2.02407, 2.53009, FORT MCMURRAY AP ANN HTG 99.6% CONDNS DB, 1/21 05:00:00, -36.20000, 1.25811E-004, 1875.00000, 18.75681, 0.66675, 0.00000
 Zone Sizing Information, STORAGE ROOM <= 5 M2 <= 100 M2-SCH-K-SPACE FUNCTION ZN, Cooling, 0.00000, 0.00000, 0.00000, 0.66675, FORT MCMURRAY AP ANN CLG .4% CONDNS DB=>MWB, , 28.90000, 8.76969E-003, 1875.00000, 18.75681, 0.66675, 0.00000
 Zone Sizing Information, STORAGE ROOM <= 5 M2 <= 100 M2-SCH-K-SPACE FUNCTION ZN, Heating, 0.00000, 0.00000, 0.00000, 0.66675, FORT MCMURRAY AP ANN HTG 99.6% CONDNS DB, , -36.20000, 1.25811E-004, 1875.00000, 18.75681, 0.66675, 0.00000
 Zone Sizing Information, STORAGE ROOM > 100 M2-SCH-A-SPACE FUNCTION ZN, Cooling, 43151.95154, 49624.74427, 3.30161, 3.79685, FORT MCMURRAY AP ANN CLG .4% CONDNS DB=>MWB, 7/21 07:00:00, 17.61600, 8.76969E-003, 2500.00000, 25.00909, 0.88900, 0.00000
 Zone Sizing Information, STORAGE ROOM > 100 M2-SCH-A-SPACE FUNCTION ZN, Heating, 6952.04387, 8690.05483, 0.32398, 0.88900, FORT MCMURRAY AP ANN HTG 99.6% CONDNS DB, 1/21 08:00:00, -36.20000, 1.25811E-004, 2500.00000, 25.00909, 0.88900, 0.00000
 Zone Sizing Information, STORAGE ROOM > 100 M2-SCH-B-SPACE FUNCTION ZN, Cooling, 40953.62270, 47096.66610, 3.13048, 3.60005, FORT MCMURRAY AP ANN CLG .4% CONDNS DB=>MWB, 7/21 09:00:00, 22.08000, 8.76969E-003, 1875.00000, 18.75681, 0.66675, 0.00000
 Zone Sizing Information, STORAGE ROOM > 100 M2-SCH-B-SPACE FUNCTION ZN, Heating, 24965.15819, 31206.44774, 1.14040, 1.42550, FORT MCMURRAY AP ANN HTG 99.6% CONDNS DB, 1/21 10:00:00, -36.20000, 1.25811E-004, 1875.00000, 18.75681, 0.66675, 0.00000
 Zone Sizing Information, STORAGE ROOM > 100 M2-SCH-C-SPACE FUNCTION ZN, Cooling, 32497.82052, 37372.49360, 2.52414, 2.90276, FORT MCMURRAY AP ANN CLG .4% CONDNS DB=>MWB, 7/21 08:00:00, 19.72400, 8.76969E-003, 1875.00000, 18.75681, 0.66675, 0.00000
 Zone Sizing Information, STORAGE ROOM > 100 M2-SCH-C-SPACE FUNCTION ZN, Heating, 37083.79993, 46354.74991, 1.71149, 2.13936, FORT MCMURRAY AP ANN HTG 99.6% CONDNS DB, 1/21 09:00:00, -36.20000, 1.25811E-004, 1875.00000, 18.75681, 0.66675, 0.00000
 Zone Sizing Information, STORAGE ROOM > 100 M2-SCH-D-SPACE FUNCTION ZN, Cooling, 10497.58013, 12072.21716, 0.84372, 0.97028, FORT MCMURRAY AP ANN CLG .4% CONDNS DB=>MWB, 7/21 08:00:00, 19.72400, 8.76969E-003, 1875.00000, 18.75681, 0.66675, 0.00000
 Zone Sizing Information, STORAGE ROOM > 100 M2-SCH-D-SPACE FUNCTION ZN, Heating, 3111.34238, 3889.17797, 0.14488, 0.66675, FORT MCMURRAY AP ANN HTG 99.6% CONDNS DB, 1/21 09:00:00, -36.20000, 1.25811E-004, 1875.00000, 18.75681, 0.66675, 0.00000
 Zone Sizing Information, STORAGE ROOM > 100 M2-SCH-E-SPACE FUNCTION ZN, Cooling, 11341.39677, 13042.60629, 0.96416, 1.10878, FORT MCMURRAY AP ANN CLG .4% CONDNS DB=>MWB, 7/21 12:40:00, 27.94933, 8.76969E-003, 1875.00000, 18.75681, 0.66675, 0.00000
 Zone Sizing Information, STORAGE ROOM > 100 M2-SCH-E-SPACE FUNCTION ZN, Heating, 3519.97396, 4399.96744, 0.16315, 0.66675, FORT MCMURRAY AP ANN HTG 99.6% CONDNS DB, 1/21 09:00:00, -36.20000, 1.25811E-004, 1875.00000, 18.75681, 0.66675, 0.00000
 Zone Sizing Information, STORAGE ROOM > 100 M2-SCH-F-SPACE FUNCTION ZN, Cooling, 59675.99776, 68627.39743, 5.07314, 5.83412, FORT MCMURRAY AP ANN CLG .4% CONDNS DB=>MWB, 7/21 16:10:00, 27.99067, 8.76969E-003, 1875.00000, 18.75681, 0.66675, 0.00000
 Zone Sizing Information, STORAGE ROOM > 100 M2-SCH-F-SPACE FUNCTION ZN, Heating, 57297.53826, 71621.92282, 2.66388, 3.32986, FORT MCMURRAY AP ANN HTG 99.6% CONDNS DB, 1/21 09:00:00, -36.20000, 1.25811E-004, 1875.00000, 18.75681, 0.66675, 0.00000
 Zone Sizing Information, STORAGE ROOM > 100 M2-SCH-G-SPACE FUNCTION ZN, Cooling, 9735.28100, 11195.57315, 0.82762, 0.95176, FORT MCMURRAY AP ANN CLG .4% CONDNS DB=>MWB, 7/21 22:00:00, 20.46800, 8.76969E-003, 1875.00000, 18.75681, 0.66675, 0.00000
 Zone Sizing Information, STORAGE ROOM > 100 M2-SCH-G-SPACE FUNCTION ZN, Heating, 1627.56185, 2034.45232, 7.69395E-002, 0.66675, FORT MCMURRAY AP ANN HTG 99.6% CONDNS DB, 1/21 17:00:00, -36.20000, 1.25811E-004, 1875.00000, 18.75681, 0.66675, 0.00000
 Zone Sizing Information, STORAGE ROOM > 100 M2-SCH-H-SPACE FUNCTION ZN, Cooling, 38215.07179, 43947.33256, 3.24874, 3.73605, FORT MCMURRAY AP ANN CLG .4% CONDNS DB=>MWB, 7/21 14:40:00, 28.90000, 8.76969E-003, 1875.00000, 18.75681, 0.66675, 0.00000
 Zone Sizing Information, STORAGE ROOM > 100 M2-SCH-H-SPACE FUNCTION ZN, Heating, 24775.39865, 30969.24832, 1.13010, 1.41262, FORT MCMURRAY AP ANN HTG 99.6% CONDNS DB, 1/21 09:00:00, -36.20000, 1.25811E-004, 1875.00000, 18.75681, 0.66675, 0.00000
 Zone Sizing Information, STORAGE ROOM > 100 M2-SCH-I-SPACE FUNCTION ZN, Cooling, 12555.56422, 14438.89886, 1.00030, 1.15034, FORT MCMURRAY AP ANN CLG .4% CONDNS DB=>MWB, 7/21 15:00:00, 28.90000, 8.76969E-003, 1875.00000, 18.75681, 0.66675, 0.00000
 Zone Sizing Information, STORAGE ROOM > 100 M2-SCH-I-SPACE FUNCTION ZN, Heating, 2130.55917, 2663.19896, 9.86497E-002, 0.66675, FORT MCMURRAY AP ANN HTG 99.6% CONDNS DB, 1/21 15:40:00, -36.20000, 1.25811E-004, 1875.00000, 18.75681, 0.66675, 0.00000
 Zone Sizing Information, STORAGE ROOM > 100 M2-SCH-J-SPACE FUNCTION ZN, Cooling, 13382.18475, 15389.51246, 1.13765, 1.30830, FORT MCMURRAY AP ANN CLG .4% CONDNS DB=>MWB, 7/21 23:00:00, 19.60000, 8.76969E-003, 2500.00000, 25.00909, 0.88900, 0.00000
 Zone Sizing Information, STORAGE ROOM > 100 M2-SCH-J-SPACE FUNCTION ZN, Heating, 0.00000, 0.00000, 0.00000, 0.88900, FORT MCMURRAY AP ANN HTG 99.6% CONDNS DB, , -36.20000, 1.25811E-004, 2500.00000, 25.00909, 0.88900, 0.00000
 Zone Sizing Information, STORAGE ROOM > 100 M2-SCH-K-SPACE FUNCTION ZN, Cooling, 0.00000, 0.00000, 0.00000, 0.88900, FORT MCMURRAY AP ANN CLG .4% CONDNS DB=>MWB, , 28.90000, 8.76969E-003, 2500.00000, 25.00909, 0.88900, 0.00000
 Zone Sizing Information, STORAGE ROOM > 100 M2-SCH-K-SPACE FUNCTION ZN, Heating, 0.00000, 0.00000, 0.00000, 0.88900, FORT MCMURRAY AP ANN HTG 99.6% CONDNS DB, , -36.20000, 1.25811E-004, 2500.00000, 25.00909, 0.88900, 0.00000
 Zone Sizing Information, VEHICLE MAINTENANCE AREA-SPACE FUNCTION ZN, Cooling, 47824.50294, 54998.17839, 4.06600, 14.28750, FORT MCMURRAY AP ANN CLG .4% CONDNS DB=>MWB, 7/21 18:00:00, 25.92400, 8.76969E-003, 1875.00000, 93.78407, 14.28750, 0.00000
 Zone Sizing Information, VEHICLE MAINTENANCE AREA-SPACE FUNCTION ZN, Heating, 29363.49727, 36704.37158, 1.34671, 14.28750, FORT MCMURRAY AP ANN HTG 99.6% CONDNS DB, 1/21 09:00:00, -36.20000, 1.25811E-004, 1875.00000, 93.78407, 14.28750, 0.00000
 Zone Sizing Information, WORKSHOP-SPACE FUNCTION ZN, Cooling, 50946.73086, 58588.74048, 4.33135, 4.98105, FORT MCMURRAY AP ANN CLG .4% CONDNS DB=>MWB, 7/21 17:00:00, 27.16400, 8.76969E-003, 2500.00000, 83.36362, 4.82600, 0.00000
 Zone Sizing Information, WORKSHOP-SPACE FUNCTION ZN, Heating, 0.00000, 0.00000, 0.00000, 4.82600, FORT MCMURRAY AP ANN HTG 99.6% CONDNS DB, , -36.20000, 1.25811E-004, 2500.00000, 83.36362, 4.82600, 0.00000
! <Component Sizing Information>, Component Type, Component Name, Input Field Description, Value
 Component Sizing Information, ZoneHVAC:IdealLoadsAirSystem, ZONE HVAC IDEAL LOADS AIR SYSTEM 1, User-Specified Maximum Heating Air Flow Rate [m3/s], 0.00000
 Component Sizing Information, ZoneHVAC:IdealLoadsAirSystem, ZONE HVAC IDEAL LOADS AIR SYSTEM 1, User-Specified Maximum Cooling Air Flow Rate [m3/s], 0.00000
 Component Sizing Information, ZoneHVAC:IdealLoadsAirSystem, ZONE HVAC IDEAL LOADS AIR SYSTEM 2, User-Specified Maximum Heating Air Flow Rate [m3/s], 0.00000
 Component Sizing Information, ZoneHVAC:IdealLoadsAirSystem, ZONE HVAC IDEAL LOADS AIR SYSTEM 2, User-Specified Maximum Cooling Air Flow Rate [m3/s], 0.00000
 Component Sizing Information, ZoneHVAC:IdealLoadsAirSystem, ZONE HVAC IDEAL LOADS AIR SYSTEM 3, User-Specified Maximum Heating Air Flow Rate [m3/s], 0.00000
 Component Sizing Information, ZoneHVAC:IdealLoadsAirSystem, ZONE HVAC IDEAL LOADS AIR SYSTEM 3, User-Specified Maximum Cooling Air Flow Rate [m3/s], 0.00000
 Component Sizing Information, ZoneHVAC:IdealLoadsAirSystem, ZONE HVAC IDEAL LOADS AIR SYSTEM 4, User-Specified Maximum Heating Air Flow Rate [m3/s], 0.00000
 Component Sizing Information, ZoneHVAC:IdealLoadsAirSystem, ZONE HVAC IDEAL LOADS AIR SYSTEM 4, User-Specified Maximum Cooling Air Flow Rate [m3/s], 0.00000
 Component Sizing Information, ZoneHVAC:IdealLoadsAirSystem, ZONE HVAC IDEAL LOADS AIR SYSTEM 5, User-Specified Maximum Heating Air Flow Rate [m3/s], 0.00000
 Component Sizing Information, ZoneHVAC:IdealLoadsAirSystem, ZONE HVAC IDEAL LOADS AIR SYSTEM 5, User-Specified Maximum Cooling Air Flow Rate [m3/s], 0.00000
 Component Sizing Information, ZoneHVAC:IdealLoadsAirSystem, ZONE HVAC IDEAL LOADS AIR SYSTEM 6, User-Specified Maximum Heating Air Flow Rate [m3/s], 0.00000
 Component Sizing Information, ZoneHVAC:IdealLoadsAirSystem, ZONE HVAC IDEAL LOADS AIR SYSTEM 6, User-Specified Maximum Cooling Air Flow Rate [m3/s], 0.00000
 Component Sizing Information, ZoneHVAC:IdealLoadsAirSystem, ZONE HVAC IDEAL LOADS AIR SYSTEM 7, User-Specified Maximum Heating Air Flow Rate [m3/s], 0.00000
 Component Sizing Information, ZoneHVAC:IdealLoadsAirSystem, ZONE HVAC IDEAL LOADS AIR SYSTEM 7, User-Specified Maximum Cooling Air Flow Rate [m3/s], 0.00000
 Component Sizing Information, ZoneHVAC:IdealLoadsAirSystem, ZONE HVAC IDEAL LOADS AIR SYSTEM 8, User-Specified Maximum Heating Air Flow Rate [m3/s], 0.00000
 Component Sizing Information, ZoneHVAC:IdealLoadsAirSystem, ZONE HVAC IDEAL LOADS AIR SYSTEM 8, User-Specified Maximum Cooling Air Flow Rate [m3/s], 0.00000
 Component Sizing Information, ZoneHVAC:IdealLoadsAirSystem, ZONE HVAC IDEAL LOADS AIR SYSTEM 9, User-Specified Maximum Heating Air Flow Rate [m3/s], 0.00000
 Component Sizing Information, ZoneHVAC:IdealLoadsAirSystem, ZONE HVAC IDEAL LOADS AIR SYSTEM 9, User-Specified Maximum Cooling Air Flow Rate [m3/s], 0.00000
 Component Sizing Information, ZoneHVAC:IdealLoadsAirSystem, ZONE HVAC IDEAL LOADS AIR SYSTEM 10, User-Specified Maximum Heating Air Flow Rate [m3/s], 0.00000
 Component Sizing Information, ZoneHVAC:IdealLoadsAirSystem, ZONE HVAC IDEAL LOADS AIR SYSTEM 10, User-Specified Maximum Cooling Air Flow Rate [m3/s], 0.00000
 Component Sizing Information, ZoneHVAC:IdealLoadsAirSystem, ZONE HVAC IDEAL LOADS AIR SYSTEM 11, User-Specified Maximum Heating Air Flow Rate [m3/s], 0.00000
 Component Sizing Information, ZoneHVAC:IdealLoadsAirSystem, ZONE HVAC IDEAL LOADS AIR SYSTEM 11, User-Specified Maximum Cooling Air Flow Rate [m3/s], 0.00000
 Component Sizing Information, ZoneHVAC:IdealLoadsAirSystem, ZONE HVAC IDEAL LOADS AIR SYSTEM 12, User-Specified Maximum Heating Air Flow Rate [m3/s], 0.00000
 Component Sizing Information, ZoneHVAC:IdealLoadsAirSystem, ZONE HVAC IDEAL LOADS AIR SYSTEM 12, User-Specified Maximum Cooling Air Flow Rate [m3/s], 0.00000
 Component Sizing Information, ZoneHVAC:IdealLoadsAirSystem, ZONE HVAC IDEAL LOADS AIR SYSTEM 13, User-Specified Maximum Heating Air Flow Rate [m3/s], 0.00000
 Component Sizing Information, ZoneHVAC:IdealLoadsAirSystem, ZONE HVAC IDEAL LOADS AIR SYSTEM 13, User-Specified Maximum Cooling Air Flow Rate [m3/s], 0.00000
 Component Sizing Information, ZoneHVAC:IdealLoadsAirSystem, ZONE HVAC IDEAL LOADS AIR SYSTEM 14, User-Specified Maximum Heating Air Flow Rate [m3/s], 0.00000
 Component Sizing Information, ZoneHVAC:IdealLoadsAirSystem, ZONE HVAC IDEAL LOADS AIR SYSTEM 14, User-Specified Maximum Cooling Air Flow Rate [m3/s], 0.00000
 Component Sizing Information, ZoneHVAC:IdealLoadsAirSystem, ZONE HVAC IDEAL LOADS AIR SYSTEM 15, User-Specified Maximum Heating Air Flow Rate [m3/s], 0.00000
 Component Sizing Information, ZoneHVAC:IdealLoadsAirSystem, ZONE HVAC IDEAL LOADS AIR SYSTEM 15, User-Specified Maximum Cooling Air Flow Rate [m3/s], 0.00000
 Component Sizing Information, ZoneHVAC:IdealLoadsAirSystem, ZONE HVAC IDEAL LOADS AIR SYSTEM 16, User-Specified Maximum Heating Air Flow Rate [m3/s], 0.00000
 Component Sizing Information, ZoneHVAC:IdealLoadsAirSystem, ZONE HVAC IDEAL LOADS AIR SYSTEM 16, User-Specified Maximum Cooling Air Flow Rate [m3/s], 0.00000
 Component Sizing Information, ZoneHVAC:IdealLoadsAirSystem, ZONE HVAC IDEAL LOADS AIR SYSTEM 17, User-Specified Maximum Heating Air Flow Rate [m3/s], 0.00000
 Component Sizing Information, ZoneHVAC:IdealLoadsAirSystem, ZONE HVAC IDEAL LOADS AIR SYSTEM 17, User-Specified Maximum Cooling Air Flow Rate [m3/s], 0.00000
 Component Sizing Information, ZoneHVAC:IdealLoadsAirSystem, ZONE HVAC IDEAL LOADS AIR SYSTEM 18, User-Specified Maximum Heating Air Flow Rate [m3/s], 0.00000
 Component Sizing Information, ZoneHVAC:IdealLoadsAirSystem, ZONE HVAC IDEAL LOADS AIR SYSTEM 18, User-Specified Maximum Cooling Air Flow Rate [m3/s], 0.00000
 Component Sizing Information, ZoneHVAC:IdealLoadsAirSystem, ZONE HVAC IDEAL LOADS AIR SYSTEM 19, User-Specified Maximum Heating Air Flow Rate [m3/s], 0.00000
 Component Sizing Information, ZoneHVAC:IdealLoadsAirSystem, ZONE HVAC IDEAL LOADS AIR SYSTEM 19, User-Specified Maximum Cooling Air Flow Rate [m3/s], 0.00000
 Component Sizing Information, ZoneHVAC:IdealLoadsAirSystem, ZONE HVAC IDEAL LOADS AIR SYSTEM 20, User-Specified Maximum Heating Air Flow Rate [m3/s], 0.00000
 Component Sizing Information, ZoneHVAC:IdealLoadsAirSystem, ZONE HVAC IDEAL LOADS AIR SYSTEM 20, User-Specified Maximum Cooling Air Flow Rate [m3/s], 0.00000
! <Environment>,Environment Name,Environment Type, Start Date, End Date, Start DayOfWeek, Duration {#days}, Source:Start DayOfWeek,  Use Daylight Saving, Use Holidays, Apply Weekend Holiday Rule,  Use Rain Values, Use Snow Values
! <Environment:Special Days>, Special Day Name, Special Day Type, Source, Start Date, Duration {#days}
! <Environment:Daylight Saving>, Daylight Saving Indicator, Source, Start Date, End Date
! <Environment:WarmupDays>, NumberofWarmupDays
Environment,FORT MCMURRAY AP ANN CLG .4% CONDNS DB=>MWB,SizingPeriod:DesignDay,07/21,07/21,SummerDesignDay,1,N/A,N/A,N/A,N/A,N/A,N/A
Environment:Daylight Saving,No,SizingPeriod:DesignDay
! <Environment:Design Day Data>, Max Dry-Bulb Temp {C}, Temp Range {dC}, Temp Range Ind Type, Hum Ind Value at Max Temp, Hum Ind Type,Pressure {Pa}, Wind Direction {deg CW from N}, Wind Speed {m/s}, Clearness, Rain, Snow
! <Environment:Design Day Misc>,DayOfYear,ASHRAE A Coeff,ASHRAE B Coeff,ASHRAE C Coeff,Solar Constant-Annual Variation,Eq of Time {minutes}, Solar Declination Angle {deg}, Solar Model
Environment:Design Day Data,28.90,12.40,DefaultMultipliers,96969,250,3.7,0.00,No,No
Environment:Design Day Misc,202,1084.4,0.2082,0.1365,1.0,-6.23,20.6,ASHRAETau
Environment:WarmupDays,  6
! <Tabular Report>,Style,Unit Conversion
Tabular Report,HTML,None
! <Warmup Convergence Information>,Zone Name,Environment Type/Name,Average Warmup Temperature Difference {deltaC},Std Dev Warmup Temperature Difference {deltaC},Max Temperature Pass/Fail Convergence,Min Temperature Pass/Fail Convergence,Average Warmup Load Difference {W},Std Dev Warmup Load Difference {W},Heating Load Pass/Fail Convergence,Cooling Load Pass/Fail Convergence
 Warmup Convergence Information,CONVENTION CENTRE EXHIBIT SPACE-SPACE FUNCTION ZN,SizingPeriod: FORT MCMURRAY AP ANN CLG .4% CONDNS DB=>MWB,1.9033999014E-002,3.7799735548E-002,Pass,Pass,4.2755745713E-002,0.2110354970,Pass,Pass
 Warmup Convergence Information,DORMITORY LIVING QUARTERS-SPACE FUNCTION ZN,SizingPeriod: FORT MCMURRAY AP ANN CLG .4% CONDNS DB=>MWB,2.6941412064E-014,2.1612341546E-014,Pass,Pass,1.8507727296E-002,2.7639361964E-002,Pass,Pass
 Warmup Convergence Information,DWELLING UNITS GENERAL-SPACE FUNCTION ZN,SizingPeriod: FORT MCMURRAY AP ANN CLG .4% CONDNS DB=>MWB,2.8026963466E-014,2.5615941302E-014,Pass,Pass,2.6164738728E-002,5.3540951706E-002,Pass,Pass
 Warmup Convergence Information,DWELLING UNITS LONG-TERM-SPACE FUNCTION ZN,SizingPeriod: FORT MCMURRAY AP ANN CLG .4% CONDNS DB=>MWB,2.8569739167E-014,2.5124532111E-014,Pass,Pass,1.2961470493E-002,1.5701869406E-002,Pass,Pass
 Warmup Convergence Information,STORAGE ROOM <= 5 M2 <= 100 M2-SCH-I-SPACE FUNCTION ZN,SizingPeriod: FORT MCMURRAY AP ANN CLG .4% CONDNS DB=>MWB,0.1693328973,0.8924557539,Pass,Pass,4.5459410455E-002,0.1598608884,Pass,Pass
 Warmup Convergence Information,STORAGE ROOM <= 5 M2 <= 100 M2-SCH-J-SPACE FUNCTION ZN,SizingPeriod: FORT MCMURRAY AP ANN CLG .4% CONDNS DB=>MWB,1.3091193499E-002,3.5538662156E-002,Pass,Pass,3.4720957208E-002,5.7261074685E-002,Pass,Pass
 Warmup Convergence Information,STORAGE ROOM <= 5 M2 <= 100 M2-SCH-K-SPACE FUNCTION ZN,SizingPeriod: FORT MCMURRAY AP ANN CLG .4% CONDNS DB=>MWB,7.6626202539E-002,4.5305531499E-002,Pass,Pass,2.7569061508E-002,2.1580408818E-002,Pass,Pass
 Warmup Convergence Information,STORAGE ROOM > 100 M2-SCH-A-SPACE FUNCTION ZN,SizingPeriod: FORT MCMURRAY AP ANN CLG .4% CONDNS DB=>MWB,2.5880130434E-002,8.4258990290E-002,Pass,Pass,5.3346470513E-002,0.3778297013,Pass,Pass
 Warmup Convergence Information,STORAGE ROOM > 100 M2-SCH-B-SPACE FUNCTION ZN,SizingPeriod: FORT MCMURRAY AP ANN CLG .4% CONDNS DB=>MWB,4.5120413919E-002,0.2307006523,Pass,Pass,3.2767050884E-002,0.1866905064,Pass,Pass
 Warmup Convergence Information,STORAGE ROOM > 100 M2-SCH-C-SPACE FUNCTION ZN,SizingPeriod: FORT MCMURRAY AP ANN CLG .4% CONDNS DB=>MWB,2.8614950137E-002,0.1013040454,Pass,Pass,6.3400892009E-002,0.4502175227,Pass,Pass
 Warmup Convergence Information,STORAGE ROOM > 100 M2-SCH-D-SPACE FUNCTION ZN,SizingPeriod: FORT MCMURRAY AP ANN CLG .4% CONDNS DB=>MWB,9.0315603306E-003,1.7296881104E-002,Pass,Pass,2.8574449793E-002,8.0907325352E-002,Pass,Pass
 Warmup Convergence Information,STORAGE ROOM > 100 M2-SCH-E-SPACE FUNCTION ZN,SizingPeriod: FORT MCMURRAY AP ANN CLG .4% CONDNS DB=>MWB,1.6313261330E-002,2.6976994876E-002,Pass,Pass,0.1146323818,0.9363038966,Pass,Pass
 Warmup Convergence Information,STORAGE ROOM > 100 M2-SCH-F-SPACE FUNCTION ZN,SizingPeriod: FORT MCMURRAY AP ANN CLG .4% CONDNS DB=>MWB,2.1402400834E-002,4.0325714786E-002,Pass,Pass,3.8238650022E-002,7.6907182878E-002,Pass,Pass
 Warmup Convergence Information,STORAGE ROOM > 100 M2-SCH-G-SPACE FUNCTION ZN,SizingPeriod: FORT MCMURRAY AP ANN CLG .4% CONDNS DB=>MWB,6.3443193146E-003,1.3494061492E-002,Pass,Pass,2.8056146808E-002,0.1020553033,Pass,Pass
 Warmup Convergence Information,STORAGE ROOM > 100 M2-SCH-H-SPACE FUNCTION ZN,SizingPeriod: FORT MCMURRAY AP ANN CLG .4% CONDNS DB=>MWB,4.1028908666E-014,3.8673640255E-014,Pass,Pass,1.2932504411E-002,8.4779465960E-003,Pass,Pass
 Warmup Convergence Information,STORAGE ROOM > 100 M2-SCH-I-SPACE FUNCTION ZN,SizingPeriod: FORT MCMURRAY AP ANN CLG .4% CONDNS DB=>MWB,3.8813754506E-002,0.1623969610,Pass,Pass,0.1515840022,0.5795399557,Pass,Pass
 Warmup Convergence Information,STORAGE ROOM > 100 M2-SCH-J-SPACE FUNCTION ZN,SizingPeriod: FORT MCMURRAY AP ANN CLG .4% CONDNS DB=>MWB,5.4343441062E-003,1.0471329903E-002,Pass,Pass,1.3022834039E-002,3.2161699262E-002,Pass,Pass
 Warmup Convergence Information,STORAGE ROOM > 100 M2-SCH-K-SPACE FUNCTION ZN,SizingPeriod: FORT MCMURRAY AP ANN CLG .4% CONDNS DB=>MWB,7.9648905936E-002,4.7892056991E-002,Pass,Pass,2.5204921458E-002,1.9429473687E-002,Pass,Pass
 Warmup Convergence Information,VEHICLE MAINTENANCE AREA-SPACE FUNCTION ZN,SizingPeriod: FORT MCMURRAY AP ANN CLG .4% CONDNS DB=>MWB,8.2250349754E-002,0.1408748961,Pass,Pass,4.4284239753E-002,0.1018820606,Pass,Pass
 Warmup Convergence Information,WORKSHOP-SPACE FUNCTION ZN,SizingPeriod: FORT MCMURRAY AP ANN CLG .4% CONDNS DB=>MWB,3.1292338750E-002,6.0169564966E-002,Pass,Pass,2.2626837767E-002,5.8959530725E-002,Pass,Pass
Environment,FORT MCMURRAY AP ANN HTG 99.6% CONDNS DB,SizingPeriod:DesignDay,01/21,01/21,WinterDesignDay,1,N/A,N/A,N/A,N/A,N/A,N/A
Environment:Daylight Saving,No,SizingPeriod:DesignDay
Environment:Design Day Data,-36.20,0.00,DefaultMultipliers,96969,90,1.0,0.00,No,No
Environment:Design Day Misc, 21,1229.0,0.1415,5.7310E-002,1.0,-11.15,-20.1,ASHRAEClearSky
Environment:WarmupDays,  6
 Warmup Convergence Information,CONVENTION CENTRE EXHIBIT SPACE-SPACE FUNCTION ZN,SizingPeriod: FORT MCMURRAY AP ANN HTG 99.6% CONDNS DB,5.6505589777E-002,0.3511199349,Pass,Pass,0.4056507191,2.1597733023,Pass,Pass
 Warmup Convergence Information,DORMITORY LIVING QUARTERS-SPACE FUNCTION ZN,SizingPeriod: FORT MCMURRAY AP ANN HTG 99.6% CONDNS DB,5.8749308518E-002,0.3337239558,Pass,Pass,0.4497603139,3.6416964937,Pass,Pass
 Warmup Convergence Information,DWELLING UNITS GENERAL-SPACE FUNCTION ZN,SizingPeriod: FORT MCMURRAY AP ANN HTG 99.6% CONDNS DB,6.0895251743E-002,0.3205417403,Pass,Pass,0.5391084671,2.5687629482,Pass,Pass
 Warmup Convergence Information,DWELLING UNITS LONG-TERM-SPACE FUNCTION ZN,SizingPeriod: FORT MCMURRAY AP ANN HTG 99.6% CONDNS DB,7.2287854714E-015,5.5768237310E-015,Pass,Pass,1.3276290710E-002,2.8657628953E-002,Pass,Pass
 Warmup Convergence Information,STORAGE ROOM <= 5 M2 <= 100 M2-SCH-I-SPACE FUNCTION ZN,SizingPeriod: FORT MCMURRAY AP ANN HTG 99.6% CONDNS DB,5.7220930679E-002,0.3316828998,Pass,Pass,6.0602660204E-002,0.2196399734,Pass,Pass
 Warmup Convergence Information,STORAGE ROOM <= 5 M2 <= 100 M2-SCH-J-SPACE FUNCTION ZN,SizingPeriod: FORT MCMURRAY AP ANN HTG 99.6% CONDNS DB,4.0757520815E-014,4.0811010592E-014,Pass,Pass,3.0863265354E-003,6.7849649048E-003,Pass,Pass
 Warmup Convergence Information,STORAGE ROOM <= 5 M2 <= 100 M2-SCH-K-SPACE FUNCTION ZN,SizingPeriod: FORT MCMURRAY AP ANN HTG 99.6% CONDNS DB,1.7182814258E-002,1.0178307298E-002,Pass,Pass,4.1170523608E-004,2.4989550927E-004,Pass,Pass
 Warmup Convergence Information,STORAGE ROOM > 100 M2-SCH-A-SPACE FUNCTION ZN,SizingPeriod: FORT MCMURRAY AP ANN HTG 99.6% CONDNS DB,5.9200317722E-002,0.3221935618,Pass,Pass,0.3676977824,1.9593195569,Pass,Pass
 Warmup Convergence Information,STORAGE ROOM > 100 M2-SCH-B-SPACE FUNCTION ZN,SizingPeriod: FORT MCMURRAY AP ANN HTG 99.6% CONDNS DB,6.0202155032E-002,0.3414043899,Pass,Pass,0.1796289860,0.5333219162,Pass,Pass
 Warmup Convergence Information,STORAGE ROOM > 100 M2-SCH-C-SPACE FUNCTION ZN,SizingPeriod: FORT MCMURRAY AP ANN HTG 99.6% CONDNS DB,5.7543945427E-002,0.3330009627,Pass,Pass,0.2806143592,2.4358046163,Pass,Pass
 Warmup Convergence Information,STORAGE ROOM > 100 M2-SCH-D-SPACE FUNCTION ZN,SizingPeriod: FORT MCMURRAY AP ANN HTG 99.6% CONDNS DB,6.2011330745E-002,0.3133946296,Pass,Pass,1.6123165347,14.0945552662,Pass,Pass
 Warmup Convergence Information,STORAGE ROOM > 100 M2-SCH-E-SPACE FUNCTION ZN,SizingPeriod: FORT MCMURRAY AP ANN HTG 99.6% CONDNS DB,6.1690606240E-002,0.3138378921,Pass,Pass,3.1184175199,33.8560965172,Pass,Pass
 Warmup Convergence Information,STORAGE ROOM > 100 M2-SCH-F-SPACE FUNCTION ZN,SizingPeriod: FORT MCMURRAY AP ANN HTG 99.6% CONDNS DB,5.6935967707E-002,0.3362922933,Pass,Pass,6.1586382266E-002,0.2380070702,Pass,Pass
 Warmup Convergence Information,STORAGE ROOM > 100 M2-SCH-G-SPACE FUNCTION ZN,SizingPeriod: FORT MCMURRAY AP ANN HTG 99.6% CONDNS DB,6.2410555141E-002,0.3136642957,Pass,Pass,0.3328780205,1.2951533495,Pass,Pass
 Warmup Convergence Information,STORAGE ROOM > 100 M2-SCH-H-SPACE FUNCTION ZN,SizingPeriod: FORT MCMURRAY AP ANN HTG 99.6% CONDNS DB,6.0754723422E-002,0.3170357313,Pass,Pass,0.1563285634,0.5785051606,Pass,Pass
 Warmup Convergence Information,STORAGE ROOM > 100 M2-SCH-I-SPACE FUNCTION ZN,SizingPeriod: FORT MCMURRAY AP ANN HTG 99.6% CONDNS DB,6.1639495690E-002,0.3119017991,Pass,Pass,0.7964057874,7.1781492165,Pass,Pass
 Warmup Convergence Information,STORAGE ROOM > 100 M2-SCH-J-SPACE FUNCTION ZN,SizingPeriod: FORT MCMURRAY AP ANN HTG 99.6% CONDNS DB,3.3553406966E-015,2.6736572826E-015,Pass,Pass,0.2608999268,1.3052021770,Pass,Pass
 Warmup Convergence Information,STORAGE ROOM > 100 M2-SCH-K-SPACE FUNCTION ZN,SizingPeriod: FORT MCMURRAY AP ANN HTG 99.6% CONDNS DB,1.7695131278E-002,1.1687310910E-002,Pass,Pass,4.0806144047E-004,2.7278020420E-004,Pass,Pass
 Warmup Convergence Information,VEHICLE MAINTENANCE AREA-SPACE FUNCTION ZN,SizingPeriod: FORT MCMURRAY AP ANN HTG 99.6% CONDNS DB,5.5555555556E-002,0.4005166030,Pass,Pass,0.1902581893,0.7515358401,Pass,Pass
 Warmup Convergence Information,WORKSHOP-SPACE FUNCTION ZN,SizingPeriod: FORT MCMURRAY AP ANN HTG 99.6% CONDNS DB,5.5555555556E-002,0.3738671156,Pass,Pass,0.1966952407,0.9802847398,Pass,Pass
! <Program Control Information:Threads/Parallel Sims>, Threading Supported,Maximum Number of Threads, Env Set Threads (OMP_NUM_THREADS), EP Env Set Threads (EP_OMP_NUM_THREADS), IDF Set Threads, Number of Threads Used (Interior Radiant Exchange), Number Nominal Surfaces, Number Parallel Sims
Program Control:Threads/Parallel Sims, No,1, N/A, N/A, N/A, N/A, N/A, N/A
End of Data
