Program Version,EnergyPlus, Version 8.9.0-eba93e8e1b, YMD=2019.04.04 18:00,
   ************* Beginning Zone Sizing Calculations
   ** Warning ** ProcessScheduleInput: Schedule:Day:Interval="SCHEDULE DAY 1", Blank Schedule Type Limits Name input -- will not be validated.
   ** Warning ** ProcessScheduleInput: Schedule:Day:Interval="SCHEDULE DAY 10", Blank Schedule Type Limits Name input -- will not be validated.
   ** Warning ** ProcessScheduleInput: Schedule:Day:Interval="SCHEDULE DAY 11", Blank Schedule Type Limits Name input -- will not be validated.
   ** Warning ** ProcessScheduleInput: Schedule:Day:Interval="SCHEDULE DAY 12", Blank Schedule Type Limits Name input -- will not be validated.
   ** Warning ** ProcessScheduleInput: Schedule:Day:Interval="SCHEDULE DAY 13", Blank Schedule Type Limits Name input -- will not be validated.
   ** Warning ** ProcessScheduleInput: Schedule:Day:Interval="SCHEDULE DAY 14", Blank Schedule Type Limits Name input -- will not be validated.
   ** Warning ** ProcessScheduleInput: Schedule:Day:Interval="SCHEDULE DAY 15", Blank Schedule Type Limits Name input -- will not be validated.
   ** Warning ** ProcessScheduleInput: Schedule:Day:Interval="SCHEDULE DAY 16", Blank Schedule Type Limits Name input -- will not be validated.
   ** Warning ** ProcessScheduleInput: Schedule:Day:Interval="SCHEDULE DAY 2", Blank Schedule Type Limits Name input -- will not be validated.
   ** Warning ** ProcessScheduleInput: Schedule:Day:Interval="SCHEDULE DAY 5", Blank Schedule Type Limits Name input -- will not be validated.
   ** Warning ** ProcessScheduleInput: Schedule:Day:Interval="SCHEDULE DAY 6", Blank Schedule Type Limits Name input -- will not be validated.
   ** Warning ** ProcessScheduleInput: Schedule:Day:Interval="SCHEDULE DAY 7", Blank Schedule Type Limits Name input -- will not be validated.
   ** Warning ** ProcessScheduleInput: Schedule:Day:Interval="SCHEDULE DAY 8", Blank Schedule Type Limits Name input -- will not be validated.
   ** Warning ** ProcessScheduleInput: Schedule:Day:Interval="SCHEDULE DAY 9", Blank Schedule Type Limits Name input -- will not be validated.
   ** Warning ** ProcessScheduleInput: Schedule:Year="SCHEDULE RULESET 10", Blank Schedule Type Limits Name input -- will not be validated.
   ** Warning ** ProcessScheduleInput: Schedule:Year="SCHEDULE RULESET 11", Blank Schedule Type Limits Name input -- will not be validated.
   ** Warning ** ProcessScheduleInput: Schedule:Year="SCHEDULE RULESET 12", Blank Schedule Type Limits Name input -- will not be validated.
   ** Warning ** ProcessScheduleInput: Schedule:Year="SCHEDULE RULESET 13", Blank Schedule Type Limits Name input -- will not be validated.
   ** Warning ** ProcessScheduleInput: Schedule:Year="SCHEDULE RULESET 14", Blank Schedule Type Limits Name input -- will not be validated.
   ** Warning ** ProcessScheduleInput: Schedule:Year="SCHEDULE RULESET 3", Blank Schedule Type Limits Name input -- will not be validated.
   ** Warning ** ProcessScheduleInput: Schedule:Year="SCHEDULE RULESET 4", Blank Schedule Type Limits Name input -- will not be validated.
   ** Warning ** ProcessScheduleInput: Schedule:Year="SCHEDULE RULESET 5", Blank Schedule Type Limits Name input -- will not be validated.
   ** Warning ** ProcessScheduleInput: Schedule:Year="SCHEDULE RULESET 6", Blank Schedule Type Limits Name input -- will not be validated.
   ** Warning ** ProcessScheduleInput: Schedule:Year="SCHEDULE RULESET 7", Blank Schedule Type Limits Name input -- will not be validated.
   ** Warning ** ProcessScheduleInput: Schedule:Year="SCHEDULE RULESET 8", Blank Schedule Type Limits Name input -- will not be validated.
   ** Warning ** ProcessScheduleInput: Schedule:Year="SCHEDULE RULESET 9", Blank Schedule Type Limits Name input -- will not be validated.
   ** Warning ** ProcessScheduleInput: Schedule:Constant="ALWAYS OFF DISCRETE", Blank Schedule Type Limits Name input -- will not be validated.
   ** Warning ** ProcessScheduleInput: Schedule:Constant="ALWAYS ON CONTINUOUS", Blank Schedule Type Limits Name input -- will not be validated.
   ** Warning ** CheckUsedConstructions: There are 32 nominally unused constructions in input.
   **   ~~~   ** For explicit details on each unused construction, use Output:Diagnostics,DisplayExtraWarnings;
   ** Warning ** GetInternalHeatGains: People Combination of ZoneList and Object Name generate a name too long.
   **   ~~~   ** Object Name="SPACE FUNCTION HEALTH CARE FACILITY MEDICAL SUPPLY ROOM PEOPLE".
   **   ~~~   ** ZoneList/Zone Name="SP-HEALTH CARE FACILITY MEDICAL SUPPLY ROOM-SPACE FUNCTION SYS-3 FLR-1 SCH-H HPLCMT-CORE ZN".
   **   ~~~   ** Item length=[153] > Maximum Length=[100]. You may need to shorten the names.
   **   ~~~   ** Shortening the Object Name by [54] characters will assure uniqueness for this ZoneList.
   **   ~~~   ** name that will be used (may be needed in reporting)="SP-HEALTH CARE FACILITY MEDICAL SUPPLY ROOM-SPACE FUNCTION SYS-3 FLR-1 SCH-H HPLCMT-CORE ZN SPACE FUNCTION HEALTH CARE FACILITY MEDICAL SUPPLY ROOM PEOPLE".
   ** Warning ** GetInternalHeatGains: People Combination of ZoneList and Object Name generate a name too long.
   **   ~~~   ** Object Name="SPACE FUNCTION HEALTH CARE FACILITY NURSERY PEOPLE".
   **   ~~~   ** ZoneList/Zone Name="SP-HEALTH CARE FACILITY NURSERY-SPACE FUNCTION SYS-3 FLR-1 SCH-H HPLCMT-SOUTH ZN".
   **   ~~~   ** Item length=[130] > Maximum Length=[100]. You may need to shorten the names.
   **   ~~~   ** Shortening the Object Name by [31] characters will assure uniqueness for this ZoneList.
   **   ~~~   ** name that will be used (may be needed in reporting)="SP-HEALTH CARE FACILITY NURSERY-SPACE FUNCTION SYS-3 FLR-1 SCH-H HPLCMT-SOUTH ZN SPACE FUNCTION HEALTH CARE FACILITY NURSERY PEOPLE".
   ** Warning ** GetInternalHeatGains: People Combination of ZoneList and Object Name generate a name too long.
   **   ~~~   ** Object Name="SPACE FUNCTION HEALTH CARE FACILITY NURSES STATION PEOPLE".
   **   ~~~   ** ZoneList/Zone Name="SP-HEALTH CARE FACILITY NURSES STATION-SPACE FUNCTION SYS-3 FLR-1 SCH-H HPLCMT-EAST ZN".
   **   ~~~   ** Item length=[143] > Maximum Length=[100]. You may need to shorten the names.
   **   ~~~   ** Shortening the Object Name by [44] characters will assure uniqueness for this ZoneList.
   **   ~~~   ** name that will be used (may be needed in reporting)="SP-HEALTH CARE FACILITY NURSES STATION-SPACE FUNCTION SYS-3 FLR-1 SCH-H HPLCMT-EAST ZN SPACE FUNCTION HEALTH CARE FACILITY NURSES STATION PEOPLE".
   ** Warning ** GetInternalHeatGains: People Combination of ZoneList and Object Name generate a name too long.
   **   ~~~   ** Object Name="SPACE FUNCTION HEALTH CARE FACILITY OPERATING ROOM PEOPLE".
   **   ~~~   ** ZoneList/Zone Name="SP-HEALTH CARE FACILITY OPERATING ROOM-SPACE FUNCTION SYS-3 FLR-1 SCH-H HPLCMT-NORTH ZN".
   **   ~~~   ** Item length=[144] > Maximum Length=[100]. You may need to shorten the names.
   **   ~~~   ** Shortening the Object Name by [45] characters will assure uniqueness for this ZoneList.
   **   ~~~   ** name that will be used (may be needed in reporting)="SP-HEALTH CARE FACILITY OPERATING ROOM-SPACE FUNCTION SYS-3 FLR-1 SCH-H HPLCMT-NORTH ZN SPACE FUNCTION HEALTH CARE FACILITY OPERATING ROOM PEOPLE".
   ** Warning ** GetInternalHeatGains: People Combination of ZoneList and Object Name generate a name too long.
   **   ~~~   ** Object Name="SPACE FUNCTION HEALTH CARE FACILITY PATIENT ROOM PEOPLE".
   **   ~~~   ** ZoneList/Zone Name="SP-HEALTH CARE FACILITY PATIENT ROOM-SPACE FUNCTION SYS-3 FLR-1 SCH-H HPLCMT-WEST ZN".
   **   ~~~   ** Item length=[139] > Maximum Length=[100]. You may need to shorten the names.
   **   ~~~   ** Shortening the Object Name by [40] characters will assure uniqueness for this ZoneList.
   **   ~~~   ** name that will be used (may be needed in reporting)="SP-HEALTH CARE FACILITY PATIENT ROOM-SPACE FUNCTION SYS-3 FLR-1 SCH-H HPLCMT-WEST ZN SPACE FUNCTION HEALTH CARE FACILITY PATIENT ROOM PEOPLE".
   ** Warning ** GetInternalHeatGains: Lights Combination of ZoneList and Object Name generate a name too long.
   **   ~~~   ** Object Name="SPACE FUNCTION HEALTH CARE FACILITY MEDICAL SUPPLY ROOM LIGHTS".
   **   ~~~   ** ZoneList/Zone Name="SP-HEALTH CARE FACILITY MEDICAL SUPPLY ROOM-SPACE FUNCTION SYS-3 FLR-1 SCH-H HPLCMT-CORE ZN".
   **   ~~~   ** Item length=[153] > Maximum Length=[100]. You may need to shorten the names.
   **   ~~~   ** Shortening the Object Name by [54] characters will assure uniqueness for this ZoneList.
   **   ~~~   ** name that will be used (may be needed in reporting)="SP-HEALTH CARE FACILITY MEDICAL SUPPLY ROOM-SPACE FUNCTION SYS-3 FLR-1 SCH-H HPLCMT-CORE ZN SPACE FUNCTION HEALTH CARE FACILITY MEDICAL SUPPLY ROOM LIGHTS".
   ** Warning ** GetInternalHeatGains: Lights Combination of ZoneList and Object Name generate a name too long.
   **   ~~~   ** Object Name="SPACE FUNCTION HEALTH CARE FACILITY NURSERY LIGHTS".
   **   ~~~   ** ZoneList/Zone Name="SP-HEALTH CARE FACILITY NURSERY-SPACE FUNCTION SYS-3 FLR-1 SCH-H HPLCMT-SOUTH ZN".
   **   ~~~   ** Item length=[130] > Maximum Length=[100]. You may need to shorten the names.
   **   ~~~   ** Shortening the Object Name by [31] characters will assure uniqueness for this ZoneList.
   **   ~~~   ** name that will be used (may be needed in reporting)="SP-HEALTH CARE FACILITY NURSERY-SPACE FUNCTION SYS-3 FLR-1 SCH-H HPLCMT-SOUTH ZN SPACE FUNCTION HEALTH CARE FACILITY NURSERY LIGHTS".
   ** Warning ** GetInternalHeatGains: Lights Combination of ZoneList and Object Name generate a name too long.
   **   ~~~   ** Object Name="SPACE FUNCTION HEALTH CARE FACILITY NURSES STATION LIGHTS".
   **   ~~~   ** ZoneList/Zone Name="SP-HEALTH CARE FACILITY NURSES STATION-SPACE FUNCTION SYS-3 FLR-1 SCH-H HPLCMT-EAST ZN".
   **   ~~~   ** Item length=[143] > Maximum Length=[100]. You may need to shorten the names.
   **   ~~~   ** Shortening the Object Name by [44] characters will assure uniqueness for this ZoneList.
   **   ~~~   ** name that will be used (may be needed in reporting)="SP-HEALTH CARE FACILITY NURSES STATION-SPACE FUNCTION SYS-3 FLR-1 SCH-H HPLCMT-EAST ZN SPACE FUNCTION HEALTH CARE FACILITY NURSES STATION LIGHTS".
   ** Warning ** GetInternalHeatGains: Lights Combination of ZoneList and Object Name generate a name too long.
   **   ~~~   ** Object Name="SPACE FUNCTION HEALTH CARE FACILITY OPERATING ROOM LIGHTS".
   **   ~~~   ** ZoneList/Zone Name="SP-HEALTH CARE FACILITY OPERATING ROOM-SPACE FUNCTION SYS-3 FLR-1 SCH-H HPLCMT-NORTH ZN".
   **   ~~~   ** Item length=[144] > Maximum Length=[100]. You may need to shorten the names.
   **   ~~~   ** Shortening the Object Name by [45] characters will assure uniqueness for this ZoneList.
   **   ~~~   ** name that will be used (may be needed in reporting)="SP-HEALTH CARE FACILITY OPERATING ROOM-SPACE FUNCTION SYS-3 FLR-1 SCH-H HPLCMT-NORTH ZN SPACE FUNCTION HEALTH CARE FACILITY OPERATING ROOM LIGHTS".
   ** Warning ** GetInternalHeatGains: Lights Combination of ZoneList and Object Name generate a name too long.
   **   ~~~   ** Object Name="SPACE FUNCTION HEALTH CARE FACILITY PATIENT ROOM LIGHTS".
   **   ~~~   ** ZoneList/Zone Name="SP-HEALTH CARE FACILITY PATIENT ROOM-SPACE FUNCTION SYS-3 FLR-1 SCH-H HPLCMT-WEST ZN".
   **   ~~~   ** Item length=[139] > Maximum Length=[100]. You may need to shorten the names.
   **   ~~~   ** Shortening the Object Name by [40] characters will assure uniqueness for this ZoneList.
   **   ~~~   ** name that will be used (may be needed in reporting)="SP-HEALTH CARE FACILITY PATIENT ROOM-SPACE FUNCTION SYS-3 FLR-1 SCH-H HPLCMT-WEST ZN SPACE FUNCTION HEALTH CARE FACILITY PATIENT ROOM LIGHTS".
   ** Warning ** GetInternalHeatGains: ElectricEquipment Combination of ZoneList and Object Name generate a name too long.
   **   ~~~   ** Object Name="SPACE FUNCTION HEALTH CARE FACILITY MEDICAL SUPPLY ROOM ELEC EQUIP".
   **   ~~~   ** ZoneList/Zone Name="SP-HEALTH CARE FACILITY MEDICAL SUPPLY ROOM-SPACE FUNCTION SYS-3 FLR-1 SCH-H HPLCMT-CORE ZN".
   **   ~~~   ** Item length=[157] > Maximum Length=[100]. You may need to shorten the names.
   **   ~~~   ** Shortening the Object Name by [58] characters will assure uniqueness for this ZoneList.
   **   ~~~   ** name that will be used (may be needed in reporting)="SP-HEALTH CARE FACILITY MEDICAL SUPPLY ROOM-SPACE FUNCTION SYS-3 FLR-1 SCH-H HPLCMT-CORE ZN SPACE FUNCTION HEALTH CARE FACILITY MEDICAL SUPPLY ROOM ELEC EQUIP".
   ** Warning ** GetInternalHeatGains: ElectricEquipment Combination of ZoneList and Object Name generate a name too long.
   **   ~~~   ** Object Name="SPACE FUNCTION HEALTH CARE FACILITY NURSERY ELEC EQUIP".
   **   ~~~   ** ZoneList/Zone Name="SP-HEALTH CARE FACILITY NURSERY-SPACE FUNCTION SYS-3 FLR-1 SCH-H HPLCMT-SOUTH ZN".
   **   ~~~   ** Item length=[134] > Maximum Length=[100]. You may need to shorten the names.
   **   ~~~   ** Shortening the Object Name by [35] characters will assure uniqueness for this ZoneList.
   **   ~~~   ** name that will be used (may be needed in reporting)="SP-HEALTH CARE FACILITY NURSERY-SPACE FUNCTION SYS-3 FLR-1 SCH-H HPLCMT-SOUTH ZN SPACE FUNCTION HEALTH CARE FACILITY NURSERY ELEC EQUIP".
   ** Warning ** GetInternalHeatGains: ElectricEquipment Combination of ZoneList and Object Name generate a name too long.
   **   ~~~   ** Object Name="SPACE FUNCTION HEALTH CARE FACILITY NURSES STATION ELEC EQUIP".
   **   ~~~   ** ZoneList/Zone Name="SP-HEALTH CARE FACILITY NURSES STATION-SPACE FUNCTION SYS-3 FLR-1 SCH-H HPLCMT-EAST ZN".
   **   ~~~   ** Item length=[147] > Maximum Length=[100]. You may need to shorten the names.
   **   ~~~   ** Shortening the Object Name by [48] characters will assure uniqueness for this ZoneList.
   **   ~~~   ** name that will be used (may be needed in reporting)="SP-HEALTH CARE FACILITY NURSES STATION-SPACE FUNCTION SYS-3 FLR-1 SCH-H HPLCMT-EAST ZN SPACE FUNCTION HEALTH CARE FACILITY NURSES STATION ELEC EQUIP".
   ** Warning ** GetInternalHeatGains: ElectricEquipment Combination of ZoneList and Object Name generate a name too long.
   **   ~~~   ** Object Name="SPACE FUNCTION HEALTH CARE FACILITY OPERATING ROOM ELEC EQUIP".
   **   ~~~   ** ZoneList/Zone Name="SP-HEALTH CARE FACILITY OPERATING ROOM-SPACE FUNCTION SYS-3 FLR-1 SCH-H HPLCMT-NORTH ZN".
   **   ~~~   ** Item length=[148] > Maximum Length=[100]. You may need to shorten the names.
   **   ~~~   ** Shortening the Object Name by [49] characters will assure uniqueness for this ZoneList.
   **   ~~~   ** name that will be used (may be needed in reporting)="SP-HEALTH CARE FACILITY OPERATING ROOM-SPACE FUNCTION SYS-3 FLR-1 SCH-H HPLCMT-NORTH ZN SPACE FUNCTION HEALTH CARE FACILITY OPERATING ROOM ELEC EQUIP".
   ** Warning ** GetInternalHeatGains: ElectricEquipment Combination of ZoneList and Object Name generate a name too long.
   **   ~~~   ** Object Name="SPACE FUNCTION HEALTH CARE FACILITY PATIENT ROOM ELEC EQUIP".
   **   ~~~   ** ZoneList/Zone Name="SP-HEALTH CARE FACILITY PATIENT ROOM-SPACE FUNCTION SYS-3 FLR-1 SCH-H HPLCMT-WEST ZN".
   **   ~~~   ** Item length=[143] > Maximum Length=[100]. You may need to shorten the names.
   **   ~~~   ** Shortening the Object Name by [44] characters will assure uniqueness for this ZoneList.
   **   ~~~   ** name that will be used (may be needed in reporting)="SP-HEALTH CARE FACILITY PATIENT ROOM-SPACE FUNCTION SYS-3 FLR-1 SCH-H HPLCMT-WEST ZN SPACE FUNCTION HEALTH CARE FACILITY PATIENT ROOM ELEC EQUIP".
   ** Warning ** Calculated design heating load for zone=SP-HEALTH CARE FACILITY MEDICAL SUPPLY ROOM-SPACE FUNCTION SYS-3 FLR-1 SCH-H HPLCMT-CORE ZN is zero.
   **   ~~~   ** Check Sizing:Zone and ZoneControl:Thermostat inputs.
   ** Warning ** Calculated design heating load for zone=SP-HEALTH CARE FACILITY NURSERY-SPACE FUNCTION SYS-3 FLR-1 SCH-H HPLCMT-SOUTH ZN is zero.
   **   ~~~   ** Check Sizing:Zone and ZoneControl:Thermostat inputs.
   ** Warning ** Calculated design heating load for zone=SP-HEALTH CARE FACILITY NURSES STATION-SPACE FUNCTION SYS-3 FLR-1 SCH-H HPLCMT-EAST ZN is zero.
   **   ~~~   ** Check Sizing:Zone and ZoneControl:Thermostat inputs.
   ** Warning ** Calculated design heating load for zone=SP-HEALTH CARE FACILITY OPERATING ROOM-SPACE FUNCTION SYS-3 FLR-1 SCH-H HPLCMT-NORTH ZN is zero.
   **   ~~~   ** Check Sizing:Zone and ZoneControl:Thermostat inputs.
   ** Warning ** Calculated design heating load for zone=SP-HEALTH CARE FACILITY PATIENT ROOM-SPACE FUNCTION SYS-3 FLR-1 SCH-H HPLCMT-WEST ZN is zero.
   **   ~~~   ** Check Sizing:Zone and ZoneControl:Thermostat inputs.
   ************* Beginning System Sizing Calculations
   ************* Beginning Plant Sizing Calculations
   ** Warning ** SizePlantLoop: Calculated Plant Sizing Design Volume Flow Rate=[0.00] is too small. Set to 0.0
   **   ~~~   ** ..occurs for PlantLoop=HOT WATER LOOP
   ** Warning ** SizePump: Calculated Pump Nominal Volume Flow Rate=[0.00] is too small. Set to 0.0
   **   ~~~   ** ..occurs for Pump=PUMP VARIABLE SPEED 1
   ** Warning ** Check input. Pump nominal power or motor efficiency is set to 0, for pump=PUMP VARIABLE SPEED 1
   ** Warning ** Check input. Pump nominal flow rate is set or calculated = 0, for pump=PUMP VARIABLE SPEED 1
   ** Warning ** Output:Meter: invalid Key Name="DISTRICTCOOLING:FACILITY" - not found.
   ** Warning ** Output:Meter: invalid Key Name="DISTRICTHEATING:FACILITY" - not found.
   ** Warning ** Output:Meter:MeterFileOnly requested for "Electricity:Facility" (TimeStep), already on "Output:Meter". Will report to both eplusout.eso and eplusout.mtr
   ************* Testing Individual Branch Integrity
   ************* All Branches passed integrity testing
   ************* Testing Individual Supply Air Path Integrity
   ************* All Supply Air Paths passed integrity testing
   ************* Testing Individual Return Air Path Integrity
   ************* All Return Air Paths passed integrity testing
   ************* No node connection errors were found.
   ************* Beginning Simulation
   ** Warning ** Output:Table:Monthly requested with SimulationControl Run Simulation for Weather File Run Periods set to No so Output:Table:Monthly will not be generated
   ** Warning ** Plant Loop: MAIN SERVICE WATER LOOP Demand Side is storing excess heat the majority of the time.
   ** Warning ** Plant Loop: MAIN SERVICE WATER LOOP Supply Side is storing excess heat the majority of the time.
   ************* Simulation Error Summary *************
   ************* There are 8 unused objects in input.
   ************* Use Output:Diagnostics,DisplayUnusedObjects; to see them.
   ************* There are 8 unused schedules in input.
   ************* There are 8 unused week schedules in input.
   ************* There are 11 unused day schedules in input.
   ************* Use Output:Diagnostics,DisplayUnusedSchedules; to see them.
   *************
   ************* ===== Recurring Error Summary =====
   ************* The following recurring error messages occurred.
   *************
   *************  ** Warning ** Plant loop falling below lower temperature limit, PlantLoop="MAIN SERVICE WATER LOOP"
   *************  **   ~~~   **   This error occurred 8 total times;
   *************  **   ~~~   **   during Warmup 8 times;
   *************  **   ~~~   **   during Sizing 0 times.
   *************  **   ~~~   **   Min=0.994771
   *************
   *************
   ************* ===== Final Error Summary =====
   ************* The following error categories occurred.  Consider correcting or noting.
   ************* Nominally Unused Constructions
   ************* ..The nominally unused constructions warning is provided to alert you to potential conditions that can cause
   ************* ..extra time during simulation. Each construction is calculated by the algorithm indicated in the HeatBalanceAlgorithm
   ************* ..object. You may remove the constructions indicated (when you use the DisplayExtraWarnings option).
   *************
   ************* EnergyPlus Warmup Error Summary. During Warmup: 0 Warning; 0 Severe Errors.
   ************* EnergyPlus Sizing Error Summary. During Sizing: 49 Warning; 0 Severe Errors.
   ************* EnergyPlus Completed Successfully-- 67 Warning; 0 Severe Errors; Elapsed Time=00hr 00min  1.14sec
