Program Version,EnergyPlus, Version 8.9.0-eba93e8e1b, YMD=2019.03.19 18:35
! This file shows details about the branches, nodes, and other
! elements of the flow connections.
! This file is intended for use in "debugging" potential problems
! that may also be detected by the program, but may be more easily
! identified by "eye".
! This file is also intended to support software which draws a
! schematic diagram of the HVAC system.
! ===============================================================
! #Nodes,<Number of Unique Nodes>
 #Nodes,175
! <Node>,<NodeNumber>,<Node Name>,<Node Fluid Type>,<# Times Node Referenced After Definition>
 Node,1,NODE 127,Air,4
 Node,2,NODE 140,Air,4
 Node,3,NODE 27,Air,4
 Node,4,NODE 45,Air,4
 Node,5,NODE 59,Air,3
 Node,6,NODE 63,Air,3
 Node,7,NODE 67,Air,3
 Node,8,NODE 71,Air,3
 Node,9,NODE 75,Air,3
 Node,10,NODE 79,Air,3
 Node,11,NODE 83,Air,3
 Node,12,NODE 87,Air,3
 Node,13,NODE 91,Air,3
 Node,14,NODE 95,Air,3
 Node,15,NODE 99,Air,3
 Node,16,NODE 103,Air,3
 Node,17,NODE 107,Air,3
 Node,18,NODE 111,Air,3
 Node,19,NODE 115,Air,3
 Node,20,NODE 119,Air,3
 Node,21,NODE 124,Air,10
 Node,22,NODE 125,Air,3
 Node,23,NODE 137,Air,10
 Node,24,NODE 138,Air,3
 Node,25,NODE 23,Air,10
 Node,26,NODE 24,Air,3
 Node,27,NODE 41,Air,10
 Node,28,NODE 42,Air,3
 Node,29,NODE 123,Air,3
 Node,30,NODE 132,Air,6
 Node,31,NODE 131,Air,6
 Node,32,NODE 130,Air,8
 Node,33,NODE 136,Air,3
 Node,34,NODE 145,Air,6
 Node,35,NODE 144,Air,6
 Node,36,NODE 143,Air,8
 Node,37,NODE 21,Air,3
 Node,38,NODE 35,Air,6
 Node,39,NODE 33,Air,6
 Node,40,NODE 32,Air,8
 Node,41,NODE 39,Air,3
 Node,42,NODE 53,Air,6
 Node,43,NODE 51,Air,6
 Node,44,NODE 50,Air,8
 Node,45,NODE 2,Water,2
 Node,46,NODE 11,Water,1
 Node,47,NODE 5,Water,1
 Node,48,NODE 12,Water,1
 Node,49,NODE 14,Water,1
 Node,50,NODE 15,Water,1
 Node,51,NODE 17,Water,1
 Node,52,NODE 18,Water,1
 Node,53,NODE 20,Water,1
 Node,54,NODE 3,Water,4
 Node,55,NODE 6,Water,2
 Node,56,HOT WATER LOOP DEMAND INLET PIPE NODE,Water,1
 Node,57,NODE 9,Water,1
 Node,58,NODE 38,Water,1
 Node,59,NODE 56,Water,1
 Node,60,NODE 57,Water,1
 Node,61,NODE 61,Water,1
 Node,62,NODE 62,Water,1
 Node,63,NODE 65,Water,1
 Node,64,NODE 66,Water,1
 Node,65,NODE 69,Water,1
 Node,66,NODE 70,Water,1
 Node,67,NODE 73,Water,1
 Node,68,NODE 74,Water,1
 Node,69,NODE 77,Water,1
 Node,70,NODE 78,Water,1
 Node,71,NODE 81,Water,1
 Node,72,NODE 82,Water,1
 Node,73,NODE 85,Water,1
 Node,74,NODE 86,Water,1
 Node,75,NODE 89,Water,1
 Node,76,NODE 90,Water,1
 Node,77,NODE 93,Water,1
 Node,78,NODE 94,Water,1
 Node,79,NODE 97,Water,1
 Node,80,NODE 98,Water,1
 Node,81,NODE 101,Water,1
 Node,82,NODE 102,Water,1
 Node,83,NODE 105,Water,1
 Node,84,NODE 106,Water,1
 Node,85,NODE 109,Water,1
 Node,86,NODE 110,Water,1
 Node,87,NODE 113,Water,1
 Node,88,NODE 114,Water,1
 Node,89,NODE 117,Water,1
 Node,90,NODE 118,Water,1
 Node,91,NODE 121,Water,1
 Node,92,NODE 122,Water,1
 Node,93,NODE 134,Water,1
 Node,94,NODE 135,Water,1
 Node,95,NODE 147,Water,1
 Node,96,NODE 148,Water,1
 Node,97,HOT WATER LOOP DEMAND BYPASS PIPE INLET NODE,Water,1
 Node,98,HOT WATER LOOP DEMAND BYPASS PIPE OUTLET NODE,Water,1
 Node,99,HOT WATER LOOP DEMAND OUTLET PIPE NODE,Water,1
 Node,100,NODE 8,Water,2
 Node,101,NODE 149,Water,2
 Node,102,NODE 155,Water,1
 Node,103,NODE 151,Water,1
 Node,104,NODE 156,Water,1
 Node,105,NODE 157,Water,1
 Node,106,NODE 158,Water,1
 Node,107,NODE 160,Water,1
 Node,108,NODE 150,Water,4
 Node,109,NODE 152,Water,2
 Node,110,NODE 161,Water,1
 Node,111,NODE 154,Water,1
 Node,112,NODE 159,Water,1
 Node,113,NODE 163,Water,1
 Node,114,NODE 164,Water,1
 Node,115,NODE 165,Water,1
 Node,116,NODE 166,Water,1
 Node,117,NODE 167,Water,1
 Node,118,NODE 168,Water,1
 Node,119,MAIN SERVICE WATER LOOP DEMAND BYPASS PIPE INLET NODE,Water,1
 Node,120,MAIN SERVICE WATER LOOP DEMAND BYPASS PIPE OUTLET NODE,Water,1
 Node,121,NODE 162,Water,1
 Node,122,NODE 153,Water,2
 Node,123,NODE 4,Air,1
 Node,124,NODE 133,Air,1
 Node,125,NODE 7,Air,1
 Node,126,NODE 146,Air,1
 Node,127,NODE 1,Air,1
 Node,128,NODE 36,Air,1
 Node,129,NODE 10,Air,1
 Node,130,NODE 54,Air,1
 Node,131,NODE 13,Air,0
 Node,132,NODE 60,Air,1
 Node,133,NODE 16,Air,0
 Node,134,NODE 64,Air,1
 Node,135,NODE 19,Air,0
 Node,136,NODE 68,Air,1
 Node,137,NODE 22,Air,0
 Node,138,NODE 72,Air,1
 Node,139,NODE 25,Air,0
 Node,140,NODE 76,Air,1
 Node,141,NODE 28,Air,0
 Node,142,NODE 80,Air,1
 Node,143,NODE 31,Air,0
 Node,144,NODE 84,Air,1
 Node,145,NODE 34,Air,0
 Node,146,NODE 88,Air,1
 Node,147,NODE 37,Air,0
 Node,148,NODE 92,Air,1
 Node,149,NODE 40,Air,0
 Node,150,NODE 96,Air,1
 Node,151,NODE 43,Air,0
 Node,152,NODE 100,Air,1
 Node,153,NODE 46,Air,0
 Node,154,NODE 104,Air,1
 Node,155,NODE 49,Air,0
 Node,156,NODE 108,Air,1
 Node,157,NODE 52,Air,0
 Node,158,NODE 112,Air,1
 Node,159,NODE 55,Air,0
 Node,160,NODE 116,Air,1
 Node,161,NODE 58,Air,0
 Node,162,NODE 120,Air,1
 Node,163,NODE 126,Air,2
 Node,164,NODE 139,Air,2
 Node,165,NODE 26,Air,2
 Node,166,NODE 44,Air,2
 Node,167,NODE 128,Air,2
 Node,168,NODE 141,Air,2
 Node,169,NODE 29,Air,2
 Node,170,NODE 47,Air,2
 Node,171,MODEL OUTDOOR AIR NODE,Air,0
 Node,172,NODE 129,Air,1
 Node,173,NODE 142,Air,1
 Node,174,NODE 30,Air,1
 Node,175,NODE 48,Air,1
! ===============================================================
! Suspicious nodes have 0 references.  It is normal for some nodes, however.
! Listing nodes with 0 references (culled from previous list):
! <Suspicious Node>,<NodeNumber>,<Node Name>,<Node Fluid Type>,<# Times Node Referenced After Definition>
 Suspicious Node,131,NODE 13,Air,0
 Suspicious Node,133,NODE 16,Air,0
 Suspicious Node,135,NODE 19,Air,0
 Suspicious Node,137,NODE 22,Air,0
 Suspicious Node,139,NODE 25,Air,0
 Suspicious Node,141,NODE 28,Air,0
 Suspicious Node,143,NODE 31,Air,0
 Suspicious Node,145,NODE 34,Air,0
 Suspicious Node,147,NODE 37,Air,0
 Suspicious Node,149,NODE 40,Air,0
 Suspicious Node,151,NODE 43,Air,0
 Suspicious Node,153,NODE 46,Air,0
 Suspicious Node,155,NODE 49,Air,0
 Suspicious Node,157,NODE 52,Air,0
 Suspicious Node,159,NODE 55,Air,0
 Suspicious Node,161,NODE 58,Air,0
 Suspicious Node,171,MODEL OUTDOOR AIR NODE,Air,0
! ===============================================================
! <#Branch Lists>,<Number of Branch Lists>
 #Branch Lists,8
! <Branch List>,<Branch List Count>,<Branch List Name>,<Loop Name>,<Loop Type>,<Number of Branches>
! <Branch>,<Branch Count>,<Branch Name>,<Loop Name>,<Loop Type>,<Branch Inlet Node Name>,<Branch Outlet Node Name>
 Branch List,1,SYS_3_PSZ ALL_ST=COURTHOUSE - CHAMBERS_FL=STORY 2_SCH=A SUPPLY BRANCHES,SYS_3_PSZ ALL_ST=COURTHOUSE - CHAMBERS_FL=STORY 2_SCH=A,Air,1
   Branch,1,SYS_3_PSZ ALL_ST=COURTHOUSE - CHAMBERS_FL=STORY 2_SCH=A MAIN BRANCH,SYS_3_PSZ ALL_ST=COURTHOUSE - CHAMBERS_FL=STORY 2_SCH=A,Air,NODE 123,NODE 124
 Branch List,2,SYS_3_PSZ ALL_ST=COURTHOUSE - COURTROOM_FL=STORY 2_SCH=A SUPPLY BRANCHES,SYS_3_PSZ ALL_ST=COURTHOUSE - COURTROOM_FL=STORY 2_SCH=A,Air,1
   Branch,1,SYS_3_PSZ ALL_ST=COURTHOUSE - COURTROOM_FL=STORY 2_SCH=A MAIN BRANCH,SYS_3_PSZ ALL_ST=COURTHOUSE - COURTROOM_FL=STORY 2_SCH=A,Air,NODE 136,NODE 137
 Branch List,3,SYS_3_PSZ DU_BT=SPACE FUNCTION_ST=COURTHOUSE - CELL_FL=STORY 3_SCHH SUPPLY BRANCHES,SYS_3_PSZ DU_BT=SPACE FUNCTION_ST=COURTHOUSE - CELL_FL=STORY 3_SCHH,Air,1
   Branch,1,SYS_3_PSZ DU_BT=SPACE FUNCTION_ST=COURTHOUSE - CELL_FL=STORY 3_SCHH MAIN BRANCH,SYS_3_PSZ DU_BT=SPACE FUNCTION_ST=COURTHOUSE - CELL_FL=STORY 3_SCHH,Air,NODE 21,NODE 23
 Branch List,4,SYS_4_PSZ_WILD_ST=CORR. < 2.4M WIDE-SCH-B_FL=STORY 4_SCH=A SUPPLY BRANCHES,SYS_4_PSZ_WILD_ST=CORR. < 2.4M WIDE-SCH-B_FL=STORY 4_SCH=A,Air,1
   Branch,1,SYS_4_PSZ_WILD_ST=CORR. < 2.4M WIDE-SCH-B_FL=STORY 4_SCH=A MAIN BRANCH,SYS_4_PSZ_WILD_ST=CORR. < 2.4M WIDE-SCH-B_FL=STORY 4_SCH=A,Air,NODE 39,NODE 41
 Branch List,5,HOT WATER LOOP SUPPLY BRANCHES,HOT WATER LOOP,Plant Supply,5
   Branch,1,HOT WATER LOOP SUPPLY INLET BRANCH,HOT WATER LOOP,Plant Supply,NODE 2,NODE 11
   Branch,2,HOT WATER LOOP SUPPLY BRANCH 1,HOT WATER LOOP,Plant Supply,NODE 5,NODE 12
   Branch,3,HOT WATER LOOP SUPPLY BRANCH 2,HOT WATER LOOP,Plant Supply,NODE 14,NODE 15
   Branch,4,HOT WATER LOOP SUPPLY BRANCH 3,HOT WATER LOOP,Plant Supply,NODE 17,NODE 18
   Branch,5,HOT WATER LOOP SUPPLY OUTLET BRANCH,HOT WATER LOOP,Plant Supply,NODE 20,NODE 3
 Branch List,6,HOT WATER LOOP DEMAND BRANCHES,HOT WATER LOOP,Plant Demand,23
   Branch,1,HOT WATER LOOP DEMAND INLET BRANCH,HOT WATER LOOP,Plant Demand,NODE 6,HOT WATER LOOP DEMAND INLET PIPE NODE
   Branch,2,HOT WATER LOOP DEMAND BRANCH 1,HOT WATER LOOP,Plant Demand,NODE 9,NODE 38
   Branch,3,HOT WATER LOOP DEMAND BRANCH 2,HOT WATER LOOP,Plant Demand,NODE 56,NODE 57
   Branch,4,HOT WATER LOOP DEMAND BRANCH 3,HOT WATER LOOP,Plant Demand,NODE 61,NODE 62
   Branch,5,HOT WATER LOOP DEMAND BRANCH 4,HOT WATER LOOP,Plant Demand,NODE 65,NODE 66
   Branch,6,HOT WATER LOOP DEMAND BRANCH 5,HOT WATER LOOP,Plant Demand,NODE 69,NODE 70
   Branch,7,HOT WATER LOOP DEMAND BRANCH 6,HOT WATER LOOP,Plant Demand,NODE 73,NODE 74
   Branch,8,HOT WATER LOOP DEMAND BRANCH 7,HOT WATER LOOP,Plant Demand,NODE 77,NODE 78
   Branch,9,HOT WATER LOOP DEMAND BRANCH 8,HOT WATER LOOP,Plant Demand,NODE 81,NODE 82
   Branch,10,HOT WATER LOOP DEMAND BRANCH 9,HOT WATER LOOP,Plant Demand,NODE 85,NODE 86
   Branch,11,HOT WATER LOOP DEMAND BRANCH 10,HOT WATER LOOP,Plant Demand,NODE 89,NODE 90
   Branch,12,HOT WATER LOOP DEMAND BRANCH 11,HOT WATER LOOP,Plant Demand,NODE 93,NODE 94
   Branch,13,HOT WATER LOOP DEMAND BRANCH 12,HOT WATER LOOP,Plant Demand,NODE 97,NODE 98
   Branch,14,HOT WATER LOOP DEMAND BRANCH 13,HOT WATER LOOP,Plant Demand,NODE 101,NODE 102
   Branch,15,HOT WATER LOOP DEMAND BRANCH 14,HOT WATER LOOP,Plant Demand,NODE 105,NODE 106
   Branch,16,HOT WATER LOOP DEMAND BRANCH 15,HOT WATER LOOP,Plant Demand,NODE 109,NODE 110
   Branch,17,HOT WATER LOOP DEMAND BRANCH 16,HOT WATER LOOP,Plant Demand,NODE 113,NODE 114
   Branch,18,HOT WATER LOOP DEMAND BRANCH 17,HOT WATER LOOP,Plant Demand,NODE 117,NODE 118
   Branch,19,HOT WATER LOOP DEMAND BRANCH 18,HOT WATER LOOP,Plant Demand,NODE 121,NODE 122
   Branch,20,HOT WATER LOOP DEMAND BRANCH 19,HOT WATER LOOP,Plant Demand,NODE 134,NODE 135
   Branch,21,HOT WATER LOOP DEMAND BRANCH 20,HOT WATER LOOP,Plant Demand,NODE 147,NODE 148
   Branch,22,HOT WATER LOOP DEMAND BYPASS BRANCH,HOT WATER LOOP,Plant Demand,HOT WATER LOOP DEMAND BYPASS PIPE INLET NODE,HOT WATER LOOP DEMAND BYPASS PIPE OUTLET NODE
   Branch,23,HOT WATER LOOP DEMAND OUTLET BRANCH,HOT WATER LOOP,Plant Demand,HOT WATER LOOP DEMAND OUTLET PIPE NODE,NODE 8
 Branch List,7,MAIN SERVICE WATER LOOP SUPPLY BRANCHES,MAIN SERVICE WATER LOOP,Plant Supply,4
   Branch,1,MAIN SERVICE WATER LOOP SUPPLY INLET BRANCH,MAIN SERVICE WATER LOOP,Plant Supply,NODE 149,NODE 155
   Branch,2,MAIN SERVICE WATER LOOP SUPPLY BRANCH 1,MAIN SERVICE WATER LOOP,Plant Supply,NODE 151,NODE 156
   Branch,3,MAIN SERVICE WATER LOOP SUPPLY BRANCH 2,MAIN SERVICE WATER LOOP,Plant Supply,NODE 157,NODE 158
   Branch,4,MAIN SERVICE WATER LOOP SUPPLY OUTLET BRANCH,MAIN SERVICE WATER LOOP,Plant Supply,NODE 160,NODE 150
 Branch List,8,MAIN SERVICE WATER LOOP DEMAND BRANCHES,MAIN SERVICE WATER LOOP,Plant Demand,7
   Branch,1,MAIN SERVICE WATER LOOP DEMAND INLET BRANCH,MAIN SERVICE WATER LOOP,Plant Demand,NODE 152,NODE 161
   Branch,2,MAIN SERVICE WATER LOOP DEMAND BRANCH 1,MAIN SERVICE WATER LOOP,Plant Demand,NODE 154,NODE 159
   Branch,3,MAIN SERVICE WATER LOOP DEMAND BRANCH 2,MAIN SERVICE WATER LOOP,Plant Demand,NODE 163,NODE 164
   Branch,4,MAIN SERVICE WATER LOOP DEMAND BRANCH 3,MAIN SERVICE WATER LOOP,Plant Demand,NODE 165,NODE 166
   Branch,5,MAIN SERVICE WATER LOOP DEMAND BRANCH 4,MAIN SERVICE WATER LOOP,Plant Demand,NODE 167,NODE 168
   Branch,6,MAIN SERVICE WATER LOOP DEMAND BYPASS BRANCH,MAIN SERVICE WATER LOOP,Plant Demand,MAIN SERVICE WATER LOOP DEMAND BYPASS PIPE INLET NODE,MAIN SERVICE WATER LOOP DEMAND BYPASS PIPE OUTLET NODE
   Branch,7,MAIN SERVICE WATER LOOP DEMAND OUTLET BRANCH,MAIN SERVICE WATER LOOP,Plant Demand,NODE 162,NODE 153
! ===============================================================
! <#Supply Air Paths>,<Number of Supply Air Paths>
 #Supply Air Paths,4
! <Supply Air Path>,<Supply Air Path Count>,<Supply Air Path Name>,<AirLoopHVAC Name>
! <#Components on Supply Air Path>,<Number of Components>
! <Supply Air Path Component>,<Component Count>,<Component Type>,<Component Name>,<AirLoopHVAC Name>
! <#Outlet Nodes on Supply Air Path Component>,<Number of Nodes>
! <Supply Air Path Component Nodes>,<Node Count>,<Component Type>,<Component Name>,<Inlet Node Name>,<Outlet Node Name>,<AirLoopHVAC Name>
 Supply Air Path,1,SYS_3_PSZ ALL_ST=COURTHOUSE - CHAMBERS_FL=STORY 2_SCH=A NODE 125 SUPPLY PATH,SYS_3_PSZ ALL_ST=COURTHOUSE - CHAMBERS_FL=STORY 2_SCH=A
   #Components on Supply Air Path,1
   Supply Air Path Component,1,AIRLOOPHVAC:ZONESPLITTER,AIR LOOP HVAC ZONE SPLITTER 3,SYS_3_PSZ ALL_ST=COURTHOUSE - CHAMBERS_FL=STORY 2_SCH=A
     #Outlet Nodes on Supply Air Path Component,1
     Supply Air Path Component Nodes,1,AIRLOOPHVAC:ZONESPLITTER,AIR LOOP HVAC ZONE SPLITTER 3,NODE 125,NODE 127,SYS_3_PSZ ALL_ST=COURTHOUSE - CHAMBERS_FL=STORY 2_SCH=A
! <#Nodes on Supply Air Path>,<Number of Nodes>
! <Supply Air Path Node>,<Node Type>,<Node Count>,<Node Name>,<AirLoopHVAC Name>
#Nodes on Supply Air Path,2
   Supply Air Path Node,Inlet Node,1,NODE 125,SYS_3_PSZ ALL_ST=COURTHOUSE - CHAMBERS_FL=STORY 2_SCH=A
   Supply Air Path Node,Outlet Node,2,NODE 127,SYS_3_PSZ ALL_ST=COURTHOUSE - CHAMBERS_FL=STORY 2_SCH=A
 Supply Air Path,2,SYS_3_PSZ ALL_ST=COURTHOUSE - COURTROOM_FL=STORY 2_SCH=A NODE 138 SUPPLY PATH,SYS_3_PSZ ALL_ST=COURTHOUSE - COURTROOM_FL=STORY 2_SCH=A
   #Components on Supply Air Path,1
   Supply Air Path Component,1,AIRLOOPHVAC:ZONESPLITTER,AIR LOOP HVAC ZONE SPLITTER 4,SYS_3_PSZ ALL_ST=COURTHOUSE - COURTROOM_FL=STORY 2_SCH=A
     #Outlet Nodes on Supply Air Path Component,1
     Supply Air Path Component Nodes,1,AIRLOOPHVAC:ZONESPLITTER,AIR LOOP HVAC ZONE SPLITTER 4,NODE 138,NODE 140,SYS_3_PSZ ALL_ST=COURTHOUSE - COURTROOM_FL=STORY 2_SCH=A
! <#Nodes on Supply Air Path>,<Number of Nodes>
! <Supply Air Path Node>,<Node Type>,<Node Count>,<Node Name>,<AirLoopHVAC Name>
#Nodes on Supply Air Path,2
   Supply Air Path Node,Inlet Node,1,NODE 138,SYS_3_PSZ ALL_ST=COURTHOUSE - COURTROOM_FL=STORY 2_SCH=A
   Supply Air Path Node,Outlet Node,2,NODE 140,SYS_3_PSZ ALL_ST=COURTHOUSE - COURTROOM_FL=STORY 2_SCH=A
 Supply Air Path,3,SYS_3_PSZ DU_BT=SPACE FUNCTION_ST=COURTHOUSE - CELL_FL=STORY 3_SCHH NODE 24 SUPPLY PATH,SYS_3_PSZ DU_BT=SPACE FUNCTION_ST=COURTHOUSE - CELL_FL=STORY 3_SCHH
   #Components on Supply Air Path,1
   Supply Air Path Component,1,AIRLOOPHVAC:ZONESPLITTER,AIR LOOP HVAC ZONE SPLITTER 1,SYS_3_PSZ DU_BT=SPACE FUNCTION_ST=COURTHOUSE - CELL_FL=STORY 3_SCHH
     #Outlet Nodes on Supply Air Path Component,1
     Supply Air Path Component Nodes,1,AIRLOOPHVAC:ZONESPLITTER,AIR LOOP HVAC ZONE SPLITTER 1,NODE 24,NODE 27,SYS_3_PSZ DU_BT=SPACE FUNCTION_ST=COURTHOUSE - CELL_FL=STORY 3_SCHH
! <#Nodes on Supply Air Path>,<Number of Nodes>
! <Supply Air Path Node>,<Node Type>,<Node Count>,<Node Name>,<AirLoopHVAC Name>
#Nodes on Supply Air Path,2
   Supply Air Path Node,Inlet Node,1,NODE 24,SYS_3_PSZ DU_BT=SPACE FUNCTION_ST=COURTHOUSE - CELL_FL=STORY 3_SCHH
   Supply Air Path Node,Outlet Node,2,NODE 27,SYS_3_PSZ DU_BT=SPACE FUNCTION_ST=COURTHOUSE - CELL_FL=STORY 3_SCHH
 Supply Air Path,4,SYS_4_PSZ_WILD_ST=CORR. < 2.4M WIDE-SCH-B_FL=STORY 4_SCH=A NODE 42 SUPPLY PATH,SYS_4_PSZ_WILD_ST=CORR. < 2.4M WIDE-SCH-B_FL=STORY 4_SCH=A
   #Components on Supply Air Path,1
   Supply Air Path Component,1,AIRLOOPHVAC:ZONESPLITTER,AIR LOOP HVAC ZONE SPLITTER 2,SYS_4_PSZ_WILD_ST=CORR. < 2.4M WIDE-SCH-B_FL=STORY 4_SCH=A
     #Outlet Nodes on Supply Air Path Component,17
     Supply Air Path Component Nodes,1,AIRLOOPHVAC:ZONESPLITTER,AIR LOOP HVAC ZONE SPLITTER 2,NODE 42,NODE 45,SYS_4_PSZ_WILD_ST=CORR. < 2.4M WIDE-SCH-B_FL=STORY 4_SCH=A
     Supply Air Path Component Nodes,2,AIRLOOPHVAC:ZONESPLITTER,AIR LOOP HVAC ZONE SPLITTER 2,NODE 42,NODE 59,SYS_4_PSZ_WILD_ST=CORR. < 2.4M WIDE-SCH-B_FL=STORY 4_SCH=A
     Supply Air Path Component Nodes,3,AIRLOOPHVAC:ZONESPLITTER,AIR LOOP HVAC ZONE SPLITTER 2,NODE 42,NODE 63,SYS_4_PSZ_WILD_ST=CORR. < 2.4M WIDE-SCH-B_FL=STORY 4_SCH=A
     Supply Air Path Component Nodes,4,AIRLOOPHVAC:ZONESPLITTER,AIR LOOP HVAC ZONE SPLITTER 2,NODE 42,NODE 67,SYS_4_PSZ_WILD_ST=CORR. < 2.4M WIDE-SCH-B_FL=STORY 4_SCH=A
     Supply Air Path Component Nodes,5,AIRLOOPHVAC:ZONESPLITTER,AIR LOOP HVAC ZONE SPLITTER 2,NODE 42,NODE 71,SYS_4_PSZ_WILD_ST=CORR. < 2.4M WIDE-SCH-B_FL=STORY 4_SCH=A
     Supply Air Path Component Nodes,6,AIRLOOPHVAC:ZONESPLITTER,AIR LOOP HVAC ZONE SPLITTER 2,NODE 42,NODE 75,SYS_4_PSZ_WILD_ST=CORR. < 2.4M WIDE-SCH-B_FL=STORY 4_SCH=A
     Supply Air Path Component Nodes,7,AIRLOOPHVAC:ZONESPLITTER,AIR LOOP HVAC ZONE SPLITTER 2,NODE 42,NODE 79,SYS_4_PSZ_WILD_ST=CORR. < 2.4M WIDE-SCH-B_FL=STORY 4_SCH=A
     Supply Air Path Component Nodes,8,AIRLOOPHVAC:ZONESPLITTER,AIR LOOP HVAC ZONE SPLITTER 2,NODE 42,NODE 83,SYS_4_PSZ_WILD_ST=CORR. < 2.4M WIDE-SCH-B_FL=STORY 4_SCH=A
     Supply Air Path Component Nodes,9,AIRLOOPHVAC:ZONESPLITTER,AIR LOOP HVAC ZONE SPLITTER 2,NODE 42,NODE 87,SYS_4_PSZ_WILD_ST=CORR. < 2.4M WIDE-SCH-B_FL=STORY 4_SCH=A
     Supply Air Path Component Nodes,10,AIRLOOPHVAC:ZONESPLITTER,AIR LOOP HVAC ZONE SPLITTER 2,NODE 42,NODE 91,SYS_4_PSZ_WILD_ST=CORR. < 2.4M WIDE-SCH-B_FL=STORY 4_SCH=A
     Supply Air Path Component Nodes,11,AIRLOOPHVAC:ZONESPLITTER,AIR LOOP HVAC ZONE SPLITTER 2,NODE 42,NODE 95,SYS_4_PSZ_WILD_ST=CORR. < 2.4M WIDE-SCH-B_FL=STORY 4_SCH=A
     Supply Air Path Component Nodes,12,AIRLOOPHVAC:ZONESPLITTER,AIR LOOP HVAC ZONE SPLITTER 2,NODE 42,NODE 99,SYS_4_PSZ_WILD_ST=CORR. < 2.4M WIDE-SCH-B_FL=STORY 4_SCH=A
     Supply Air Path Component Nodes,13,AIRLOOPHVAC:ZONESPLITTER,AIR LOOP HVAC ZONE SPLITTER 2,NODE 42,NODE 103,SYS_4_PSZ_WILD_ST=CORR. < 2.4M WIDE-SCH-B_FL=STORY 4_SCH=A
     Supply Air Path Component Nodes,14,AIRLOOPHVAC:ZONESPLITTER,AIR LOOP HVAC ZONE SPLITTER 2,NODE 42,NODE 107,SYS_4_PSZ_WILD_ST=CORR. < 2.4M WIDE-SCH-B_FL=STORY 4_SCH=A
     Supply Air Path Component Nodes,15,AIRLOOPHVAC:ZONESPLITTER,AIR LOOP HVAC ZONE SPLITTER 2,NODE 42,NODE 111,SYS_4_PSZ_WILD_ST=CORR. < 2.4M WIDE-SCH-B_FL=STORY 4_SCH=A
     Supply Air Path Component Nodes,16,AIRLOOPHVAC:ZONESPLITTER,AIR LOOP HVAC ZONE SPLITTER 2,NODE 42,NODE 115,SYS_4_PSZ_WILD_ST=CORR. < 2.4M WIDE-SCH-B_FL=STORY 4_SCH=A
     Supply Air Path Component Nodes,17,AIRLOOPHVAC:ZONESPLITTER,AIR LOOP HVAC ZONE SPLITTER 2,NODE 42,NODE 119,SYS_4_PSZ_WILD_ST=CORR. < 2.4M WIDE-SCH-B_FL=STORY 4_SCH=A
! <#Nodes on Supply Air Path>,<Number of Nodes>
! <Supply Air Path Node>,<Node Type>,<Node Count>,<Node Name>,<AirLoopHVAC Name>
#Nodes on Supply Air Path,18
   Supply Air Path Node,Inlet Node,1,NODE 42,SYS_4_PSZ_WILD_ST=CORR. < 2.4M WIDE-SCH-B_FL=STORY 4_SCH=A
   Supply Air Path Node,Outlet Node,2,NODE 45,SYS_4_PSZ_WILD_ST=CORR. < 2.4M WIDE-SCH-B_FL=STORY 4_SCH=A
   Supply Air Path Node,Outlet Node,3,NODE 59,SYS_4_PSZ_WILD_ST=CORR. < 2.4M WIDE-SCH-B_FL=STORY 4_SCH=A
   Supply Air Path Node,Outlet Node,4,NODE 63,SYS_4_PSZ_WILD_ST=CORR. < 2.4M WIDE-SCH-B_FL=STORY 4_SCH=A
   Supply Air Path Node,Outlet Node,5,NODE 67,SYS_4_PSZ_WILD_ST=CORR. < 2.4M WIDE-SCH-B_FL=STORY 4_SCH=A
   Supply Air Path Node,Outlet Node,6,NODE 71,SYS_4_PSZ_WILD_ST=CORR. < 2.4M WIDE-SCH-B_FL=STORY 4_SCH=A
   Supply Air Path Node,Outlet Node,7,NODE 75,SYS_4_PSZ_WILD_ST=CORR. < 2.4M WIDE-SCH-B_FL=STORY 4_SCH=A
   Supply Air Path Node,Outlet Node,8,NODE 79,SYS_4_PSZ_WILD_ST=CORR. < 2.4M WIDE-SCH-B_FL=STORY 4_SCH=A
   Supply Air Path Node,Outlet Node,9,NODE 83,SYS_4_PSZ_WILD_ST=CORR. < 2.4M WIDE-SCH-B_FL=STORY 4_SCH=A
   Supply Air Path Node,Outlet Node,10,NODE 87,SYS_4_PSZ_WILD_ST=CORR. < 2.4M WIDE-SCH-B_FL=STORY 4_SCH=A
   Supply Air Path Node,Outlet Node,11,NODE 91,SYS_4_PSZ_WILD_ST=CORR. < 2.4M WIDE-SCH-B_FL=STORY 4_SCH=A
   Supply Air Path Node,Outlet Node,12,NODE 95,SYS_4_PSZ_WILD_ST=CORR. < 2.4M WIDE-SCH-B_FL=STORY 4_SCH=A
   Supply Air Path Node,Outlet Node,13,NODE 99,SYS_4_PSZ_WILD_ST=CORR. < 2.4M WIDE-SCH-B_FL=STORY 4_SCH=A
   Supply Air Path Node,Outlet Node,14,NODE 103,SYS_4_PSZ_WILD_ST=CORR. < 2.4M WIDE-SCH-B_FL=STORY 4_SCH=A
   Supply Air Path Node,Outlet Node,15,NODE 107,SYS_4_PSZ_WILD_ST=CORR. < 2.4M WIDE-SCH-B_FL=STORY 4_SCH=A
   Supply Air Path Node,Outlet Node,16,NODE 111,SYS_4_PSZ_WILD_ST=CORR. < 2.4M WIDE-SCH-B_FL=STORY 4_SCH=A
   Supply Air Path Node,Outlet Node,17,NODE 115,SYS_4_PSZ_WILD_ST=CORR. < 2.4M WIDE-SCH-B_FL=STORY 4_SCH=A
   Supply Air Path Node,Outlet Node,18,NODE 119,SYS_4_PSZ_WILD_ST=CORR. < 2.4M WIDE-SCH-B_FL=STORY 4_SCH=A
! ===============================================================
! <#Return Air Paths>,<Number of Return Air Paths>
 #Return Air Paths,4
! <Return Air Path>,<Return Air Path Count>,<Return Air Path Name>,<AirLoopHVAC Name>
! <#Components on Return Air Path>,<Number of Components>
! <Return Air Path Component>,<Component Count>,<Component Type>,<Component Name>,<AirLoopHVAC Name>
! <#Inlet Nodes on Return Air Path Component>,<Number of Nodes>
! <Return Air Path Component Nodes>,<Node Count>,<Component Type>,<Component Name>,<Inlet Node Name>,<Outlet Node Name>,<AirLoopHVAC Name>
 Return Air Path,1,SYS_3_PSZ ALL_ST=COURTHOUSE - CHAMBERS_FL=STORY 2_SCH=A RETURN PATH,SYS_3_PSZ ALL_ST=COURTHOUSE - CHAMBERS_FL=STORY 2_SCH=A
   #Components on Return Air Path,1
   Return Air Path Component,1,AIRLOOPHVAC:ZONEMIXER,AIR LOOP HVAC ZONE MIXER 3,SYS_3_PSZ ALL_ST=COURTHOUSE - CHAMBERS_FL=STORY 2_SCH=A
     #Inlet Nodes on Return Air Path Component,1
     Return Air Path Component Nodes,1,AIRLOOPHVAC:ZONEMIXER,AIR LOOP HVAC ZONE MIXER 3,NODE 133,NODE 126,SYS_3_PSZ ALL_ST=COURTHOUSE - CHAMBERS_FL=STORY 2_SCH=A
! <#Nodes on Return Air Path>,<Number of Nodes>
! <Return Air Path Node>,<Node Type>,<Node Count>,<Node Name>,<AirLoopHVAC Name>
   #Nodes on Return Air Path,2
   Return Air Path Node,Outlet Node,1,NODE 126,SYS_3_PSZ ALL_ST=COURTHOUSE - CHAMBERS_FL=STORY 2_SCH=A
   Return Air Path Node,Inlet Node,2,NODE 133,SYS_3_PSZ ALL_ST=COURTHOUSE - CHAMBERS_FL=STORY 2_SCH=A
 Return Air Path,2,SYS_3_PSZ ALL_ST=COURTHOUSE - COURTROOM_FL=STORY 2_SCH=A RETURN PATH,SYS_3_PSZ ALL_ST=COURTHOUSE - COURTROOM_FL=STORY 2_SCH=A
   #Components on Return Air Path,1
   Return Air Path Component,1,AIRLOOPHVAC:ZONEMIXER,AIR LOOP HVAC ZONE MIXER 4,SYS_3_PSZ ALL_ST=COURTHOUSE - COURTROOM_FL=STORY 2_SCH=A
     #Inlet Nodes on Return Air Path Component,1
     Return Air Path Component Nodes,1,AIRLOOPHVAC:ZONEMIXER,AIR LOOP HVAC ZONE MIXER 4,NODE 146,NODE 139,SYS_3_PSZ ALL_ST=COURTHOUSE - COURTROOM_FL=STORY 2_SCH=A
! <#Nodes on Return Air Path>,<Number of Nodes>
! <Return Air Path Node>,<Node Type>,<Node Count>,<Node Name>,<AirLoopHVAC Name>
   #Nodes on Return Air Path,2
   Return Air Path Node,Outlet Node,1,NODE 139,SYS_3_PSZ ALL_ST=COURTHOUSE - COURTROOM_FL=STORY 2_SCH=A
   Return Air Path Node,Inlet Node,2,NODE 146,SYS_3_PSZ ALL_ST=COURTHOUSE - COURTROOM_FL=STORY 2_SCH=A
 Return Air Path,3,SYS_3_PSZ DU_BT=SPACE FUNCTION_ST=COURTHOUSE - CELL_FL=STORY 3_SCHH RETURN PATH,SYS_3_PSZ DU_BT=SPACE FUNCTION_ST=COURTHOUSE - CELL_FL=STORY 3_SCHH
   #Components on Return Air Path,1
   Return Air Path Component,1,AIRLOOPHVAC:ZONEMIXER,AIR LOOP HVAC ZONE MIXER 1,SYS_3_PSZ DU_BT=SPACE FUNCTION_ST=COURTHOUSE - CELL_FL=STORY 3_SCHH
     #Inlet Nodes on Return Air Path Component,1
     Return Air Path Component Nodes,1,AIRLOOPHVAC:ZONEMIXER,AIR LOOP HVAC ZONE MIXER 1,NODE 36,NODE 26,SYS_3_PSZ DU_BT=SPACE FUNCTION_ST=COURTHOUSE - CELL_FL=STORY 3_SCHH
! <#Nodes on Return Air Path>,<Number of Nodes>
! <Return Air Path Node>,<Node Type>,<Node Count>,<Node Name>,<AirLoopHVAC Name>
   #Nodes on Return Air Path,2
   Return Air Path Node,Outlet Node,1,NODE 26,SYS_3_PSZ DU_BT=SPACE FUNCTION_ST=COURTHOUSE - CELL_FL=STORY 3_SCHH
   Return Air Path Node,Inlet Node,2,NODE 36,SYS_3_PSZ DU_BT=SPACE FUNCTION_ST=COURTHOUSE - CELL_FL=STORY 3_SCHH
 Return Air Path,4,SYS_4_PSZ_WILD_ST=CORR. < 2.4M WIDE-SCH-B_FL=STORY 4_SCH=A RETURN PATH,SYS_4_PSZ_WILD_ST=CORR. < 2.4M WIDE-SCH-B_FL=STORY 4_SCH=A
   #Components on Return Air Path,1
   Return Air Path Component,1,AIRLOOPHVAC:ZONEMIXER,AIR LOOP HVAC ZONE MIXER 2,SYS_4_PSZ_WILD_ST=CORR. < 2.4M WIDE-SCH-B_FL=STORY 4_SCH=A
     #Inlet Nodes on Return Air Path Component,17
     Return Air Path Component Nodes,1,AIRLOOPHVAC:ZONEMIXER,AIR LOOP HVAC ZONE MIXER 2,NODE 54,NODE 44,SYS_4_PSZ_WILD_ST=CORR. < 2.4M WIDE-SCH-B_FL=STORY 4_SCH=A
     Return Air Path Component Nodes,2,AIRLOOPHVAC:ZONEMIXER,AIR LOOP HVAC ZONE MIXER 2,NODE 60,NODE 44,SYS_4_PSZ_WILD_ST=CORR. < 2.4M WIDE-SCH-B_FL=STORY 4_SCH=A
     Return Air Path Component Nodes,3,AIRLOOPHVAC:ZONEMIXER,AIR LOOP HVAC ZONE MIXER 2,NODE 64,NODE 44,SYS_4_PSZ_WILD_ST=CORR. < 2.4M WIDE-SCH-B_FL=STORY 4_SCH=A
     Return Air Path Component Nodes,4,AIRLOOPHVAC:ZONEMIXER,AIR LOOP HVAC ZONE MIXER 2,NODE 68,NODE 44,SYS_4_PSZ_WILD_ST=CORR. < 2.4M WIDE-SCH-B_FL=STORY 4_SCH=A
     Return Air Path Component Nodes,5,AIRLOOPHVAC:ZONEMIXER,AIR LOOP HVAC ZONE MIXER 2,NODE 72,NODE 44,SYS_4_PSZ_WILD_ST=CORR. < 2.4M WIDE-SCH-B_FL=STORY 4_SCH=A
     Return Air Path Component Nodes,6,AIRLOOPHVAC:ZONEMIXER,AIR LOOP HVAC ZONE MIXER 2,NODE 76,NODE 44,SYS_4_PSZ_WILD_ST=CORR. < 2.4M WIDE-SCH-B_FL=STORY 4_SCH=A
     Return Air Path Component Nodes,7,AIRLOOPHVAC:ZONEMIXER,AIR LOOP HVAC ZONE MIXER 2,NODE 80,NODE 44,SYS_4_PSZ_WILD_ST=CORR. < 2.4M WIDE-SCH-B_FL=STORY 4_SCH=A
     Return Air Path Component Nodes,8,AIRLOOPHVAC:ZONEMIXER,AIR LOOP HVAC ZONE MIXER 2,NODE 84,NODE 44,SYS_4_PSZ_WILD_ST=CORR. < 2.4M WIDE-SCH-B_FL=STORY 4_SCH=A
     Return Air Path Component Nodes,9,AIRLOOPHVAC:ZONEMIXER,AIR LOOP HVAC ZONE MIXER 2,NODE 88,NODE 44,SYS_4_PSZ_WILD_ST=CORR. < 2.4M WIDE-SCH-B_FL=STORY 4_SCH=A
     Return Air Path Component Nodes,10,AIRLOOPHVAC:ZONEMIXER,AIR LOOP HVAC ZONE MIXER 2,NODE 92,NODE 44,SYS_4_PSZ_WILD_ST=CORR. < 2.4M WIDE-SCH-B_FL=STORY 4_SCH=A
     Return Air Path Component Nodes,11,AIRLOOPHVAC:ZONEMIXER,AIR LOOP HVAC ZONE MIXER 2,NODE 96,NODE 44,SYS_4_PSZ_WILD_ST=CORR. < 2.4M WIDE-SCH-B_FL=STORY 4_SCH=A
     Return Air Path Component Nodes,12,AIRLOOPHVAC:ZONEMIXER,AIR LOOP HVAC ZONE MIXER 2,NODE 100,NODE 44,SYS_4_PSZ_WILD_ST=CORR. < 2.4M WIDE-SCH-B_FL=STORY 4_SCH=A
     Return Air Path Component Nodes,13,AIRLOOPHVAC:ZONEMIXER,AIR LOOP HVAC ZONE MIXER 2,NODE 104,NODE 44,SYS_4_PSZ_WILD_ST=CORR. < 2.4M WIDE-SCH-B_FL=STORY 4_SCH=A
     Return Air Path Component Nodes,14,AIRLOOPHVAC:ZONEMIXER,AIR LOOP HVAC ZONE MIXER 2,NODE 108,NODE 44,SYS_4_PSZ_WILD_ST=CORR. < 2.4M WIDE-SCH-B_FL=STORY 4_SCH=A
     Return Air Path Component Nodes,15,AIRLOOPHVAC:ZONEMIXER,AIR LOOP HVAC ZONE MIXER 2,NODE 112,NODE 44,SYS_4_PSZ_WILD_ST=CORR. < 2.4M WIDE-SCH-B_FL=STORY 4_SCH=A
     Return Air Path Component Nodes,16,AIRLOOPHVAC:ZONEMIXER,AIR LOOP HVAC ZONE MIXER 2,NODE 116,NODE 44,SYS_4_PSZ_WILD_ST=CORR. < 2.4M WIDE-SCH-B_FL=STORY 4_SCH=A
     Return Air Path Component Nodes,17,AIRLOOPHVAC:ZONEMIXER,AIR LOOP HVAC ZONE MIXER 2,NODE 120,NODE 44,SYS_4_PSZ_WILD_ST=CORR. < 2.4M WIDE-SCH-B_FL=STORY 4_SCH=A
! <#Nodes on Return Air Path>,<Number of Nodes>
! <Return Air Path Node>,<Node Type>,<Node Count>,<Node Name>,<AirLoopHVAC Name>
   #Nodes on Return Air Path,18
   Return Air Path Node,Outlet Node,1,NODE 44,SYS_4_PSZ_WILD_ST=CORR. < 2.4M WIDE-SCH-B_FL=STORY 4_SCH=A
   Return Air Path Node,Inlet Node,2,NODE 54,SYS_4_PSZ_WILD_ST=CORR. < 2.4M WIDE-SCH-B_FL=STORY 4_SCH=A
   Return Air Path Node,Inlet Node,3,NODE 60,SYS_4_PSZ_WILD_ST=CORR. < 2.4M WIDE-SCH-B_FL=STORY 4_SCH=A
   Return Air Path Node,Inlet Node,4,NODE 64,SYS_4_PSZ_WILD_ST=CORR. < 2.4M WIDE-SCH-B_FL=STORY 4_SCH=A
   Return Air Path Node,Inlet Node,5,NODE 68,SYS_4_PSZ_WILD_ST=CORR. < 2.4M WIDE-SCH-B_FL=STORY 4_SCH=A
   Return Air Path Node,Inlet Node,6,NODE 72,SYS_4_PSZ_WILD_ST=CORR. < 2.4M WIDE-SCH-B_FL=STORY 4_SCH=A
   Return Air Path Node,Inlet Node,7,NODE 76,SYS_4_PSZ_WILD_ST=CORR. < 2.4M WIDE-SCH-B_FL=STORY 4_SCH=A
   Return Air Path Node,Inlet Node,8,NODE 80,SYS_4_PSZ_WILD_ST=CORR. < 2.4M WIDE-SCH-B_FL=STORY 4_SCH=A
   Return Air Path Node,Inlet Node,9,NODE 84,SYS_4_PSZ_WILD_ST=CORR. < 2.4M WIDE-SCH-B_FL=STORY 4_SCH=A
   Return Air Path Node,Inlet Node,10,NODE 88,SYS_4_PSZ_WILD_ST=CORR. < 2.4M WIDE-SCH-B_FL=STORY 4_SCH=A
   Return Air Path Node,Inlet Node,11,NODE 92,SYS_4_PSZ_WILD_ST=CORR. < 2.4M WIDE-SCH-B_FL=STORY 4_SCH=A
   Return Air Path Node,Inlet Node,12,NODE 96,SYS_4_PSZ_WILD_ST=CORR. < 2.4M WIDE-SCH-B_FL=STORY 4_SCH=A
   Return Air Path Node,Inlet Node,13,NODE 100,SYS_4_PSZ_WILD_ST=CORR. < 2.4M WIDE-SCH-B_FL=STORY 4_SCH=A
   Return Air Path Node,Inlet Node,14,NODE 104,SYS_4_PSZ_WILD_ST=CORR. < 2.4M WIDE-SCH-B_FL=STORY 4_SCH=A
   Return Air Path Node,Inlet Node,15,NODE 108,SYS_4_PSZ_WILD_ST=CORR. < 2.4M WIDE-SCH-B_FL=STORY 4_SCH=A
   Return Air Path Node,Inlet Node,16,NODE 112,SYS_4_PSZ_WILD_ST=CORR. < 2.4M WIDE-SCH-B_FL=STORY 4_SCH=A
   Return Air Path Node,Inlet Node,17,NODE 116,SYS_4_PSZ_WILD_ST=CORR. < 2.4M WIDE-SCH-B_FL=STORY 4_SCH=A
   Return Air Path Node,Inlet Node,18,NODE 120,SYS_4_PSZ_WILD_ST=CORR. < 2.4M WIDE-SCH-B_FL=STORY 4_SCH=A
! ===============================================================
! #Outdoor Air Nodes,<Number of Outdoor Air Nodes>
 #Outdoor Air Nodes,5
! <Outdoor Air Node>,<NodeNumber>,<Node Name>
 Outdoor Air Node,167,NODE 128
 Outdoor Air Node,168,NODE 141
 Outdoor Air Node,169,NODE 29
 Outdoor Air Node,170,NODE 47
 Outdoor Air Node,171,MODEL OUTDOOR AIR NODE
! ===============================================================
! <#Component Sets>,<Number of Component Sets>
 #Component Sets,63
! <Component Set>,<Component Set Count>,<Parent Object Type>,<Parent Object Name>,<Component Type>,<Component Name>,<Inlet Node ID>,<Outlet Node ID>,<Description>
 Component Set,1,BRANCH,SYS_3_PSZ ALL_ST=COURTHOUSE - CHAMBERS_FL=STORY 2_SCH=A MAIN BRANCH,AIRLOOPHVAC:OUTDOORAIRSYSTEM,AIR LOOP HVAC OUTDOOR AIR SYSTEM 3,NODE 123,NODE 132,Air Nodes
 Component Set,2,BRANCH,SYS_3_PSZ ALL_ST=COURTHOUSE - CHAMBERS_FL=STORY 2_SCH=A MAIN BRANCH,COILSYSTEM:COOLING:DX,COIL COOLING DX SINGLE SPEED 3 COILSYSTEM,NODE 132,NODE 131,Air Nodes
 Component Set,3,BRANCH,SYS_3_PSZ ALL_ST=COURTHOUSE - CHAMBERS_FL=STORY 2_SCH=A MAIN BRANCH,COIL:HEATING:FUEL,COIL HEATING GAS 3,NODE 131,NODE 130,Air Nodes
 Component Set,4,BRANCH,SYS_3_PSZ ALL_ST=COURTHOUSE - CHAMBERS_FL=STORY 2_SCH=A MAIN BRANCH,FAN:CONSTANTVOLUME,FAN CONSTANT VOLUME 3,NODE 130,NODE 124,Air Nodes
 Component Set,5,BRANCH,SYS_3_PSZ ALL_ST=COURTHOUSE - COURTROOM_FL=STORY 2_SCH=A MAIN BRANCH,AIRLOOPHVAC:OUTDOORAIRSYSTEM,AIR LOOP HVAC OUTDOOR AIR SYSTEM 4,NODE 136,NODE 145,Air Nodes
 Component Set,6,BRANCH,SYS_3_PSZ ALL_ST=COURTHOUSE - COURTROOM_FL=STORY 2_SCH=A MAIN BRANCH,COILSYSTEM:COOLING:DX,COIL COOLING DX SINGLE SPEED 4 COILSYSTEM,NODE 145,NODE 144,Air Nodes
 Component Set,7,BRANCH,SYS_3_PSZ ALL_ST=COURTHOUSE - COURTROOM_FL=STORY 2_SCH=A MAIN BRANCH,COIL:HEATING:FUEL,COIL HEATING GAS 4,NODE 144,NODE 143,Air Nodes
 Component Set,8,BRANCH,SYS_3_PSZ ALL_ST=COURTHOUSE - COURTROOM_FL=STORY 2_SCH=A MAIN BRANCH,FAN:CONSTANTVOLUME,FAN CONSTANT VOLUME 4,NODE 143,NODE 137,Air Nodes
 Component Set,9,BRANCH,SYS_3_PSZ DU_BT=SPACE FUNCTION_ST=COURTHOUSE - CELL_FL=STORY 3_SCHH MAIN BRANCH,AIRLOOPHVAC:OUTDOORAIRSYSTEM,AIR LOOP HVAC OUTDOOR AIR SYSTEM 1,NODE 21,NODE 35,Air Nodes
 Component Set,10,BRANCH,SYS_3_PSZ DU_BT=SPACE FUNCTION_ST=COURTHOUSE - CELL_FL=STORY 3_SCHH MAIN BRANCH,COILSYSTEM:COOLING:DX,COIL COOLING DX SINGLE SPEED 1 COILSYSTEM,NODE 35,NODE 33,Air Nodes
 Component Set,11,BRANCH,SYS_3_PSZ DU_BT=SPACE FUNCTION_ST=COURTHOUSE - CELL_FL=STORY 3_SCHH MAIN BRANCH,COIL:HEATING:FUEL,COIL HEATING GAS 1,NODE 33,NODE 32,Air Nodes
 Component Set,12,BRANCH,SYS_3_PSZ DU_BT=SPACE FUNCTION_ST=COURTHOUSE - CELL_FL=STORY 3_SCHH MAIN BRANCH,FAN:CONSTANTVOLUME,FAN CONSTANT VOLUME 1,NODE 32,NODE 23,Air Nodes
 Component Set,13,BRANCH,SYS_4_PSZ_WILD_ST=CORR. < 2.4M WIDE-SCH-B_FL=STORY 4_SCH=A MAIN BRANCH,AIRLOOPHVAC:OUTDOORAIRSYSTEM,AIR LOOP HVAC OUTDOOR AIR SYSTEM 2,NODE 39,NODE 53,Air Nodes
 Component Set,14,BRANCH,SYS_4_PSZ_WILD_ST=CORR. < 2.4M WIDE-SCH-B_FL=STORY 4_SCH=A MAIN BRANCH,COILSYSTEM:COOLING:DX,COIL COOLING DX SINGLE SPEED 2 COILSYSTEM,NODE 53,NODE 51,Air Nodes
 Component Set,15,BRANCH,SYS_4_PSZ_WILD_ST=CORR. < 2.4M WIDE-SCH-B_FL=STORY 4_SCH=A MAIN BRANCH,COIL:HEATING:FUEL,COIL HEATING GAS 2,NODE 51,NODE 50,Air Nodes
 Component Set,16,BRANCH,SYS_4_PSZ_WILD_ST=CORR. < 2.4M WIDE-SCH-B_FL=STORY 4_SCH=A MAIN BRANCH,FAN:CONSTANTVOLUME,FAN CONSTANT VOLUME 2,NODE 50,NODE 41,Air Nodes
 Component Set,17,BRANCH,HOT WATER LOOP SUPPLY INLET BRANCH,PUMP:VARIABLESPEED,PUMP VARIABLE SPEED 1,NODE 2,NODE 11,Water Nodes
 Component Set,18,BRANCH,HOT WATER LOOP SUPPLY BRANCH 1,BOILER:HOTWATER,PRIMARY BOILER,NODE 5,NODE 12,Hot Water Nodes
 Component Set,19,BRANCH,HOT WATER LOOP SUPPLY BRANCH 2,BOILER:HOTWATER,SECONDARY BOILER,NODE 14,NODE 15,Hot Water Nodes
 Component Set,20,BRANCH,HOT WATER LOOP SUPPLY BRANCH 3,PIPE:ADIABATIC,PIPE ADIABATIC 1,NODE 17,NODE 18,Pipe Nodes
 Component Set,21,BRANCH,HOT WATER LOOP SUPPLY OUTLET BRANCH,PIPE:ADIABATIC,PIPE ADIABATIC 2,NODE 20,NODE 3,Pipe Nodes
 Component Set,22,BRANCH,HOT WATER LOOP DEMAND INLET BRANCH,PIPE:ADIABATIC,HOT WATER LOOP DEMAND INLET PIPE,NODE 6,HOT WATER LOOP DEMAND INLET PIPE NODE,Pipe Nodes
 Component Set,23,BRANCH,HOT WATER LOOP DEMAND BRANCH 1,ZONEHVAC:BASEBOARD:CONVECTIVE:WATER,ZONE HVAC BASEBOARD CONVECTIVE WATER 1,NODE 9,NODE 38,Hot Water Nodes
 Component Set,24,BRANCH,HOT WATER LOOP DEMAND BRANCH 2,ZONEHVAC:BASEBOARD:CONVECTIVE:WATER,ZONE HVAC BASEBOARD CONVECTIVE WATER 2,NODE 56,NODE 57,Hot Water Nodes
 Component Set,25,BRANCH,HOT WATER LOOP DEMAND BRANCH 3,ZONEHVAC:BASEBOARD:CONVECTIVE:WATER,ZONE HVAC BASEBOARD CONVECTIVE WATER 3,NODE 61,NODE 62,Hot Water Nodes
 Component Set,26,BRANCH,HOT WATER LOOP DEMAND BRANCH 4,ZONEHVAC:BASEBOARD:CONVECTIVE:WATER,ZONE HVAC BASEBOARD CONVECTIVE WATER 4,NODE 65,NODE 66,Hot Water Nodes
 Component Set,27,BRANCH,HOT WATER LOOP DEMAND BRANCH 5,ZONEHVAC:BASEBOARD:CONVECTIVE:WATER,ZONE HVAC BASEBOARD CONVECTIVE WATER 5,NODE 69,NODE 70,Hot Water Nodes
 Component Set,28,BRANCH,HOT WATER LOOP DEMAND BRANCH 6,ZONEHVAC:BASEBOARD:CONVECTIVE:WATER,ZONE HVAC BASEBOARD CONVECTIVE WATER 6,NODE 73,NODE 74,Hot Water Nodes
 Component Set,29,BRANCH,HOT WATER LOOP DEMAND BRANCH 7,ZONEHVAC:BASEBOARD:CONVECTIVE:WATER,ZONE HVAC BASEBOARD CONVECTIVE WATER 7,NODE 77,NODE 78,Hot Water Nodes
 Component Set,30,BRANCH,HOT WATER LOOP DEMAND BRANCH 8,ZONEHVAC:BASEBOARD:CONVECTIVE:WATER,ZONE HVAC BASEBOARD CONVECTIVE WATER 8,NODE 81,NODE 82,Hot Water Nodes
 Component Set,31,BRANCH,HOT WATER LOOP DEMAND BRANCH 9,ZONEHVAC:BASEBOARD:CONVECTIVE:WATER,ZONE HVAC BASEBOARD CONVECTIVE WATER 9,NODE 85,NODE 86,Hot Water Nodes
 Component Set,32,BRANCH,HOT WATER LOOP DEMAND BRANCH 10,ZONEHVAC:BASEBOARD:CONVECTIVE:WATER,ZONE HVAC BASEBOARD CONVECTIVE WATER 10,NODE 89,NODE 90,Hot Water Nodes
 Component Set,33,BRANCH,HOT WATER LOOP DEMAND BRANCH 11,ZONEHVAC:BASEBOARD:CONVECTIVE:WATER,ZONE HVAC BASEBOARD CONVECTIVE WATER 11,NODE 93,NODE 94,Hot Water Nodes
 Component Set,34,BRANCH,HOT WATER LOOP DEMAND BRANCH 12,ZONEHVAC:BASEBOARD:CONVECTIVE:WATER,ZONE HVAC BASEBOARD CONVECTIVE WATER 12,NODE 97,NODE 98,Hot Water Nodes
 Component Set,35,BRANCH,HOT WATER LOOP DEMAND BRANCH 13,ZONEHVAC:BASEBOARD:CONVECTIVE:WATER,ZONE HVAC BASEBOARD CONVECTIVE WATER 13,NODE 101,NODE 102,Hot Water Nodes
 Component Set,36,BRANCH,HOT WATER LOOP DEMAND BRANCH 14,ZONEHVAC:BASEBOARD:CONVECTIVE:WATER,ZONE HVAC BASEBOARD CONVECTIVE WATER 14,NODE 105,NODE 106,Hot Water Nodes
 Component Set,37,BRANCH,HOT WATER LOOP DEMAND BRANCH 15,ZONEHVAC:BASEBOARD:CONVECTIVE:WATER,ZONE HVAC BASEBOARD CONVECTIVE WATER 15,NODE 109,NODE 110,Hot Water Nodes
 Component Set,38,BRANCH,HOT WATER LOOP DEMAND BRANCH 16,ZONEHVAC:BASEBOARD:CONVECTIVE:WATER,ZONE HVAC BASEBOARD CONVECTIVE WATER 16,NODE 113,NODE 114,Hot Water Nodes
 Component Set,39,BRANCH,HOT WATER LOOP DEMAND BRANCH 17,ZONEHVAC:BASEBOARD:CONVECTIVE:WATER,ZONE HVAC BASEBOARD CONVECTIVE WATER 17,NODE 117,NODE 118,Hot Water Nodes
 Component Set,40,BRANCH,HOT WATER LOOP DEMAND BRANCH 18,ZONEHVAC:BASEBOARD:CONVECTIVE:WATER,ZONE HVAC BASEBOARD CONVECTIVE WATER 18,NODE 121,NODE 122,Hot Water Nodes
 Component Set,41,BRANCH,HOT WATER LOOP DEMAND BRANCH 19,ZONEHVAC:BASEBOARD:CONVECTIVE:WATER,ZONE HVAC BASEBOARD CONVECTIVE WATER 19,NODE 134,NODE 135,Hot Water Nodes
 Component Set,42,BRANCH,HOT WATER LOOP DEMAND BRANCH 20,ZONEHVAC:BASEBOARD:CONVECTIVE:WATER,ZONE HVAC BASEBOARD CONVECTIVE WATER 20,NODE 147,NODE 148,Hot Water Nodes
 Component Set,43,BRANCH,HOT WATER LOOP DEMAND BYPASS BRANCH,PIPE:ADIABATIC,HOT WATER LOOP DEMAND BYPASS PIPE,HOT WATER LOOP DEMAND BYPASS PIPE INLET NODE,HOT WATER LOOP DEMAND BYPASS PIPE OUTLET NODE,Pipe Nodes
 Component Set,44,BRANCH,HOT WATER LOOP DEMAND OUTLET BRANCH,PIPE:ADIABATIC,HOT WATER LOOP DEMAND OUTLET PIPE,HOT WATER LOOP DEMAND OUTLET PIPE NODE,NODE 8,Pipe Nodes
 Component Set,45,BRANCH,MAIN SERVICE WATER LOOP SUPPLY INLET BRANCH,PUMP:CONSTANTSPEED,SERVICE WATER LOOP PUMP,NODE 149,NODE 155,Water Nodes
 Component Set,46,BRANCH,MAIN SERVICE WATER LOOP SUPPLY BRANCH 1,WATERHEATER:MIXED,335GAL NATURALGAS WATER HEATER - 226KBTU/HR,NODE 151,NODE 156,Use Side Water Nodes
 Component Set,47,BRANCH,MAIN SERVICE WATER LOOP SUPPLY BRANCH 2,PIPE:ADIABATIC,PIPE ADIABATIC 3,NODE 157,NODE 158,Pipe Nodes
 Component Set,48,BRANCH,MAIN SERVICE WATER LOOP SUPPLY OUTLET BRANCH,PIPE:ADIABATIC,PIPE ADIABATIC 5,NODE 160,NODE 150,Pipe Nodes
 Component Set,49,BRANCH,MAIN SERVICE WATER LOOP DEMAND INLET BRANCH,PIPE:ADIABATIC,PIPE ADIABATIC 6,NODE 152,NODE 161,Pipe Nodes
 Component Set,50,BRANCH,MAIN SERVICE WATER LOOP DEMAND BRANCH 1,PIPE:ADIABATIC,PIPE ADIABATIC 4,NODE 154,NODE 159,Pipe Nodes
 Component Set,51,BRANCH,MAIN SERVICE WATER LOOP DEMAND BRANCH 2,WATERUSE:CONNECTIONS,WATER USE CONNECTIONS 1,NODE 163,NODE 164,DHW Nodes
 Component Set,52,BRANCH,MAIN SERVICE WATER LOOP DEMAND BRANCH 3,WATERUSE:CONNECTIONS,WATER USE CONNECTIONS 2,NODE 165,NODE 166,DHW Nodes
 Component Set,53,BRANCH,MAIN SERVICE WATER LOOP DEMAND BRANCH 4,WATERUSE:CONNECTIONS,WATER USE CONNECTIONS 3,NODE 167,NODE 168,DHW Nodes
 Component Set,54,BRANCH,MAIN SERVICE WATER LOOP DEMAND BYPASS BRANCH,PIPE:ADIABATIC,MAIN SERVICE WATER LOOP DEMAND BYPASS PIPE,MAIN SERVICE WATER LOOP DEMAND BYPASS PIPE INLET NODE,MAIN SERVICE WATER LOOP DEMAND BYPASS PIPE OUTLET NODE,Pipe Nodes
 Component Set,55,BRANCH,MAIN SERVICE WATER LOOP DEMAND OUTLET BRANCH,PIPE:ADIABATIC,PIPE ADIABATIC 7,NODE 162,NODE 153,Pipe Nodes
 Component Set,56,AIRLOOPHVAC:OUTDOORAIRSYSTEM,AIR LOOP HVAC OUTDOOR AIR SYSTEM 3,OUTDOORAIR:MIXER,AIR LOOP HVAC OUTDOOR AIR SYSTEM 3 OUTDOOR AIR MIXER,NODE 128,NODE 132,Air Nodes
 Component Set,57,AIRLOOPHVAC:OUTDOORAIRSYSTEM,AIR LOOP HVAC OUTDOOR AIR SYSTEM 4,OUTDOORAIR:MIXER,AIR LOOP HVAC OUTDOOR AIR SYSTEM 4 OUTDOOR AIR MIXER,NODE 141,NODE 145,Air Nodes
 Component Set,58,AIRLOOPHVAC:OUTDOORAIRSYSTEM,AIR LOOP HVAC OUTDOOR AIR SYSTEM 1,OUTDOORAIR:MIXER,AIR LOOP HVAC OUTDOOR AIR SYSTEM 1 OUTDOOR AIR MIXER,NODE 29,NODE 35,Air Nodes
 Component Set,59,AIRLOOPHVAC:OUTDOORAIRSYSTEM,AIR LOOP HVAC OUTDOOR AIR SYSTEM 2,OUTDOORAIR:MIXER,AIR LOOP HVAC OUTDOOR AIR SYSTEM 2 OUTDOOR AIR MIXER,NODE 47,NODE 53,Air Nodes
 Component Set,60,COILSYSTEM:COOLING:DX,COIL COOLING DX SINGLE SPEED 3 COILSYSTEM,COIL:COOLING:DX:SINGLESPEED,COIL COOLING DX SINGLE SPEED 3,NODE 132,NODE 131,Air Nodes
 Component Set,61,COILSYSTEM:COOLING:DX,COIL COOLING DX SINGLE SPEED 4 COILSYSTEM,COIL:COOLING:DX:SINGLESPEED,COIL COOLING DX SINGLE SPEED 4,NODE 145,NODE 144,Air Nodes
 Component Set,62,COILSYSTEM:COOLING:DX,COIL COOLING DX SINGLE SPEED 1 COILSYSTEM,COIL:COOLING:DX:SINGLESPEED,COIL COOLING DX SINGLE SPEED 1,NODE 35,NODE 33,Air Nodes
 Component Set,63,COILSYSTEM:COOLING:DX,COIL COOLING DX SINGLE SPEED 2 COILSYSTEM,COIL:COOLING:DX:SINGLESPEED,COIL COOLING DX SINGLE SPEED 2,NODE 53,NODE 51,Air Nodes
! ===============================================================
! <# Plant Loops>,<Number of Plant Loops>
 #Plant Loops,2
! <Plant Loop>,<Plant Loop Name>,<Loop Type>,<Inlet Node Name>,<Outlet Node Name>,<Branch List>,<Connector List>
! <Plant Loop Connector>,<Connector Type>,<Connector Name>,<Loop Name>,<Loop Type>,<Number of Inlets/Outlets>
! <Plant Loop Connector Branches>,<Connector Node Count>,<Connector Type>,<Connector Name>,<Inlet Branch>,<Outlet Branch>,<Loop Name>,<Loop Type>
! <Plant Loop Connector Nodes>,<Connector Node Count>,<Connector Type>,<Connector Name>,<Inlet Node>,<Outlet Node>,<Loop Name>,<Loop Type>
! <Plant Loop Supply Connection>,<Plant Loop Name>,<Supply Side Outlet Node Name>,<Demand Side Inlet Node Name>
! <Plant Loop Return Connection>,<Plant Loop Name>,<Demand Side Outlet Node Name>,<Supply Side Inlet Node Name>
 Plant Loop,HOT WATER LOOP,Demand,NODE 6,NODE 8,HOT WATER LOOP DEMAND BRANCHES,HOT WATER LOOP DEMAND CONNECTOR LIST
   Plant Loop Connector,Splitter,HOT WATER LOOP DEMAND SPLITTER,HOT WATER LOOP,Demand,21
     Plant Loop Connector Branches,1,Splitter,HOT WATER LOOP DEMAND SPLITTER,HOT WATER LOOP DEMAND INLET BRANCH,HOT WATER LOOP DEMAND BRANCH 1,HOT WATER LOOP,Demand
     Plant Loop Connector Nodes,   1,Splitter,HOT WATER LOOP DEMAND SPLITTER,HOT WATER LOOP DEMAND INLET PIPE NODE,NODE 9,HOT WATER LOOP,Demand
     Plant Loop Connector Branches,2,Splitter,HOT WATER LOOP DEMAND SPLITTER,HOT WATER LOOP DEMAND INLET BRANCH,HOT WATER LOOP DEMAND BRANCH 2,HOT WATER LOOP,Demand
     Plant Loop Connector Nodes,   2,Splitter,HOT WATER LOOP DEMAND SPLITTER,HOT WATER LOOP DEMAND INLET PIPE NODE,NODE 56,HOT WATER LOOP,Demand
     Plant Loop Connector Branches,3,Splitter,HOT WATER LOOP DEMAND SPLITTER,HOT WATER LOOP DEMAND INLET BRANCH,HOT WATER LOOP DEMAND BRANCH 3,HOT WATER LOOP,Demand
     Plant Loop Connector Nodes,   3,Splitter,HOT WATER LOOP DEMAND SPLITTER,HOT WATER LOOP DEMAND INLET PIPE NODE,NODE 61,HOT WATER LOOP,Demand
     Plant Loop Connector Branches,4,Splitter,HOT WATER LOOP DEMAND SPLITTER,HOT WATER LOOP DEMAND INLET BRANCH,HOT WATER LOOP DEMAND BRANCH 4,HOT WATER LOOP,Demand
     Plant Loop Connector Nodes,   4,Splitter,HOT WATER LOOP DEMAND SPLITTER,HOT WATER LOOP DEMAND INLET PIPE NODE,NODE 65,HOT WATER LOOP,Demand
     Plant Loop Connector Branches,5,Splitter,HOT WATER LOOP DEMAND SPLITTER,HOT WATER LOOP DEMAND INLET BRANCH,HOT WATER LOOP DEMAND BRANCH 5,HOT WATER LOOP,Demand
     Plant Loop Connector Nodes,   5,Splitter,HOT WATER LOOP DEMAND SPLITTER,HOT WATER LOOP DEMAND INLET PIPE NODE,NODE 69,HOT WATER LOOP,Demand
     Plant Loop Connector Branches,6,Splitter,HOT WATER LOOP DEMAND SPLITTER,HOT WATER LOOP DEMAND INLET BRANCH,HOT WATER LOOP DEMAND BRANCH 6,HOT WATER LOOP,Demand
     Plant Loop Connector Nodes,   6,Splitter,HOT WATER LOOP DEMAND SPLITTER,HOT WATER LOOP DEMAND INLET PIPE NODE,NODE 73,HOT WATER LOOP,Demand
     Plant Loop Connector Branches,7,Splitter,HOT WATER LOOP DEMAND SPLITTER,HOT WATER LOOP DEMAND INLET BRANCH,HOT WATER LOOP DEMAND BRANCH 7,HOT WATER LOOP,Demand
     Plant Loop Connector Nodes,   7,Splitter,HOT WATER LOOP DEMAND SPLITTER,HOT WATER LOOP DEMAND INLET PIPE NODE,NODE 77,HOT WATER LOOP,Demand
     Plant Loop Connector Branches,8,Splitter,HOT WATER LOOP DEMAND SPLITTER,HOT WATER LOOP DEMAND INLET BRANCH,HOT WATER LOOP DEMAND BRANCH 8,HOT WATER LOOP,Demand
     Plant Loop Connector Nodes,   8,Splitter,HOT WATER LOOP DEMAND SPLITTER,HOT WATER LOOP DEMAND INLET PIPE NODE,NODE 81,HOT WATER LOOP,Demand
     Plant Loop Connector Branches,9,Splitter,HOT WATER LOOP DEMAND SPLITTER,HOT WATER LOOP DEMAND INLET BRANCH,HOT WATER LOOP DEMAND BRANCH 9,HOT WATER LOOP,Demand
     Plant Loop Connector Nodes,   9,Splitter,HOT WATER LOOP DEMAND SPLITTER,HOT WATER LOOP DEMAND INLET PIPE NODE,NODE 85,HOT WATER LOOP,Demand
     Plant Loop Connector Branches,10,Splitter,HOT WATER LOOP DEMAND SPLITTER,HOT WATER LOOP DEMAND INLET BRANCH,HOT WATER LOOP DEMAND BRANCH 10,HOT WATER LOOP,Demand
     Plant Loop Connector Nodes,   10,Splitter,HOT WATER LOOP DEMAND SPLITTER,HOT WATER LOOP DEMAND INLET PIPE NODE,NODE 89,HOT WATER LOOP,Demand
     Plant Loop Connector Branches,11,Splitter,HOT WATER LOOP DEMAND SPLITTER,HOT WATER LOOP DEMAND INLET BRANCH,HOT WATER LOOP DEMAND BRANCH 11,HOT WATER LOOP,Demand
     Plant Loop Connector Nodes,   11,Splitter,HOT WATER LOOP DEMAND SPLITTER,HOT WATER LOOP DEMAND INLET PIPE NODE,NODE 93,HOT WATER LOOP,Demand
     Plant Loop Connector Branches,12,Splitter,HOT WATER LOOP DEMAND SPLITTER,HOT WATER LOOP DEMAND INLET BRANCH,HOT WATER LOOP DEMAND BRANCH 12,HOT WATER LOOP,Demand
     Plant Loop Connector Nodes,   12,Splitter,HOT WATER LOOP DEMAND SPLITTER,HOT WATER LOOP DEMAND INLET PIPE NODE,NODE 97,HOT WATER LOOP,Demand
     Plant Loop Connector Branches,13,Splitter,HOT WATER LOOP DEMAND SPLITTER,HOT WATER LOOP DEMAND INLET BRANCH,HOT WATER LOOP DEMAND BRANCH 13,HOT WATER LOOP,Demand
     Plant Loop Connector Nodes,   13,Splitter,HOT WATER LOOP DEMAND SPLITTER,HOT WATER LOOP DEMAND INLET PIPE NODE,NODE 101,HOT WATER LOOP,Demand
     Plant Loop Connector Branches,14,Splitter,HOT WATER LOOP DEMAND SPLITTER,HOT WATER LOOP DEMAND INLET BRANCH,HOT WATER LOOP DEMAND BRANCH 14,HOT WATER LOOP,Demand
     Plant Loop Connector Nodes,   14,Splitter,HOT WATER LOOP DEMAND SPLITTER,HOT WATER LOOP DEMAND INLET PIPE NODE,NODE 105,HOT WATER LOOP,Demand
     Plant Loop Connector Branches,15,Splitter,HOT WATER LOOP DEMAND SPLITTER,HOT WATER LOOP DEMAND INLET BRANCH,HOT WATER LOOP DEMAND BRANCH 15,HOT WATER LOOP,Demand
     Plant Loop Connector Nodes,   15,Splitter,HOT WATER LOOP DEMAND SPLITTER,HOT WATER LOOP DEMAND INLET PIPE NODE,NODE 109,HOT WATER LOOP,Demand
     Plant Loop Connector Branches,16,Splitter,HOT WATER LOOP DEMAND SPLITTER,HOT WATER LOOP DEMAND INLET BRANCH,HOT WATER LOOP DEMAND BRANCH 16,HOT WATER LOOP,Demand
     Plant Loop Connector Nodes,   16,Splitter,HOT WATER LOOP DEMAND SPLITTER,HOT WATER LOOP DEMAND INLET PIPE NODE,NODE 113,HOT WATER LOOP,Demand
     Plant Loop Connector Branches,17,Splitter,HOT WATER LOOP DEMAND SPLITTER,HOT WATER LOOP DEMAND INLET BRANCH,HOT WATER LOOP DEMAND BRANCH 17,HOT WATER LOOP,Demand
     Plant Loop Connector Nodes,   17,Splitter,HOT WATER LOOP DEMAND SPLITTER,HOT WATER LOOP DEMAND INLET PIPE NODE,NODE 117,HOT WATER LOOP,Demand
     Plant Loop Connector Branches,18,Splitter,HOT WATER LOOP DEMAND SPLITTER,HOT WATER LOOP DEMAND INLET BRANCH,HOT WATER LOOP DEMAND BRANCH 18,HOT WATER LOOP,Demand
     Plant Loop Connector Nodes,   18,Splitter,HOT WATER LOOP DEMAND SPLITTER,HOT WATER LOOP DEMAND INLET PIPE NODE,NODE 121,HOT WATER LOOP,Demand
     Plant Loop Connector Branches,19,Splitter,HOT WATER LOOP DEMAND SPLITTER,HOT WATER LOOP DEMAND INLET BRANCH,HOT WATER LOOP DEMAND BRANCH 19,HOT WATER LOOP,Demand
     Plant Loop Connector Nodes,   19,Splitter,HOT WATER LOOP DEMAND SPLITTER,HOT WATER LOOP DEMAND INLET PIPE NODE,NODE 134,HOT WATER LOOP,Demand
     Plant Loop Connector Branches,20,Splitter,HOT WATER LOOP DEMAND SPLITTER,HOT WATER LOOP DEMAND INLET BRANCH,HOT WATER LOOP DEMAND BRANCH 20,HOT WATER LOOP,Demand
     Plant Loop Connector Nodes,   20,Splitter,HOT WATER LOOP DEMAND SPLITTER,HOT WATER LOOP DEMAND INLET PIPE NODE,NODE 147,HOT WATER LOOP,Demand
     Plant Loop Connector Branches,21,Splitter,HOT WATER LOOP DEMAND SPLITTER,HOT WATER LOOP DEMAND INLET BRANCH,HOT WATER LOOP DEMAND BYPASS BRANCH,HOT WATER LOOP,Demand
     Plant Loop Connector Nodes,   21,Splitter,HOT WATER LOOP DEMAND SPLITTER,HOT WATER LOOP DEMAND INLET PIPE NODE,HOT WATER LOOP DEMAND BYPASS PIPE INLET NODE,HOT WATER LOOP,Demand
   Plant Loop Connector,Mixer,HOT WATER LOOP DEMAND MIXER,HOT WATER LOOP,Demand,21
     Plant Loop Connector Branches,1,Mixer,HOT WATER LOOP DEMAND MIXER,HOT WATER LOOP DEMAND BRANCH 1,HOT WATER LOOP DEMAND OUTLET BRANCH,HOT WATER LOOP,Demand
     Plant Loop Connector Nodes,   1,Mixer,HOT WATER LOOP DEMAND MIXER,NODE 38,HOT WATER LOOP DEMAND OUTLET PIPE NODE,HOT WATER LOOP,Demand
     Plant Loop Connector Branches,2,Mixer,HOT WATER LOOP DEMAND MIXER,HOT WATER LOOP DEMAND BRANCH 2,HOT WATER LOOP DEMAND OUTLET BRANCH,HOT WATER LOOP,Demand
     Plant Loop Connector Nodes,   2,Mixer,HOT WATER LOOP DEMAND MIXER,NODE 57,HOT WATER LOOP DEMAND OUTLET PIPE NODE,HOT WATER LOOP,Demand
     Plant Loop Connector Branches,3,Mixer,HOT WATER LOOP DEMAND MIXER,HOT WATER LOOP DEMAND BRANCH 3,HOT WATER LOOP DEMAND OUTLET BRANCH,HOT WATER LOOP,Demand
     Plant Loop Connector Nodes,   3,Mixer,HOT WATER LOOP DEMAND MIXER,NODE 62,HOT WATER LOOP DEMAND OUTLET PIPE NODE,HOT WATER LOOP,Demand
     Plant Loop Connector Branches,4,Mixer,HOT WATER LOOP DEMAND MIXER,HOT WATER LOOP DEMAND BRANCH 4,HOT WATER LOOP DEMAND OUTLET BRANCH,HOT WATER LOOP,Demand
     Plant Loop Connector Nodes,   4,Mixer,HOT WATER LOOP DEMAND MIXER,NODE 66,HOT WATER LOOP DEMAND OUTLET PIPE NODE,HOT WATER LOOP,Demand
     Plant Loop Connector Branches,5,Mixer,HOT WATER LOOP DEMAND MIXER,HOT WATER LOOP DEMAND BRANCH 5,HOT WATER LOOP DEMAND OUTLET BRANCH,HOT WATER LOOP,Demand
     Plant Loop Connector Nodes,   5,Mixer,HOT WATER LOOP DEMAND MIXER,NODE 70,HOT WATER LOOP DEMAND OUTLET PIPE NODE,HOT WATER LOOP,Demand
     Plant Loop Connector Branches,6,Mixer,HOT WATER LOOP DEMAND MIXER,HOT WATER LOOP DEMAND BRANCH 6,HOT WATER LOOP DEMAND OUTLET BRANCH,HOT WATER LOOP,Demand
     Plant Loop Connector Nodes,   6,Mixer,HOT WATER LOOP DEMAND MIXER,NODE 74,HOT WATER LOOP DEMAND OUTLET PIPE NODE,HOT WATER LOOP,Demand
     Plant Loop Connector Branches,7,Mixer,HOT WATER LOOP DEMAND MIXER,HOT WATER LOOP DEMAND BRANCH 7,HOT WATER LOOP DEMAND OUTLET BRANCH,HOT WATER LOOP,Demand
     Plant Loop Connector Nodes,   7,Mixer,HOT WATER LOOP DEMAND MIXER,NODE 78,HOT WATER LOOP DEMAND OUTLET PIPE NODE,HOT WATER LOOP,Demand
     Plant Loop Connector Branches,8,Mixer,HOT WATER LOOP DEMAND MIXER,HOT WATER LOOP DEMAND BRANCH 8,HOT WATER LOOP DEMAND OUTLET BRANCH,HOT WATER LOOP,Demand
     Plant Loop Connector Nodes,   8,Mixer,HOT WATER LOOP DEMAND MIXER,NODE 82,HOT WATER LOOP DEMAND OUTLET PIPE NODE,HOT WATER LOOP,Demand
     Plant Loop Connector Branches,9,Mixer,HOT WATER LOOP DEMAND MIXER,HOT WATER LOOP DEMAND BRANCH 9,HOT WATER LOOP DEMAND OUTLET BRANCH,HOT WATER LOOP,Demand
     Plant Loop Connector Nodes,   9,Mixer,HOT WATER LOOP DEMAND MIXER,NODE 86,HOT WATER LOOP DEMAND OUTLET PIPE NODE,HOT WATER LOOP,Demand
     Plant Loop Connector Branches,10,Mixer,HOT WATER LOOP DEMAND MIXER,HOT WATER LOOP DEMAND BRANCH 10,HOT WATER LOOP DEMAND OUTLET BRANCH,HOT WATER LOOP,Demand
     Plant Loop Connector Nodes,   10,Mixer,HOT WATER LOOP DEMAND MIXER,NODE 90,HOT WATER LOOP DEMAND OUTLET PIPE NODE,HOT WATER LOOP,Demand
     Plant Loop Connector Branches,11,Mixer,HOT WATER LOOP DEMAND MIXER,HOT WATER LOOP DEMAND BRANCH 11,HOT WATER LOOP DEMAND OUTLET BRANCH,HOT WATER LOOP,Demand
     Plant Loop Connector Nodes,   11,Mixer,HOT WATER LOOP DEMAND MIXER,NODE 94,HOT WATER LOOP DEMAND OUTLET PIPE NODE,HOT WATER LOOP,Demand
     Plant Loop Connector Branches,12,Mixer,HOT WATER LOOP DEMAND MIXER,HOT WATER LOOP DEMAND BRANCH 12,HOT WATER LOOP DEMAND OUTLET BRANCH,HOT WATER LOOP,Demand
     Plant Loop Connector Nodes,   12,Mixer,HOT WATER LOOP DEMAND MIXER,NODE 98,HOT WATER LOOP DEMAND OUTLET PIPE NODE,HOT WATER LOOP,Demand
     Plant Loop Connector Branches,13,Mixer,HOT WATER LOOP DEMAND MIXER,HOT WATER LOOP DEMAND BRANCH 13,HOT WATER LOOP DEMAND OUTLET BRANCH,HOT WATER LOOP,Demand
     Plant Loop Connector Nodes,   13,Mixer,HOT WATER LOOP DEMAND MIXER,NODE 102,HOT WATER LOOP DEMAND OUTLET PIPE NODE,HOT WATER LOOP,Demand
     Plant Loop Connector Branches,14,Mixer,HOT WATER LOOP DEMAND MIXER,HOT WATER LOOP DEMAND BRANCH 14,HOT WATER LOOP DEMAND OUTLET BRANCH,HOT WATER LOOP,Demand
     Plant Loop Connector Nodes,   14,Mixer,HOT WATER LOOP DEMAND MIXER,NODE 106,HOT WATER LOOP DEMAND OUTLET PIPE NODE,HOT WATER LOOP,Demand
     Plant Loop Connector Branches,15,Mixer,HOT WATER LOOP DEMAND MIXER,HOT WATER LOOP DEMAND BRANCH 15,HOT WATER LOOP DEMAND OUTLET BRANCH,HOT WATER LOOP,Demand
     Plant Loop Connector Nodes,   15,Mixer,HOT WATER LOOP DEMAND MIXER,NODE 110,HOT WATER LOOP DEMAND OUTLET PIPE NODE,HOT WATER LOOP,Demand
     Plant Loop Connector Branches,16,Mixer,HOT WATER LOOP DEMAND MIXER,HOT WATER LOOP DEMAND BRANCH 16,HOT WATER LOOP DEMAND OUTLET BRANCH,HOT WATER LOOP,Demand
     Plant Loop Connector Nodes,   16,Mixer,HOT WATER LOOP DEMAND MIXER,NODE 114,HOT WATER LOOP DEMAND OUTLET PIPE NODE,HOT WATER LOOP,Demand
     Plant Loop Connector Branches,17,Mixer,HOT WATER LOOP DEMAND MIXER,HOT WATER LOOP DEMAND BRANCH 17,HOT WATER LOOP DEMAND OUTLET BRANCH,HOT WATER LOOP,Demand
     Plant Loop Connector Nodes,   17,Mixer,HOT WATER LOOP DEMAND MIXER,NODE 118,HOT WATER LOOP DEMAND OUTLET PIPE NODE,HOT WATER LOOP,Demand
     Plant Loop Connector Branches,18,Mixer,HOT WATER LOOP DEMAND MIXER,HOT WATER LOOP DEMAND BRANCH 18,HOT WATER LOOP DEMAND OUTLET BRANCH,HOT WATER LOOP,Demand
     Plant Loop Connector Nodes,   18,Mixer,HOT WATER LOOP DEMAND MIXER,NODE 122,HOT WATER LOOP DEMAND OUTLET PIPE NODE,HOT WATER LOOP,Demand
     Plant Loop Connector Branches,19,Mixer,HOT WATER LOOP DEMAND MIXER,HOT WATER LOOP DEMAND BRANCH 19,HOT WATER LOOP DEMAND OUTLET BRANCH,HOT WATER LOOP,Demand
     Plant Loop Connector Nodes,   19,Mixer,HOT WATER LOOP DEMAND MIXER,NODE 135,HOT WATER LOOP DEMAND OUTLET PIPE NODE,HOT WATER LOOP,Demand
     Plant Loop Connector Branches,20,Mixer,HOT WATER LOOP DEMAND MIXER,HOT WATER LOOP DEMAND BRANCH 20,HOT WATER LOOP DEMAND OUTLET BRANCH,HOT WATER LOOP,Demand
     Plant Loop Connector Nodes,   20,Mixer,HOT WATER LOOP DEMAND MIXER,NODE 148,HOT WATER LOOP DEMAND OUTLET PIPE NODE,HOT WATER LOOP,Demand
     Plant Loop Connector Branches,21,Mixer,HOT WATER LOOP DEMAND MIXER,HOT WATER LOOP DEMAND BYPASS BRANCH,HOT WATER LOOP DEMAND OUTLET BRANCH,HOT WATER LOOP,Demand
     Plant Loop Connector Nodes,   21,Mixer,HOT WATER LOOP DEMAND MIXER,HOT WATER LOOP DEMAND BYPASS PIPE OUTLET NODE,HOT WATER LOOP DEMAND OUTLET PIPE NODE,HOT WATER LOOP,Demand
 Plant Loop,HOT WATER LOOP,Supply,NODE 2,NODE 3,HOT WATER LOOP SUPPLY BRANCHES,HOT WATER LOOP SUPPLY CONNECTOR LIST
   Plant Loop Connector,Splitter,HOT WATER LOOP SUPPLY SPLITTER,HOT WATER LOOP,Supply,3
     Plant Loop Connector Branches,1,Splitter,HOT WATER LOOP SUPPLY SPLITTER,HOT WATER LOOP SUPPLY INLET BRANCH,HOT WATER LOOP SUPPLY BRANCH 1,HOT WATER LOOP,Supply
     Plant Loop Connector Nodes,   1,Splitter,HOT WATER LOOP SUPPLY SPLITTER,NODE 11,NODE 5,HOT WATER LOOP,Supply
     Plant Loop Connector Branches,2,Splitter,HOT WATER LOOP SUPPLY SPLITTER,HOT WATER LOOP SUPPLY INLET BRANCH,HOT WATER LOOP SUPPLY BRANCH 2,HOT WATER LOOP,Supply
     Plant Loop Connector Nodes,   2,Splitter,HOT WATER LOOP SUPPLY SPLITTER,NODE 11,NODE 14,HOT WATER LOOP,Supply
     Plant Loop Connector Branches,3,Splitter,HOT WATER LOOP SUPPLY SPLITTER,HOT WATER LOOP SUPPLY INLET BRANCH,HOT WATER LOOP SUPPLY BRANCH 3,HOT WATER LOOP,Supply
     Plant Loop Connector Nodes,   3,Splitter,HOT WATER LOOP SUPPLY SPLITTER,NODE 11,NODE 17,HOT WATER LOOP,Supply
   Plant Loop Connector,Mixer,HOT WATER LOOP SUPPLY MIXER,HOT WATER LOOP,Supply,3
     Plant Loop Connector Branches,1,Mixer,HOT WATER LOOP SUPPLY MIXER,HOT WATER LOOP SUPPLY BRANCH 1,HOT WATER LOOP SUPPLY OUTLET BRANCH,HOT WATER LOOP,Supply
     Plant Loop Connector Nodes,   1,Mixer,HOT WATER LOOP SUPPLY MIXER,NODE 12,NODE 20,HOT WATER LOOP,Supply
     Plant Loop Connector Branches,2,Mixer,HOT WATER LOOP SUPPLY MIXER,HOT WATER LOOP SUPPLY BRANCH 2,HOT WATER LOOP SUPPLY OUTLET BRANCH,HOT WATER LOOP,Supply
     Plant Loop Connector Nodes,   2,Mixer,HOT WATER LOOP SUPPLY MIXER,NODE 15,NODE 20,HOT WATER LOOP,Supply
     Plant Loop Connector Branches,3,Mixer,HOT WATER LOOP SUPPLY MIXER,HOT WATER LOOP SUPPLY BRANCH 3,HOT WATER LOOP SUPPLY OUTLET BRANCH,HOT WATER LOOP,Supply
     Plant Loop Connector Nodes,   3,Mixer,HOT WATER LOOP SUPPLY MIXER,NODE 18,NODE 20,HOT WATER LOOP,Supply
 Plant Loop Supply Connection,HOT WATER LOOP,NODE 3,NODE 6
 Plant Loop Return Connection,HOT WATER LOOP,NODE 8,NODE 2
 Plant Loop,MAIN SERVICE WATER LOOP,Demand,NODE 152,NODE 153,MAIN SERVICE WATER LOOP DEMAND BRANCHES,MAIN SERVICE WATER LOOP DEMAND CONNECTOR LIST
   Plant Loop Connector,Splitter,MAIN SERVICE WATER LOOP DEMAND SPLITTER,MAIN SERVICE WATER LOOP,Demand,5
     Plant Loop Connector Branches,1,Splitter,MAIN SERVICE WATER LOOP DEMAND SPLITTER,MAIN SERVICE WATER LOOP DEMAND INLET BRANCH,MAIN SERVICE WATER LOOP DEMAND BRANCH 1,MAIN SERVICE WATER LOOP,Demand
     Plant Loop Connector Nodes,   1,Splitter,MAIN SERVICE WATER LOOP DEMAND SPLITTER,NODE 161,NODE 154,MAIN SERVICE WATER LOOP,Demand
     Plant Loop Connector Branches,2,Splitter,MAIN SERVICE WATER LOOP DEMAND SPLITTER,MAIN SERVICE WATER LOOP DEMAND INLET BRANCH,MAIN SERVICE WATER LOOP DEMAND BRANCH 2,MAIN SERVICE WATER LOOP,Demand
     Plant Loop Connector Nodes,   2,Splitter,MAIN SERVICE WATER LOOP DEMAND SPLITTER,NODE 161,NODE 163,MAIN SERVICE WATER LOOP,Demand
     Plant Loop Connector Branches,3,Splitter,MAIN SERVICE WATER LOOP DEMAND SPLITTER,MAIN SERVICE WATER LOOP DEMAND INLET BRANCH,MAIN SERVICE WATER LOOP DEMAND BRANCH 3,MAIN SERVICE WATER LOOP,Demand
     Plant Loop Connector Nodes,   3,Splitter,MAIN SERVICE WATER LOOP DEMAND SPLITTER,NODE 161,NODE 165,MAIN SERVICE WATER LOOP,Demand
     Plant Loop Connector Branches,4,Splitter,MAIN SERVICE WATER LOOP DEMAND SPLITTER,MAIN SERVICE WATER LOOP DEMAND INLET BRANCH,MAIN SERVICE WATER LOOP DEMAND BRANCH 4,MAIN SERVICE WATER LOOP,Demand
     Plant Loop Connector Nodes,   4,Splitter,MAIN SERVICE WATER LOOP DEMAND SPLITTER,NODE 161,NODE 167,MAIN SERVICE WATER LOOP,Demand
     Plant Loop Connector Branches,5,Splitter,MAIN SERVICE WATER LOOP DEMAND SPLITTER,MAIN SERVICE WATER LOOP DEMAND INLET BRANCH,MAIN SERVICE WATER LOOP DEMAND BYPASS BRANCH,MAIN SERVICE WATER LOOP,Demand
     Plant Loop Connector Nodes,   5,Splitter,MAIN SERVICE WATER LOOP DEMAND SPLITTER,NODE 161,MAIN SERVICE WATER LOOP DEMAND BYPASS PIPE INLET NODE,MAIN SERVICE WATER LOOP,Demand
   Plant Loop Connector,Mixer,MAIN SERVICE WATER LOOP DEMAND MIXER,MAIN SERVICE WATER LOOP,Demand,5
     Plant Loop Connector Branches,1,Mixer,MAIN SERVICE WATER LOOP DEMAND MIXER,MAIN SERVICE WATER LOOP DEMAND BRANCH 1,MAIN SERVICE WATER LOOP DEMAND OUTLET BRANCH,MAIN SERVICE WATER LOOP,Demand
     Plant Loop Connector Nodes,   1,Mixer,MAIN SERVICE WATER LOOP DEMAND MIXER,NODE 159,NODE 162,MAIN SERVICE WATER LOOP,Demand
     Plant Loop Connector Branches,2,Mixer,MAIN SERVICE WATER LOOP DEMAND MIXER,MAIN SERVICE WATER LOOP DEMAND BRANCH 2,MAIN SERVICE WATER LOOP DEMAND OUTLET BRANCH,MAIN SERVICE WATER LOOP,Demand
     Plant Loop Connector Nodes,   2,Mixer,MAIN SERVICE WATER LOOP DEMAND MIXER,NODE 164,NODE 162,MAIN SERVICE WATER LOOP,Demand
     Plant Loop Connector Branches,3,Mixer,MAIN SERVICE WATER LOOP DEMAND MIXER,MAIN SERVICE WATER LOOP DEMAND BRANCH 3,MAIN SERVICE WATER LOOP DEMAND OUTLET BRANCH,MAIN SERVICE WATER LOOP,Demand
     Plant Loop Connector Nodes,   3,Mixer,MAIN SERVICE WATER LOOP DEMAND MIXER,NODE 166,NODE 162,MAIN SERVICE WATER LOOP,Demand
     Plant Loop Connector Branches,4,Mixer,MAIN SERVICE WATER LOOP DEMAND MIXER,MAIN SERVICE WATER LOOP DEMAND BRANCH 4,MAIN SERVICE WATER LOOP DEMAND OUTLET BRANCH,MAIN SERVICE WATER LOOP,Demand
     Plant Loop Connector Nodes,   4,Mixer,MAIN SERVICE WATER LOOP DEMAND MIXER,NODE 168,NODE 162,MAIN SERVICE WATER LOOP,Demand
     Plant Loop Connector Branches,5,Mixer,MAIN SERVICE WATER LOOP DEMAND MIXER,MAIN SERVICE WATER LOOP DEMAND BYPASS BRANCH,MAIN SERVICE WATER LOOP DEMAND OUTLET BRANCH,MAIN SERVICE WATER LOOP,Demand
     Plant Loop Connector Nodes,   5,Mixer,MAIN SERVICE WATER LOOP DEMAND MIXER,MAIN SERVICE WATER LOOP DEMAND BYPASS PIPE OUTLET NODE,NODE 162,MAIN SERVICE WATER LOOP,Demand
 Plant Loop,MAIN SERVICE WATER LOOP,Supply,NODE 149,NODE 150,MAIN SERVICE WATER LOOP SUPPLY BRANCHES,MAIN SERVICE WATER LOOP SUPPLY CONNECTOR LIST
   Plant Loop Connector,Splitter,MAIN SERVICE WATER LOOP SUPPLY SPLITTER,MAIN SERVICE WATER LOOP,Supply,2
     Plant Loop Connector Branches,1,Splitter,MAIN SERVICE WATER LOOP SUPPLY SPLITTER,MAIN SERVICE WATER LOOP SUPPLY INLET BRANCH,MAIN SERVICE WATER LOOP SUPPLY BRANCH 1,MAIN SERVICE WATER LOOP,Supply
     Plant Loop Connector Nodes,   1,Splitter,MAIN SERVICE WATER LOOP SUPPLY SPLITTER,NODE 155,NODE 151,MAIN SERVICE WATER LOOP,Supply
     Plant Loop Connector Branches,2,Splitter,MAIN SERVICE WATER LOOP SUPPLY SPLITTER,MAIN SERVICE WATER LOOP SUPPLY INLET BRANCH,MAIN SERVICE WATER LOOP SUPPLY BRANCH 2,MAIN SERVICE WATER LOOP,Supply
     Plant Loop Connector Nodes,   2,Splitter,MAIN SERVICE WATER LOOP SUPPLY SPLITTER,NODE 155,NODE 157,MAIN SERVICE WATER LOOP,Supply
   Plant Loop Connector,Mixer,MAIN SERVICE WATER LOOP SUPPLY MIXER,MAIN SERVICE WATER LOOP,Supply,2
     Plant Loop Connector Branches,1,Mixer,MAIN SERVICE WATER LOOP SUPPLY MIXER,MAIN SERVICE WATER LOOP SUPPLY BRANCH 1,MAIN SERVICE WATER LOOP SUPPLY OUTLET BRANCH,MAIN SERVICE WATER LOOP,Supply
     Plant Loop Connector Nodes,   1,Mixer,MAIN SERVICE WATER LOOP SUPPLY MIXER,NODE 156,NODE 160,MAIN SERVICE WATER LOOP,Supply
     Plant Loop Connector Branches,2,Mixer,MAIN SERVICE WATER LOOP SUPPLY MIXER,MAIN SERVICE WATER LOOP SUPPLY BRANCH 2,MAIN SERVICE WATER LOOP SUPPLY OUTLET BRANCH,MAIN SERVICE WATER LOOP,Supply
     Plant Loop Connector Nodes,   2,Mixer,MAIN SERVICE WATER LOOP SUPPLY MIXER,NODE 158,NODE 160,MAIN SERVICE WATER LOOP,Supply
 Plant Loop Supply Connection,MAIN SERVICE WATER LOOP,NODE 150,NODE 152
 Plant Loop Return Connection,MAIN SERVICE WATER LOOP,NODE 153,NODE 149
! ===============================================================
! <# Condenser Loops>,<Number of Condenser Loops>
 #Condenser Loops,0
! <Condenser Loop>,<Condenser Loop Name>,<Loop Type>,<Inlet Node Name>,<Outlet Node Name>,<Branch List>,<Connector List>
! <Condenser Loop Connector>,<Connector Type>,<Connector Name>,<Loop Name>,<Loop Type>,<Number of Inlets/Outlets>
! <Condenser Loop Connector Branches>,<Connector Node Count>,<Connector Type>,<Connector Name>,<Inlet Branch>,<Outlet Branch>,<Loop Name>,<Loop Type>
! <Condenser Loop Connector Nodes>,<Connector Node Count>,<Connector Type>,<Connector Name>,<Inlet Node>,<Outlet Node>,<Loop Name>,<Loop Type>
! <Condenser Loop Supply Connection>,<Condenser Loop Name>,<Supply Side Outlet Node Name>,<Demand Side Inlet Node Name>
! <Condenser Loop Return Connection>,<Condenser Loop Name>,<Demand Side Outlet Node Name>,<Supply Side Inlet Node Name>
! ===============================================================
! <# Controlled Zones>,<Number of Controlled Zones>
 #Controlled Zones,20
! <Controlled Zone>,<Controlled Zone Name>,<Equip List Name>,<Control List Name>,<Zone Node Name>,<# Inlet Nodes>,<# Exhaust Nodes>,<# Return Nodes>
! <Controlled Zone Inlet>,<Inlet Node Count>,<Controlled Zone Name>,<Supply Air Inlet Node Name>,<SD Sys:Cooling/Heating [DD:Cooling] Inlet Node Name>,<DD Sys:Heating Inlet Node Name>
! <Controlled Zone Exhaust>,<Exhaust Node Count>,<Controlled Zone Name>,<Exhaust Air Node Name>
 Controlled Zone,ALL_ST=COURTHOUSE - CHAMBERS_FL=STORY 2_SCH=A,ALL_ST=COURTHOUSE - CHAMBERS_FL=STORY 2_SCH=A EQUIPMENT LIST,,NODE 4,1,0,1
   Controlled Zone Inlet,1,ALL_ST=COURTHOUSE - CHAMBERS_FL=STORY 2_SCH=A,NODE 127,NODE 127,N/A
   Controlled Zone Return,1,ALL_ST=COURTHOUSE - CHAMBERS_FL=STORY 2_SCH=A,NODE 133
 Controlled Zone,ALL_ST=COURTHOUSE - COURTROOM_FL=STORY 2_SCH=A,ALL_ST=COURTHOUSE - COURTROOM_FL=STORY 2_SCH=A EQUIPMENT LIST,,NODE 7,1,0,1
   Controlled Zone Inlet,1,ALL_ST=COURTHOUSE - COURTROOM_FL=STORY 2_SCH=A,NODE 140,NODE 140,N/A
   Controlled Zone Return,1,ALL_ST=COURTHOUSE - COURTROOM_FL=STORY 2_SCH=A,NODE 146
 Controlled Zone,DU_BT=SPACE FUNCTION_ST=COURTHOUSE - CELL_FL=STORY 3_SCHH,DU_BT=SPACE FUNCTION_ST=COURTHOUSE - CELL_FL=STORY 3_SCHH EQUIPMENT LIST,,NODE 1,1,0,1
   Controlled Zone Inlet,1,DU_BT=SPACE FUNCTION_ST=COURTHOUSE - CELL_FL=STORY 3_SCHH,NODE 27,NODE 27,N/A
   Controlled Zone Return,1,DU_BT=SPACE FUNCTION_ST=COURTHOUSE - CELL_FL=STORY 3_SCHH,NODE 36
 Controlled Zone,WILD_ST=CORR. < 2.4M WIDE-SCH-B_FL=STORY 4_SCH=A,WILD_ST=CORR. < 2.4M WIDE-SCH-B_FL=STORY 4_SCH=A EQUIPMENT LIST,,NODE 10,1,0,1
   Controlled Zone Inlet,1,WILD_ST=CORR. < 2.4M WIDE-SCH-B_FL=STORY 4_SCH=A,NODE 45,NODE 45,N/A
   Controlled Zone Return,1,WILD_ST=CORR. < 2.4M WIDE-SCH-B_FL=STORY 4_SCH=A,NODE 54
 Controlled Zone,WILD_ST=CORR. < 2.4M WIDE-SCH-C_FL=STORY 3_SCH=A,WILD_ST=CORR. < 2.4M WIDE-SCH-C_FL=STORY 3_SCH=A EQUIPMENT LIST,,NODE 13,1,0,1
   Controlled Zone Inlet,1,WILD_ST=CORR. < 2.4M WIDE-SCH-C_FL=STORY 3_SCH=A,NODE 59,NODE 59,N/A
   Controlled Zone Return,1,WILD_ST=CORR. < 2.4M WIDE-SCH-C_FL=STORY 3_SCH=A,NODE 60
 Controlled Zone,WILD_ST=CORR. < 2.4M WIDE-SCH-D_FL=STORY 4_SCH=A,WILD_ST=CORR. < 2.4M WIDE-SCH-D_FL=STORY 4_SCH=A EQUIPMENT LIST,,NODE 16,1,0,1
   Controlled Zone Inlet,1,WILD_ST=CORR. < 2.4M WIDE-SCH-D_FL=STORY 4_SCH=A,NODE 63,NODE 63,N/A
   Controlled Zone Return,1,WILD_ST=CORR. < 2.4M WIDE-SCH-D_FL=STORY 4_SCH=A,NODE 64
 Controlled Zone,WILD_ST=CORR. < 2.4M WIDE-SCH-E_FL=STORY 3_SCH=A,WILD_ST=CORR. < 2.4M WIDE-SCH-E_FL=STORY 3_SCH=A EQUIPMENT LIST,,NODE 19,1,0,1
   Controlled Zone Inlet,1,WILD_ST=CORR. < 2.4M WIDE-SCH-E_FL=STORY 3_SCH=A,NODE 67,NODE 67,N/A
   Controlled Zone Return,1,WILD_ST=CORR. < 2.4M WIDE-SCH-E_FL=STORY 3_SCH=A,NODE 68
 Controlled Zone,WILD_ST=CORR. < 2.4M WIDE-SCH-F_FL=STORY 3_SCH=A,WILD_ST=CORR. < 2.4M WIDE-SCH-F_FL=STORY 3_SCH=A EQUIPMENT LIST,,NODE 22,1,0,1
   Controlled Zone Inlet,1,WILD_ST=CORR. < 2.4M WIDE-SCH-F_FL=STORY 3_SCH=A,NODE 71,NODE 71,N/A
   Controlled Zone Return,1,WILD_ST=CORR. < 2.4M WIDE-SCH-F_FL=STORY 3_SCH=A,NODE 72
 Controlled Zone,WILD_ST=CORR. < 2.4M WIDE-SCH-G_FL=STORY 3_SCH=A,WILD_ST=CORR. < 2.4M WIDE-SCH-G_FL=STORY 3_SCH=A EQUIPMENT LIST,,NODE 25,1,0,1
   Controlled Zone Inlet,1,WILD_ST=CORR. < 2.4M WIDE-SCH-G_FL=STORY 3_SCH=A,NODE 75,NODE 75,N/A
   Controlled Zone Return,1,WILD_ST=CORR. < 2.4M WIDE-SCH-G_FL=STORY 3_SCH=A,NODE 76
 Controlled Zone,WILD_ST=CORR. < 2.4M WIDE-SCH-H_FL=STORY 1_SCH=A,WILD_ST=CORR. < 2.4M WIDE-SCH-H_FL=STORY 1_SCH=A EQUIPMENT LIST,,NODE 28,1,0,1
   Controlled Zone Inlet,1,WILD_ST=CORR. < 2.4M WIDE-SCH-H_FL=STORY 1_SCH=A,NODE 79,NODE 79,N/A
   Controlled Zone Return,1,WILD_ST=CORR. < 2.4M WIDE-SCH-H_FL=STORY 1_SCH=A,NODE 80
 Controlled Zone,WILD_ST=CORR. < 2.4M WIDE-SCH-I_FL=STORY 4_SCH=A,WILD_ST=CORR. < 2.4M WIDE-SCH-I_FL=STORY 4_SCH=A EQUIPMENT LIST,,NODE 31,1,0,1
   Controlled Zone Inlet,1,WILD_ST=CORR. < 2.4M WIDE-SCH-I_FL=STORY 4_SCH=A,NODE 83,NODE 83,N/A
   Controlled Zone Return,1,WILD_ST=CORR. < 2.4M WIDE-SCH-I_FL=STORY 4_SCH=A,NODE 84
 Controlled Zone,WILD_ST=CORR. >= 2.4M WIDE-SCH-A_FL=STORY 4_SCH=A,WILD_ST=CORR. >= 2.4M WIDE-SCH-A_FL=STORY 4_SCH=A EQUIPMENT LIST,,NODE 34,1,0,1
   Controlled Zone Inlet,1,WILD_ST=CORR. >= 2.4M WIDE-SCH-A_FL=STORY 4_SCH=A,NODE 87,NODE 87,N/A
   Controlled Zone Return,1,WILD_ST=CORR. >= 2.4M WIDE-SCH-A_FL=STORY 4_SCH=A,NODE 88
 Controlled Zone,WILD_ST=CORR. >= 2.4M WIDE-SCH-B_FL=STORY 1_SCH=A,WILD_ST=CORR. >= 2.4M WIDE-SCH-B_FL=STORY 1_SCH=A EQUIPMENT LIST,,NODE 37,1,0,1
   Controlled Zone Inlet,1,WILD_ST=CORR. >= 2.4M WIDE-SCH-B_FL=STORY 1_SCH=A,NODE 91,NODE 91,N/A
   Controlled Zone Return,1,WILD_ST=CORR. >= 2.4M WIDE-SCH-B_FL=STORY 1_SCH=A,NODE 92
 Controlled Zone,WILD_ST=CORR. >= 2.4M WIDE-SCH-C_FL=STORY 1_SCH=A,WILD_ST=CORR. >= 2.4M WIDE-SCH-C_FL=STORY 1_SCH=A EQUIPMENT LIST,,NODE 40,1,0,1
   Controlled Zone Inlet,1,WILD_ST=CORR. >= 2.4M WIDE-SCH-C_FL=STORY 1_SCH=A,NODE 95,NODE 95,N/A
   Controlled Zone Return,1,WILD_ST=CORR. >= 2.4M WIDE-SCH-C_FL=STORY 1_SCH=A,NODE 96
 Controlled Zone,WILD_ST=CORR. >= 2.4M WIDE-SCH-D_FL=STORY 2_SCH=A,WILD_ST=CORR. >= 2.4M WIDE-SCH-D_FL=STORY 2_SCH=A EQUIPMENT LIST,,NODE 43,1,0,1
   Controlled Zone Inlet,1,WILD_ST=CORR. >= 2.4M WIDE-SCH-D_FL=STORY 2_SCH=A,NODE 99,NODE 99,N/A
   Controlled Zone Return,1,WILD_ST=CORR. >= 2.4M WIDE-SCH-D_FL=STORY 2_SCH=A,NODE 100
 Controlled Zone,WILD_ST=CORR. >= 2.4M WIDE-SCH-E_FL=STORY 1_SCH=A,WILD_ST=CORR. >= 2.4M WIDE-SCH-E_FL=STORY 1_SCH=A EQUIPMENT LIST,,NODE 46,1,0,1
   Controlled Zone Inlet,1,WILD_ST=CORR. >= 2.4M WIDE-SCH-E_FL=STORY 1_SCH=A,NODE 103,NODE 103,N/A
   Controlled Zone Return,1,WILD_ST=CORR. >= 2.4M WIDE-SCH-E_FL=STORY 1_SCH=A,NODE 104
 Controlled Zone,WILD_ST=CORR. >= 2.4M WIDE-SCH-F_FL=STORY 2_SCH=A,WILD_ST=CORR. >= 2.4M WIDE-SCH-F_FL=STORY 2_SCH=A EQUIPMENT LIST,,NODE 49,1,0,1
   Controlled Zone Inlet,1,WILD_ST=CORR. >= 2.4M WIDE-SCH-F_FL=STORY 2_SCH=A,NODE 107,NODE 107,N/A
   Controlled Zone Return,1,WILD_ST=CORR. >= 2.4M WIDE-SCH-F_FL=STORY 2_SCH=A,NODE 108
 Controlled Zone,WILD_ST=CORR. >= 2.4M WIDE-SCH-G_FL=STORY 1_SCH=A,WILD_ST=CORR. >= 2.4M WIDE-SCH-G_FL=STORY 1_SCH=A EQUIPMENT LIST,,NODE 52,1,0,1
   Controlled Zone Inlet,1,WILD_ST=CORR. >= 2.4M WIDE-SCH-G_FL=STORY 1_SCH=A,NODE 111,NODE 111,N/A
   Controlled Zone Return,1,WILD_ST=CORR. >= 2.4M WIDE-SCH-G_FL=STORY 1_SCH=A,NODE 112
 Controlled Zone,WILD_ST=CORR. >= 2.4M WIDE-SCH-H_FL=STORY 4_SCH=A,WILD_ST=CORR. >= 2.4M WIDE-SCH-H_FL=STORY 4_SCH=A EQUIPMENT LIST,,NODE 55,1,0,1
   Controlled Zone Inlet,1,WILD_ST=CORR. >= 2.4M WIDE-SCH-H_FL=STORY 4_SCH=A,NODE 115,NODE 115,N/A
   Controlled Zone Return,1,WILD_ST=CORR. >= 2.4M WIDE-SCH-H_FL=STORY 4_SCH=A,NODE 116
 Controlled Zone,WILD_ST=CORR. >= 2.4M WIDE-SCH-I_FL=STORY 2_SCH=A,WILD_ST=CORR. >= 2.4M WIDE-SCH-I_FL=STORY 2_SCH=A EQUIPMENT LIST,,NODE 58,1,0,1
   Controlled Zone Inlet,1,WILD_ST=CORR. >= 2.4M WIDE-SCH-I_FL=STORY 2_SCH=A,NODE 119,NODE 119,N/A
   Controlled Zone Return,1,WILD_ST=CORR. >= 2.4M WIDE-SCH-I_FL=STORY 2_SCH=A,NODE 120
! ===============================================================
! <#Zone Equipment Lists>,<Number of Zone Equipment Lists>
 #Zone Equipment Lists,20
! <Zone Equipment List>,<Zone Equipment List Count>,<Zone Equipment List Name>,<Zone Name>,<Number of Components>
! <Zone Equipment Component>,<Component Count>,<Component Type>,<Component Name>,<Zone Name>,<Heating Priority>,<Cooling Priority>
 Zone Equipment List,1,ALL_ST=COURTHOUSE - CHAMBERS_FL=STORY 2_SCH=A EQUIPMENT LIST,ALL_ST=COURTHOUSE - CHAMBERS_FL=STORY 2_SCH=A,2
   Zone Equipment Component,1,AIRTERMINAL:SINGLEDUCT:UNCONTROLLED,AIR TERMINAL SINGLE DUCT UNCONTROLLED 19,ALL_ST=COURTHOUSE - CHAMBERS_FL=STORY 2_SCH=A,1,1
   Zone Equipment Component,2,ZONEHVAC:BASEBOARD:CONVECTIVE:WATER,ZONE HVAC BASEBOARD CONVECTIVE WATER 19,ALL_ST=COURTHOUSE - CHAMBERS_FL=STORY 2_SCH=A,2,2
 Zone Equipment List,2,ALL_ST=COURTHOUSE - COURTROOM_FL=STORY 2_SCH=A EQUIPMENT LIST,ALL_ST=COURTHOUSE - COURTROOM_FL=STORY 2_SCH=A,2
   Zone Equipment Component,1,AIRTERMINAL:SINGLEDUCT:UNCONTROLLED,AIR TERMINAL SINGLE DUCT UNCONTROLLED 20,ALL_ST=COURTHOUSE - COURTROOM_FL=STORY 2_SCH=A,1,1
   Zone Equipment Component,2,ZONEHVAC:BASEBOARD:CONVECTIVE:WATER,ZONE HVAC BASEBOARD CONVECTIVE WATER 20,ALL_ST=COURTHOUSE - COURTROOM_FL=STORY 2_SCH=A,2,2
 Zone Equipment List,3,DU_BT=SPACE FUNCTION_ST=COURTHOUSE - CELL_FL=STORY 3_SCHH EQUIPMENT LIST,DU_BT=SPACE FUNCTION_ST=COURTHOUSE - CELL_FL=STORY 3_SCHH,2
   Zone Equipment Component,1,AIRTERMINAL:SINGLEDUCT:UNCONTROLLED,AIR TERMINAL SINGLE DUCT UNCONTROLLED 1,DU_BT=SPACE FUNCTION_ST=COURTHOUSE - CELL_FL=STORY 3_SCHH,1,1
   Zone Equipment Component,2,ZONEHVAC:BASEBOARD:CONVECTIVE:WATER,ZONE HVAC BASEBOARD CONVECTIVE WATER 1,DU_BT=SPACE FUNCTION_ST=COURTHOUSE - CELL_FL=STORY 3_SCHH,2,2
 Zone Equipment List,4,WILD_ST=CORR. < 2.4M WIDE-SCH-B_FL=STORY 4_SCH=A EQUIPMENT LIST,WILD_ST=CORR. < 2.4M WIDE-SCH-B_FL=STORY 4_SCH=A,2
   Zone Equipment Component,1,AIRTERMINAL:SINGLEDUCT:UNCONTROLLED,AIR TERMINAL SINGLE DUCT UNCONTROLLED 2,WILD_ST=CORR. < 2.4M WIDE-SCH-B_FL=STORY 4_SCH=A,1,1
   Zone Equipment Component,2,ZONEHVAC:BASEBOARD:CONVECTIVE:WATER,ZONE HVAC BASEBOARD CONVECTIVE WATER 2,WILD_ST=CORR. < 2.4M WIDE-SCH-B_FL=STORY 4_SCH=A,2,2
 Zone Equipment List,5,WILD_ST=CORR. < 2.4M WIDE-SCH-C_FL=STORY 3_SCH=A EQUIPMENT LIST,WILD_ST=CORR. < 2.4M WIDE-SCH-C_FL=STORY 3_SCH=A,2
   Zone Equipment Component,1,AIRTERMINAL:SINGLEDUCT:UNCONTROLLED,AIR TERMINAL SINGLE DUCT UNCONTROLLED 3,WILD_ST=CORR. < 2.4M WIDE-SCH-C_FL=STORY 3_SCH=A,1,1
   Zone Equipment Component,2,ZONEHVAC:BASEBOARD:CONVECTIVE:WATER,ZONE HVAC BASEBOARD CONVECTIVE WATER 3,WILD_ST=CORR. < 2.4M WIDE-SCH-C_FL=STORY 3_SCH=A,2,2
 Zone Equipment List,6,WILD_ST=CORR. < 2.4M WIDE-SCH-D_FL=STORY 4_SCH=A EQUIPMENT LIST,WILD_ST=CORR. < 2.4M WIDE-SCH-D_FL=STORY 4_SCH=A,2
   Zone Equipment Component,1,AIRTERMINAL:SINGLEDUCT:UNCONTROLLED,AIR TERMINAL SINGLE DUCT UNCONTROLLED 4,WILD_ST=CORR. < 2.4M WIDE-SCH-D_FL=STORY 4_SCH=A,1,1
   Zone Equipment Component,2,ZONEHVAC:BASEBOARD:CONVECTIVE:WATER,ZONE HVAC BASEBOARD CONVECTIVE WATER 4,WILD_ST=CORR. < 2.4M WIDE-SCH-D_FL=STORY 4_SCH=A,2,2
 Zone Equipment List,7,WILD_ST=CORR. < 2.4M WIDE-SCH-E_FL=STORY 3_SCH=A EQUIPMENT LIST,WILD_ST=CORR. < 2.4M WIDE-SCH-E_FL=STORY 3_SCH=A,2
   Zone Equipment Component,1,AIRTERMINAL:SINGLEDUCT:UNCONTROLLED,AIR TERMINAL SINGLE DUCT UNCONTROLLED 5,WILD_ST=CORR. < 2.4M WIDE-SCH-E_FL=STORY 3_SCH=A,1,1
   Zone Equipment Component,2,ZONEHVAC:BASEBOARD:CONVECTIVE:WATER,ZONE HVAC BASEBOARD CONVECTIVE WATER 5,WILD_ST=CORR. < 2.4M WIDE-SCH-E_FL=STORY 3_SCH=A,2,2
 Zone Equipment List,8,WILD_ST=CORR. < 2.4M WIDE-SCH-F_FL=STORY 3_SCH=A EQUIPMENT LIST,WILD_ST=CORR. < 2.4M WIDE-SCH-F_FL=STORY 3_SCH=A,2
   Zone Equipment Component,1,AIRTERMINAL:SINGLEDUCT:UNCONTROLLED,AIR TERMINAL SINGLE DUCT UNCONTROLLED 6,WILD_ST=CORR. < 2.4M WIDE-SCH-F_FL=STORY 3_SCH=A,1,1
   Zone Equipment Component,2,ZONEHVAC:BASEBOARD:CONVECTIVE:WATER,ZONE HVAC BASEBOARD CONVECTIVE WATER 6,WILD_ST=CORR. < 2.4M WIDE-SCH-F_FL=STORY 3_SCH=A,2,2
 Zone Equipment List,9,WILD_ST=CORR. < 2.4M WIDE-SCH-G_FL=STORY 3_SCH=A EQUIPMENT LIST,WILD_ST=CORR. < 2.4M WIDE-SCH-G_FL=STORY 3_SCH=A,2
   Zone Equipment Component,1,AIRTERMINAL:SINGLEDUCT:UNCONTROLLED,AIR TERMINAL SINGLE DUCT UNCONTROLLED 7,WILD_ST=CORR. < 2.4M WIDE-SCH-G_FL=STORY 3_SCH=A,1,1
   Zone Equipment Component,2,ZONEHVAC:BASEBOARD:CONVECTIVE:WATER,ZONE HVAC BASEBOARD CONVECTIVE WATER 7,WILD_ST=CORR. < 2.4M WIDE-SCH-G_FL=STORY 3_SCH=A,2,2
 Zone Equipment List,10,WILD_ST=CORR. < 2.4M WIDE-SCH-H_FL=STORY 1_SCH=A EQUIPMENT LIST,WILD_ST=CORR. < 2.4M WIDE-SCH-H_FL=STORY 1_SCH=A,2
   Zone Equipment Component,1,AIRTERMINAL:SINGLEDUCT:UNCONTROLLED,AIR TERMINAL SINGLE DUCT UNCONTROLLED 8,WILD_ST=CORR. < 2.4M WIDE-SCH-H_FL=STORY 1_SCH=A,1,1
   Zone Equipment Component,2,ZONEHVAC:BASEBOARD:CONVECTIVE:WATER,ZONE HVAC BASEBOARD CONVECTIVE WATER 8,WILD_ST=CORR. < 2.4M WIDE-SCH-H_FL=STORY 1_SCH=A,2,2
 Zone Equipment List,11,WILD_ST=CORR. < 2.4M WIDE-SCH-I_FL=STORY 4_SCH=A EQUIPMENT LIST,WILD_ST=CORR. < 2.4M WIDE-SCH-I_FL=STORY 4_SCH=A,2
   Zone Equipment Component,1,AIRTERMINAL:SINGLEDUCT:UNCONTROLLED,AIR TERMINAL SINGLE DUCT UNCONTROLLED 9,WILD_ST=CORR. < 2.4M WIDE-SCH-I_FL=STORY 4_SCH=A,1,1
   Zone Equipment Component,2,ZONEHVAC:BASEBOARD:CONVECTIVE:WATER,ZONE HVAC BASEBOARD CONVECTIVE WATER 9,WILD_ST=CORR. < 2.4M WIDE-SCH-I_FL=STORY 4_SCH=A,2,2
 Zone Equipment List,12,WILD_ST=CORR. >= 2.4M WIDE-SCH-A_FL=STORY 4_SCH=A EQUIPMENT LIST,WILD_ST=CORR. >= 2.4M WIDE-SCH-A_FL=STORY 4_SCH=A,2
   Zone Equipment Component,1,AIRTERMINAL:SINGLEDUCT:UNCONTROLLED,AIR TERMINAL SINGLE DUCT UNCONTROLLED 10,WILD_ST=CORR. >= 2.4M WIDE-SCH-A_FL=STORY 4_SCH=A,1,1
   Zone Equipment Component,2,ZONEHVAC:BASEBOARD:CONVECTIVE:WATER,ZONE HVAC BASEBOARD CONVECTIVE WATER 10,WILD_ST=CORR. >= 2.4M WIDE-SCH-A_FL=STORY 4_SCH=A,2,2
 Zone Equipment List,13,WILD_ST=CORR. >= 2.4M WIDE-SCH-B_FL=STORY 1_SCH=A EQUIPMENT LIST,WILD_ST=CORR. >= 2.4M WIDE-SCH-B_FL=STORY 1_SCH=A,2
   Zone Equipment Component,1,AIRTERMINAL:SINGLEDUCT:UNCONTROLLED,AIR TERMINAL SINGLE DUCT UNCONTROLLED 11,WILD_ST=CORR. >= 2.4M WIDE-SCH-B_FL=STORY 1_SCH=A,1,1
   Zone Equipment Component,2,ZONEHVAC:BASEBOARD:CONVECTIVE:WATER,ZONE HVAC BASEBOARD CONVECTIVE WATER 11,WILD_ST=CORR. >= 2.4M WIDE-SCH-B_FL=STORY 1_SCH=A,2,2
 Zone Equipment List,14,WILD_ST=CORR. >= 2.4M WIDE-SCH-C_FL=STORY 1_SCH=A EQUIPMENT LIST,WILD_ST=CORR. >= 2.4M WIDE-SCH-C_FL=STORY 1_SCH=A,2
   Zone Equipment Component,1,AIRTERMINAL:SINGLEDUCT:UNCONTROLLED,AIR TERMINAL SINGLE DUCT UNCONTROLLED 12,WILD_ST=CORR. >= 2.4M WIDE-SCH-C_FL=STORY 1_SCH=A,1,1
   Zone Equipment Component,2,ZONEHVAC:BASEBOARD:CONVECTIVE:WATER,ZONE HVAC BASEBOARD CONVECTIVE WATER 12,WILD_ST=CORR. >= 2.4M WIDE-SCH-C_FL=STORY 1_SCH=A,2,2
 Zone Equipment List,15,WILD_ST=CORR. >= 2.4M WIDE-SCH-D_FL=STORY 2_SCH=A EQUIPMENT LIST,WILD_ST=CORR. >= 2.4M WIDE-SCH-D_FL=STORY 2_SCH=A,2
   Zone Equipment Component,1,AIRTERMINAL:SINGLEDUCT:UNCONTROLLED,AIR TERMINAL SINGLE DUCT UNCONTROLLED 13,WILD_ST=CORR. >= 2.4M WIDE-SCH-D_FL=STORY 2_SCH=A,1,1
   Zone Equipment Component,2,ZONEHVAC:BASEBOARD:CONVECTIVE:WATER,ZONE HVAC BASEBOARD CONVECTIVE WATER 13,WILD_ST=CORR. >= 2.4M WIDE-SCH-D_FL=STORY 2_SCH=A,2,2
 Zone Equipment List,16,WILD_ST=CORR. >= 2.4M WIDE-SCH-E_FL=STORY 1_SCH=A EQUIPMENT LIST,WILD_ST=CORR. >= 2.4M WIDE-SCH-E_FL=STORY 1_SCH=A,2
   Zone Equipment Component,1,AIRTERMINAL:SINGLEDUCT:UNCONTROLLED,AIR TERMINAL SINGLE DUCT UNCONTROLLED 14,WILD_ST=CORR. >= 2.4M WIDE-SCH-E_FL=STORY 1_SCH=A,1,1
   Zone Equipment Component,2,ZONEHVAC:BASEBOARD:CONVECTIVE:WATER,ZONE HVAC BASEBOARD CONVECTIVE WATER 14,WILD_ST=CORR. >= 2.4M WIDE-SCH-E_FL=STORY 1_SCH=A,2,2
 Zone Equipment List,17,WILD_ST=CORR. >= 2.4M WIDE-SCH-F_FL=STORY 2_SCH=A EQUIPMENT LIST,WILD_ST=CORR. >= 2.4M WIDE-SCH-F_FL=STORY 2_SCH=A,2
   Zone Equipment Component,1,AIRTERMINAL:SINGLEDUCT:UNCONTROLLED,AIR TERMINAL SINGLE DUCT UNCONTROLLED 15,WILD_ST=CORR. >= 2.4M WIDE-SCH-F_FL=STORY 2_SCH=A,1,1
   Zone Equipment Component,2,ZONEHVAC:BASEBOARD:CONVECTIVE:WATER,ZONE HVAC BASEBOARD CONVECTIVE WATER 15,WILD_ST=CORR. >= 2.4M WIDE-SCH-F_FL=STORY 2_SCH=A,2,2
 Zone Equipment List,18,WILD_ST=CORR. >= 2.4M WIDE-SCH-G_FL=STORY 1_SCH=A EQUIPMENT LIST,WILD_ST=CORR. >= 2.4M WIDE-SCH-G_FL=STORY 1_SCH=A,2
   Zone Equipment Component,1,AIRTERMINAL:SINGLEDUCT:UNCONTROLLED,AIR TERMINAL SINGLE DUCT UNCONTROLLED 16,WILD_ST=CORR. >= 2.4M WIDE-SCH-G_FL=STORY 1_SCH=A,1,1
   Zone Equipment Component,2,ZONEHVAC:BASEBOARD:CONVECTIVE:WATER,ZONE HVAC BASEBOARD CONVECTIVE WATER 16,WILD_ST=CORR. >= 2.4M WIDE-SCH-G_FL=STORY 1_SCH=A,2,2
 Zone Equipment List,19,WILD_ST=CORR. >= 2.4M WIDE-SCH-H_FL=STORY 4_SCH=A EQUIPMENT LIST,WILD_ST=CORR. >= 2.4M WIDE-SCH-H_FL=STORY 4_SCH=A,2
   Zone Equipment Component,1,AIRTERMINAL:SINGLEDUCT:UNCONTROLLED,AIR TERMINAL SINGLE DUCT UNCONTROLLED 17,WILD_ST=CORR. >= 2.4M WIDE-SCH-H_FL=STORY 4_SCH=A,1,1
   Zone Equipment Component,2,ZONEHVAC:BASEBOARD:CONVECTIVE:WATER,ZONE HVAC BASEBOARD CONVECTIVE WATER 17,WILD_ST=CORR. >= 2.4M WIDE-SCH-H_FL=STORY 4_SCH=A,2,2
 Zone Equipment List,20,WILD_ST=CORR. >= 2.4M WIDE-SCH-I_FL=STORY 2_SCH=A EQUIPMENT LIST,WILD_ST=CORR. >= 2.4M WIDE-SCH-I_FL=STORY 2_SCH=A,2
   Zone Equipment Component,1,AIRTERMINAL:SINGLEDUCT:UNCONTROLLED,AIR TERMINAL SINGLE DUCT UNCONTROLLED 18,WILD_ST=CORR. >= 2.4M WIDE-SCH-I_FL=STORY 2_SCH=A,1,1
   Zone Equipment Component,2,ZONEHVAC:BASEBOARD:CONVECTIVE:WATER,ZONE HVAC BASEBOARD CONVECTIVE WATER 18,WILD_ST=CORR. >= 2.4M WIDE-SCH-I_FL=STORY 2_SCH=A,2,2
! ===============================================================
! <#AirLoopHVACs>,<Number of AirLoopHVACs>
 #AirLoopHVACs,4
! <AirLoopHVAC>,<Air Loop Name>,<# Return Nodes>,<# Supply Nodes>,<# Zones Cooled>,<# Zones Heated>,<Outdoor Air Used>
! <AirLoop Return Connections>,<Connection Count>,<AirLoopHVAC Name>,<Zn Eqp Return Node #>,<Zn Eqp Return Node Name>,<AirLoop Return Node #>,<Air Loop Return Node Name>
[...]
 Non-Parent Node Connection,NODE 166,CONNECTOR:MIXER,MAIN SERVICE WATER LOOP DEMAND MIXER,Inlet,1
 Non-Parent Node Connection,NODE 168,CONNECTOR:MIXER,MAIN SERVICE WATER LOOP DEMAND MIXER,Inlet,1
 Non-Parent Node Connection,MAIN SERVICE WATER LOOP DEMAND BYPASS PIPE OUTLET NODE,CONNECTOR:MIXER,MAIN SERVICE WATER LOOP DEMAND MIXER,Inlet,1
 Non-Parent Node Connection,NODE 155,CONNECTOR:SPLITTER,MAIN SERVICE WATER LOOP SUPPLY SPLITTER,Inlet,1
 Non-Parent Node Connection,NODE 151,CONNECTOR:SPLITTER,MAIN SERVICE WATER LOOP SUPPLY SPLITTER,Outlet,1
 Non-Parent Node Connection,NODE 157,CONNECTOR:SPLITTER,MAIN SERVICE WATER LOOP SUPPLY SPLITTER,Outlet,1
 Non-Parent Node Connection,NODE 160,CONNECTOR:MIXER,MAIN SERVICE WATER LOOP SUPPLY MIXER,Outlet,1
 Non-Parent Node Connection,NODE 156,CONNECTOR:MIXER,MAIN SERVICE WATER LOOP SUPPLY MIXER,Inlet,1
 Non-Parent Node Connection,NODE 158,CONNECTOR:MIXER,MAIN SERVICE WATER LOOP SUPPLY MIXER,Inlet,1
 Non-Parent Node Connection,NODE 163,WATERUSE:CONNECTIONS,WATER USE CONNECTIONS 1,Inlet,1
 Non-Parent Node Connection,NODE 164,WATERUSE:CONNECTIONS,WATER USE CONNECTIONS 1,Outlet,1
 Non-Parent Node Connection,NODE 165,WATERUSE:CONNECTIONS,WATER USE CONNECTIONS 2,Inlet,1
 Non-Parent Node Connection,NODE 166,WATERUSE:CONNECTIONS,WATER USE CONNECTIONS 2,Outlet,1
 Non-Parent Node Connection,NODE 167,WATERUSE:CONNECTIONS,WATER USE CONNECTIONS 3,Inlet,1
 Non-Parent Node Connection,NODE 168,WATERUSE:CONNECTIONS,WATER USE CONNECTIONS 3,Outlet,1
 Non-Parent Node Connection,NODE 125,AIRLOOPHVAC:ZONESPLITTER,AIR LOOP HVAC ZONE SPLITTER 3,Inlet,1
 Non-Parent Node Connection,NODE 127,AIRLOOPHVAC:ZONESPLITTER,AIR LOOP HVAC ZONE SPLITTER 3,Outlet,1
 Non-Parent Node Connection,NODE 138,AIRLOOPHVAC:ZONESPLITTER,AIR LOOP HVAC ZONE SPLITTER 4,Inlet,1
 Non-Parent Node Connection,NODE 140,AIRLOOPHVAC:ZONESPLITTER,AIR LOOP HVAC ZONE SPLITTER 4,Outlet,1
 Non-Parent Node Connection,NODE 24,AIRLOOPHVAC:ZONESPLITTER,AIR LOOP HVAC ZONE SPLITTER 1,Inlet,1
 Non-Parent Node Connection,NODE 27,AIRLOOPHVAC:ZONESPLITTER,AIR LOOP HVAC ZONE SPLITTER 1,Outlet,1
 Non-Parent Node Connection,NODE 42,AIRLOOPHVAC:ZONESPLITTER,AIR LOOP HVAC ZONE SPLITTER 2,Inlet,1
 Non-Parent Node Connection,NODE 45,AIRLOOPHVAC:ZONESPLITTER,AIR LOOP HVAC ZONE SPLITTER 2,Outlet,1
 Non-Parent Node Connection,NODE 59,AIRLOOPHVAC:ZONESPLITTER,AIR LOOP HVAC ZONE SPLITTER 2,Outlet,1
 Non-Parent Node Connection,NODE 63,AIRLOOPHVAC:ZONESPLITTER,AIR LOOP HVAC ZONE SPLITTER 2,Outlet,1
 Non-Parent Node Connection,NODE 67,AIRLOOPHVAC:ZONESPLITTER,AIR LOOP HVAC ZONE SPLITTER 2,Outlet,1
 Non-Parent Node Connection,NODE 71,AIRLOOPHVAC:ZONESPLITTER,AIR LOOP HVAC ZONE SPLITTER 2,Outlet,1
 Non-Parent Node Connection,NODE 75,AIRLOOPHVAC:ZONESPLITTER,AIR LOOP HVAC ZONE SPLITTER 2,Outlet,1
 Non-Parent Node Connection,NODE 79,AIRLOOPHVAC:ZONESPLITTER,AIR LOOP HVAC ZONE SPLITTER 2,Outlet,1
 Non-Parent Node Connection,NODE 83,AIRLOOPHVAC:ZONESPLITTER,AIR LOOP HVAC ZONE SPLITTER 2,Outlet,1
 Non-Parent Node Connection,NODE 87,AIRLOOPHVAC:ZONESPLITTER,AIR LOOP HVAC ZONE SPLITTER 2,Outlet,1
 Non-Parent Node Connection,NODE 91,AIRLOOPHVAC:ZONESPLITTER,AIR LOOP HVAC ZONE SPLITTER 2,Outlet,1
 Non-Parent Node Connection,NODE 95,AIRLOOPHVAC:ZONESPLITTER,AIR LOOP HVAC ZONE SPLITTER 2,Outlet,1
 Non-Parent Node Connection,NODE 99,AIRLOOPHVAC:ZONESPLITTER,AIR LOOP HVAC ZONE SPLITTER 2,Outlet,1
 Non-Parent Node Connection,NODE 103,AIRLOOPHVAC:ZONESPLITTER,AIR LOOP HVAC ZONE SPLITTER 2,Outlet,1
 Non-Parent Node Connection,NODE 107,AIRLOOPHVAC:ZONESPLITTER,AIR LOOP HVAC ZONE SPLITTER 2,Outlet,1
 Non-Parent Node Connection,NODE 111,AIRLOOPHVAC:ZONESPLITTER,AIR LOOP HVAC ZONE SPLITTER 2,Outlet,1
 Non-Parent Node Connection,NODE 115,AIRLOOPHVAC:ZONESPLITTER,AIR LOOP HVAC ZONE SPLITTER 2,Outlet,1
 Non-Parent Node Connection,NODE 119,AIRLOOPHVAC:ZONESPLITTER,AIR LOOP HVAC ZONE SPLITTER 2,Outlet,1
 Non-Parent Node Connection,NODE 127,AIRTERMINAL:SINGLEDUCT:UNCONTROLLED,AIR TERMINAL SINGLE DUCT UNCONTROLLED 19,Outlet,1
 Non-Parent Node Connection,NODE 140,AIRTERMINAL:SINGLEDUCT:UNCONTROLLED,AIR TERMINAL SINGLE DUCT UNCONTROLLED 20,Outlet,1
 Non-Parent Node Connection,NODE 27,AIRTERMINAL:SINGLEDUCT:UNCONTROLLED,AIR TERMINAL SINGLE DUCT UNCONTROLLED 1,Outlet,1
 Non-Parent Node Connection,NODE 45,AIRTERMINAL:SINGLEDUCT:UNCONTROLLED,AIR TERMINAL SINGLE DUCT UNCONTROLLED 2,Outlet,1
 Non-Parent Node Connection,NODE 59,AIRTERMINAL:SINGLEDUCT:UNCONTROLLED,AIR TERMINAL SINGLE DUCT UNCONTROLLED 3,Outlet,1
 Non-Parent Node Connection,NODE 63,AIRTERMINAL:SINGLEDUCT:UNCONTROLLED,AIR TERMINAL SINGLE DUCT UNCONTROLLED 4,Outlet,1
 Non-Parent Node Connection,NODE 67,AIRTERMINAL:SINGLEDUCT:UNCONTROLLED,AIR TERMINAL SINGLE DUCT UNCONTROLLED 5,Outlet,1
 Non-Parent Node Connection,NODE 71,AIRTERMINAL:SINGLEDUCT:UNCONTROLLED,AIR TERMINAL SINGLE DUCT UNCONTROLLED 6,Outlet,1
 Non-Parent Node Connection,NODE 75,AIRTERMINAL:SINGLEDUCT:UNCONTROLLED,AIR TERMINAL SINGLE DUCT UNCONTROLLED 7,Outlet,1
 Non-Parent Node Connection,NODE 79,AIRTERMINAL:SINGLEDUCT:UNCONTROLLED,AIR TERMINAL SINGLE DUCT UNCONTROLLED 8,Outlet,1
 Non-Parent Node Connection,NODE 83,AIRTERMINAL:SINGLEDUCT:UNCONTROLLED,AIR TERMINAL SINGLE DUCT UNCONTROLLED 9,Outlet,1
 Non-Parent Node Connection,NODE 87,AIRTERMINAL:SINGLEDUCT:UNCONTROLLED,AIR TERMINAL SINGLE DUCT UNCONTROLLED 10,Outlet,1
 Non-Parent Node Connection,NODE 91,AIRTERMINAL:SINGLEDUCT:UNCONTROLLED,AIR TERMINAL SINGLE DUCT UNCONTROLLED 11,Outlet,1
 Non-Parent Node Connection,NODE 95,AIRTERMINAL:SINGLEDUCT:UNCONTROLLED,AIR TERMINAL SINGLE DUCT UNCONTROLLED 12,Outlet,1
 Non-Parent Node Connection,NODE 99,AIRTERMINAL:SINGLEDUCT:UNCONTROLLED,AIR TERMINAL SINGLE DUCT UNCONTROLLED 13,Outlet,1
 Non-Parent Node Connection,NODE 103,AIRTERMINAL:SINGLEDUCT:UNCONTROLLED,AIR TERMINAL SINGLE DUCT UNCONTROLLED 14,Outlet,1
 Non-Parent Node Connection,NODE 107,AIRTERMINAL:SINGLEDUCT:UNCONTROLLED,AIR TERMINAL SINGLE DUCT UNCONTROLLED 15,Outlet,1
 Non-Parent Node Connection,NODE 111,AIRTERMINAL:SINGLEDUCT:UNCONTROLLED,AIR TERMINAL SINGLE DUCT UNCONTROLLED 16,Outlet,1
 Non-Parent Node Connection,NODE 115,AIRTERMINAL:SINGLEDUCT:UNCONTROLLED,AIR TERMINAL SINGLE DUCT UNCONTROLLED 17,Outlet,1
 Non-Parent Node Connection,NODE 119,AIRTERMINAL:SINGLEDUCT:UNCONTROLLED,AIR TERMINAL SINGLE DUCT UNCONTROLLED 18,Outlet,1
 Non-Parent Node Connection,NODE 134,ZONEHVAC:BASEBOARD:CONVECTIVE:WATER,ZONE HVAC BASEBOARD CONVECTIVE WATER 19,Inlet,1
 Non-Parent Node Connection,NODE 135,ZONEHVAC:BASEBOARD:CONVECTIVE:WATER,ZONE HVAC BASEBOARD CONVECTIVE WATER 19,Outlet,1
 Non-Parent Node Connection,NODE 147,ZONEHVAC:BASEBOARD:CONVECTIVE:WATER,ZONE HVAC BASEBOARD CONVECTIVE WATER 20,Inlet,1
 Non-Parent Node Connection,NODE 148,ZONEHVAC:BASEBOARD:CONVECTIVE:WATER,ZONE HVAC BASEBOARD CONVECTIVE WATER 20,Outlet,1
 Non-Parent Node Connection,NODE 9,ZONEHVAC:BASEBOARD:CONVECTIVE:WATER,ZONE HVAC BASEBOARD CONVECTIVE WATER 1,Inlet,1
 Non-Parent Node Connection,NODE 38,ZONEHVAC:BASEBOARD:CONVECTIVE:WATER,ZONE HVAC BASEBOARD CONVECTIVE WATER 1,Outlet,1
 Non-Parent Node Connection,NODE 56,ZONEHVAC:BASEBOARD:CONVECTIVE:WATER,ZONE HVAC BASEBOARD CONVECTIVE WATER 2,Inlet,1
 Non-Parent Node Connection,NODE 57,ZONEHVAC:BASEBOARD:CONVECTIVE:WATER,ZONE HVAC BASEBOARD CONVECTIVE WATER 2,Outlet,1
 Non-Parent Node Connection,NODE 61,ZONEHVAC:BASEBOARD:CONVECTIVE:WATER,ZONE HVAC BASEBOARD CONVECTIVE WATER 3,Inlet,1
 Non-Parent Node Connection,NODE 62,ZONEHVAC:BASEBOARD:CONVECTIVE:WATER,ZONE HVAC BASEBOARD CONVECTIVE WATER 3,Outlet,1
 Non-Parent Node Connection,NODE 65,ZONEHVAC:BASEBOARD:CONVECTIVE:WATER,ZONE HVAC BASEBOARD CONVECTIVE WATER 4,Inlet,1
 Non-Parent Node Connection,NODE 66,ZONEHVAC:BASEBOARD:CONVECTIVE:WATER,ZONE HVAC BASEBOARD CONVECTIVE WATER 4,Outlet,1
 Non-Parent Node Connection,NODE 69,ZONEHVAC:BASEBOARD:CONVECTIVE:WATER,ZONE HVAC BASEBOARD CONVECTIVE WATER 5,Inlet,1
 Non-Parent Node Connection,NODE 70,ZONEHVAC:BASEBOARD:CONVECTIVE:WATER,ZONE HVAC BASEBOARD CONVECTIVE WATER 5,Outlet,1
 Non-Parent Node Connection,NODE 73,ZONEHVAC:BASEBOARD:CONVECTIVE:WATER,ZONE HVAC BASEBOARD CONVECTIVE WATER 6,Inlet,1
 Non-Parent Node Connection,NODE 74,ZONEHVAC:BASEBOARD:CONVECTIVE:WATER,ZONE HVAC BASEBOARD CONVECTIVE WATER 6,Outlet,1
 Non-Parent Node Connection,NODE 77,ZONEHVAC:BASEBOARD:CONVECTIVE:WATER,ZONE HVAC BASEBOARD CONVECTIVE WATER 7,Inlet,1
 Non-Parent Node Connection,NODE 78,ZONEHVAC:BASEBOARD:CONVECTIVE:WATER,ZONE HVAC BASEBOARD CONVECTIVE WATER 7,Outlet,1
 Non-Parent Node Connection,NODE 81,ZONEHVAC:BASEBOARD:CONVECTIVE:WATER,ZONE HVAC BASEBOARD CONVECTIVE WATER 8,Inlet,1
 Non-Parent Node Connection,NODE 82,ZONEHVAC:BASEBOARD:CONVECTIVE:WATER,ZONE HVAC BASEBOARD CONVECTIVE WATER 8,Outlet,1
 Non-Parent Node Connection,NODE 85,ZONEHVAC:BASEBOARD:CONVECTIVE:WATER,ZONE HVAC BASEBOARD CONVECTIVE WATER 9,Inlet,1
 Non-Parent Node Connection,NODE 86,ZONEHVAC:BASEBOARD:CONVECTIVE:WATER,ZONE HVAC BASEBOARD CONVECTIVE WATER 9,Outlet,1
 Non-Parent Node Connection,NODE 89,ZONEHVAC:BASEBOARD:CONVECTIVE:WATER,ZONE HVAC BASEBOARD CONVECTIVE WATER 10,Inlet,1
 Non-Parent Node Connection,NODE 90,ZONEHVAC:BASEBOARD:CONVECTIVE:WATER,ZONE HVAC BASEBOARD CONVECTIVE WATER 10,Outlet,1
 Non-Parent Node Connection,NODE 93,ZONEHVAC:BASEBOARD:CONVECTIVE:WATER,ZONE HVAC BASEBOARD CONVECTIVE WATER 11,Inlet,1
 Non-Parent Node Connection,NODE 94,ZONEHVAC:BASEBOARD:CONVECTIVE:WATER,ZONE HVAC BASEBOARD CONVECTIVE WATER 11,Outlet,1
 Non-Parent Node Connection,NODE 97,ZONEHVAC:BASEBOARD:CONVECTIVE:WATER,ZONE HVAC BASEBOARD CONVECTIVE WATER 12,Inlet,1
 Non-Parent Node Connection,NODE 98,ZONEHVAC:BASEBOARD:CONVECTIVE:WATER,ZONE HVAC BASEBOARD CONVECTIVE WATER 12,Outlet,1
 Non-Parent Node Connection,NODE 101,ZONEHVAC:BASEBOARD:CONVECTIVE:WATER,ZONE HVAC BASEBOARD CONVECTIVE WATER 13,Inlet,1
 Non-Parent Node Connection,NODE 102,ZONEHVAC:BASEBOARD:CONVECTIVE:WATER,ZONE HVAC BASEBOARD CONVECTIVE WATER 13,Outlet,1
 Non-Parent Node Connection,NODE 105,ZONEHVAC:BASEBOARD:CONVECTIVE:WATER,ZONE HVAC BASEBOARD CONVECTIVE WATER 14,Inlet,1
 Non-Parent Node Connection,NODE 106,ZONEHVAC:BASEBOARD:CONVECTIVE:WATER,ZONE HVAC BASEBOARD CONVECTIVE WATER 14,Outlet,1
 Non-Parent Node Connection,NODE 109,ZONEHVAC:BASEBOARD:CONVECTIVE:WATER,ZONE HVAC BASEBOARD CONVECTIVE WATER 15,Inlet,1
 Non-Parent Node Connection,NODE 110,ZONEHVAC:BASEBOARD:CONVECTIVE:WATER,ZONE HVAC BASEBOARD CONVECTIVE WATER 15,Outlet,1
 Non-Parent Node Connection,NODE 113,ZONEHVAC:BASEBOARD:CONVECTIVE:WATER,ZONE HVAC BASEBOARD CONVECTIVE WATER 16,Inlet,1
 Non-Parent Node Connection,NODE 114,ZONEHVAC:BASEBOARD:CONVECTIVE:WATER,ZONE HVAC BASEBOARD CONVECTIVE WATER 16,Outlet,1
 Non-Parent Node Connection,NODE 117,ZONEHVAC:BASEBOARD:CONVECTIVE:WATER,ZONE HVAC BASEBOARD CONVECTIVE WATER 17,Inlet,1
 Non-Parent Node Connection,NODE 118,ZONEHVAC:BASEBOARD:CONVECTIVE:WATER,ZONE HVAC BASEBOARD CONVECTIVE WATER 17,Outlet,1
 Non-Parent Node Connection,NODE 121,ZONEHVAC:BASEBOARD:CONVECTIVE:WATER,ZONE HVAC BASEBOARD CONVECTIVE WATER 18,Inlet,1
 Non-Parent Node Connection,NODE 122,ZONEHVAC:BASEBOARD:CONVECTIVE:WATER,ZONE HVAC BASEBOARD CONVECTIVE WATER 18,Outlet,1
 Non-Parent Node Connection,NODE 126,AIRLOOPHVAC:ZONEMIXER,AIR LOOP HVAC ZONE MIXER 3,Outlet,1
 Non-Parent Node Connection,NODE 133,AIRLOOPHVAC:ZONEMIXER,AIR LOOP HVAC ZONE MIXER 3,Inlet,1
 Non-Parent Node Connection,NODE 139,AIRLOOPHVAC:ZONEMIXER,AIR LOOP HVAC ZONE MIXER 4,Outlet,1
 Non-Parent Node Connection,NODE 146,AIRLOOPHVAC:ZONEMIXER,AIR LOOP HVAC ZONE MIXER 4,Inlet,1
 Non-Parent Node Connection,NODE 26,AIRLOOPHVAC:ZONEMIXER,AIR LOOP HVAC ZONE MIXER 1,Outlet,1
 Non-Parent Node Connection,NODE 36,AIRLOOPHVAC:ZONEMIXER,AIR LOOP HVAC ZONE MIXER 1,Inlet,1
 Non-Parent Node Connection,NODE 44,AIRLOOPHVAC:ZONEMIXER,AIR LOOP HVAC ZONE MIXER 2,Outlet,1
 Non-Parent Node Connection,NODE 54,AIRLOOPHVAC:ZONEMIXER,AIR LOOP HVAC ZONE MIXER 2,Inlet,1
 Non-Parent Node Connection,NODE 60,AIRLOOPHVAC:ZONEMIXER,AIR LOOP HVAC ZONE MIXER 2,Inlet,1
 Non-Parent Node Connection,NODE 64,AIRLOOPHVAC:ZONEMIXER,AIR LOOP HVAC ZONE MIXER 2,Inlet,1
 Non-Parent Node Connection,NODE 68,AIRLOOPHVAC:ZONEMIXER,AIR LOOP HVAC ZONE MIXER 2,Inlet,1
 Non-Parent Node Connection,NODE 72,AIRLOOPHVAC:ZONEMIXER,AIR LOOP HVAC ZONE MIXER 2,Inlet,1
 Non-Parent Node Connection,NODE 76,AIRLOOPHVAC:ZONEMIXER,AIR LOOP HVAC ZONE MIXER 2,Inlet,1
 Non-Parent Node Connection,NODE 80,AIRLOOPHVAC:ZONEMIXER,AIR LOOP HVAC ZONE MIXER 2,Inlet,1
 Non-Parent Node Connection,NODE 84,AIRLOOPHVAC:ZONEMIXER,AIR LOOP HVAC ZONE MIXER 2,Inlet,1
 Non-Parent Node Connection,NODE 88,AIRLOOPHVAC:ZONEMIXER,AIR LOOP HVAC ZONE MIXER 2,Inlet,1
 Non-Parent Node Connection,NODE 92,AIRLOOPHVAC:ZONEMIXER,AIR LOOP HVAC ZONE MIXER 2,Inlet,1
 Non-Parent Node Connection,NODE 96,AIRLOOPHVAC:ZONEMIXER,AIR LOOP HVAC ZONE MIXER 2,Inlet,1
 Non-Parent Node Connection,NODE 100,AIRLOOPHVAC:ZONEMIXER,AIR LOOP HVAC ZONE MIXER 2,Inlet,1
 Non-Parent Node Connection,NODE 104,AIRLOOPHVAC:ZONEMIXER,AIR LOOP HVAC ZONE MIXER 2,Inlet,1
 Non-Parent Node Connection,NODE 108,AIRLOOPHVAC:ZONEMIXER,AIR LOOP HVAC ZONE MIXER 2,Inlet,1
 Non-Parent Node Connection,NODE 112,AIRLOOPHVAC:ZONEMIXER,AIR LOOP HVAC ZONE MIXER 2,Inlet,1
 Non-Parent Node Connection,NODE 116,AIRLOOPHVAC:ZONEMIXER,AIR LOOP HVAC ZONE MIXER 2,Inlet,1
 Non-Parent Node Connection,NODE 120,AIRLOOPHVAC:ZONEMIXER,AIR LOOP HVAC ZONE MIXER 2,Inlet,1
 Non-Parent Node Connection,NODE 132,OUTDOORAIR:MIXER,AIR LOOP HVAC OUTDOOR AIR SYSTEM 3 OUTDOOR AIR MIXER,Outlet,1
 Non-Parent Node Connection,NODE 128,OUTDOORAIR:MIXER,AIR LOOP HVAC OUTDOOR AIR SYSTEM 3 OUTDOOR AIR MIXER,Inlet,1
 Non-Parent Node Connection,NODE 129,OUTDOORAIR:MIXER,AIR LOOP HVAC OUTDOOR AIR SYSTEM 3 OUTDOOR AIR MIXER,ReliefAir,1
 Non-Parent Node Connection,NODE 123,OUTDOORAIR:MIXER,AIR LOOP HVAC OUTDOOR AIR SYSTEM 3 OUTDOOR AIR MIXER,Inlet,1
 Non-Parent Node Connection,NODE 145,OUTDOORAIR:MIXER,AIR LOOP HVAC OUTDOOR AIR SYSTEM 4 OUTDOOR AIR MIXER,Outlet,1
 Non-Parent Node Connection,NODE 141,OUTDOORAIR:MIXER,AIR LOOP HVAC OUTDOOR AIR SYSTEM 4 OUTDOOR AIR MIXER,Inlet,1
 Non-Parent Node Connection,NODE 142,OUTDOORAIR:MIXER,AIR LOOP HVAC OUTDOOR AIR SYSTEM 4 OUTDOOR AIR MIXER,ReliefAir,1
 Non-Parent Node Connection,NODE 136,OUTDOORAIR:MIXER,AIR LOOP HVAC OUTDOOR AIR SYSTEM 4 OUTDOOR AIR MIXER,Inlet,1
 Non-Parent Node Connection,NODE 35,OUTDOORAIR:MIXER,AIR LOOP HVAC OUTDOOR AIR SYSTEM 1 OUTDOOR AIR MIXER,Outlet,1
 Non-Parent Node Connection,NODE 29,OUTDOORAIR:MIXER,AIR LOOP HVAC OUTDOOR AIR SYSTEM 1 OUTDOOR AIR MIXER,Inlet,1
 Non-Parent Node Connection,NODE 30,OUTDOORAIR:MIXER,AIR LOOP HVAC OUTDOOR AIR SYSTEM 1 OUTDOOR AIR MIXER,ReliefAir,1
 Non-Parent Node Connection,NODE 21,OUTDOORAIR:MIXER,AIR LOOP HVAC OUTDOOR AIR SYSTEM 1 OUTDOOR AIR MIXER,Inlet,1
 Non-Parent Node Connection,NODE 53,OUTDOORAIR:MIXER,AIR LOOP HVAC OUTDOOR AIR SYSTEM 2 OUTDOOR AIR MIXER,Outlet,1
 Non-Parent Node Connection,NODE 47,OUTDOORAIR:MIXER,AIR LOOP HVAC OUTDOOR AIR SYSTEM 2 OUTDOOR AIR MIXER,Inlet,1
 Non-Parent Node Connection,NODE 48,OUTDOORAIR:MIXER,AIR LOOP HVAC OUTDOOR AIR SYSTEM 2 OUTDOOR AIR MIXER,ReliefAir,1
 Non-Parent Node Connection,NODE 39,OUTDOORAIR:MIXER,AIR LOOP HVAC OUTDOOR AIR SYSTEM 2 OUTDOOR AIR MIXER,Inlet,1
 Non-Parent Node Connection,NODE 130,FAN:CONSTANTVOLUME,FAN CONSTANT VOLUME 3,Inlet,1
 Non-Parent Node Connection,NODE 124,FAN:CONSTANTVOLUME,FAN CONSTANT VOLUME 3,Outlet,1
 Non-Parent Node Connection,NODE 143,FAN:CONSTANTVOLUME,FAN CONSTANT VOLUME 4,Inlet,1
 Non-Parent Node Connection,NODE 137,FAN:CONSTANTVOLUME,FAN CONSTANT VOLUME 4,Outlet,1
 Non-Parent Node Connection,NODE 32,FAN:CONSTANTVOLUME,FAN CONSTANT VOLUME 1,Inlet,1
 Non-Parent Node Connection,NODE 23,FAN:CONSTANTVOLUME,FAN CONSTANT VOLUME 1,Outlet,1
 Non-Parent Node Connection,NODE 50,FAN:CONSTANTVOLUME,FAN CONSTANT VOLUME 2,Inlet,1
 Non-Parent Node Connection,NODE 41,FAN:CONSTANTVOLUME,FAN CONSTANT VOLUME 2,Outlet,1
 Non-Parent Node Connection,NODE 132,CONTROLLER:OUTDOORAIR,CONTROLLER OUTDOOR AIR 3,Sensor,1
 Non-Parent Node Connection,NODE 128,CONTROLLER:OUTDOORAIR,CONTROLLER OUTDOOR AIR 3,Actuator,1
 Non-Parent Node Connection,NODE 129,CONTROLLER:OUTDOORAIR,CONTROLLER OUTDOOR AIR 3,Actuator,1
 Non-Parent Node Connection,NODE 123,CONTROLLER:OUTDOORAIR,CONTROLLER OUTDOOR AIR 3,Sensor,1
 Non-Parent Node Connection,NODE 145,CONTROLLER:OUTDOORAIR,CONTROLLER OUTDOOR AIR 4,Sensor,1
 Non-Parent Node Connection,NODE 141,CONTROLLER:OUTDOORAIR,CONTROLLER OUTDOOR AIR 4,Actuator,1
 Non-Parent Node Connection,NODE 142,CONTROLLER:OUTDOORAIR,CONTROLLER OUTDOOR AIR 4,Actuator,1
 Non-Parent Node Connection,NODE 136,CONTROLLER:OUTDOORAIR,CONTROLLER OUTDOOR AIR 4,Sensor,1
 Non-Parent Node Connection,NODE 35,CONTROLLER:OUTDOORAIR,CONTROLLER OUTDOOR AIR 1,Sensor,1
 Non-Parent Node Connection,NODE 29,CONTROLLER:OUTDOORAIR,CONTROLLER OUTDOOR AIR 1,Actuator,1
 Non-Parent Node Connection,NODE 30,CONTROLLER:OUTDOORAIR,CONTROLLER OUTDOOR AIR 1,Actuator,1
 Non-Parent Node Connection,NODE 21,CONTROLLER:OUTDOORAIR,CONTROLLER OUTDOOR AIR 1,Sensor,1
 Non-Parent Node Connection,NODE 53,CONTROLLER:OUTDOORAIR,CONTROLLER OUTDOOR AIR 2,Sensor,1
 Non-Parent Node Connection,NODE 47,CONTROLLER:OUTDOORAIR,CONTROLLER OUTDOOR AIR 2,Actuator,1
 Non-Parent Node Connection,NODE 48,CONTROLLER:OUTDOORAIR,CONTROLLER OUTDOOR AIR 2,Actuator,1
 Non-Parent Node Connection,NODE 39,CONTROLLER:OUTDOORAIR,CONTROLLER OUTDOOR AIR 2,Sensor,1
 Non-Parent Node Connection,NODE 132,COIL:COOLING:DX:SINGLESPEED,COIL COOLING DX SINGLE SPEED 3,Inlet,1
 Non-Parent Node Connection,NODE 131,COIL:COOLING:DX:SINGLESPEED,COIL COOLING DX SINGLE SPEED 3,Outlet,1
 Non-Parent Node Connection,NODE 145,COIL:COOLING:DX:SINGLESPEED,COIL COOLING DX SINGLE SPEED 4,Inlet,1
 Non-Parent Node Connection,NODE 144,COIL:COOLING:DX:SINGLESPEED,COIL COOLING DX SINGLE SPEED 4,Outlet,1
 Non-Parent Node Connection,NODE 35,COIL:COOLING:DX:SINGLESPEED,COIL COOLING DX SINGLE SPEED 1,Inlet,1
 Non-Parent Node Connection,NODE 33,COIL:COOLING:DX:SINGLESPEED,COIL COOLING DX SINGLE SPEED 1,Outlet,1
 Non-Parent Node Connection,NODE 53,COIL:COOLING:DX:SINGLESPEED,COIL COOLING DX SINGLE SPEED 2,Inlet,1
 Non-Parent Node Connection,NODE 51,COIL:COOLING:DX:SINGLESPEED,COIL COOLING DX SINGLE SPEED 2,Outlet,1
 Non-Parent Node Connection,NODE 131,COIL:HEATING:FUEL,COIL HEATING GAS 3,Inlet,1
 Non-Parent Node Connection,NODE 130,COIL:HEATING:FUEL,COIL HEATING GAS 3,Outlet,1
 Non-Parent Node Connection,NODE 130,COIL:HEATING:FUEL,COIL HEATING GAS 3,Sensor,1
 Non-Parent Node Connection,NODE 144,COIL:HEATING:FUEL,COIL HEATING GAS 4,Inlet,1
 Non-Parent Node Connection,NODE 143,COIL:HEATING:FUEL,COIL HEATING GAS 4,Outlet,1
 Non-Parent Node Connection,NODE 143,COIL:HEATING:FUEL,COIL HEATING GAS 4,Sensor,1
 Non-Parent Node Connection,NODE 33,COIL:HEATING:FUEL,COIL HEATING GAS 1,Inlet,1
 Non-Parent Node Connection,NODE 32,COIL:HEATING:FUEL,COIL HEATING GAS 1,Outlet,1
 Non-Parent Node Connection,NODE 32,COIL:HEATING:FUEL,COIL HEATING GAS 1,Sensor,1
 Non-Parent Node Connection,NODE 51,COIL:HEATING:FUEL,COIL HEATING GAS 2,Inlet,1
 Non-Parent Node Connection,NODE 50,COIL:HEATING:FUEL,COIL HEATING GAS 2,Outlet,1
 Non-Parent Node Connection,NODE 50,COIL:HEATING:FUEL,COIL HEATING GAS 2,Sensor,1
 Non-Parent Node Connection,NODE 5,BOILER:HOTWATER,PRIMARY BOILER,Inlet,1
 Non-Parent Node Connection,NODE 12,BOILER:HOTWATER,PRIMARY BOILER,Outlet,1
 Non-Parent Node Connection,NODE 14,BOILER:HOTWATER,SECONDARY BOILER,Inlet,1
 Non-Parent Node Connection,NODE 15,BOILER:HOTWATER,SECONDARY BOILER,Outlet,1
 Non-Parent Node Connection,NODE 2,PUMP:VARIABLESPEED,PUMP VARIABLE SPEED 1,Inlet,1
 Non-Parent Node Connection,NODE 11,PUMP:VARIABLESPEED,PUMP VARIABLE SPEED 1,Outlet,1
 Non-Parent Node Connection,NODE 149,PUMP:CONSTANTSPEED,SERVICE WATER LOOP PUMP,Inlet,1
 Non-Parent Node Connection,NODE 155,PUMP:CONSTANTSPEED,SERVICE WATER LOOP PUMP,Outlet,1
