Program Version,EnergyPlus, Version 8.9.0-eba93e8e1b, YMD=2019.04.04 18:00
! <Version>, Version ID
 Version, 8.9
! <Timesteps per Hour>, #TimeSteps, Minutes per TimeStep {minutes}
 Timesteps per Hour,  6, 10
! <System Convergence Limits>, Minimum System TimeStep {minutes}, Max HVAC Iterations, Minimum Plant Iterations, Maximum Plant Iterations
 System Convergence Limits, 1, 20, 2, 8
! <Simulation Control>, Do Zone Sizing, Do System Sizing, Do Plant Sizing, Do Design Days, Do Weather Simulation, Do HVAC Sizing Simulation
 Simulation Control, Yes, Yes, Yes, Yes, No, No
! <Output Reporting Tolerances>, Tolerance for Time Heating Setpoint Not Met, Tolerance for Zone Cooling Setpoint Not Met Time
 Output Reporting Tolerances, 1.000, 1.000, 
! <Site:GroundTemperature:BuildingSurface>,Jan{C},Feb{C},Mar{C},Apr{C},May{C},Jun{C},Jul{C},Aug{C},Sep{C},Oct{C},Nov{C},Dec{C}
 Site:GroundTemperature:BuildingSurface,  19.53,  19.50,  19.54,  19.60,  20.00,  21.64,  22.23,  22.38,  21.45,  20.12,  19.80,  19.63
! <Site:GroundTemperature:FCfactorMethod>,Jan{C},Feb{C},Mar{C},Apr{C},May{C},Jun{C},Jul{C},Aug{C},Sep{C},Oct{C},Nov{C},Dec{C}
 Site:GroundTemperature:FCfactorMethod, -12.27, -13.66, -11.19,  -7.33,   2.77,  10.57,  15.83,  17.43,  14.70,   8.65,   0.56,  -6.95
! <Site:GroundTemperature:Shallow>,Jan{C},Feb{C},Mar{C},Apr{C},May{C},Jun{C},Jul{C},Aug{C},Sep{C},Oct{C},Nov{C},Dec{C}
 Site:GroundTemperature:Shallow,  13.00,  13.00,  13.00,  13.00,  13.00,  13.00,  13.00,  13.00,  13.00,  13.00,  13.00,  13.00
! <Site:GroundTemperature:Deep>,Jan{C},Feb{C},Mar{C},Apr{C},May{C},Jun{C},Jul{C},Aug{C},Sep{C},Oct{C},Nov{C},Dec{C}
 Site:GroundTemperature:Deep,  16.00,  16.00,  16.00,  16.00,  16.00,  16.00,  16.00,  16.00,  16.00,  16.00,  16.00,  16.00
! <Site:GroundReflectance>,Jan{dimensionless},Feb{dimensionless},Mar{dimensionless},Apr{dimensionless},May{dimensionless},Jun{dimensionless},Jul{dimensionless},Aug{dimensionless},Sep{dimensionless},Oct{dimensionless},Nov{dimensionless},Dec{dimensionless}
 Site:GroundReflectance,  0.20,  0.20,  0.20,  0.20,  0.20,  0.20,  0.20,  0.20,  0.20,  0.20,  0.20,  0.20
! <Site:GroundReflectance:SnowModifier>, Normal, Daylighting {dimensionless}
 Site:GroundReflectance:SnowModifier,   1.000,   1.000
! <Site:GroundReflectance:Snow>,Jan{dimensionless},Feb{dimensionless},Mar{dimensionless},Apr{dimensionless},May{dimensionless},Jun{dimensionless},Jul{dimensionless},Aug{dimensionless},Sep{dimensionless},Oct{dimensionless},Nov{dimensionless},Dec{dimensionless}
 Site:GroundReflectance:Snow,  0.20,  0.20,  0.20,  0.20,  0.20,  0.20,  0.20,  0.20,  0.20,  0.20,  0.20,  0.20
! <Site:GroundReflectance:Snow:Daylighting>,Jan{dimensionless},Feb{dimensionless},Mar{dimensionless},Apr{dimensionless},May{dimensionless},Jun{dimensionless},Jul{dimensionless},Aug{dimensionless},Sep{dimensionless},Oct{dimensionless},Nov{dimensionless},Dec{dimensionless}
 Site:GroundReflectance:Snow:Daylighting,  0.20,  0.20,  0.20,  0.20,  0.20,  0.20,  0.20,  0.20,  0.20,  0.20,  0.20,  0.20
! <Environment:Weather Station>,Wind Sensor Height Above Ground {m},Wind Speed Profile Exponent {},Wind Speed Profile Boundary Layer Thickness {m},Air Temperature Sensor Height Above Ground {m},Wind Speed Modifier Coefficient-Internal,Temperature Modifier Coefficient-Internal
Environment:Weather Station,10.000,0.140,270.000,1.500,1.586,9.750E-003
! <Site:Location>, Location Name, Latitude {N+/S- Deg}, Longitude {E+/W- Deg},  Time Zone Number {GMT+/-}, Elevation {m},  Standard Pressure at Elevation {Pa}, Standard RhoAir at Elevation
Site:Location,Fort McMurray AP AB CAN CWEC2016 WMO#=716890,56.65,-111.22,-7.00,369.10,96969,1.1525
! <Building Information>, Building Name,North Axis {deg},Terrain,  Loads Convergence Tolerance Value,Temperature Convergence Tolerance Value,  Solar Distribution,Maximum Number of Warmup Days,Minimum Number of Warmup Days
 Building Information,Building 1,0.000,Suburbs,4.00000E-002,0.40000,FullExterior,25,6
! <Inside Convection Algorithm>, Algorithm {Simple | TARP | CeilingDiffuser | AdaptiveConvectionAlgorithm}
Inside Convection Algorithm,TARP
! <Outside Convection Algorithm>, Algorithm {SimpleCombined | TARP | MoWitt | DOE-2 | AdaptiveConvectionAlgorithm}
Outside Convection Algorithm,TARP
! <Sky Radiance Distribution>, Value {Anisotropic}
Sky Radiance Distribution,Anisotropic
! <Zone Air Solution Algorithm>, Value {ThirdOrderBackwardDifference | AnalyticalSolution | EulerMethod}
 Zone Air Solution Algorithm, ThirdOrderBackwardDifference
! <Zone Air Carbon Dioxide Balance Simulation>, Simulation {Yes/No}, Carbon Dioxide Concentration
 Zone Air Carbon Dioxide Balance Simulation, No,N/A
! <Zone Air Generic Contaminant Balance Simulation>, Simulation {Yes/No}, Generic Contaminant Concentration
 Zone Air Generic Contaminant Balance Simulation, No,N/A
! <Zone Air Mass Flow Balance Simulation>, Enforce Mass Balance, Adjust Zone Mixing, Adjust Zone Infiltration {AddInfiltration | AdjustInfiltration | None}, Infiltration Zones {MixingSourceZonesOnly | AllZones}
 Zone Air Mass Flow Balance Simulation, No,N/A,N/A,N/A
! <HVACSystemRootFindingAlgorithm>, Value {RegulaFalsi | Bisection | BisectionThenRegulaFalsi | RegulaFalsiThenBisection}
 HVACSystemRootFindingAlgorithm, RegulaFalsi
! <Environment:Site Atmospheric Variation>,Wind Speed Profile Exponent {},Wind Speed Profile Boundary Layer Thickness {m},Air Temperature Gradient Coefficient {K/m}
Environment:Site Atmospheric Variation,0.220,370.000,6.500000E-003
! <Surface Geometry>,Starting Corner,Vertex Input Direction,Coordinate System,Daylight Reference Point Coordinate System,Rectangular (Simple) Surface Coordinate System
 Surface Geometry,UpperLeftCorner,Counterclockwise,RelativeCoordinateSystem,RelativeCoordinateSystem,RelativeToZoneOrigin
! <Surface Heat Transfer Algorithm>, Value {CTF - ConductionTransferFunction | EMPD - MoisturePenetrationDepthConductionTransferFunction | CondFD - ConductionFiniteDifference | HAMT - CombinedHeatAndMoistureFiniteElement} - Description,Inside Surface Max Temperature Limit{C}, Surface Convection Coefficient Lower Limit {W/m2-K}, Surface Convection Coefficient Upper Limit {W/m2-K}
Surface Heat Transfer Algorithm, CTF - ConductionTransferFunction,200,0.10,1000.0
! <Shading Summary>, Number of Fixed Detached Shades, Number of Building Detached Shades, Number of Attached Shades
 Shading Summary,0,0,0
! <Zone Summary>, Number of Zones, Number of Zone Surfaces, Number of SubSurfaces
 Zone Summary,5,30,0
! <Zone Information>,Zone Name,North Axis {deg},Origin X-Coordinate {m},Origin Y-Coordinate {m},Origin Z-Coordinate {m},Centroid X-Coordinate {m},Centroid Y-Coordinate {m},Centroid Z-Coordinate {m},Type,Zone Multiplier,Zone List Multiplier,Minimum X {m},Maximum X {m},Minimum Y {m},Maximum Y {m},Minimum Z {m},Maximum Z {m},Ceiling Height {m},Volume {m3},Zone Inside Convection Algorithm {Simple-Detailed-CeilingDiffuser-TrombeWall},Zone Outside Convection Algorithm {Simple-Detailed-Tarp-MoWitt-DOE-2-BLAST}, Floor Area {m2},Exterior Gross Wall Area {m2},Exterior Net Wall Area {m2},Exterior Window Area {m2}, Number of Surfaces, Number of SubSurfaces, Number of Shading SubSurfaces,  Part of Total Building Area
 Zone Information, SP-LOCKER ROOM-SCH-J-SPACE FUNCTION SYS-3 FLR-1 SCH-J HPLCMT-CORE ZN,0.0,25.00,25.00,0.00,50.00,50.00,1.90,1,1,1,25.00,75.00,25.00,75.00,0.00,3.80,3.80,9500.00,TARP,TARP,2500.00,0.00,0.00,0.00,6,0,0,Yes
 Zone Information, SP-LOCKER ROOM-SCH-K-SPACE FUNCTION SYS-3 FLR-1 SCH-K HPLCMT-SOUTH ZN,0.0,0.00,0.00,0.00,50.00,10.85,1.90,1,1,1,0.00,100.00,0.00,25.00,0.00,3.80,3.80,7125.00,TARP,TARP,1875.00,0.00,0.00,0.00,6,0,0,Yes
 Zone Information, SP-LOUNGE/BREAK ROOM - HEALTH CARE FACILITY-SPACE FUNCTION SYS-3 FLR-1 SCH-B HPLCMT-EAST ZN,0.0,75.00,25.00,0.00,89.15,50.00,1.90,1,1,1,75.00,100.00,0.00,100.00,0.00,3.80,3.80,7125.00,TARP,TARP,1875.00,0.00,0.00,0.00,6,0,0,Yes
 Zone Information, SP-LOUNGE/BREAK ROOM - OTHER-SPACE FUNCTION SYS-3 FLR-1 SCH-B HPLCMT-NORTH ZN,0.0,25.00,75.00,0.00,50.00,89.15,1.90,1,1,1,0.00,100.00,75.00,100.00,0.00,3.80,3.80,7125.00,TARP,TARP,1875.00,0.00,0.00,0.00,6,0,0,Yes
 Zone Information, SP-OFFICE ENCLOSED <= 25 M2-SPACE FUNCTION SYS-3 FLR-1 SCH-A HPLCMT-WEST ZN,0.0,0.00,0.00,0.00,10.85,50.00,1.90,1,1,1,0.00,25.00,0.00,100.00,0.00,3.80,3.80,7125.00,TARP,TARP,1875.00,0.00,0.00,0.00,6,0,0,Yes
! <Zone Internal Gains Nominal>,Zone Name, Floor Area {m2},# Occupants,Area per Occupant {m2/person},Occupant per Area {person/m2},Interior Lighting {W/m2},Electric Load {W/m2},Gas Load {W/m2},Other Load {W/m2},Hot Water Eq {W/m2},Steam Equipment {W/m2},Sum Loads per Area {W/m2},Outdoor Controlled Baseboard Heat
 Zone Internal Gains Nominal, SP-LOCKER ROOM-SCH-J-SPACE FUNCTION SYS-3 FLR-1 SCH-J HPLCMT-CORE ZN,2500.00,250.1,9.996,0.100,8.103,2.501,0.000,0.000,0.000,0.000,10.604,No
 Zone Internal Gains Nominal, SP-LOCKER ROOM-SCH-K-SPACE FUNCTION SYS-3 FLR-1 SCH-K HPLCMT-SOUTH ZN,1875.00,187.6,9.996,0.100,8.103,2.501,0.000,0.000,0.000,0.000,10.604,No
 Zone Internal Gains Nominal, SP-LOUNGE/BREAK ROOM - HEALTH CARE FACILITY-SPACE FUNCTION SYS-3 FLR-1 SCH-B HPLCMT-EAST ZN,1875.00,187.6,9.996,0.100,10.004,1.000,0.000,0.000,0.000,0.000,11.004,No
 Zone Internal Gains Nominal, SP-LOUNGE/BREAK ROOM - OTHER-SPACE FUNCTION SYS-3 FLR-1 SCH-B HPLCMT-NORTH ZN,1875.00,187.6,9.996,0.100,7.903,1.000,0.000,0.000,0.000,0.000,8.903,No
 Zone Internal Gains Nominal, SP-OFFICE ENCLOSED <= 25 M2-SPACE FUNCTION SYS-3 FLR-1 SCH-A HPLCMT-WEST ZN,1875.00,93.8,19.993,5.002E-002,12.004,7.503,0.000,0.000,0.000,0.000,19.507,No
! <People Internal Gains Nominal>,Name,Schedule Name,Zone Name,Zone Floor Area {m2},# Zone Occupants,Number of People {},People/Floor Area {person/m2},Floor Area per person {m2/person},Fraction Radiant,Fraction Convected,Sensible Fraction Calculation,Activity level,ASHRAE 55 Warnings,Carbon Dioxide Generation Rate,Nominal Minimum Number of People,Nominal Maximum Number of People
 People Internal Gains Nominal, SP-LOCKER ROOM-SCH-J-SPACE FUNCTION SYS-3 FLR-1 SCH-J HPLCMT-CORE ZN SPACE FUNCTION LOCKER ROOM-SCH-J PEOPLE,NECB-J-OCCUPANCY,SP-LOCKER ROOM-SCH-J-SPACE FUNCTION SYS-3 FLR-1 SCH-J HPLCMT-CORE ZN,2500.00,250.1,250.1,0.100,9.996,0.300,0.700,AutoCalculate,NECB-ACTIVITY,No,3.8200E-008,150,225
 People Internal Gains Nominal, SP-LOCKER ROOM-SCH-K-SPACE FUNCTION SYS-3 FLR-1 SCH-K HPLCMT-SOUTH ZN SPACE FUNCTION LOCKER ROOM-SCH-K PEOPLE,NECB-K-OCCUPANCY,SP-LOCKER ROOM-SCH-K-SPACE FUNCTION SYS-3 FLR-1 SCH-K HPLCMT-SOUTH ZN,1875.00,187.6,187.6,0.100,9.996,0.300,0.700,AutoCalculate,NECB-ACTIVITY,No,3.8200E-008,0,169
 People Internal Gains Nominal, SP-LOUNGE/BREAK ROOM - HEALTH CARE FACILITY-SPACE FUNCTION SYS-3 FLR-1 SCH-B HPLCMT-EAST ZN SPACE FUNCTION LOUNGE/BREAK ROOM - HEALTH CARE FACILITY PEOPLE,NECB-B-OCCUPANCY,SP-LOUNGE/BREAK ROOM - HEALTH CARE FACILITY-SPACE FUNCTION SYS-3 FLR-1 SCH-B HPLCMT-EAST ZN,1875.00,187.6,187.6,0.100,9.996,0.300,0.700,AutoCalculate,NECB-ACTIVITY,No,3.8200E-008,0,169
 People Internal Gains Nominal, SP-LOUNGE/BREAK ROOM - OTHER-SPACE FUNCTION SYS-3 FLR-1 SCH-B HPLCMT-NORTH ZN SPACE FUNCTION LOUNGE/BREAK ROOM - OTHER PEOPLE,NECB-B-OCCUPANCY,SP-LOUNGE/BREAK ROOM - OTHER-SPACE FUNCTION SYS-3 FLR-1 SCH-B HPLCMT-NORTH ZN,1875.00,187.6,187.6,0.100,9.996,0.300,0.700,AutoCalculate,NECB-ACTIVITY,No,3.8200E-008,0,169
 People Internal Gains Nominal, SP-OFFICE ENCLOSED <= 25 M2-SPACE FUNCTION SYS-3 FLR-1 SCH-A HPLCMT-WEST ZN SPACE FUNCTION OFFICE ENCLOSED <= 25 M2 PEOPLE,NECB-A-OCCUPANCY,SP-OFFICE ENCLOSED <= 25 M2-SPACE FUNCTION SYS-3 FLR-1 SCH-A HPLCMT-WEST ZN,1875.00,93.8,93.8,5.002E-002,19.993,0.300,0.700,AutoCalculate,NECB-ACTIVITY,No,3.8200E-008,0,84
! <Lights Internal Gains Nominal>,Name,Schedule Name,Zone Name,Zone Floor Area {m2},# Zone Occupants,Lighting Level {W},Lights/Floor Area {W/m2},Lights per person {W/person},Fraction Return Air,Fraction Radiant,Fraction Short Wave,Fraction Convected,Fraction Replaceable,End-Use Category,Nominal Minimum Lighting Level {W},Nominal Maximum Lighting Level {W}
 Lights Internal Gains Nominal, SP-LOCKER ROOM-SCH-J-SPACE FUNCTION SYS-3 FLR-1 SCH-J HPLCMT-CORE ZN SPACE FUNCTION LOCKER ROOM-SCH-J LIGHTS,NECB-J-LIGHTING,SP-LOCKER ROOM-SCH-J-SPACE FUNCTION SYS-3 FLR-1 SCH-J HPLCMT-CORE ZN,2500.00,250.1,20257.359,8.103,81.000,0.000,0.500,0.200,0.300,1.000,General,2025.736,14180.152
 Lights Internal Gains Nominal, SP-LOCKER ROOM-SCH-K-SPACE FUNCTION SYS-3 FLR-1 SCH-K HPLCMT-SOUTH ZN SPACE FUNCTION LOCKER ROOM-SCH-K LIGHTS,NECB-K-LIGHTING,SP-LOCKER ROOM-SCH-K-SPACE FUNCTION SYS-3 FLR-1 SCH-K HPLCMT-SOUTH ZN,1875.00,187.6,15193.019,8.103,81.000,0.000,0.500,0.200,0.300,1.000,General,13673.718,13673.718
 Lights Internal Gains Nominal, SP-LOUNGE/BREAK ROOM - HEALTH CARE FACILITY-SPACE FUNCTION SYS-3 FLR-1 SCH-B HPLCMT-EAST ZN SPACE FUNCTION LOUNGE/BREAK ROOM - HEALTH CARE FACILITY LIGHTS,NECB-B-OCCUPANCY-NECB-B-LIGHTING-0.0-0.0-0.67-LIGHT RULESET,SP-LOUNGE/BREAK ROOM - HEALTH CARE FACILITY-SPACE FUNCTION SYS-3 FLR-1 SCH-B HPLCMT-EAST ZN,1875.00,187.6,18756.814,10.004,100.000,0.000,0.500,0.200,0.300,1.000,General,1875.681,16881.133
 Lights Internal Gains Nominal, SP-LOUNGE/BREAK ROOM - OTHER-SPACE FUNCTION SYS-3 FLR-1 SCH-B HPLCMT-NORTH ZN SPACE FUNCTION LOUNGE/BREAK ROOM - OTHER LIGHTS,NECB-B-LIGHTING,SP-LOUNGE/BREAK ROOM - OTHER-SPACE FUNCTION SYS-3 FLR-1 SCH-B HPLCMT-NORTH ZN,1875.00,187.6,14817.883,7.903,79.000,0.000,0.500,0.200,0.300,1.000,General,1481.788,13336.095
 Lights Internal Gains Nominal, SP-OFFICE ENCLOSED <= 25 M2-SPACE FUNCTION SYS-3 FLR-1 SCH-A HPLCMT-WEST ZN SPACE FUNCTION OFFICE ENCLOSED <= 25 M2 LIGHTS,NECB-A-OCCUPANCY-NECB-A-LIGHTING-0.3-0.1-0.67-LIGHT RULESET,SP-OFFICE ENCLOSED <= 25 M2-SPACE FUNCTION SYS-3 FLR-1 SCH-A HPLCMT-WEST ZN,1875.00,93.8,22508.177,12.004,240.000,0.000,0.500,0.200,0.300,1.000,General,786.661,20257.359
! <ElectricEquipment Internal Gains Nominal>,Name,Schedule Name,Zone Name,Zone Floor Area {m2},# Zone Occupants,Equipment Level {W},Equipment/Floor Area {W/m2},Equipment per person {W/person},Fraction Latent,Fraction Radiant,Fraction Lost,Fraction Convected,End-Use SubCategory,Nominal Minimum Equipment Level {W},Nominal Maximum Equipment Level {W}
 ElectricEquipment Internal Gains Nominal, SP-LOCKER ROOM-SCH-J-SPACE FUNCTION SYS-3 FLR-1 SCH-J HPLCMT-CORE ZN SPACE FUNCTION LOCKER ROOM-SCH-J ELEC EQUIP,NECB-J-ELECTRIC-EQUIPMENT,SP-LOCKER ROOM-SCH-J-SPACE FUNCTION SYS-3 FLR-1 SCH-J HPLCMT-CORE ZN,2500.00,250.1,6252.271,2.501,25.000,0.000,0.500,0.000,0.500,General,625.227,4376.590
 ElectricEquipment Internal Gains Nominal, SP-LOCKER ROOM-SCH-K-SPACE FUNCTION SYS-3 FLR-1 SCH-K HPLCMT-SOUTH ZN SPACE FUNCTION LOCKER ROOM-SCH-K ELEC EQUIP,NECB-K-ELECTRIC-EQUIPMENT,SP-LOCKER ROOM-SCH-K-SPACE FUNCTION SYS-3 FLR-1 SCH-K HPLCMT-SOUTH ZN,1875.00,187.6,4689.204,2.501,25.000,0.000,0.500,0.000,0.500,General,0.000,0.000
 ElectricEquipment Internal Gains Nominal, SP-LOUNGE/BREAK ROOM - HEALTH CARE FACILITY-SPACE FUNCTION SYS-3 FLR-1 SCH-B HPLCMT-EAST ZN SPACE FUNCTION LOUNGE/BREAK ROOM - HEALTH CARE FACILITY ELEC EQUIP,NECB-B-ELECTRIC-EQUIPMENT,SP-LOUNGE/BREAK ROOM - HEALTH CARE FACILITY-SPACE FUNCTION SYS-3 FLR-1 SCH-B HPLCMT-EAST ZN,1875.00,187.6,1875.681,1.000,10.000,0.000,0.500,0.000,0.500,General,187.568,1688.113
 ElectricEquipment Internal Gains Nominal, SP-LOUNGE/BREAK ROOM - OTHER-SPACE FUNCTION SYS-3 FLR-1 SCH-B HPLCMT-NORTH ZN SPACE FUNCTION LOUNGE/BREAK ROOM - OTHER ELEC EQUIP,NECB-B-ELECTRIC-EQUIPMENT,SP-LOUNGE/BREAK ROOM - OTHER-SPACE FUNCTION SYS-3 FLR-1 SCH-B HPLCMT-NORTH ZN,1875.00,187.6,1875.681,1.000,10.000,0.000,0.500,0.000,0.500,General,187.568,1688.113
 ElectricEquipment Internal Gains Nominal, SP-OFFICE ENCLOSED <= 25 M2-SPACE FUNCTION SYS-3 FLR-1 SCH-A HPLCMT-WEST ZN SPACE FUNCTION OFFICE ENCLOSED <= 25 M2 ELEC EQUIP,NECB-A-ELECTRIC-EQUIPMENT,SP-OFFICE ENCLOSED <= 25 M2-SPACE FUNCTION SYS-3 FLR-1 SCH-A HPLCMT-WEST ZN,1875.00,93.8,14067.611,7.503,150.000,0.000,0.500,0.000,0.500,General,2813.522,12660.850
! <Shadowing/Sun Position Calculations Annual Simulations>, Calculation Method, Value {days}, Allowable Number Figures in Shadow Overlap {}, Polygon Clipping Algorithm, Sky Diffuse Modeling Algorithm, External Shading Calculation Method, Output External Shading Calculation Results, Disable Self-Shading Within Shading Zone Groups, Disable Self-Shading From Shading Zone Groups to Other Zones
Shadowing/Sun Position Calculations Annual Simulations,AverageOverDaysInFrequency,20,15000,SutherlandHodgman,SimpleSkyDiffuseModeling,InternalCalculation,No,No,No
! <Water Heater Information>,Type,Name,Volume {m3},Maximum Capacity {W},Standard Rated Recovery Efficiency, Standard Rated Energy Factor
! <RoomAir Model>, Zone Name, Mixing/Mundt/UCSDDV/UCSDCV/UCSDUFI/UCSDUFE/User Defined
RoomAir Model,SP-LOCKER ROOM-SCH-J-SPACE FUNCTION SYS-3 FLR-1 SCH-J HPLCMT-CORE ZN,Mixing/Well-Stirred
RoomAir Model,SP-LOCKER ROOM-SCH-K-SPACE FUNCTION SYS-3 FLR-1 SCH-K HPLCMT-SOUTH ZN,Mixing/Well-Stirred
RoomAir Model,SP-LOUNGE/BREAK ROOM - HEALTH CARE FACILITY-SPACE FUNCTION SYS-3 FLR-1 SCH-B HPLCMT-EAST ZN,Mixing/Well-Stirred
RoomAir Model,SP-LOUNGE/BREAK ROOM - OTHER-SPACE FUNCTION SYS-3 FLR-1 SCH-B HPLCMT-NORTH ZN,Mixing/Well-Stirred
RoomAir Model,SP-OFFICE ENCLOSED <= 25 M2-SPACE FUNCTION SYS-3 FLR-1 SCH-A HPLCMT-WEST ZN,Mixing/Well-Stirred
! <AirflowNetwork Model:Control>, No Multizone or Distribution/Multizone with Distribution/Multizone without Distribution/Multizone with Distribution only during Fan Operation
AirflowNetwork Model:Control,NoMultizoneOrDistribution
! <Zone Volume Capacitance Multiplier>, Sensible Heat Capacity Multiplier, Moisture Capacity Multiplier, Carbon Dioxide Capacity Multiplier, Generic Contaminant Capacity Multiplier
Zone Volume Capacitance Multiplier,   1.000 ,   1.000,   1.000,   1.000
! <Load Timesteps in Zone Design Calculation Averaging Window>, Value
 Load Timesteps in Zone Design Calculation Averaging Window,    6
! <Heating Sizing Factor Information>, Sizing Factor ID, Value
 Heating Sizing Factor Information, Global,   1.3000    
 Heating Sizing Factor Information, Zone SP-LOCKER ROOM-SCH-J-SPACE FUNCTION SYS-3 FLR-1 SCH-J HPLCMT-CORE ZN,   1.3000    
 Heating Sizing Factor Information, Zone SP-LOCKER ROOM-SCH-K-SPACE FUNCTION SYS-3 FLR-1 SCH-K HPLCMT-SOUTH ZN,   1.3000    
 Heating Sizing Factor Information, Zone SP-LOUNGE/BREAK ROOM - HEALTH CARE FACILITY-SPACE FUNCTION SYS-3 FLR-1 SCH-B HPLCMT-EAST ZN,   1.3000    
 Heating Sizing Factor Information, Zone SP-LOUNGE/BREAK ROOM - OTHER-SPACE FUNCTION SYS-3 FLR-1 SCH-B HPLCMT-NORTH ZN,   1.3000    
 Heating Sizing Factor Information, Zone SP-OFFICE ENCLOSED <= 25 M2-SPACE FUNCTION SYS-3 FLR-1 SCH-A HPLCMT-WEST ZN,   1.3000    
! <Cooling Sizing Factor Information>, Sizing Factor ID, Value
 Cooling Sizing Factor Information, Global,   1.1000    
 Cooling Sizing Factor Information, Zone SP-LOCKER ROOM-SCH-J-SPACE FUNCTION SYS-3 FLR-1 SCH-J HPLCMT-CORE ZN,   1.1000    
 Cooling Sizing Factor Information, Zone SP-LOCKER ROOM-SCH-K-SPACE FUNCTION SYS-3 FLR-1 SCH-K HPLCMT-SOUTH ZN,   1.1000    
 Cooling Sizing Factor Information, Zone SP-LOUNGE/BREAK ROOM - HEALTH CARE FACILITY-SPACE FUNCTION SYS-3 FLR-1 SCH-B HPLCMT-EAST ZN,   1.1000    
 Cooling Sizing Factor Information, Zone SP-LOUNGE/BREAK ROOM - OTHER-SPACE FUNCTION SYS-3 FLR-1 SCH-B HPLCMT-NORTH ZN,   1.1000    
 Cooling Sizing Factor Information, Zone SP-OFFICE ENCLOSED <= 25 M2-SPACE FUNCTION SYS-3 FLR-1 SCH-A HPLCMT-WEST ZN,   1.1000    
! <Zone Sizing Information>, Zone Name, Load Type, Calc Des Load {W}, User Des Load {W}, Calc Des Air Flow Rate {m3/s}, User Des Air Flow Rate {m3/s}, Design Day Name, Date/Time of Peak, Temperature at Peak {C}, Humidity Ratio at Peak {kgWater/kgDryAir}, Floor Area {m2}, # Occupants, Calc Outdoor Air Flow Rate {m3/s}, Calc DOAS Heat Addition Rate {W}
 Zone Sizing Information, SP-LOCKER ROOM-SCH-J-SPACE FUNCTION SYS-3 FLR-1 SCH-J HPLCMT-CORE ZN, Cooling, 24882.39265, 27370.63191, 1.92335, 3.17500, FORT MCMURRAY AP ANN CLG .4% CONDNS DB=>MWB, 7/21 23:00:00, 19.60000, 8.76969E-003, 2500.00000, 250.09086, 3.17500, 0.00000
 Zone Sizing Information, SP-LOCKER ROOM-SCH-J-SPACE FUNCTION SYS-3 FLR-1 SCH-J HPLCMT-CORE ZN, Heating, 0.00000, 0.00000, 0.00000, 3.17500, FORT MCMURRAY AP ANN HTG 99.6% CONDNS DB, , -36.20000, 1.25811E-004, 2500.00000, 250.09086, 3.17500, 0.00000
 Zone Sizing Information, SP-LOCKER ROOM-SCH-K-SPACE FUNCTION SYS-3 FLR-1 SCH-K HPLCMT-SOUTH ZN, Cooling, 0.00000, 0.00000, 0.00000, 2.38125, FORT MCMURRAY AP ANN CLG .4% CONDNS DB=>MWB, , 28.90000, 8.76969E-003, 1875.00000, 187.56814, 2.38125, 0.00000
 Zone Sizing Information, SP-LOCKER ROOM-SCH-K-SPACE FUNCTION SYS-3 FLR-1 SCH-K HPLCMT-SOUTH ZN, Heating, 0.00000, 0.00000, 0.00000, 2.38125, FORT MCMURRAY AP ANN HTG 99.6% CONDNS DB, , -36.20000, 1.25811E-004, 1875.00000, 187.56814, 2.38125, 0.00000
 Zone Sizing Information, SP-LOUNGE/BREAK ROOM - HEALTH CARE FACILITY-SPACE FUNCTION SYS-3 FLR-1 SCH-B HPLCMT-EAST ZN, Cooling, 24387.99967, 26826.79964, 1.88511, 2.38125, FORT MCMURRAY AP ANN CLG .4% CONDNS DB=>MWB, 7/21 20:20:00, 22.32800, 8.76969E-003, 1875.00000, 187.56814, 2.38125, 0.00000
 Zone Sizing Information, SP-LOUNGE/BREAK ROOM - HEALTH CARE FACILITY-SPACE FUNCTION SYS-3 FLR-1 SCH-B HPLCMT-EAST ZN, Heating, 0.00000, 0.00000, 0.00000, 2.38125, FORT MCMURRAY AP ANN HTG 99.6% CONDNS DB, , -36.20000, 1.25811E-004, 1875.00000, 187.56814, 2.38125, 0.00000
 Zone Sizing Information, SP-LOUNGE/BREAK ROOM - OTHER-SPACE FUNCTION SYS-3 FLR-1 SCH-B HPLCMT-NORTH ZN, Cooling, 20672.19993, 22739.41992, 1.59786, 1.76213, FORT MCMURRAY AP ANN CLG .4% CONDNS DB=>MWB, 7/21 13:00:00, 28.28000, 8.76969E-003, 1875.00000, 187.56814, 1.76213, 0.00000
 Zone Sizing Information, SP-LOUNGE/BREAK ROOM - OTHER-SPACE FUNCTION SYS-3 FLR-1 SCH-B HPLCMT-NORTH ZN, Heating, 1320.15872, 1716.20634, 5.25022E-002, 1.76213, FORT MCMURRAY AP ANN HTG 99.6% CONDNS DB, 1/21 09:10:00, -36.20000, 1.25811E-004, 1875.00000, 187.56814, 1.76213, 0.00000
 Zone Sizing Information, SP-OFFICE ENCLOSED <= 25 M2-SPACE FUNCTION SYS-3 FLR-1 SCH-A HPLCMT-WEST ZN, Cooling, 30903.47529, 33993.82282, 2.38856, 2.62742, FORT MCMURRAY AP ANN CLG .4% CONDNS DB=>MWB, 7/21 17:00:00, 27.16400, 8.76969E-003, 1875.00000, 93.78407, 0.79058, 0.00000
 Zone Sizing Information, SP-OFFICE ENCLOSED <= 25 M2-SPACE FUNCTION SYS-3 FLR-1 SCH-A HPLCMT-WEST ZN, Heating, 0.00000, 0.00000, 0.00000, 0.79058, FORT MCMURRAY AP ANN HTG 99.6% CONDNS DB, , -36.20000, 1.25811E-004, 1875.00000, 93.78407, 0.79058, 0.00000
! <System Sizing Information>, System Name, Load Type, Peak Load Kind, User Design Capacity, Calc Des Air Flow Rate [m3/s], User Des Air Flow Rate [m3/s], Design Day Name, Date/Time of Peak
 System Sizing Information, SYS_3_PSZ SP-LOCKER ROOM-SCH-J-SPACE FUNCTION SYS-3 FLR-1 SCH-J HPLCMT-CORE ZN, Cooling, Sensible, 24268.66, 3.17500, 3.17500, FORT MCMURRAY AP ANN CLG .4% CONDNS DB=>MWB, 7/21 05:00:00
 System Sizing Information, SYS_3_PSZ SP-LOCKER ROOM-SCH-J-SPACE FUNCTION SYS-3 FLR-1 SCH-J HPLCMT-CORE ZN, Heating, Sensible, 291223.91, 3.17500, 3.17500, FORT MCMURRAY AP ANN HTG 99.6% CONDNS DB, 1/21 00:10:00
 System Sizing Information, SYS_3_PSZ SP-LOCKER ROOM-SCH-K-SPACE FUNCTION SYS-3 FLR-1 SCH-K HPLCMT-SOUTH ZN, Cooling, Sensible, 43849.05, 2.38125, 2.38125, FORT MCMURRAY AP ANN CLG .4% CONDNS DB=>MWB, 7/21 05:00:00
 System Sizing Information, SYS_3_PSZ SP-LOCKER ROOM-SCH-K-SPACE FUNCTION SYS-3 FLR-1 SCH-K HPLCMT-SOUTH ZN, Heating, Sensible, 218417.93, 2.38125, 2.38125, FORT MCMURRAY AP ANN HTG 99.6% CONDNS DB, 1/21 00:10:00
 System Sizing Information, SYS_3_PSZ SP-LOUNGE/BREAK ROOM - HEALTH CARE FACILITY-SPACE FUNCTION SYS-3 FLR-1 SCH-B HPLCMT-EAST ZN, Cooling, Sensible, 25724.78, 2.38125, 2.38125, FORT MCMURRAY AP ANN CLG .4% CONDNS DB=>MWB, 7/21 05:00:00
 System Sizing Information, SYS_3_PSZ SP-LOUNGE/BREAK ROOM - HEALTH CARE FACILITY-SPACE FUNCTION SYS-3 FLR-1 SCH-B HPLCMT-EAST ZN, Heating, Sensible, 218417.93, 2.38125, 2.38125, FORT MCMURRAY AP ANN HTG 99.6% CONDNS DB, 1/21 00:10:00
 System Sizing Information, SYS_3_PSZ SP-LOUNGE/BREAK ROOM - OTHER-SPACE FUNCTION SYS-3 FLR-1 SCH-B HPLCMT-NORTH ZN, Cooling, Sensible, 31183.02, 1.76213, 1.76213, FORT MCMURRAY AP ANN CLG .4% CONDNS DB=>MWB, 7/21 05:00:00
 System Sizing Information, SYS_3_PSZ SP-LOUNGE/BREAK ROOM - OTHER-SPACE FUNCTION SYS-3 FLR-1 SCH-B HPLCMT-NORTH ZN, Heating, Sensible, 161629.27, 1.76213, 1.76213, FORT MCMURRAY AP ANN HTG 99.6% CONDNS DB, 1/21 00:10:00
 System Sizing Information, SYS_3_PSZ SP-OFFICE ENCLOSED <= 25 M2-SPACE FUNCTION SYS-3 FLR-1 SCH-A HPLCMT-WEST ZN, Cooling, Sensible, 36366.22, 2.62742, 2.62742, FORT MCMURRAY AP ANN CLG .4% CONDNS DB=>MWB, 7/21 05:00:00
 System Sizing Information, SYS_3_PSZ SP-OFFICE ENCLOSED <= 25 M2-SPACE FUNCTION SYS-3 FLR-1 SCH-A HPLCMT-WEST ZN, Heating, Sensible, 72514.75, 0.79058, 0.79058, FORT MCMURRAY AP ANN HTG 99.6% CONDNS DB, 1/21 00:10:00
! <Component Sizing Information>, Component Type, Component Name, Input Field Description, Value
 Component Sizing Information, AirTerminal:SingleDuct:Uncontrolled, AIR TERMINAL SINGLE DUCT UNCONTROLLED 1, Design Size Maximum Air Flow Rate [m3/s], 3.17500
 Component Sizing Information, ZoneHVAC:Baseboard:Convective:Water, ZONE HVAC BASEBOARD CONVECTIVE WATER 1, Design Size Maximum Water Flow Rate [m3/s], 0.00000
 Component Sizing Information, ZoneHVAC:Baseboard:Convective:Water, ZONE HVAC BASEBOARD CONVECTIVE WATER 1, Design Size U-Factor Times Area Value [W/K], 0.00000
 Component Sizing Information, AirTerminal:SingleDuct:Uncontrolled, AIR TERMINAL SINGLE DUCT UNCONTROLLED 2, Design Size Maximum Air Flow Rate [m3/s], 2.38125
 Component Sizing Information, ZoneHVAC:Baseboard:Convective:Water, ZONE HVAC BASEBOARD CONVECTIVE WATER 2, Design Size Maximum Water Flow Rate [m3/s], 0.00000
 Component Sizing Information, ZoneHVAC:Baseboard:Convective:Water, ZONE HVAC BASEBOARD CONVECTIVE WATER 2, Design Size U-Factor Times Area Value [W/K], 0.00000
 Component Sizing Information, AirTerminal:SingleDuct:Uncontrolled, AIR TERMINAL SINGLE DUCT UNCONTROLLED 4, Design Size Maximum Air Flow Rate [m3/s], 2.38125
 Component Sizing Information, ZoneHVAC:Baseboard:Convective:Water, ZONE HVAC BASEBOARD CONVECTIVE WATER 4, Design Size Maximum Water Flow Rate [m3/s], 0.00000
 Component Sizing Information, ZoneHVAC:Baseboard:Convective:Water, ZONE HVAC BASEBOARD CONVECTIVE WATER 4, Design Size U-Factor Times Area Value [W/K], 0.00000
 Component Sizing Information, AirTerminal:SingleDuct:Uncontrolled, AIR TERMINAL SINGLE DUCT UNCONTROLLED 3, Design Size Maximum Air Flow Rate [m3/s], 1.76213
 Component Sizing Information, ZoneHVAC:Baseboard:Convective:Water, ZONE HVAC BASEBOARD CONVECTIVE WATER 3, Design Size Maximum Water Flow Rate [m3/s], 2.56329E-005
 Component Sizing Information, ZoneHVAC:Baseboard:Convective:Water, ZONE HVAC BASEBOARD CONVECTIVE WATER 3, Design Size U-Factor Times Area Value [W/K], 39.03821
 Component Sizing Information, AirTerminal:SingleDuct:Uncontrolled, AIR TERMINAL SINGLE DUCT UNCONTROLLED 5, Design Size Maximum Air Flow Rate [m3/s], 2.62742
 Component Sizing Information, ZoneHVAC:Baseboard:Convective:Water, ZONE HVAC BASEBOARD CONVECTIVE WATER 5, Design Size Maximum Water Flow Rate [m3/s], 0.00000
 Component Sizing Information, ZoneHVAC:Baseboard:Convective:Water, ZONE HVAC BASEBOARD CONVECTIVE WATER 5, Design Size U-Factor Times Area Value [W/K], 0.00000
 Component Sizing Information, AirLoopHVAC, SYS_3_PSZ SP-LOCKER ROOM-SCH-J-SPACE FUNCTION SYS-3 FLR-1 SCH-J HPLCMT-CORE ZN, Sum of Air Terminal Maximum Heating Flow Rates [m3/s], 3.17500
 Component Sizing Information, AirLoopHVAC, SYS_3_PSZ SP-LOCKER ROOM-SCH-J-SPACE FUNCTION SYS-3 FLR-1 SCH-J HPLCMT-CORE ZN, Sum of Air Terminal Minimum Heating Flow Rates [m3/s], 3.17500
 Component Sizing Information, AirLoopHVAC, SYS_3_PSZ SP-LOCKER ROOM-SCH-J-SPACE FUNCTION SYS-3 FLR-1 SCH-J HPLCMT-CORE ZN, Sum of Air Terminal Maximum Flow Rates [m3/s], 3.17500
 Component Sizing Information, AirLoopHVAC, SYS_3_PSZ SP-LOCKER ROOM-SCH-J-SPACE FUNCTION SYS-3 FLR-1 SCH-J HPLCMT-CORE ZN, Adjusted Heating Design Air Flow Rate [m3/s], 3.17500
 Component Sizing Information, AirLoopHVAC, SYS_3_PSZ SP-LOCKER ROOM-SCH-J-SPACE FUNCTION SYS-3 FLR-1 SCH-J HPLCMT-CORE ZN, Adjusted Cooling Design Air Flow Rate [m3/s], 3.17500
 Component Sizing Information, AirLoopHVAC, SYS_3_PSZ SP-LOCKER ROOM-SCH-J-SPACE FUNCTION SYS-3 FLR-1 SCH-J HPLCMT-CORE ZN, Adjusted Main Design Air Flow Rate [m3/s], 3.17500
 Component Sizing Information, AirLoopHVAC, SYS_3_PSZ SP-LOCKER ROOM-SCH-J-SPACE FUNCTION SYS-3 FLR-1 SCH-J HPLCMT-CORE ZN, User Heating Air Flow Ratio [], 1.00000
 Component Sizing Information, AirLoopHVAC, SYS_3_PSZ SP-LOCKER ROOM-SCH-J-SPACE FUNCTION SYS-3 FLR-1 SCH-J HPLCMT-CORE ZN, Calculated Heating Air Flow Ratio [], 1.00000
 Component Sizing Information, AirLoopHVAC, SYS_3_PSZ SP-LOCKER ROOM-SCH-K-SPACE FUNCTION SYS-3 FLR-1 SCH-K HPLCMT-SOUTH ZN, Sum of Air Terminal Maximum Heating Flow Rates [m3/s], 2.38125
 Component Sizing Information, AirLoopHVAC, SYS_3_PSZ SP-LOCKER ROOM-SCH-K-SPACE FUNCTION SYS-3 FLR-1 SCH-K HPLCMT-SOUTH ZN, Sum of Air Terminal Minimum Heating Flow Rates [m3/s], 2.38125
 Component Sizing Information, AirLoopHVAC, SYS_3_PSZ SP-LOCKER ROOM-SCH-K-SPACE FUNCTION SYS-3 FLR-1 SCH-K HPLCMT-SOUTH ZN, Sum of Air Terminal Maximum Flow Rates [m3/s], 2.38125
 Component Sizing Information, AirLoopHVAC, SYS_3_PSZ SP-LOCKER ROOM-SCH-K-SPACE FUNCTION SYS-3 FLR-1 SCH-K HPLCMT-SOUTH ZN, Adjusted Heating Design Air Flow Rate [m3/s], 2.38125
 Component Sizing Information, AirLoopHVAC, SYS_3_PSZ SP-LOCKER ROOM-SCH-K-SPACE FUNCTION SYS-3 FLR-1 SCH-K HPLCMT-SOUTH ZN, Adjusted Cooling Design Air Flow Rate [m3/s], 2.38125
 Component Sizing Information, AirLoopHVAC, SYS_3_PSZ SP-LOCKER ROOM-SCH-K-SPACE FUNCTION SYS-3 FLR-1 SCH-K HPLCMT-SOUTH ZN, Adjusted Main Design Air Flow Rate [m3/s], 2.38125
 Component Sizing Information, AirLoopHVAC, SYS_3_PSZ SP-LOCKER ROOM-SCH-K-SPACE FUNCTION SYS-3 FLR-1 SCH-K HPLCMT-SOUTH ZN, User Heating Air Flow Ratio [], 1.00000
 Component Sizing Information, AirLoopHVAC, SYS_3_PSZ SP-LOCKER ROOM-SCH-K-SPACE FUNCTION SYS-3 FLR-1 SCH-K HPLCMT-SOUTH ZN, Calculated Heating Air Flow Ratio [], 1.00000
 Component Sizing Information, AirLoopHVAC, SYS_3_PSZ SP-LOUNGE/BREAK ROOM - HEALTH CARE FACILITY-SPACE FUNCTION SYS-3 FLR-1 SCH-B HPLCMT-EAST ZN, Sum of Air Terminal Maximum Heating Flow Rates [m3/s], 2.38125
 Component Sizing Information, AirLoopHVAC, SYS_3_PSZ SP-LOUNGE/BREAK ROOM - HEALTH CARE FACILITY-SPACE FUNCTION SYS-3 FLR-1 SCH-B HPLCMT-EAST ZN, Sum of Air Terminal Minimum Heating Flow Rates [m3/s], 2.38125
 Component Sizing Information, AirLoopHVAC, SYS_3_PSZ SP-LOUNGE/BREAK ROOM - HEALTH CARE FACILITY-SPACE FUNCTION SYS-3 FLR-1 SCH-B HPLCMT-EAST ZN, Sum of Air Terminal Maximum Flow Rates [m3/s], 2.38125
 Component Sizing Information, AirLoopHVAC, SYS_3_PSZ SP-LOUNGE/BREAK ROOM - HEALTH CARE FACILITY-SPACE FUNCTION SYS-3 FLR-1 SCH-B HPLCMT-EAST ZN, Adjusted Heating Design Air Flow Rate [m3/s], 2.38125
 Component Sizing Information, AirLoopHVAC, SYS_3_PSZ SP-LOUNGE/BREAK ROOM - HEALTH CARE FACILITY-SPACE FUNCTION SYS-3 FLR-1 SCH-B HPLCMT-EAST ZN, Adjusted Cooling Design Air Flow Rate [m3/s], 2.38125
 Component Sizing Information, AirLoopHVAC, SYS_3_PSZ SP-LOUNGE/BREAK ROOM - HEALTH CARE FACILITY-SPACE FUNCTION SYS-3 FLR-1 SCH-B HPLCMT-EAST ZN, Adjusted Main Design Air Flow Rate [m3/s], 2.38125
 Component Sizing Information, AirLoopHVAC, SYS_3_PSZ SP-LOUNGE/BREAK ROOM - HEALTH CARE FACILITY-SPACE FUNCTION SYS-3 FLR-1 SCH-B HPLCMT-EAST ZN, User Heating Air Flow Ratio [], 1.00000
 Component Sizing Information, AirLoopHVAC, SYS_3_PSZ SP-LOUNGE/BREAK ROOM - HEALTH CARE FACILITY-SPACE FUNCTION SYS-3 FLR-1 SCH-B HPLCMT-EAST ZN, Calculated Heating Air Flow Ratio [], 1.00000
 Component Sizing Information, AirLoopHVAC, SYS_3_PSZ SP-LOUNGE/BREAK ROOM - OTHER-SPACE FUNCTION SYS-3 FLR-1 SCH-B HPLCMT-NORTH ZN, Sum of Air Terminal Maximum Heating Flow Rates [m3/s], 1.76213
 Component Sizing Information, AirLoopHVAC, SYS_3_PSZ SP-LOUNGE/BREAK ROOM - OTHER-SPACE FUNCTION SYS-3 FLR-1 SCH-B HPLCMT-NORTH ZN, Sum of Air Terminal Minimum Heating Flow Rates [m3/s], 1.76213
 Component Sizing Information, AirLoopHVAC, SYS_3_PSZ SP-LOUNGE/BREAK ROOM - OTHER-SPACE FUNCTION SYS-3 FLR-1 SCH-B HPLCMT-NORTH ZN, Sum of Air Terminal Maximum Flow Rates [m3/s], 1.76213
 Component Sizing Information, AirLoopHVAC, SYS_3_PSZ SP-LOUNGE/BREAK ROOM - OTHER-SPACE FUNCTION SYS-3 FLR-1 SCH-B HPLCMT-NORTH ZN, Adjusted Heating Design Air Flow Rate [m3/s], 1.76213
 Component Sizing Information, AirLoopHVAC, SYS_3_PSZ SP-LOUNGE/BREAK ROOM - OTHER-SPACE FUNCTION SYS-3 FLR-1 SCH-B HPLCMT-NORTH ZN, Adjusted Cooling Design Air Flow Rate [m3/s], 1.76213
 Component Sizing Information, AirLoopHVAC, SYS_3_PSZ SP-LOUNGE/BREAK ROOM - OTHER-SPACE FUNCTION SYS-3 FLR-1 SCH-B HPLCMT-NORTH ZN, Adjusted Main Design Air Flow Rate [m3/s], 1.76213
 Component Sizing Information, AirLoopHVAC, SYS_3_PSZ SP-LOUNGE/BREAK ROOM - OTHER-SPACE FUNCTION SYS-3 FLR-1 SCH-B HPLCMT-NORTH ZN, User Heating Air Flow Ratio [], 1.00000
 Component Sizing Information, AirLoopHVAC, SYS_3_PSZ SP-LOUNGE/BREAK ROOM - OTHER-SPACE FUNCTION SYS-3 FLR-1 SCH-B HPLCMT-NORTH ZN, Calculated Heating Air Flow Ratio [], 1.00000
 Component Sizing Information, AirLoopHVAC, SYS_3_PSZ SP-OFFICE ENCLOSED <= 25 M2-SPACE FUNCTION SYS-3 FLR-1 SCH-A HPLCMT-WEST ZN, Sum of Air Terminal Maximum Heating Flow Rates [m3/s], 2.62742
 Component Sizing Information, AirLoopHVAC, SYS_3_PSZ SP-OFFICE ENCLOSED <= 25 M2-SPACE FUNCTION SYS-3 FLR-1 SCH-A HPLCMT-WEST ZN, Sum of Air Terminal Minimum Heating Flow Rates [m3/s], 2.62742
 Component Sizing Information, AirLoopHVAC, SYS_3_PSZ SP-OFFICE ENCLOSED <= 25 M2-SPACE FUNCTION SYS-3 FLR-1 SCH-A HPLCMT-WEST ZN, Sum of Air Terminal Maximum Flow Rates [m3/s], 2.62742
 Component Sizing Information, AirLoopHVAC, SYS_3_PSZ SP-OFFICE ENCLOSED <= 25 M2-SPACE FUNCTION SYS-3 FLR-1 SCH-A HPLCMT-WEST ZN, Adjusted Heating Design Air Flow Rate [m3/s], 2.62742
 Component Sizing Information, AirLoopHVAC, SYS_3_PSZ SP-OFFICE ENCLOSED <= 25 M2-SPACE FUNCTION SYS-3 FLR-1 SCH-A HPLCMT-WEST ZN, Adjusted Cooling Design Air Flow Rate [m3/s], 2.62742
 Component Sizing Information, AirLoopHVAC, SYS_3_PSZ SP-OFFICE ENCLOSED <= 25 M2-SPACE FUNCTION SYS-3 FLR-1 SCH-A HPLCMT-WEST ZN, Adjusted Main Design Air Flow Rate [m3/s], 2.62742
 Component Sizing Information, AirLoopHVAC, SYS_3_PSZ SP-OFFICE ENCLOSED <= 25 M2-SPACE FUNCTION SYS-3 FLR-1 SCH-A HPLCMT-WEST ZN, User Heating Air Flow Ratio [], 1.00000
 Component Sizing Information, AirLoopHVAC, SYS_3_PSZ SP-OFFICE ENCLOSED <= 25 M2-SPACE FUNCTION SYS-3 FLR-1 SCH-A HPLCMT-WEST ZN, Calculated Heating Air Flow Ratio [], 1.00000
 Component Sizing Information, AirLoopHVAC, SYS_3_PSZ SP-LOCKER ROOM-SCH-J-SPACE FUNCTION SYS-3 FLR-1 SCH-J HPLCMT-CORE ZN, Design Supply Air Flow Rate [m3/s], 3.17500
 Component Sizing Information, AirLoopHVAC, SYS_3_PSZ SP-LOCKER ROOM-SCH-K-SPACE FUNCTION SYS-3 FLR-1 SCH-K HPLCMT-SOUTH ZN, Design Supply Air Flow Rate [m3/s], 2.38125
 Component Sizing Information, AirLoopHVAC, SYS_3_PSZ SP-LOUNGE/BREAK ROOM - HEALTH CARE FACILITY-SPACE FUNCTION SYS-3 FLR-1 SCH-B HPLCMT-EAST ZN, Design Supply Air Flow Rate [m3/s], 2.38125
 Component Sizing Information, AirLoopHVAC, SYS_3_PSZ SP-LOUNGE/BREAK ROOM - OTHER-SPACE FUNCTION SYS-3 FLR-1 SCH-B HPLCMT-NORTH ZN, Design Supply Air Flow Rate [m3/s], 1.76213
 Component Sizing Information, AirLoopHVAC, SYS_3_PSZ SP-OFFICE ENCLOSED <= 25 M2-SPACE FUNCTION SYS-3 FLR-1 SCH-A HPLCMT-WEST ZN, Design Supply Air Flow Rate [m3/s], 2.62742
!<Controller:MechanicalVentilation>,Name,Availability Schedule Name,Demand Controlled Ventilation {Yes/No},System Outdoor Air Method,Zone Maximum Outdoor Air Fraction,Number of Zones,Zone Name,DSOA Name,DSZAD Name
 Controller:MechanicalVentilation,CONTROLLER MECHANICAL VENTILATION 1,SYS_3_PSZ SP-LOCKER ROOM-SCH-J-SPACE FUNCTION SYS-3 FLR-1 SCH-J HPLCMT-CORE ZN OCC SCH,No,ZoneSum,1.00,1,SP-LOCKER ROOM-SCH-J-SPACE FUNCTION SYS-3 FLR-1 SCH-J HPLCMT-CORE ZN,SPACE FUNCTION LOCKER ROOM-SCH-J VENTILATION,SP-LOCKER ROOM-SCH-J-SPACE FUNCTION SYS-3 FLR-1 SCH-J HPLCMT-CORE ZN DESIGN SPEC ZONE AIR DIST
 Controller:MechanicalVentilation,CONTROLLER MECHANICAL VENTILATION 2,SYS_3_PSZ SP-LOCKER ROOM-SCH-K-SPACE FUNCTION SYS-3 FLR-1 SCH-K HPLCMT-SOUTH ZN OCC SCH,No,ZoneSum,1.00,1,SP-LOCKER ROOM-SCH-K-SPACE FUNCTION SYS-3 FLR-1 SCH-K HPLCMT-SOUTH ZN,SPACE FUNCTION LOCKER ROOM-SCH-K VENTILATION,SP-LOCKER ROOM-SCH-K-SPACE FUNCTION SYS-3 FLR-1 SCH-K HPLCMT-SOUTH ZN DESIGN SPEC ZONE AIR DIST
 Controller:MechanicalVentilation,CONTROLLER MECHANICAL VENTILATION 4,SYS_3_PSZ SP-LOUNGE/BREAK ROOM - HEALTH CARE FACILITY-SPACE FUNCTION SYS-3 FLR-1 SCH-B HPLCMT-EAST ZN OCC SCH,No,ZoneSum,1.00,1,SP-LOUNGE/BREAK ROOM - HEALTH CARE FACILITY-SPACE FUNCTION SYS-3 FLR-1 SCH-B HPLCMT-EAST ZN,SPACE FUNCTION LOUNGE/BREAK ROOM - HEALTH CARE FACILITY VENTILATION,SP-LOUNGE/BREAK ROOM - HEALTH CARE FACILITY-SPACE FUNCTION SYS-3 FLR-1 SCH-B HPLCMT-EAST ZN DESIGN SPEC ZONE AIR DIST
 Controller:MechanicalVentilation,CONTROLLER MECHANICAL VENTILATION 3,SYS_3_PSZ SP-LOUNGE/BREAK ROOM - OTHER-SPACE FUNCTION SYS-3 FLR-1 SCH-B HPLCMT-NORTH ZN OCC SCH,No,ZoneSum,1.00,1,SP-LOUNGE/BREAK ROOM - OTHER-SPACE FUNCTION SYS-3 FLR-1 SCH-B HPLCMT-NORTH ZN,SPACE FUNCTION LOUNGE/BREAK ROOM - OTHER VENTILATION,SP-LOUNGE/BREAK ROOM - OTHER-SPACE FUNCTION SYS-3 FLR-1 SCH-B HPLCMT-NORTH ZN DESIGN SPEC ZONE AIR DIST
 Controller:MechanicalVentilation,CONTROLLER MECHANICAL VENTILATION 5,SYS_3_PSZ SP-OFFICE ENCLOSED <= 25 M2-SPACE FUNCTION SYS-3 FLR-1 SCH-A HPLCMT-WEST ZN OCC SCH,No,ZoneSum,1.00,1,SP-OFFICE ENCLOSED <= 25 M2-SPACE FUNCTION SYS-3 FLR-1 SCH-A HPLCMT-WEST ZN,SPACE FUNCTION OFFICE ENCLOSED <= 25 M2 VENTILATION,SP-OFFICE ENCLOSED <= 25 M2-SPACE FUNCTION SYS-3 FLR-1 SCH-A HPLCMT-WEST ZN DESIGN SPEC ZONE AIR DIST
 Component Sizing Information, Controller:OutdoorAir, CONTROLLER OUTDOOR AIR 1, Maximum Outdoor Air Flow Rate [m3/s], 3.17500
 Component Sizing Information, Controller:OutdoorAir, CONTROLLER OUTDOOR AIR 1, Minimum Outdoor Air Flow Rate [m3/s], 3.17500
 Component Sizing Information, HeatExchanger:AirToAir:SensibleAndLatent, SYS_3_PSZ SP-LOCKER ROOM-SCH-J-SPACE FUNCTION SYS-3 FLR-1 SCH-J HPLCMT-CORE ZN ERV, Design Size Nominal Supply Air Flow Rate [m3/s], 3.17500
 Component Sizing Information, Coil:Cooling:DX:SingleSpeed, COIL COOLING DX SINGLE SPEED 1 179KBTU/HR 9.08EER, Design Size Rated Air Flow Rate [m3/s], 3.17500
 Component Sizing Information, Coil:Cooling:DX:SingleSpeed, COIL COOLING DX SINGLE SPEED 1 179KBTU/HR 9.08EER, Design Size Gross Rated Total Cooling Capacity [W], 52557.52359
 Component Sizing Information, Coil:Cooling:DX:SingleSpeed, COIL COOLING DX SINGLE SPEED 1 179KBTU/HR 9.08EER, Design Size Gross Rated Sensible Heat Ratio, 0.80066
! <DX Cooling Coil Standard Rating Information>, Component Type, Component Name, Standard Rating (Net) Cooling Capacity {W}, Standard Rated Net COP {W/W}, EER {Btu/W-h}, SEER {Btu/W-h}, IEER {Btu/W-h}
 DX Cooling Coil Standard Rating Information, Coil:Cooling:DX:SingleSpeed, COIL COOLING DX SINGLE SPEED 1 179KBTU/HR 9.08EER, 50089.5, 2.65, 9.05, 9.55, 9.07
 Component Sizing Information, Coil:Heating:Fuel, COIL HEATING GAS 1, Design Size Nominal Capacity [W], 291223.91094
 Component Sizing Information, Fan:ConstantVolume, FAN CONSTANT VOLUME 1, Design Size Maximum Flow Rate [m3/s], 3.17500
 Component Sizing Information, Controller:OutdoorAir, CONTROLLER OUTDOOR AIR 2, Maximum Outdoor Air Flow Rate [m3/s], 2.38125
 Component Sizing Information, Controller:OutdoorAir, CONTROLLER OUTDOOR AIR 2, Minimum Outdoor Air Flow Rate [m3/s], 2.38125
 Component Sizing Information, Coil:Cooling:DX:SingleSpeed, COIL COOLING DX SINGLE SPEED 2 153KBTU/HR 9.08EER, Design Size Rated Air Flow Rate [m3/s], 2.38125
 Component Sizing Information, Coil:Cooling:DX:SingleSpeed, COIL COOLING DX SINGLE SPEED 2 153KBTU/HR 9.08EER, Design Size Gross Rated Total Cooling Capacity [W], 47882.82168
 Component Sizing Information, Coil:Cooling:DX:SingleSpeed, COIL COOLING DX SINGLE SPEED 2 153KBTU/HR 9.08EER, Design Size Gross Rated Sensible Heat Ratio, 0.77066
 DX Cooling Coil Standard Rating Information, Coil:Cooling:DX:SingleSpeed, COIL COOLING DX SINGLE SPEED 2 153KBTU/HR 9.08EER, 46029.8, 2.72, 9.29, 9.82, 9.47
 Component Sizing Information, Coil:Heating:Fuel, COIL HEATING GAS 2, Design Size Nominal Capacity [W], 218417.93320
 Component Sizing Information, Fan:ConstantVolume, FAN CONSTANT VOLUME 2, Design Size Maximum Flow Rate [m3/s], 2.38125
 Component Sizing Information, Controller:OutdoorAir, CONTROLLER OUTDOOR AIR 4, Maximum Outdoor Air Flow Rate [m3/s], 2.38125
 Component Sizing Information, Controller:OutdoorAir, CONTROLLER OUTDOOR AIR 4, Minimum Outdoor Air Flow Rate [m3/s], 2.38125
 Component Sizing Information, HeatExchanger:AirToAir:SensibleAndLatent, SYS_3_PSZ SP-LOUNGE/BREAK ROOM - HEALTH CARE FACILITY-SPACE FUNCTION SYS-3 FLR-1 SCH-B HPLCMT-EAST ZN ERV, Design Size Nominal Supply Air Flow Rate [m3/s], 2.38125
 Component Sizing Information, Coil:Cooling:DX:SingleSpeed, COIL COOLING DX SINGLE SPEED 4 135KBTU/HR 9.26EER, Design Size Rated Air Flow Rate [m3/s], 2.38125
 Component Sizing Information, Coil:Cooling:DX:SingleSpeed, COIL COOLING DX SINGLE SPEED 4 135KBTU/HR 9.26EER, Design Size Gross Rated Total Cooling Capacity [W], 39418.14269
 Component Sizing Information, Coil:Cooling:DX:SingleSpeed, COIL COOLING DX SINGLE SPEED 4 135KBTU/HR 9.26EER, Design Size Gross Rated Sensible Heat Ratio, 0.80066
 DX Cooling Coil Standard Rating Information, Coil:Cooling:DX:SingleSpeed, COIL COOLING DX SINGLE SPEED 4 135KBTU/HR 9.26EER, 37567.2, 2.67, 9.12, 9.63, 9.13
 Component Sizing Information, Coil:Heating:Fuel, COIL HEATING GAS 4, Design Size Nominal Capacity [W], 218417.93320
 Component Sizing Information, Fan:ConstantVolume, FAN CONSTANT VOLUME 4, Design Size Maximum Flow Rate [m3/s], 2.38125
 Component Sizing Information, Controller:OutdoorAir, CONTROLLER OUTDOOR AIR 3, Maximum Outdoor Air Flow Rate [m3/s], 1.76213
 Component Sizing Information, Controller:OutdoorAir, CONTROLLER OUTDOOR AIR 3, Minimum Outdoor Air Flow Rate [m3/s], 1.76213
 Component Sizing Information, Coil:Cooling:DX:SingleSpeed, COIL COOLING DX SINGLE SPEED 3 109KBTU/HR 9.26EER, Design Size Rated Air Flow Rate [m3/s], 1.76213
 Component Sizing Information, Coil:Cooling:DX:SingleSpeed, COIL COOLING DX SINGLE SPEED 3 109KBTU/HR 9.26EER, Design Size Gross Rated Total Cooling Capacity [W], 34281.21253
 Component Sizing Information, Coil:Cooling:DX:SingleSpeed, COIL COOLING DX SINGLE SPEED 3 109KBTU/HR 9.26EER, Design Size Gross Rated Sensible Heat Ratio, 0.78383
 DX Cooling Coil Standard Rating Information, Coil:Cooling:DX:SingleSpeed, COIL COOLING DX SINGLE SPEED 3 109KBTU/HR 9.26EER, 32910.2, 2.73, 9.32, 9.85, 9.47
 Component Sizing Information, Coil:Heating:Fuel, COIL HEATING GAS 3, Design Size Nominal Capacity [W], 161629.27057
 Component Sizing Information, Fan:ConstantVolume, FAN CONSTANT VOLUME 3, Design Size Maximum Flow Rate [m3/s], 1.76213
 Component Sizing Information, Controller:OutdoorAir, CONTROLLER OUTDOOR AIR 5, Maximum Outdoor Air Flow Rate [m3/s], 2.62742
 Component Sizing Information, Controller:OutdoorAir, CONTROLLER OUTDOOR AIR 5, Minimum Outdoor Air Flow Rate [m3/s], 0.79058
 Component Sizing Information, Coil:Cooling:DX:SingleSpeed, COIL COOLING DX SINGLE SPEED 5 148KBTU/HR 9.08EER, Design Size Rated Air Flow Rate [m3/s], 2.62742
 Component Sizing Information, Coil:Cooling:DX:SingleSpeed, COIL COOLING DX SINGLE SPEED 5 148KBTU/HR 9.08EER, Design Size Gross Rated Total Cooling Capacity [W], 44593.96806
 Component Sizing Information, Coil:Cooling:DX:SingleSpeed, COIL COOLING DX SINGLE SPEED 5 148KBTU/HR 9.08EER, Design Size Gross Rated Sensible Heat Ratio, 0.80058
 DX Cooling Coil Standard Rating Information, Coil:Cooling:DX:SingleSpeed, COIL COOLING DX SINGLE SPEED 5 148KBTU/HR 9.08EER, 42551.4, 2.65, 9.03, 9.54, 9.08
 Component Sizing Information, Coil:Heating:Fuel, COIL HEATING GAS 5, Design Size Nominal Capacity [W], 117188.27650
 Component Sizing Information, Fan:ConstantVolume, FAN CONSTANT VOLUME 5, Design Size Maximum Flow Rate [m3/s], 2.62742
Water Heater Information,WaterHeater:Mixed,118GAL NATURALGAS WATER HEATER - 324KBTU/HR 0.804 THERM EFF,0.4463,95013.1,1.387,0.4035
 Component Sizing Information, PlantLoop, HOT WATER LOOP, Maximum Loop Flow Rate [m3/s], 2.56329E-005
 Component Sizing Information, PlantLoop, HOT WATER LOOP, Plant Loop Volume [m3], 3.07595E-003
 Component Sizing Information, Pump:VariableSpeed, PUMP VARIABLE SPEED 1, Design Flow Rate [m3/s], 2.56329E-005
 Component Sizing Information, Pump:VariableSpeed, PUMP VARIABLE SPEED 1, Design Power Consumption [W], 8.42000
 Component Sizing Information, Boiler:HotWater, PRIMARY BOILER 6KBTU/HR 0.85 AFUE, Design Size Nominal Capacity [W], 1722.84972
 Component Sizing Information, Boiler:HotWater, PRIMARY BOILER 6KBTU/HR 0.85 AFUE, User-Specified Nominal Capacity [W], 1722.84972
 Component Sizing Information, Boiler:HotWater, PRIMARY BOILER 6KBTU/HR 0.85 AFUE, Design Size Design Water Flow Rate [m3/s], 2.56329E-005
 Component Sizing Information, Boiler:HotWater, SECONDARY BOILER 0KBTU/HR 0.85 AFUE, Design Size Nominal Capacity [W], 1722.84972
 Component Sizing Information, Boiler:HotWater, SECONDARY BOILER 0KBTU/HR 0.85 AFUE, User-Specified Nominal Capacity [W], 1.00000E-003
 Component Sizing Information, Boiler:HotWater, SECONDARY BOILER 0KBTU/HR 0.85 AFUE, Design Size Design Water Flow Rate [m3/s], 2.56329E-005
 Component Sizing Information, PlantLoop, MAIN SERVICE WATER LOOP, Maximum Loop Flow Rate [m3/s], 1.64316E-004
 Component Sizing Information, PlantLoop, MAIN SERVICE WATER LOOP, Plant Loop Volume [m3], 1.97180E-002
 Component Sizing Information, Pump:ConstantSpeed, SERVICE WATER LOOP PUMP, Design Flow Rate [m3/s], 1.64316E-004
 Component Sizing Information, Pump:ConstantSpeed, SERVICE WATER LOOP PUMP, Design Power Consumption [W], 5.04862
 Component Sizing Information, WaterHeater:Mixed, 118GAL NATURALGAS WATER HEATER - 324KBTU/HR 0.804 THERM EFF, Use Side Design Flow Rate [m3/s], 1.64316E-004
! <Environment>,Environment Name,Environment Type, Start Date, End Date, Start DayOfWeek, Duration {#days}, Source:Start DayOfWeek,  Use Daylight Saving, Use Holidays, Apply Weekend Holiday Rule,  Use Rain Values, Use Snow Values
! <Environment:Special Days>, Special Day Name, Special Day Type, Source, Start Date, Duration {#days}
! <Environment:Daylight Saving>, Daylight Saving Indicator, Source, Start Date, End Date
! <Environment:WarmupDays>, NumberofWarmupDays
Environment,FORT MCMURRAY AP ANN CLG .4% CONDNS DB=>MWB,SizingPeriod:DesignDay,07/21,07/21,SummerDesignDay,1,N/A,N/A,N/A,N/A,N/A,N/A
Environment:Daylight Saving,No,SizingPeriod:DesignDay
! <Environment:Design Day Data>, Max Dry-Bulb Temp {C}, Temp Range {dC}, Temp Range Ind Type, Hum Ind Value at Max Temp, Hum Ind Type,Pressure {Pa}, Wind Direction {deg CW from N}, Wind Speed {m/s}, Clearness, Rain, Snow
! <Environment:Design Day Misc>,DayOfYear,ASHRAE A Coeff,ASHRAE B Coeff,ASHRAE C Coeff,Solar Constant-Annual Variation,Eq of Time {minutes}, Solar Declination Angle {deg}, Solar Model
Environment:Design Day Data,28.90,12.40,DefaultMultipliers,96969,250,3.7,0.00,No,No
Environment:Design Day Misc,202,1084.4,0.2082,0.1365,1.0,-6.23,20.6,ASHRAETau
Environment:WarmupDays,  6
! <Tabular Report>,Style,Unit Conversion
Tabular Report,HTML,None
! <Warmup Convergence Information>,Zone Name,Environment Type/Name,Average Warmup Temperature Difference {deltaC},Std Dev Warmup Temperature Difference {deltaC},Max Temperature Pass/Fail Convergence,Min Temperature Pass/Fail Convergence,Average Warmup Load Difference {W},Std Dev Warmup Load Difference {W},Heating Load Pass/Fail Convergence,Cooling Load Pass/Fail Convergence
 Warmup Convergence Information,SP-LOCKER ROOM-SCH-J-SPACE FUNCTION SYS-3 FLR-1 SCH-J HPLCMT-CORE ZN,SizingPeriod: FORT MCMURRAY AP ANN CLG .4% CONDNS DB=>MWB,7.3068173830E-003,1.5147033691E-002,Pass,Pass,1.5262206045E-002,3.5758005103E-002,Pass,Pass
 Warmup Convergence Information,SP-LOCKER ROOM-SCH-K-SPACE FUNCTION SYS-3 FLR-1 SCH-K HPLCMT-SOUTH ZN,SizingPeriod: FORT MCMURRAY AP ANN CLG .4% CONDNS DB=>MWB,0.1084784107,6.9267036654E-002,Pass,Pass,0.1402364185,0.3983855901,Pass,Pass
 Warmup Convergence Information,SP-LOUNGE/BREAK ROOM - HEALTH CARE FACILITY-SPACE FUNCTION SYS-3 FLR-1 SCH-B HPLCMT-EAST ZN,SizingPeriod: FORT MCMURRAY AP ANN CLG .4% CONDNS DB=>MWB,4.1279880089E-002,9.3508307935E-002,Pass,Pass,9.6209871656E-002,0.3338704412,Pass,Pass
 Warmup Convergence Information,SP-LOUNGE/BREAK ROOM - OTHER-SPACE FUNCTION SYS-3 FLR-1 SCH-B HPLCMT-NORTH ZN,SizingPeriod: FORT MCMURRAY AP ANN CLG .4% CONDNS DB=>MWB,4.7933001430E-002,9.3907040804E-002,Pass,Pass,0.6275420088,6.6360056287,Pass,Pass
 Warmup Convergence Information,SP-OFFICE ENCLOSED <= 25 M2-SPACE FUNCTION SYS-3 FLR-1 SCH-A HPLCMT-WEST ZN,SizingPeriod: FORT MCMURRAY AP ANN CLG .4% CONDNS DB=>MWB,5.6333980357E-002,0.1235753079,Pass,Pass,0.1166623865,0.5621412836,Pass,Pass
Environment,FORT MCMURRAY AP ANN HTG 99.6% CONDNS DB,SizingPeriod:DesignDay,01/21,01/21,WinterDesignDay,1,N/A,N/A,N/A,N/A,N/A,N/A
Environment:Daylight Saving,No,SizingPeriod:DesignDay
Environment:Design Day Data,-36.20,0.00,DefaultMultipliers,96969,90,1.0,0.00,No,No
Environment:Design Day Misc, 21,1229.0,0.1415,5.7310E-002,1.0,-11.15,-20.1,ASHRAEClearSky
Environment:WarmupDays,  6
 Warmup Convergence Information,SP-LOCKER ROOM-SCH-J-SPACE FUNCTION SYS-3 FLR-1 SCH-J HPLCMT-CORE ZN,SizingPeriod: FORT MCMURRAY AP ANN HTG 99.6% CONDNS DB,7.5673137262E-005,1.5960061021E-004,Pass,Pass,1.7095821156E-002,4.0880951803E-002,Pass,Pass
 Warmup Convergence Information,SP-LOCKER ROOM-SCH-K-SPACE FUNCTION SYS-3 FLR-1 SCH-K HPLCMT-SOUTH ZN,SizingPeriod: FORT MCMURRAY AP ANN HTG 99.6% CONDNS DB,5.5767109498E-002,6.6906024855E-002,Pass,Pass,8.5140879361E-003,1.0782399795E-002,Pass,Pass
 Warmup Convergence Information,SP-LOUNGE/BREAK ROOM - HEALTH CARE FACILITY-SPACE FUNCTION SYS-3 FLR-1 SCH-B HPLCMT-EAST ZN,SizingPeriod: FORT MCMURRAY AP ANN HTG 99.6% CONDNS DB,5.7883090692E-002,0.2310387063,Pass,Pass,0.2276071389,1.0210253161,Pass,Pass
 Warmup Convergence Information,SP-LOUNGE/BREAK ROOM - OTHER-SPACE FUNCTION SYS-3 FLR-1 SCH-B HPLCMT-NORTH ZN,SizingPeriod: FORT MCMURRAY AP ANN HTG 99.6% CONDNS DB,7.7140782765E-002,0.2159271414,Pass,Pass,0.2385732088,1.3211325336,Pass,Pass
 Warmup Convergence Information,SP-OFFICE ENCLOSED <= 25 M2-SPACE FUNCTION SYS-3 FLR-1 SCH-A HPLCMT-WEST ZN,SizingPeriod: FORT MCMURRAY AP ANN HTG 99.6% CONDNS DB,6.8558847011E-002,0.2265169846,Pass,Pass,0.6081817229,3.4028074403,Pass,Pass
! <Program Control Information:Threads/Parallel Sims>, Threading Supported,Maximum Number of Threads, Env Set Threads (OMP_NUM_THREADS), EP Env Set Threads (EP_OMP_NUM_THREADS), IDF Set Threads, Number of Threads Used (Interior Radiant Exchange), Number Nominal Surfaces, Number Parallel Sims
Program Control:Threads/Parallel Sims, No,1, N/A, N/A, N/A, N/A, N/A, N/A
End of Data
