Program Version,EnergyPlus, Version 8.9.0-eba93e8e1b, YMD=2019.04.04 18:00
! <Version>, Version ID
 Version, 8.9
! <Timesteps per Hour>, #TimeSteps, Minutes per TimeStep {minutes}
 Timesteps per Hour,  6, 10
! <System Convergence Limits>, Minimum System TimeStep {minutes}, Max HVAC Iterations, Minimum Plant Iterations, Maximum Plant Iterations
 System Convergence Limits, 1, 20, 2, 8
! <Simulation Control>, Do Zone Sizing, Do System Sizing, Do Plant Sizing, Do Design Days, Do Weather Simulation, Do HVAC Sizing Simulation
 Simulation Control, Yes, No, No, Yes, No, No
! <Output Reporting Tolerances>, Tolerance for Time Heating Setpoint Not Met, Tolerance for Zone Cooling Setpoint Not Met Time
 Output Reporting Tolerances, 0.200, 0.200, 
! <Site:GroundTemperature:BuildingSurface>,Jan{C},Feb{C},Mar{C},Apr{C},May{C},Jun{C},Jul{C},Aug{C},Sep{C},Oct{C},Nov{C},Dec{C}
 Site:GroundTemperature:BuildingSurface,  19.53,  19.50,  19.54,  19.60,  20.00,  21.64,  22.23,  22.38,  21.45,  20.12,  19.80,  19.63
! <Site:GroundTemperature:FCfactorMethod>,Jan{C},Feb{C},Mar{C},Apr{C},May{C},Jun{C},Jul{C},Aug{C},Sep{C},Oct{C},Nov{C},Dec{C}
 Site:GroundTemperature:FCfactorMethod, -12.27, -13.66, -11.19,  -7.33,   2.77,  10.57,  15.83,  17.43,  14.70,   8.65,   0.56,  -6.95
! <Site:GroundTemperature:Shallow>,Jan{C},Feb{C},Mar{C},Apr{C},May{C},Jun{C},Jul{C},Aug{C},Sep{C},Oct{C},Nov{C},Dec{C}
 Site:GroundTemperature:Shallow,  13.00,  13.00,  13.00,  13.00,  13.00,  13.00,  13.00,  13.00,  13.00,  13.00,  13.00,  13.00
! <Site:GroundTemperature:Deep>,Jan{C},Feb{C},Mar{C},Apr{C},May{C},Jun{C},Jul{C},Aug{C},Sep{C},Oct{C},Nov{C},Dec{C}
 Site:GroundTemperature:Deep,  16.00,  16.00,  16.00,  16.00,  16.00,  16.00,  16.00,  16.00,  16.00,  16.00,  16.00,  16.00
! <Site:GroundReflectance>,Jan{dimensionless},Feb{dimensionless},Mar{dimensionless},Apr{dimensionless},May{dimensionless},Jun{dimensionless},Jul{dimensionless},Aug{dimensionless},Sep{dimensionless},Oct{dimensionless},Nov{dimensionless},Dec{dimensionless}
 Site:GroundReflectance,  0.20,  0.20,  0.20,  0.20,  0.20,  0.20,  0.20,  0.20,  0.20,  0.20,  0.20,  0.20
! <Site:GroundReflectance:SnowModifier>, Normal, Daylighting {dimensionless}
 Site:GroundReflectance:SnowModifier,   1.000,   1.000
! <Site:GroundReflectance:Snow>,Jan{dimensionless},Feb{dimensionless},Mar{dimensionless},Apr{dimensionless},May{dimensionless},Jun{dimensionless},Jul{dimensionless},Aug{dimensionless},Sep{dimensionless},Oct{dimensionless},Nov{dimensionless},Dec{dimensionless}
 Site:GroundReflectance:Snow,  0.20,  0.20,  0.20,  0.20,  0.20,  0.20,  0.20,  0.20,  0.20,  0.20,  0.20,  0.20
! <Site:GroundReflectance:Snow:Daylighting>,Jan{dimensionless},Feb{dimensionless},Mar{dimensionless},Apr{dimensionless},May{dimensionless},Jun{dimensionless},Jul{dimensionless},Aug{dimensionless},Sep{dimensionless},Oct{dimensionless},Nov{dimensionless},Dec{dimensionless}
 Site:GroundReflectance:Snow:Daylighting,  0.20,  0.20,  0.20,  0.20,  0.20,  0.20,  0.20,  0.20,  0.20,  0.20,  0.20,  0.20
! <Environment:Weather Station>,Wind Sensor Height Above Ground {m},Wind Speed Profile Exponent {},Wind Speed Profile Boundary Layer Thickness {m},Air Temperature Sensor Height Above Ground {m},Wind Speed Modifier Coefficient-Internal,Temperature Modifier Coefficient-Internal
Environment:Weather Station,10.000,0.140,270.000,1.500,1.586,9.750E-003
! <Site:Location>, Location Name, Latitude {N+/S- Deg}, Longitude {E+/W- Deg},  Time Zone Number {GMT+/-}, Elevation {m},  Standard Pressure at Elevation {Pa}, Standard RhoAir at Elevation
Site:Location,Fort McMurray AP AB CAN CWEC2016 WMO#=716890,56.65,-111.22,-7.00,369.10,96969,1.1525
! <Building Information>, Building Name,North Axis {deg},Terrain,  Loads Convergence Tolerance Value,Temperature Convergence Tolerance Value,  Solar Distribution,Maximum Number of Warmup Days,Minimum Number of Warmup Days
 Building Information,Building 1,0.000,Suburbs,4.00000E-002,0.40000,FullExterior,25,6
! <Inside Convection Algorithm>, Algorithm {Simple | TARP | CeilingDiffuser | AdaptiveConvectionAlgorithm}
Inside Convection Algorithm,TARP
! <Outside Convection Algorithm>, Algorithm {SimpleCombined | TARP | MoWitt | DOE-2 | AdaptiveConvectionAlgorithm}
Outside Convection Algorithm,TARP
! <Sky Radiance Distribution>, Value {Anisotropic}
Sky Radiance Distribution,Anisotropic
! <Zone Air Solution Algorithm>, Value {ThirdOrderBackwardDifference | AnalyticalSolution | EulerMethod}
 Zone Air Solution Algorithm, ThirdOrderBackwardDifference
! <Zone Air Carbon Dioxide Balance Simulation>, Simulation {Yes/No}, Carbon Dioxide Concentration
 Zone Air Carbon Dioxide Balance Simulation, No,N/A
! <Zone Air Generic Contaminant Balance Simulation>, Simulation {Yes/No}, Generic Contaminant Concentration
 Zone Air Generic Contaminant Balance Simulation, No,N/A
! <Zone Air Mass Flow Balance Simulation>, Enforce Mass Balance, Adjust Zone Mixing, Adjust Zone Infiltration {AddInfiltration | AdjustInfiltration | None}, Infiltration Zones {MixingSourceZonesOnly | AllZones}
 Zone Air Mass Flow Balance Simulation, No,N/A,N/A,N/A
! <HVACSystemRootFindingAlgorithm>, Value {RegulaFalsi | Bisection | BisectionThenRegulaFalsi | RegulaFalsiThenBisection}
 HVACSystemRootFindingAlgorithm, RegulaFalsi
! <Environment:Site Atmospheric Variation>,Wind Speed Profile Exponent {},Wind Speed Profile Boundary Layer Thickness {m},Air Temperature Gradient Coefficient {K/m}
Environment:Site Atmospheric Variation,0.220,370.000,6.500000E-003
! <Surface Geometry>,Starting Corner,Vertex Input Direction,Coordinate System,Daylight Reference Point Coordinate System,Rectangular (Simple) Surface Coordinate System
 Surface Geometry,UpperLeftCorner,Counterclockwise,RelativeCoordinateSystem,RelativeCoordinateSystem,RelativeToZoneOrigin
! <Surface Heat Transfer Algorithm>, Value {CTF - ConductionTransferFunction | EMPD - MoisturePenetrationDepthConductionTransferFunction | CondFD - ConductionFiniteDifference | HAMT - CombinedHeatAndMoistureFiniteElement} - Description,Inside Surface Max Temperature Limit{C}, Surface Convection Coefficient Lower Limit {W/m2-K}, Surface Convection Coefficient Upper Limit {W/m2-K}
Surface Heat Transfer Algorithm, CTF - ConductionTransferFunction,200,0.10,1000.0
! <Shading Summary>, Number of Fixed Detached Shades, Number of Building Detached Shades, Number of Attached Shades
 Shading Summary,0,0,0
! <Zone Summary>, Number of Zones, Number of Zone Surfaces, Number of SubSurfaces
 Zone Summary,5,30,0
! <Zone Information>,Zone Name,North Axis {deg},Origin X-Coordinate {m},Origin Y-Coordinate {m},Origin Z-Coordinate {m},Centroid X-Coordinate {m},Centroid Y-Coordinate {m},Centroid Z-Coordinate {m},Type,Zone Multiplier,Zone List Multiplier,Minimum X {m},Maximum X {m},Minimum Y {m},Maximum Y {m},Minimum Z {m},Maximum Z {m},Ceiling Height {m},Volume {m3},Zone Inside Convection Algorithm {Simple-Detailed-CeilingDiffuser-TrombeWall},Zone Outside Convection Algorithm {Simple-Detailed-Tarp-MoWitt-DOE-2-BLAST}, Floor Area {m2},Exterior Gross Wall Area {m2},Exterior Net Wall Area {m2},Exterior Window Area {m2}, Number of Surfaces, Number of SubSurfaces, Number of Shading SubSurfaces,  Part of Total Building Area
 Zone Information, WHOLEBUILDING-HEALTH CARE CLINIC ZN,0.0,25.00,25.00,0.00,50.00,50.00,1.90,1,1,1,25.00,75.00,25.00,75.00,0.00,3.80,3.80,9500.00,TARP,TARP,2500.00,0.00,0.00,0.00,6,0,0,Yes
 Zone Information, WHOLEBUILDING-HOSPITAL ZN,0.0,0.00,0.00,0.00,50.00,10.85,1.90,1,1,1,0.00,100.00,0.00,25.00,0.00,3.80,3.80,7125.00,TARP,TARP,1875.00,0.00,0.00,0.00,6,0,0,Yes
 Zone Information, WHOLEBUILDING-HOTEL/MOTEL ZN,0.0,75.00,25.00,0.00,89.15,50.00,1.90,1,1,1,75.00,100.00,0.00,100.00,0.00,3.80,3.80,7125.00,TARP,TARP,1875.00,0.00,0.00,0.00,6,0,0,Yes
 Zone Information, WHOLEBUILDING-LIBRARY ZN,0.0,25.00,75.00,0.00,50.00,89.15,1.90,1,1,1,0.00,100.00,75.00,100.00,0.00,3.80,3.80,7125.00,TARP,TARP,1875.00,0.00,0.00,0.00,6,0,0,Yes
 Zone Information, WHOLEBUILDING-LONG-TERM CARE - DWELLING UNITS ZN,0.0,0.00,0.00,0.00,10.85,50.00,1.90,1,1,1,0.00,25.00,0.00,100.00,0.00,3.80,3.80,7125.00,TARP,TARP,1875.00,0.00,0.00,0.00,6,0,0,Yes
! <Zone Internal Gains Nominal>,Zone Name, Floor Area {m2},# Occupants,Area per Occupant {m2/person},Occupant per Area {person/m2},Interior Lighting {W/m2},Electric Load {W/m2},Gas Load {W/m2},Other Load {W/m2},Hot Water Eq {W/m2},Steam Equipment {W/m2},Sum Loads per Area {W/m2},Outdoor Controlled Baseboard Heat
 Zone Internal Gains Nominal, WHOLEBUILDING-HEALTH CARE CLINIC ZN,2500.00,125.0,19.993,5.002E-002,9.704,7.503,0.000,0.000,0.000,0.000,17.206,No
 Zone Internal Gains Nominal, WHOLEBUILDING-HOSPITAL ZN,1875.00,93.8,19.993,5.002E-002,11.304,7.503,0.000,0.000,0.000,0.000,18.807,No
 Zone Internal Gains Nominal, WHOLEBUILDING-HOTEL/MOTEL ZN,1875.00,75.0,24.991,4.001E-002,9.403,2.501,0.000,0.000,0.000,0.000,11.904,No
 Zone Internal Gains Nominal, WHOLEBUILDING-LIBRARY ZN,1875.00,93.8,19.993,5.002E-002,12.805,2.501,0.000,0.000,0.000,0.000,15.306,No
 Zone Internal Gains Nominal, WHOLEBUILDING-LONG-TERM CARE - DWELLING UNITS ZN,1875.00,75.0,24.991,4.001E-002,5.502,1.501,0.000,0.000,0.000,0.000,7.003,No
! <People Internal Gains Nominal>,Name,Schedule Name,Zone Name,Zone Floor Area {m2},# Zone Occupants,Number of People {},People/Floor Area {person/m2},Floor Area per person {m2/person},Fraction Radiant,Fraction Convected,Sensible Fraction Calculation,Activity level,ASHRAE 55 Warnings,Carbon Dioxide Generation Rate,Nominal Minimum Number of People,Nominal Maximum Number of People
 People Internal Gains Nominal, WHOLEBUILDING-HEALTH CARE CLINIC ZN HEALTH CARE CLINIC WHOLEBUILDING PEOPLE,NECB-A-OCCUPANCY,WHOLEBUILDING-HEALTH CARE CLINIC ZN,2500.00,125.0,125.0,5.002E-002,19.993,0.300,0.700,AutoCalculate,NECB-ACTIVITY,No,3.8200E-008,0,113
 People Internal Gains Nominal, WHOLEBUILDING-HOSPITAL ZN HOSPITAL WHOLEBUILDING PEOPLE,NECB-H-OCCUPANCY,WHOLEBUILDING-HOSPITAL ZN,1875.00,93.8,93.8,5.002E-002,19.993,0.300,0.700,AutoCalculate,NECB-ACTIVITY,No,3.8200E-008,84,84
 People Internal Gains Nominal, WHOLEBUILDING-HOTEL/MOTEL ZN HOTEL/MOTEL WHOLEBUILDING PEOPLE,NECB-F-OCCUPANCY,WHOLEBUILDING-HOTEL/MOTEL ZN,1875.00,75.0,75.0,4.001E-002,24.991,0.300,0.700,AutoCalculate,NECB-ACTIVITY,No,3.8200E-008,11,47
 People Internal Gains Nominal, WHOLEBUILDING-LIBRARY ZN LIBRARY WHOLEBUILDING PEOPLE,NECB-C-OCCUPANCY,WHOLEBUILDING-LIBRARY ZN,1875.00,93.8,93.8,5.002E-002,19.993,0.300,0.700,AutoCalculate,NECB-ACTIVITY,No,3.8200E-008,0,84
 People Internal Gains Nominal, WHOLEBUILDING-LONG-TERM CARE - DWELLING UNITS ZN LONG-TERM CARE - DWELLING UNITS WHOLEBUILDING PEOPLE,NECB-J-OCCUPANCY,WHOLEBUILDING-LONG-TERM CARE - DWELLING UNITS ZN,1875.00,75.0,75.0,4.001E-002,24.991,0.300,0.700,AutoCalculate,NECB-ACTIVITY,No,3.8200E-008,45,68
! <Lights Internal Gains Nominal>,Name,Schedule Name,Zone Name,Zone Floor Area {m2},# Zone Occupants,Lighting Level {W},Lights/Floor Area {W/m2},Lights per person {W/person},Fraction Return Air,Fraction Radiant,Fraction Short Wave,Fraction Convected,Fraction Replaceable,End-Use Category,Nominal Minimum Lighting Level {W},Nominal Maximum Lighting Level {W}
 Lights Internal Gains Nominal, WHOLEBUILDING-HEALTH CARE CLINIC ZN HEALTH CARE CLINIC WHOLEBUILDING LIGHTS,NECB-A-OCCUPANCY-NECB-A-LIGHTING-0.0-0.0-0.0-LIGHT RULESET,WHOLEBUILDING-HEALTH CARE CLINIC ZN,2500.00,125.0,24258.813,9.704,194.000,0.000,0.500,0.200,0.300,1.000,General,1212.941,21832.932
 Lights Internal Gains Nominal, WHOLEBUILDING-HOSPITAL ZN HOSPITAL WHOLEBUILDING LIGHTS,NECB-H-OCCUPANCY-NECB-H-LIGHTING-0.0-0.0-0.0-LIGHT RULESET,WHOLEBUILDING-HOSPITAL ZN,1875.00,93.8,21195.200,11.304,226.000,0.000,0.500,0.200,0.300,1.000,General,19075.680,19075.680
 Lights Internal Gains Nominal, WHOLEBUILDING-HOTEL/MOTEL ZN HOTEL/MOTEL WHOLEBUILDING LIGHTS,NECB-F-OCCUPANCY-NECB-F-LIGHTING-0.0-0.0-0.0-LIGHT RULESET,WHOLEBUILDING-HOTEL/MOTEL ZN,1875.00,75.0,17631.405,9.403,235.000,0.000,0.500,0.200,0.300,1.000,General,1234.198,11107.785
 Lights Internal Gains Nominal, WHOLEBUILDING-LIBRARY ZN LIBRARY WHOLEBUILDING LIGHTS,NECB-C-OCCUPANCY-NECB-C-LIGHTING-0.0-0.0-0.0-LIGHT RULESET,WHOLEBUILDING-LIBRARY ZN,1875.00,93.8,24008.722,12.805,256.000,0.000,0.500,0.200,0.300,1.000,General,1200.436,21607.850
 Lights Internal Gains Nominal, WHOLEBUILDING-LONG-TERM CARE - DWELLING UNITS ZN LONG-TERM CARE - DWELLING UNITS WHOLEBUILDING LIGHTS,NECB-J-LIGHTING,WHOLEBUILDING-LONG-TERM CARE - DWELLING UNITS ZN,1875.00,75.0,10316.248,5.502,137.500,0.000,0.500,0.200,0.300,1.000,General,1031.625,7221.373
! <ElectricEquipment Internal Gains Nominal>,Name,Schedule Name,Zone Name,Zone Floor Area {m2},# Zone Occupants,Equipment Level {W},Equipment/Floor Area {W/m2},Equipment per person {W/person},Fraction Latent,Fraction Radiant,Fraction Lost,Fraction Convected,End-Use SubCategory,Nominal Minimum Equipment Level {W},Nominal Maximum Equipment Level {W}
 ElectricEquipment Internal Gains Nominal, WHOLEBUILDING-HEALTH CARE CLINIC ZN HEALTH CARE CLINIC WHOLEBUILDING ELEC EQUIP,NECB-A-ELECTRIC-EQUIPMENT,WHOLEBUILDING-HEALTH CARE CLINIC ZN,2500.00,125.0,18756.814,7.503,150.000,0.000,0.500,0.000,0.500,General,3751.363,16881.133
 ElectricEquipment Internal Gains Nominal, WHOLEBUILDING-HOSPITAL ZN HOSPITAL WHOLEBUILDING ELEC EQUIP,NECB-H-ELECTRIC-EQUIPMENT,WHOLEBUILDING-HOSPITAL ZN,1875.00,93.8,14067.611,7.503,150.000,0.000,0.500,0.000,0.500,General,12660.850,12660.850
 ElectricEquipment Internal Gains Nominal, WHOLEBUILDING-HOTEL/MOTEL ZN HOTEL/MOTEL WHOLEBUILDING ELEC EQUIP,NECB-F-ELECTRIC-EQUIPMENT,WHOLEBUILDING-HOTEL/MOTEL ZN,1875.00,75.0,4689.204,2.501,62.500,0.000,0.500,0.000,0.500,General,328.244,2954.198
 ElectricEquipment Internal Gains Nominal, WHOLEBUILDING-LIBRARY ZN LIBRARY WHOLEBUILDING ELEC EQUIP,NECB-C-ELECTRIC-EQUIPMENT,WHOLEBUILDING-LIBRARY ZN,1875.00,93.8,4689.204,2.501,50.000,0.000,0.500,0.000,0.500,General,234.460,4220.283
 ElectricEquipment Internal Gains Nominal, WHOLEBUILDING-LONG-TERM CARE - DWELLING UNITS ZN LONG-TERM CARE - DWELLING UNITS WHOLEBUILDING ELEC EQUIP,NECB-J-ELECTRIC-EQUIPMENT,WHOLEBUILDING-LONG-TERM CARE - DWELLING UNITS ZN,1875.00,75.0,2813.522,1.501,37.500,0.000,0.500,0.000,0.500,General,281.352,1969.465
! <Shadowing/Sun Position Calculations Annual Simulations>, Calculation Method, Value {days}, Allowable Number Figures in Shadow Overlap {}, Polygon Clipping Algorithm, Sky Diffuse Modeling Algorithm, External Shading Calculation Method, Output External Shading Calculation Results, Disable Self-Shading Within Shading Zone Groups, Disable Self-Shading From Shading Zone Groups to Other Zones
Shadowing/Sun Position Calculations Annual Simulations,AverageOverDaysInFrequency,20,15000,SutherlandHodgman,SimpleSkyDiffuseModeling,InternalCalculation,No,No,No
! <RoomAir Model>, Zone Name, Mixing/Mundt/UCSDDV/UCSDCV/UCSDUFI/UCSDUFE/User Defined
RoomAir Model,WHOLEBUILDING-HEALTH CARE CLINIC ZN,Mixing/Well-Stirred
RoomAir Model,WHOLEBUILDING-HOSPITAL ZN,Mixing/Well-Stirred
RoomAir Model,WHOLEBUILDING-HOTEL/MOTEL ZN,Mixing/Well-Stirred
RoomAir Model,WHOLEBUILDING-LIBRARY ZN,Mixing/Well-Stirred
RoomAir Model,WHOLEBUILDING-LONG-TERM CARE - DWELLING UNITS ZN,Mixing/Well-Stirred
! <AirflowNetwork Model:Control>, No Multizone or Distribution/Multizone with Distribution/Multizone without Distribution/Multizone with Distribution only during Fan Operation
AirflowNetwork Model:Control,NoMultizoneOrDistribution
! <Zone Volume Capacitance Multiplier>, Sensible Heat Capacity Multiplier, Moisture Capacity Multiplier, Carbon Dioxide Capacity Multiplier, Generic Contaminant Capacity Multiplier
Zone Volume Capacitance Multiplier,   1.000 ,   1.000,   1.000,   1.000
! <Load Timesteps in Zone Design Calculation Averaging Window>, Value
 Load Timesteps in Zone Design Calculation Averaging Window,    6
! <Heating Sizing Factor Information>, Sizing Factor ID, Value
 Heating Sizing Factor Information, Global,   1.2500    
 Heating Sizing Factor Information, Zone WHOLEBUILDING-HEALTH CARE CLINIC ZN,   1.2500    
 Heating Sizing Factor Information, Zone WHOLEBUILDING-HOSPITAL ZN,   1.2500    
 Heating Sizing Factor Information, Zone WHOLEBUILDING-HOTEL/MOTEL ZN,   1.2500    
 Heating Sizing Factor Information, Zone WHOLEBUILDING-LIBRARY ZN,   1.2500    
 Heating Sizing Factor Information, Zone WHOLEBUILDING-LONG-TERM CARE - DWELLING UNITS ZN,   1.2500    
! <Cooling Sizing Factor Information>, Sizing Factor ID, Value
 Cooling Sizing Factor Information, Global,   1.1500    
 Cooling Sizing Factor Information, Zone WHOLEBUILDING-HEALTH CARE CLINIC ZN,   1.1500    
 Cooling Sizing Factor Information, Zone WHOLEBUILDING-HOSPITAL ZN,   1.1500    
 Cooling Sizing Factor Information, Zone WHOLEBUILDING-HOTEL/MOTEL ZN,   1.1500    
 Cooling Sizing Factor Information, Zone WHOLEBUILDING-LIBRARY ZN,   1.1500    
 Cooling Sizing Factor Information, Zone WHOLEBUILDING-LONG-TERM CARE - DWELLING UNITS ZN,   1.1500    
! <Zone Sizing Information>, Zone Name, Load Type, Calc Des Load {W}, User Des Load {W}, Calc Des Air Flow Rate {m3/s}, User Des Air Flow Rate {m3/s}, Design Day Name, Date/Time of Peak, Temperature at Peak {C}, Humidity Ratio at Peak {kgWater/kgDryAir}, Floor Area {m2}, # Occupants, Calc Outdoor Air Flow Rate {m3/s}, Calc DOAS Heat Addition Rate {W}
 Zone Sizing Information, WHOLEBUILDING-HEALTH CARE CLINIC ZN, Cooling, 35753.44266, 41116.45906, 3.03978, 5.71500, FORT MCMURRAY AP ANN CLG .4% CONDNS DB=>MWB, 7/21 12:00:00, 27.28800, 8.76969E-003, 2500.00000, 125.04543, 5.71500, 0.00000
 Zone Sizing Information, WHOLEBUILDING-HEALTH CARE CLINIC ZN, Heating, 0.00000, 0.00000, 0.00000, 5.71500, FORT MCMURRAY AP ANN HTG 99.6% CONDNS DB, , -36.20000, 1.25811E-004, 2500.00000, 125.04543, 5.71500, 0.00000
 Zone Sizing Information, WHOLEBUILDING-HOSPITAL ZN, Cooling, 29064.39783, 33424.05750, 2.47107, 4.28625, FORT MCMURRAY AP ANN CLG .4% CONDNS DB=>MWB, 7/21 11:30:00, 26.66800, 8.76969E-003, 1875.00000, 93.78407, 4.28625, 0.00000
 Zone Sizing Information, WHOLEBUILDING-HOSPITAL ZN, Heating, 0.00000, 0.00000, 0.00000, 4.28625, FORT MCMURRAY AP ANN HTG 99.6% CONDNS DB, , -36.20000, 1.25811E-004, 1875.00000, 93.78407, 4.28625, 0.00000
 Zone Sizing Information, WHOLEBUILDING-HOTEL/MOTEL ZN, Cooling, 11123.01348, 12791.46550, 0.94565, 1.08750, FORT MCMURRAY AP ANN CLG .4% CONDNS DB=>MWB, 7/21 22:00:00, 20.46800, 8.76969E-003, 1875.00000, 75.02726, 0.75248, 0.00000
 Zone Sizing Information, WHOLEBUILDING-HOTEL/MOTEL ZN, Heating, 0.00000, 0.00000, 0.00000, 0.75248, FORT MCMURRAY AP ANN HTG 99.6% CONDNS DB, , -36.20000, 1.25811E-004, 1875.00000, 75.02726, 0.75248, 0.00000
 Zone Sizing Information, WHOLEBUILDING-LIBRARY ZN, Cooling, 23111.32203, 26578.02033, 1.96490, 2.25963, FORT MCMURRAY AP ANN CLG .4% CONDNS DB=>MWB, 7/21 17:00:00, 27.16400, 8.76969E-003, 1875.00000, 93.78407, 1.36208, 0.00000
 Zone Sizing Information, WHOLEBUILDING-LIBRARY ZN, Heating, 2523.61285, 3154.51607, 0.11492, 1.36208, FORT MCMURRAY AP ANN HTG 99.6% CONDNS DB, 1/21 08:10:00, -36.20000, 1.25811E-004, 1875.00000, 93.78407, 1.36208, 0.00000
 Zone Sizing Information, WHOLEBUILDING-LONG-TERM CARE - DWELLING UNITS ZN, Cooling, 8665.58463, 9965.42232, 0.73675, 1.04775, FORT MCMURRAY AP ANN CLG .4% CONDNS DB=>MWB, 7/21 11:00:00, 26.04800, 8.76969E-003, 1875.00000, 75.02726, 1.04775, 0.00000
 Zone Sizing Information, WHOLEBUILDING-LONG-TERM CARE - DWELLING UNITS ZN, Heating, 0.00000, 0.00000, 0.00000, 1.04775, FORT MCMURRAY AP ANN HTG 99.6% CONDNS DB, , -36.20000, 1.25811E-004, 1875.00000, 75.02726, 1.04775, 0.00000
! <Component Sizing Information>, Component Type, Component Name, Input Field Description, Value
 Component Sizing Information, ZoneHVAC:IdealLoadsAirSystem, ZONE HVAC IDEAL LOADS AIR SYSTEM 1, User-Specified Maximum Heating Air Flow Rate [m3/s], 0.00000
 Component Sizing Information, ZoneHVAC:IdealLoadsAirSystem, ZONE HVAC IDEAL LOADS AIR SYSTEM 1, User-Specified Maximum Cooling Air Flow Rate [m3/s], 0.00000
 Component Sizing Information, ZoneHVAC:IdealLoadsAirSystem, ZONE HVAC IDEAL LOADS AIR SYSTEM 2, User-Specified Maximum Heating Air Flow Rate [m3/s], 0.00000
 Component Sizing Information, ZoneHVAC:IdealLoadsAirSystem, ZONE HVAC IDEAL LOADS AIR SYSTEM 2, User-Specified Maximum Cooling Air Flow Rate [m3/s], 0.00000
 Component Sizing Information, ZoneHVAC:IdealLoadsAirSystem, ZONE HVAC IDEAL LOADS AIR SYSTEM 3, User-Specified Maximum Heating Air Flow Rate [m3/s], 0.00000
 Component Sizing Information, ZoneHVAC:IdealLoadsAirSystem, ZONE HVAC IDEAL LOADS AIR SYSTEM 3, User-Specified Maximum Cooling Air Flow Rate [m3/s], 0.00000
 Component Sizing Information, ZoneHVAC:IdealLoadsAirSystem, ZONE HVAC IDEAL LOADS AIR SYSTEM 4, User-Specified Maximum Heating Air Flow Rate [m3/s], 0.00000
 Component Sizing Information, ZoneHVAC:IdealLoadsAirSystem, ZONE HVAC IDEAL LOADS AIR SYSTEM 4, User-Specified Maximum Cooling Air Flow Rate [m3/s], 0.00000
 Component Sizing Information, ZoneHVAC:IdealLoadsAirSystem, ZONE HVAC IDEAL LOADS AIR SYSTEM 5, User-Specified Maximum Heating Air Flow Rate [m3/s], 0.00000
 Component Sizing Information, ZoneHVAC:IdealLoadsAirSystem, ZONE HVAC IDEAL LOADS AIR SYSTEM 5, User-Specified Maximum Cooling Air Flow Rate [m3/s], 0.00000
! <Environment>,Environment Name,Environment Type, Start Date, End Date, Start DayOfWeek, Duration {#days}, Source:Start DayOfWeek,  Use Daylight Saving, Use Holidays, Apply Weekend Holiday Rule,  Use Rain Values, Use Snow Values
! <Environment:Special Days>, Special Day Name, Special Day Type, Source, Start Date, Duration {#days}
! <Environment:Daylight Saving>, Daylight Saving Indicator, Source, Start Date, End Date
! <Environment:WarmupDays>, NumberofWarmupDays
Environment,FORT MCMURRAY AP ANN CLG .4% CONDNS DB=>MWB,SizingPeriod:DesignDay,07/21,07/21,SummerDesignDay,1,N/A,N/A,N/A,N/A,N/A,N/A
Environment:Daylight Saving,No,SizingPeriod:DesignDay
! <Environment:Design Day Data>, Max Dry-Bulb Temp {C}, Temp Range {dC}, Temp Range Ind Type, Hum Ind Value at Max Temp, Hum Ind Type,Pressure {Pa}, Wind Direction {deg CW from N}, Wind Speed {m/s}, Clearness, Rain, Snow
! <Environment:Design Day Misc>,DayOfYear,ASHRAE A Coeff,ASHRAE B Coeff,ASHRAE C Coeff,Solar Constant-Annual Variation,Eq of Time {minutes}, Solar Declination Angle {deg}, Solar Model
Environment:Design Day Data,28.90,12.40,DefaultMultipliers,96969,250,3.7,0.00,No,No
Environment:Design Day Misc,202,1084.4,0.2082,0.1365,1.0,-6.23,20.6,ASHRAETau
Environment:WarmupDays,  6
! <Tabular Report>,Style,Unit Conversion
Tabular Report,HTML,None
! <Warmup Convergence Information>,Zone Name,Environment Type/Name,Average Warmup Temperature Difference {deltaC},Std Dev Warmup Temperature Difference {deltaC},Max Temperature Pass/Fail Convergence,Min Temperature Pass/Fail Convergence,Average Warmup Load Difference {W},Std Dev Warmup Load Difference {W},Heating Load Pass/Fail Convergence,Cooling Load Pass/Fail Convergence
 Warmup Convergence Information,WHOLEBUILDING-HEALTH CARE CLINIC ZN,SizingPeriod: FORT MCMURRAY AP ANN CLG .4% CONDNS DB=>MWB,8.3009514390E-002,0.2529627026,Pass,Pass,0.2099888265,1.6583567933,Pass,Pass
 Warmup Convergence Information,WHOLEBUILDING-HOSPITAL ZN,SizingPeriod: FORT MCMURRAY AP ANN CLG .4% CONDNS DB=>MWB,2.0095949575E-002,4.0096557664E-002,Pass,Pass,4.8259888445E-003,1.3273580382E-002,Pass,Pass
 Warmup Convergence Information,WHOLEBUILDING-HOTEL/MOTEL ZN,SizingPeriod: FORT MCMURRAY AP ANN CLG .4% CONDNS DB=>MWB,2.7553668614E-002,4.5441124689E-002,Pass,Pass,3.9845143113E-002,9.5025486152E-002,Pass,Pass
 Warmup Convergence Information,WHOLEBUILDING-LIBRARY ZN,SizingPeriod: FORT MCMURRAY AP ANN CLG .4% CONDNS DB=>MWB,5.6866139004E-002,0.1702091456,Pass,Pass,4.5593440137E-002,0.1703409378,Pass,Pass
 Warmup Convergence Information,WHOLEBUILDING-LONG-TERM CARE - DWELLING UNITS ZN,SizingPeriod: FORT MCMURRAY AP ANN CLG .4% CONDNS DB=>MWB,2.7777777747E-002,4.4999299375E-002,Pass,Pass,2.3436636256E-002,6.0736152249E-002,Pass,Pass
Environment,FORT MCMURRAY AP ANN HTG 99.6% CONDNS DB,SizingPeriod:DesignDay,01/21,01/21,WinterDesignDay,1,N/A,N/A,N/A,N/A,N/A,N/A
Environment:Daylight Saving,No,SizingPeriod:DesignDay
Environment:Design Day Data,-36.20,0.00,DefaultMultipliers,96969,90,1.0,0.00,No,No
Environment:Design Day Misc, 21,1229.0,0.1415,5.7310E-002,1.0,-11.15,-20.1,ASHRAEClearSky
Environment:WarmupDays,  6
 Warmup Convergence Information,WHOLEBUILDING-HEALTH CARE CLINIC ZN,SizingPeriod: FORT MCMURRAY AP ANN HTG 99.6% CONDNS DB,5.5555555556E-002,0.3771263478,Pass,Pass,0.3263920871,1.7180113500,Pass,Pass
 Warmup Convergence Information,WHOLEBUILDING-HOSPITAL ZN,SizingPeriod: FORT MCMURRAY AP ANN HTG 99.6% CONDNS DB,5.5555555556E-002,0.3750998308,Pass,Pass,5.9023494894E-002,0.2650196946,Pass,Pass
 Warmup Convergence Information,WHOLEBUILDING-HOTEL/MOTEL ZN,SizingPeriod: FORT MCMURRAY AP ANN HTG 99.6% CONDNS DB,6.1449638316E-002,0.3168316662,Pass,Pass,0.2358295940,0.9306344692,Pass,Pass
 Warmup Convergence Information,WHOLEBUILDING-LIBRARY ZN,SizingPeriod: FORT MCMURRAY AP ANN HTG 99.6% CONDNS DB,5.7659092754E-002,0.3400336534,Pass,Pass,0.5308083372,3.3209238695,Pass,Pass
 Warmup Convergence Information,WHOLEBUILDING-LONG-TERM CARE - DWELLING UNITS ZN,SizingPeriod: FORT MCMURRAY AP ANN HTG 99.6% CONDNS DB,4.9343245539E-015,4.6831913232E-015,Pass,Pass,3.8553231711E-002,0.1097974343,Pass,Pass
! <Program Control Information:Threads/Parallel Sims>, Threading Supported,Maximum Number of Threads, Env Set Threads (OMP_NUM_THREADS), EP Env Set Threads (EP_OMP_NUM_THREADS), IDF Set Threads, Number of Threads Used (Interior Radiant Exchange), Number Nominal Surfaces, Number Parallel Sims
Program Control:Threads/Parallel Sims, No,1, N/A, N/A, N/A, N/A, N/A, N/A
End of Data
