Program Version,EnergyPlus, Version 8.9.0-eba93e8e1b, YMD=2019.03.28 13:39
! <Version>, Version ID
 Version, 8.9
! <Timesteps per Hour>, #TimeSteps, Minutes per TimeStep {minutes}
 Timesteps per Hour,  6, 10
! <System Convergence Limits>, Minimum System TimeStep {minutes}, Max HVAC Iterations, Minimum Plant Iterations, Maximum Plant Iterations
 System Convergence Limits, 1, 20, 2, 8
! <Simulation Control>, Do Zone Sizing, Do System Sizing, Do Plant Sizing, Do Design Days, Do Weather Simulation, Do HVAC Sizing Simulation
 Simulation Control, Yes, No, No, Yes, No, No
! <Output Reporting Tolerances>, Tolerance for Time Heating Setpoint Not Met, Tolerance for Zone Cooling Setpoint Not Met Time
 Output Reporting Tolerances, 0.200, 0.200, 
! <Site:GroundTemperature:BuildingSurface>,Jan{C},Feb{C},Mar{C},Apr{C},May{C},Jun{C},Jul{C},Aug{C},Sep{C},Oct{C},Nov{C},Dec{C}
 Site:GroundTemperature:BuildingSurface,  19.53,  19.50,  19.54,  19.60,  20.00,  21.64,  22.23,  22.38,  21.45,  20.12,  19.80,  19.63
! <Site:GroundTemperature:FCfactorMethod>,Jan{C},Feb{C},Mar{C},Apr{C},May{C},Jun{C},Jul{C},Aug{C},Sep{C},Oct{C},Nov{C},Dec{C}
 Site:GroundTemperature:FCfactorMethod, -12.27, -13.66, -11.19,  -7.33,   2.77,  10.57,  15.83,  17.43,  14.70,   8.65,   0.56,  -6.95
! <Site:GroundTemperature:Shallow>,Jan{C},Feb{C},Mar{C},Apr{C},May{C},Jun{C},Jul{C},Aug{C},Sep{C},Oct{C},Nov{C},Dec{C}
 Site:GroundTemperature:Shallow,  13.00,  13.00,  13.00,  13.00,  13.00,  13.00,  13.00,  13.00,  13.00,  13.00,  13.00,  13.00
! <Site:GroundTemperature:Deep>,Jan{C},Feb{C},Mar{C},Apr{C},May{C},Jun{C},Jul{C},Aug{C},Sep{C},Oct{C},Nov{C},Dec{C}
 Site:GroundTemperature:Deep,  16.00,  16.00,  16.00,  16.00,  16.00,  16.00,  16.00,  16.00,  16.00,  16.00,  16.00,  16.00
! <Site:GroundReflectance>,Jan{dimensionless},Feb{dimensionless},Mar{dimensionless},Apr{dimensionless},May{dimensionless},Jun{dimensionless},Jul{dimensionless},Aug{dimensionless},Sep{dimensionless},Oct{dimensionless},Nov{dimensionless},Dec{dimensionless}
 Site:GroundReflectance,  0.20,  0.20,  0.20,  0.20,  0.20,  0.20,  0.20,  0.20,  0.20,  0.20,  0.20,  0.20
! <Site:GroundReflectance:SnowModifier>, Normal, Daylighting {dimensionless}
 Site:GroundReflectance:SnowModifier,   1.000,   1.000
! <Site:GroundReflectance:Snow>,Jan{dimensionless},Feb{dimensionless},Mar{dimensionless},Apr{dimensionless},May{dimensionless},Jun{dimensionless},Jul{dimensionless},Aug{dimensionless},Sep{dimensionless},Oct{dimensionless},Nov{dimensionless},Dec{dimensionless}
 Site:GroundReflectance:Snow,  0.20,  0.20,  0.20,  0.20,  0.20,  0.20,  0.20,  0.20,  0.20,  0.20,  0.20,  0.20
! <Site:GroundReflectance:Snow:Daylighting>,Jan{dimensionless},Feb{dimensionless},Mar{dimensionless},Apr{dimensionless},May{dimensionless},Jun{dimensionless},Jul{dimensionless},Aug{dimensionless},Sep{dimensionless},Oct{dimensionless},Nov{dimensionless},Dec{dimensionless}
 Site:GroundReflectance:Snow:Daylighting,  0.20,  0.20,  0.20,  0.20,  0.20,  0.20,  0.20,  0.20,  0.20,  0.20,  0.20,  0.20
! <Environment:Weather Station>,Wind Sensor Height Above Ground {m},Wind Speed Profile Exponent {},Wind Speed Profile Boundary Layer Thickness {m},Air Temperature Sensor Height Above Ground {m},Wind Speed Modifier Coefficient-Internal,Temperature Modifier Coefficient-Internal
Environment:Weather Station,10.000,0.140,270.000,1.500,1.586,9.750E-003
! <Site:Location>, Location Name, Latitude {N+/S- Deg}, Longitude {E+/W- Deg},  Time Zone Number {GMT+/-}, Elevation {m},  Standard Pressure at Elevation {Pa}, Standard RhoAir at Elevation
Site:Location,Fort McMurray AP AB CAN CWEC2016 WMO#=716890,56.65,-111.22,-7.00,369.10,96969,1.1525
! <Building Information>, Building Name,North Axis {deg},Terrain,  Loads Convergence Tolerance Value,Temperature Convergence Tolerance Value,  Solar Distribution,Maximum Number of Warmup Days,Minimum Number of Warmup Days
 Building Information,Building 1,0.000,Suburbs,4.00000E-002,0.40000,FullExterior,25,6
! <Inside Convection Algorithm>, Algorithm {Simple | TARP | CeilingDiffuser | AdaptiveConvectionAlgorithm}
Inside Convection Algorithm,TARP
! <Outside Convection Algorithm>, Algorithm {SimpleCombined | TARP | MoWitt | DOE-2 | AdaptiveConvectionAlgorithm}
Outside Convection Algorithm,TARP
! <Sky Radiance Distribution>, Value {Anisotropic}
Sky Radiance Distribution,Anisotropic
! <Zone Air Solution Algorithm>, Value {ThirdOrderBackwardDifference | AnalyticalSolution | EulerMethod}
 Zone Air Solution Algorithm, ThirdOrderBackwardDifference
! <Zone Air Carbon Dioxide Balance Simulation>, Simulation {Yes/No}, Carbon Dioxide Concentration
 Zone Air Carbon Dioxide Balance Simulation, No,N/A
! <Zone Air Generic Contaminant Balance Simulation>, Simulation {Yes/No}, Generic Contaminant Concentration
 Zone Air Generic Contaminant Balance Simulation, No,N/A
! <Zone Air Mass Flow Balance Simulation>, Enforce Mass Balance, Adjust Zone Mixing, Adjust Zone Infiltration {AddInfiltration | AdjustInfiltration | None}, Infiltration Zones {MixingSourceZonesOnly | AllZones}
 Zone Air Mass Flow Balance Simulation, No,N/A,N/A,N/A
! <HVACSystemRootFindingAlgorithm>, Value {RegulaFalsi | Bisection | BisectionThenRegulaFalsi | RegulaFalsiThenBisection}
 HVACSystemRootFindingAlgorithm, RegulaFalsi
! <Environment:Site Atmospheric Variation>,Wind Speed Profile Exponent {},Wind Speed Profile Boundary Layer Thickness {m},Air Temperature Gradient Coefficient {K/m}
Environment:Site Atmospheric Variation,0.220,370.000,6.500000E-003
! <Surface Geometry>,Starting Corner,Vertex Input Direction,Coordinate System,Daylight Reference Point Coordinate System,Rectangular (Simple) Surface Coordinate System
 Surface Geometry,UpperLeftCorner,Counterclockwise,RelativeCoordinateSystem,RelativeCoordinateSystem,RelativeToZoneOrigin
! <Surface Heat Transfer Algorithm>, Value {CTF - ConductionTransferFunction | EMPD - MoisturePenetrationDepthConductionTransferFunction | CondFD - ConductionFiniteDifference | HAMT - CombinedHeatAndMoistureFiniteElement} - Description,Inside Surface Max Temperature Limit{C}, Surface Convection Coefficient Lower Limit {W/m2-K}, Surface Convection Coefficient Upper Limit {W/m2-K}
Surface Heat Transfer Algorithm, CTF - ConductionTransferFunction,200,0.10,1000.0
! <Shading Summary>, Number of Fixed Detached Shades, Number of Building Detached Shades, Number of Attached Shades
 Shading Summary,0,0,0
! <Zone Summary>, Number of Zones, Number of Zone Surfaces, Number of SubSurfaces
 Zone Summary,20,137,17
! <Zone Information>,Zone Name,North Axis {deg},Origin X-Coordinate {m},Origin Y-Coordinate {m},Origin Z-Coordinate {m},Centroid X-Coordinate {m},Centroid Y-Coordinate {m},Centroid Z-Coordinate {m},Type,Zone Multiplier,Zone List Multiplier,Minimum X {m},Maximum X {m},Minimum Y {m},Maximum Y {m},Minimum Z {m},Maximum Z {m},Ceiling Height {m},Volume {m3},Zone Inside Convection Algorithm {Simple-Detailed-CeilingDiffuser-TrombeWall},Zone Outside Convection Algorithm {Simple-Detailed-Tarp-MoWitt-DOE-2-BLAST}, Floor Area {m2},Exterior Gross Wall Area {m2},Exterior Net Wall Area {m2},Exterior Window Area {m2}, Number of Surfaces, Number of SubSurfaces, Number of Shading SubSurfaces,  Part of Total Building Area
 Zone Information, ATRIUM (6 =< HEIGHT <= 12M)-SCH-G-SPACE FUNCTION ZN,0.0,0.00,0.00,11.40,50.00,10.85,13.30,1,1,1,0.00,100.00,0.00,25.00,11.40,15.20,3.80,7125.00,TARP,TARP,1875.00,380.00,285.00,188.75,6,2,0,Yes
 Zone Information, ATRIUM (6 =< HEIGHT <= 12M)-SCH-H-SPACE FUNCTION ZN,0.0,25.00,25.00,7.60,50.00,50.00,9.50,1,1,1,25.00,75.00,25.00,75.00,7.60,11.40,3.80,9500.00,TARP,TARP,2500.00,0.00,0.00,0.00,6,0,0,Yes
 Zone Information, ATRIUM (6 =< HEIGHT <= 12M)-SCH-I-SPACE FUNCTION ZN,0.0,75.00,25.00,7.60,89.15,50.00,9.50,1,1,1,75.00,100.00,0.00,100.00,7.60,11.40,3.80,7125.00,TARP,TARP,1875.00,380.00,285.00,95.00,6,1,0,Yes
 Zone Information, ATRIUM (6 =< HEIGHT <= 12M)-SCH-J-SPACE FUNCTION ZN,0.0,25.00,75.00,7.60,50.00,89.15,9.50,1,1,1,0.00,100.00,75.00,100.00,7.60,11.40,3.80,7125.00,TARP,TARP,1875.00,380.00,285.00,95.00,6,1,0,Yes
 Zone Information, ATRIUM (6 =< HEIGHT <= 12M)-SCH-K-SPACE FUNCTION ZN,0.0,0.00,0.00,0.00,10.85,50.00,1.90,1,1,1,0.00,25.00,0.00,100.00,0.00,3.80,3.80,7125.00,TARP,TARP,1875.00,0.00,0.00,0.00,6,0,0,Yes
 Zone Information, AUDIENCE SEATING AREA PERMANENT - AUDITORIUM-SPACE FUNCTION ZN,0.0,25.00,25.00,11.40,50.00,50.00,13.30,1,1,1,25.00,75.00,25.00,75.00,11.40,15.20,3.80,9500.00,TARP,TARP,2500.00,0.00,0.00,125.00,6,1,0,Yes
 Zone Information, AUDIENCE SEATING AREA PERMANENT - CONVENTION CENTRE-SPACE FUNCTION ZN,0.0,0.00,0.00,7.60,50.00,10.85,9.50,1,1,1,0.00,100.00,0.00,25.00,7.60,11.40,3.80,7125.00,TARP,TARP,1875.00,380.00,285.00,95.00,6,1,0,Yes
 Zone Information, AUDIENCE SEATING AREA PERMANENT - GYMNASIUM-SPACE FUNCTION ZN,0.0,0.00,0.00,3.80,50.00,10.85,5.70,1,1,1,0.00,100.00,0.00,25.00,3.80,7.60,3.80,7125.00,TARP,TARP,1875.00,380.00,285.00,95.00,6,1,0,Yes
 Zone Information, AUDIENCE SEATING AREA PERMANENT - MOTION PICTURE THEATRE-SPACE FUNCTION ZN,0.0,25.00,75.00,0.00,50.00,89.15,1.90,1,1,1,0.00,100.00,75.00,100.00,0.00,3.80,3.80,7125.00,TARP,TARP,1875.00,0.00,0.00,0.00,6,0,0,Yes
 Zone Information, AUDIENCE SEATING AREA PERMANENT - OTHER-SCH-A-SPACE FUNCTION ZN,0.0,0.00,0.00,0.00,50.00,10.85,1.90,1,1,1,0.00,100.00,0.00,25.00,0.00,3.80,3.80,7125.00,TARP,TARP,1875.00,0.00,0.00,0.00,6,0,0,Yes
 Zone Information, AUDIENCE SEATING AREA PERMANENT - OTHER-SCH-B-SPACE FUNCTION ZN,0.0,75.00,25.00,0.00,89.15,50.00,1.90,1,1,1,75.00,100.00,0.00,100.00,0.00,3.80,3.80,7125.00,TARP,TARP,1875.00,0.00,0.00,0.00,6,0,0,Yes
 Zone Information, AUDIENCE SEATING AREA PERMANENT - OTHER-SCH-C-SPACE FUNCTION ZN,0.0,0.00,0.00,3.80,10.85,50.00,5.70,1,1,1,0.00,25.00,0.00,100.00,3.80,7.60,3.80,7125.00,TARP,TARP,1875.00,380.00,285.00,95.00,6,1,0,Yes
 Zone Information, AUDIENCE SEATING AREA PERMANENT - OTHER-SCH-D-SPACE FUNCTION ZN,0.0,0.00,0.00,7.60,10.85,50.00,9.50,1,1,1,0.00,25.00,0.00,100.00,7.60,11.40,3.80,7125.00,TARP,TARP,1875.00,380.00,285.00,95.00,6,1,0,Yes
 Zone Information, AUDIENCE SEATING AREA PERMANENT - OTHER-SCH-E-SPACE FUNCTION ZN,0.0,25.00,25.00,0.00,50.00,50.00,1.90,1,1,1,25.00,75.00,25.00,75.00,0.00,3.80,3.80,9500.00,TARP,TARP,2500.00,0.00,0.00,0.00,6,0,0,Yes
 Zone Information, AUDIENCE SEATING AREA PERMANENT - OTHER-SCH-F-SPACE FUNCTION ZN,0.0,25.00,75.00,3.80,50.00,89.15,5.70,1,1,1,0.00,100.00,75.00,100.00,3.80,7.60,3.80,7125.00,TARP,TARP,1875.00,380.00,285.00,95.00,6,1,0,Yes
 Zone Information, AUDIENCE SEATING AREA PERMANENT - OTHER-SCH-G-SPACE FUNCTION ZN,0.0,75.00,25.00,3.80,89.15,50.00,5.70,1,1,1,75.00,100.00,0.00,100.00,3.80,7.60,3.80,7125.00,TARP,TARP,1875.00,380.00,285.00,95.00,6,1,0,Yes
 Zone Information, AUDIENCE SEATING AREA PERMANENT - PENITENTIARY-SPACE FUNCTION ZN,0.0,0.00,0.00,11.40,10.85,50.00,13.30,1,1,1,0.00,25.00,0.00,100.00,11.40,15.20,3.80,7125.00,TARP,TARP,1875.00,380.00,285.00,188.75,6,2,0,Yes
 Zone Information, AUDIENCE SEATING AREA PERMANENT - PERFORMING ARTS THEATRE-SPACE FUNCTION ZN,0.0,25.00,25.00,3.80,50.00,50.00,5.70,1,1,1,25.00,75.00,25.00,75.00,3.80,7.60,3.80,9500.00,TARP,TARP,2500.00,0.00,0.00,0.00,6,0,0,Yes
 Zone Information, AUDIENCE SEATING AREA PERMANENT - RELIGIOUS BUILDING-SPACE FUNCTION ZN,0.0,75.00,25.00,11.40,89.15,50.00,13.30,1,1,1,75.00,100.00,0.00,100.00,11.40,15.20,3.80,7125.00,TARP,TARP,1875.00,380.00,285.00,188.75,6,2,0,Yes
 Zone Information, AUDIENCE SEATING AREA PERMANENT - SPORTS ARENA-SPACE FUNCTION ZN,0.0,25.00,75.00,11.40,50.00,89.15,13.30,1,1,1,0.00,100.00,75.00,100.00,11.40,15.20,3.80,7125.00,TARP,TARP,1875.00,380.00,285.00,188.75,6,2,0,Yes
! <Zone Internal Gains Nominal>,Zone Name, Floor Area {m2},# Occupants,Area per Occupant {m2/person},Occupant per Area {person/m2},Interior Lighting {W/m2},Electric Load {W/m2},Gas Load {W/m2},Other Load {W/m2},Hot Water Eq {W/m2},Steam Equipment {W/m2},Sum Loads per Area {W/m2},Outdoor Controlled Baseboard Heat
 Zone Internal Gains Nominal, ATRIUM (6 =< HEIGHT <= 12M)-SCH-G-SPACE FUNCTION ZN,1875.00,187.6,9.996,0.100,1.060,2.501,0.000,0.000,0.000,0.000,3.561,No
 Zone Internal Gains Nominal, ATRIUM (6 =< HEIGHT <= 12M)-SCH-H-SPACE FUNCTION ZN,2500.00,250.1,9.996,0.100,1.060,2.501,0.000,0.000,0.000,0.000,3.561,No
 Zone Internal Gains Nominal, ATRIUM (6 =< HEIGHT <= 12M)-SCH-I-SPACE FUNCTION ZN,1875.00,187.6,9.996,0.100,1.060,2.501,0.000,0.000,0.000,0.000,3.561,No
 Zone Internal Gains Nominal, ATRIUM (6 =< HEIGHT <= 12M)-SCH-J-SPACE FUNCTION ZN,1875.00,187.6,9.996,0.100,1.060,2.501,0.000,0.000,0.000,0.000,3.561,No
 Zone Internal Gains Nominal, ATRIUM (6 =< HEIGHT <= 12M)-SCH-K-SPACE FUNCTION ZN,1875.00,187.6,9.996,0.100,1.060,2.501,0.000,0.000,0.000,0.000,3.561,No
 Zone Internal Gains Nominal, AUDIENCE SEATING AREA PERMANENT - AUDITORIUM-SPACE FUNCTION ZN,2500.00,500.2,4.998,0.200,6.802,2.501,0.000,0.000,0.000,0.000,9.303,No
 Zone Internal Gains Nominal, AUDIENCE SEATING AREA PERMANENT - CONVENTION CENTRE-SPACE FUNCTION ZN,1875.00,375.1,4.998,0.200,8.903,2.501,0.000,0.000,0.000,0.000,11.404,No
 Zone Internal Gains Nominal, AUDIENCE SEATING AREA PERMANENT - GYMNASIUM-SPACE FUNCTION ZN,1875.00,375.1,4.998,0.200,7.003,0.000,0.000,0.000,0.000,0.000,7.003,No
 Zone Internal Gains Nominal, AUDIENCE SEATING AREA PERMANENT - MOTION PICTURE THEATRE-SPACE FUNCTION ZN,1875.00,375.1,4.998,0.200,12.304,2.501,0.000,0.000,0.000,0.000,14.805,No
 Zone Internal Gains Nominal, AUDIENCE SEATING AREA PERMANENT - OTHER-SCH-A-SPACE FUNCTION ZN,1875.00,375.1,4.998,0.200,4.602,1.000,0.000,0.000,0.000,0.000,5.602,No
 Zone Internal Gains Nominal, AUDIENCE SEATING AREA PERMANENT - OTHER-SCH-B-SPACE FUNCTION ZN,1875.00,375.1,4.998,0.200,4.602,1.000,0.000,0.000,0.000,0.000,5.602,No
 Zone Internal Gains Nominal, AUDIENCE SEATING AREA PERMANENT - OTHER-SCH-C-SPACE FUNCTION ZN,1875.00,375.1,4.998,0.200,4.602,1.000,0.000,0.000,0.000,0.000,5.602,No
 Zone Internal Gains Nominal, AUDIENCE SEATING AREA PERMANENT - OTHER-SCH-D-SPACE FUNCTION ZN,1875.00,375.1,4.998,0.200,4.602,1.000,0.000,0.000,0.000,0.000,5.602,No
 Zone Internal Gains Nominal, AUDIENCE SEATING AREA PERMANENT - OTHER-SCH-E-SPACE FUNCTION ZN,2500.00,500.2,4.998,0.200,4.602,1.000,0.000,0.000,0.000,0.000,5.602,No
 Zone Internal Gains Nominal, AUDIENCE SEATING AREA PERMANENT - OTHER-SCH-F-SPACE FUNCTION ZN,1875.00,375.1,4.998,0.200,4.602,1.000,0.000,0.000,0.000,0.000,5.602,No
 Zone Internal Gains Nominal, AUDIENCE SEATING AREA PERMANENT - OTHER-SCH-G-SPACE FUNCTION ZN,1875.00,375.1,4.998,0.200,4.602,1.000,0.000,0.000,0.000,0.000,5.602,No
 Zone Internal Gains Nominal, AUDIENCE SEATING AREA PERMANENT - PENITENTIARY-SPACE FUNCTION ZN,1875.00,375.1,4.998,0.200,3.001,2.501,0.000,0.000,0.000,0.000,5.502,No
 Zone Internal Gains Nominal, AUDIENCE SEATING AREA PERMANENT - PERFORMING ARTS THEATRE-SPACE FUNCTION ZN,2500.00,333.5,7.497,0.133,26.210,2.501,0.000,0.000,0.000,0.000,28.710,No
 Zone Internal Gains Nominal, AUDIENCE SEATING AREA PERMANENT - RELIGIOUS BUILDING-SPACE FUNCTION ZN,1875.00,375.1,4.998,0.200,16.506,1.000,0.000,0.000,0.000,0.000,17.506,No
 Zone Internal Gains Nominal, AUDIENCE SEATING AREA PERMANENT - SPORTS ARENA-SPACE FUNCTION ZN,1875.00,375.1,4.998,0.200,4.602,0.000,0.000,0.000,0.000,0.000,4.602,No
! <People Internal Gains Nominal>,Name,Schedule Name,Zone Name,Zone Floor Area {m2},# Zone Occupants,Number of People {},People/Floor Area {person/m2},Floor Area per person {m2/person},Fraction Radiant,Fraction Convected,Sensible Fraction Calculation,Activity level,ASHRAE 55 Warnings,Carbon Dioxide Generation Rate,Nominal Minimum Number of People,Nominal Maximum Number of People
 People Internal Gains Nominal, ATRIUM (6 =< HEIGHT <= 12M)-SCH-G-SPACE FUNCTION ZN SPACE FUNCTION ATRIUM (6 =< HEIGHT <= 12M)-SCH-G PEOPLE,NECB-G-OCCUPANCY,ATRIUM (6 =< HEIGHT <= 12M)-SCH-G-SPACE FUNCTION ZN,1875.00,187.6,187.6,0.100,9.996,0.300,0.700,AutoCalculate,NECB-ACTIVITY,No,3.8200E-008,56,169
 People Internal Gains Nominal, ATRIUM (6 =< HEIGHT <= 12M)-SCH-H-SPACE FUNCTION ZN SPACE FUNCTION ATRIUM (6 =< HEIGHT <= 12M)-SCH-H PEOPLE,NECB-H-OCCUPANCY,ATRIUM (6 =< HEIGHT <= 12M)-SCH-H-SPACE FUNCTION ZN,2500.00,250.1,250.1,0.100,9.996,0.300,0.700,AutoCalculate,NECB-ACTIVITY,No,3.8200E-008,225,225
 People Internal Gains Nominal, ATRIUM (6 =< HEIGHT <= 12M)-SCH-I-SPACE FUNCTION ZN SPACE FUNCTION ATRIUM (6 =< HEIGHT <= 12M)-SCH-I PEOPLE,NECB-I-OCCUPANCY,ATRIUM (6 =< HEIGHT <= 12M)-SCH-I-SPACE FUNCTION ZN,1875.00,187.6,187.6,0.100,9.996,0.300,0.700,AutoCalculate,NECB-ACTIVITY,No,3.8200E-008,0,150
 People Internal Gains Nominal, ATRIUM (6 =< HEIGHT <= 12M)-SCH-J-SPACE FUNCTION ZN SPACE FUNCTION ATRIUM (6 =< HEIGHT <= 12M)-SCH-J PEOPLE,NECB-J-OCCUPANCY,ATRIUM (6 =< HEIGHT <= 12M)-SCH-J-SPACE FUNCTION ZN,1875.00,187.6,187.6,0.100,9.996,0.300,0.700,AutoCalculate,NECB-ACTIVITY,No,3.8200E-008,113,169
 People Internal Gains Nominal, ATRIUM (6 =< HEIGHT <= 12M)-SCH-K-SPACE FUNCTION ZN SPACE FUNCTION ATRIUM (6 =< HEIGHT <= 12M)-SCH-K PEOPLE,NECB-K-OCCUPANCY,ATRIUM (6 =< HEIGHT <= 12M)-SCH-K-SPACE FUNCTION ZN,1875.00,187.6,187.6,0.100,9.996,0.300,0.700,AutoCalculate,NECB-ACTIVITY,No,3.8200E-008,0,169
 People Internal Gains Nominal, AUDIENCE SEATING AREA PERMANENT - AUDITORIUM-SPACE FUNCTION ZN SPACE FUNCTION AUDIENCE SEATING AREA PERMANENT - AUDITORIUM PEOPLE,NECB-C-OCCUPANCY,AUDIENCE SEATING AREA PERMANENT - AUDITORIUM-SPACE FUNCTION ZN,2500.00,500.2,500.2,0.200,4.998,0.300,0.700,AutoCalculate,NECB-ACTIVITY,No,3.8200E-008,0,450
 People Internal Gains Nominal, AUDIENCE SEATING AREA PERMANENT - CONVENTION CENTRE-SPACE FUNCTION ZN SPACE FUNCTION AUDIENCE SEATING AREA PERMANENT - CONVENTION CENTRE PEOPLE,NECB-C-OCCUPANCY,AUDIENCE SEATING AREA PERMANENT - CONVENTION CENTRE-SPACE FUNCTION ZN,1875.00,375.1,375.1,0.200,4.998,0.300,0.700,AutoCalculate,NECB-ACTIVITY,No,3.8200E-008,0,338
 People Internal Gains Nominal, AUDIENCE SEATING AREA PERMANENT - GYMNASIUM-SPACE FUNCTION ZN SPACE FUNCTION AUDIENCE SEATING AREA PERMANENT - GYMNASIUM PEOPLE,NECB-B-OCCUPANCY,AUDIENCE SEATING AREA PERMANENT - GYMNASIUM-SPACE FUNCTION ZN,1875.00,375.1,375.1,0.200,4.998,0.300,0.700,AutoCalculate,NECB-ACTIVITY,No,3.8200E-008,0,338
 People Internal Gains Nominal, AUDIENCE SEATING AREA PERMANENT - MOTION PICTURE THEATRE-SPACE FUNCTION ZN SPACE FUNCTION AUDIENCE SEATING AREA PERMANENT - MOTION PICTURE THEATRE PEOPLE,NECB-C-OCCUPANCY,AUDIENCE SEATING AREA PERMANENT - MOTION PICTURE THEATRE-SPACE FUNCTION ZN,1875.00,375.1,375.1,0.200,4.998,0.300,0.700,AutoCalculate,NECB-ACTIVITY,No,3.8200E-008,0,338
 People Internal Gains Nominal, AUDIENCE SEATING AREA PERMANENT - OTHER-SCH-A-SPACE FUNCTION ZN SPACE FUNCTION AUDIENCE SEATING AREA PERMANENT - OTHER-SCH-A PEOPLE,NECB-A-OCCUPANCY,AUDIENCE SEATING AREA PERMANENT - OTHER-SCH-A-SPACE FUNCTION ZN,1875.00,375.1,375.1,0.200,4.998,0.300,0.700,AutoCalculate,NECB-ACTIVITY,No,3.8200E-008,0,338
 People Internal Gains Nominal, AUDIENCE SEATING AREA PERMANENT - OTHER-SCH-B-SPACE FUNCTION ZN SPACE FUNCTION AUDIENCE SEATING AREA PERMANENT - OTHER-SCH-B PEOPLE,NECB-B-OCCUPANCY,AUDIENCE SEATING AREA PERMANENT - OTHER-SCH-B-SPACE FUNCTION ZN,1875.00,375.1,375.1,0.200,4.998,0.300,0.700,AutoCalculate,NECB-ACTIVITY,No,3.8200E-008,0,338
 People Internal Gains Nominal, AUDIENCE SEATING AREA PERMANENT - OTHER-SCH-C-SPACE FUNCTION ZN SPACE FUNCTION AUDIENCE SEATING AREA PERMANENT - OTHER-SCH-C PEOPLE,NECB-C-OCCUPANCY,AUDIENCE SEATING AREA PERMANENT - OTHER-SCH-C-SPACE FUNCTION ZN,1875.00,375.1,375.1,0.200,4.998,0.300,0.700,AutoCalculate,NECB-ACTIVITY,No,3.8200E-008,0,338
 People Internal Gains Nominal, AUDIENCE SEATING AREA PERMANENT - OTHER-SCH-D-SPACE FUNCTION ZN SPACE FUNCTION AUDIENCE SEATING AREA PERMANENT - OTHER-SCH-D PEOPLE,NECB-D-OCCUPANCY,AUDIENCE SEATING AREA PERMANENT - OTHER-SCH-D-SPACE FUNCTION ZN,1875.00,375.1,375.1,0.200,4.998,0.300,0.700,AutoCalculate,NECB-ACTIVITY,No,3.8200E-008,0,338
 People Internal Gains Nominal, AUDIENCE SEATING AREA PERMANENT - OTHER-SCH-E-SPACE FUNCTION ZN SPACE FUNCTION AUDIENCE SEATING AREA PERMANENT - OTHER-SCH-E PEOPLE,NECB-E-OCCUPANCY,AUDIENCE SEATING AREA PERMANENT - OTHER-SCH-E-SPACE FUNCTION ZN,2500.00,500.2,500.2,0.200,4.998,0.300,0.700,AutoCalculate,NECB-ACTIVITY,No,3.8200E-008,0,450
 People Internal Gains Nominal, AUDIENCE SEATING AREA PERMANENT - OTHER-SCH-F-SPACE FUNCTION ZN SPACE FUNCTION AUDIENCE SEATING AREA PERMANENT - OTHER-SCH-F PEOPLE,NECB-F-OCCUPANCY,AUDIENCE SEATING AREA PERMANENT - OTHER-SCH-F-SPACE FUNCTION ZN,1875.00,375.1,375.1,0.200,4.998,0.300,0.700,AutoCalculate,NECB-ACTIVITY,No,3.8200E-008,53,236
 People Internal Gains Nominal, AUDIENCE SEATING AREA PERMANENT - OTHER-SCH-G-SPACE FUNCTION ZN SPACE FUNCTION AUDIENCE SEATING AREA PERMANENT - OTHER-SCH-G PEOPLE,NECB-G-OCCUPANCY,AUDIENCE SEATING AREA PERMANENT - OTHER-SCH-G-SPACE FUNCTION ZN,1875.00,375.1,375.1,0.200,4.998,0.300,0.700,AutoCalculate,NECB-ACTIVITY,No,3.8200E-008,113,338
 People Internal Gains Nominal, AUDIENCE SEATING AREA PERMANENT - PENITENTIARY-SPACE FUNCTION ZN SPACE FUNCTION AUDIENCE SEATING AREA PERMANENT - PENITENTIARY PEOPLE,NECB-C-OCCUPANCY,AUDIENCE SEATING AREA PERMANENT - PENITENTIARY-SPACE FUNCTION ZN,1875.00,375.1,375.1,0.200,4.998,0.300,0.700,AutoCalculate,NECB-ACTIVITY,No,3.8200E-008,0,338
 People Internal Gains Nominal, AUDIENCE SEATING AREA PERMANENT - PERFORMING ARTS THEATRE-SPACE FUNCTION ZN SPACE FUNCTION AUDIENCE SEATING AREA PERMANENT - PERFORMING ARTS THEATRE PEOPLE,NECB-C-OCCUPANCY,AUDIENCE SEATING AREA PERMANENT - PERFORMING ARTS THEATRE-SPACE FUNCTION ZN,2500.00,333.5,333.5,0.133,7.497,0.300,0.700,AutoCalculate,NECB-ACTIVITY,No,3.8200E-008,0,300
 People Internal Gains Nominal, AUDIENCE SEATING AREA PERMANENT - RELIGIOUS BUILDING-SPACE FUNCTION ZN SPACE FUNCTION AUDIENCE SEATING AREA PERMANENT - RELIGIOUS BUILDING PEOPLE,NECB-I-OCCUPANCY,AUDIENCE SEATING AREA PERMANENT - RELIGIOUS BUILDING-SPACE FUNCTION ZN,1875.00,375.1,375.1,0.200,4.998,0.300,0.700,AutoCalculate,NECB-ACTIVITY,No,3.8200E-008,0,300
 People Internal Gains Nominal, AUDIENCE SEATING AREA PERMANENT - SPORTS ARENA-SPACE FUNCTION ZN SPACE FUNCTION AUDIENCE SEATING AREA PERMANENT - SPORTS ARENA PEOPLE,NECB-B-OCCUPANCY,AUDIENCE SEATING AREA PERMANENT - SPORTS ARENA-SPACE FUNCTION ZN,1875.00,375.1,375.1,0.200,4.998,0.300,0.700,AutoCalculate,NECB-ACTIVITY,No,3.8200E-008,0,338
! <Lights Internal Gains Nominal>,Name,Schedule Name,Zone Name,Zone Floor Area {m2},# Zone Occupants,Lighting Level {W},Lights/Floor Area {W/m2},Lights per person {W/person},Fraction Return Air,Fraction Radiant,Fraction Short Wave,Fraction Convected,Fraction Replaceable,End-Use Category,Nominal Minimum Lighting Level {W},Nominal Maximum Lighting Level {W}
 Lights Internal Gains Nominal, ATRIUM (6 =< HEIGHT <= 12M)-SCH-G-SPACE FUNCTION ZN SPACE FUNCTION ATRIUM (6 =< HEIGHT <= 12M)-SCH-G LIGHTS,NECB-G-LIGHTING,ATRIUM (6 =< HEIGHT <= 12M)-SCH-G-SPACE FUNCTION ZN,1875.00,187.6,1988.222,1.060,10.600,0.000,0.500,0.200,0.300,1.000,General,0.000,1789.400
 Lights Internal Gains Nominal, ATRIUM (6 =< HEIGHT <= 12M)-SCH-H-SPACE FUNCTION ZN SPACE FUNCTION ATRIUM (6 =< HEIGHT <= 12M)-SCH-H LIGHTS,NECB-H-LIGHTING,ATRIUM (6 =< HEIGHT <= 12M)-SCH-H-SPACE FUNCTION ZN,2500.00,250.1,2650.963,1.060,10.600,0.000,0.500,0.200,0.300,1.000,General,2385.867,2385.867
 Lights Internal Gains Nominal, ATRIUM (6 =< HEIGHT <= 12M)-SCH-I-SPACE FUNCTION ZN SPACE FUNCTION ATRIUM (6 =< HEIGHT <= 12M)-SCH-I LIGHTS,NECB-I-LIGHTING,ATRIUM (6 =< HEIGHT <= 12M)-SCH-I-SPACE FUNCTION ZN,1875.00,187.6,1988.222,1.060,10.600,0.000,0.500,0.200,0.300,1.000,General,99.411,1789.400
 Lights Internal Gains Nominal, ATRIUM (6 =< HEIGHT <= 12M)-SCH-J-SPACE FUNCTION ZN SPACE FUNCTION ATRIUM (6 =< HEIGHT <= 12M)-SCH-J LIGHTS,NECB-J-LIGHTING,ATRIUM (6 =< HEIGHT <= 12M)-SCH-J-SPACE FUNCTION ZN,1875.00,187.6,1988.222,1.060,10.600,0.000,0.500,0.200,0.300,1.000,General,198.822,1391.756
 Lights Internal Gains Nominal, ATRIUM (6 =< HEIGHT <= 12M)-SCH-K-SPACE FUNCTION ZN SPACE FUNCTION ATRIUM (6 =< HEIGHT <= 12M)-SCH-K LIGHTS,NECB-K-LIGHTING,ATRIUM (6 =< HEIGHT <= 12M)-SCH-K-SPACE FUNCTION ZN,1875.00,187.6,1988.222,1.060,10.600,0.000,0.500,0.200,0.300,1.000,General,1789.400,1789.400
 Lights Internal Gains Nominal, AUDIENCE SEATING AREA PERMANENT - AUDITORIUM-SPACE FUNCTION ZN SPACE FUNCTION AUDIENCE SEATING AREA PERMANENT - AUDITORIUM LIGHTS,NECB-C-LIGHTING,AUDIENCE SEATING AREA PERMANENT - AUDITORIUM-SPACE FUNCTION ZN,2500.00,500.2,17006.178,6.802,34.000,0.000,0.500,0.200,0.300,1.000,General,850.309,15305.560
 Lights Internal Gains Nominal, AUDIENCE SEATING AREA PERMANENT - CONVENTION CENTRE-SPACE FUNCTION ZN SPACE FUNCTION AUDIENCE SEATING AREA PERMANENT - CONVENTION CENTRE LIGHTS,NECB-C-OCCUPANCY-NECB-C-LIGHTING-0.2-0.0-0.67-LIGHT RULESET,AUDIENCE SEATING AREA PERMANENT - CONVENTION CENTRE-SPACE FUNCTION ZN,1875.00,375.1,16693.565,8.903,44.500,0.000,0.500,0.200,0.300,1.000,General,722.831,15024.208
 Lights Internal Gains Nominal, AUDIENCE SEATING AREA PERMANENT - GYMNASIUM-SPACE FUNCTION ZN SPACE FUNCTION AUDIENCE SEATING AREA PERMANENT - GYMNASIUM LIGHTS,NECB-B-LIGHTING,AUDIENCE SEATING AREA PERMANENT - GYMNASIUM-SPACE FUNCTION ZN,1875.00,375.1,13129.770,7.003,35.000,0.000,0.500,0.200,0.300,1.000,General,1312.977,11816.793
 Lights Internal Gains Nominal, AUDIENCE SEATING AREA PERMANENT - MOTION PICTURE THEATRE-SPACE FUNCTION ZN SPACE FUNCTION AUDIENCE SEATING AREA PERMANENT - MOTION PICTURE THEATRE LIGHTS,NECB-C-OCCUPANCY-NECB-C-LIGHTING-0.0-0.0-0.67-LIGHT RULESET,AUDIENCE SEATING AREA PERMANENT - MOTION PICTURE THEATRE-SPACE FUNCTION ZN,1875.00,375.1,23070.881,12.304,61.500,0.000,0.500,0.200,0.300,1.000,General,1153.544,20763.793
 Lights Internal Gains Nominal, AUDIENCE SEATING AREA PERMANENT - OTHER-SCH-A-SPACE FUNCTION ZN SPACE FUNCTION AUDIENCE SEATING AREA PERMANENT - OTHER-SCH-A LIGHTS,NECB-A-LIGHTING,AUDIENCE SEATING AREA PERMANENT - OTHER-SCH-A-SPACE FUNCTION ZN,1875.00,375.1,8628.135,4.602,23.000,0.000,0.500,0.200,0.300,1.000,General,431.407,7765.321
 Lights Internal Gains Nominal, AUDIENCE SEATING AREA PERMANENT - OTHER-SCH-B-SPACE FUNCTION ZN SPACE FUNCTION AUDIENCE SEATING AREA PERMANENT - OTHER-SCH-B LIGHTS,NECB-B-LIGHTING,AUDIENCE SEATING AREA PERMANENT - OTHER-SCH-B-SPACE FUNCTION ZN,1875.00,375.1,8628.135,4.602,23.000,0.000,0.500,0.200,0.300,1.000,General,862.813,7765.321
 Lights Internal Gains Nominal, AUDIENCE SEATING AREA PERMANENT - OTHER-SCH-C-SPACE FUNCTION ZN SPACE FUNCTION AUDIENCE SEATING AREA PERMANENT - OTHER-SCH-C LIGHTS,NECB-C-LIGHTING,AUDIENCE SEATING AREA PERMANENT - OTHER-SCH-C-SPACE FUNCTION ZN,1875.00,375.1,8628.135,4.602,23.000,0.000,0.500,0.200,0.300,1.000,General,431.407,7765.321
 Lights Internal Gains Nominal, AUDIENCE SEATING AREA PERMANENT - OTHER-SCH-D-SPACE FUNCTION ZN SPACE FUNCTION AUDIENCE SEATING AREA PERMANENT - OTHER-SCH-D LIGHTS,NECB-D-LIGHTING,AUDIENCE SEATING AREA PERMANENT - OTHER-SCH-D-SPACE FUNCTION ZN,1875.00,375.1,8628.135,4.602,23.000,0.000,0.500,0.200,0.300,1.000,General,431.407,7765.321
 Lights Internal Gains Nominal, AUDIENCE SEATING AREA PERMANENT - OTHER-SCH-E-SPACE FUNCTION ZN SPACE FUNCTION AUDIENCE SEATING AREA PERMANENT - OTHER-SCH-E LIGHTS,NECB-E-LIGHTING,AUDIENCE SEATING AREA PERMANENT - OTHER-SCH-E-SPACE FUNCTION ZN,2500.00,500.2,11504.179,4.602,23.000,0.000,0.500,0.200,0.300,1.000,General,575.209,10353.761
 Lights Internal Gains Nominal, AUDIENCE SEATING AREA PERMANENT - OTHER-SCH-F-SPACE FUNCTION ZN SPACE FUNCTION AUDIENCE SEATING AREA PERMANENT - OTHER-SCH-F LIGHTS,NECB-F-LIGHTING,AUDIENCE SEATING AREA PERMANENT - OTHER-SCH-F-SPACE FUNCTION ZN,1875.00,375.1,8628.135,4.602,23.000,0.000,0.500,0.200,0.300,1.000,General,603.969,5435.725
 Lights Internal Gains Nominal, AUDIENCE SEATING AREA PERMANENT - OTHER-SCH-G-SPACE FUNCTION ZN SPACE FUNCTION AUDIENCE SEATING AREA PERMANENT - OTHER-SCH-G LIGHTS,NECB-G-LIGHTING,AUDIENCE SEATING AREA PERMANENT - OTHER-SCH-G-SPACE FUNCTION ZN,1875.00,375.1,8628.135,4.602,23.000,0.000,0.500,0.200,0.300,1.000,General,0.000,7765.321
 Lights Internal Gains Nominal, AUDIENCE SEATING AREA PERMANENT - PENITENTIARY-SPACE FUNCTION ZN SPACE FUNCTION AUDIENCE SEATING AREA PERMANENT - PENITENTIARY LIGHTS,NECB-C-LIGHTING,AUDIENCE SEATING AREA PERMANENT - PENITENTIARY-SPACE FUNCTION ZN,1875.00,375.1,5627.044,3.001,15.000,0.000,0.500,0.200,0.300,1.000,General,281.352,5064.340
 Lights Internal Gains Nominal, AUDIENCE SEATING AREA PERMANENT - PERFORMING ARTS THEATRE-SPACE FUNCTION ZN SPACE FUNCTION AUDIENCE SEATING AREA PERMANENT - PERFORMING ARTS THEATRE LIGHTS,NECB-C-OCCUPANCY-NECB-C-LIGHTING-0.0-0.0-0.67-LIGHT RULESET,AUDIENCE SEATING AREA PERMANENT - PERFORMING ARTS THEATRE-SPACE FUNCTION ZN,2500.00,333.5,65523.804,26.210,196.500,0.000,0.500,0.200,0.300,1.000,General,3276.190,58971.424
 Lights Internal Gains Nominal, AUDIENCE SEATING AREA PERMANENT - RELIGIOUS BUILDING-SPACE FUNCTION ZN SPACE FUNCTION AUDIENCE SEATING AREA PERMANENT - RELIGIOUS BUILDING LIGHTS,NECB-I-OCCUPANCY-NECB-I-LIGHTING-0.3-0.0-0.67-LIGHT RULESET,AUDIENCE SEATING AREA PERMANENT - RELIGIOUS BUILDING-SPACE FUNCTION ZN,1875.00,375.1,30948.743,16.506,82.500,0.000,0.500,0.200,0.300,1.000,General,1236.402,27853.869
 Lights Internal Gains Nominal, AUDIENCE SEATING AREA PERMANENT - SPORTS ARENA-SPACE FUNCTION ZN SPACE FUNCTION AUDIENCE SEATING AREA PERMANENT - SPORTS ARENA LIGHTS,NECB-B-LIGHTING,AUDIENCE SEATING AREA PERMANENT - SPORTS ARENA-SPACE FUNCTION ZN,1875.00,375.1,8628.135,4.602,23.000,0.000,0.500,0.200,0.300,1.000,General,862.813,7765.321
! <ElectricEquipment Internal Gains Nominal>,Name,Schedule Name,Zone Name,Zone Floor Area {m2},# Zone Occupants,Equipment Level {W},Equipment/Floor Area {W/m2},Equipment per person {W/person},Fraction Latent,Fraction Radiant,Fraction Lost,Fraction Convected,End-Use SubCategory,Nominal Minimum Equipment Level {W},Nominal Maximum Equipment Level {W}
 ElectricEquipment Internal Gains Nominal, ATRIUM (6 =< HEIGHT <= 12M)-SCH-G-SPACE FUNCTION ZN SPACE FUNCTION ATRIUM (6 =< HEIGHT <= 12M)-SCH-G ELEC EQUIP,NECB-G-ELECTRIC-EQUIPMENT,ATRIUM (6 =< HEIGHT <= 12M)-SCH-G-SPACE FUNCTION ZN,1875.00,187.6,4689.204,2.501,25.000,0.000,0.500,0.000,0.500,General,937.841,4220.283
 ElectricEquipment Internal Gains Nominal, ATRIUM (6 =< HEIGHT <= 12M)-SCH-H-SPACE FUNCTION ZN SPACE FUNCTION ATRIUM (6 =< HEIGHT <= 12M)-SCH-H ELEC EQUIP,NECB-H-ELECTRIC-EQUIPMENT,ATRIUM (6 =< HEIGHT <= 12M)-SCH-H-SPACE FUNCTION ZN,2500.00,250.1,6252.271,2.501,25.000,0.000,0.500,0.000,0.500,General,5627.044,5627.044
 ElectricEquipment Internal Gains Nominal, ATRIUM (6 =< HEIGHT <= 12M)-SCH-I-SPACE FUNCTION ZN SPACE FUNCTION ATRIUM (6 =< HEIGHT <= 12M)-SCH-I ELEC EQUIP,NECB-I-ELECTRIC-EQUIPMENT,ATRIUM (6 =< HEIGHT <= 12M)-SCH-I-SPACE FUNCTION ZN,1875.00,187.6,4689.204,2.501,25.000,0.000,0.500,0.000,0.500,General,468.920,3751.363
 ElectricEquipment Internal Gains Nominal, ATRIUM (6 =< HEIGHT <= 12M)-SCH-J-SPACE FUNCTION ZN SPACE FUNCTION ATRIUM (6 =< HEIGHT <= 12M)-SCH-J ELEC EQUIP,NECB-J-ELECTRIC-EQUIPMENT,ATRIUM (6 =< HEIGHT <= 12M)-SCH-J-SPACE FUNCTION ZN,1875.00,187.6,4689.204,2.501,25.000,0.000,0.500,0.000,0.500,General,468.920,3282.442
 ElectricEquipment Internal Gains Nominal, ATRIUM (6 =< HEIGHT <= 12M)-SCH-K-SPACE FUNCTION ZN SPACE FUNCTION ATRIUM (6 =< HEIGHT <= 12M)-SCH-K ELEC EQUIP,NECB-K-ELECTRIC-EQUIPMENT,ATRIUM (6 =< HEIGHT <= 12M)-SCH-K-SPACE FUNCTION ZN,1875.00,187.6,4689.204,2.501,25.000,0.000,0.500,0.000,0.500,General,0.000,0.000
 ElectricEquipment Internal Gains Nominal, AUDIENCE SEATING AREA PERMANENT - AUDITORIUM-SPACE FUNCTION ZN SPACE FUNCTION AUDIENCE SEATING AREA PERMANENT - AUDITORIUM ELEC EQUIP,NECB-C-ELECTRIC-EQUIPMENT,AUDIENCE SEATING AREA PERMANENT - AUDITORIUM-SPACE FUNCTION ZN,2500.00,500.2,6252.271,2.501,12.500,0.000,0.500,0.000,0.500,General,312.614,5627.044
 ElectricEquipment Internal Gains Nominal, AUDIENCE SEATING AREA PERMANENT - CONVENTION CENTRE-SPACE FUNCTION ZN SPACE FUNCTION AUDIENCE SEATING AREA PERMANENT - CONVENTION CENTRE ELEC EQUIP,NECB-C-ELECTRIC-EQUIPMENT,AUDIENCE SEATING AREA PERMANENT - CONVENTION CENTRE-SPACE FUNCTION ZN,1875.00,375.1,4689.204,2.501,12.500,0.000,0.500,0.000,0.500,General,234.460,4220.283
 ElectricEquipment Internal Gains Nominal, AUDIENCE SEATING AREA PERMANENT - MOTION PICTURE THEATRE-SPACE FUNCTION ZN SPACE FUNCTION AUDIENCE SEATING AREA PERMANENT - MOTION PICTURE THEATRE ELEC EQUIP,NECB-C-ELECTRIC-EQUIPMENT,AUDIENCE SEATING AREA PERMANENT - MOTION PICTURE THEATRE-SPACE FUNCTION ZN,1875.00,375.1,4689.204,2.501,12.500,0.000,0.500,0.000,0.500,General,234.460,4220.283
 ElectricEquipment Internal Gains Nominal, AUDIENCE SEATING AREA PERMANENT - OTHER-SCH-A-SPACE FUNCTION ZN SPACE FUNCTION AUDIENCE SEATING AREA PERMANENT - OTHER-SCH-A ELEC EQUIP,NECB-A-ELECTRIC-EQUIPMENT,AUDIENCE SEATING AREA PERMANENT - OTHER-SCH-A-SPACE FUNCTION ZN,1875.00,375.1,1875.681,1.000,5.000,0.000,0.500,0.000,0.500,General,375.136,1688.113
 ElectricEquipment Internal Gains Nominal, AUDIENCE SEATING AREA PERMANENT - OTHER-SCH-B-SPACE FUNCTION ZN SPACE FUNCTION AUDIENCE SEATING AREA PERMANENT - OTHER-SCH-B ELEC EQUIP,NECB-B-ELECTRIC-EQUIPMENT,AUDIENCE SEATING AREA PERMANENT - OTHER-SCH-B-SPACE FUNCTION ZN,1875.00,375.1,1875.681,1.000,5.000,0.000,0.500,0.000,0.500,General,187.568,1688.113
 ElectricEquipment Internal Gains Nominal, AUDIENCE SEATING AREA PERMANENT - OTHER-SCH-C-SPACE FUNCTION ZN SPACE FUNCTION AUDIENCE SEATING AREA PERMANENT - OTHER-SCH-C ELEC EQUIP,NECB-C-ELECTRIC-EQUIPMENT,AUDIENCE SEATING AREA PERMANENT - OTHER-SCH-C-SPACE FUNCTION ZN,1875.00,375.1,1875.681,1.000,5.000,0.000,0.500,0.000,0.500,General,93.784,1688.113
 ElectricEquipment Internal Gains Nominal, AUDIENCE SEATING AREA PERMANENT - OTHER-SCH-D-SPACE FUNCTION ZN SPACE FUNCTION AUDIENCE SEATING AREA PERMANENT - OTHER-SCH-D ELEC EQUIP,NECB-D-ELECTRIC-EQUIPMENT,AUDIENCE SEATING AREA PERMANENT - OTHER-SCH-D-SPACE FUNCTION ZN,1875.00,375.1,1875.681,1.000,5.000,0.000,0.500,0.000,0.500,General,93.784,1688.113
 ElectricEquipment Internal Gains Nominal, AUDIENCE SEATING AREA PERMANENT - OTHER-SCH-E-SPACE FUNCTION ZN SPACE FUNCTION AUDIENCE SEATING AREA PERMANENT - OTHER-SCH-E ELEC EQUIP,NECB-E-ELECTRIC-EQUIPMENT,AUDIENCE SEATING AREA PERMANENT - OTHER-SCH-E-SPACE FUNCTION ZN,2500.00,500.2,2500.909,1.000,5.000,0.000,0.500,0.000,0.500,General,125.045,2250.818
 ElectricEquipment Internal Gains Nominal, AUDIENCE SEATING AREA PERMANENT - OTHER-SCH-F-SPACE FUNCTION ZN SPACE FUNCTION AUDIENCE SEATING AREA PERMANENT - OTHER-SCH-F ELEC EQUIP,NECB-F-ELECTRIC-EQUIPMENT,AUDIENCE SEATING AREA PERMANENT - OTHER-SCH-F-SPACE FUNCTION ZN,1875.00,375.1,1875.681,1.000,5.000,0.000,0.500,0.000,0.500,General,131.298,1181.679
 ElectricEquipment Internal Gains Nominal, AUDIENCE SEATING AREA PERMANENT - OTHER-SCH-G-SPACE FUNCTION ZN SPACE FUNCTION AUDIENCE SEATING AREA PERMANENT - OTHER-SCH-G ELEC EQUIP,NECB-G-ELECTRIC-EQUIPMENT,AUDIENCE SEATING AREA PERMANENT - OTHER-SCH-G-SPACE FUNCTION ZN,1875.00,375.1,1875.681,1.000,5.000,0.000,0.500,0.000,0.500,General,375.136,1688.113
 ElectricEquipment Internal Gains Nominal, AUDIENCE SEATING AREA PERMANENT - PENITENTIARY-SPACE FUNCTION ZN SPACE FUNCTION AUDIENCE SEATING AREA PERMANENT - PENITENTIARY ELEC EQUIP,NECB-C-ELECTRIC-EQUIPMENT,AUDIENCE SEATING AREA PERMANENT - PENITENTIARY-SPACE FUNCTION ZN,1875.00,375.1,4689.204,2.501,12.500,0.000,0.500,0.000,0.500,General,234.460,4220.283
 ElectricEquipment Internal Gains Nominal, AUDIENCE SEATING AREA PERMANENT - PERFORMING ARTS THEATRE-SPACE FUNCTION ZN SPACE FUNCTION AUDIENCE SEATING AREA PERMANENT - PERFORMING ARTS THEATRE ELEC EQUIP,NECB-C-ELECTRIC-EQUIPMENT,AUDIENCE SEATING AREA PERMANENT - PERFORMING ARTS THEATRE-SPACE FUNCTION ZN,2500.00,333.5,6252.271,2.501,18.750,0.000,0.500,0.000,0.500,General,312.614,5627.044
 ElectricEquipment Internal Gains Nominal, AUDIENCE SEATING AREA PERMANENT - RELIGIOUS BUILDING-SPACE FUNCTION ZN SPACE FUNCTION AUDIENCE SEATING AREA PERMANENT - RELIGIOUS BUILDING ELEC EQUIP,NECB-I-ELECTRIC-EQUIPMENT,AUDIENCE SEATING AREA PERMANENT - RELIGIOUS BUILDING-SPACE FUNCTION ZN,1875.00,375.1,1875.681,1.000,5.000,0.000,0.500,0.000,0.500,General,187.568,1500.545
! <Shadowing/Sun Position Calculations Annual Simulations>, Calculation Method, Value {days}, Allowable Number Figures in Shadow Overlap {}, Polygon Clipping Algorithm, Sky Diffuse Modeling Algorithm, External Shading Calculation Method, Output External Shading Calculation Results, Disable Self-Shading Within Shading Zone Groups, Disable Self-Shading From Shading Zone Groups to Other Zones
Shadowing/Sun Position Calculations Annual Simulations,AverageOverDaysInFrequency,20,15000,SutherlandHodgman,SimpleSkyDiffuseModeling,InternalCalculation,No,No,No
! <ZoneInfiltration Airflow Stats Nominal>,Name,Schedule Name,Zone Name, Zone Floor Area {m2}, # Zone Occupants,Design Volume Flow Rate {m3/s},Volume Flow Rate/Floor Area {m3/s/m2},Volume Flow Rate/Exterior Surface Area {m3/s/m2},ACH - Air Changes per Hour,Equation A - Constant Term Coefficient {},Equation B - Temperature Term Coefficient {1/C},Equation C - Velocity Term Coefficient {s/m}, Equation D - Velocity Squared Term Coefficient {s2/m2}
 ZoneInfiltration Airflow Stats Nominal, ATRIUM (6 =< HEIGHT <= 12M)-SCH-G-SPACE FUNCTION INFILTRATION,ALWAYS ON DISCRETE,ATRIUM (6 =< HEIGHT <= 12M)-SCH-G-SPACE FUNCTION ZN,1875.00,187.6,0.564,3.007E-004,2.500E-004,0.285,0.000,0.000,0.224,0.000
 ZoneInfiltration Airflow Stats Nominal, ATRIUM (6 =< HEIGHT <= 12M)-SCH-I-SPACE FUNCTION INFILTRATION,ALWAYS ON DISCRETE,ATRIUM (6 =< HEIGHT <= 12M)-SCH-I-SPACE FUNCTION ZN,1875.00,187.6,9.500E-002,5.067E-005,2.500E-004,4.800E-002,0.000,0.000,0.224,0.000
 ZoneInfiltration Airflow Stats Nominal, ATRIUM (6 =< HEIGHT <= 12M)-SCH-J-SPACE FUNCTION INFILTRATION,ALWAYS ON DISCRETE,ATRIUM (6 =< HEIGHT <= 12M)-SCH-J-SPACE FUNCTION ZN,1875.00,187.6,9.500E-002,5.067E-005,2.500E-004,4.800E-002,0.000,0.000,0.224,0.000
 ZoneInfiltration Airflow Stats Nominal, AUDIENCE SEATING AREA PERMANENT - AUDITORIUM-SPACE FUNCTION INFILTRATION,ALWAYS ON DISCRETE,AUDIENCE SEATING AREA PERMANENT - AUDITORIUM-SPACE FUNCTION ZN,2500.00,500.2,0.625,2.500E-004,2.500E-004,0.237,0.000,0.000,0.224,0.000
 ZoneInfiltration Airflow Stats Nominal, AUDIENCE SEATING AREA PERMANENT - CONVENTION CENTRE-SPACE FUNCTION INFILTRATION,ALWAYS ON DISCRETE,AUDIENCE SEATING AREA PERMANENT - CONVENTION CENTRE-SPACE FUNCTION ZN,1875.00,375.1,9.500E-002,5.067E-005,2.500E-004,4.800E-002,0.000,0.000,0.224,0.000
 ZoneInfiltration Airflow Stats Nominal, AUDIENCE SEATING AREA PERMANENT - GYMNASIUM-SPACE FUNCTION INFILTRATION,ALWAYS ON DISCRETE,AUDIENCE SEATING AREA PERMANENT - GYMNASIUM-SPACE FUNCTION ZN,1875.00,375.1,9.500E-002,5.067E-005,2.500E-004,4.800E-002,0.000,0.000,0.224,0.000
 ZoneInfiltration Airflow Stats Nominal, AUDIENCE SEATING AREA PERMANENT - OTHER-SCH-C-SPACE FUNCTION INFILTRATION,ALWAYS ON DISCRETE,AUDIENCE SEATING AREA PERMANENT - OTHER-SCH-C-SPACE FUNCTION ZN,1875.00,375.1,9.500E-002,5.067E-005,2.500E-004,4.800E-002,0.000,0.000,0.224,0.000
 ZoneInfiltration Airflow Stats Nominal, AUDIENCE SEATING AREA PERMANENT - OTHER-SCH-D-SPACE FUNCTION INFILTRATION,ALWAYS ON DISCRETE,AUDIENCE SEATING AREA PERMANENT - OTHER-SCH-D-SPACE FUNCTION ZN,1875.00,375.1,9.500E-002,5.067E-005,2.500E-004,4.800E-002,0.000,0.000,0.224,0.000
 ZoneInfiltration Airflow Stats Nominal, AUDIENCE SEATING AREA PERMANENT - OTHER-SCH-F-SPACE FUNCTION INFILTRATION,ALWAYS ON DISCRETE,AUDIENCE SEATING AREA PERMANENT - OTHER-SCH-F-SPACE FUNCTION ZN,1875.00,375.1,9.500E-002,5.067E-005,2.500E-004,4.800E-002,0.000,0.000,0.224,0.000
 ZoneInfiltration Airflow Stats Nominal, AUDIENCE SEATING AREA PERMANENT - OTHER-SCH-G-SPACE FUNCTION INFILTRATION,ALWAYS ON DISCRETE,AUDIENCE SEATING AREA PERMANENT - OTHER-SCH-G-SPACE FUNCTION ZN,1875.00,375.1,9.500E-002,5.067E-005,2.500E-004,4.800E-002,0.000,0.000,0.224,0.000
 ZoneInfiltration Airflow Stats Nominal, AUDIENCE SEATING AREA PERMANENT - PENITENTIARY-SPACE FUNCTION INFILTRATION,ALWAYS ON DISCRETE,AUDIENCE SEATING AREA PERMANENT - PENITENTIARY-SPACE FUNCTION ZN,1875.00,375.1,0.564,3.007E-004,2.500E-004,0.285,0.000,0.000,0.224,0.000
 ZoneInfiltration Airflow Stats Nominal, AUDIENCE SEATING AREA PERMANENT - RELIGIOUS BUILDING-SPACE FUNCTION INFILTRATION,ALWAYS ON DISCRETE,AUDIENCE SEATING AREA PERMANENT - RELIGIOUS BUILDING-SPACE FUNCTION ZN,1875.00,375.1,0.564,3.007E-004,2.500E-004,0.285,0.000,0.000,0.224,0.000
 ZoneInfiltration Airflow Stats Nominal, AUDIENCE SEATING AREA PERMANENT - SPORTS ARENA-SPACE FUNCTION INFILTRATION,ALWAYS ON DISCRETE,AUDIENCE SEATING AREA PERMANENT - SPORTS ARENA-SPACE FUNCTION ZN,1875.00,375.1,0.564,3.007E-004,2.500E-004,0.285,0.000,0.000,0.224,0.000
! <AirFlow Model>, Simple
 AirFlow Model, Simple
! <RoomAir Model>, Zone Name, Mixing/Mundt/UCSDDV/UCSDCV/UCSDUFI/UCSDUFE/User Defined
RoomAir Model,ATRIUM (6 =< HEIGHT <= 12M)-SCH-G-SPACE FUNCTION ZN,Mixing/Well-Stirred
RoomAir Model,ATRIUM (6 =< HEIGHT <= 12M)-SCH-H-SPACE FUNCTION ZN,Mixing/Well-Stirred
RoomAir Model,ATRIUM (6 =< HEIGHT <= 12M)-SCH-I-SPACE FUNCTION ZN,Mixing/Well-Stirred
RoomAir Model,ATRIUM (6 =< HEIGHT <= 12M)-SCH-J-SPACE FUNCTION ZN,Mixing/Well-Stirred
RoomAir Model,ATRIUM (6 =< HEIGHT <= 12M)-SCH-K-SPACE FUNCTION ZN,Mixing/Well-Stirred
RoomAir Model,AUDIENCE SEATING AREA PERMANENT - AUDITORIUM-SPACE FUNCTION ZN,Mixing/Well-Stirred
RoomAir Model,AUDIENCE SEATING AREA PERMANENT - CONVENTION CENTRE-SPACE FUNCTION ZN,Mixing/Well-Stirred
RoomAir Model,AUDIENCE SEATING AREA PERMANENT - GYMNASIUM-SPACE FUNCTION ZN,Mixing/Well-Stirred
RoomAir Model,AUDIENCE SEATING AREA PERMANENT - MOTION PICTURE THEATRE-SPACE FUNCTION ZN,Mixing/Well-Stirred
RoomAir Model,AUDIENCE SEATING AREA PERMANENT - OTHER-SCH-A-SPACE FUNCTION ZN,Mixing/Well-Stirred
RoomAir Model,AUDIENCE SEATING AREA PERMANENT - OTHER-SCH-B-SPACE FUNCTION ZN,Mixing/Well-Stirred
RoomAir Model,AUDIENCE SEATING AREA PERMANENT - OTHER-SCH-C-SPACE FUNCTION ZN,Mixing/Well-Stirred
RoomAir Model,AUDIENCE SEATING AREA PERMANENT - OTHER-SCH-D-SPACE FUNCTION ZN,Mixing/Well-Stirred
RoomAir Model,AUDIENCE SEATING AREA PERMANENT - OTHER-SCH-E-SPACE FUNCTION ZN,Mixing/Well-Stirred
RoomAir Model,AUDIENCE SEATING AREA PERMANENT - OTHER-SCH-F-SPACE FUNCTION ZN,Mixing/Well-Stirred
RoomAir Model,AUDIENCE SEATING AREA PERMANENT - OTHER-SCH-G-SPACE FUNCTION ZN,Mixing/Well-Stirred
RoomAir Model,AUDIENCE SEATING AREA PERMANENT - PENITENTIARY-SPACE FUNCTION ZN,Mixing/Well-Stirred
RoomAir Model,AUDIENCE SEATING AREA PERMANENT - PERFORMING ARTS THEATRE-SPACE FUNCTION ZN,Mixing/Well-Stirred
RoomAir Model,AUDIENCE SEATING AREA PERMANENT - RELIGIOUS BUILDING-SPACE FUNCTION ZN,Mixing/Well-Stirred
RoomAir Model,AUDIENCE SEATING AREA PERMANENT - SPORTS ARENA-SPACE FUNCTION ZN,Mixing/Well-Stirred
! <AirflowNetwork Model:Control>, No Multizone or Distribution/Multizone with Distribution/Multizone without Distribution/Multizone with Distribution only during Fan Operation
AirflowNetwork Model:Control,NoMultizoneOrDistribution
! <Zone Volume Capacitance Multiplier>, Sensible Heat Capacity Multiplier, Moisture Capacity Multiplier, Carbon Dioxide Capacity Multiplier, Generic Contaminant Capacity Multiplier
Zone Volume Capacitance Multiplier,   1.000 ,   1.000,   1.000,   1.000
! <Load Timesteps in Zone Design Calculation Averaging Window>, Value
 Load Timesteps in Zone Design Calculation Averaging Window,    6
! <Heating Sizing Factor Information>, Sizing Factor ID, Value
 Heating Sizing Factor Information, Global,   1.2500    
 Heating Sizing Factor Information, Zone ATRIUM (6 =< HEIGHT <= 12M)-SCH-G-SPACE FUNCTION ZN,   1.2500    
 Heating Sizing Factor Information, Zone ATRIUM (6 =< HEIGHT <= 12M)-SCH-H-SPACE FUNCTION ZN,   1.2500    
 Heating Sizing Factor Information, Zone ATRIUM (6 =< HEIGHT <= 12M)-SCH-I-SPACE FUNCTION ZN,   1.2500    
 Heating Sizing Factor Information, Zone ATRIUM (6 =< HEIGHT <= 12M)-SCH-J-SPACE FUNCTION ZN,   1.2500    
 Heating Sizing Factor Information, Zone ATRIUM (6 =< HEIGHT <= 12M)-SCH-K-SPACE FUNCTION ZN,   1.2500    
 Heating Sizing Factor Information, Zone AUDIENCE SEATING AREA PERMANENT - AUDITORIUM-SPACE FUNCTION ZN,   1.2500    
 Heating Sizing Factor Information, Zone AUDIENCE SEATING AREA PERMANENT - CONVENTION CENTRE-SPACE FUNCTION ZN,   1.2500    
 Heating Sizing Factor Information, Zone AUDIENCE SEATING AREA PERMANENT - GYMNASIUM-SPACE FUNCTION ZN,   1.2500    
 Heating Sizing Factor Information, Zone AUDIENCE SEATING AREA PERMANENT - MOTION PICTURE THEATRE-SPACE FUNCTION ZN,   1.2500    
 Heating Sizing Factor Information, Zone AUDIENCE SEATING AREA PERMANENT - OTHER-SCH-A-SPACE FUNCTION ZN,   1.2500    
 Heating Sizing Factor Information, Zone AUDIENCE SEATING AREA PERMANENT - OTHER-SCH-B-SPACE FUNCTION ZN,   1.2500    
 Heating Sizing Factor Information, Zone AUDIENCE SEATING AREA PERMANENT - OTHER-SCH-C-SPACE FUNCTION ZN,   1.2500    
 Heating Sizing Factor Information, Zone AUDIENCE SEATING AREA PERMANENT - OTHER-SCH-D-SPACE FUNCTION ZN,   1.2500    
 Heating Sizing Factor Information, Zone AUDIENCE SEATING AREA PERMANENT - OTHER-SCH-E-SPACE FUNCTION ZN,   1.2500    
 Heating Sizing Factor Information, Zone AUDIENCE SEATING AREA PERMANENT - OTHER-SCH-F-SPACE FUNCTION ZN,   1.2500    
 Heating Sizing Factor Information, Zone AUDIENCE SEATING AREA PERMANENT - OTHER-SCH-G-SPACE FUNCTION ZN,   1.2500    
 Heating Sizing Factor Information, Zone AUDIENCE SEATING AREA PERMANENT - PENITENTIARY-SPACE FUNCTION ZN,   1.2500    
 Heating Sizing Factor Information, Zone AUDIENCE SEATING AREA PERMANENT - PERFORMING ARTS THEATRE-SPACE FUNCTION ZN,   1.2500    
 Heating Sizing Factor Information, Zone AUDIENCE SEATING AREA PERMANENT - RELIGIOUS BUILDING-SPACE FUNCTION ZN,   1.2500    
 Heating Sizing Factor Information, Zone AUDIENCE SEATING AREA PERMANENT - SPORTS ARENA-SPACE FUNCTION ZN,   1.2500    
! <Cooling Sizing Factor Information>, Sizing Factor ID, Value
 Cooling Sizing Factor Information, Global,   1.1500    
 Cooling Sizing Factor Information, Zone ATRIUM (6 =< HEIGHT <= 12M)-SCH-G-SPACE FUNCTION ZN,   1.1500    
 Cooling Sizing Factor Information, Zone ATRIUM (6 =< HEIGHT <= 12M)-SCH-H-SPACE FUNCTION ZN,   1.1500    
 Cooling Sizing Factor Information, Zone ATRIUM (6 =< HEIGHT <= 12M)-SCH-I-SPACE FUNCTION ZN,   1.1500    
 Cooling Sizing Factor Information, Zone ATRIUM (6 =< HEIGHT <= 12M)-SCH-J-SPACE FUNCTION ZN,   1.1500    
 Cooling Sizing Factor Information, Zone ATRIUM (6 =< HEIGHT <= 12M)-SCH-K-SPACE FUNCTION ZN,   1.1500    
 Cooling Sizing Factor Information, Zone AUDIENCE SEATING AREA PERMANENT - AUDITORIUM-SPACE FUNCTION ZN,   1.1500    
 Cooling Sizing Factor Information, Zone AUDIENCE SEATING AREA PERMANENT - CONVENTION CENTRE-SPACE FUNCTION ZN,   1.1500    
 Cooling Sizing Factor Information, Zone AUDIENCE SEATING AREA PERMANENT - GYMNASIUM-SPACE FUNCTION ZN,   1.1500    
 Cooling Sizing Factor Information, Zone AUDIENCE SEATING AREA PERMANENT - MOTION PICTURE THEATRE-SPACE FUNCTION ZN,   1.1500    
 Cooling Sizing Factor Information, Zone AUDIENCE SEATING AREA PERMANENT - OTHER-SCH-A-SPACE FUNCTION ZN,   1.1500    
 Cooling Sizing Factor Information, Zone AUDIENCE SEATING AREA PERMANENT - OTHER-SCH-B-SPACE FUNCTION ZN,   1.1500    
 Cooling Sizing Factor Information, Zone AUDIENCE SEATING AREA PERMANENT - OTHER-SCH-C-SPACE FUNCTION ZN,   1.1500    
 Cooling Sizing Factor Information, Zone AUDIENCE SEATING AREA PERMANENT - OTHER-SCH-D-SPACE FUNCTION ZN,   1.1500    
 Cooling Sizing Factor Information, Zone AUDIENCE SEATING AREA PERMANENT - OTHER-SCH-E-SPACE FUNCTION ZN,   1.1500    
 Cooling Sizing Factor Information, Zone AUDIENCE SEATING AREA PERMANENT - OTHER-SCH-F-SPACE FUNCTION ZN,   1.1500    
 Cooling Sizing Factor Information, Zone AUDIENCE SEATING AREA PERMANENT - OTHER-SCH-G-SPACE FUNCTION ZN,   1.1500    
 Cooling Sizing Factor Information, Zone AUDIENCE SEATING AREA PERMANENT - PENITENTIARY-SPACE FUNCTION ZN,   1.1500    
 Cooling Sizing Factor Information, Zone AUDIENCE SEATING AREA PERMANENT - PERFORMING ARTS THEATRE-SPACE FUNCTION ZN,   1.1500    
 Cooling Sizing Factor Information, Zone AUDIENCE SEATING AREA PERMANENT - RELIGIOUS BUILDING-SPACE FUNCTION ZN,   1.1500    
 Cooling Sizing Factor Information, Zone AUDIENCE SEATING AREA PERMANENT - SPORTS ARENA-SPACE FUNCTION ZN,   1.1500    
! <Zone Sizing Information>, Zone Name, Load Type, Calc Des Load {W}, User Des Load {W}, Calc Des Air Flow Rate {m3/s}, User Des Air Flow Rate {m3/s}, Design Day Name, Date/Time of Peak, Temperature at Peak {C}, Humidity Ratio at Peak {kgWater/kgDryAir}, Floor Area {m2}, # Occupants, Calc Outdoor Air Flow Rate {m3/s}, Calc DOAS Heat Addition Rate {W}
 Zone Sizing Information, ATRIUM (6 =< HEIGHT <= 12M)-SCH-G-SPACE FUNCTION ZN, Cooling, 68337.15629, 78587.72974, 5.80981, 6.68128, FORT MCMURRAY AP ANN CLG .4% CONDNS DB=>MWB, 7/21 13:30:00, 28.59000, 8.76969E-003, 1875.00000, 187.56814, 0.57150, 0.00000
 Zone Sizing Information, ATRIUM (6 =< HEIGHT <= 12M)-SCH-G-SPACE FUNCTION ZN, Heating, 47094.00127, 58867.50159, 2.18362, 2.72953, FORT MCMURRAY AP ANN HTG 99.6% CONDNS DB, 1/21 09:00:00, -36.20000, 1.25811E-004, 1875.00000, 187.56814, 0.57150, 0.00000
 Zone Sizing Information, ATRIUM (6 =< HEIGHT <= 12M)-SCH-H-SPACE FUNCTION ZN, Cooling, 38790.52762, 44609.10676, 3.29837, 3.79313, FORT MCMURRAY AP ANN CLG .4% CONDNS DB=>MWB, 7/21 18:10:00, 25.61400, 8.76969E-003, 2500.00000, 250.09086, 0.76200, 0.00000
 Zone Sizing Information, ATRIUM (6 =< HEIGHT <= 12M)-SCH-H-SPACE FUNCTION ZN, Heating, 0.00000, 0.00000, 0.00000, 0.76200, FORT MCMURRAY AP ANN HTG 99.6% CONDNS DB, , -36.20000, 1.25811E-004, 2500.00000, 250.09086, 0.76200, 0.00000
 Zone Sizing Information, ATRIUM (6 =< HEIGHT <= 12M)-SCH-I-SPACE FUNCTION ZN, Cooling, 62671.06505, 72071.72481, 4.63726, 5.33285, FORT MCMURRAY AP ANN CLG .4% CONDNS DB=>MWB, 7/21 15:00:00, 28.90000, 8.76969E-003, 1875.00000, 187.56814, 0.57150, 0.00000
 Zone Sizing Information, ATRIUM (6 =< HEIGHT <= 12M)-SCH-I-SPACE FUNCTION ZN, Heating, 29671.16765, 37088.95957, 1.36332, 1.70415, FORT MCMURRAY AP ANN HTG 99.6% CONDNS DB, 1/21 16:00:00, -36.20000, 1.25811E-004, 1875.00000, 187.56814, 0.57150, 0.00000
 Zone Sizing Information, ATRIUM (6 =< HEIGHT <= 12M)-SCH-J-SPACE FUNCTION ZN, Cooling, 23631.54604, 27176.27794, 2.00928, 2.31068, FORT MCMURRAY AP ANN CLG .4% CONDNS DB=>MWB, 7/21 16:00:00, 28.15600, 8.76969E-003, 1875.00000, 187.56814, 0.57150, 0.00000
 Zone Sizing Information, ATRIUM (6 =< HEIGHT <= 12M)-SCH-J-SPACE FUNCTION ZN, Heating, 6326.61079, 7908.26349, 0.29910, 0.57150, FORT MCMURRAY AP ANN HTG 99.6% CONDNS DB, 1/21 09:40:00, -36.20000, 1.25811E-004, 1875.00000, 187.56814, 0.57150, 0.00000
 Zone Sizing Information, ATRIUM (6 =< HEIGHT <= 12M)-SCH-K-SPACE FUNCTION ZN, Cooling, 0.00000, 0.00000, 0.00000, 0.57150, FORT MCMURRAY AP ANN CLG .4% CONDNS DB=>MWB, , 28.90000, 8.76969E-003, 1875.00000, 187.56814, 0.57150, 0.00000
 Zone Sizing Information, ATRIUM (6 =< HEIGHT <= 12M)-SCH-K-SPACE FUNCTION ZN, Heating, 0.00000, 0.00000, 0.00000, 0.57150, FORT MCMURRAY AP ANN HTG 99.6% CONDNS DB, , -36.20000, 1.25811E-004, 1875.00000, 187.56814, 0.57150, 0.00000
 Zone Sizing Information, AUDIENCE SEATING AREA PERMANENT - AUDITORIUM-SPACE FUNCTION ZN, Cooling, 91199.27443, 104879.16560, 7.75537, 10.28700, FORT MCMURRAY AP ANN CLG .4% CONDNS DB=>MWB, 7/21 13:40:00, 28.69333, 8.76969E-003, 2500.00000, 500.18171, 10.28700, 0.00000
 Zone Sizing Information, AUDIENCE SEATING AREA PERMANENT - AUDITORIUM-SPACE FUNCTION ZN, Heating, 38797.83563, 48497.29454, 1.60560, 10.28700, FORT MCMURRAY AP ANN HTG 99.6% CONDNS DB, 1/21 08:00:00, -36.20000, 1.25811E-004, 2500.00000, 500.18171, 10.28700, 0.00000
 Zone Sizing Information, AUDIENCE SEATING AREA PERMANENT - CONVENTION CENTRE-SPACE FUNCTION ZN, Cooling, 52506.22633, 60382.16028, 4.46469, 7.71525, FORT MCMURRAY AP ANN CLG .4% CONDNS DB=>MWB, 7/21 14:20:00, 28.90000, 8.76969E-003, 1875.00000, 375.13628, 7.71525, 0.00000
 Zone Sizing Information, AUDIENCE SEATING AREA PERMANENT - CONVENTION CENTRE-SPACE FUNCTION ZN, Heating, 21180.43939, 26475.54924, 0.96061, 7.71525, FORT MCMURRAY AP ANN HTG 99.6% CONDNS DB, 1/21 09:00:00, -36.20000, 1.25811E-004, 1875.00000, 375.13628, 7.71525, 0.00000
 Zone Sizing Information, AUDIENCE SEATING AREA PERMANENT - GYMNASIUM-SPACE FUNCTION ZN, Cooling, 45574.73638, 52410.94684, 3.87556, 7.71525, FORT MCMURRAY AP ANN CLG .4% CONDNS DB=>MWB, 7/21 13:00:00, 28.28000, 8.76969E-003, 1875.00000, 375.13628, 7.71525, 0.00000
 Zone Sizing Information, AUDIENCE SEATING AREA PERMANENT - GYMNASIUM-SPACE FUNCTION ZN, Heating, 9397.37803, 11746.72253, 0.42652, 7.71525, FORT MCMURRAY AP ANN HTG 99.6% CONDNS DB, 1/21 10:00:00, -36.20000, 1.25811E-004, 1875.00000, 375.13628, 7.71525, 0.00000
 Zone Sizing Information, AUDIENCE SEATING AREA PERMANENT - MOTION PICTURE THEATRE-SPACE FUNCTION ZN, Cooling, 34846.79821, 40073.81794, 2.96350, 7.71525, FORT MCMURRAY AP ANN CLG .4% CONDNS DB=>MWB, 7/21 17:00:00, 27.16400, 8.76969E-003, 1875.00000, 375.13628, 7.71525, 0.00000
 Zone Sizing Information, AUDIENCE SEATING AREA PERMANENT - MOTION PICTURE THEATRE-SPACE FUNCTION ZN, Heating, 0.00000, 0.00000, 0.00000, 7.71525, FORT MCMURRAY AP ANN HTG 99.6% CONDNS DB, , -36.20000, 1.25811E-004, 1875.00000, 375.13628, 7.71525, 0.00000
 Zone Sizing Information, AUDIENCE SEATING AREA PERMANENT - OTHER-SCH-A-SPACE FUNCTION ZN, Cooling, 31035.53276, 35690.86267, 2.63957, 7.14375, FORT MCMURRAY AP ANN CLG .4% CONDNS DB=>MWB, 7/21 17:00:00, 27.16400, 8.76969E-003, 1875.00000, 375.13628, 7.14375, 0.00000
 Zone Sizing Information, AUDIENCE SEATING AREA PERMANENT - OTHER-SCH-A-SPACE FUNCTION ZN, Heating, 0.00000, 0.00000, 0.00000, 7.14375, FORT MCMURRAY AP ANN HTG 99.6% CONDNS DB, , -36.20000, 1.25811E-004, 1875.00000, 375.13628, 7.14375, 0.00000
 Zone Sizing Information, AUDIENCE SEATING AREA PERMANENT - OTHER-SCH-B-SPACE FUNCTION ZN, Cooling, 30288.00838, 34831.20964, 2.57563, 7.14375, FORT MCMURRAY AP ANN CLG .4% CONDNS DB=>MWB, 7/21 13:00:00, 28.28000, 8.76969E-003, 1875.00000, 375.13628, 7.14375, 0.00000
 Zone Sizing Information, AUDIENCE SEATING AREA PERMANENT - OTHER-SCH-B-SPACE FUNCTION ZN, Heating, 0.00000, 0.00000, 0.00000, 7.14375, FORT MCMURRAY AP ANN HTG 99.6% CONDNS DB, , -36.20000, 1.25811E-004, 1875.00000, 375.13628, 7.14375, 0.00000
 Zone Sizing Information, AUDIENCE SEATING AREA PERMANENT - OTHER-SCH-C-SPACE FUNCTION ZN, Cooling, 48356.13423, 55609.55437, 4.11237, 7.14375, FORT MCMURRAY AP ANN CLG .4% CONDNS DB=>MWB, 7/21 17:10:00, 26.95733, 8.76969E-003, 1875.00000, 375.13628, 7.14375, 0.00000
 Zone Sizing Information, AUDIENCE SEATING AREA PERMANENT - OTHER-SCH-C-SPACE FUNCTION ZN, Heating, 18078.44954, 22598.06192, 0.81401, 7.14375, FORT MCMURRAY AP ANN HTG 99.6% CONDNS DB, 1/21 09:00:00, -36.20000, 1.25811E-004, 1875.00000, 375.13628, 7.14375, 0.00000
 Zone Sizing Information, AUDIENCE SEATING AREA PERMANENT - OTHER-SCH-D-SPACE FUNCTION ZN, Cooling, 50370.43432, 57925.99947, 4.28382, 7.14375, FORT MCMURRAY AP ANN CLG .4% CONDNS DB=>MWB, 7/21 16:00:00, 28.15600, 8.76969E-003, 1875.00000, 375.13628, 7.14375, 0.00000
 Zone Sizing Information, AUDIENCE SEATING AREA PERMANENT - OTHER-SCH-D-SPACE FUNCTION ZN, Heating, 28771.42093, 35964.27616, 1.31872, 7.14375, FORT MCMURRAY AP ANN HTG 99.6% CONDNS DB, 1/21 09:00:00, -36.20000, 1.25811E-004, 1875.00000, 375.13628, 7.14375, 0.00000
 Zone Sizing Information, AUDIENCE SEATING AREA PERMANENT - OTHER-SCH-E-SPACE FUNCTION ZN, Cooling, 40217.47967, 46250.10162, 3.42031, 9.52500, FORT MCMURRAY AP ANN CLG .4% CONDNS DB=>MWB, 7/21 16:00:00, 28.15600, 8.76969E-003, 2500.00000, 500.18171, 9.52500, 0.00000
 Zone Sizing Information, AUDIENCE SEATING AREA PERMANENT - OTHER-SCH-E-SPACE FUNCTION ZN, Heating, 0.00000, 0.00000, 0.00000, 9.52500, FORT MCMURRAY AP ANN HTG 99.6% CONDNS DB, , -36.20000, 1.25811E-004, 2500.00000, 500.18171, 9.52500, 0.00000
 Zone Sizing Information, AUDIENCE SEATING AREA PERMANENT - OTHER-SCH-F-SPACE FUNCTION ZN, Cooling, 23086.97263, 26550.01852, 1.96299, 7.14375, FORT MCMURRAY AP ANN CLG .4% CONDNS DB=>MWB, 7/21 24:00:00, 18.73200, 8.76969E-003, 1875.00000, 375.13628, 7.14375, 0.00000
 Zone Sizing Information, AUDIENCE SEATING AREA PERMANENT - OTHER-SCH-F-SPACE FUNCTION ZN, Heating, 1430.97874, 1788.72342, 6.76462E-002, 7.14375, FORT MCMURRAY AP ANN HTG 99.6% CONDNS DB, 1/21 15:20:00, -36.20000, 1.25811E-004, 1875.00000, 375.13628, 7.14375, 0.00000
 Zone Sizing Information, AUDIENCE SEATING AREA PERMANENT - OTHER-SCH-G-SPACE FUNCTION ZN, Cooling, 41400.71774, 47610.82540, 3.52015, 7.14375, FORT MCMURRAY AP ANN CLG .4% CONDNS DB=>MWB, 7/21 08:00:00, 19.72400, 8.76969E-003, 1875.00000, 375.13628, 7.14375, 0.00000
 Zone Sizing Information, AUDIENCE SEATING AREA PERMANENT - OTHER-SCH-G-SPACE FUNCTION ZN, Heating, 504.12716, 630.15896, 2.38311E-002, 7.14375, FORT MCMURRAY AP ANN HTG 99.6% CONDNS DB, 1/21 17:00:00, -36.20000, 1.25811E-004, 1875.00000, 375.13628, 7.14375, 0.00000
 Zone Sizing Information, AUDIENCE SEATING AREA PERMANENT - PENITENTIARY-SPACE FUNCTION ZN, Cooling, 80768.37287, 92883.62880, 6.86837, 7.89863, FORT MCMURRAY AP ANN CLG .4% CONDNS DB=>MWB, 7/21 16:30:00, 27.66000, 8.76969E-003, 1875.00000, 375.13628, 3.90525, 0.00000
 Zone Sizing Information, AUDIENCE SEATING AREA PERMANENT - PENITENTIARY-SPACE FUNCTION ZN, Heating, 52594.98752, 65743.73440, 2.44185, 3.90525, FORT MCMURRAY AP ANN HTG 99.6% CONDNS DB, 1/21 09:00:00, -36.20000, 1.25811E-004, 1875.00000, 375.13628, 3.90525, 0.00000
 Zone Sizing Information, AUDIENCE SEATING AREA PERMANENT - PERFORMING ARTS THEATRE-SPACE FUNCTION ZN, Cooling, 61046.48011, 70203.45213, 5.19091, 10.28700, FORT MCMURRAY AP ANN CLG .4% CONDNS DB=>MWB, 7/21 17:00:00, 27.16400, 8.76969E-003, 2500.00000, 333.45447, 10.28700, 0.00000
 Zone Sizing Information, AUDIENCE SEATING AREA PERMANENT - PERFORMING ARTS THEATRE-SPACE FUNCTION ZN, Heating, 0.00000, 0.00000, 0.00000, 10.28700, FORT MCMURRAY AP ANN HTG 99.6% CONDNS DB, , -36.20000, 1.25811E-004, 2500.00000, 333.45447, 10.28700, 0.00000
 Zone Sizing Information, AUDIENCE SEATING AREA PERMANENT - RELIGIOUS BUILDING-SPACE FUNCTION ZN, Cooling, 115394.30025, 132703.44529, 7.80960, 8.98104, FORT MCMURRAY AP ANN CLG .4% CONDNS DB=>MWB, 7/21 15:00:00, 28.90000, 8.76969E-003, 1875.00000, 375.13628, 6.28650, 0.00000
 Zone Sizing Information, AUDIENCE SEATING AREA PERMANENT - RELIGIOUS BUILDING-SPACE FUNCTION ZN, Heating, 47989.38394, 59986.72992, 2.06087, 6.28650, FORT MCMURRAY AP ANN HTG 99.6% CONDNS DB, 1/21 15:10:00, -36.20000, 1.25811E-004, 1875.00000, 375.13628, 6.28650, 0.00000
 Zone Sizing Information, AUDIENCE SEATING AREA PERMANENT - SPORTS ARENA-SPACE FUNCTION ZN, Cooling, 69391.08082, 79799.74294, 5.90096, 11.28713, FORT MCMURRAY AP ANN CLG .4% CONDNS DB=>MWB, 7/21 13:10:00, 28.38333, 8.76969E-003, 1875.00000, 375.13628, 11.28713, 0.00000
 Zone Sizing Information, AUDIENCE SEATING AREA PERMANENT - SPORTS ARENA-SPACE FUNCTION ZN, Heating, 49168.75916, 61460.94896, 2.28007, 11.28713, FORT MCMURRAY AP ANN HTG 99.6% CONDNS DB, 1/21 10:00:00, -36.20000, 1.25811E-004, 1875.00000, 375.13628, 11.28713, 0.00000
! <Component Sizing Information>, Component Type, Component Name, Input Field Description, Value
 Component Sizing Information, ZoneHVAC:IdealLoadsAirSystem, ZONE HVAC IDEAL LOADS AIR SYSTEM 1, User-Specified Maximum Heating Air Flow Rate [m3/s], 0.00000
 Component Sizing Information, ZoneHVAC:IdealLoadsAirSystem, ZONE HVAC IDEAL LOADS AIR SYSTEM 1, User-Specified Maximum Cooling Air Flow Rate [m3/s], 0.00000
 Component Sizing Information, ZoneHVAC:IdealLoadsAirSystem, ZONE HVAC IDEAL LOADS AIR SYSTEM 2, User-Specified Maximum Heating Air Flow Rate [m3/s], 0.00000
 Component Sizing Information, ZoneHVAC:IdealLoadsAirSystem, ZONE HVAC IDEAL LOADS AIR SYSTEM 2, User-Specified Maximum Cooling Air Flow Rate [m3/s], 0.00000
 Component Sizing Information, ZoneHVAC:IdealLoadsAirSystem, ZONE HVAC IDEAL LOADS AIR SYSTEM 3, User-Specified Maximum Heating Air Flow Rate [m3/s], 0.00000
 Component Sizing Information, ZoneHVAC:IdealLoadsAirSystem, ZONE HVAC IDEAL LOADS AIR SYSTEM 3, User-Specified Maximum Cooling Air Flow Rate [m3/s], 0.00000
 Component Sizing Information, ZoneHVAC:IdealLoadsAirSystem, ZONE HVAC IDEAL LOADS AIR SYSTEM 4, User-Specified Maximum Heating Air Flow Rate [m3/s], 0.00000
 Component Sizing Information, ZoneHVAC:IdealLoadsAirSystem, ZONE HVAC IDEAL LOADS AIR SYSTEM 4, User-Specified Maximum Cooling Air Flow Rate [m3/s], 0.00000
 Component Sizing Information, ZoneHVAC:IdealLoadsAirSystem, ZONE HVAC IDEAL LOADS AIR SYSTEM 5, User-Specified Maximum Heating Air Flow Rate [m3/s], 0.00000
 Component Sizing Information, ZoneHVAC:IdealLoadsAirSystem, ZONE HVAC IDEAL LOADS AIR SYSTEM 5, User-Specified Maximum Cooling Air Flow Rate [m3/s], 0.00000
 Component Sizing Information, ZoneHVAC:IdealLoadsAirSystem, ZONE HVAC IDEAL LOADS AIR SYSTEM 6, User-Specified Maximum Heating Air Flow Rate [m3/s], 0.00000
 Component Sizing Information, ZoneHVAC:IdealLoadsAirSystem, ZONE HVAC IDEAL LOADS AIR SYSTEM 6, User-Specified Maximum Cooling Air Flow Rate [m3/s], 0.00000
 Component Sizing Information, ZoneHVAC:IdealLoadsAirSystem, ZONE HVAC IDEAL LOADS AIR SYSTEM 7, User-Specified Maximum Heating Air Flow Rate [m3/s], 0.00000
 Component Sizing Information, ZoneHVAC:IdealLoadsAirSystem, ZONE HVAC IDEAL LOADS AIR SYSTEM 7, User-Specified Maximum Cooling Air Flow Rate [m3/s], 0.00000
 Component Sizing Information, ZoneHVAC:IdealLoadsAirSystem, ZONE HVAC IDEAL LOADS AIR SYSTEM 8, User-Specified Maximum Heating Air Flow Rate [m3/s], 0.00000
 Component Sizing Information, ZoneHVAC:IdealLoadsAirSystem, ZONE HVAC IDEAL LOADS AIR SYSTEM 8, User-Specified Maximum Cooling Air Flow Rate [m3/s], 0.00000
 Component Sizing Information, ZoneHVAC:IdealLoadsAirSystem, ZONE HVAC IDEAL LOADS AIR SYSTEM 9, User-Specified Maximum Heating Air Flow Rate [m3/s], 0.00000
 Component Sizing Information, ZoneHVAC:IdealLoadsAirSystem, ZONE HVAC IDEAL LOADS AIR SYSTEM 9, User-Specified Maximum Cooling Air Flow Rate [m3/s], 0.00000
 Component Sizing Information, ZoneHVAC:IdealLoadsAirSystem, ZONE HVAC IDEAL LOADS AIR SYSTEM 10, User-Specified Maximum Heating Air Flow Rate [m3/s], 0.00000
 Component Sizing Information, ZoneHVAC:IdealLoadsAirSystem, ZONE HVAC IDEAL LOADS AIR SYSTEM 10, User-Specified Maximum Cooling Air Flow Rate [m3/s], 0.00000
 Component Sizing Information, ZoneHVAC:IdealLoadsAirSystem, ZONE HVAC IDEAL LOADS AIR SYSTEM 11, User-Specified Maximum Heating Air Flow Rate [m3/s], 0.00000
 Component Sizing Information, ZoneHVAC:IdealLoadsAirSystem, ZONE HVAC IDEAL LOADS AIR SYSTEM 11, User-Specified Maximum Cooling Air Flow Rate [m3/s], 0.00000
 Component Sizing Information, ZoneHVAC:IdealLoadsAirSystem, ZONE HVAC IDEAL LOADS AIR SYSTEM 12, User-Specified Maximum Heating Air Flow Rate [m3/s], 0.00000
 Component Sizing Information, ZoneHVAC:IdealLoadsAirSystem, ZONE HVAC IDEAL LOADS AIR SYSTEM 12, User-Specified Maximum Cooling Air Flow Rate [m3/s], 0.00000
 Component Sizing Information, ZoneHVAC:IdealLoadsAirSystem, ZONE HVAC IDEAL LOADS AIR SYSTEM 13, User-Specified Maximum Heating Air Flow Rate [m3/s], 0.00000
 Component Sizing Information, ZoneHVAC:IdealLoadsAirSystem, ZONE HVAC IDEAL LOADS AIR SYSTEM 13, User-Specified Maximum Cooling Air Flow Rate [m3/s], 0.00000
 Component Sizing Information, ZoneHVAC:IdealLoadsAirSystem, ZONE HVAC IDEAL LOADS AIR SYSTEM 14, User-Specified Maximum Heating Air Flow Rate [m3/s], 0.00000
 Component Sizing Information, ZoneHVAC:IdealLoadsAirSystem, ZONE HVAC IDEAL LOADS AIR SYSTEM 14, User-Specified Maximum Cooling Air Flow Rate [m3/s], 0.00000
 Component Sizing Information, ZoneHVAC:IdealLoadsAirSystem, ZONE HVAC IDEAL LOADS AIR SYSTEM 15, User-Specified Maximum Heating Air Flow Rate [m3/s], 0.00000
 Component Sizing Information, ZoneHVAC:IdealLoadsAirSystem, ZONE HVAC IDEAL LOADS AIR SYSTEM 15, User-Specified Maximum Cooling Air Flow Rate [m3/s], 0.00000
 Component Sizing Information, ZoneHVAC:IdealLoadsAirSystem, ZONE HVAC IDEAL LOADS AIR SYSTEM 16, User-Specified Maximum Heating Air Flow Rate [m3/s], 0.00000
 Component Sizing Information, ZoneHVAC:IdealLoadsAirSystem, ZONE HVAC IDEAL LOADS AIR SYSTEM 16, User-Specified Maximum Cooling Air Flow Rate [m3/s], 0.00000
 Component Sizing Information, ZoneHVAC:IdealLoadsAirSystem, ZONE HVAC IDEAL LOADS AIR SYSTEM 17, User-Specified Maximum Heating Air Flow Rate [m3/s], 0.00000
 Component Sizing Information, ZoneHVAC:IdealLoadsAirSystem, ZONE HVAC IDEAL LOADS AIR SYSTEM 17, User-Specified Maximum Cooling Air Flow Rate [m3/s], 0.00000
 Component Sizing Information, ZoneHVAC:IdealLoadsAirSystem, ZONE HVAC IDEAL LOADS AIR SYSTEM 18, User-Specified Maximum Heating Air Flow Rate [m3/s], 0.00000
 Component Sizing Information, ZoneHVAC:IdealLoadsAirSystem, ZONE HVAC IDEAL LOADS AIR SYSTEM 18, User-Specified Maximum Cooling Air Flow Rate [m3/s], 0.00000
 Component Sizing Information, ZoneHVAC:IdealLoadsAirSystem, ZONE HVAC IDEAL LOADS AIR SYSTEM 19, User-Specified Maximum Heating Air Flow Rate [m3/s], 0.00000
 Component Sizing Information, ZoneHVAC:IdealLoadsAirSystem, ZONE HVAC IDEAL LOADS AIR SYSTEM 19, User-Specified Maximum Cooling Air Flow Rate [m3/s], 0.00000
 Component Sizing Information, ZoneHVAC:IdealLoadsAirSystem, ZONE HVAC IDEAL LOADS AIR SYSTEM 20, User-Specified Maximum Heating Air Flow Rate [m3/s], 0.00000
 Component Sizing Information, ZoneHVAC:IdealLoadsAirSystem, ZONE HVAC IDEAL LOADS AIR SYSTEM 20, User-Specified Maximum Cooling Air Flow Rate [m3/s], 0.00000
! <Environment>,Environment Name,Environment Type, Start Date, End Date, Start DayOfWeek, Duration {#days}, Source:Start DayOfWeek,  Use Daylight Saving, Use Holidays, Apply Weekend Holiday Rule,  Use Rain Values, Use Snow Values
! <Environment:Special Days>, Special Day Name, Special Day Type, Source, Start Date, Duration {#days}
! <Environment:Daylight Saving>, Daylight Saving Indicator, Source, Start Date, End Date
! <Environment:WarmupDays>, NumberofWarmupDays
Environment,FORT MCMURRAY AP ANN CLG .4% CONDNS DB=>MWB,SizingPeriod:DesignDay,07/21,07/21,SummerDesignDay,1,N/A,N/A,N/A,N/A,N/A,N/A
Environment:Daylight Saving,No,SizingPeriod:DesignDay
! <Environment:Design Day Data>, Max Dry-Bulb Temp {C}, Temp Range {dC}, Temp Range Ind Type, Hum Ind Value at Max Temp, Hum Ind Type,Pressure {Pa}, Wind Direction {deg CW from N}, Wind Speed {m/s}, Clearness, Rain, Snow
! <Environment:Design Day Misc>,DayOfYear,ASHRAE A Coeff,ASHRAE B Coeff,ASHRAE C Coeff,Solar Constant-Annual Variation,Eq of Time {minutes}, Solar Declination Angle {deg}, Solar Model
Environment:Design Day Data,28.90,12.40,DefaultMultipliers,96969,250,3.7,0.00,No,No
Environment:Design Day Misc,202,1084.4,0.2082,0.1365,1.0,-6.23,20.6,ASHRAETau
Environment:WarmupDays,  6
! <Tabular Report>,Style,Unit Conversion
Tabular Report,HTML,None
! <Warmup Convergence Information>,Zone Name,Environment Type/Name,Average Warmup Temperature Difference {deltaC},Std Dev Warmup Temperature Difference {deltaC},Max Temperature Pass/Fail Convergence,Min Temperature Pass/Fail Convergence,Average Warmup Load Difference {W},Std Dev Warmup Load Difference {W},Heating Load Pass/Fail Convergence,Cooling Load Pass/Fail Convergence
 Warmup Convergence Information,ATRIUM (6 =< HEIGHT <= 12M)-SCH-G-SPACE FUNCTION ZN,SizingPeriod: FORT MCMURRAY AP ANN CLG .4% CONDNS DB=>MWB,7.0986813703E-004,3.0953264817E-003,Pass,Pass,3.8361216164E-002,2.6639980534E-002,Pass,Pass
 Warmup Convergence Information,ATRIUM (6 =< HEIGHT <= 12M)-SCH-H-SPACE FUNCTION ZN,SizingPeriod: FORT MCMURRAY AP ANN CLG .4% CONDNS DB=>MWB,3.0888871707E-014,2.9219368525E-014,Pass,Pass,8.5073461628E-003,4.0843084243E-003,Pass,Pass
 Warmup Convergence Information,ATRIUM (6 =< HEIGHT <= 12M)-SCH-I-SPACE FUNCTION ZN,SizingPeriod: FORT MCMURRAY AP ANN CLG .4% CONDNS DB=>MWB,7.5952524686E-002,0.3894159685,Pass,Pass,0.1342410346,0.4548958823,Pass,Pass
 Warmup Convergence Information,ATRIUM (6 =< HEIGHT <= 12M)-SCH-J-SPACE FUNCTION ZN,SizingPeriod: FORT MCMURRAY AP ANN CLG .4% CONDNS DB=>MWB,2.5337756584E-014,2.2041012502E-014,Pass,Pass,1.4461594186E-002,1.8610499292E-002,Pass,Pass
 Warmup Convergence Information,ATRIUM (6 =< HEIGHT <= 12M)-SCH-K-SPACE FUNCTION ZN,SizingPeriod: FORT MCMURRAY AP ANN CLG .4% CONDNS DB=>MWB,4.8735624706E-002,4.2318504210E-002,Pass,Pass,0.1734331485,0.6416405983,Pass,Pass
 Warmup Convergence Information,AUDIENCE SEATING AREA PERMANENT - AUDITORIUM-SPACE FUNCTION ZN,SizingPeriod: FORT MCMURRAY AP ANN CLG .4% CONDNS DB=>MWB,7.3330149353E-002,0.1276123407,Pass,Pass,3.0614679913E-002,5.3644849132E-002,Pass,Pass
 Warmup Convergence Information,AUDIENCE SEATING AREA PERMANENT - CONVENTION CENTRE-SPACE FUNCTION ZN,SizingPeriod: FORT MCMURRAY AP ANN CLG .4% CONDNS DB=>MWB,5.7103521192E-002,0.1027467039,Pass,Pass,3.4623808573E-002,6.7259085997E-002,Pass,Pass
 Warmup Convergence Information,AUDIENCE SEATING AREA PERMANENT - GYMNASIUM-SPACE FUNCTION ZN,SizingPeriod: FORT MCMURRAY AP ANN CLG .4% CONDNS DB=>MWB,5.9489689810E-002,0.1015542921,Pass,Pass,6.1303723659E-002,0.1222704180,Pass,Pass
 Warmup Convergence Information,AUDIENCE SEATING AREA PERMANENT - MOTION PICTURE THEATRE-SPACE FUNCTION ZN,SizingPeriod: FORT MCMURRAY AP ANN CLG .4% CONDNS DB=>MWB,7.0331834938E-002,0.1612719499,Pass,Pass,5.0673886903E-002,0.1080285883,Pass,Pass
 Warmup Convergence Information,AUDIENCE SEATING AREA PERMANENT - OTHER-SCH-A-SPACE FUNCTION ZN,SizingPeriod: FORT MCMURRAY AP ANN CLG .4% CONDNS DB=>MWB,7.2918303777E-002,0.2082781884,Pass,Pass,0.1364785364,0.7003645946,Pass,Pass
 Warmup Convergence Information,AUDIENCE SEATING AREA PERMANENT - OTHER-SCH-B-SPACE FUNCTION ZN,SizingPeriod: FORT MCMURRAY AP ANN CLG .4% CONDNS DB=>MWB,6.1361857330E-002,0.1048212238,Pass,Pass,9.3580253185E-002,0.3540698107,Pass,Pass
 Warmup Convergence Information,AUDIENCE SEATING AREA PERMANENT - OTHER-SCH-C-SPACE FUNCTION ZN,SizingPeriod: FORT MCMURRAY AP ANN CLG .4% CONDNS DB=>MWB,5.8479867927E-002,0.1086334228,Pass,Pass,4.4328421528E-002,7.8789560414E-002,Pass,Pass
 Warmup Convergence Information,AUDIENCE SEATING AREA PERMANENT - OTHER-SCH-D-SPACE FUNCTION ZN,SizingPeriod: FORT MCMURRAY AP ANN CLG .4% CONDNS DB=>MWB,5.8394037871E-002,0.1174404261,Pass,Pass,4.0339294023E-002,7.5109275947E-002,Pass,Pass
 Warmup Convergence Information,AUDIENCE SEATING AREA PERMANENT - OTHER-SCH-E-SPACE FUNCTION ZN,SizingPeriod: FORT MCMURRAY AP ANN CLG .4% CONDNS DB=>MWB,7.2639974937E-002,0.1658349084,Pass,Pass,9.2261176483E-002,0.2546686834,Pass,Pass
 Warmup Convergence Information,AUDIENCE SEATING AREA PERMANENT - OTHER-SCH-F-SPACE FUNCTION ZN,SizingPeriod: FORT MCMURRAY AP ANN CLG .4% CONDNS DB=>MWB,4.3330866005E-002,6.1721254162E-002,Pass,Pass,4.3718246463E-002,8.6110496986E-002,Pass,Pass
 Warmup Convergence Information,AUDIENCE SEATING AREA PERMANENT - OTHER-SCH-G-SPACE FUNCTION ZN,SizingPeriod: FORT MCMURRAY AP ANN CLG .4% CONDNS DB=>MWB,3.3071567667E-002,4.8195645710E-002,Pass,Pass,1.5787080423E-002,3.6399857539E-002,Pass,Pass
 Warmup Convergence Information,AUDIENCE SEATING AREA PERMANENT - PENITENTIARY-SPACE FUNCTION ZN,SizingPeriod: FORT MCMURRAY AP ANN CLG .4% CONDNS DB=>MWB,6.0403744331E-002,9.6015386448E-002,Pass,Pass,3.3611196359E-002,6.6927601647E-002,Pass,Pass
 Warmup Convergence Information,AUDIENCE SEATING AREA PERMANENT - PERFORMING ARTS THEATRE-SPACE FUNCTION ZN,SizingPeriod: FORT MCMURRAY AP ANN CLG .4% CONDNS DB=>MWB,6.0766092245E-002,0.1287575829,Pass,Pass,3.3068541027E-002,6.9169126838E-002,Pass,Pass
 Warmup Convergence Information,AUDIENCE SEATING AREA PERMANENT - RELIGIOUS BUILDING-SPACE FUNCTION ZN,SizingPeriod: FORT MCMURRAY AP ANN CLG .4% CONDNS DB=>MWB,0.1558193189,0.5554800644,Pass,Pass,3.9625140182E-002,9.2163275877E-002,Pass,Pass
 Warmup Convergence Information,AUDIENCE SEATING AREA PERMANENT - SPORTS ARENA-SPACE FUNCTION ZN,SizingPeriod: FORT MCMURRAY AP ANN CLG .4% CONDNS DB=>MWB,7.8980949171E-002,0.1631567801,Pass,Pass,4.5842366935E-002,9.1506673451E-002,Pass,Pass
Environment,FORT MCMURRAY AP ANN HTG 99.6% CONDNS DB,SizingPeriod:DesignDay,01/21,01/21,WinterDesignDay,1,N/A,N/A,N/A,N/A,N/A,N/A
Environment:Daylight Saving,No,SizingPeriod:DesignDay
Environment:Design Day Data,-36.20,0.00,DefaultMultipliers,96969,90,1.0,0.00,No,No
Environment:Design Day Misc, 21,1229.0,0.1415,5.7310E-002,1.0,-11.15,-20.1,ASHRAEClearSky
Environment:WarmupDays,  6
 Warmup Convergence Information,ATRIUM (6 =< HEIGHT <= 12M)-SCH-G-SPACE FUNCTION ZN,SizingPeriod: FORT MCMURRAY AP ANN HTG 99.6% CONDNS DB,5.8444220753E-002,0.3212757377,Pass,Pass,0.1026198244,0.4330253191,Pass,Pass
 Warmup Convergence Information,ATRIUM (6 =< HEIGHT <= 12M)-SCH-H-SPACE FUNCTION ZN,SizingPeriod: FORT MCMURRAY AP ANN HTG 99.6% CONDNS DB,6.7024759350E-002,0.3146686514,Pass,Pass,0.2340420357,1.4597718884,Pass,Pass
 Warmup Convergence Information,ATRIUM (6 =< HEIGHT <= 12M)-SCH-I-SPACE FUNCTION ZN,SizingPeriod: FORT MCMURRAY AP ANN HTG 99.6% CONDNS DB,6.0333807094E-002,0.3129084168,Pass,Pass,0.1985616624,0.5185229532,Pass,Pass
 Warmup Convergence Information,ATRIUM (6 =< HEIGHT <= 12M)-SCH-J-SPACE FUNCTION ZN,SizingPeriod: FORT MCMURRAY AP ANN HTG 99.6% CONDNS DB,1.3816108751E-014,1.5102580272E-014,Pass,Pass,1.8807134162E-002,3.3068998174E-002,Pass,Pass
 Warmup Convergence Information,ATRIUM (6 =< HEIGHT <= 12M)-SCH-K-SPACE FUNCTION ZN,SizingPeriod: FORT MCMURRAY AP ANN HTG 99.6% CONDNS DB,4.7806111169E-002,6.3633890914E-002,Pass,Pass,9.9391954249E-004,1.4445629856E-003,Pass,Pass
 Warmup Convergence Information,AUDIENCE SEATING AREA PERMANENT - AUDITORIUM-SPACE FUNCTION ZN,SizingPeriod: FORT MCMURRAY AP ANN HTG 99.6% CONDNS DB,5.5555555556E-002,0.3897104241,Pass,Pass,0.2521246170,1.0428831018,Pass,Pass
 Warmup Convergence Information,AUDIENCE SEATING AREA PERMANENT - CONVENTION CENTRE-SPACE FUNCTION ZN,SizingPeriod: FORT MCMURRAY AP ANN HTG 99.6% CONDNS DB,5.5555555556E-002,0.3894801923,Pass,Pass,0.2706874634,1.0847895133,Pass,Pass
 Warmup Convergence Information,AUDIENCE SEATING AREA PERMANENT - GYMNASIUM-SPACE FUNCTION ZN,SizingPeriod: FORT MCMURRAY AP ANN HTG 99.6% CONDNS DB,5.5555555556E-002,0.3893916359,Pass,Pass,0.2665164021,0.9870862607,Pass,Pass
 Warmup Convergence Information,AUDIENCE SEATING AREA PERMANENT - MOTION PICTURE THEATRE-SPACE FUNCTION ZN,SizingPeriod: FORT MCMURRAY AP ANN HTG 99.6% CONDNS DB,5.5555555556E-002,0.3893521030,Pass,Pass,7.4085308265,76.1511611566,Pass,Pass
 Warmup Convergence Information,AUDIENCE SEATING AREA PERMANENT - OTHER-SCH-A-SPACE FUNCTION ZN,SizingPeriod: FORT MCMURRAY AP ANN HTG 99.6% CONDNS DB,5.5555555556E-002,0.3882503648,Pass,Pass,1.9159530111,14.5672804487,Pass,Pass
 Warmup Convergence Information,AUDIENCE SEATING AREA PERMANENT - OTHER-SCH-B-SPACE FUNCTION ZN,SizingPeriod: FORT MCMURRAY AP ANN HTG 99.6% CONDNS DB,5.5555555556E-002,0.3883584444,Pass,Pass,0.4864486468,2.3062071045,Pass,Pass
 Warmup Convergence Information,AUDIENCE SEATING AREA PERMANENT - OTHER-SCH-C-SPACE FUNCTION ZN,SizingPeriod: FORT MCMURRAY AP ANN HTG 99.6% CONDNS DB,5.5555555556E-002,0.3887339460,Pass,Pass,0.8237635962,6.4320116558,Pass,Pass
 Warmup Convergence Information,AUDIENCE SEATING AREA PERMANENT - OTHER-SCH-D-SPACE FUNCTION ZN,SizingPeriod: FORT MCMURRAY AP ANN HTG 99.6% CONDNS DB,5.5555555556E-002,0.3887235049,Pass,Pass,0.4013186713,1.2187853929,Pass,Pass
 Warmup Convergence Information,AUDIENCE SEATING AREA PERMANENT - OTHER-SCH-E-SPACE FUNCTION ZN,SizingPeriod: FORT MCMURRAY AP ANN HTG 99.6% CONDNS DB,5.5555555556E-002,0.3885234035,Pass,Pass,0.8959480636,6.4603399645,Pass,Pass
 Warmup Convergence Information,AUDIENCE SEATING AREA PERMANENT - OTHER-SCH-F-SPACE FUNCTION ZN,SizingPeriod: FORT MCMURRAY AP ANN HTG 99.6% CONDNS DB,5.5555555556E-002,0.3883008815,Pass,Pass,0.1671388798,0.9455014158,Pass,Pass
 Warmup Convergence Information,AUDIENCE SEATING AREA PERMANENT - OTHER-SCH-G-SPACE FUNCTION ZN,SizingPeriod: FORT MCMURRAY AP ANN HTG 99.6% CONDNS DB,5.5555555556E-002,0.3881907018,Pass,Pass,0.1135770310,0.5363295437,Pass,Pass
 Warmup Convergence Information,AUDIENCE SEATING AREA PERMANENT - PENITENTIARY-SPACE FUNCTION ZN,SizingPeriod: FORT MCMURRAY AP ANN HTG 99.6% CONDNS DB,5.5555555556E-002,0.3780375574,Pass,Pass,0.1014355280,0.4789218170,Pass,Pass
 Warmup Convergence Information,AUDIENCE SEATING AREA PERMANENT - PERFORMING ARTS THEATRE-SPACE FUNCTION ZN,SizingPeriod: FORT MCMURRAY AP ANN HTG 99.6% CONDNS DB,5.5555555556E-002,0.3891729529,Pass,Pass,0.2242022036,1.0594702613,Pass,Pass
 Warmup Convergence Information,AUDIENCE SEATING AREA PERMANENT - RELIGIOUS BUILDING-SPACE FUNCTION ZN,SizingPeriod: FORT MCMURRAY AP ANN HTG 99.6% CONDNS DB,5.5555555556E-002,0.3875931151,Pass,Pass,8.5171858788E-002,0.2508383666,Pass,Pass
 Warmup Convergence Information,AUDIENCE SEATING AREA PERMANENT - SPORTS ARENA-SPACE FUNCTION ZN,SizingPeriod: FORT MCMURRAY AP ANN HTG 99.6% CONDNS DB,5.5555555556E-002,0.3954279733,Pass,Pass,0.1600451980,0.8142054251,Pass,Pass
! <Program Control Information:Threads/Parallel Sims>, Threading Supported,Maximum Number of Threads, Env Set Threads (OMP_NUM_THREADS), EP Env Set Threads (EP_OMP_NUM_THREADS), IDF Set Threads, Number of Threads Used (Interior Radiant Exchange), Number Nominal Surfaces, Number Parallel Sims
Program Control:Threads/Parallel Sims, No,1, N/A, N/A, N/A, N/A, N/A, N/A
End of Data
