Program Version,EnergyPlus, Version 8.9.0-eba93e8e1b, YMD=2019.03.20 17:55
! This file shows details about the branches, nodes, and other
! elements of the flow connections.
! This file is intended for use in "debugging" potential problems
! that may also be detected by the program, but may be more easily
! identified by "eye".
! This file is also intended to support software which draws a
! schematic diagram of the HVAC system.
! ===============================================================
! #Nodes,<Number of Unique Nodes>
 #Nodes,324
! <Node>,<NodeNumber>,<Node Name>,<Node Fluid Type>,<# Times Node Referenced After Definition>
 Node,1,NODE 129,Air,4
 Node,2,NODE 142,Air,4
 Node,3,NODE 155,Air,4
 Node,4,NODE 168,Air,4
 Node,5,NODE 194,Air,4
 Node,6,NODE 207,Air,4
 Node,7,NODE 181,Air,4
 Node,8,NODE 247,Air,4
 Node,9,NODE 27,Air,4
 Node,10,NODE 59,Air,3
 Node,11,NODE 45,Air,3
 Node,12,NODE 57,Air,3
 Node,13,NODE 76,Air,3
 Node,14,NODE 67,Air,3
 Node,15,NODE 75,Air,3
 Node,16,NODE 84,Air,4
 Node,17,NODE 93,Air,3
 Node,18,NODE 97,Air,3
 Node,19,NODE 101,Air,3
 Node,20,NODE 105,Air,3
 Node,21,NODE 109,Air,3
 Node,22,NODE 113,Air,3
 Node,23,NODE 117,Air,3
 Node,24,NODE 121,Air,3
 Node,25,NODE 41,Air,10
 Node,26,NODE 42,Air,3
 Node,27,NODE 64,Air,10
 Node,28,NODE 65,Air,3
 Node,29,NODE 126,Air,10
 Node,30,NODE 127,Air,3
 Node,31,NODE 139,Air,10
 Node,32,NODE 140,Air,3
 Node,33,NODE 152,Air,10
 Node,34,NODE 153,Air,3
 Node,35,NODE 165,Air,10
 Node,36,NODE 166,Air,3
 Node,37,NODE 178,Air,10
 Node,38,NODE 179,Air,3
 Node,39,NODE 23,Air,10
 Node,40,NODE 24,Air,3
 Node,41,NODE 191,Air,10
 Node,42,NODE 192,Air,3
 Node,43,NODE 204,Air,10
 Node,44,NODE 205,Air,3
 Node,45,NODE 81,Air,10
 Node,46,NODE 82,Air,3
 Node,47,NODE 244,Air,12
 Node,48,NODE 245,Air,3
 Node,49,NODE 39,Air,3
 Node,50,NODE 56,Air,6
 Node,51,NODE 54,Air,6
 Node,52,NODE 53,Air,8
 Node,53,NODE 63,Air,3
 Node,54,NODE 74,Air,6
 Node,55,NODE 73,Air,6
 Node,56,NODE 72,Air,8
 Node,57,NODE 125,Air,3
 Node,58,NODE 134,Air,6
 Node,59,NODE 133,Air,6
 Node,60,NODE 132,Air,8
 Node,61,NODE 138,Air,3
 Node,62,NODE 147,Air,6
 Node,63,NODE 146,Air,6
 Node,64,NODE 145,Air,8
 Node,65,NODE 151,Air,3
 Node,66,NODE 160,Air,6
 Node,67,NODE 159,Air,6
 Node,68,NODE 158,Air,8
 Node,69,NODE 164,Air,3
 Node,70,NODE 173,Air,6
 Node,71,NODE 172,Air,6
 Node,72,NODE 171,Air,8
 Node,73,NODE 177,Air,3
 Node,74,NODE 186,Air,6
 Node,75,NODE 185,Air,6
 Node,76,NODE 184,Air,8
 Node,77,NODE 21,Air,3
 Node,78,NODE 35,Air,6
 Node,79,NODE 33,Air,6
 Node,80,NODE 32,Air,8
 Node,81,NODE 190,Air,3
 Node,82,NODE 199,Air,6
 Node,83,NODE 198,Air,6
 Node,84,NODE 197,Air,8
 Node,85,NODE 203,Air,3
 Node,86,NODE 212,Air,6
 Node,87,NODE 211,Air,6
 Node,88,NODE 210,Air,8
 Node,89,NODE 80,Air,3
 Node,90,NODE 89,Air,6
 Node,91,NODE 88,Air,6
 Node,92,NODE 87,Air,8
 Node,93,NODE 243,Air,2
 Node,94,NODE 256,Air,5
 Node,95,NODE 255,Air,5
 Node,96,NODE 254,Air,5
 Node,97,NODE 253,Air,9
 Node,98,NODE 216,Water,2
 Node,99,NODE 222,Water,1
 Node,100,NODE 218,Water,1
 Node,101,NODE 223,Water,1
 Node,102,NODE 224,Water,1
 Node,103,NODE 225,Water,1
 Node,104,NODE 226,Water,1
 Node,105,NODE 227,Water,1
 Node,106,NODE 228,Water,1
 Node,107,NODE 217,Water,4
 Node,108,NODE 219,Water,2
 Node,109,CHILLED WATER LOOP DEMAND INLET PIPE NODE,Water,1
 Node,110,NODE 221,Water,2
 Node,111,NODE 250,Water,1
 Node,112,CHILLED WATER LOOP DEMAND BYPASS PIPE INLET NODE,Water,1
 Node,113,CHILLED WATER LOOP DEMAND BYPASS PIPE OUTLET NODE,Water,1
 Node,114,CHILLED WATER LOOP DEMAND OUTLET PIPE NODE,Water,1
 Node,115,NODE 220,Water,2
 Node,116,NODE 229,Water,2
 Node,117,NODE 235,Water,1
 Node,118,NODE 231,Water,1
 Node,119,NODE 236,Water,1
 Node,120,NODE 237,Water,1
 Node,121,NODE 238,Water,1
 Node,122,NODE 239,Water,1
 Node,123,NODE 230,Water,4
 Node,124,NODE 232,Water,2
 Node,125,CONDENSER WATER LOOP DEMAND INLET PIPE NODE,Water,1
 Node,126,NODE 234,Water,1
 Node,127,NODE 240,Water,1
 Node,128,NODE 241,Water,1
 Node,129,NODE 242,Water,1
 Node,130,CONDENSER WATER LOOP DEMAND BYPASS PIPE INLET NODE,Water,1
 Node,131,CONDENSER WATER LOOP DEMAND BYPASS PIPE OUTLET NODE,Water,1
 Node,132,CONDENSER WATER LOOP DEMAND OUTLET PIPE NODE,Water,1
 Node,133,NODE 233,Water,2
 Node,134,NODE 2,Water,2
 Node,135,NODE 11,Water,1
 Node,136,NODE 5,Water,1
 Node,137,NODE 12,Water,1
 Node,138,NODE 14,Water,1
 Node,139,NODE 15,Water,1
 Node,140,NODE 17,Water,1
 Node,141,NODE 18,Water,1
 Node,142,NODE 20,Water,1
 Node,143,NODE 3,Water,4
 Node,144,NODE 6,Water,2
 Node,145,HOT WATER LOOP DEMAND INLET PIPE NODE,Water,1
 Node,146,NODE 9,Water,1
 Node,147,NODE 38,Water,1
 Node,148,NODE 47,Water,2
 Node,149,NODE 48,Water,1
 Node,150,NODE 60,Water,1
 Node,151,NODE 61,Water,1
 Node,152,NODE 68,Water,2
 Node,153,NODE 69,Water,1
 Node,154,NODE 77,Water,1
 Node,155,NODE 78,Water,1
 Node,156,NODE 91,Water,1
 Node,157,NODE 92,Water,1
 Node,158,NODE 95,Water,1
 Node,159,NODE 96,Water,1
 Node,160,NODE 99,Water,1
 Node,161,NODE 100,Water,1
 Node,162,NODE 103,Water,1
 Node,163,NODE 104,Water,1
 Node,164,NODE 107,Water,1
 Node,165,NODE 108,Water,1
 Node,166,NODE 111,Water,1
 Node,167,NODE 112,Water,1
 Node,168,NODE 115,Water,1
 Node,169,NODE 116,Water,1
 Node,170,NODE 119,Water,1
 Node,171,NODE 120,Water,1
 Node,172,NODE 123,Water,1
 Node,173,NODE 124,Water,1
 Node,174,NODE 136,Water,1
 Node,175,NODE 137,Water,1
 Node,176,NODE 149,Water,1
 Node,177,NODE 150,Water,1
 Node,178,NODE 162,Water,1
 Node,179,NODE 163,Water,1
 Node,180,NODE 175,Water,1
 Node,181,NODE 176,Water,1
 Node,182,NODE 188,Water,1
 Node,183,NODE 189,Water,1
 Node,184,NODE 201,Water,1
 Node,185,NODE 202,Water,1
 Node,186,NODE 214,Water,1
 Node,187,NODE 215,Water,1
 Node,188,NODE 248,Water,2
 Node,189,NODE 249,Water,1
 Node,190,NODE 257,Water,1
 Node,191,NODE 258,Water,1
 Node,192,NODE 261,Water,1
 Node,193,NODE 262,Water,1
 Node,194,HOT WATER LOOP DEMAND BYPASS PIPE INLET NODE,Water,1
 Node,195,HOT WATER LOOP DEMAND BYPASS PIPE OUTLET NODE,Water,1
 Node,196,HOT WATER LOOP DEMAND OUTLET PIPE NODE,Water,1
 Node,197,NODE 8,Water,2
 Node,198,NODE 263,Water,2
 Node,199,NODE 269,Water,1
 Node,200,NODE 265,Water,1
 Node,201,NODE 270,Water,1
 Node,202,NODE 271,Water,1
 Node,203,NODE 272,Water,1
 Node,204,NODE 274,Water,1
 Node,205,NODE 264,Water,4
 Node,206,NODE 266,Water,2
 Node,207,NODE 275,Water,1
 Node,208,NODE 268,Water,1
 Node,209,NODE 273,Water,1
 Node,210,NODE 277,Water,1
 Node,211,NODE 278,Water,1
 Node,212,NODE 279,Water,1
 Node,213,NODE 280,Water,1
 Node,214,NODE 281,Water,1
 Node,215,NODE 282,Water,1
 Node,216,NODE 283,Water,1
 Node,217,NODE 284,Water,1
 Node,218,NODE 285,Water,1
 Node,219,NODE 286,Water,1
 Node,220,NODE 287,Water,1
 Node,221,NODE 288,Water,1
 Node,222,NODE 289,Water,1
 Node,223,NODE 290,Water,1
 Node,224,NODE 291,Water,1
 Node,225,NODE 292,Water,1
 Node,226,NODE 293,Water,1
 Node,227,NODE 294,Water,1
 Node,228,NODE 295,Water,1
 Node,229,NODE 296,Water,1
 Node,230,NODE 297,Water,1
 Node,231,NODE 298,Water,1
 Node,232,MAIN SERVICE WATER LOOP DEMAND BYPASS PIPE INLET NODE,Water,1
 Node,233,MAIN SERVICE WATER LOOP DEMAND BYPASS PIPE OUTLET NODE,Water,1
 Node,234,NODE 276,Water,1
 Node,235,NODE 267,Water,2
 Node,236,NODE 10,Air,1
 Node,237,NODE 135,Air,1
 Node,238,NODE 13,Air,1
 Node,239,NODE 148,Air,1
 Node,240,NODE 16,Air,1
 Node,241,NODE 161,Air,1
 Node,242,NODE 19,Air,1
 Node,243,NODE 174,Air,1
 Node,244,NODE 22,Air,1
 Node,245,NODE 200,Air,1
 Node,246,NODE 28,Air,1
 Node,247,NODE 213,Air,1
 Node,248,NODE 25,Air,1
 Node,249,NODE 187,Air,1
 Node,250,NODE 31,Air,0
 Node,251,NODE 259,Air,1
 Node,252,NODE 1,Air,1
 Node,253,NODE 36,Air,1
 Node,254,NODE 4,Air,0
 Node,255,NODE 62,Air,1
 Node,256,NODE 7,Air,0
 Node,257,NODE 79,Air,1
 Node,258,NODE 34,Air,1
 Node,259,NODE 90,Air,1
 Node,260,NODE 37,Air,0
 Node,261,NODE 94,Air,1
 Node,262,NODE 40,Air,0
 Node,263,NODE 98,Air,1
 Node,264,NODE 43,Air,0
 Node,265,NODE 102,Air,1
 Node,266,NODE 46,Air,0
 Node,267,NODE 106,Air,1
 Node,268,NODE 49,Air,0
 Node,269,NODE 110,Air,1
 Node,270,NODE 52,Air,0
 Node,271,NODE 114,Air,1
 Node,272,NODE 55,Air,0
 Node,273,NODE 118,Air,1
 Node,274,NODE 58,Air,0
 Node,275,NODE 122,Air,1
 Node,276,NODE 44,Air,2
 Node,277,NODE 66,Air,2
 Node,278,NODE 128,Air,2
 Node,279,NODE 141,Air,2
 Node,280,NODE 154,Air,2
 Node,281,NODE 167,Air,2
 Node,282,NODE 180,Air,2
 Node,283,NODE 26,Air,2
 Node,284,NODE 193,Air,2
 Node,285,NODE 206,Air,2
 Node,286,NODE 83,Air,2
 Node,287,NODE 246,Air,2
 Node,288,DU_BT=SPACE FUNCTION_ST=DWELLING UNIT(S)_FL=STORY 3_SCHG PTAC OA NODE,Air,1
 Node,289,DU_BT=SPACE FUNCTION_ST=FIRE STATION - QUARTERS_FL=STORY 2_SCHG PTAC OA NODE,Air,1
 Node,290,NODE 50,Air,2
 Node,291,NODE 70,Air,2
 Node,292,NODE 130,Air,2
 Node,293,NODE 143,Air,2
 Node,294,NODE 156,Air,2
 Node,295,NODE 169,Air,2
 Node,296,NODE 182,Air,2
 Node,297,NODE 29,Air,2
 Node,298,NODE 195,Air,2
 Node,299,NODE 208,Air,2
 Node,300,NODE 85,Air,2
 Node,301,NODE 251,Air,2
 Node,302,MODEL OUTDOOR AIR NODE,Air,0
 Node,303,NODE 260,Air,1
 Node,304,AIR TERMINAL SINGLE DUCT VAV REHEAT 1 DAMPER OUTLET,Air,1
 Node,305,DU_BT=SPACE FUNCTION_ST=DWELLING UNIT(S)_FL=STORY 3_SCHG PTAC MIXED AIR NODE,Air,1
 Node,306,DU_BT=SPACE FUNCTION_ST=DWELLING UNIT(S)_FL=STORY 3_SCHG PTAC RELIEF AIR NODE,Air,0
 Node,307,DU_BT=SPACE FUNCTION_ST=FIRE STATION - QUARTERS_FL=STORY 2_SCHG PTAC MIXED AIR NODE,Air,1
 Node,308,DU_BT=SPACE FUNCTION_ST=FIRE STATION - QUARTERS_FL=STORY 2_SCHG PTAC RELIEF AIR NODE,Air,0
 Node,309,NODE 51,Air,1
 Node,310,NODE 71,Air,1
 Node,311,NODE 131,Air,1
 Node,312,NODE 144,Air,1
 Node,313,NODE 157,Air,1
 Node,314,NODE 170,Air,1
 Node,315,NODE 183,Air,1
 Node,316,NODE 30,Air,1
 Node,317,NODE 196,Air,1
 Node,318,NODE 209,Air,1
 Node,319,NODE 86,Air,1
 Node,320,NODE 252,Air,1
 Node,321,DU_BT=SPACE FUNCTION_ST=DWELLING UNIT(S)_FL=STORY 3_SCHG PTAC HEATING COIL OUTLET NODE,Air,1
 Node,322,DU_BT=SPACE FUNCTION_ST=FIRE STATION - QUARTERS_FL=STORY 2_SCHG PTAC HEATING COIL OUTLET NODE,Air,1
 Node,323,DU_BT=SPACE FUNCTION_ST=DWELLING UNIT(S)_FL=STORY 3_SCHG PTAC COOLING COIL OUTLET NODE,Air,1
 Node,324,DU_BT=SPACE FUNCTION_ST=FIRE STATION - QUARTERS_FL=STORY 2_SCHG PTAC COOLING COIL OUTLET NODE,Air,1
! ===============================================================
! Suspicious nodes have 0 references.  It is normal for some nodes, however.
! Listing nodes with 0 references (culled from previous list):
! <Suspicious Node>,<NodeNumber>,<Node Name>,<Node Fluid Type>,<# Times Node Referenced After Definition>
 Suspicious Node,250,NODE 31,Air,0
 Suspicious Node,254,NODE 4,Air,0
 Suspicious Node,256,NODE 7,Air,0
 Suspicious Node,260,NODE 37,Air,0
 Suspicious Node,262,NODE 40,Air,0
 Suspicious Node,264,NODE 43,Air,0
 Suspicious Node,266,NODE 46,Air,0
 Suspicious Node,268,NODE 49,Air,0
 Suspicious Node,270,NODE 52,Air,0
 Suspicious Node,272,NODE 55,Air,0
 Suspicious Node,274,NODE 58,Air,0
 Suspicious Node,302,MODEL OUTDOOR AIR NODE,Air,0
 Suspicious Node,306,DU_BT=SPACE FUNCTION_ST=DWELLING UNIT(S)_FL=STORY 3_SCHG PTAC RELIEF AIR NODE,Air,0
 Suspicious Node,308,DU_BT=SPACE FUNCTION_ST=FIRE STATION - QUARTERS_FL=STORY 2_SCHG PTAC RELIEF AIR NODE,Air,0
! ===============================================================
! <#Branch Lists>,<Number of Branch Lists>
 #Branch Lists,20
! <Branch List>,<Branch List Count>,<Branch List Name>,<Loop Name>,<Loop Type>,<Number of Branches>
! <Branch>,<Branch Count>,<Branch Name>,<Loop Name>,<Loop Type>,<Branch Inlet Node Name>,<Branch Outlet Node Name>
 Branch List,1,SYS_1_MAKE-UP AIR UNIT SUPPLY BRANCHES,SYS_1_MAKE-UP AIR UNIT,Air,1
   Branch,1,SYS_1_MAKE-UP AIR UNIT MAIN BRANCH,SYS_1_MAKE-UP AIR UNIT,Air,NODE 39,NODE 41
 Branch List,2,SYS_1_MAKE-UP AIR UNIT 1 SUPPLY BRANCHES,SYS_1_MAKE-UP AIR UNIT 1,Air,1
   Branch,1,SYS_1_MAKE-UP AIR UNIT 1 MAIN BRANCH,SYS_1_MAKE-UP AIR UNIT 1,Air,NODE 63,NODE 64
 Branch List,3,SYS_3_PSZ ALL_ST=DINING - BAR LOUNGE/LEISURE_FL=STORY 4_SCH=B SUPPLY BRANCHES,SYS_3_PSZ ALL_ST=DINING - BAR LOUNGE/LEISURE_FL=STORY 4_SCH=B,Air,1
   Branch,1,SYS_3_PSZ ALL_ST=DINING - BAR LOUNGE/LEISURE_FL=STORY 4_SCH=B MAIN BRANCH,SYS_3_PSZ ALL_ST=DINING - BAR LOUNGE/LEISURE_FL=STORY 4_SCH=B,Air,NODE 125,NODE 126
 Branch List,4,SYS_3_PSZ ALL_ST=DINING - FAMILY SPACE_FL=STORY 4_SCH=B SUPPLY BRANCHES,SYS_3_PSZ ALL_ST=DINING - FAMILY SPACE_FL=STORY 4_SCH=B,Air,1
   Branch,1,SYS_3_PSZ ALL_ST=DINING - FAMILY SPACE_FL=STORY 4_SCH=B MAIN BRANCH,SYS_3_PSZ ALL_ST=DINING - FAMILY SPACE_FL=STORY 4_SCH=B,Air,NODE 138,NODE 139
 Branch List,5,SYS_3_PSZ ALL_ST=DINING - OTHER_FL=STORY 4_SCH=B SUPPLY BRANCHES,SYS_3_PSZ ALL_ST=DINING - OTHER_FL=STORY 4_SCH=B,Air,1
   Branch,1,SYS_3_PSZ ALL_ST=DINING - OTHER_FL=STORY 4_SCH=B MAIN BRANCH,SYS_3_PSZ ALL_ST=DINING - OTHER_FL=STORY 4_SCH=B,Air,NODE 151,NODE 152
 Branch List,6,SYS_3_PSZ ALL_ST=DRESS./FITT. - PERFORMANCE ARTS_FL=STORY 3_SCH=C SUPPLY BRANCHES,SYS_3_PSZ ALL_ST=DRESS./FITT. - PERFORMANCE ARTS_FL=STORY 3_SCH=C,Air,1
   Branch,1,SYS_3_PSZ ALL_ST=DRESS./FITT. - PERFORMANCE ARTS_FL=STORY 3_SCH=C MAIN BRANCH,SYS_3_PSZ ALL_ST=DRESS./FITT. - PERFORMANCE ARTS_FL=STORY 3_SCH=C,Air,NODE 164,NODE 165
 Branch List,7,SYS_3_PSZ ALL_ST=FOOD PREPARATION_FL=STORY 3_SCH=B SUPPLY BRANCHES,SYS_3_PSZ ALL_ST=FOOD PREPARATION_FL=STORY 3_SCH=B,Air,1
   Branch,1,SYS_3_PSZ ALL_ST=FOOD PREPARATION_FL=STORY 3_SCH=B MAIN BRANCH,SYS_3_PSZ ALL_ST=FOOD PREPARATION_FL=STORY 3_SCH=B,Air,NODE 177,NODE 178
 Branch List,8,SYS_3_PSZ DU_BT=SPACE FUNCTION_ST=DORMITORY - LIVING QUARTERS_FL=STORY 3_SCHG SUPPLY BRANCHES,SYS_3_PSZ DU_BT=SPACE FUNCTION_ST=DORMITORY - LIVING QUARTERS_FL=STORY 3_SCHG,Air,1
   Branch,1,SYS_3_PSZ DU_BT=SPACE FUNCTION_ST=DORMITORY - LIVING QUARTERS_FL=STORY 3_SCHG MAIN BRANCH,SYS_3_PSZ DU_BT=SPACE FUNCTION_ST=DORMITORY - LIVING QUARTERS_FL=STORY 3_SCHG,Air,NODE 21,NODE 23
 Branch List,9,SYS_4_PSZ_ALL_ST=FIRE STATION - ENGINE ROOM_FL=STORY 2_SCH=H SUPPLY BRANCHES,SYS_4_PSZ_ALL_ST=FIRE STATION - ENGINE ROOM_FL=STORY 2_SCH=H,Air,1
   Branch,1,SYS_4_PSZ_ALL_ST=FIRE STATION - ENGINE ROOM_FL=STORY 2_SCH=H MAIN BRANCH,SYS_4_PSZ_ALL_ST=FIRE STATION - ENGINE ROOM_FL=STORY 2_SCH=H,Air,NODE 190,NODE 191
 Branch List,10,SYS_4_PSZ_ALL_ST=FOOD PREPARATION - VENTED_FL=STORY 1_SCH=B SUPPLY BRANCHES,SYS_4_PSZ_ALL_ST=FOOD PREPARATION - VENTED_FL=STORY 1_SCH=B,Air,1
   Branch,1,SYS_4_PSZ_ALL_ST=FOOD PREPARATION - VENTED_FL=STORY 1_SCH=B MAIN BRANCH,SYS_4_PSZ_ALL_ST=FOOD PREPARATION - VENTED_FL=STORY 1_SCH=B,Air,NODE 203,NODE 204
 Branch List,11,SYS_4_PSZ_WILD_ST=ELECTRICAL/MECHANICAL-SCH-A_FL=STORY 4_SCH=B SUPPLY BRANCHES,SYS_4_PSZ_WILD_ST=ELECTRICAL/MECHANICAL-SCH-A_FL=STORY 4_SCH=B,Air,1
   Branch,1,SYS_4_PSZ_WILD_ST=ELECTRICAL/MECHANICAL-SCH-A_FL=STORY 4_SCH=B MAIN BRANCH,SYS_4_PSZ_WILD_ST=ELECTRICAL/MECHANICAL-SCH-A_FL=STORY 4_SCH=B,Air,NODE 80,NODE 81
 Branch List,12,SYS_6_VAV WITH REHEAT SUPPLY BRANCHES,SYS_6_VAV WITH REHEAT,Air,1
   Branch,1,SYS_6_VAV WITH REHEAT MAIN BRANCH,SYS_6_VAV WITH REHEAT,Air,NODE 243,NODE 244
 Branch List,13,CHILLED WATER LOOP SUPPLY BRANCHES,CHILLED WATER LOOP,Plant Supply,5
   Branch,1,CHILLED WATER LOOP SUPPLY INLET BRANCH,CHILLED WATER LOOP,Plant Supply,NODE 216,NODE 222
   Branch,2,CHILLED WATER LOOP SUPPLY BRANCH 1,CHILLED WATER LOOP,Plant Supply,NODE 218,NODE 223
   Branch,3,CHILLED WATER LOOP SUPPLY BRANCH 2,CHILLED WATER LOOP,Plant Supply,NODE 224,NODE 225
   Branch,4,CHILLED WATER LOOP SUPPLY BRANCH 3,CHILLED WATER LOOP,Plant Supply,NODE 226,NODE 227
   Branch,5,CHILLED WATER LOOP SUPPLY OUTLET BRANCH,CHILLED WATER LOOP,Plant Supply,NODE 228,NODE 217
 Branch List,14,CHILLED WATER LOOP DEMAND BRANCHES,CHILLED WATER LOOP,Plant Demand,4
   Branch,1,CHILLED WATER LOOP DEMAND INLET BRANCH,CHILLED WATER LOOP,Plant Demand,NODE 219,CHILLED WATER LOOP DEMAND INLET PIPE NODE
   Branch,2,CHILLED WATER LOOP DEMAND BRANCH 1,CHILLED WATER LOOP,Plant Demand,NODE 221,NODE 250
   Branch,3,CHILLED WATER LOOP DEMAND BYPASS BRANCH,CHILLED WATER LOOP,Plant Demand,CHILLED WATER LOOP DEMAND BYPASS PIPE INLET NODE,CHILLED WATER LOOP DEMAND BYPASS PIPE OUTLET NODE
   Branch,4,CHILLED WATER LOOP DEMAND OUTLET BRANCH,CHILLED WATER LOOP,Plant Demand,CHILLED WATER LOOP DEMAND OUTLET PIPE NODE,NODE 220
 Branch List,15,CONDENSER WATER LOOP SUPPLY BRANCHES,CONDENSER WATER LOOP,Plant Supply,4
   Branch,1,CONDENSER WATER LOOP SUPPLY INLET BRANCH,CONDENSER WATER LOOP,Plant Supply,NODE 229,NODE 235
   Branch,2,CONDENSER WATER LOOP SUPPLY BRANCH 1,CONDENSER WATER LOOP,Plant Supply,NODE 231,NODE 236
   Branch,3,CONDENSER WATER LOOP SUPPLY BRANCH 2,CONDENSER WATER LOOP,Plant Supply,NODE 237,NODE 238
   Branch,4,CONDENSER WATER LOOP SUPPLY OUTLET BRANCH,CONDENSER WATER LOOP,Plant Supply,NODE 239,NODE 230
 Branch List,16,CONDENSER WATER LOOP DEMAND BRANCHES,CONDENSER WATER LOOP,Plant Demand,5
   Branch,1,CONDENSER WATER LOOP DEMAND INLET BRANCH,CONDENSER WATER LOOP,Plant Demand,NODE 232,CONDENSER WATER LOOP DEMAND INLET PIPE NODE
   Branch,2,CONDENSER WATER LOOP DEMAND BRANCH 1,CONDENSER WATER LOOP,Plant Demand,NODE 234,NODE 240
   Branch,3,CONDENSER WATER LOOP DEMAND BRANCH 2,CONDENSER WATER LOOP,Plant Demand,NODE 241,NODE 242
   Branch,4,CONDENSER WATER LOOP DEMAND BYPASS BRANCH,CONDENSER WATER LOOP,Plant Demand,CONDENSER WATER LOOP DEMAND BYPASS PIPE INLET NODE,CONDENSER WATER LOOP DEMAND BYPASS PIPE OUTLET NODE
   Branch,5,CONDENSER WATER LOOP DEMAND OUTLET BRANCH,CONDENSER WATER LOOP,Plant Demand,CONDENSER WATER LOOP DEMAND OUTLET PIPE NODE,NODE 233
 Branch List,17,HOT WATER LOOP SUPPLY BRANCHES,HOT WATER LOOP,Plant Supply,5
   Branch,1,HOT WATER LOOP SUPPLY INLET BRANCH,HOT WATER LOOP,Plant Supply,NODE 2,NODE 11
   Branch,2,HOT WATER LOOP SUPPLY BRANCH 1,HOT WATER LOOP,Plant Supply,NODE 5,NODE 12
   Branch,3,HOT WATER LOOP SUPPLY BRANCH 2,HOT WATER LOOP,Plant Supply,NODE 14,NODE 15
   Branch,4,HOT WATER LOOP SUPPLY BRANCH 3,HOT WATER LOOP,Plant Supply,NODE 17,NODE 18
   Branch,5,HOT WATER LOOP SUPPLY OUTLET BRANCH,HOT WATER LOOP,Plant Supply,NODE 20,NODE 3
 Branch List,18,HOT WATER LOOP DEMAND BRANCHES,HOT WATER LOOP,Plant Demand,27
   Branch,1,HOT WATER LOOP DEMAND INLET BRANCH,HOT WATER LOOP,Plant Demand,NODE 6,HOT WATER LOOP DEMAND INLET PIPE NODE
   Branch,2,HOT WATER LOOP DEMAND BRANCH 1,HOT WATER LOOP,Plant Demand,NODE 9,NODE 38
   Branch,3,HOT WATER LOOP DEMAND BRANCH 2,HOT WATER LOOP,Plant Demand,NODE 47,NODE 48
   Branch,4,HOT WATER LOOP DEMAND BRANCH 3,HOT WATER LOOP,Plant Demand,NODE 60,NODE 61
   Branch,5,HOT WATER LOOP DEMAND BRANCH 4,HOT WATER LOOP,Plant Demand,NODE 68,NODE 69
   Branch,6,HOT WATER LOOP DEMAND BRANCH 5,HOT WATER LOOP,Plant Demand,NODE 77,NODE 78
   Branch,7,HOT WATER LOOP DEMAND BRANCH 6,HOT WATER LOOP,Plant Demand,NODE 91,NODE 92
   Branch,8,HOT WATER LOOP DEMAND BRANCH 7,HOT WATER LOOP,Plant Demand,NODE 95,NODE 96
   Branch,9,HOT WATER LOOP DEMAND BRANCH 8,HOT WATER LOOP,Plant Demand,NODE 99,NODE 100
   Branch,10,HOT WATER LOOP DEMAND BRANCH 9,HOT WATER LOOP,Plant Demand,NODE 103,NODE 104
   Branch,11,HOT WATER LOOP DEMAND BRANCH 10,HOT WATER LOOP,Plant Demand,NODE 107,NODE 108
   Branch,12,HOT WATER LOOP DEMAND BRANCH 11,HOT WATER LOOP,Plant Demand,NODE 111,NODE 112
   Branch,13,HOT WATER LOOP DEMAND BRANCH 12,HOT WATER LOOP,Plant Demand,NODE 115,NODE 116
   Branch,14,HOT WATER LOOP DEMAND BRANCH 13,HOT WATER LOOP,Plant Demand,NODE 119,NODE 120
   Branch,15,HOT WATER LOOP DEMAND BRANCH 14,HOT WATER LOOP,Plant Demand,NODE 123,NODE 124
   Branch,16,HOT WATER LOOP DEMAND BRANCH 15,HOT WATER LOOP,Plant Demand,NODE 136,NODE 137
   Branch,17,HOT WATER LOOP DEMAND BRANCH 16,HOT WATER LOOP,Plant Demand,NODE 149,NODE 150
   Branch,18,HOT WATER LOOP DEMAND BRANCH 17,HOT WATER LOOP,Plant Demand,NODE 162,NODE 163
   Branch,19,HOT WATER LOOP DEMAND BRANCH 18,HOT WATER LOOP,Plant Demand,NODE 175,NODE 176
   Branch,20,HOT WATER LOOP DEMAND BRANCH 19,HOT WATER LOOP,Plant Demand,NODE 188,NODE 189
   Branch,21,HOT WATER LOOP DEMAND BRANCH 20,HOT WATER LOOP,Plant Demand,NODE 201,NODE 202
   Branch,22,HOT WATER LOOP DEMAND BRANCH 21,HOT WATER LOOP,Plant Demand,NODE 214,NODE 215
   Branch,23,HOT WATER LOOP DEMAND BRANCH 22,HOT WATER LOOP,Plant Demand,NODE 248,NODE 249
   Branch,24,HOT WATER LOOP DEMAND BRANCH 23,HOT WATER LOOP,Plant Demand,NODE 257,NODE 258
   Branch,25,HOT WATER LOOP DEMAND BRANCH 24,HOT WATER LOOP,Plant Demand,NODE 261,NODE 262
   Branch,26,HOT WATER LOOP DEMAND BYPASS BRANCH,HOT WATER LOOP,Plant Demand,HOT WATER LOOP DEMAND BYPASS PIPE INLET NODE,HOT WATER LOOP DEMAND BYPASS PIPE OUTLET NODE
   Branch,27,HOT WATER LOOP DEMAND OUTLET BRANCH,HOT WATER LOOP,Plant Demand,HOT WATER LOOP DEMAND OUTLET PIPE NODE,NODE 8
 Branch List,19,MAIN SERVICE WATER LOOP SUPPLY BRANCHES,MAIN SERVICE WATER LOOP,Plant Supply,4
   Branch,1,MAIN SERVICE WATER LOOP SUPPLY INLET BRANCH,MAIN SERVICE WATER LOOP,Plant Supply,NODE 263,NODE 269
   Branch,2,MAIN SERVICE WATER LOOP SUPPLY BRANCH 1,MAIN SERVICE WATER LOOP,Plant Supply,NODE 265,NODE 270
   Branch,3,MAIN SERVICE WATER LOOP SUPPLY BRANCH 2,MAIN SERVICE WATER LOOP,Plant Supply,NODE 271,NODE 272
   Branch,4,MAIN SERVICE WATER LOOP SUPPLY OUTLET BRANCH,MAIN SERVICE WATER LOOP,Plant Supply,NODE 274,NODE 264
 Branch List,20,MAIN SERVICE WATER LOOP DEMAND BRANCHES,MAIN SERVICE WATER LOOP,Plant Demand,15
   Branch,1,MAIN SERVICE WATER LOOP DEMAND INLET BRANCH,MAIN SERVICE WATER LOOP,Plant Demand,NODE 266,NODE 275
   Branch,2,MAIN SERVICE WATER LOOP DEMAND BRANCH 1,MAIN SERVICE WATER LOOP,Plant Demand,NODE 268,NODE 273
   Branch,3,MAIN SERVICE WATER LOOP DEMAND BRANCH 2,MAIN SERVICE WATER LOOP,Plant Demand,NODE 277,NODE 278
   Branch,4,MAIN SERVICE WATER LOOP DEMAND BRANCH 3,MAIN SERVICE WATER LOOP,Plant Demand,NODE 279,NODE 280
   Branch,5,MAIN SERVICE WATER LOOP DEMAND BRANCH 4,MAIN SERVICE WATER LOOP,Plant Demand,NODE 281,NODE 282
   Branch,6,MAIN SERVICE WATER LOOP DEMAND BRANCH 5,MAIN SERVICE WATER LOOP,Plant Demand,NODE 283,NODE 284
   Branch,7,MAIN SERVICE WATER LOOP DEMAND BRANCH 6,MAIN SERVICE WATER LOOP,Plant Demand,NODE 285,NODE 286
   Branch,8,MAIN SERVICE WATER LOOP DEMAND BRANCH 7,MAIN SERVICE WATER LOOP,Plant Demand,NODE 287,NODE 288
   Branch,9,MAIN SERVICE WATER LOOP DEMAND BRANCH 8,MAIN SERVICE WATER LOOP,Plant Demand,NODE 289,NODE 290
   Branch,10,MAIN SERVICE WATER LOOP DEMAND BRANCH 9,MAIN SERVICE WATER LOOP,Plant Demand,NODE 291,NODE 292
   Branch,11,MAIN SERVICE WATER LOOP DEMAND BRANCH 10,MAIN SERVICE WATER LOOP,Plant Demand,NODE 293,NODE 294
   Branch,12,MAIN SERVICE WATER LOOP DEMAND BRANCH 11,MAIN SERVICE WATER LOOP,Plant Demand,NODE 295,NODE 296
   Branch,13,MAIN SERVICE WATER LOOP DEMAND BRANCH 12,MAIN SERVICE WATER LOOP,Plant Demand,NODE 297,NODE 298
   Branch,14,MAIN SERVICE WATER LOOP DEMAND BYPASS BRANCH,MAIN SERVICE WATER LOOP,Plant Demand,MAIN SERVICE WATER LOOP DEMAND BYPASS PIPE INLET NODE,MAIN SERVICE WATER LOOP DEMAND BYPASS PIPE OUTLET NODE
   Branch,15,MAIN SERVICE WATER LOOP DEMAND OUTLET BRANCH,MAIN SERVICE WATER LOOP,Plant Demand,NODE 276,NODE 267
! ===============================================================
! <#Supply Air Paths>,<Number of Supply Air Paths>
 #Supply Air Paths,12
! <Supply Air Path>,<Supply Air Path Count>,<Supply Air Path Name>,<AirLoopHVAC Name>
! <#Components on Supply Air Path>,<Number of Components>
! <Supply Air Path Component>,<Component Count>,<Component Type>,<Component Name>,<AirLoopHVAC Name>
! <#Outlet Nodes on Supply Air Path Component>,<Number of Nodes>
! <Supply Air Path Component Nodes>,<Node Count>,<Component Type>,<Component Name>,<Inlet Node Name>,<Outlet Node Name>,<AirLoopHVAC Name>
 Supply Air Path,1,SYS_1_MAKE-UP AIR UNIT NODE 42 SUPPLY PATH,SYS_1_MAKE-UP AIR UNIT
   #Components on Supply Air Path,1
   Supply Air Path Component,1,AIRLOOPHVAC:ZONESPLITTER,AIR LOOP HVAC ZONE SPLITTER 2,SYS_1_MAKE-UP AIR UNIT
     #Outlet Nodes on Supply Air Path Component,1
     Supply Air Path Component Nodes,1,AIRLOOPHVAC:ZONESPLITTER,AIR LOOP HVAC ZONE SPLITTER 2,NODE 42,NODE 45,SYS_1_MAKE-UP AIR UNIT
! <#Nodes on Supply Air Path>,<Number of Nodes>
! <Supply Air Path Node>,<Node Type>,<Node Count>,<Node Name>,<AirLoopHVAC Name>
#Nodes on Supply Air Path,2
   Supply Air Path Node,Inlet Node,1,NODE 42,SYS_1_MAKE-UP AIR UNIT
   Supply Air Path Node,Outlet Node,2,NODE 45,SYS_1_MAKE-UP AIR UNIT
 Supply Air Path,2,SYS_1_MAKE-UP AIR UNIT 1 NODE 65 SUPPLY PATH,SYS_1_MAKE-UP AIR UNIT 1
   #Components on Supply Air Path,1
   Supply Air Path Component,1,AIRLOOPHVAC:ZONESPLITTER,AIR LOOP HVAC ZONE SPLITTER 3,SYS_1_MAKE-UP AIR UNIT 1
     #Outlet Nodes on Supply Air Path Component,1
     Supply Air Path Component Nodes,1,AIRLOOPHVAC:ZONESPLITTER,AIR LOOP HVAC ZONE SPLITTER 3,NODE 65,NODE 67,SYS_1_MAKE-UP AIR UNIT 1
! <#Nodes on Supply Air Path>,<Number of Nodes>
! <Supply Air Path Node>,<Node Type>,<Node Count>,<Node Name>,<AirLoopHVAC Name>
#Nodes on Supply Air Path,2
   Supply Air Path Node,Inlet Node,1,NODE 65,SYS_1_MAKE-UP AIR UNIT 1
   Supply Air Path Node,Outlet Node,2,NODE 67,SYS_1_MAKE-UP AIR UNIT 1
 Supply Air Path,3,SYS_3_PSZ ALL_ST=DINING - BAR LOUNGE/LEISURE_FL=STORY 4_SCH=B NODE 127 SUPPLY PATH,SYS_3_PSZ ALL_ST=DINING - BAR LOUNGE/LEISURE_FL=STORY 4_SCH=B
   #Components on Supply Air Path,1
   Supply Air Path Component,1,AIRLOOPHVAC:ZONESPLITTER,AIR LOOP HVAC ZONE SPLITTER 5,SYS_3_PSZ ALL_ST=DINING - BAR LOUNGE/LEISURE_FL=STORY 4_SCH=B
     #Outlet Nodes on Supply Air Path Component,1
     Supply Air Path Component Nodes,1,AIRLOOPHVAC:ZONESPLITTER,AIR LOOP HVAC ZONE SPLITTER 5,NODE 127,NODE 129,SYS_3_PSZ ALL_ST=DINING - BAR LOUNGE/LEISURE_FL=STORY 4_SCH=B
! <#Nodes on Supply Air Path>,<Number of Nodes>
! <Supply Air Path Node>,<Node Type>,<Node Count>,<Node Name>,<AirLoopHVAC Name>
#Nodes on Supply Air Path,2
   Supply Air Path Node,Inlet Node,1,NODE 127,SYS_3_PSZ ALL_ST=DINING - BAR LOUNGE/LEISURE_FL=STORY 4_SCH=B
   Supply Air Path Node,Outlet Node,2,NODE 129,SYS_3_PSZ ALL_ST=DINING - BAR LOUNGE/LEISURE_FL=STORY 4_SCH=B
 Supply Air Path,4,SYS_3_PSZ ALL_ST=DINING - FAMILY SPACE_FL=STORY 4_SCH=B NODE 140 SUPPLY PATH,SYS_3_PSZ ALL_ST=DINING - FAMILY SPACE_FL=STORY 4_SCH=B
   #Components on Supply Air Path,1
   Supply Air Path Component,1,AIRLOOPHVAC:ZONESPLITTER,AIR LOOP HVAC ZONE SPLITTER 6,SYS_3_PSZ ALL_ST=DINING - FAMILY SPACE_FL=STORY 4_SCH=B
     #Outlet Nodes on Supply Air Path Component,1
     Supply Air Path Component Nodes,1,AIRLOOPHVAC:ZONESPLITTER,AIR LOOP HVAC ZONE SPLITTER 6,NODE 140,NODE 142,SYS_3_PSZ ALL_ST=DINING - FAMILY SPACE_FL=STORY 4_SCH=B
! <#Nodes on Supply Air Path>,<Number of Nodes>
! <Supply Air Path Node>,<Node Type>,<Node Count>,<Node Name>,<AirLoopHVAC Name>
#Nodes on Supply Air Path,2
   Supply Air Path Node,Inlet Node,1,NODE 140,SYS_3_PSZ ALL_ST=DINING - FAMILY SPACE_FL=STORY 4_SCH=B
   Supply Air Path Node,Outlet Node,2,NODE 142,SYS_3_PSZ ALL_ST=DINING - FAMILY SPACE_FL=STORY 4_SCH=B
 Supply Air Path,5,SYS_3_PSZ ALL_ST=DINING - OTHER_FL=STORY 4_SCH=B NODE 153 SUPPLY PATH,SYS_3_PSZ ALL_ST=DINING - OTHER_FL=STORY 4_SCH=B
   #Components on Supply Air Path,1
   Supply Air Path Component,1,AIRLOOPHVAC:ZONESPLITTER,AIR LOOP HVAC ZONE SPLITTER 7,SYS_3_PSZ ALL_ST=DINING - OTHER_FL=STORY 4_SCH=B
     #Outlet Nodes on Supply Air Path Component,1
     Supply Air Path Component Nodes,1,AIRLOOPHVAC:ZONESPLITTER,AIR LOOP HVAC ZONE SPLITTER 7,NODE 153,NODE 155,SYS_3_PSZ ALL_ST=DINING - OTHER_FL=STORY 4_SCH=B
! <#Nodes on Supply Air Path>,<Number of Nodes>
! <Supply Air Path Node>,<Node Type>,<Node Count>,<Node Name>,<AirLoopHVAC Name>
#Nodes on Supply Air Path,2
   Supply Air Path Node,Inlet Node,1,NODE 153,SYS_3_PSZ ALL_ST=DINING - OTHER_FL=STORY 4_SCH=B
   Supply Air Path Node,Outlet Node,2,NODE 155,SYS_3_PSZ ALL_ST=DINING - OTHER_FL=STORY 4_SCH=B
 Supply Air Path,6,SYS_3_PSZ ALL_ST=DRESS./FITT. - PERFORMANCE ARTS_FL=STORY 3_SCH=C NODE 166 SUPPLY PATH,SYS_3_PSZ ALL_ST=DRESS./FITT. - PERFORMANCE ARTS_FL=STORY 3_SCH=C
   #Components on Supply Air Path,1
   Supply Air Path Component,1,AIRLOOPHVAC:ZONESPLITTER,AIR LOOP HVAC ZONE SPLITTER 8,SYS_3_PSZ ALL_ST=DRESS./FITT. - PERFORMANCE ARTS_FL=STORY 3_SCH=C
     #Outlet Nodes on Supply Air Path Component,1
     Supply Air Path Component Nodes,1,AIRLOOPHVAC:ZONESPLITTER,AIR LOOP HVAC ZONE SPLITTER 8,NODE 166,NODE 168,SYS_3_PSZ ALL_ST=DRESS./FITT. - PERFORMANCE ARTS_FL=STORY 3_SCH=C
! <#Nodes on Supply Air Path>,<Number of Nodes>
! <Supply Air Path Node>,<Node Type>,<Node Count>,<Node Name>,<AirLoopHVAC Name>
#Nodes on Supply Air Path,2
   Supply Air Path Node,Inlet Node,1,NODE 166,SYS_3_PSZ ALL_ST=DRESS./FITT. - PERFORMANCE ARTS_FL=STORY 3_SCH=C
   Supply Air Path Node,Outlet Node,2,NODE 168,SYS_3_PSZ ALL_ST=DRESS./FITT. - PERFORMANCE ARTS_FL=STORY 3_SCH=C
 Supply Air Path,7,SYS_3_PSZ ALL_ST=FOOD PREPARATION_FL=STORY 3_SCH=B NODE 179 SUPPLY PATH,SYS_3_PSZ ALL_ST=FOOD PREPARATION_FL=STORY 3_SCH=B
   #Components on Supply Air Path,1
   Supply Air Path Component,1,AIRLOOPHVAC:ZONESPLITTER,AIR LOOP HVAC ZONE SPLITTER 9,SYS_3_PSZ ALL_ST=FOOD PREPARATION_FL=STORY 3_SCH=B
     #Outlet Nodes on Supply Air Path Component,1
     Supply Air Path Component Nodes,1,AIRLOOPHVAC:ZONESPLITTER,AIR LOOP HVAC ZONE SPLITTER 9,NODE 179,NODE 181,SYS_3_PSZ ALL_ST=FOOD PREPARATION_FL=STORY 3_SCH=B
! <#Nodes on Supply Air Path>,<Number of Nodes>
! <Supply Air Path Node>,<Node Type>,<Node Count>,<Node Name>,<AirLoopHVAC Name>
#Nodes on Supply Air Path,2
   Supply Air Path Node,Inlet Node,1,NODE 179,SYS_3_PSZ ALL_ST=FOOD PREPARATION_FL=STORY 3_SCH=B
   Supply Air Path Node,Outlet Node,2,NODE 181,SYS_3_PSZ ALL_ST=FOOD PREPARATION_FL=STORY 3_SCH=B
 Supply Air Path,8,SYS_3_PSZ DU_BT=SPACE FUNCTION_ST=DORMITORY - LIVING QUARTERS_FL=STORY 3_SCHG NODE 24 SUPPLY PATH,SYS_3_PSZ DU_BT=SPACE FUNCTION_ST=DORMITORY - LIVING QUARTERS_FL=STORY 3_SCHG
   #Components on Supply Air Path,1
   Supply Air Path Component,1,AIRLOOPHVAC:ZONESPLITTER,AIR LOOP HVAC ZONE SPLITTER 1,SYS_3_PSZ DU_BT=SPACE FUNCTION_ST=DORMITORY - LIVING QUARTERS_FL=STORY 3_SCHG
     #Outlet Nodes on Supply Air Path Component,1
     Supply Air Path Component Nodes,1,AIRLOOPHVAC:ZONESPLITTER,AIR LOOP HVAC ZONE SPLITTER 1,NODE 24,NODE 27,SYS_3_PSZ DU_BT=SPACE FUNCTION_ST=DORMITORY - LIVING QUARTERS_FL=STORY 3_SCHG
! <#Nodes on Supply Air Path>,<Number of Nodes>
! <Supply Air Path Node>,<Node Type>,<Node Count>,<Node Name>,<AirLoopHVAC Name>
#Nodes on Supply Air Path,2
   Supply Air Path Node,Inlet Node,1,NODE 24,SYS_3_PSZ DU_BT=SPACE FUNCTION_ST=DORMITORY - LIVING QUARTERS_FL=STORY 3_SCHG
   Supply Air Path Node,Outlet Node,2,NODE 27,SYS_3_PSZ DU_BT=SPACE FUNCTION_ST=DORMITORY - LIVING QUARTERS_FL=STORY 3_SCHG
 Supply Air Path,9,SYS_4_PSZ_ALL_ST=FIRE STATION - ENGINE ROOM_FL=STORY 2_SCH=H NODE 192 SUPPLY PATH,SYS_4_PSZ_ALL_ST=FIRE STATION - ENGINE ROOM_FL=STORY 2_SCH=H
   #Components on Supply Air Path,1
   Supply Air Path Component,1,AIRLOOPHVAC:ZONESPLITTER,AIR LOOP HVAC ZONE SPLITTER 10,SYS_4_PSZ_ALL_ST=FIRE STATION - ENGINE ROOM_FL=STORY 2_SCH=H
     #Outlet Nodes on Supply Air Path Component,1
     Supply Air Path Component Nodes,1,AIRLOOPHVAC:ZONESPLITTER,AIR LOOP HVAC ZONE SPLITTER 10,NODE 192,NODE 194,SYS_4_PSZ_ALL_ST=FIRE STATION - ENGINE ROOM_FL=STORY 2_SCH=H
! <#Nodes on Supply Air Path>,<Number of Nodes>
! <Supply Air Path Node>,<Node Type>,<Node Count>,<Node Name>,<AirLoopHVAC Name>
#Nodes on Supply Air Path,2
   Supply Air Path Node,Inlet Node,1,NODE 192,SYS_4_PSZ_ALL_ST=FIRE STATION - ENGINE ROOM_FL=STORY 2_SCH=H
   Supply Air Path Node,Outlet Node,2,NODE 194,SYS_4_PSZ_ALL_ST=FIRE STATION - ENGINE ROOM_FL=STORY 2_SCH=H
 Supply Air Path,10,SYS_4_PSZ_ALL_ST=FOOD PREPARATION - VENTED_FL=STORY 1_SCH=B NODE 205 SUPPLY PATH,SYS_4_PSZ_ALL_ST=FOOD PREPARATION - VENTED_FL=STORY 1_SCH=B
   #Components on Supply Air Path,1
   Supply Air Path Component,1,AIRLOOPHVAC:ZONESPLITTER,AIR LOOP HVAC ZONE SPLITTER 11,SYS_4_PSZ_ALL_ST=FOOD PREPARATION - VENTED_FL=STORY 1_SCH=B
     #Outlet Nodes on Supply Air Path Component,1
     Supply Air Path Component Nodes,1,AIRLOOPHVAC:ZONESPLITTER,AIR LOOP HVAC ZONE SPLITTER 11,NODE 205,NODE 207,SYS_4_PSZ_ALL_ST=FOOD PREPARATION - VENTED_FL=STORY 1_SCH=B
! <#Nodes on Supply Air Path>,<Number of Nodes>
! <Supply Air Path Node>,<Node Type>,<Node Count>,<Node Name>,<AirLoopHVAC Name>
#Nodes on Supply Air Path,2
   Supply Air Path Node,Inlet Node,1,NODE 205,SYS_4_PSZ_ALL_ST=FOOD PREPARATION - VENTED_FL=STORY 1_SCH=B
   Supply Air Path Node,Outlet Node,2,NODE 207,SYS_4_PSZ_ALL_ST=FOOD PREPARATION - VENTED_FL=STORY 1_SCH=B
 Supply Air Path,11,SYS_4_PSZ_WILD_ST=ELECTRICAL/MECHANICAL-SCH-A_FL=STORY 4_SCH=B NODE 82 SUPPLY PATH,SYS_4_PSZ_WILD_ST=ELECTRICAL/MECHANICAL-SCH-A_FL=STORY 4_SCH=B
   #Components on Supply Air Path,1
   Supply Air Path Component,1,AIRLOOPHVAC:ZONESPLITTER,AIR LOOP HVAC ZONE SPLITTER 4,SYS_4_PSZ_WILD_ST=ELECTRICAL/MECHANICAL-SCH-A_FL=STORY 4_SCH=B
     #Outlet Nodes on Supply Air Path Component,9
     Supply Air Path Component Nodes,1,AIRLOOPHVAC:ZONESPLITTER,AIR LOOP HVAC ZONE SPLITTER 4,NODE 82,NODE 84,SYS_4_PSZ_WILD_ST=ELECTRICAL/MECHANICAL-SCH-A_FL=STORY 4_SCH=B
     Supply Air Path Component Nodes,2,AIRLOOPHVAC:ZONESPLITTER,AIR LOOP HVAC ZONE SPLITTER 4,NODE 82,NODE 93,SYS_4_PSZ_WILD_ST=ELECTRICAL/MECHANICAL-SCH-A_FL=STORY 4_SCH=B
     Supply Air Path Component Nodes,3,AIRLOOPHVAC:ZONESPLITTER,AIR LOOP HVAC ZONE SPLITTER 4,NODE 82,NODE 97,SYS_4_PSZ_WILD_ST=ELECTRICAL/MECHANICAL-SCH-A_FL=STORY 4_SCH=B
     Supply Air Path Component Nodes,4,AIRLOOPHVAC:ZONESPLITTER,AIR LOOP HVAC ZONE SPLITTER 4,NODE 82,NODE 101,SYS_4_PSZ_WILD_ST=ELECTRICAL/MECHANICAL-SCH-A_FL=STORY 4_SCH=B
     Supply Air Path Component Nodes,5,AIRLOOPHVAC:ZONESPLITTER,AIR LOOP HVAC ZONE SPLITTER 4,NODE 82,NODE 105,SYS_4_PSZ_WILD_ST=ELECTRICAL/MECHANICAL-SCH-A_FL=STORY 4_SCH=B
     Supply Air Path Component Nodes,6,AIRLOOPHVAC:ZONESPLITTER,AIR LOOP HVAC ZONE SPLITTER 4,NODE 82,NODE 109,SYS_4_PSZ_WILD_ST=ELECTRICAL/MECHANICAL-SCH-A_FL=STORY 4_SCH=B
     Supply Air Path Component Nodes,7,AIRLOOPHVAC:ZONESPLITTER,AIR LOOP HVAC ZONE SPLITTER 4,NODE 82,NODE 113,SYS_4_PSZ_WILD_ST=ELECTRICAL/MECHANICAL-SCH-A_FL=STORY 4_SCH=B
     Supply Air Path Component Nodes,8,AIRLOOPHVAC:ZONESPLITTER,AIR LOOP HVAC ZONE SPLITTER 4,NODE 82,NODE 117,SYS_4_PSZ_WILD_ST=ELECTRICAL/MECHANICAL-SCH-A_FL=STORY 4_SCH=B
     Supply Air Path Component Nodes,9,AIRLOOPHVAC:ZONESPLITTER,AIR LOOP HVAC ZONE SPLITTER 4,NODE 82,NODE 121,SYS_4_PSZ_WILD_ST=ELECTRICAL/MECHANICAL-SCH-A_FL=STORY 4_SCH=B
! <#Nodes on Supply Air Path>,<Number of Nodes>
! <Supply Air Path Node>,<Node Type>,<Node Count>,<Node Name>,<AirLoopHVAC Name>
#Nodes on Supply Air Path,10
   Supply Air Path Node,Inlet Node,1,NODE 82,SYS_4_PSZ_WILD_ST=ELECTRICAL/MECHANICAL-SCH-A_FL=STORY 4_SCH=B
   Supply Air Path Node,Outlet Node,2,NODE 84,SYS_4_PSZ_WILD_ST=ELECTRICAL/MECHANICAL-SCH-A_FL=STORY 4_SCH=B
   Supply Air Path Node,Outlet Node,3,NODE 93,SYS_4_PSZ_WILD_ST=ELECTRICAL/MECHANICAL-SCH-A_FL=STORY 4_SCH=B
   Supply Air Path Node,Outlet Node,4,NODE 97,SYS_4_PSZ_WILD_ST=ELECTRICAL/MECHANICAL-SCH-A_FL=STORY 4_SCH=B
   Supply Air Path Node,Outlet Node,5,NODE 101,SYS_4_PSZ_WILD_ST=ELECTRICAL/MECHANICAL-SCH-A_FL=STORY 4_SCH=B
   Supply Air Path Node,Outlet Node,6,NODE 105,SYS_4_PSZ_WILD_ST=ELECTRICAL/MECHANICAL-SCH-A_FL=STORY 4_SCH=B
   Supply Air Path Node,Outlet Node,7,NODE 109,SYS_4_PSZ_WILD_ST=ELECTRICAL/MECHANICAL-SCH-A_FL=STORY 4_SCH=B
   Supply Air Path Node,Outlet Node,8,NODE 113,SYS_4_PSZ_WILD_ST=ELECTRICAL/MECHANICAL-SCH-A_FL=STORY 4_SCH=B
   Supply Air Path Node,Outlet Node,9,NODE 117,SYS_4_PSZ_WILD_ST=ELECTRICAL/MECHANICAL-SCH-A_FL=STORY 4_SCH=B
   Supply Air Path Node,Outlet Node,10,NODE 121,SYS_4_PSZ_WILD_ST=ELECTRICAL/MECHANICAL-SCH-A_FL=STORY 4_SCH=B
 Supply Air Path,12,SYS_6_VAV WITH REHEAT NODE 245 SUPPLY PATH,SYS_6_VAV WITH REHEAT
   #Components on Supply Air Path,1
   Supply Air Path Component,1,AIRLOOPHVAC:ZONESPLITTER,AIR LOOP HVAC ZONE SPLITTER 12,SYS_6_VAV WITH REHEAT
     #Outlet Nodes on Supply Air Path Component,1
     Supply Air Path Component Nodes,1,AIRLOOPHVAC:ZONESPLITTER,AIR LOOP HVAC ZONE SPLITTER 12,NODE 245,NODE 260,SYS_6_VAV WITH REHEAT
! <#Nodes on Supply Air Path>,<Number of Nodes>
! <Supply Air Path Node>,<Node Type>,<Node Count>,<Node Name>,<AirLoopHVAC Name>
#Nodes on Supply Air Path,2
   Supply Air Path Node,Inlet Node,1,NODE 245,SYS_6_VAV WITH REHEAT
   Supply Air Path Node,Outlet Node,2,NODE 260,SYS_6_VAV WITH REHEAT
! ===============================================================
! <#Return Air Paths>,<Number of Return Air Paths>
 #Return Air Paths,12
! <Return Air Path>,<Return Air Path Count>,<Return Air Path Name>,<AirLoopHVAC Name>
! <#Components on Return Air Path>,<Number of Components>
! <Return Air Path Component>,<Component Count>,<Component Type>,<Component Name>,<AirLoopHVAC Name>
! <#Inlet Nodes on Return Air Path Component>,<Number of Nodes>
! <Return Air Path Component Nodes>,<Node Count>,<Component Type>,<Component Name>,<Inlet Node Name>,<Outlet Node Name>,<AirLoopHVAC Name>
 Return Air Path,1,SYS_1_MAKE-UP AIR UNIT RETURN PATH,SYS_1_MAKE-UP AIR UNIT
   #Components on Return Air Path,1
   Return Air Path Component,1,AIRLOOPHVAC:ZONEMIXER,AIR LOOP HVAC ZONE MIXER 2,SYS_1_MAKE-UP AIR UNIT
     #Inlet Nodes on Return Air Path Component,1
     Return Air Path Component Nodes,1,AIRLOOPHVAC:ZONEMIXER,AIR LOOP HVAC ZONE MIXER 2,NODE 62,NODE 44,SYS_1_MAKE-UP AIR UNIT
! <#Nodes on Return Air Path>,<Number of Nodes>
! <Return Air Path Node>,<Node Type>,<Node Count>,<Node Name>,<AirLoopHVAC Name>
   #Nodes on Return Air Path,2
   Return Air Path Node,Outlet Node,1,NODE 44,SYS_1_MAKE-UP AIR UNIT
   Return Air Path Node,Inlet Node,2,NODE 62,SYS_1_MAKE-UP AIR UNIT
 Return Air Path,2,SYS_1_MAKE-UP AIR UNIT 1 RETURN PATH,SYS_1_MAKE-UP AIR UNIT 1
   #Components on Return Air Path,1
   Return Air Path Component,1,AIRLOOPHVAC:ZONEMIXER,AIR LOOP HVAC ZONE MIXER 3,SYS_1_MAKE-UP AIR UNIT 1
     #Inlet Nodes on Return Air Path Component,1
     Return Air Path Component Nodes,1,AIRLOOPHVAC:ZONEMIXER,AIR LOOP HVAC ZONE MIXER 3,NODE 79,NODE 66,SYS_1_MAKE-UP AIR UNIT 1
! <#Nodes on Return Air Path>,<Number of Nodes>
! <Return Air Path Node>,<Node Type>,<Node Count>,<Node Name>,<AirLoopHVAC Name>
   #Nodes on Return Air Path,2
   Return Air Path Node,Outlet Node,1,NODE 66,SYS_1_MAKE-UP AIR UNIT 1
   Return Air Path Node,Inlet Node,2,NODE 79,SYS_1_MAKE-UP AIR UNIT 1
 Return Air Path,3,SYS_3_PSZ ALL_ST=DINING - BAR LOUNGE/LEISURE_FL=STORY 4_SCH=B RETURN PATH,SYS_3_PSZ ALL_ST=DINING - BAR LOUNGE/LEISURE_FL=STORY 4_SCH=B
   #Components on Return Air Path,1
   Return Air Path Component,1,AIRLOOPHVAC:ZONEMIXER,AIR LOOP HVAC ZONE MIXER 5,SYS_3_PSZ ALL_ST=DINING - BAR LOUNGE/LEISURE_FL=STORY 4_SCH=B
     #Inlet Nodes on Return Air Path Component,1
     Return Air Path Component Nodes,1,AIRLOOPHVAC:ZONEMIXER,AIR LOOP HVAC ZONE MIXER 5,NODE 135,NODE 128,SYS_3_PSZ ALL_ST=DINING - BAR LOUNGE/LEISURE_FL=STORY 4_SCH=B
! <#Nodes on Return Air Path>,<Number of Nodes>
! <Return Air Path Node>,<Node Type>,<Node Count>,<Node Name>,<AirLoopHVAC Name>
   #Nodes on Return Air Path,2
   Return Air Path Node,Outlet Node,1,NODE 128,SYS_3_PSZ ALL_ST=DINING - BAR LOUNGE/LEISURE_FL=STORY 4_SCH=B
   Return Air Path Node,Inlet Node,2,NODE 135,SYS_3_PSZ ALL_ST=DINING - BAR LOUNGE/LEISURE_FL=STORY 4_SCH=B
 Return Air Path,4,SYS_3_PSZ ALL_ST=DINING - FAMILY SPACE_FL=STORY 4_SCH=B RETURN PATH,SYS_3_PSZ ALL_ST=DINING - FAMILY SPACE_FL=STORY 4_SCH=B
   #Components on Return Air Path,1
   Return Air Path Component,1,AIRLOOPHVAC:ZONEMIXER,AIR LOOP HVAC ZONE MIXER 6,SYS_3_PSZ ALL_ST=DINING - FAMILY SPACE_FL=STORY 4_SCH=B
     #Inlet Nodes on Return Air Path Component,1
     Return Air Path Component Nodes,1,AIRLOOPHVAC:ZONEMIXER,AIR LOOP HVAC ZONE MIXER 6,NODE 148,NODE 141,SYS_3_PSZ ALL_ST=DINING - FAMILY SPACE_FL=STORY 4_SCH=B
! <#Nodes on Return Air Path>,<Number of Nodes>
! <Return Air Path Node>,<Node Type>,<Node Count>,<Node Name>,<AirLoopHVAC Name>
   #Nodes on Return Air Path,2
   Return Air Path Node,Outlet Node,1,NODE 141,SYS_3_PSZ ALL_ST=DINING - FAMILY SPACE_FL=STORY 4_SCH=B
   Return Air Path Node,Inlet Node,2,NODE 148,SYS_3_PSZ ALL_ST=DINING - FAMILY SPACE_FL=STORY 4_SCH=B
 Return Air Path,5,SYS_3_PSZ ALL_ST=DINING - OTHER_FL=STORY 4_SCH=B RETURN PATH,SYS_3_PSZ ALL_ST=DINING - OTHER_FL=STORY 4_SCH=B
   #Components on Return Air Path,1
   Return Air Path Component,1,AIRLOOPHVAC:ZONEMIXER,AIR LOOP HVAC ZONE MIXER 7,SYS_3_PSZ ALL_ST=DINING - OTHER_FL=STORY 4_SCH=B
     #Inlet Nodes on Return Air Path Component,1
     Return Air Path Component Nodes,1,AIRLOOPHVAC:ZONEMIXER,AIR LOOP HVAC ZONE MIXER 7,NODE 161,NODE 154,SYS_3_PSZ ALL_ST=DINING - OTHER_FL=STORY 4_SCH=B
! <#Nodes on Return Air Path>,<Number of Nodes>
! <Return Air Path Node>,<Node Type>,<Node Count>,<Node Name>,<AirLoopHVAC Name>
   #Nodes on Return Air Path,2
   Return Air Path Node,Outlet Node,1,NODE 154,SYS_3_PSZ ALL_ST=DINING - OTHER_FL=STORY 4_SCH=B
   Return Air Path Node,Inlet Node,2,NODE 161,SYS_3_PSZ ALL_ST=DINING - OTHER_FL=STORY 4_SCH=B
 Return Air Path,6,SYS_3_PSZ ALL_ST=DRESS./FITT. - PERFORMANCE ARTS_FL=STORY 3_SCH=C RETURN PATH,SYS_3_PSZ ALL_ST=DRESS./FITT. - PERFORMANCE ARTS_FL=STORY 3_SCH=C
   #Components on Return Air Path,1
   Return Air Path Component,1,AIRLOOPHVAC:ZONEMIXER,AIR LOOP HVAC ZONE MIXER 8,SYS_3_PSZ ALL_ST=DRESS./FITT. - PERFORMANCE ARTS_FL=STORY 3_SCH=C
     #Inlet Nodes on Return Air Path Component,1
     Return Air Path Component Nodes,1,AIRLOOPHVAC:ZONEMIXER,AIR LOOP HVAC ZONE MIXER 8,NODE 174,NODE 167,SYS_3_PSZ ALL_ST=DRESS./FITT. - PERFORMANCE ARTS_FL=STORY 3_SCH=C
! <#Nodes on Return Air Path>,<Number of Nodes>
! <Return Air Path Node>,<Node Type>,<Node Count>,<Node Name>,<AirLoopHVAC Name>
   #Nodes on Return Air Path,2
   Return Air Path Node,Outlet Node,1,NODE 167,SYS_3_PSZ ALL_ST=DRESS./FITT. - PERFORMANCE ARTS_FL=STORY 3_SCH=C
   Return Air Path Node,Inlet Node,2,NODE 174,SYS_3_PSZ ALL_ST=DRESS./FITT. - PERFORMANCE ARTS_FL=STORY 3_SCH=C
 Return Air Path,7,SYS_3_PSZ ALL_ST=FOOD PREPARATION_FL=STORY 3_SCH=B RETURN PATH,SYS_3_PSZ ALL_ST=FOOD PREPARATION_FL=STORY 3_SCH=B
   #Components on Return Air Path,1
   Return Air Path Component,1,AIRLOOPHVAC:ZONEMIXER,AIR LOOP HVAC ZONE MIXER 9,SYS_3_PSZ ALL_ST=FOOD PREPARATION_FL=STORY 3_SCH=B
     #Inlet Nodes on Return Air Path Component,1
     Return Air Path Component Nodes,1,AIRLOOPHVAC:ZONEMIXER,AIR LOOP HVAC ZONE MIXER 9,NODE 187,NODE 180,SYS_3_PSZ ALL_ST=FOOD PREPARATION_FL=STORY 3_SCH=B
! <#Nodes on Return Air Path>,<Number of Nodes>
! <Return Air Path Node>,<Node Type>,<Node Count>,<Node Name>,<AirLoopHVAC Name>
   #Nodes on Return Air Path,2
   Return Air Path Node,Outlet Node,1,NODE 180,SYS_3_PSZ ALL_ST=FOOD PREPARATION_FL=STORY 3_SCH=B
   Return Air Path Node,Inlet Node,2,NODE 187,SYS_3_PSZ ALL_ST=FOOD PREPARATION_FL=STORY 3_SCH=B
 Return Air Path,8,SYS_3_PSZ DU_BT=SPACE FUNCTION_ST=DORMITORY - LIVING QUARTERS_FL=STORY 3_SCHG RETURN PATH,SYS_3_PSZ DU_BT=SPACE FUNCTION_ST=DORMITORY - LIVING QUARTERS_FL=STORY 3_SCHG
   #Components on Return Air Path,1
   Return Air Path Component,1,AIRLOOPHVAC:ZONEMIXER,AIR LOOP HVAC ZONE MIXER 1,SYS_3_PSZ DU_BT=SPACE FUNCTION_ST=DORMITORY - LIVING QUARTERS_FL=STORY 3_SCHG
     #Inlet Nodes on Return Air Path Component,1
     Return Air Path Component Nodes,1,AIRLOOPHVAC:ZONEMIXER,AIR LOOP HVAC ZONE MIXER 1,NODE 36,NODE 26,SYS_3_PSZ DU_BT=SPACE FUNCTION_ST=DORMITORY - LIVING QUARTERS_FL=STORY 3_SCHG
! <#Nodes on Return Air Path>,<Number of Nodes>
! <Return Air Path Node>,<Node Type>,<Node Count>,<Node Name>,<AirLoopHVAC Name>
   #Nodes on Return Air Path,2
   Return Air Path Node,Outlet Node,1,NODE 26,SYS_3_PSZ DU_BT=SPACE FUNCTION_ST=DORMITORY - LIVING QUARTERS_FL=STORY 3_SCHG
   Return Air Path Node,Inlet Node,2,NODE 36,SYS_3_PSZ DU_BT=SPACE FUNCTION_ST=DORMITORY - LIVING QUARTERS_FL=STORY 3_SCHG
 Return Air Path,9,SYS_4_PSZ_ALL_ST=FIRE STATION - ENGINE ROOM_FL=STORY 2_SCH=H RETURN PATH,SYS_4_PSZ_ALL_ST=FIRE STATION - ENGINE ROOM_FL=STORY 2_SCH=H
   #Components on Return Air Path,1
   Return Air Path Component,1,AIRLOOPHVAC:ZONEMIXER,AIR LOOP HVAC ZONE MIXER 10,SYS_4_PSZ_ALL_ST=FIRE STATION - ENGINE ROOM_FL=STORY 2_SCH=H
     #Inlet Nodes on Return Air Path Component,1
     Return Air Path Component Nodes,1,AIRLOOPHVAC:ZONEMIXER,AIR LOOP HVAC ZONE MIXER 10,NODE 200,NODE 193,SYS_4_PSZ_ALL_ST=FIRE STATION - ENGINE ROOM_FL=STORY 2_SCH=H
! <#Nodes on Return Air Path>,<Number of Nodes>
! <Return Air Path Node>,<Node Type>,<Node Count>,<Node Name>,<AirLoopHVAC Name>
   #Nodes on Return Air Path,2
   Return Air Path Node,Outlet Node,1,NODE 193,SYS_4_PSZ_ALL_ST=FIRE STATION - ENGINE ROOM_FL=STORY 2_SCH=H
   Return Air Path Node,Inlet Node,2,NODE 200,SYS_4_PSZ_ALL_ST=FIRE STATION - ENGINE ROOM_FL=STORY 2_SCH=H
 Return Air Path,10,SYS_4_PSZ_ALL_ST=FOOD PREPARATION - VENTED_FL=STORY 1_SCH=B RETURN PATH,SYS_4_PSZ_ALL_ST=FOOD PREPARATION - VENTED_FL=STORY 1_SCH=B
   #Components on Return Air Path,1
   Return Air Path Component,1,AIRLOOPHVAC:ZONEMIXER,AIR LOOP HVAC ZONE MIXER 11,SYS_4_PSZ_ALL_ST=FOOD PREPARATION - VENTED_FL=STORY 1_SCH=B
     #Inlet Nodes on Return Air Path Component,1
     Return Air Path Component Nodes,1,AIRLOOPHVAC:ZONEMIXER,AIR LOOP HVAC ZONE MIXER 11,NODE 213,NODE 206,SYS_4_PSZ_ALL_ST=FOOD PREPARATION - VENTED_FL=STORY 1_SCH=B
! <#Nodes on Return Air Path>,<Number of Nodes>
! <Return Air Path Node>,<Node Type>,<Node Count>,<Node Name>,<AirLoopHVAC Name>
   #Nodes on Return Air Path,2
   Return Air Path Node,Outlet Node,1,NODE 206,SYS_4_PSZ_ALL_ST=FOOD PREPARATION - VENTED_FL=STORY 1_SCH=B
   Return Air Path Node,Inlet Node,2,NODE 213,SYS_4_PSZ_ALL_ST=FOOD PREPARATION - VENTED_FL=STORY 1_SCH=B
 Return Air Path,11,SYS_4_PSZ_WILD_ST=ELECTRICAL/MECHANICAL-SCH-A_FL=STORY 4_SCH=B RETURN PATH,SYS_4_PSZ_WILD_ST=ELECTRICAL/MECHANICAL-SCH-A_FL=STORY 4_SCH=B
   #Components on Return Air Path,1
   Return Air Path Component,1,AIRLOOPHVAC:ZONEMIXER,AIR LOOP HVAC ZONE MIXER 4,SYS_4_PSZ_WILD_ST=ELECTRICAL/MECHANICAL-SCH-A_FL=STORY 4_SCH=B
     #Inlet Nodes on Return Air Path Component,9
     Return Air Path Component Nodes,1,AIRLOOPHVAC:ZONEMIXER,AIR LOOP HVAC ZONE MIXER 4,NODE 90,NODE 83,SYS_4_PSZ_WILD_ST=ELECTRICAL/MECHANICAL-SCH-A_FL=STORY 4_SCH=B
     Return Air Path Component Nodes,2,AIRLOOPHVAC:ZONEMIXER,AIR LOOP HVAC ZONE MIXER 4,NODE 94,NODE 83,SYS_4_PSZ_WILD_ST=ELECTRICAL/MECHANICAL-SCH-A_FL=STORY 4_SCH=B
     Return Air Path Component Nodes,3,AIRLOOPHVAC:ZONEMIXER,AIR LOOP HVAC ZONE MIXER 4,NODE 98,NODE 83,SYS_4_PSZ_WILD_ST=ELECTRICAL/MECHANICAL-SCH-A_FL=STORY 4_SCH=B
     Return Air Path Component Nodes,4,AIRLOOPHVAC:ZONEMIXER,AIR LOOP HVAC ZONE MIXER 4,NODE 102,NODE 83,SYS_4_PSZ_WILD_ST=ELECTRICAL/MECHANICAL-SCH-A_FL=STORY 4_SCH=B
     Return Air Path Component Nodes,5,AIRLOOPHVAC:ZONEMIXER,AIR LOOP HVAC ZONE MIXER 4,NODE 106,NODE 83,SYS_4_PSZ_WILD_ST=ELECTRICAL/MECHANICAL-SCH-A_FL=STORY 4_SCH=B
     Return Air Path Component Nodes,6,AIRLOOPHVAC:ZONEMIXER,AIR LOOP HVAC ZONE MIXER 4,NODE 110,NODE 83,SYS_4_PSZ_WILD_ST=ELECTRICAL/MECHANICAL-SCH-A_FL=STORY 4_SCH=B
     Return Air Path Component Nodes,7,AIRLOOPHVAC:ZONEMIXER,AIR LOOP HVAC ZONE MIXER 4,NODE 114,NODE 83,SYS_4_PSZ_WILD_ST=ELECTRICAL/MECHANICAL-SCH-A_FL=STORY 4_SCH=B
     Return Air Path Component Nodes,8,AIRLOOPHVAC:ZONEMIXER,AIR LOOP HVAC ZONE MIXER 4,NODE 118,NODE 83,SYS_4_PSZ_WILD_ST=ELECTRICAL/MECHANICAL-SCH-A_FL=STORY 4_SCH=B
     Return Air Path Component Nodes,9,AIRLOOPHVAC:ZONEMIXER,AIR LOOP HVAC ZONE MIXER 4,NODE 122,NODE 83,SYS_4_PSZ_WILD_ST=ELECTRICAL/MECHANICAL-SCH-A_FL=STORY 4_SCH=B
! <#Nodes on Return Air Path>,<Number of Nodes>
! <Return Air Path Node>,<Node Type>,<Node Count>,<Node Name>,<AirLoopHVAC Name>
   #Nodes on Return Air Path,10
   Return Air Path Node,Outlet Node,1,NODE 83,SYS_4_PSZ_WILD_ST=ELECTRICAL/MECHANICAL-SCH-A_FL=STORY 4_SCH=B
   Return Air Path Node,Inlet Node,2,NODE 90,SYS_4_PSZ_WILD_ST=ELECTRICAL/MECHANICAL-SCH-A_FL=STORY 4_SCH=B
   Return Air Path Node,Inlet Node,3,NODE 94,SYS_4_PSZ_WILD_ST=ELECTRICAL/MECHANICAL-SCH-A_FL=STORY 4_SCH=B
   Return Air Path Node,Inlet Node,4,NODE 98,SYS_4_PSZ_WILD_ST=ELECTRICAL/MECHANICAL-SCH-A_FL=STORY 4_SCH=B
   Return Air Path Node,Inlet Node,5,NODE 102,SYS_4_PSZ_WILD_ST=ELECTRICAL/MECHANICAL-SCH-A_FL=STORY 4_SCH=B
   Return Air Path Node,Inlet Node,6,NODE 106,SYS_4_PSZ_WILD_ST=ELECTRICAL/MECHANICAL-SCH-A_FL=STORY 4_SCH=B
   Return Air Path Node,Inlet Node,7,NODE 110,SYS_4_PSZ_WILD_ST=ELECTRICAL/MECHANICAL-SCH-A_FL=STORY 4_SCH=B
   Return Air Path Node,Inlet Node,8,NODE 114,SYS_4_PSZ_WILD_ST=ELECTRICAL/MECHANICAL-SCH-A_FL=STORY 4_SCH=B
   Return Air Path Node,Inlet Node,9,NODE 118,SYS_4_PSZ_WILD_ST=ELECTRICAL/MECHANICAL-SCH-A_FL=STORY 4_SCH=B
   Return Air Path Node,Inlet Node,10,NODE 122,SYS_4_PSZ_WILD_ST=ELECTRICAL/MECHANICAL-SCH-A_FL=STORY 4_SCH=B
 Return Air Path,12,SYS_6_VAV WITH REHEAT RETURN PATH,SYS_6_VAV WITH REHEAT
   #Components on Return Air Path,1
   Return Air Path Component,1,AIRLOOPHVAC:ZONEMIXER,AIR LOOP HVAC ZONE MIXER 12,SYS_6_VAV WITH REHEAT
     #Inlet Nodes on Return Air Path Component,1
     Return Air Path Component Nodes,1,AIRLOOPHVAC:ZONEMIXER,AIR LOOP HVAC ZONE MIXER 12,NODE 259,NODE 246,SYS_6_VAV WITH REHEAT
! <#Nodes on Return Air Path>,<Number of Nodes>
! <Return Air Path Node>,<Node Type>,<Node Count>,<Node Name>,<AirLoopHVAC Name>
   #Nodes on Return Air Path,2
   Return Air Path Node,Outlet Node,1,NODE 246,SYS_6_VAV WITH REHEAT
   Return Air Path Node,Inlet Node,2,NODE 259,SYS_6_VAV WITH REHEAT
! ===============================================================
! #Outdoor Air Nodes,<Number of Outdoor Air Nodes>
 #Outdoor Air Nodes,15
! <Outdoor Air Node>,<NodeNumber>,<Node Name>
 Outdoor Air Node,288,DU_BT=SPACE FUNCTION_ST=DWELLING UNIT(S)_FL=STORY 3_SCHG PTAC OA NODE
 Outdoor Air Node,289,DU_BT=SPACE FUNCTION_ST=FIRE STATION - QUARTERS_FL=STORY 2_SCHG PTAC OA NODE
 Outdoor Air Node,290,NODE 50
 Outdoor Air Node,291,NODE 70
 Outdoor Air Node,292,NODE 130
 Outdoor Air Node,293,NODE 143
 Outdoor Air Node,294,NODE 156
 Outdoor Air Node,295,NODE 169
 Outdoor Air Node,296,NODE 182
 Outdoor Air Node,297,NODE 29
 Outdoor Air Node,298,NODE 195
 Outdoor Air Node,299,NODE 208
 Outdoor Air Node,300,NODE 85
 Outdoor Air Node,301,NODE 251
 Outdoor Air Node,302,MODEL OUTDOOR AIR NODE
! ===============================================================
! <#Component Sets>,<Number of Component Sets>
 #Component Sets,151
! <Component Set>,<Component Set Count>,<Parent Object Type>,<Parent Object Name>,<Component Type>,<Component Name>,<Inlet Node ID>,<Outlet Node ID>,<Description>
 Component Set,1,BRANCH,SYS_1_MAKE-UP AIR UNIT MAIN BRANCH,AIRLOOPHVAC:OUTDOORAIRSYSTEM,AIR LOOP HVAC OUTDOOR AIR SYSTEM 2,NODE 39,NODE 56,Air Nodes
 Component Set,2,BRANCH,SYS_1_MAKE-UP AIR UNIT MAIN BRANCH,COILSYSTEM:COOLING:DX,COIL COOLING DX SINGLE SPEED 2 COILSYSTEM,NODE 56,NODE 54,Air Nodes
 Component Set,3,BRANCH,SYS_1_MAKE-UP AIR UNIT MAIN BRANCH,COIL:HEATING:WATER,COIL HEATING WATER 1,NODE 54,NODE 53,Air Nodes
 Component Set,4,BRANCH,SYS_1_MAKE-UP AIR UNIT MAIN BRANCH,FAN:CONSTANTVOLUME,FAN CONSTANT VOLUME 2,NODE 53,NODE 41,Air Nodes
 Component Set,5,BRANCH,SYS_1_MAKE-UP AIR UNIT 1 MAIN BRANCH,AIRLOOPHVAC:OUTDOORAIRSYSTEM,AIR LOOP HVAC OUTDOOR AIR SYSTEM 3,NODE 63,NODE 74,Air Nodes
 Component Set,6,BRANCH,SYS_1_MAKE-UP AIR UNIT 1 MAIN BRANCH,COILSYSTEM:COOLING:DX,COIL COOLING DX SINGLE SPEED 4 COILSYSTEM,NODE 74,NODE 73,Air Nodes
 Component Set,7,BRANCH,SYS_1_MAKE-UP AIR UNIT 1 MAIN BRANCH,COIL:HEATING:WATER,COIL HEATING WATER 2,NODE 73,NODE 72,Air Nodes
 Component Set,8,BRANCH,SYS_1_MAKE-UP AIR UNIT 1 MAIN BRANCH,FAN:CONSTANTVOLUME,FAN CONSTANT VOLUME 4,NODE 72,NODE 64,Air Nodes
 Component Set,9,BRANCH,SYS_3_PSZ ALL_ST=DINING - BAR LOUNGE/LEISURE_FL=STORY 4_SCH=B MAIN BRANCH,AIRLOOPHVAC:OUTDOORAIRSYSTEM,AIR LOOP HVAC OUTDOOR AIR SYSTEM 5,NODE 125,NODE 134,Air Nodes
 Component Set,10,BRANCH,SYS_3_PSZ ALL_ST=DINING - BAR LOUNGE/LEISURE_FL=STORY 4_SCH=B MAIN BRANCH,COILSYSTEM:COOLING:DX,COIL COOLING DX SINGLE SPEED 7 COILSYSTEM,NODE 134,NODE 133,Air Nodes
 Component Set,11,BRANCH,SYS_3_PSZ ALL_ST=DINING - BAR LOUNGE/LEISURE_FL=STORY 4_SCH=B MAIN BRANCH,COIL:HEATING:FUEL,COIL HEATING GAS 3,NODE 133,NODE 132,Air Nodes
 Component Set,12,BRANCH,SYS_3_PSZ ALL_ST=DINING - BAR LOUNGE/LEISURE_FL=STORY 4_SCH=B MAIN BRANCH,FAN:CONSTANTVOLUME,FAN CONSTANT VOLUME 7,NODE 132,NODE 126,Air Nodes
 Component Set,13,BRANCH,SYS_3_PSZ ALL_ST=DINING - FAMILY SPACE_FL=STORY 4_SCH=B MAIN BRANCH,AIRLOOPHVAC:OUTDOORAIRSYSTEM,AIR LOOP HVAC OUTDOOR AIR SYSTEM 6,NODE 138,NODE 147,Air Nodes
 Component Set,14,BRANCH,SYS_3_PSZ ALL_ST=DINING - FAMILY SPACE_FL=STORY 4_SCH=B MAIN BRANCH,COILSYSTEM:COOLING:DX,COIL COOLING DX SINGLE SPEED 8 COILSYSTEM,NODE 147,NODE 146,Air Nodes
 Component Set,15,BRANCH,SYS_3_PSZ ALL_ST=DINING - FAMILY SPACE_FL=STORY 4_SCH=B MAIN BRANCH,COIL:HEATING:FUEL,COIL HEATING GAS 4,NODE 146,NODE 145,Air Nodes
 Component Set,16,BRANCH,SYS_3_PSZ ALL_ST=DINING - FAMILY SPACE_FL=STORY 4_SCH=B MAIN BRANCH,FAN:CONSTANTVOLUME,FAN CONSTANT VOLUME 8,NODE 145,NODE 139,Air Nodes
 Component Set,17,BRANCH,SYS_3_PSZ ALL_ST=DINING - OTHER_FL=STORY 4_SCH=B MAIN BRANCH,AIRLOOPHVAC:OUTDOORAIRSYSTEM,AIR LOOP HVAC OUTDOOR AIR SYSTEM 7,NODE 151,NODE 160,Air Nodes
 Component Set,18,BRANCH,SYS_3_PSZ ALL_ST=DINING - OTHER_FL=STORY 4_SCH=B MAIN BRANCH,COILSYSTEM:COOLING:DX,COIL COOLING DX SINGLE SPEED 9 COILSYSTEM,NODE 160,NODE 159,Air Nodes
 Component Set,19,BRANCH,SYS_3_PSZ ALL_ST=DINING - OTHER_FL=STORY 4_SCH=B MAIN BRANCH,COIL:HEATING:FUEL,COIL HEATING GAS 5,NODE 159,NODE 158,Air Nodes
 Component Set,20,BRANCH,SYS_3_PSZ ALL_ST=DINING - OTHER_FL=STORY 4_SCH=B MAIN BRANCH,FAN:CONSTANTVOLUME,FAN CONSTANT VOLUME 9,NODE 158,NODE 152,Air Nodes
 Component Set,21,BRANCH,SYS_3_PSZ ALL_ST=DRESS./FITT. - PERFORMANCE ARTS_FL=STORY 3_SCH=C MAIN BRANCH,AIRLOOPHVAC:OUTDOORAIRSYSTEM,AIR LOOP HVAC OUTDOOR AIR SYSTEM 8,NODE 164,NODE 173,Air Nodes
 Component Set,22,BRANCH,SYS_3_PSZ ALL_ST=DRESS./FITT. - PERFORMANCE ARTS_FL=STORY 3_SCH=C MAIN BRANCH,COILSYSTEM:COOLING:DX,COIL COOLING DX SINGLE SPEED 10 COILSYSTEM,NODE 173,NODE 172,Air Nodes
 Component Set,23,BRANCH,SYS_3_PSZ ALL_ST=DRESS./FITT. - PERFORMANCE ARTS_FL=STORY 3_SCH=C MAIN BRANCH,COIL:HEATING:FUEL,COIL HEATING GAS 6,NODE 172,NODE 171,Air Nodes
 Component Set,24,BRANCH,SYS_3_PSZ ALL_ST=DRESS./FITT. - PERFORMANCE ARTS_FL=STORY 3_SCH=C MAIN BRANCH,FAN:CONSTANTVOLUME,FAN CONSTANT VOLUME 10,NODE 171,NODE 165,Air Nodes
 Component Set,25,BRANCH,SYS_3_PSZ ALL_ST=FOOD PREPARATION_FL=STORY 3_SCH=B MAIN BRANCH,AIRLOOPHVAC:OUTDOORAIRSYSTEM,AIR LOOP HVAC OUTDOOR AIR SYSTEM 9,NODE 177,NODE 186,Air Nodes
 Component Set,26,BRANCH,SYS_3_PSZ ALL_ST=FOOD PREPARATION_FL=STORY 3_SCH=B MAIN BRANCH,COILSYSTEM:COOLING:DX,COIL COOLING DX SINGLE SPEED 11 COILSYSTEM,NODE 186,NODE 185,Air Nodes
 Component Set,27,BRANCH,SYS_3_PSZ ALL_ST=FOOD PREPARATION_FL=STORY 3_SCH=B MAIN BRANCH,COIL:HEATING:FUEL,COIL HEATING GAS 7,NODE 185,NODE 184,Air Nodes
 Component Set,28,BRANCH,SYS_3_PSZ ALL_ST=FOOD PREPARATION_FL=STORY 3_SCH=B MAIN BRANCH,FAN:CONSTANTVOLUME,FAN CONSTANT VOLUME 11,NODE 184,NODE 178,Air Nodes
 Component Set,29,BRANCH,SYS_3_PSZ DU_BT=SPACE FUNCTION_ST=DORMITORY - LIVING QUARTERS_FL=STORY 3_SCHG MAIN BRANCH,AIRLOOPHVAC:OUTDOORAIRSYSTEM,AIR LOOP HVAC OUTDOOR AIR SYSTEM 1,NODE 21,NODE 35,Air Nodes
 Component Set,30,BRANCH,SYS_3_PSZ DU_BT=SPACE FUNCTION_ST=DORMITORY - LIVING QUARTERS_FL=STORY 3_SCHG MAIN BRANCH,COILSYSTEM:COOLING:DX,COIL COOLING DX SINGLE SPEED 1 COILSYSTEM,NODE 35,NODE 33,Air Nodes
 Component Set,31,BRANCH,SYS_3_PSZ DU_BT=SPACE FUNCTION_ST=DORMITORY - LIVING QUARTERS_FL=STORY 3_SCHG MAIN BRANCH,COIL:HEATING:FUEL,COIL HEATING GAS 1,NODE 33,NODE 32,Air Nodes
 Component Set,32,BRANCH,SYS_3_PSZ DU_BT=SPACE FUNCTION_ST=DORMITORY - LIVING QUARTERS_FL=STORY 3_SCHG MAIN BRANCH,FAN:CONSTANTVOLUME,FAN CONSTANT VOLUME 1,NODE 32,NODE 23,Air Nodes
 Component Set,33,BRANCH,SYS_4_PSZ_ALL_ST=FIRE STATION - ENGINE ROOM_FL=STORY 2_SCH=H MAIN BRANCH,AIRLOOPHVAC:OUTDOORAIRSYSTEM,AIR LOOP HVAC OUTDOOR AIR SYSTEM 10,NODE 190,NODE 199,Air Nodes
 Component Set,34,BRANCH,SYS_4_PSZ_ALL_ST=FIRE STATION - ENGINE ROOM_FL=STORY 2_SCH=H MAIN BRANCH,COILSYSTEM:COOLING:DX,COIL COOLING DX SINGLE SPEED 12 COILSYSTEM,NODE 199,NODE 198,Air Nodes
 Component Set,35,BRANCH,SYS_4_PSZ_ALL_ST=FIRE STATION - ENGINE ROOM_FL=STORY 2_SCH=H MAIN BRANCH,COIL:HEATING:FUEL,COIL HEATING GAS 8,NODE 198,NODE 197,Air Nodes
 Component Set,36,BRANCH,SYS_4_PSZ_ALL_ST=FIRE STATION - ENGINE ROOM_FL=STORY 2_SCH=H MAIN BRANCH,FAN:CONSTANTVOLUME,FAN CONSTANT VOLUME 12,NODE 197,NODE 191,Air Nodes
 Component Set,37,BRANCH,SYS_4_PSZ_ALL_ST=FOOD PREPARATION - VENTED_FL=STORY 1_SCH=B MAIN BRANCH,AIRLOOPHVAC:OUTDOORAIRSYSTEM,AIR LOOP HVAC OUTDOOR AIR SYSTEM 11,NODE 203,NODE 212,Air Nodes
 Component Set,38,BRANCH,SYS_4_PSZ_ALL_ST=FOOD PREPARATION - VENTED_FL=STORY 1_SCH=B MAIN BRANCH,COILSYSTEM:COOLING:DX,COIL COOLING DX SINGLE SPEED 13 COILSYSTEM,NODE 212,NODE 211,Air Nodes
 Component Set,39,BRANCH,SYS_4_PSZ_ALL_ST=FOOD PREPARATION - VENTED_FL=STORY 1_SCH=B MAIN BRANCH,COIL:HEATING:FUEL,COIL HEATING GAS 9,NODE 211,NODE 210,Air Nodes
 Component Set,40,BRANCH,SYS_4_PSZ_ALL_ST=FOOD PREPARATION - VENTED_FL=STORY 1_SCH=B MAIN BRANCH,FAN:CONSTANTVOLUME,FAN CONSTANT VOLUME 13,NODE 210,NODE 204,Air Nodes
 Component Set,41,BRANCH,SYS_4_PSZ_WILD_ST=ELECTRICAL/MECHANICAL-SCH-A_FL=STORY 4_SCH=B MAIN BRANCH,AIRLOOPHVAC:OUTDOORAIRSYSTEM,AIR LOOP HVAC OUTDOOR AIR SYSTEM 4,NODE 80,NODE 89,Air Nodes
 Component Set,42,BRANCH,SYS_4_PSZ_WILD_ST=ELECTRICAL/MECHANICAL-SCH-A_FL=STORY 4_SCH=B MAIN BRANCH,COILSYSTEM:COOLING:DX,COIL COOLING DX SINGLE SPEED 6 COILSYSTEM,NODE 89,NODE 88,Air Nodes
 Component Set,43,BRANCH,SYS_4_PSZ_WILD_ST=ELECTRICAL/MECHANICAL-SCH-A_FL=STORY 4_SCH=B MAIN BRANCH,COIL:HEATING:FUEL,COIL HEATING GAS 2,NODE 88,NODE 87,Air Nodes
 Component Set,44,BRANCH,SYS_4_PSZ_WILD_ST=ELECTRICAL/MECHANICAL-SCH-A_FL=STORY 4_SCH=B MAIN BRANCH,FAN:CONSTANTVOLUME,FAN CONSTANT VOLUME 6,NODE 87,NODE 81,Air Nodes
 Component Set,45,BRANCH,SYS_6_VAV WITH REHEAT MAIN BRANCH,FAN:VARIABLEVOLUME,SYS6 RETURN FAN,NODE 243,NODE 256,Air Nodes
 Component Set,46,BRANCH,SYS_6_VAV WITH REHEAT MAIN BRANCH,AIRLOOPHVAC:OUTDOORAIRSYSTEM,AIR LOOP HVAC OUTDOOR AIR SYSTEM 12,NODE 256,NODE 255,Air Nodes
 Component Set,47,BRANCH,SYS_6_VAV WITH REHEAT MAIN BRANCH,COIL:COOLING:WATER,COIL COOLING WATER 1,NODE 255,NODE 254,Air Nodes
 Component Set,48,BRANCH,SYS_6_VAV WITH REHEAT MAIN BRANCH,COIL:HEATING:WATER,COIL HEATING WATER 3,NODE 254,NODE 253,Air Nodes
 Component Set,49,BRANCH,SYS_6_VAV WITH REHEAT MAIN BRANCH,FAN:VARIABLEVOLUME,SYS6 SUPPLY FAN,NODE 253,NODE 244,Air Nodes
 Component Set,50,BRANCH,CHILLED WATER LOOP SUPPLY INLET BRANCH,PUMP:CONSTANTSPEED,PUMP CONSTANT SPEED 1,NODE 216,NODE 222,Water Nodes
 Component Set,51,BRANCH,CHILLED WATER LOOP SUPPLY BRANCH 1,CHILLER:ELECTRIC:EIR,PRIMARY CHILLER WATERCOOLED SCROLL,NODE 218,NODE 223,Chilled Water Nodes
 Component Set,52,BRANCH,CHILLED WATER LOOP SUPPLY BRANCH 2,CHILLER:ELECTRIC:EIR,SECONDARY CHILLER WATERCOOLED SCROLL,NODE 224,NODE 225,Chilled Water Nodes
 Component Set,53,BRANCH,CHILLED WATER LOOP SUPPLY BRANCH 3,PIPE:ADIABATIC,PIPE ADIABATIC 3,NODE 226,NODE 227,Pipe Nodes
 Component Set,54,BRANCH,CHILLED WATER LOOP SUPPLY OUTLET BRANCH,PIPE:ADIABATIC,PIPE ADIABATIC 4,NODE 228,NODE 217,Pipe Nodes
 Component Set,55,BRANCH,CHILLED WATER LOOP DEMAND INLET BRANCH,PIPE:ADIABATIC,CHILLED WATER LOOP DEMAND INLET PIPE,NODE 219,CHILLED WATER LOOP DEMAND INLET PIPE NODE,Pipe Nodes
 Component Set,56,BRANCH,CHILLED WATER LOOP DEMAND BRANCH 1,COIL:COOLING:WATER,COIL COOLING WATER 1,NODE 221,NODE 250,Water Nodes
 Component Set,57,BRANCH,CHILLED WATER LOOP DEMAND BYPASS BRANCH,PIPE:ADIABATIC,CHILLED WATER LOOP DEMAND BYPASS PIPE,CHILLED WATER LOOP DEMAND BYPASS PIPE INLET NODE,CHILLED WATER LOOP DEMAND BYPASS PIPE OUTLET NODE,Pipe Nodes
 Component Set,58,BRANCH,CHILLED WATER LOOP DEMAND OUTLET BRANCH,PIPE:ADIABATIC,CHILLED WATER LOOP DEMAND OUTLET PIPE,CHILLED WATER LOOP DEMAND OUTLET PIPE NODE,NODE 220,Pipe Nodes
 Component Set,59,BRANCH,CONDENSER WATER LOOP SUPPLY INLET BRANCH,PUMP:CONSTANTSPEED,PUMP CONSTANT SPEED 2,NODE 229,NODE 235,Water Nodes
 Component Set,60,BRANCH,CONDENSER WATER LOOP SUPPLY BRANCH 1,COOLINGTOWER:SINGLESPEED,COOLING TOWER SINGLE SPEED 1,NODE 231,NODE 236,Chilled Water Nodes
 Component Set,61,BRANCH,CONDENSER WATER LOOP SUPPLY BRANCH 2,PIPE:ADIABATIC,PIPE ADIABATIC 5,NODE 237,NODE 238,Pipe Nodes
 Component Set,62,BRANCH,CONDENSER WATER LOOP SUPPLY OUTLET BRANCH,PIPE:ADIABATIC,PIPE ADIABATIC 6,NODE 239,NODE 230,Pipe Nodes
 Component Set,63,BRANCH,CONDENSER WATER LOOP DEMAND INLET BRANCH,PIPE:ADIABATIC,CONDENSER WATER LOOP DEMAND INLET PIPE,NODE 232,CONDENSER WATER LOOP DEMAND INLET PIPE NODE,Pipe Nodes
 Component Set,64,BRANCH,CONDENSER WATER LOOP DEMAND BRANCH 1,CHILLER:ELECTRIC:EIR,PRIMARY CHILLER WATERCOOLED SCROLL,NODE 234,NODE 240,Condenser Water Nodes
 Component Set,65,BRANCH,CONDENSER WATER LOOP DEMAND BRANCH 2,CHILLER:ELECTRIC:EIR,SECONDARY CHILLER WATERCOOLED SCROLL,NODE 241,NODE 242,Condenser Water Nodes
 Component Set,66,BRANCH,CONDENSER WATER LOOP DEMAND BYPASS BRANCH,PIPE:ADIABATIC,CONDENSER WATER LOOP DEMAND BYPASS PIPE,CONDENSER WATER LOOP DEMAND BYPASS PIPE INLET NODE,CONDENSER WATER LOOP DEMAND BYPASS PIPE OUTLET NODE,Pipe Nodes
 Component Set,67,BRANCH,CONDENSER WATER LOOP DEMAND OUTLET BRANCH,PIPE:ADIABATIC,CONDENSER WATER LOOP DEMAND OUTLET PIPE,CONDENSER WATER LOOP DEMAND OUTLET PIPE NODE,NODE 233,Pipe Nodes
 Component Set,68,BRANCH,HOT WATER LOOP SUPPLY INLET BRANCH,PUMP:VARIABLESPEED,PUMP VARIABLE SPEED 1,NODE 2,NODE 11,Water Nodes
 Component Set,69,BRANCH,HOT WATER LOOP SUPPLY BRANCH 1,BOILER:HOTWATER,PRIMARY BOILER,NODE 5,NODE 12,Hot Water Nodes
 Component Set,70,BRANCH,HOT WATER LOOP SUPPLY BRANCH 2,BOILER:HOTWATER,SECONDARY BOILER,NODE 14,NODE 15,Hot Water Nodes
 Component Set,71,BRANCH,HOT WATER LOOP SUPPLY BRANCH 3,PIPE:ADIABATIC,PIPE ADIABATIC 1,NODE 17,NODE 18,Pipe Nodes
 Component Set,72,BRANCH,HOT WATER LOOP SUPPLY OUTLET BRANCH,PIPE:ADIABATIC,PIPE ADIABATIC 2,NODE 20,NODE 3,Pipe Nodes
 Component Set,73,BRANCH,HOT WATER LOOP DEMAND INLET BRANCH,PIPE:ADIABATIC,HOT WATER LOOP DEMAND INLET PIPE,NODE 6,HOT WATER LOOP DEMAND INLET PIPE NODE,Pipe Nodes
 Component Set,74,BRANCH,HOT WATER LOOP DEMAND BRANCH 1,ZONEHVAC:BASEBOARD:CONVECTIVE:WATER,ZONE HVAC BASEBOARD CONVECTIVE WATER 1,NODE 9,NODE 38,Hot Water Nodes
 Component Set,75,BRANCH,HOT WATER LOOP DEMAND BRANCH 2,COIL:HEATING:WATER,COIL HEATING WATER 1,NODE 47,NODE 48,Water Nodes
 Component Set,76,BRANCH,HOT WATER LOOP DEMAND BRANCH 3,ZONEHVAC:BASEBOARD:CONVECTIVE:WATER,ZONE HVAC BASEBOARD CONVECTIVE WATER 2,NODE 60,NODE 61,Hot Water Nodes
 Component Set,77,BRANCH,HOT WATER LOOP DEMAND BRANCH 4,COIL:HEATING:WATER,COIL HEATING WATER 2,NODE 68,NODE 69,Water Nodes
 Component Set,78,BRANCH,HOT WATER LOOP DEMAND BRANCH 5,ZONEHVAC:BASEBOARD:CONVECTIVE:WATER,ZONE HVAC BASEBOARD CONVECTIVE WATER 3,NODE 77,NODE 78,Hot Water Nodes
 Component Set,79,BRANCH,HOT WATER LOOP DEMAND BRANCH 6,ZONEHVAC:BASEBOARD:CONVECTIVE:WATER,ZONE HVAC BASEBOARD CONVECTIVE WATER 4,NODE 91,NODE 92,Hot Water Nodes
 Component Set,80,BRANCH,HOT WATER LOOP DEMAND BRANCH 7,ZONEHVAC:BASEBOARD:CONVECTIVE:WATER,ZONE HVAC BASEBOARD CONVECTIVE WATER 5,NODE 95,NODE 96,Hot Water Nodes
 Component Set,81,BRANCH,HOT WATER LOOP DEMAND BRANCH 8,ZONEHVAC:BASEBOARD:CONVECTIVE:WATER,ZONE HVAC BASEBOARD CONVECTIVE WATER 6,NODE 99,NODE 100,Hot Water Nodes
 Component Set,82,BRANCH,HOT WATER LOOP DEMAND BRANCH 9,ZONEHVAC:BASEBOARD:CONVECTIVE:WATER,ZONE HVAC BASEBOARD CONVECTIVE WATER 7,NODE 103,NODE 104,Hot Water Nodes
 Component Set,83,BRANCH,HOT WATER LOOP DEMAND BRANCH 10,ZONEHVAC:BASEBOARD:CONVECTIVE:WATER,ZONE HVAC BASEBOARD CONVECTIVE WATER 8,NODE 107,NODE 108,Hot Water Nodes
 Component Set,84,BRANCH,HOT WATER LOOP DEMAND BRANCH 11,ZONEHVAC:BASEBOARD:CONVECTIVE:WATER,ZONE HVAC BASEBOARD CONVECTIVE WATER 9,NODE 111,NODE 112,Hot Water Nodes
 Component Set,85,BRANCH,HOT WATER LOOP DEMAND BRANCH 12,ZONEHVAC:BASEBOARD:CONVECTIVE:WATER,ZONE HVAC BASEBOARD CONVECTIVE WATER 10,NODE 115,NODE 116,Hot Water Nodes
 Component Set,86,BRANCH,HOT WATER LOOP DEMAND BRANCH 13,ZONEHVAC:BASEBOARD:CONVECTIVE:WATER,ZONE HVAC BASEBOARD CONVECTIVE WATER 11,NODE 119,NODE 120,Hot Water Nodes
 Component Set,87,BRANCH,HOT WATER LOOP DEMAND BRANCH 14,ZONEHVAC:BASEBOARD:CONVECTIVE:WATER,ZONE HVAC BASEBOARD CONVECTIVE WATER 12,NODE 123,NODE 124,Hot Water Nodes
 Component Set,88,BRANCH,HOT WATER LOOP DEMAND BRANCH 15,ZONEHVAC:BASEBOARD:CONVECTIVE:WATER,ZONE HVAC BASEBOARD CONVECTIVE WATER 13,NODE 136,NODE 137,Hot Water Nodes
 Component Set,89,BRANCH,HOT WATER LOOP DEMAND BRANCH 16,ZONEHVAC:BASEBOARD:CONVECTIVE:WATER,ZONE HVAC BASEBOARD CONVECTIVE WATER 14,NODE 149,NODE 150,Hot Water Nodes
 Component Set,90,BRANCH,HOT WATER LOOP DEMAND BRANCH 17,ZONEHVAC:BASEBOARD:CONVECTIVE:WATER,ZONE HVAC BASEBOARD CONVECTIVE WATER 15,NODE 162,NODE 163,Hot Water Nodes
 Component Set,91,BRANCH,HOT WATER LOOP DEMAND BRANCH 18,ZONEHVAC:BASEBOARD:CONVECTIVE:WATER,ZONE HVAC BASEBOARD CONVECTIVE WATER 16,NODE 175,NODE 176,Hot Water Nodes
 Component Set,92,BRANCH,HOT WATER LOOP DEMAND BRANCH 19,ZONEHVAC:BASEBOARD:CONVECTIVE:WATER,ZONE HVAC BASEBOARD CONVECTIVE WATER 17,NODE 188,NODE 189,Hot Water Nodes
 Component Set,93,BRANCH,HOT WATER LOOP DEMAND BRANCH 20,ZONEHVAC:BASEBOARD:CONVECTIVE:WATER,ZONE HVAC BASEBOARD CONVECTIVE WATER 18,NODE 201,NODE 202,Hot Water Nodes
 Component Set,94,BRANCH,HOT WATER LOOP DEMAND BRANCH 21,ZONEHVAC:BASEBOARD:CONVECTIVE:WATER,ZONE HVAC BASEBOARD CONVECTIVE WATER 19,NODE 214,NODE 215,Hot Water Nodes
 Component Set,95,BRANCH,HOT WATER LOOP DEMAND BRANCH 22,COIL:HEATING:WATER,COIL HEATING WATER 3,NODE 248,NODE 249,Water Nodes
 Component Set,96,BRANCH,HOT WATER LOOP DEMAND BRANCH 23,COIL:HEATING:WATER,COIL HEATING WATER 4,NODE 257,NODE 258,Water Nodes
 Component Set,97,BRANCH,HOT WATER LOOP DEMAND BRANCH 24,ZONEHVAC:BASEBOARD:CONVECTIVE:WATER,ZONE HVAC BASEBOARD CONVECTIVE WATER 20,NODE 261,NODE 262,Hot Water Nodes
 Component Set,98,BRANCH,HOT WATER LOOP DEMAND BYPASS BRANCH,PIPE:ADIABATIC,HOT WATER LOOP DEMAND BYPASS PIPE,HOT WATER LOOP DEMAND BYPASS PIPE INLET NODE,HOT WATER LOOP DEMAND BYPASS PIPE OUTLET NODE,Pipe Nodes
 Component Set,99,BRANCH,HOT WATER LOOP DEMAND OUTLET BRANCH,PIPE:ADIABATIC,HOT WATER LOOP DEMAND OUTLET PIPE,HOT WATER LOOP DEMAND OUTLET PIPE NODE,NODE 8,Pipe Nodes
 Component Set,100,BRANCH,MAIN SERVICE WATER LOOP SUPPLY INLET BRANCH,PUMP:CONSTANTSPEED,SERVICE WATER LOOP PUMP,NODE 263,NODE 269,Water Nodes
 Component Set,101,BRANCH,MAIN SERVICE WATER LOOP SUPPLY BRANCH 1,WATERHEATER:MIXED,808GAL NATURALGAS WATER HEATER - 1663KBTU/HR,NODE 265,NODE 270,Use Side Water Nodes
 Component Set,102,BRANCH,MAIN SERVICE WATER LOOP SUPPLY BRANCH 2,PIPE:ADIABATIC,PIPE ADIABATIC 7,NODE 271,NODE 272,Pipe Nodes
 Component Set,103,BRANCH,MAIN SERVICE WATER LOOP SUPPLY OUTLET BRANCH,PIPE:ADIABATIC,PIPE ADIABATIC 9,NODE 274,NODE 264,Pipe Nodes
 Component Set,104,BRANCH,MAIN SERVICE WATER LOOP DEMAND INLET BRANCH,PIPE:ADIABATIC,PIPE ADIABATIC 10,NODE 266,NODE 275,Pipe Nodes
 Component Set,105,BRANCH,MAIN SERVICE WATER LOOP DEMAND BRANCH 1,PIPE:ADIABATIC,PIPE ADIABATIC 8,NODE 268,NODE 273,Pipe Nodes
 Component Set,106,BRANCH,MAIN SERVICE WATER LOOP DEMAND BRANCH 2,WATERUSE:CONNECTIONS,WATER USE CONNECTIONS 1,NODE 277,NODE 278,DHW Nodes
 Component Set,107,BRANCH,MAIN SERVICE WATER LOOP DEMAND BRANCH 3,WATERUSE:CONNECTIONS,WATER USE CONNECTIONS 2,NODE 279,NODE 280,DHW Nodes
 Component Set,108,BRANCH,MAIN SERVICE WATER LOOP DEMAND BRANCH 4,WATERUSE:CONNECTIONS,WATER USE CONNECTIONS 3,NODE 281,NODE 282,DHW Nodes
 Component Set,109,BRANCH,MAIN SERVICE WATER LOOP DEMAND BRANCH 5,WATERUSE:CONNECTIONS,WATER USE CONNECTIONS 4,NODE 283,NODE 284,DHW Nodes
 Component Set,110,BRANCH,MAIN SERVICE WATER LOOP DEMAND BRANCH 6,WATERUSE:CONNECTIONS,WATER USE CONNECTIONS 5,NODE 285,NODE 286,DHW Nodes
 Component Set,111,BRANCH,MAIN SERVICE WATER LOOP DEMAND BRANCH 7,WATERUSE:CONNECTIONS,WATER USE CONNECTIONS 6,NODE 287,NODE 288,DHW Nodes
 Component Set,112,BRANCH,MAIN SERVICE WATER LOOP DEMAND BRANCH 8,WATERUSE:CONNECTIONS,WATER USE CONNECTIONS 7,NODE 289,NODE 290,DHW Nodes
 Component Set,113,BRANCH,MAIN SERVICE WATER LOOP DEMAND BRANCH 9,WATERUSE:CONNECTIONS,WATER USE CONNECTIONS 8,NODE 291,NODE 292,DHW Nodes
 Component Set,114,BRANCH,MAIN SERVICE WATER LOOP DEMAND BRANCH 10,WATERUSE:CONNECTIONS,WATER USE CONNECTIONS 9,NODE 293,NODE 294,DHW Nodes
 Component Set,115,BRANCH,MAIN SERVICE WATER LOOP DEMAND BRANCH 11,WATERUSE:CONNECTIONS,WATER USE CONNECTIONS 10,NODE 295,NODE 296,DHW Nodes
 Component Set,116,BRANCH,MAIN SERVICE WATER LOOP DEMAND BRANCH 12,WATERUSE:CONNECTIONS,WATER USE CONNECTIONS 11,NODE 297,NODE 298,DHW Nodes
 Component Set,117,BRANCH,MAIN SERVICE WATER LOOP DEMAND BYPASS BRANCH,PIPE:ADIABATIC,MAIN SERVICE WATER LOOP DEMAND BYPASS PIPE,MAIN SERVICE WATER LOOP DEMAND BYPASS PIPE INLET NODE,MAIN SERVICE WATER LOOP DEMAND BYPASS PIPE OUTLET NODE,Pipe Nodes
 Component Set,118,BRANCH,MAIN SERVICE WATER LOOP DEMAND OUTLET BRANCH,PIPE:ADIABATIC,PIPE ADIABATIC 11,NODE 276,NODE 267,Pipe Nodes
 Component Set,119,ZONEHVAC:AIRDISTRIBUTIONUNIT,ADU AIR TERMINAL SINGLE DUCT VAV REHEAT 1,AIRTERMINAL:SINGLEDUCT:VAV:REHEAT,AIR TERMINAL SINGLE DUCT VAV REHEAT 1,NODE 260,NODE 247,Air Nodes
 Component Set,120,AIRTERMINAL:SINGLEDUCT:VAV:REHEAT,AIR TERMINAL SINGLE DUCT VAV REHEAT 1,COIL:HEATING:WATER,COIL HEATING WATER 4,AIR TERMINAL SINGLE DUCT VAV REHEAT 1 DAMPER OUTLET,NODE 247,Air Nodes
 Component Set,121,AIRLOOPHVAC:OUTDOORAIRSYSTEM,AIR LOOP HVAC OUTDOOR AIR SYSTEM 2,OUTDOORAIR:MIXER,AIR LOOP HVAC OUTDOOR AIR SYSTEM 2 OUTDOOR AIR MIXER,NODE 50,NODE 56,Air Nodes
 Component Set,122,AIRLOOPHVAC:OUTDOORAIRSYSTEM,AIR LOOP HVAC OUTDOOR AIR SYSTEM 3,OUTDOORAIR:MIXER,AIR LOOP HVAC OUTDOOR AIR SYSTEM 3 OUTDOOR AIR MIXER,NODE 70,NODE 74,Air Nodes
 Component Set,123,AIRLOOPHVAC:OUTDOORAIRSYSTEM,AIR LOOP HVAC OUTDOOR AIR SYSTEM 5,OUTDOORAIR:MIXER,AIR LOOP HVAC OUTDOOR AIR SYSTEM 5 OUTDOOR AIR MIXER,NODE 130,NODE 134,Air Nodes
 Component Set,124,AIRLOOPHVAC:OUTDOORAIRSYSTEM,AIR LOOP HVAC OUTDOOR AIR SYSTEM 6,OUTDOORAIR:MIXER,AIR LOOP HVAC OUTDOOR AIR SYSTEM 6 OUTDOOR AIR MIXER,NODE 143,NODE 147,Air Nodes
 Component Set,125,AIRLOOPHVAC:OUTDOORAIRSYSTEM,AIR LOOP HVAC OUTDOOR AIR SYSTEM 7,OUTDOORAIR:MIXER,AIR LOOP HVAC OUTDOOR AIR SYSTEM 7 OUTDOOR AIR MIXER,NODE 156,NODE 160,Air Nodes
 Component Set,126,AIRLOOPHVAC:OUTDOORAIRSYSTEM,AIR LOOP HVAC OUTDOOR AIR SYSTEM 8,OUTDOORAIR:MIXER,AIR LOOP HVAC OUTDOOR AIR SYSTEM 8 OUTDOOR AIR MIXER,NODE 169,NODE 173,Air Nodes
 Component Set,127,AIRLOOPHVAC:OUTDOORAIRSYSTEM,AIR LOOP HVAC OUTDOOR AIR SYSTEM 9,OUTDOORAIR:MIXER,AIR LOOP HVAC OUTDOOR AIR SYSTEM 9 OUTDOOR AIR MIXER,NODE 182,NODE 186,Air Nodes
 Component Set,128,AIRLOOPHVAC:OUTDOORAIRSYSTEM,AIR LOOP HVAC OUTDOOR AIR SYSTEM 1,OUTDOORAIR:MIXER,AIR LOOP HVAC OUTDOOR AIR SYSTEM 1 OUTDOOR AIR MIXER,NODE 29,NODE 35,Air Nodes
 Component Set,129,AIRLOOPHVAC:OUTDOORAIRSYSTEM,AIR LOOP HVAC OUTDOOR AIR SYSTEM 10,OUTDOORAIR:MIXER,AIR LOOP HVAC OUTDOOR AIR SYSTEM 10 OUTDOOR AIR MIXER,NODE 195,NODE 199,Air Nodes
 Component Set,130,AIRLOOPHVAC:OUTDOORAIRSYSTEM,AIR LOOP HVAC OUTDOOR AIR SYSTEM 11,OUTDOORAIR:MIXER,AIR LOOP HVAC OUTDOOR AIR SYSTEM 11 OUTDOOR AIR MIXER,NODE 208,NODE 212,Air Nodes
 Component Set,131,AIRLOOPHVAC:OUTDOORAIRSYSTEM,AIR LOOP HVAC OUTDOOR AIR SYSTEM 4,OUTDOORAIR:MIXER,AIR LOOP HVAC OUTDOOR AIR SYSTEM 4 OUTDOOR AIR MIXER,NODE 85,NODE 89,Air Nodes
 Component Set,132,AIRLOOPHVAC:OUTDOORAIRSYSTEM,AIR LOOP HVAC OUTDOOR AIR SYSTEM 12,OUTDOORAIR:MIXER,AIR LOOP HVAC OUTDOOR AIR SYSTEM 12 OUTDOOR AIR MIXER,NODE 251,NODE 255,Air Nodes
 Component Set,133,ZONEHVAC:PACKAGEDTERMINALAIRCONDITIONER,DU_BT=SPACE FUNCTION_ST=DWELLING UNIT(S)_FL=STORY 3_SCHG PTAC,OUTDOORAIR:MIXER,DU_BT=SPACE FUNCTION_ST=DWELLING UNIT(S)_FL=STORY 3_SCHG PTAC OA MIXER,DU_BT=SPACE FUNCTION_ST=DWELLING UNIT(S)_FL=STORY 3_SCHG PTAC OA NODE,DU_BT=SPACE FUNCTION_ST=DWELLING UNIT(S)_FL=STORY 3_SCHG PTAC MIXED AIR NODE,Air Nodes
 Component Set,134,ZONEHVAC:PACKAGEDTERMINALAIRCONDITIONER,DU_BT=SPACE FUNCTION_ST=FIRE STATION - QUARTERS_FL=STORY 2_SCHG PTAC,OUTDOORAIR:MIXER,DU_BT=SPACE FUNCTION_ST=FIRE STATION - QUARTERS_FL=STORY 2_SCHG PTAC OA MIXER,DU_BT=SPACE FUNCTION_ST=FIRE STATION - QUARTERS_FL=STORY 2_SCHG PTAC OA NODE,DU_BT=SPACE FUNCTION_ST=FIRE STATION - QUARTERS_FL=STORY 2_SCHG PTAC MIXED AIR NODE,Air Nodes
 Component Set,135,ZONEHVAC:PACKAGEDTERMINALAIRCONDITIONER,DU_BT=SPACE FUNCTION_ST=DWELLING UNIT(S)_FL=STORY 3_SCHG PTAC,FAN:CONSTANTVOLUME,FAN CONSTANT VOLUME 3,DU_BT=SPACE FUNCTION_ST=DWELLING UNIT(S)_FL=STORY 3_SCHG PTAC HEATING COIL OUTLET NODE,NODE 59,Air Nodes
 Component Set,136,ZONEHVAC:PACKAGEDTERMINALAIRCONDITIONER,DU_BT=SPACE FUNCTION_ST=FIRE STATION - QUARTERS_FL=STORY 2_SCHG PTAC,FAN:CONSTANTVOLUME,FAN CONSTANT VOLUME 5,DU_BT=SPACE FUNCTION_ST=FIRE STATION - QUARTERS_FL=STORY 2_SCHG PTAC HEATING COIL OUTLET NODE,NODE 76,Air Nodes
 Component Set,137,ZONEHVAC:PACKAGEDTERMINALAIRCONDITIONER,DU_BT=SPACE FUNCTION_ST=DWELLING UNIT(S)_FL=STORY 3_SCHG PTAC,COIL:HEATING:ELECTRIC,COIL HEATING ELECTRIC 1,DU_BT=SPACE FUNCTION_ST=DWELLING UNIT(S)_FL=STORY 3_SCHG PTAC COOLING COIL OUTLET NODE,DU_BT=SPACE FUNCTION_ST=DWELLING UNIT(S)_FL=STORY 3_SCHG PTAC HEATING COIL OUTLET NODE,Air Nodes
 Component Set,138,ZONEHVAC:PACKAGEDTERMINALAIRCONDITIONER,DU_BT=SPACE FUNCTION_ST=FIRE STATION - QUARTERS_FL=STORY 2_SCHG PTAC,COIL:HEATING:ELECTRIC,COIL HEATING ELECTRIC 2,DU_BT=SPACE FUNCTION_ST=FIRE STATION - QUARTERS_FL=STORY 2_SCHG PTAC COOLING COIL OUTLET NODE,DU_BT=SPACE FUNCTION_ST=FIRE STATION - QUARTERS_FL=STORY 2_SCHG PTAC HEATING COIL OUTLET NODE,Air Nodes
 Component Set,139,ZONEHVAC:PACKAGEDTERMINALAIRCONDITIONER,DU_BT=SPACE FUNCTION_ST=DWELLING UNIT(S)_FL=STORY 3_SCHG PTAC,COIL:COOLING:DX:SINGLESPEED,COIL COOLING DX SINGLE SPEED 3,DU_BT=SPACE FUNCTION_ST=DWELLING UNIT(S)_FL=STORY 3_SCHG PTAC MIXED AIR NODE,DU_BT=SPACE FUNCTION_ST=DWELLING UNIT(S)_FL=STORY 3_SCHG PTAC COOLING COIL OUTLET NODE,Air Nodes
 Component Set,140,ZONEHVAC:PACKAGEDTERMINALAIRCONDITIONER,DU_BT=SPACE FUNCTION_ST=FIRE STATION - QUARTERS_FL=STORY 2_SCHG PTAC,COIL:COOLING:DX:SINGLESPEED,COIL COOLING DX SINGLE SPEED 5,DU_BT=SPACE FUNCTION_ST=FIRE STATION - QUARTERS_FL=STORY 2_SCHG PTAC MIXED AIR NODE,DU_BT=SPACE FUNCTION_ST=FIRE STATION - QUARTERS_FL=STORY 2_SCHG PTAC COOLING COIL OUTLET NODE,Air Nodes
 Component Set,141,COILSYSTEM:COOLING:DX,COIL COOLING DX SINGLE SPEED 2 COILSYSTEM,COIL:COOLING:DX:SINGLESPEED,COIL COOLING DX SINGLE SPEED 2,NODE 56,NODE 54,Air Nodes
 Component Set,142,COILSYSTEM:COOLING:DX,COIL COOLING DX SINGLE SPEED 4 COILSYSTEM,COIL:COOLING:DX:SINGLESPEED,COIL COOLING DX SINGLE SPEED 4,NODE 74,NODE 73,Air Nodes
 Component Set,143,COILSYSTEM:COOLING:DX,COIL COOLING DX SINGLE SPEED 7 COILSYSTEM,COIL:COOLING:DX:SINGLESPEED,COIL COOLING DX SINGLE SPEED 7,NODE 134,NODE 133,Air Nodes
 Component Set,144,COILSYSTEM:COOLING:DX,COIL COOLING DX SINGLE SPEED 8 COILSYSTEM,COIL:COOLING:DX:SINGLESPEED,COIL COOLING DX SINGLE SPEED 8,NODE 147,NODE 146,Air Nodes
 Component Set,145,COILSYSTEM:COOLING:DX,COIL COOLING DX SINGLE SPEED 9 COILSYSTEM,COIL:COOLING:DX:SINGLESPEED,COIL COOLING DX SINGLE SPEED 9,NODE 160,NODE 159,Air Nodes
 Component Set,146,COILSYSTEM:COOLING:DX,COIL COOLING DX SINGLE SPEED 10 COILSYSTEM,COIL:COOLING:DX:SINGLESPEED,COIL COOLING DX SINGLE SPEED 10,NODE 173,NODE 172,Air Nodes
 Component Set,147,COILSYSTEM:COOLING:DX,COIL COOLING DX SINGLE SPEED 11 COILSYSTEM,COIL:COOLING:DX:SINGLESPEED,COIL COOLING DX SINGLE SPEED 11,NODE 186,NODE 185,Air Nodes
 Component Set,148,COILSYSTEM:COOLING:DX,COIL COOLING DX SINGLE SPEED 1 COILSYSTEM,COIL:COOLING:DX:SINGLESPEED,COIL COOLING DX SINGLE SPEED 1,NODE 35,NODE 33,Air Nodes
 Component Set,149,COILSYSTEM:COOLING:DX,COIL COOLING DX SINGLE SPEED 12 COILSYSTEM,COIL:COOLING:DX:SINGLESPEED,COIL COOLING DX SINGLE SPEED 12,NODE 199,NODE 198,Air Nodes
 Component Set,150,COILSYSTEM:COOLING:DX,COIL COOLING DX SINGLE SPEED 13 COILSYSTEM,COIL:COOLING:DX:SINGLESPEED,COIL COOLING DX SINGLE SPEED 13,NODE 212,NODE 211,Air Nodes
 Component Set,151,COILSYSTEM:COOLING:DX,COIL COOLING DX SINGLE SPEED 6 COILSYSTEM,COIL:COOLING:DX:SINGLESPEED,COIL COOLING DX SINGLE SPEED 6,NODE 89,NODE 88,Air Nodes
! ===============================================================
! <# Plant Loops>,<Number of Plant Loops>
 #Plant Loops,4
! <Plant Loop>,<Plant Loop Name>,<Loop Type>,<Inlet Node Name>,<Outlet Node Name>,<Branch List>,<Connector List>
! <Plant Loop Connector>,<Connector Type>,<Connector Name>,<Loop Name>,<Loop Type>,<Number of Inlets/Outlets>
! <Plant Loop Connector Branches>,<Connector Node Count>,<Connector Type>,<Connector Name>,<Inlet Branch>,<Outlet Branch>,<Loop Name>,<Loop Type>
! <Plant Loop Connector Nodes>,<Connector Node Count>,<Connector Type>,<Connector Name>,<Inlet Node>,<Outlet Node>,<Loop Name>,<Loop Type>
! <Plant Loop Supply Connection>,<Plant Loop Name>,<Supply Side Outlet Node Name>,<Demand Side Inlet Node Name>
! <Plant Loop Return Connection>,<Plant Loop Name>,<Demand Side Outlet Node Name>,<Supply Side Inlet Node Name>
 Plant Loop,CHILLED WATER LOOP,Demand,NODE 219,NODE 220,CHILLED WATER LOOP DEMAND BRANCHES,CHILLED WATER LOOP DEMAND CONNECTOR LIST
   Plant Loop Connector,Splitter,CHILLED WATER LOOP DEMAND SPLITTER,CHILLED WATER LOOP,Demand,2
     Plant Loop Connector Branches,1,Splitter,CHILLED WATER LOOP DEMAND SPLITTER,CHILLED WATER LOOP DEMAND INLET BRANCH,CHILLED WATER LOOP DEMAND BRANCH 1,CHILLED WATER LOOP,Demand
     Plant Loop Connector Nodes,   1,Splitter,CHILLED WATER LOOP DEMAND SPLITTER,CHILLED WATER LOOP DEMAND INLET PIPE NODE,NODE 221,CHILLED WATER LOOP,Demand
     Plant Loop Connector Branches,2,Splitter,CHILLED WATER LOOP DEMAND SPLITTER,CHILLED WATER LOOP DEMAND INLET BRANCH,CHILLED WATER LOOP DEMAND BYPASS BRANCH,CHILLED WATER LOOP,Demand
     Plant Loop Connector Nodes,   2,Splitter,CHILLED WATER LOOP DEMAND SPLITTER,CHILLED WATER LOOP DEMAND INLET PIPE NODE,CHILLED WATER LOOP DEMAND BYPASS PIPE INLET NODE,CHILLED WATER LOOP,Demand
   Plant Loop Connector,Mixer,CHILLED WATER LOOP DEMAND MIXER,CHILLED WATER LOOP,Demand,2
     Plant Loop Connector Branches,1,Mixer,CHILLED WATER LOOP DEMAND MIXER,CHILLED WATER LOOP DEMAND BRANCH 1,CHILLED WATER LOOP DEMAND OUTLET BRANCH,CHILLED WATER LOOP,Demand
     Plant Loop Connector Nodes,   1,Mixer,CHILLED WATER LOOP DEMAND MIXER,NODE 250,CHILLED WATER LOOP DEMAND OUTLET PIPE NODE,CHILLED WATER LOOP,Demand
     Plant Loop Connector Branches,2,Mixer,CHILLED WATER LOOP DEMAND MIXER,CHILLED WATER LOOP DEMAND BYPASS BRANCH,CHILLED WATER LOOP DEMAND OUTLET BRANCH,CHILLED WATER LOOP,Demand
     Plant Loop Connector Nodes,   2,Mixer,CHILLED WATER LOOP DEMAND MIXER,CHILLED WATER LOOP DEMAND BYPASS PIPE OUTLET NODE,CHILLED WATER LOOP DEMAND OUTLET PIPE NODE,CHILLED WATER LOOP,Demand
 Plant Loop,CHILLED WATER LOOP,Supply,NODE 216,NODE 217,CHILLED WATER LOOP SUPPLY BRANCHES,CHILLED WATER LOOP SUPPLY CONNECTOR LIST
   Plant Loop Connector,Splitter,CHILLED WATER LOOP SUPPLY SPLITTER,CHILLED WATER LOOP,Supply,3
     Plant Loop Connector Branches,1,Splitter,CHILLED WATER LOOP SUPPLY SPLITTER,CHILLED WATER LOOP SUPPLY INLET BRANCH,CHILLED WATER LOOP SUPPLY BRANCH 1,CHILLED WATER LOOP,Supply
     Plant Loop Connector Nodes,   1,Splitter,CHILLED WATER LOOP SUPPLY SPLITTER,NODE 222,NODE 218,CHILLED WATER LOOP,Supply
     Plant Loop Connector Branches,2,Splitter,CHILLED WATER LOOP SUPPLY SPLITTER,CHILLED WATER LOOP SUPPLY INLET BRANCH,CHILLED WATER LOOP SUPPLY BRANCH 2,CHILLED WATER LOOP,Supply
     Plant Loop Connector Nodes,   2,Splitter,CHILLED WATER LOOP SUPPLY SPLITTER,NODE 222,NODE 224,CHILLED WATER LOOP,Supply
[...]
 Non-Parent Node Connection,NODE 195,OUTDOORAIR:MIXER,AIR LOOP HVAC OUTDOOR AIR SYSTEM 10 OUTDOOR AIR MIXER,Inlet,1
 Non-Parent Node Connection,NODE 196,OUTDOORAIR:MIXER,AIR LOOP HVAC OUTDOOR AIR SYSTEM 10 OUTDOOR AIR MIXER,ReliefAir,1
 Non-Parent Node Connection,NODE 190,OUTDOORAIR:MIXER,AIR LOOP HVAC OUTDOOR AIR SYSTEM 10 OUTDOOR AIR MIXER,Inlet,1
 Non-Parent Node Connection,NODE 212,OUTDOORAIR:MIXER,AIR LOOP HVAC OUTDOOR AIR SYSTEM 11 OUTDOOR AIR MIXER,Outlet,1
 Non-Parent Node Connection,NODE 208,OUTDOORAIR:MIXER,AIR LOOP HVAC OUTDOOR AIR SYSTEM 11 OUTDOOR AIR MIXER,Inlet,1
 Non-Parent Node Connection,NODE 209,OUTDOORAIR:MIXER,AIR LOOP HVAC OUTDOOR AIR SYSTEM 11 OUTDOOR AIR MIXER,ReliefAir,1
 Non-Parent Node Connection,NODE 203,OUTDOORAIR:MIXER,AIR LOOP HVAC OUTDOOR AIR SYSTEM 11 OUTDOOR AIR MIXER,Inlet,1
 Non-Parent Node Connection,NODE 89,OUTDOORAIR:MIXER,AIR LOOP HVAC OUTDOOR AIR SYSTEM 4 OUTDOOR AIR MIXER,Outlet,1
 Non-Parent Node Connection,NODE 85,OUTDOORAIR:MIXER,AIR LOOP HVAC OUTDOOR AIR SYSTEM 4 OUTDOOR AIR MIXER,Inlet,1
 Non-Parent Node Connection,NODE 86,OUTDOORAIR:MIXER,AIR LOOP HVAC OUTDOOR AIR SYSTEM 4 OUTDOOR AIR MIXER,ReliefAir,1
 Non-Parent Node Connection,NODE 80,OUTDOORAIR:MIXER,AIR LOOP HVAC OUTDOOR AIR SYSTEM 4 OUTDOOR AIR MIXER,Inlet,1
 Non-Parent Node Connection,NODE 255,OUTDOORAIR:MIXER,AIR LOOP HVAC OUTDOOR AIR SYSTEM 12 OUTDOOR AIR MIXER,Outlet,1
 Non-Parent Node Connection,NODE 251,OUTDOORAIR:MIXER,AIR LOOP HVAC OUTDOOR AIR SYSTEM 12 OUTDOOR AIR MIXER,Inlet,1
 Non-Parent Node Connection,NODE 252,OUTDOORAIR:MIXER,AIR LOOP HVAC OUTDOOR AIR SYSTEM 12 OUTDOOR AIR MIXER,ReliefAir,1
 Non-Parent Node Connection,NODE 256,OUTDOORAIR:MIXER,AIR LOOP HVAC OUTDOOR AIR SYSTEM 12 OUTDOOR AIR MIXER,Inlet,1
 Non-Parent Node Connection,DU_BT=SPACE FUNCTION_ST=DWELLING UNIT(S)_FL=STORY 3_SCHG PTAC HEATING COIL OUTLET NODE,FAN:CONSTANTVOLUME,FAN CONSTANT VOLUME 3,Inlet,1
 Non-Parent Node Connection,NODE 59,FAN:CONSTANTVOLUME,FAN CONSTANT VOLUME 3,Outlet,1
 Non-Parent Node Connection,DU_BT=SPACE FUNCTION_ST=FIRE STATION - QUARTERS_FL=STORY 2_SCHG PTAC HEATING COIL OUTLET NODE,FAN:CONSTANTVOLUME,FAN CONSTANT VOLUME 5,Inlet,1
 Non-Parent Node Connection,NODE 76,FAN:CONSTANTVOLUME,FAN CONSTANT VOLUME 5,Outlet,1
 Non-Parent Node Connection,NODE 53,FAN:CONSTANTVOLUME,FAN CONSTANT VOLUME 2,Inlet,1
 Non-Parent Node Connection,NODE 41,FAN:CONSTANTVOLUME,FAN CONSTANT VOLUME 2,Outlet,1
 Non-Parent Node Connection,NODE 72,FAN:CONSTANTVOLUME,FAN CONSTANT VOLUME 4,Inlet,1
 Non-Parent Node Connection,NODE 64,FAN:CONSTANTVOLUME,FAN CONSTANT VOLUME 4,Outlet,1
 Non-Parent Node Connection,NODE 132,FAN:CONSTANTVOLUME,FAN CONSTANT VOLUME 7,Inlet,1
 Non-Parent Node Connection,NODE 126,FAN:CONSTANTVOLUME,FAN CONSTANT VOLUME 7,Outlet,1
 Non-Parent Node Connection,NODE 145,FAN:CONSTANTVOLUME,FAN CONSTANT VOLUME 8,Inlet,1
 Non-Parent Node Connection,NODE 139,FAN:CONSTANTVOLUME,FAN CONSTANT VOLUME 8,Outlet,1
 Non-Parent Node Connection,NODE 158,FAN:CONSTANTVOLUME,FAN CONSTANT VOLUME 9,Inlet,1
 Non-Parent Node Connection,NODE 152,FAN:CONSTANTVOLUME,FAN CONSTANT VOLUME 9,Outlet,1
 Non-Parent Node Connection,NODE 171,FAN:CONSTANTVOLUME,FAN CONSTANT VOLUME 10,Inlet,1
 Non-Parent Node Connection,NODE 165,FAN:CONSTANTVOLUME,FAN CONSTANT VOLUME 10,Outlet,1
 Non-Parent Node Connection,NODE 184,FAN:CONSTANTVOLUME,FAN CONSTANT VOLUME 11,Inlet,1
 Non-Parent Node Connection,NODE 178,FAN:CONSTANTVOLUME,FAN CONSTANT VOLUME 11,Outlet,1
 Non-Parent Node Connection,NODE 32,FAN:CONSTANTVOLUME,FAN CONSTANT VOLUME 1,Inlet,1
 Non-Parent Node Connection,NODE 23,FAN:CONSTANTVOLUME,FAN CONSTANT VOLUME 1,Outlet,1
 Non-Parent Node Connection,NODE 197,FAN:CONSTANTVOLUME,FAN CONSTANT VOLUME 12,Inlet,1
 Non-Parent Node Connection,NODE 191,FAN:CONSTANTVOLUME,FAN CONSTANT VOLUME 12,Outlet,1
 Non-Parent Node Connection,NODE 210,FAN:CONSTANTVOLUME,FAN CONSTANT VOLUME 13,Inlet,1
 Non-Parent Node Connection,NODE 204,FAN:CONSTANTVOLUME,FAN CONSTANT VOLUME 13,Outlet,1
 Non-Parent Node Connection,NODE 87,FAN:CONSTANTVOLUME,FAN CONSTANT VOLUME 6,Inlet,1
 Non-Parent Node Connection,NODE 81,FAN:CONSTANTVOLUME,FAN CONSTANT VOLUME 6,Outlet,1
 Non-Parent Node Connection,NODE 243,FAN:VARIABLEVOLUME,SYS6 RETURN FAN,Inlet,1
 Non-Parent Node Connection,NODE 256,FAN:VARIABLEVOLUME,SYS6 RETURN FAN,Outlet,1
 Non-Parent Node Connection,NODE 253,FAN:VARIABLEVOLUME,SYS6 SUPPLY FAN,Inlet,1
 Non-Parent Node Connection,NODE 244,FAN:VARIABLEVOLUME,SYS6 SUPPLY FAN,Outlet,1
 Non-Parent Node Connection,DU_BT=SPACE FUNCTION_ST=DWELLING UNIT(S)_FL=STORY 3_SCHG PTAC COOLING COIL OUTLET NODE,COIL:HEATING:ELECTRIC,COIL HEATING ELECTRIC 1,Inlet,1
 Non-Parent Node Connection,DU_BT=SPACE FUNCTION_ST=DWELLING UNIT(S)_FL=STORY 3_SCHG PTAC HEATING COIL OUTLET NODE,COIL:HEATING:ELECTRIC,COIL HEATING ELECTRIC 1,Outlet,1
 Non-Parent Node Connection,DU_BT=SPACE FUNCTION_ST=FIRE STATION - QUARTERS_FL=STORY 2_SCHG PTAC COOLING COIL OUTLET NODE,COIL:HEATING:ELECTRIC,COIL HEATING ELECTRIC 2,Inlet,1
 Non-Parent Node Connection,DU_BT=SPACE FUNCTION_ST=FIRE STATION - QUARTERS_FL=STORY 2_SCHG PTAC HEATING COIL OUTLET NODE,COIL:HEATING:ELECTRIC,COIL HEATING ELECTRIC 2,Outlet,1
 Non-Parent Node Connection,NODE 133,COIL:HEATING:FUEL,COIL HEATING GAS 3,Inlet,1
 Non-Parent Node Connection,NODE 132,COIL:HEATING:FUEL,COIL HEATING GAS 3,Outlet,1
 Non-Parent Node Connection,NODE 132,COIL:HEATING:FUEL,COIL HEATING GAS 3,Sensor,1
 Non-Parent Node Connection,NODE 146,COIL:HEATING:FUEL,COIL HEATING GAS 4,Inlet,1
 Non-Parent Node Connection,NODE 145,COIL:HEATING:FUEL,COIL HEATING GAS 4,Outlet,1
 Non-Parent Node Connection,NODE 145,COIL:HEATING:FUEL,COIL HEATING GAS 4,Sensor,1
 Non-Parent Node Connection,NODE 159,COIL:HEATING:FUEL,COIL HEATING GAS 5,Inlet,1
 Non-Parent Node Connection,NODE 158,COIL:HEATING:FUEL,COIL HEATING GAS 5,Outlet,1
 Non-Parent Node Connection,NODE 158,COIL:HEATING:FUEL,COIL HEATING GAS 5,Sensor,1
 Non-Parent Node Connection,NODE 172,COIL:HEATING:FUEL,COIL HEATING GAS 6,Inlet,1
 Non-Parent Node Connection,NODE 171,COIL:HEATING:FUEL,COIL HEATING GAS 6,Outlet,1
 Non-Parent Node Connection,NODE 171,COIL:HEATING:FUEL,COIL HEATING GAS 6,Sensor,1
 Non-Parent Node Connection,NODE 185,COIL:HEATING:FUEL,COIL HEATING GAS 7,Inlet,1
 Non-Parent Node Connection,NODE 184,COIL:HEATING:FUEL,COIL HEATING GAS 7,Outlet,1
 Non-Parent Node Connection,NODE 184,COIL:HEATING:FUEL,COIL HEATING GAS 7,Sensor,1
 Non-Parent Node Connection,NODE 33,COIL:HEATING:FUEL,COIL HEATING GAS 1,Inlet,1
 Non-Parent Node Connection,NODE 32,COIL:HEATING:FUEL,COIL HEATING GAS 1,Outlet,1
 Non-Parent Node Connection,NODE 32,COIL:HEATING:FUEL,COIL HEATING GAS 1,Sensor,1
 Non-Parent Node Connection,NODE 198,COIL:HEATING:FUEL,COIL HEATING GAS 8,Inlet,1
 Non-Parent Node Connection,NODE 197,COIL:HEATING:FUEL,COIL HEATING GAS 8,Outlet,1
 Non-Parent Node Connection,NODE 197,COIL:HEATING:FUEL,COIL HEATING GAS 8,Sensor,1
 Non-Parent Node Connection,NODE 211,COIL:HEATING:FUEL,COIL HEATING GAS 9,Inlet,1
 Non-Parent Node Connection,NODE 210,COIL:HEATING:FUEL,COIL HEATING GAS 9,Outlet,1
 Non-Parent Node Connection,NODE 210,COIL:HEATING:FUEL,COIL HEATING GAS 9,Sensor,1
 Non-Parent Node Connection,NODE 88,COIL:HEATING:FUEL,COIL HEATING GAS 2,Inlet,1
 Non-Parent Node Connection,NODE 87,COIL:HEATING:FUEL,COIL HEATING GAS 2,Outlet,1
 Non-Parent Node Connection,NODE 87,COIL:HEATING:FUEL,COIL HEATING GAS 2,Sensor,1
 Non-Parent Node Connection,DU_BT=SPACE FUNCTION_ST=DWELLING UNIT(S)_FL=STORY 3_SCHG PTAC MIXED AIR NODE,COIL:COOLING:DX:SINGLESPEED,COIL COOLING DX SINGLE SPEED 3,Inlet,1
 Non-Parent Node Connection,DU_BT=SPACE FUNCTION_ST=DWELLING UNIT(S)_FL=STORY 3_SCHG PTAC COOLING COIL OUTLET NODE,COIL:COOLING:DX:SINGLESPEED,COIL COOLING DX SINGLE SPEED 3,Outlet,1
 Non-Parent Node Connection,DU_BT=SPACE FUNCTION_ST=FIRE STATION - QUARTERS_FL=STORY 2_SCHG PTAC MIXED AIR NODE,COIL:COOLING:DX:SINGLESPEED,COIL COOLING DX SINGLE SPEED 5,Inlet,1
 Non-Parent Node Connection,DU_BT=SPACE FUNCTION_ST=FIRE STATION - QUARTERS_FL=STORY 2_SCHG PTAC COOLING COIL OUTLET NODE,COIL:COOLING:DX:SINGLESPEED,COIL COOLING DX SINGLE SPEED 5,Outlet,1
 Non-Parent Node Connection,NODE 56,COIL:COOLING:DX:SINGLESPEED,COIL COOLING DX SINGLE SPEED 2,Inlet,1
 Non-Parent Node Connection,NODE 54,COIL:COOLING:DX:SINGLESPEED,COIL COOLING DX SINGLE SPEED 2,Outlet,1
 Non-Parent Node Connection,NODE 74,COIL:COOLING:DX:SINGLESPEED,COIL COOLING DX SINGLE SPEED 4,Inlet,1
 Non-Parent Node Connection,NODE 73,COIL:COOLING:DX:SINGLESPEED,COIL COOLING DX SINGLE SPEED 4,Outlet,1
 Non-Parent Node Connection,NODE 134,COIL:COOLING:DX:SINGLESPEED,COIL COOLING DX SINGLE SPEED 7,Inlet,1
 Non-Parent Node Connection,NODE 133,COIL:COOLING:DX:SINGLESPEED,COIL COOLING DX SINGLE SPEED 7,Outlet,1
 Non-Parent Node Connection,NODE 147,COIL:COOLING:DX:SINGLESPEED,COIL COOLING DX SINGLE SPEED 8,Inlet,1
 Non-Parent Node Connection,NODE 146,COIL:COOLING:DX:SINGLESPEED,COIL COOLING DX SINGLE SPEED 8,Outlet,1
 Non-Parent Node Connection,NODE 160,COIL:COOLING:DX:SINGLESPEED,COIL COOLING DX SINGLE SPEED 9,Inlet,1
 Non-Parent Node Connection,NODE 159,COIL:COOLING:DX:SINGLESPEED,COIL COOLING DX SINGLE SPEED 9,Outlet,1
 Non-Parent Node Connection,NODE 173,COIL:COOLING:DX:SINGLESPEED,COIL COOLING DX SINGLE SPEED 10,Inlet,1
 Non-Parent Node Connection,NODE 172,COIL:COOLING:DX:SINGLESPEED,COIL COOLING DX SINGLE SPEED 10,Outlet,1
 Non-Parent Node Connection,NODE 186,COIL:COOLING:DX:SINGLESPEED,COIL COOLING DX SINGLE SPEED 11,Inlet,1
 Non-Parent Node Connection,NODE 185,COIL:COOLING:DX:SINGLESPEED,COIL COOLING DX SINGLE SPEED 11,Outlet,1
 Non-Parent Node Connection,NODE 35,COIL:COOLING:DX:SINGLESPEED,COIL COOLING DX SINGLE SPEED 1,Inlet,1
 Non-Parent Node Connection,NODE 33,COIL:COOLING:DX:SINGLESPEED,COIL COOLING DX SINGLE SPEED 1,Outlet,1
 Non-Parent Node Connection,NODE 199,COIL:COOLING:DX:SINGLESPEED,COIL COOLING DX SINGLE SPEED 12,Inlet,1
 Non-Parent Node Connection,NODE 198,COIL:COOLING:DX:SINGLESPEED,COIL COOLING DX SINGLE SPEED 12,Outlet,1
 Non-Parent Node Connection,NODE 212,COIL:COOLING:DX:SINGLESPEED,COIL COOLING DX SINGLE SPEED 13,Inlet,1
 Non-Parent Node Connection,NODE 211,COIL:COOLING:DX:SINGLESPEED,COIL COOLING DX SINGLE SPEED 13,Outlet,1
 Non-Parent Node Connection,NODE 89,COIL:COOLING:DX:SINGLESPEED,COIL COOLING DX SINGLE SPEED 6,Inlet,1
 Non-Parent Node Connection,NODE 88,COIL:COOLING:DX:SINGLESPEED,COIL COOLING DX SINGLE SPEED 6,Outlet,1
 Non-Parent Node Connection,NODE 44,AIRLOOPHVAC:ZONEMIXER,AIR LOOP HVAC ZONE MIXER 2,Outlet,1
 Non-Parent Node Connection,NODE 62,AIRLOOPHVAC:ZONEMIXER,AIR LOOP HVAC ZONE MIXER 2,Inlet,1
 Non-Parent Node Connection,NODE 66,AIRLOOPHVAC:ZONEMIXER,AIR LOOP HVAC ZONE MIXER 3,Outlet,1
 Non-Parent Node Connection,NODE 79,AIRLOOPHVAC:ZONEMIXER,AIR LOOP HVAC ZONE MIXER 3,Inlet,1
 Non-Parent Node Connection,NODE 128,AIRLOOPHVAC:ZONEMIXER,AIR LOOP HVAC ZONE MIXER 5,Outlet,1
 Non-Parent Node Connection,NODE 135,AIRLOOPHVAC:ZONEMIXER,AIR LOOP HVAC ZONE MIXER 5,Inlet,1
 Non-Parent Node Connection,NODE 141,AIRLOOPHVAC:ZONEMIXER,AIR LOOP HVAC ZONE MIXER 6,Outlet,1
 Non-Parent Node Connection,NODE 148,AIRLOOPHVAC:ZONEMIXER,AIR LOOP HVAC ZONE MIXER 6,Inlet,1
 Non-Parent Node Connection,NODE 154,AIRLOOPHVAC:ZONEMIXER,AIR LOOP HVAC ZONE MIXER 7,Outlet,1
 Non-Parent Node Connection,NODE 161,AIRLOOPHVAC:ZONEMIXER,AIR LOOP HVAC ZONE MIXER 7,Inlet,1
 Non-Parent Node Connection,NODE 167,AIRLOOPHVAC:ZONEMIXER,AIR LOOP HVAC ZONE MIXER 8,Outlet,1
 Non-Parent Node Connection,NODE 174,AIRLOOPHVAC:ZONEMIXER,AIR LOOP HVAC ZONE MIXER 8,Inlet,1
 Non-Parent Node Connection,NODE 180,AIRLOOPHVAC:ZONEMIXER,AIR LOOP HVAC ZONE MIXER 9,Outlet,1
 Non-Parent Node Connection,NODE 187,AIRLOOPHVAC:ZONEMIXER,AIR LOOP HVAC ZONE MIXER 9,Inlet,1
 Non-Parent Node Connection,NODE 26,AIRLOOPHVAC:ZONEMIXER,AIR LOOP HVAC ZONE MIXER 1,Outlet,1
 Non-Parent Node Connection,NODE 36,AIRLOOPHVAC:ZONEMIXER,AIR LOOP HVAC ZONE MIXER 1,Inlet,1
 Non-Parent Node Connection,NODE 193,AIRLOOPHVAC:ZONEMIXER,AIR LOOP HVAC ZONE MIXER 10,Outlet,1
 Non-Parent Node Connection,NODE 200,AIRLOOPHVAC:ZONEMIXER,AIR LOOP HVAC ZONE MIXER 10,Inlet,1
 Non-Parent Node Connection,NODE 206,AIRLOOPHVAC:ZONEMIXER,AIR LOOP HVAC ZONE MIXER 11,Outlet,1
 Non-Parent Node Connection,NODE 213,AIRLOOPHVAC:ZONEMIXER,AIR LOOP HVAC ZONE MIXER 11,Inlet,1
 Non-Parent Node Connection,NODE 83,AIRLOOPHVAC:ZONEMIXER,AIR LOOP HVAC ZONE MIXER 4,Outlet,1
 Non-Parent Node Connection,NODE 90,AIRLOOPHVAC:ZONEMIXER,AIR LOOP HVAC ZONE MIXER 4,Inlet,1
 Non-Parent Node Connection,NODE 94,AIRLOOPHVAC:ZONEMIXER,AIR LOOP HVAC ZONE MIXER 4,Inlet,1
 Non-Parent Node Connection,NODE 98,AIRLOOPHVAC:ZONEMIXER,AIR LOOP HVAC ZONE MIXER 4,Inlet,1
 Non-Parent Node Connection,NODE 102,AIRLOOPHVAC:ZONEMIXER,AIR LOOP HVAC ZONE MIXER 4,Inlet,1
 Non-Parent Node Connection,NODE 106,AIRLOOPHVAC:ZONEMIXER,AIR LOOP HVAC ZONE MIXER 4,Inlet,1
 Non-Parent Node Connection,NODE 110,AIRLOOPHVAC:ZONEMIXER,AIR LOOP HVAC ZONE MIXER 4,Inlet,1
 Non-Parent Node Connection,NODE 114,AIRLOOPHVAC:ZONEMIXER,AIR LOOP HVAC ZONE MIXER 4,Inlet,1
 Non-Parent Node Connection,NODE 118,AIRLOOPHVAC:ZONEMIXER,AIR LOOP HVAC ZONE MIXER 4,Inlet,1
 Non-Parent Node Connection,NODE 122,AIRLOOPHVAC:ZONEMIXER,AIR LOOP HVAC ZONE MIXER 4,Inlet,1
 Non-Parent Node Connection,NODE 246,AIRLOOPHVAC:ZONEMIXER,AIR LOOP HVAC ZONE MIXER 12,Outlet,1
 Non-Parent Node Connection,NODE 259,AIRLOOPHVAC:ZONEMIXER,AIR LOOP HVAC ZONE MIXER 12,Inlet,1
 Non-Parent Node Connection,NODE 56,CONTROLLER:OUTDOORAIR,CONTROLLER OUTDOOR AIR 2,Sensor,1
 Non-Parent Node Connection,NODE 50,CONTROLLER:OUTDOORAIR,CONTROLLER OUTDOOR AIR 2,Actuator,1
 Non-Parent Node Connection,NODE 51,CONTROLLER:OUTDOORAIR,CONTROLLER OUTDOOR AIR 2,Actuator,1
 Non-Parent Node Connection,NODE 39,CONTROLLER:OUTDOORAIR,CONTROLLER OUTDOOR AIR 2,Sensor,1
 Non-Parent Node Connection,NODE 74,CONTROLLER:OUTDOORAIR,CONTROLLER OUTDOOR AIR 3,Sensor,1
 Non-Parent Node Connection,NODE 70,CONTROLLER:OUTDOORAIR,CONTROLLER OUTDOOR AIR 3,Actuator,1
 Non-Parent Node Connection,NODE 71,CONTROLLER:OUTDOORAIR,CONTROLLER OUTDOOR AIR 3,Actuator,1
 Non-Parent Node Connection,NODE 63,CONTROLLER:OUTDOORAIR,CONTROLLER OUTDOOR AIR 3,Sensor,1
 Non-Parent Node Connection,NODE 134,CONTROLLER:OUTDOORAIR,CONTROLLER OUTDOOR AIR 5,Sensor,1
 Non-Parent Node Connection,NODE 130,CONTROLLER:OUTDOORAIR,CONTROLLER OUTDOOR AIR 5,Actuator,1
 Non-Parent Node Connection,NODE 131,CONTROLLER:OUTDOORAIR,CONTROLLER OUTDOOR AIR 5,Actuator,1
 Non-Parent Node Connection,NODE 125,CONTROLLER:OUTDOORAIR,CONTROLLER OUTDOOR AIR 5,Sensor,1
 Non-Parent Node Connection,NODE 147,CONTROLLER:OUTDOORAIR,CONTROLLER OUTDOOR AIR 6,Sensor,1
 Non-Parent Node Connection,NODE 143,CONTROLLER:OUTDOORAIR,CONTROLLER OUTDOOR AIR 6,Actuator,1
 Non-Parent Node Connection,NODE 144,CONTROLLER:OUTDOORAIR,CONTROLLER OUTDOOR AIR 6,Actuator,1
 Non-Parent Node Connection,NODE 138,CONTROLLER:OUTDOORAIR,CONTROLLER OUTDOOR AIR 6,Sensor,1
 Non-Parent Node Connection,NODE 160,CONTROLLER:OUTDOORAIR,CONTROLLER OUTDOOR AIR 7,Sensor,1
 Non-Parent Node Connection,NODE 156,CONTROLLER:OUTDOORAIR,CONTROLLER OUTDOOR AIR 7,Actuator,1
 Non-Parent Node Connection,NODE 157,CONTROLLER:OUTDOORAIR,CONTROLLER OUTDOOR AIR 7,Actuator,1
 Non-Parent Node Connection,NODE 151,CONTROLLER:OUTDOORAIR,CONTROLLER OUTDOOR AIR 7,Sensor,1
 Non-Parent Node Connection,NODE 173,CONTROLLER:OUTDOORAIR,CONTROLLER OUTDOOR AIR 8,Sensor,1
 Non-Parent Node Connection,NODE 169,CONTROLLER:OUTDOORAIR,CONTROLLER OUTDOOR AIR 8,Actuator,1
 Non-Parent Node Connection,NODE 170,CONTROLLER:OUTDOORAIR,CONTROLLER OUTDOOR AIR 8,Actuator,1
 Non-Parent Node Connection,NODE 164,CONTROLLER:OUTDOORAIR,CONTROLLER OUTDOOR AIR 8,Sensor,1
 Non-Parent Node Connection,NODE 186,CONTROLLER:OUTDOORAIR,CONTROLLER OUTDOOR AIR 9,Sensor,1
 Non-Parent Node Connection,NODE 182,CONTROLLER:OUTDOORAIR,CONTROLLER OUTDOOR AIR 9,Actuator,1
 Non-Parent Node Connection,NODE 183,CONTROLLER:OUTDOORAIR,CONTROLLER OUTDOOR AIR 9,Actuator,1
 Non-Parent Node Connection,NODE 177,CONTROLLER:OUTDOORAIR,CONTROLLER OUTDOOR AIR 9,Sensor,1
 Non-Parent Node Connection,NODE 35,CONTROLLER:OUTDOORAIR,CONTROLLER OUTDOOR AIR 1,Sensor,1
 Non-Parent Node Connection,NODE 29,CONTROLLER:OUTDOORAIR,CONTROLLER OUTDOOR AIR 1,Actuator,1
 Non-Parent Node Connection,NODE 30,CONTROLLER:OUTDOORAIR,CONTROLLER OUTDOOR AIR 1,Actuator,1
 Non-Parent Node Connection,NODE 21,CONTROLLER:OUTDOORAIR,CONTROLLER OUTDOOR AIR 1,Sensor,1
 Non-Parent Node Connection,NODE 199,CONTROLLER:OUTDOORAIR,CONTROLLER OUTDOOR AIR 10,Sensor,1
 Non-Parent Node Connection,NODE 195,CONTROLLER:OUTDOORAIR,CONTROLLER OUTDOOR AIR 10,Actuator,1
 Non-Parent Node Connection,NODE 196,CONTROLLER:OUTDOORAIR,CONTROLLER OUTDOOR AIR 10,Actuator,1
 Non-Parent Node Connection,NODE 190,CONTROLLER:OUTDOORAIR,CONTROLLER OUTDOOR AIR 10,Sensor,1
 Non-Parent Node Connection,NODE 212,CONTROLLER:OUTDOORAIR,CONTROLLER OUTDOOR AIR 11,Sensor,1
 Non-Parent Node Connection,NODE 208,CONTROLLER:OUTDOORAIR,CONTROLLER OUTDOOR AIR 11,Actuator,1
 Non-Parent Node Connection,NODE 209,CONTROLLER:OUTDOORAIR,CONTROLLER OUTDOOR AIR 11,Actuator,1
 Non-Parent Node Connection,NODE 203,CONTROLLER:OUTDOORAIR,CONTROLLER OUTDOOR AIR 11,Sensor,1
 Non-Parent Node Connection,NODE 89,CONTROLLER:OUTDOORAIR,CONTROLLER OUTDOOR AIR 4,Sensor,1
 Non-Parent Node Connection,NODE 85,CONTROLLER:OUTDOORAIR,CONTROLLER OUTDOOR AIR 4,Actuator,1
 Non-Parent Node Connection,NODE 86,CONTROLLER:OUTDOORAIR,CONTROLLER OUTDOOR AIR 4,Actuator,1
 Non-Parent Node Connection,NODE 80,CONTROLLER:OUTDOORAIR,CONTROLLER OUTDOOR AIR 4,Sensor,1
 Non-Parent Node Connection,NODE 255,CONTROLLER:OUTDOORAIR,CONTROLLER OUTDOOR AIR 12,Sensor,1
 Non-Parent Node Connection,NODE 251,CONTROLLER:OUTDOORAIR,CONTROLLER OUTDOOR AIR 12,Actuator,1
 Non-Parent Node Connection,NODE 252,CONTROLLER:OUTDOORAIR,CONTROLLER OUTDOOR AIR 12,Actuator,1
 Non-Parent Node Connection,NODE 256,CONTROLLER:OUTDOORAIR,CONTROLLER OUTDOOR AIR 12,Sensor,1
 Non-Parent Node Connection,NODE 218,CHILLER:ELECTRIC:EIR,PRIMARY CHILLER WATERCOOLED SCROLL,Inlet,1
 Non-Parent Node Connection,NODE 223,CHILLER:ELECTRIC:EIR,PRIMARY CHILLER WATERCOOLED SCROLL,Outlet,1
 Non-Parent Node Connection,NODE 234,CHILLER:ELECTRIC:EIR,PRIMARY CHILLER WATERCOOLED SCROLL,Inlet,2
 Non-Parent Node Connection,NODE 240,CHILLER:ELECTRIC:EIR,PRIMARY CHILLER WATERCOOLED SCROLL,Outlet,2
 Non-Parent Node Connection,NODE 224,CHILLER:ELECTRIC:EIR,SECONDARY CHILLER WATERCOOLED SCROLL,Inlet,1
 Non-Parent Node Connection,NODE 225,CHILLER:ELECTRIC:EIR,SECONDARY CHILLER WATERCOOLED SCROLL,Outlet,1
 Non-Parent Node Connection,NODE 241,CHILLER:ELECTRIC:EIR,SECONDARY CHILLER WATERCOOLED SCROLL,Inlet,2
 Non-Parent Node Connection,NODE 242,CHILLER:ELECTRIC:EIR,SECONDARY CHILLER WATERCOOLED SCROLL,Outlet,2
 Non-Parent Node Connection,NODE 231,COOLINGTOWER:SINGLESPEED,COOLING TOWER SINGLE SPEED 1,Inlet,1
 Non-Parent Node Connection,NODE 236,COOLINGTOWER:SINGLESPEED,COOLING TOWER SINGLE SPEED 1,Outlet,1
 Non-Parent Node Connection,NODE 5,BOILER:HOTWATER,PRIMARY BOILER,Inlet,1
 Non-Parent Node Connection,NODE 12,BOILER:HOTWATER,PRIMARY BOILER,Outlet,1
 Non-Parent Node Connection,NODE 14,BOILER:HOTWATER,SECONDARY BOILER,Inlet,1
 Non-Parent Node Connection,NODE 15,BOILER:HOTWATER,SECONDARY BOILER,Outlet,1
 Non-Parent Node Connection,NODE 2,PUMP:VARIABLESPEED,PUMP VARIABLE SPEED 1,Inlet,1
 Non-Parent Node Connection,NODE 11,PUMP:VARIABLESPEED,PUMP VARIABLE SPEED 1,Outlet,1
 Non-Parent Node Connection,NODE 216,PUMP:CONSTANTSPEED,PUMP CONSTANT SPEED 1,Inlet,1
 Non-Parent Node Connection,NODE 222,PUMP:CONSTANTSPEED,PUMP CONSTANT SPEED 1,Outlet,1
 Non-Parent Node Connection,NODE 229,PUMP:CONSTANTSPEED,PUMP CONSTANT SPEED 2,Inlet,1
 Non-Parent Node Connection,NODE 235,PUMP:CONSTANTSPEED,PUMP CONSTANT SPEED 2,Outlet,1
 Non-Parent Node Connection,NODE 263,PUMP:CONSTANTSPEED,SERVICE WATER LOOP PUMP,Inlet,1
 Non-Parent Node Connection,NODE 269,PUMP:CONSTANTSPEED,SERVICE WATER LOOP PUMP,Outlet,1
