Program Version,EnergyPlus, Version 8.9.0-eba93e8e1b, YMD=2019.03.28 13:47
! <Version>, Version ID
 Version, 8.9
! <Timesteps per Hour>, #TimeSteps, Minutes per TimeStep {minutes}
 Timesteps per Hour,  6, 10
! <System Convergence Limits>, Minimum System TimeStep {minutes}, Max HVAC Iterations, Minimum Plant Iterations, Maximum Plant Iterations
 System Convergence Limits, 1, 20, 2, 8
! <Simulation Control>, Do Zone Sizing, Do System Sizing, Do Plant Sizing, Do Design Days, Do Weather Simulation, Do HVAC Sizing Simulation
 Simulation Control, Yes, Yes, Yes, Yes, No, No
! <Output Reporting Tolerances>, Tolerance for Time Heating Setpoint Not Met, Tolerance for Zone Cooling Setpoint Not Met Time
 Output Reporting Tolerances, 1.000, 1.000, 
! <Site:GroundTemperature:BuildingSurface>,Jan{C},Feb{C},Mar{C},Apr{C},May{C},Jun{C},Jul{C},Aug{C},Sep{C},Oct{C},Nov{C},Dec{C}
 Site:GroundTemperature:BuildingSurface,  19.53,  19.50,  19.54,  19.60,  20.00,  21.64,  22.23,  22.38,  21.45,  20.12,  19.80,  19.63
! <Site:GroundTemperature:FCfactorMethod>,Jan{C},Feb{C},Mar{C},Apr{C},May{C},Jun{C},Jul{C},Aug{C},Sep{C},Oct{C},Nov{C},Dec{C}
 Site:GroundTemperature:FCfactorMethod, -12.27, -13.66, -11.19,  -7.33,   2.77,  10.57,  15.83,  17.43,  14.70,   8.65,   0.56,  -6.95
! <Site:GroundTemperature:Shallow>,Jan{C},Feb{C},Mar{C},Apr{C},May{C},Jun{C},Jul{C},Aug{C},Sep{C},Oct{C},Nov{C},Dec{C}
 Site:GroundTemperature:Shallow,  13.00,  13.00,  13.00,  13.00,  13.00,  13.00,  13.00,  13.00,  13.00,  13.00,  13.00,  13.00
! <Site:GroundTemperature:Deep>,Jan{C},Feb{C},Mar{C},Apr{C},May{C},Jun{C},Jul{C},Aug{C},Sep{C},Oct{C},Nov{C},Dec{C}
 Site:GroundTemperature:Deep,  16.00,  16.00,  16.00,  16.00,  16.00,  16.00,  16.00,  16.00,  16.00,  16.00,  16.00,  16.00
! <Site:GroundReflectance>,Jan{dimensionless},Feb{dimensionless},Mar{dimensionless},Apr{dimensionless},May{dimensionless},Jun{dimensionless},Jul{dimensionless},Aug{dimensionless},Sep{dimensionless},Oct{dimensionless},Nov{dimensionless},Dec{dimensionless}
 Site:GroundReflectance,  0.20,  0.20,  0.20,  0.20,  0.20,  0.20,  0.20,  0.20,  0.20,  0.20,  0.20,  0.20
! <Site:GroundReflectance:SnowModifier>, Normal, Daylighting {dimensionless}
 Site:GroundReflectance:SnowModifier,   1.000,   1.000
! <Site:GroundReflectance:Snow>,Jan{dimensionless},Feb{dimensionless},Mar{dimensionless},Apr{dimensionless},May{dimensionless},Jun{dimensionless},Jul{dimensionless},Aug{dimensionless},Sep{dimensionless},Oct{dimensionless},Nov{dimensionless},Dec{dimensionless}
 Site:GroundReflectance:Snow,  0.20,  0.20,  0.20,  0.20,  0.20,  0.20,  0.20,  0.20,  0.20,  0.20,  0.20,  0.20
! <Site:GroundReflectance:Snow:Daylighting>,Jan{dimensionless},Feb{dimensionless},Mar{dimensionless},Apr{dimensionless},May{dimensionless},Jun{dimensionless},Jul{dimensionless},Aug{dimensionless},Sep{dimensionless},Oct{dimensionless},Nov{dimensionless},Dec{dimensionless}
 Site:GroundReflectance:Snow:Daylighting,  0.20,  0.20,  0.20,  0.20,  0.20,  0.20,  0.20,  0.20,  0.20,  0.20,  0.20,  0.20
! <Environment:Weather Station>,Wind Sensor Height Above Ground {m},Wind Speed Profile Exponent {},Wind Speed Profile Boundary Layer Thickness {m},Air Temperature Sensor Height Above Ground {m},Wind Speed Modifier Coefficient-Internal,Temperature Modifier Coefficient-Internal
Environment:Weather Station,10.000,0.140,270.000,1.500,1.586,9.750E-003
! <Site:Location>, Location Name, Latitude {N+/S- Deg}, Longitude {E+/W- Deg},  Time Zone Number {GMT+/-}, Elevation {m},  Standard Pressure at Elevation {Pa}, Standard RhoAir at Elevation
Site:Location,Fort McMurray AP AB CAN CWEC2016 WMO#=716890,56.65,-111.22,-7.00,369.10,96969,1.1525
! <Building Information>, Building Name,North Axis {deg},Terrain,  Loads Convergence Tolerance Value,Temperature Convergence Tolerance Value,  Solar Distribution,Maximum Number of Warmup Days,Minimum Number of Warmup Days
 Building Information,Building 1,0.000,Suburbs,4.00000E-002,0.40000,FullExterior,25,6
! <Inside Convection Algorithm>, Algorithm {Simple | TARP | CeilingDiffuser | AdaptiveConvectionAlgorithm}
Inside Convection Algorithm,TARP
! <Outside Convection Algorithm>, Algorithm {SimpleCombined | TARP | MoWitt | DOE-2 | AdaptiveConvectionAlgorithm}
Outside Convection Algorithm,TARP
! <Sky Radiance Distribution>, Value {Anisotropic}
Sky Radiance Distribution,Anisotropic
! <Zone Air Solution Algorithm>, Value {ThirdOrderBackwardDifference | AnalyticalSolution | EulerMethod}
 Zone Air Solution Algorithm, ThirdOrderBackwardDifference
! <Zone Air Carbon Dioxide Balance Simulation>, Simulation {Yes/No}, Carbon Dioxide Concentration
 Zone Air Carbon Dioxide Balance Simulation, No,N/A
! <Zone Air Generic Contaminant Balance Simulation>, Simulation {Yes/No}, Generic Contaminant Concentration
 Zone Air Generic Contaminant Balance Simulation, No,N/A
! <Zone Air Mass Flow Balance Simulation>, Enforce Mass Balance, Adjust Zone Mixing, Adjust Zone Infiltration {AddInfiltration | AdjustInfiltration | None}, Infiltration Zones {MixingSourceZonesOnly | AllZones}
 Zone Air Mass Flow Balance Simulation, No,N/A,N/A,N/A
! <HVACSystemRootFindingAlgorithm>, Value {RegulaFalsi | Bisection | BisectionThenRegulaFalsi | RegulaFalsiThenBisection}
 HVACSystemRootFindingAlgorithm, RegulaFalsi
! <Environment:Site Atmospheric Variation>,Wind Speed Profile Exponent {},Wind Speed Profile Boundary Layer Thickness {m},Air Temperature Gradient Coefficient {K/m}
Environment:Site Atmospheric Variation,0.220,370.000,6.500000E-003
! <Surface Geometry>,Starting Corner,Vertex Input Direction,Coordinate System,Daylight Reference Point Coordinate System,Rectangular (Simple) Surface Coordinate System
 Surface Geometry,UpperLeftCorner,Counterclockwise,RelativeCoordinateSystem,RelativeCoordinateSystem,RelativeToZoneOrigin
! <Surface Heat Transfer Algorithm>, Value {CTF - ConductionTransferFunction | EMPD - MoisturePenetrationDepthConductionTransferFunction | CondFD - ConductionFiniteDifference | HAMT - CombinedHeatAndMoistureFiniteElement} - Description,Inside Surface Max Temperature Limit{C}, Surface Convection Coefficient Lower Limit {W/m2-K}, Surface Convection Coefficient Upper Limit {W/m2-K}
Surface Heat Transfer Algorithm, CTF - ConductionTransferFunction,200,0.10,1000.0
! <Shading Summary>, Number of Fixed Detached Shades, Number of Building Detached Shades, Number of Attached Shades
 Shading Summary,0,0,0
! <Zone Summary>, Number of Zones, Number of Zone Surfaces, Number of SubSurfaces
 Zone Summary,20,137,17
! <Zone Information>,Zone Name,North Axis {deg},Origin X-Coordinate {m},Origin Y-Coordinate {m},Origin Z-Coordinate {m},Centroid X-Coordinate {m},Centroid Y-Coordinate {m},Centroid Z-Coordinate {m},Type,Zone Multiplier,Zone List Multiplier,Minimum X {m},Maximum X {m},Minimum Y {m},Maximum Y {m},Minimum Z {m},Maximum Z {m},Ceiling Height {m},Volume {m3},Zone Inside Convection Algorithm {Simple-Detailed-CeilingDiffuser-TrombeWall},Zone Outside Convection Algorithm {Simple-Detailed-Tarp-MoWitt-DOE-2-BLAST}, Floor Area {m2},Exterior Gross Wall Area {m2},Exterior Net Wall Area {m2},Exterior Window Area {m2}, Number of Surfaces, Number of SubSurfaces, Number of Shading SubSurfaces,  Part of Total Building Area
 Zone Information, SP-GUEST ROOM-SPACE FUNCTION SYS-1 FLR-4 SCH-F HPLCMT-NORTH ZN,0.0,25.00,75.00,11.40,50.00,89.15,13.30,1,1,1,0.00,100.00,75.00,100.00,11.40,15.20,3.80,7125.00,TARP,TARP,1875.00,380.00,285.00,188.75,6,2,0,Yes
 Zone Information, SP-LABORATORY - CLASSROOMS-SPACE FUNCTION SYS-3 FLR-4 SCH-D HPLCMT-WEST ZN,0.0,0.00,0.00,11.40,10.85,50.00,13.30,1,1,1,0.00,25.00,0.00,100.00,11.40,15.20,3.80,7125.00,TARP,TARP,1875.00,380.00,285.00,188.75,6,2,0,Yes
 Zone Information, SP-LABORATORY - OTHER-SPACE FUNCTION SYS-3 FLR-4 SCH-A HPLCMT-EAST ZN,0.0,75.00,25.00,11.40,89.15,50.00,13.30,1,1,1,75.00,100.00,0.00,100.00,11.40,15.20,3.80,7125.00,TARP,TARP,1875.00,380.00,285.00,188.75,6,2,0,Yes
 Zone Information, SP-LAUNDRY/WASHING AREA-SPACE FUNCTION SYS-3 FLR-3 SCH-C HPLCMT-CORE ZN,0.0,25.00,25.00,7.60,50.00,50.00,9.50,1,1,1,25.00,75.00,25.00,75.00,7.60,11.40,3.80,9500.00,TARP,TARP,2500.00,0.00,0.00,0.00,6,0,0,Yes
 Zone Information, SP-LOADING DOCK INTERIOR-SPACE FUNCTION SYS-4 FLR-3 SCH-H HPLCMT-SOUTH ZN,0.0,0.00,0.00,7.60,50.00,10.85,9.50,1,1,1,0.00,100.00,0.00,25.00,7.60,11.40,3.80,7125.00,TARP,TARP,1875.00,380.00,285.00,95.00,6,1,0,Yes
 Zone Information, SP-LOBBY - ELEVATOR-SPACE FUNCTION SYS-3 FLR-4 SCH-C HPLCMT-SOUTH ZN,0.0,0.00,0.00,11.40,50.00,10.85,13.30,1,1,1,0.00,100.00,0.00,25.00,11.40,15.20,3.80,7125.00,TARP,TARP,1875.00,380.00,285.00,188.75,6,2,0,Yes
 Zone Information, SP-LOBBY - HOTEL-SPACE FUNCTION SYS-3 FLR-3 SCH-H HPLCMT-EAST ZN,0.0,75.00,25.00,7.60,89.15,50.00,9.50,1,1,1,75.00,100.00,0.00,100.00,7.60,11.40,3.80,7125.00,TARP,TARP,1875.00,380.00,285.00,95.00,6,1,0,Yes
 Zone Information, SP-LOBBY - MOTION PICTURE THEATRE-SPACE FUNCTION SYS-3 FLR-1 SCH-C HPLCMT-WEST ZN,0.0,0.00,0.00,0.00,10.85,50.00,1.90,1,1,1,0.00,25.00,0.00,100.00,0.00,3.80,3.80,7125.00,TARP,TARP,1875.00,0.00,0.00,0.00,6,0,0,Yes
 Zone Information, SP-LOBBY - OTHER-SPACE FUNCTION SYS-3 FLR-1 SCH-C HPLCMT-CORE ZN,0.0,25.00,25.00,0.00,50.00,50.00,1.90,1,1,1,25.00,75.00,25.00,75.00,0.00,3.80,3.80,9500.00,TARP,TARP,2500.00,0.00,0.00,0.00,6,0,0,Yes
 Zone Information, SP-LOBBY - PERFORMING ARTS THEATRE-SPACE FUNCTION SYS-3 FLR-1 SCH-C HPLCMT-SOUTH ZN,0.0,0.00,0.00,0.00,50.00,10.85,1.90,1,1,1,0.00,100.00,0.00,25.00,0.00,3.80,3.80,7125.00,TARP,TARP,1875.00,0.00,0.00,0.00,6,0,0,Yes
 Zone Information, SP-LOBBY - SPACE DESIGNED TO ANSI/IES RP-28 (USED PRIMARILY BY RESIDENTS)-SPACE FUNCTION SYS-3 FLR-1 SCH-B HPLCMT-EAST ZN,0.0,75.00,25.00,0.00,89.15,50.00,1.90,1,1,1,75.00,100.00,0.00,100.00,0.00,3.80,3.80,7125.00,TARP,TARP,1875.00,0.00,0.00,0.00,6,0,0,Yes
 Zone Information, SP-LOCKER ROOM-SCH-A-SPACE FUNCTION SYS-6 FLR-3 SCH-A HPLCMT-NORTH ZN,0.0,25.00,75.00,7.60,50.00,89.15,9.50,1,1,1,0.00,100.00,75.00,100.00,7.60,11.40,3.80,7125.00,TARP,TARP,1875.00,380.00,285.00,95.00,6,1,0,Yes
 Zone Information, SP-LOCKER ROOM-SCH-B-SPACE FUNCTION SYS-6 FLR-1 SCH-B HPLCMT-NORTH ZN,0.0,25.00,75.00,0.00,50.00,89.15,1.90,1,1,1,0.00,100.00,75.00,100.00,0.00,3.80,3.80,7125.00,TARP,TARP,1875.00,0.00,0.00,0.00,6,0,0,Yes
 Zone Information, SP-LOCKER ROOM-SCH-C-SPACE FUNCTION SYS-6 FLR-2 SCH-C HPLCMT-WEST ZN,0.0,0.00,0.00,3.80,10.85,50.00,5.70,1,1,1,0.00,25.00,0.00,100.00,3.80,7.60,3.80,7125.00,TARP,TARP,1875.00,380.00,285.00,95.00,6,1,0,Yes
 Zone Information, SP-LOCKER ROOM-SCH-D-SPACE FUNCTION SYS-6 FLR-2 SCH-D HPLCMT-NORTH ZN,0.0,25.00,75.00,3.80,50.00,89.15,5.70,1,1,1,0.00,100.00,75.00,100.00,3.80,7.60,3.80,7125.00,TARP,TARP,1875.00,380.00,285.00,95.00,6,1,0,Yes
 Zone Information, SP-LOCKER ROOM-SCH-E-SPACE FUNCTION SYS-6 FLR-4 SCH-E HPLCMT-CORE ZN,0.0,25.00,25.00,11.40,50.00,50.00,13.30,1,1,1,25.00,75.00,25.00,75.00,11.40,15.20,3.80,9500.00,TARP,TARP,2500.00,0.00,0.00,125.00,6,1,0,Yes
 Zone Information, SP-LOCKER ROOM-SCH-F-SPACE FUNCTION SYS-6 FLR-3 SCH-F HPLCMT-WEST ZN,0.0,0.00,0.00,7.60,10.85,50.00,9.50,1,1,1,0.00,25.00,0.00,100.00,7.60,11.40,3.80,7125.00,TARP,TARP,1875.00,380.00,285.00,95.00,6,1,0,Yes
 Zone Information, SP-LOCKER ROOM-SCH-G-SPACE FUNCTION SYS-6 FLR-2 SCH-G HPLCMT-EAST ZN,0.0,75.00,25.00,3.80,89.15,50.00,5.70,1,1,1,75.00,100.00,0.00,100.00,3.80,7.60,3.80,7125.00,TARP,TARP,1875.00,380.00,285.00,95.00,6,1,0,Yes
 Zone Information, SP-LOCKER ROOM-SCH-H-SPACE FUNCTION SYS-6 FLR-2 SCH-H HPLCMT-SOUTH ZN,0.0,0.00,0.00,3.80,50.00,10.85,5.70,1,1,1,0.00,100.00,0.00,25.00,3.80,7.60,3.80,7125.00,TARP,TARP,1875.00,380.00,285.00,95.00,6,1,0,Yes
 Zone Information, SP-LOCKER ROOM-SCH-I-SPACE FUNCTION SYS-6 FLR-2 SCH-I HPLCMT-CORE ZN,0.0,25.00,25.00,3.80,50.00,50.00,5.70,1,1,1,25.00,75.00,25.00,75.00,3.80,7.60,3.80,9500.00,TARP,TARP,2500.00,0.00,0.00,0.00,6,0,0,Yes
! <Zone Internal Gains Nominal>,Zone Name, Floor Area {m2},# Occupants,Area per Occupant {m2/person},Occupant per Area {person/m2},Interior Lighting {W/m2},Electric Load {W/m2},Gas Load {W/m2},Other Load {W/m2},Hot Water Eq {W/m2},Steam Equipment {W/m2},Sum Loads per Area {W/m2},Outdoor Controlled Baseboard Heat
 Zone Internal Gains Nominal, SP-GUEST ROOM-SPACE FUNCTION SYS-1 FLR-4 SCH-F HPLCMT-NORTH ZN,1875.00,75.0,24.991,4.001E-002,5.102,2.501,0.000,0.000,0.000,0.000,7.603,No
 Zone Internal Gains Nominal, SP-LABORATORY - CLASSROOMS-SPACE FUNCTION SYS-3 FLR-4 SCH-D HPLCMT-WEST ZN,1875.00,93.8,19.993,5.002E-002,15.506,10.004,0.000,0.000,0.000,0.000,25.509,No
 Zone Internal Gains Nominal, SP-LABORATORY - OTHER-SPACE FUNCTION SYS-3 FLR-4 SCH-A HPLCMT-EAST ZN,1875.00,93.8,19.993,5.002E-002,19.507,10.004,0.000,0.000,0.000,0.000,29.511,No
 Zone Internal Gains Nominal, SP-LAUNDRY/WASHING AREA-SPACE FUNCTION SYS-3 FLR-3 SCH-C HPLCMT-CORE ZN,2500.00,125.0,19.993,5.002E-002,6.502,20.007,0.000,0.000,0.000,0.000,26.510,No
 Zone Internal Gains Nominal, SP-LOADING DOCK INTERIOR-SPACE FUNCTION SYS-4 FLR-3 SCH-H HPLCMT-SOUTH ZN,1875.00,3.8,499.818,2.001E-003,5.102,0.000,0.000,0.000,0.000,0.000,5.102,No
 Zone Internal Gains Nominal, SP-LOBBY - ELEVATOR-SPACE FUNCTION SYS-3 FLR-4 SCH-C HPLCMT-SOUTH ZN,1875.00,187.6,9.996,0.100,7.003,1.000,0.000,0.000,0.000,0.000,8.003,No
 Zone Internal Gains Nominal, SP-LOBBY - HOTEL-SPACE FUNCTION SYS-3 FLR-3 SCH-H HPLCMT-EAST ZN,1875.00,187.6,9.996,0.100,11.504,2.501,0.000,0.000,0.000,0.000,14.005,No
 Zone Internal Gains Nominal, SP-LOBBY - MOTION PICTURE THEATRE-SPACE FUNCTION SYS-3 FLR-1 SCH-C HPLCMT-WEST ZN,1875.00,187.6,9.996,0.100,6.402,1.000,0.000,0.000,0.000,0.000,7.403,No
 Zone Internal Gains Nominal, SP-LOBBY - OTHER-SPACE FUNCTION SYS-3 FLR-1 SCH-C HPLCMT-CORE ZN,2500.00,250.1,9.996,0.100,9.704,1.000,0.000,0.000,0.000,0.000,10.704,No
 Zone Internal Gains Nominal, SP-LOBBY - PERFORMING ARTS THEATRE-SPACE FUNCTION SYS-3 FLR-1 SCH-C HPLCMT-SOUTH ZN,1875.00,187.6,9.996,0.100,21.608,1.000,0.000,0.000,0.000,0.000,22.608,No
 Zone Internal Gains Nominal, SP-LOBBY - SPACE DESIGNED TO ANSI/IES RP-28 (USED PRIMARILY BY RESIDENTS)-SPACE FUNCTION SYS-3 FLR-1 SCH-B HPLCMT-EAST ZN,1875.00,187.6,9.996,0.100,19.407,2.501,0.000,0.000,0.000,0.000,21.908,No
 Zone Internal Gains Nominal, SP-LOCKER ROOM-SCH-A-SPACE FUNCTION SYS-6 FLR-3 SCH-A HPLCMT-NORTH ZN,1875.00,187.6,9.996,0.100,8.103,2.501,0.000,0.000,0.000,0.000,10.604,No
 Zone Internal Gains Nominal, SP-LOCKER ROOM-SCH-B-SPACE FUNCTION SYS-6 FLR-1 SCH-B HPLCMT-NORTH ZN,1875.00,187.6,9.996,0.100,8.103,2.501,0.000,0.000,0.000,0.000,10.604,No
 Zone Internal Gains Nominal, SP-LOCKER ROOM-SCH-C-SPACE FUNCTION SYS-6 FLR-2 SCH-C HPLCMT-WEST ZN,1875.00,187.6,9.996,0.100,8.103,2.501,0.000,0.000,0.000,0.000,10.604,No
 Zone Internal Gains Nominal, SP-LOCKER ROOM-SCH-D-SPACE FUNCTION SYS-6 FLR-2 SCH-D HPLCMT-NORTH ZN,1875.00,187.6,9.996,0.100,8.103,2.501,0.000,0.000,0.000,0.000,10.604,No
 Zone Internal Gains Nominal, SP-LOCKER ROOM-SCH-E-SPACE FUNCTION SYS-6 FLR-4 SCH-E HPLCMT-CORE ZN,2500.00,250.1,9.996,0.100,8.103,2.501,0.000,0.000,0.000,0.000,10.604,No
 Zone Internal Gains Nominal, SP-LOCKER ROOM-SCH-F-SPACE FUNCTION SYS-6 FLR-3 SCH-F HPLCMT-WEST ZN,1875.00,187.6,9.996,0.100,8.103,2.501,0.000,0.000,0.000,0.000,10.604,No
 Zone Internal Gains Nominal, SP-LOCKER ROOM-SCH-G-SPACE FUNCTION SYS-6 FLR-2 SCH-G HPLCMT-EAST ZN,1875.00,187.6,9.996,0.100,8.103,2.501,0.000,0.000,0.000,0.000,10.604,No
 Zone Internal Gains Nominal, SP-LOCKER ROOM-SCH-H-SPACE FUNCTION SYS-6 FLR-2 SCH-H HPLCMT-SOUTH ZN,1875.00,187.6,9.996,0.100,8.103,2.501,0.000,0.000,0.000,0.000,10.604,No
 Zone Internal Gains Nominal, SP-LOCKER ROOM-SCH-I-SPACE FUNCTION SYS-6 FLR-2 SCH-I HPLCMT-CORE ZN,2500.00,250.1,9.996,0.100,8.103,2.501,0.000,0.000,0.000,0.000,10.604,No
! <People Internal Gains Nominal>,Name,Schedule Name,Zone Name,Zone Floor Area {m2},# Zone Occupants,Number of People {},People/Floor Area {person/m2},Floor Area per person {m2/person},Fraction Radiant,Fraction Convected,Sensible Fraction Calculation,Activity level,ASHRAE 55 Warnings,Carbon Dioxide Generation Rate,Nominal Minimum Number of People,Nominal Maximum Number of People
 People Internal Gains Nominal, SP-GUEST ROOM-SPACE FUNCTION SYS-1 FLR-4 SCH-F HPLCMT-NORTH ZN SPACE FUNCTION GUEST ROOM PEOPLE,NECB-F-OCCUPANCY,SP-GUEST ROOM-SPACE FUNCTION SYS-1 FLR-4 SCH-F HPLCMT-NORTH ZN,1875.00,75.0,75.0,4.001E-002,24.991,0.300,0.700,AutoCalculate,NECB-ACTIVITY,No,3.8200E-008,11,47
 People Internal Gains Nominal, SP-LABORATORY - CLASSROOMS-SPACE FUNCTION SYS-3 FLR-4 SCH-D HPLCMT-WEST ZN SPACE FUNCTION LABORATORY - CLASSROOMS PEOPLE,NECB-D-OCCUPANCY,SP-LABORATORY - CLASSROOMS-SPACE FUNCTION SYS-3 FLR-4 SCH-D HPLCMT-WEST ZN,1875.00,93.8,93.8,5.002E-002,19.993,0.300,0.700,AutoCalculate,NECB-ACTIVITY,No,3.8200E-008,0,84
 People Internal Gains Nominal, SP-LABORATORY - OTHER-SPACE FUNCTION SYS-3 FLR-4 SCH-A HPLCMT-EAST ZN SPACE FUNCTION LABORATORY - OTHER PEOPLE,NECB-A-OCCUPANCY,SP-LABORATORY - OTHER-SPACE FUNCTION SYS-3 FLR-4 SCH-A HPLCMT-EAST ZN,1875.00,93.8,93.8,5.002E-002,19.993,0.300,0.700,AutoCalculate,NECB-ACTIVITY,No,3.8200E-008,0,84
 People Internal Gains Nominal, SP-LAUNDRY/WASHING AREA-SPACE FUNCTION SYS-3 FLR-3 SCH-C HPLCMT-CORE ZN SPACE FUNCTION LAUNDRY/WASHING AREA PEOPLE,NECB-C-OCCUPANCY,SP-LAUNDRY/WASHING AREA-SPACE FUNCTION SYS-3 FLR-3 SCH-C HPLCMT-CORE ZN,2500.00,125.0,125.0,5.002E-002,19.993,0.300,0.700,AutoCalculate,NECB-ACTIVITY,No,3.8200E-008,0,113
 People Internal Gains Nominal, SP-LOADING DOCK INTERIOR-SPACE FUNCTION SYS-4 FLR-3 SCH-H HPLCMT-SOUTH ZN SPACE FUNCTION LOADING DOCK INTERIOR PEOPLE,NECB-H-OCCUPANCY,SP-LOADING DOCK INTERIOR-SPACE FUNCTION SYS-4 FLR-3 SCH-H HPLCMT-SOUTH ZN,1875.00,3.8,3.8,2.001E-003,499.818,0.300,0.700,AutoCalculate,NECB-ACTIVITY,No,3.8200E-008,3,3
 People Internal Gains Nominal, SP-LOBBY - ELEVATOR-SPACE FUNCTION SYS-3 FLR-4 SCH-C HPLCMT-SOUTH ZN SPACE FUNCTION LOBBY - ELEVATOR PEOPLE,NECB-C-OCCUPANCY,SP-LOBBY - ELEVATOR-SPACE FUNCTION SYS-3 FLR-4 SCH-C HPLCMT-SOUTH ZN,1875.00,187.6,187.6,0.100,9.996,0.300,0.700,AutoCalculate,NECB-ACTIVITY,No,3.8200E-008,0,169
 People Internal Gains Nominal, SP-LOBBY - HOTEL-SPACE FUNCTION SYS-3 FLR-3 SCH-H HPLCMT-EAST ZN SPACE FUNCTION LOBBY - HOTEL PEOPLE,NECB-H-OCCUPANCY,SP-LOBBY - HOTEL-SPACE FUNCTION SYS-3 FLR-3 SCH-H HPLCMT-EAST ZN,1875.00,187.6,187.6,0.100,9.996,0.300,0.700,AutoCalculate,NECB-ACTIVITY,No,3.8200E-008,169,169
 People Internal Gains Nominal, SP-LOBBY - MOTION PICTURE THEATRE-SPACE FUNCTION SYS-3 FLR-1 SCH-C HPLCMT-WEST ZN SPACE FUNCTION LOBBY - MOTION PICTURE THEATRE PEOPLE,NECB-C-OCCUPANCY,SP-LOBBY - MOTION PICTURE THEATRE-SPACE FUNCTION SYS-3 FLR-1 SCH-C HPLCMT-WEST ZN,1875.00,187.6,187.6,0.100,9.996,0.300,0.700,AutoCalculate,NECB-ACTIVITY,No,3.8200E-008,0,169
 People Internal Gains Nominal, SP-LOBBY - OTHER-SPACE FUNCTION SYS-3 FLR-1 SCH-C HPLCMT-CORE ZN SPACE FUNCTION LOBBY - OTHER PEOPLE,NECB-C-OCCUPANCY,SP-LOBBY - OTHER-SPACE FUNCTION SYS-3 FLR-1 SCH-C HPLCMT-CORE ZN,2500.00,250.1,250.1,0.100,9.996,0.300,0.700,AutoCalculate,NECB-ACTIVITY,No,3.8200E-008,0,225
 People Internal Gains Nominal, SP-LOBBY - PERFORMING ARTS THEATRE-SPACE FUNCTION SYS-3 FLR-1 SCH-C HPLCMT-SOUTH ZN SPACE FUNCTION LOBBY - PERFORMING ARTS THEATRE PEOPLE,NECB-C-OCCUPANCY,SP-LOBBY - PERFORMING ARTS THEATRE-SPACE FUNCTION SYS-3 FLR-1 SCH-C HPLCMT-SOUTH ZN,1875.00,187.6,187.6,0.100,9.996,0.300,0.700,AutoCalculate,NECB-ACTIVITY,No,3.8200E-008,0,169
 People Internal Gains Nominal, SP-LOBBY - SPACE DESIGNED TO ANSI/IES RP-28 (USED PRIMARILY BY RESIDENTS)-SPACE FUNCTION SYS-3 FLR-1 SCH-B HPLCMT-EAST ZN SPACE FUNCTION LOBBY - SPACE DESIGNED TO ANSI/IES RP-28 (USED PRIMARILY BY RESIDENTS) PEOPLE,NECB-B-OCCUPANCY,SP-LOBBY - SPACE DESIGNED TO ANSI/IES RP-28 (USED PRIMARILY BY RESIDENTS)-SPACE FUNCTION SYS-3 FLR-1 SCH-B HPLCMT-EAST ZN,1875.00,187.6,187.6,0.100,9.996,0.300,0.700,AutoCalculate,NECB-ACTIVITY,No,3.8200E-008,0,169
 People Internal Gains Nominal, SP-LOCKER ROOM-SCH-A-SPACE FUNCTION SYS-6 FLR-3 SCH-A HPLCMT-NORTH ZN SPACE FUNCTION LOCKER ROOM-SCH-A PEOPLE,NECB-A-OCCUPANCY,SP-LOCKER ROOM-SCH-A-SPACE FUNCTION SYS-6 FLR-3 SCH-A HPLCMT-NORTH ZN,1875.00,187.6,187.6,0.100,9.996,0.300,0.700,AutoCalculate,NECB-ACTIVITY,No,3.8200E-008,0,169
 People Internal Gains Nominal, SP-LOCKER ROOM-SCH-B-SPACE FUNCTION SYS-6 FLR-1 SCH-B HPLCMT-NORTH ZN SPACE FUNCTION LOCKER ROOM-SCH-B PEOPLE,NECB-B-OCCUPANCY,SP-LOCKER ROOM-SCH-B-SPACE FUNCTION SYS-6 FLR-1 SCH-B HPLCMT-NORTH ZN,1875.00,187.6,187.6,0.100,9.996,0.300,0.700,AutoCalculate,NECB-ACTIVITY,No,3.8200E-008,0,169
 People Internal Gains Nominal, SP-LOCKER ROOM-SCH-C-SPACE FUNCTION SYS-6 FLR-2 SCH-C HPLCMT-WEST ZN SPACE FUNCTION LOCKER ROOM-SCH-C PEOPLE,NECB-C-OCCUPANCY,SP-LOCKER ROOM-SCH-C-SPACE FUNCTION SYS-6 FLR-2 SCH-C HPLCMT-WEST ZN,1875.00,187.6,187.6,0.100,9.996,0.300,0.700,AutoCalculate,NECB-ACTIVITY,No,3.8200E-008,0,169
 People Internal Gains Nominal, SP-LOCKER ROOM-SCH-D-SPACE FUNCTION SYS-6 FLR-2 SCH-D HPLCMT-NORTH ZN SPACE FUNCTION LOCKER ROOM-SCH-D PEOPLE,NECB-D-OCCUPANCY,SP-LOCKER ROOM-SCH-D-SPACE FUNCTION SYS-6 FLR-2 SCH-D HPLCMT-NORTH ZN,1875.00,187.6,187.6,0.100,9.996,0.300,0.700,AutoCalculate,NECB-ACTIVITY,No,3.8200E-008,0,169
 People Internal Gains Nominal, SP-LOCKER ROOM-SCH-E-SPACE FUNCTION SYS-6 FLR-4 SCH-E HPLCMT-CORE ZN SPACE FUNCTION LOCKER ROOM-SCH-E PEOPLE,NECB-E-OCCUPANCY,SP-LOCKER ROOM-SCH-E-SPACE FUNCTION SYS-6 FLR-4 SCH-E HPLCMT-CORE ZN,2500.00,250.1,250.1,0.100,9.996,0.300,0.700,AutoCalculate,NECB-ACTIVITY,No,3.8200E-008,0,225
 People Internal Gains Nominal, SP-LOCKER ROOM-SCH-F-SPACE FUNCTION SYS-6 FLR-3 SCH-F HPLCMT-WEST ZN SPACE FUNCTION LOCKER ROOM-SCH-F PEOPLE,NECB-F-OCCUPANCY,SP-LOCKER ROOM-SCH-F-SPACE FUNCTION SYS-6 FLR-3 SCH-F HPLCMT-WEST ZN,1875.00,187.6,187.6,0.100,9.996,0.300,0.700,AutoCalculate,NECB-ACTIVITY,No,3.8200E-008,26,118
 People Internal Gains Nominal, SP-LOCKER ROOM-SCH-G-SPACE FUNCTION SYS-6 FLR-2 SCH-G HPLCMT-EAST ZN SPACE FUNCTION LOCKER ROOM-SCH-G PEOPLE,NECB-G-OCCUPANCY,SP-LOCKER ROOM-SCH-G-SPACE FUNCTION SYS-6 FLR-2 SCH-G HPLCMT-EAST ZN,1875.00,187.6,187.6,0.100,9.996,0.300,0.700,AutoCalculate,NECB-ACTIVITY,No,3.8200E-008,56,169
 People Internal Gains Nominal, SP-LOCKER ROOM-SCH-H-SPACE FUNCTION SYS-6 FLR-2 SCH-H HPLCMT-SOUTH ZN SPACE FUNCTION LOCKER ROOM-SCH-H PEOPLE,NECB-H-OCCUPANCY,SP-LOCKER ROOM-SCH-H-SPACE FUNCTION SYS-6 FLR-2 SCH-H HPLCMT-SOUTH ZN,1875.00,187.6,187.6,0.100,9.996,0.300,0.700,AutoCalculate,NECB-ACTIVITY,No,3.8200E-008,169,169
 People Internal Gains Nominal, SP-LOCKER ROOM-SCH-I-SPACE FUNCTION SYS-6 FLR-2 SCH-I HPLCMT-CORE ZN SPACE FUNCTION LOCKER ROOM-SCH-I PEOPLE,NECB-I-OCCUPANCY,SP-LOCKER ROOM-SCH-I-SPACE FUNCTION SYS-6 FLR-2 SCH-I HPLCMT-CORE ZN,2500.00,250.1,250.1,0.100,9.996,0.300,0.700,AutoCalculate,NECB-ACTIVITY,No,3.8200E-008,0,200
! <Lights Internal Gains Nominal>,Name,Schedule Name,Zone Name,Zone Floor Area {m2},# Zone Occupants,Lighting Level {W},Lights/Floor Area {W/m2},Lights per person {W/person},Fraction Return Air,Fraction Radiant,Fraction Short Wave,Fraction Convected,Fraction Replaceable,End-Use Category,Nominal Minimum Lighting Level {W},Nominal Maximum Lighting Level {W}
 Lights Internal Gains Nominal, SP-GUEST ROOM-SPACE FUNCTION SYS-1 FLR-4 SCH-F HPLCMT-NORTH ZN SPACE FUNCTION GUEST ROOM LIGHTS,NECB-F-LIGHTING,SP-GUEST ROOM-SPACE FUNCTION SYS-1 FLR-4 SCH-F HPLCMT-NORTH ZN,1875.00,75.0,9565.975,5.102,127.500,0.000,0.500,0.200,0.300,1.000,General,669.618,6026.564
 Lights Internal Gains Nominal, SP-LABORATORY - CLASSROOMS-SPACE FUNCTION SYS-3 FLR-4 SCH-D HPLCMT-WEST ZN SPACE FUNCTION LABORATORY - CLASSROOMS LIGHTS,NECB-D-OCCUPANCY-NECB-D-LIGHTING-0.4-0.1-0.67-LIGHT RULESET,SP-LABORATORY - CLASSROOMS-SPACE FUNCTION SYS-3 FLR-4 SCH-D HPLCMT-WEST ZN,1875.00,93.8,29073.062,15.506,310.000,0.000,0.500,0.200,0.300,1.000,General,918.709,26165.756
 Lights Internal Gains Nominal, SP-LABORATORY - OTHER-SPACE FUNCTION SYS-3 FLR-4 SCH-A HPLCMT-EAST ZN SPACE FUNCTION LABORATORY - OTHER LIGHTS,NECB-A-OCCUPANCY-NECB-A-LIGHTING-0.0-0.0-0.67-LIGHT RULESET,SP-LABORATORY - OTHER-SPACE FUNCTION SYS-3 FLR-4 SCH-A HPLCMT-EAST ZN,1875.00,93.8,36575.788,19.507,390.000,0.000,0.500,0.200,0.300,1.000,General,1828.789,32918.209
 Lights Internal Gains Nominal, SP-LAUNDRY/WASHING AREA-SPACE FUNCTION SYS-3 FLR-3 SCH-C HPLCMT-CORE ZN SPACE FUNCTION LAUNDRY/WASHING AREA LIGHTS,NECB-C-LIGHTING,SP-LAUNDRY/WASHING AREA-SPACE FUNCTION SYS-3 FLR-3 SCH-C HPLCMT-CORE ZN,2500.00,125.0,16255.906,6.502,130.000,0.000,0.500,0.200,0.300,1.000,General,812.795,14630.315
 Lights Internal Gains Nominal, SP-LOADING DOCK INTERIOR-SPACE FUNCTION SYS-4 FLR-3 SCH-H HPLCMT-SOUTH ZN SPACE FUNCTION LOADING DOCK INTERIOR LIGHTS,NECB-H-LIGHTING,SP-LOADING DOCK INTERIOR-SPACE FUNCTION SYS-4 FLR-3 SCH-H HPLCMT-SOUTH ZN,1875.00,3.8,9565.975,5.102,2550.000,0.000,0.500,0.200,0.300,1.000,General,8609.378,8609.378
 Lights Internal Gains Nominal, SP-LOBBY - ELEVATOR-SPACE FUNCTION SYS-3 FLR-4 SCH-C HPLCMT-SOUTH ZN SPACE FUNCTION LOBBY - ELEVATOR LIGHTS,NECB-C-LIGHTING,SP-LOBBY - ELEVATOR-SPACE FUNCTION SYS-3 FLR-4 SCH-C HPLCMT-SOUTH ZN,1875.00,187.6,13129.770,7.003,70.000,0.000,0.500,0.200,0.300,1.000,General,656.488,11816.793
 Lights Internal Gains Nominal, SP-LOBBY - HOTEL-SPACE FUNCTION SYS-3 FLR-3 SCH-H HPLCMT-EAST ZN SPACE FUNCTION LOBBY - HOTEL LIGHTS,NECB-H-OCCUPANCY-NECB-H-LIGHTING-0.0-0.0-0.67-LIGHT RULESET,SP-LOBBY - HOTEL-SPACE FUNCTION SYS-3 FLR-3 SCH-H HPLCMT-EAST ZN,1875.00,187.6,21570.336,11.504,115.000,0.000,0.500,0.200,0.300,1.000,General,19413.303,19413.303
 Lights Internal Gains Nominal, SP-LOBBY - MOTION PICTURE THEATRE-SPACE FUNCTION SYS-3 FLR-1 SCH-C HPLCMT-WEST ZN SPACE FUNCTION LOBBY - MOTION PICTURE THEATRE LIGHTS,NECB-C-LIGHTING,SP-LOBBY - MOTION PICTURE THEATRE-SPACE FUNCTION SYS-3 FLR-1 SCH-C HPLCMT-WEST ZN,1875.00,187.6,12004.361,6.402,64.000,0.000,0.500,0.200,0.300,1.000,General,600.218,10803.925
 Lights Internal Gains Nominal, SP-LOBBY - OTHER-SPACE FUNCTION SYS-3 FLR-1 SCH-C HPLCMT-CORE ZN SPACE FUNCTION LOBBY - OTHER LIGHTS,NECB-C-OCCUPANCY-NECB-C-LIGHTING-0.0-0.0-0.67-LIGHT RULESET,SP-LOBBY - OTHER-SPACE FUNCTION SYS-3 FLR-1 SCH-C HPLCMT-CORE ZN,2500.00,250.1,24258.813,9.704,97.000,0.000,0.500,0.200,0.300,1.000,General,1212.941,21832.932
 Lights Internal Gains Nominal, SP-LOBBY - PERFORMING ARTS THEATRE-SPACE FUNCTION SYS-3 FLR-1 SCH-C HPLCMT-SOUTH ZN SPACE FUNCTION LOBBY - PERFORMING ARTS THEATRE LIGHTS,NECB-C-OCCUPANCY-NECB-C-LIGHTING-0.0-0.0-0.67-LIGHT RULESET,SP-LOBBY - PERFORMING ARTS THEATRE-SPACE FUNCTION SYS-3 FLR-1 SCH-C HPLCMT-SOUTH ZN,1875.00,187.6,40514.719,21.608,216.000,0.000,0.500,0.200,0.300,1.000,General,2025.736,36463.247
 Lights Internal Gains Nominal, SP-LOBBY - SPACE DESIGNED TO ANSI/IES RP-28 (USED PRIMARILY BY RESIDENTS)-SPACE FUNCTION SYS-3 FLR-1 SCH-B HPLCMT-EAST ZN SPACE FUNCTION LOBBY - SPACE DESIGNED TO ANSI/IES RP-28 (USED PRIMARILY BY RESIDENTS) LIGHTS,NECB-B-OCCUPANCY-NECB-B-LIGHTING-0.0-0.0-0.67-LIGHT RULESET,SP-LOBBY - SPACE DESIGNED TO ANSI/IES RP-28 (USED PRIMARILY BY RESIDENTS)-SPACE FUNCTION SYS-3 FLR-1 SCH-B HPLCMT-EAST ZN,1875.00,187.6,36388.219,19.407,194.000,0.000,0.500,0.200,0.300,1.000,General,3638.822,32749.398
 Lights Internal Gains Nominal, SP-LOCKER ROOM-SCH-A-SPACE FUNCTION SYS-6 FLR-3 SCH-A HPLCMT-NORTH ZN SPACE FUNCTION LOCKER ROOM-SCH-A LIGHTS,NECB-A-LIGHTING,SP-LOCKER ROOM-SCH-A-SPACE FUNCTION SYS-6 FLR-3 SCH-A HPLCMT-NORTH ZN,1875.00,187.6,15193.019,8.103,81.000,0.000,0.500,0.200,0.300,1.000,General,759.651,13673.718
 Lights Internal Gains Nominal, SP-LOCKER ROOM-SCH-B-SPACE FUNCTION SYS-6 FLR-1 SCH-B HPLCMT-NORTH ZN SPACE FUNCTION LOCKER ROOM-SCH-B LIGHTS,NECB-B-LIGHTING,SP-LOCKER ROOM-SCH-B-SPACE FUNCTION SYS-6 FLR-1 SCH-B HPLCMT-NORTH ZN,1875.00,187.6,15193.019,8.103,81.000,0.000,0.500,0.200,0.300,1.000,General,1519.302,13673.718
 Lights Internal Gains Nominal, SP-LOCKER ROOM-SCH-C-SPACE FUNCTION SYS-6 FLR-2 SCH-C HPLCMT-WEST ZN SPACE FUNCTION LOCKER ROOM-SCH-C LIGHTS,NECB-C-LIGHTING,SP-LOCKER ROOM-SCH-C-SPACE FUNCTION SYS-6 FLR-2 SCH-C HPLCMT-WEST ZN,1875.00,187.6,15193.019,8.103,81.000,0.000,0.500,0.200,0.300,1.000,General,759.651,13673.718
 Lights Internal Gains Nominal, SP-LOCKER ROOM-SCH-D-SPACE FUNCTION SYS-6 FLR-2 SCH-D HPLCMT-NORTH ZN SPACE FUNCTION LOCKER ROOM-SCH-D LIGHTS,NECB-D-LIGHTING,SP-LOCKER ROOM-SCH-D-SPACE FUNCTION SYS-6 FLR-2 SCH-D HPLCMT-NORTH ZN,1875.00,187.6,15193.019,8.103,81.000,0.000,0.500,0.200,0.300,1.000,General,759.651,13673.718
 Lights Internal Gains Nominal, SP-LOCKER ROOM-SCH-E-SPACE FUNCTION SYS-6 FLR-4 SCH-E HPLCMT-CORE ZN SPACE FUNCTION LOCKER ROOM-SCH-E LIGHTS,NECB-E-LIGHTING,SP-LOCKER ROOM-SCH-E-SPACE FUNCTION SYS-6 FLR-4 SCH-E HPLCMT-CORE ZN,2500.00,250.1,20257.359,8.103,81.000,0.000,0.500,0.200,0.300,1.000,General,1012.868,18231.623
 Lights Internal Gains Nominal, SP-LOCKER ROOM-SCH-F-SPACE FUNCTION SYS-6 FLR-3 SCH-F HPLCMT-WEST ZN SPACE FUNCTION LOCKER ROOM-SCH-F LIGHTS,NECB-F-LIGHTING,SP-LOCKER ROOM-SCH-F-SPACE FUNCTION SYS-6 FLR-3 SCH-F HPLCMT-WEST ZN,1875.00,187.6,15193.019,8.103,81.000,0.000,0.500,0.200,0.300,1.000,General,1063.511,9571.602
 Lights Internal Gains Nominal, SP-LOCKER ROOM-SCH-G-SPACE FUNCTION SYS-6 FLR-2 SCH-G HPLCMT-EAST ZN SPACE FUNCTION LOCKER ROOM-SCH-G LIGHTS,NECB-G-LIGHTING,SP-LOCKER ROOM-SCH-G-SPACE FUNCTION SYS-6 FLR-2 SCH-G HPLCMT-EAST ZN,1875.00,187.6,15193.019,8.103,81.000,0.000,0.500,0.200,0.300,1.000,General,0.000,13673.718
 Lights Internal Gains Nominal, SP-LOCKER ROOM-SCH-H-SPACE FUNCTION SYS-6 FLR-2 SCH-H HPLCMT-SOUTH ZN SPACE FUNCTION LOCKER ROOM-SCH-H LIGHTS,NECB-H-LIGHTING,SP-LOCKER ROOM-SCH-H-SPACE FUNCTION SYS-6 FLR-2 SCH-H HPLCMT-SOUTH ZN,1875.00,187.6,15193.019,8.103,81.000,0.000,0.500,0.200,0.300,1.000,General,13673.718,13673.718
 Lights Internal Gains Nominal, SP-LOCKER ROOM-SCH-I-SPACE FUNCTION SYS-6 FLR-2 SCH-I HPLCMT-CORE ZN SPACE FUNCTION LOCKER ROOM-SCH-I LIGHTS,NECB-I-LIGHTING,SP-LOCKER ROOM-SCH-I-SPACE FUNCTION SYS-6 FLR-2 SCH-I HPLCMT-CORE ZN,2500.00,250.1,20257.359,8.103,81.000,0.000,0.500,0.200,0.300,1.000,General,1012.868,18231.623
! <ElectricEquipment Internal Gains Nominal>,Name,Schedule Name,Zone Name,Zone Floor Area {m2},# Zone Occupants,Equipment Level {W},Equipment/Floor Area {W/m2},Equipment per person {W/person},Fraction Latent,Fraction Radiant,Fraction Lost,Fraction Convected,End-Use SubCategory,Nominal Minimum Equipment Level {W},Nominal Maximum Equipment Level {W}
 ElectricEquipment Internal Gains Nominal, SP-GUEST ROOM-SPACE FUNCTION SYS-1 FLR-4 SCH-F HPLCMT-NORTH ZN SPACE FUNCTION GUEST ROOM ELEC EQUIP,NECB-F-ELECTRIC-EQUIPMENT,SP-GUEST ROOM-SPACE FUNCTION SYS-1 FLR-4 SCH-F HPLCMT-NORTH ZN,1875.00,75.0,4689.204,2.501,62.500,0.000,0.500,0.000,0.500,General,328.244,2954.198
 ElectricEquipment Internal Gains Nominal, SP-LABORATORY - CLASSROOMS-SPACE FUNCTION SYS-3 FLR-4 SCH-D HPLCMT-WEST ZN SPACE FUNCTION LABORATORY - CLASSROOMS ELEC EQUIP,NECB-D-ELECTRIC-EQUIPMENT,SP-LABORATORY - CLASSROOMS-SPACE FUNCTION SYS-3 FLR-4 SCH-D HPLCMT-WEST ZN,1875.00,93.8,18756.814,10.004,200.000,0.000,0.500,0.000,0.500,General,937.841,16881.133
 ElectricEquipment Internal Gains Nominal, SP-LABORATORY - OTHER-SPACE FUNCTION SYS-3 FLR-4 SCH-A HPLCMT-EAST ZN SPACE FUNCTION LABORATORY - OTHER ELEC EQUIP,NECB-A-ELECTRIC-EQUIPMENT,SP-LABORATORY - OTHER-SPACE FUNCTION SYS-3 FLR-4 SCH-A HPLCMT-EAST ZN,1875.00,93.8,18756.814,10.004,200.000,0.000,0.500,0.000,0.500,General,3751.363,16881.133
 ElectricEquipment Internal Gains Nominal, SP-LAUNDRY/WASHING AREA-SPACE FUNCTION SYS-3 FLR-3 SCH-C HPLCMT-CORE ZN SPACE FUNCTION LAUNDRY/WASHING AREA ELEC EQUIP,NECB-C-ELECTRIC-EQUIPMENT,SP-LAUNDRY/WASHING AREA-SPACE FUNCTION SYS-3 FLR-3 SCH-C HPLCMT-CORE ZN,2500.00,125.0,50018.171,20.007,400.000,0.000,0.500,0.000,0.500,General,2500.909,45016.354
 ElectricEquipment Internal Gains Nominal, SP-LOBBY - ELEVATOR-SPACE FUNCTION SYS-3 FLR-4 SCH-C HPLCMT-SOUTH ZN SPACE FUNCTION LOBBY - ELEVATOR ELEC EQUIP,NECB-C-ELECTRIC-EQUIPMENT,SP-LOBBY - ELEVATOR-SPACE FUNCTION SYS-3 FLR-4 SCH-C HPLCMT-SOUTH ZN,1875.00,187.6,1875.681,1.000,10.000,0.000,0.500,0.000,0.500,General,93.784,1688.113
 ElectricEquipment Internal Gains Nominal, SP-LOBBY - HOTEL-SPACE FUNCTION SYS-3 FLR-3 SCH-H HPLCMT-EAST ZN SPACE FUNCTION LOBBY - HOTEL ELEC EQUIP,NECB-H-ELECTRIC-EQUIPMENT,SP-LOBBY - HOTEL-SPACE FUNCTION SYS-3 FLR-3 SCH-H HPLCMT-EAST ZN,1875.00,187.6,4689.204,2.501,25.000,0.000,0.500,0.000,0.500,General,4220.283,4220.283
 ElectricEquipment Internal Gains Nominal, SP-LOBBY - MOTION PICTURE THEATRE-SPACE FUNCTION SYS-3 FLR-1 SCH-C HPLCMT-WEST ZN SPACE FUNCTION LOBBY - MOTION PICTURE THEATRE ELEC EQUIP,NECB-C-ELECTRIC-EQUIPMENT,SP-LOBBY - MOTION PICTURE THEATRE-SPACE FUNCTION SYS-3 FLR-1 SCH-C HPLCMT-WEST ZN,1875.00,187.6,1875.681,1.000,10.000,0.000,0.500,0.000,0.500,General,93.784,1688.113
 ElectricEquipment Internal Gains Nominal, SP-LOBBY - OTHER-SPACE FUNCTION SYS-3 FLR-1 SCH-C HPLCMT-CORE ZN SPACE FUNCTION LOBBY - OTHER ELEC EQUIP,NECB-C-ELECTRIC-EQUIPMENT,SP-LOBBY - OTHER-SPACE FUNCTION SYS-3 FLR-1 SCH-C HPLCMT-CORE ZN,2500.00,250.1,2500.909,1.000,10.000,0.000,0.500,0.000,0.500,General,125.045,2250.818
 ElectricEquipment Internal Gains Nominal, SP-LOBBY - PERFORMING ARTS THEATRE-SPACE FUNCTION SYS-3 FLR-1 SCH-C HPLCMT-SOUTH ZN SPACE FUNCTION LOBBY - PERFORMING ARTS THEATRE ELEC EQUIP,NECB-C-ELECTRIC-EQUIPMENT,SP-LOBBY - PERFORMING ARTS THEATRE-SPACE FUNCTION SYS-3 FLR-1 SCH-C HPLCMT-SOUTH ZN,1875.00,187.6,1875.681,1.000,10.000,0.000,0.500,0.000,0.500,General,93.784,1688.113
 ElectricEquipment Internal Gains Nominal, SP-LOBBY - SPACE DESIGNED TO ANSI/IES RP-28 (USED PRIMARILY BY RESIDENTS)-SPACE FUNCTION SYS-3 FLR-1 SCH-B HPLCMT-EAST ZN SPACE FUNCTION LOBBY - SPACE DESIGNED TO ANSI/IES RP-28 (USED PRIMARILY BY RESIDENTS) ELEC EQUIP,NECB-B-ELECTRIC-EQUIPMENT,SP-LOBBY - SPACE DESIGNED TO ANSI/IES RP-28 (USED PRIMARILY BY RESIDENTS)-SPACE FUNCTION SYS-3 FLR-1 SCH-B HPLCMT-EAST ZN,1875.00,187.6,4689.204,2.501,25.000,0.000,0.500,0.000,0.500,General,468.920,4220.283
 ElectricEquipment Internal Gains Nominal, SP-LOCKER ROOM-SCH-A-SPACE FUNCTION SYS-6 FLR-3 SCH-A HPLCMT-NORTH ZN SPACE FUNCTION LOCKER ROOM-SCH-A ELEC EQUIP,NECB-A-ELECTRIC-EQUIPMENT,SP-LOCKER ROOM-SCH-A-SPACE FUNCTION SYS-6 FLR-3 SCH-A HPLCMT-NORTH ZN,1875.00,187.6,4689.204,2.501,25.000,0.000,0.500,0.000,0.500,General,937.841,4220.283
 ElectricEquipment Internal Gains Nominal, SP-LOCKER ROOM-SCH-B-SPACE FUNCTION SYS-6 FLR-1 SCH-B HPLCMT-NORTH ZN SPACE FUNCTION LOCKER ROOM-SCH-B ELEC EQUIP,NECB-B-ELECTRIC-EQUIPMENT,SP-LOCKER ROOM-SCH-B-SPACE FUNCTION SYS-6 FLR-1 SCH-B HPLCMT-NORTH ZN,1875.00,187.6,4689.204,2.501,25.000,0.000,0.500,0.000,0.500,General,468.920,4220.283
 ElectricEquipment Internal Gains Nominal, SP-LOCKER ROOM-SCH-C-SPACE FUNCTION SYS-6 FLR-2 SCH-C HPLCMT-WEST ZN SPACE FUNCTION LOCKER ROOM-SCH-C ELEC EQUIP,NECB-C-ELECTRIC-EQUIPMENT,SP-LOCKER ROOM-SCH-C-SPACE FUNCTION SYS-6 FLR-2 SCH-C HPLCMT-WEST ZN,1875.00,187.6,4689.204,2.501,25.000,0.000,0.500,0.000,0.500,General,234.460,4220.283
 ElectricEquipment Internal Gains Nominal, SP-LOCKER ROOM-SCH-D-SPACE FUNCTION SYS-6 FLR-2 SCH-D HPLCMT-NORTH ZN SPACE FUNCTION LOCKER ROOM-SCH-D ELEC EQUIP,NECB-D-ELECTRIC-EQUIPMENT,SP-LOCKER ROOM-SCH-D-SPACE FUNCTION SYS-6 FLR-2 SCH-D HPLCMT-NORTH ZN,1875.00,187.6,4689.204,2.501,25.000,0.000,0.500,0.000,0.500,General,234.460,4220.283
 ElectricEquipment Internal Gains Nominal, SP-LOCKER ROOM-SCH-E-SPACE FUNCTION SYS-6 FLR-4 SCH-E HPLCMT-CORE ZN SPACE FUNCTION LOCKER ROOM-SCH-E ELEC EQUIP,NECB-E-ELECTRIC-EQUIPMENT,SP-LOCKER ROOM-SCH-E-SPACE FUNCTION SYS-6 FLR-4 SCH-E HPLCMT-CORE ZN,2500.00,250.1,6252.271,2.501,25.000,0.000,0.500,0.000,0.500,General,312.614,5627.044
 ElectricEquipment Internal Gains Nominal, SP-LOCKER ROOM-SCH-F-SPACE FUNCTION SYS-6 FLR-3 SCH-F HPLCMT-WEST ZN SPACE FUNCTION LOCKER ROOM-SCH-F ELEC EQUIP,NECB-F-ELECTRIC-EQUIPMENT,SP-LOCKER ROOM-SCH-F-SPACE FUNCTION SYS-6 FLR-3 SCH-F HPLCMT-WEST ZN,1875.00,187.6,4689.204,2.501,25.000,0.000,0.500,0.000,0.500,General,328.244,2954.198
 ElectricEquipment Internal Gains Nominal, SP-LOCKER ROOM-SCH-G-SPACE FUNCTION SYS-6 FLR-2 SCH-G HPLCMT-EAST ZN SPACE FUNCTION LOCKER ROOM-SCH-G ELEC EQUIP,NECB-G-ELECTRIC-EQUIPMENT,SP-LOCKER ROOM-SCH-G-SPACE FUNCTION SYS-6 FLR-2 SCH-G HPLCMT-EAST ZN,1875.00,187.6,4689.204,2.501,25.000,0.000,0.500,0.000,0.500,General,937.841,4220.283
 ElectricEquipment Internal Gains Nominal, SP-LOCKER ROOM-SCH-H-SPACE FUNCTION SYS-6 FLR-2 SCH-H HPLCMT-SOUTH ZN SPACE FUNCTION LOCKER ROOM-SCH-H ELEC EQUIP,NECB-H-ELECTRIC-EQUIPMENT,SP-LOCKER ROOM-SCH-H-SPACE FUNCTION SYS-6 FLR-2 SCH-H HPLCMT-SOUTH ZN,1875.00,187.6,4689.204,2.501,25.000,0.000,0.500,0.000,0.500,General,4220.283,4220.283
 ElectricEquipment Internal Gains Nominal, SP-LOCKER ROOM-SCH-I-SPACE FUNCTION SYS-6 FLR-2 SCH-I HPLCMT-CORE ZN SPACE FUNCTION LOCKER ROOM-SCH-I ELEC EQUIP,NECB-I-ELECTRIC-EQUIPMENT,SP-LOCKER ROOM-SCH-I-SPACE FUNCTION SYS-6 FLR-2 SCH-I HPLCMT-CORE ZN,2500.00,250.1,6252.271,2.501,25.000,0.000,0.500,0.000,0.500,General,625.227,5001.817
! <Shadowing/Sun Position Calculations Annual Simulations>, Calculation Method, Value {days}, Allowable Number Figures in Shadow Overlap {}, Polygon Clipping Algorithm, Sky Diffuse Modeling Algorithm, External Shading Calculation Method, Output External Shading Calculation Results, Disable Self-Shading Within Shading Zone Groups, Disable Self-Shading From Shading Zone Groups to Other Zones
Shadowing/Sun Position Calculations Annual Simulations,AverageOverDaysInFrequency,20,15000,SutherlandHodgman,SimpleSkyDiffuseModeling,InternalCalculation,No,No,No
! <Water Heater Information>,Type,Name,Volume {m3},Maximum Capacity {W},Standard Rated Recovery Efficiency, Standard Rated Energy Factor
! <ZoneInfiltration Airflow Stats Nominal>,Name,Schedule Name,Zone Name, Zone Floor Area {m2}, # Zone Occupants,Design Volume Flow Rate {m3/s},Volume Flow Rate/Floor Area {m3/s/m2},Volume Flow Rate/Exterior Surface Area {m3/s/m2},ACH - Air Changes per Hour,Equation A - Constant Term Coefficient {},Equation B - Temperature Term Coefficient {1/C},Equation C - Velocity Term Coefficient {s/m}, Equation D - Velocity Squared Term Coefficient {s2/m2}
 ZoneInfiltration Airflow Stats Nominal, GUEST ROOM-SPACE FUNCTION INFILTRATION,ALWAYS ON DISCRETE,SP-GUEST ROOM-SPACE FUNCTION SYS-1 FLR-4 SCH-F HPLCMT-NORTH ZN,1875.00,75.0,0.564,3.007E-004,2.500E-004,0.285,0.000,0.000,0.224,0.000
 ZoneInfiltration Airflow Stats Nominal, LABORATORY - CLASSROOMS-SPACE FUNCTION INFILTRATION,ALWAYS ON DISCRETE,SP-LABORATORY - CLASSROOMS-SPACE FUNCTION SYS-3 FLR-4 SCH-D HPLCMT-WEST ZN,1875.00,93.8,0.564,3.007E-004,2.500E-004,0.285,0.000,0.000,0.224,0.000
 ZoneInfiltration Airflow Stats Nominal, LABORATORY - OTHER-SPACE FUNCTION INFILTRATION,ALWAYS ON DISCRETE,SP-LABORATORY - OTHER-SPACE FUNCTION SYS-3 FLR-4 SCH-A HPLCMT-EAST ZN,1875.00,93.8,0.564,3.007E-004,2.500E-004,0.285,0.000,0.000,0.224,0.000
 ZoneInfiltration Airflow Stats Nominal, LOADING DOCK INTERIOR-SPACE FUNCTION INFILTRATION,ALWAYS ON DISCRETE,SP-LOADING DOCK INTERIOR-SPACE FUNCTION SYS-4 FLR-3 SCH-H HPLCMT-SOUTH ZN,1875.00,3.8,9.500E-002,5.067E-005,2.500E-004,4.800E-002,0.000,0.000,0.224,0.000
 ZoneInfiltration Airflow Stats Nominal, LOBBY - ELEVATOR-SPACE FUNCTION INFILTRATION,ALWAYS ON DISCRETE,SP-LOBBY - ELEVATOR-SPACE FUNCTION SYS-3 FLR-4 SCH-C HPLCMT-SOUTH ZN,1875.00,187.6,0.564,3.007E-004,2.500E-004,0.285,0.000,0.000,0.224,0.000
 ZoneInfiltration Airflow Stats Nominal, LOBBY - HOTEL-SPACE FUNCTION INFILTRATION,ALWAYS ON DISCRETE,SP-LOBBY - HOTEL-SPACE FUNCTION SYS-3 FLR-3 SCH-H HPLCMT-EAST ZN,1875.00,187.6,9.500E-002,5.067E-005,2.500E-004,4.800E-002,0.000,0.000,0.224,0.000
 ZoneInfiltration Airflow Stats Nominal, LOCKER ROOM-SCH-A-SPACE FUNCTION INFILTRATION,ALWAYS ON DISCRETE,SP-LOCKER ROOM-SCH-A-SPACE FUNCTION SYS-6 FLR-3 SCH-A HPLCMT-NORTH ZN,1875.00,187.6,9.500E-002,5.067E-005,2.500E-004,4.800E-002,0.000,0.000,0.224,0.000
 ZoneInfiltration Airflow Stats Nominal, LOCKER ROOM-SCH-C-SPACE FUNCTION INFILTRATION,ALWAYS ON DISCRETE,SP-LOCKER ROOM-SCH-C-SPACE FUNCTION SYS-6 FLR-2 SCH-C HPLCMT-WEST ZN,1875.00,187.6,9.500E-002,5.067E-005,2.500E-004,4.800E-002,0.000,0.000,0.224,0.000
 ZoneInfiltration Airflow Stats Nominal, LOCKER ROOM-SCH-D-SPACE FUNCTION INFILTRATION,ALWAYS ON DISCRETE,SP-LOCKER ROOM-SCH-D-SPACE FUNCTION SYS-6 FLR-2 SCH-D HPLCMT-NORTH ZN,1875.00,187.6,9.500E-002,5.067E-005,2.500E-004,4.800E-002,0.000,0.000,0.224,0.000
 ZoneInfiltration Airflow Stats Nominal, LOCKER ROOM-SCH-E-SPACE FUNCTION INFILTRATION,ALWAYS ON DISCRETE,SP-LOCKER ROOM-SCH-E-SPACE FUNCTION SYS-6 FLR-4 SCH-E HPLCMT-CORE ZN,2500.00,250.1,0.625,2.500E-004,2.500E-004,0.237,0.000,0.000,0.224,0.000
 ZoneInfiltration Airflow Stats Nominal, LOCKER ROOM-SCH-F-SPACE FUNCTION INFILTRATION,ALWAYS ON DISCRETE,SP-LOCKER ROOM-SCH-F-SPACE FUNCTION SYS-6 FLR-3 SCH-F HPLCMT-WEST ZN,1875.00,187.6,9.500E-002,5.067E-005,2.500E-004,4.800E-002,0.000,0.000,0.224,0.000
 ZoneInfiltration Airflow Stats Nominal, LOCKER ROOM-SCH-G-SPACE FUNCTION INFILTRATION,ALWAYS ON DISCRETE,SP-LOCKER ROOM-SCH-G-SPACE FUNCTION SYS-6 FLR-2 SCH-G HPLCMT-EAST ZN,1875.00,187.6,9.500E-002,5.067E-005,2.500E-004,4.800E-002,0.000,0.000,0.224,0.000
 ZoneInfiltration Airflow Stats Nominal, LOCKER ROOM-SCH-H-SPACE FUNCTION INFILTRATION,ALWAYS ON DISCRETE,SP-LOCKER ROOM-SCH-H-SPACE FUNCTION SYS-6 FLR-2 SCH-H HPLCMT-SOUTH ZN,1875.00,187.6,9.500E-002,5.067E-005,2.500E-004,4.800E-002,0.000,0.000,0.224,0.000
! <AirFlow Model>, Simple
 AirFlow Model, Simple
! <RoomAir Model>, Zone Name, Mixing/Mundt/UCSDDV/UCSDCV/UCSDUFI/UCSDUFE/User Defined
RoomAir Model,SP-GUEST ROOM-SPACE FUNCTION SYS-1 FLR-4 SCH-F HPLCMT-NORTH ZN,Mixing/Well-Stirred
RoomAir Model,SP-LABORATORY - CLASSROOMS-SPACE FUNCTION SYS-3 FLR-4 SCH-D HPLCMT-WEST ZN,Mixing/Well-Stirred
RoomAir Model,SP-LABORATORY - OTHER-SPACE FUNCTION SYS-3 FLR-4 SCH-A HPLCMT-EAST ZN,Mixing/Well-Stirred
RoomAir Model,SP-LAUNDRY/WASHING AREA-SPACE FUNCTION SYS-3 FLR-3 SCH-C HPLCMT-CORE ZN,Mixing/Well-Stirred
RoomAir Model,SP-LOADING DOCK INTERIOR-SPACE FUNCTION SYS-4 FLR-3 SCH-H HPLCMT-SOUTH ZN,Mixing/Well-Stirred
RoomAir Model,SP-LOBBY - ELEVATOR-SPACE FUNCTION SYS-3 FLR-4 SCH-C HPLCMT-SOUTH ZN,Mixing/Well-Stirred
RoomAir Model,SP-LOBBY - HOTEL-SPACE FUNCTION SYS-3 FLR-3 SCH-H HPLCMT-EAST ZN,Mixing/Well-Stirred
RoomAir Model,SP-LOBBY - MOTION PICTURE THEATRE-SPACE FUNCTION SYS-3 FLR-1 SCH-C HPLCMT-WEST ZN,Mixing/Well-Stirred
RoomAir Model,SP-LOBBY - OTHER-SPACE FUNCTION SYS-3 FLR-1 SCH-C HPLCMT-CORE ZN,Mixing/Well-Stirred
RoomAir Model,SP-LOBBY - PERFORMING ARTS THEATRE-SPACE FUNCTION SYS-3 FLR-1 SCH-C HPLCMT-SOUTH ZN,Mixing/Well-Stirred
RoomAir Model,SP-LOBBY - SPACE DESIGNED TO ANSI/IES RP-28 (USED PRIMARILY BY RESIDENTS)-SPACE FUNCTION SYS-3 FLR-1 SCH-B HPLCMT-EAST ZN,Mixing/Well-Stirred
RoomAir Model,SP-LOCKER ROOM-SCH-A-SPACE FUNCTION SYS-6 FLR-3 SCH-A HPLCMT-NORTH ZN,Mixing/Well-Stirred
RoomAir Model,SP-LOCKER ROOM-SCH-B-SPACE FUNCTION SYS-6 FLR-1 SCH-B HPLCMT-NORTH ZN,Mixing/Well-Stirred
RoomAir Model,SP-LOCKER ROOM-SCH-C-SPACE FUNCTION SYS-6 FLR-2 SCH-C HPLCMT-WEST ZN,Mixing/Well-Stirred
RoomAir Model,SP-LOCKER ROOM-SCH-D-SPACE FUNCTION SYS-6 FLR-2 SCH-D HPLCMT-NORTH ZN,Mixing/Well-Stirred
RoomAir Model,SP-LOCKER ROOM-SCH-E-SPACE FUNCTION SYS-6 FLR-4 SCH-E HPLCMT-CORE ZN,Mixing/Well-Stirred
RoomAir Model,SP-LOCKER ROOM-SCH-F-SPACE FUNCTION SYS-6 FLR-3 SCH-F HPLCMT-WEST ZN,Mixing/Well-Stirred
RoomAir Model,SP-LOCKER ROOM-SCH-G-SPACE FUNCTION SYS-6 FLR-2 SCH-G HPLCMT-EAST ZN,Mixing/Well-Stirred
RoomAir Model,SP-LOCKER ROOM-SCH-H-SPACE FUNCTION SYS-6 FLR-2 SCH-H HPLCMT-SOUTH ZN,Mixing/Well-Stirred
RoomAir Model,SP-LOCKER ROOM-SCH-I-SPACE FUNCTION SYS-6 FLR-2 SCH-I HPLCMT-CORE ZN,Mixing/Well-Stirred
! <AirflowNetwork Model:Control>, No Multizone or Distribution/Multizone with Distribution/Multizone without Distribution/Multizone with Distribution only during Fan Operation
AirflowNetwork Model:Control,NoMultizoneOrDistribution
! <Zone Volume Capacitance Multiplier>, Sensible Heat Capacity Multiplier, Moisture Capacity Multiplier, Carbon Dioxide Capacity Multiplier, Generic Contaminant Capacity Multiplier
Zone Volume Capacitance Multiplier,   1.000 ,   1.000,   1.000,   1.000
! <Load Timesteps in Zone Design Calculation Averaging Window>, Value
 Load Timesteps in Zone Design Calculation Averaging Window,    6
! <Heating Sizing Factor Information>, Sizing Factor ID, Value
 Heating Sizing Factor Information, Global,   1.3000    
 Heating Sizing Factor Information, Zone SP-GUEST ROOM-SPACE FUNCTION SYS-1 FLR-4 SCH-F HPLCMT-NORTH ZN,   1.3000    
 Heating Sizing Factor Information, Zone SP-LABORATORY - CLASSROOMS-SPACE FUNCTION SYS-3 FLR-4 SCH-D HPLCMT-WEST ZN,   1.3000    
 Heating Sizing Factor Information, Zone SP-LABORATORY - OTHER-SPACE FUNCTION SYS-3 FLR-4 SCH-A HPLCMT-EAST ZN,   1.3000    
 Heating Sizing Factor Information, Zone SP-LAUNDRY/WASHING AREA-SPACE FUNCTION SYS-3 FLR-3 SCH-C HPLCMT-CORE ZN,   1.3000    
 Heating Sizing Factor Information, Zone SP-LOADING DOCK INTERIOR-SPACE FUNCTION SYS-4 FLR-3 SCH-H HPLCMT-SOUTH ZN,   1.3000    
 Heating Sizing Factor Information, Zone SP-LOBBY - ELEVATOR-SPACE FUNCTION SYS-3 FLR-4 SCH-C HPLCMT-SOUTH ZN,   1.3000    
 Heating Sizing Factor Information, Zone SP-LOBBY - HOTEL-SPACE FUNCTION SYS-3 FLR-3 SCH-H HPLCMT-EAST ZN,   1.3000    
 Heating Sizing Factor Information, Zone SP-LOBBY - MOTION PICTURE THEATRE-SPACE FUNCTION SYS-3 FLR-1 SCH-C HPLCMT-WEST ZN,   1.3000    
 Heating Sizing Factor Information, Zone SP-LOBBY - OTHER-SPACE FUNCTION SYS-3 FLR-1 SCH-C HPLCMT-CORE ZN,   1.3000    
 Heating Sizing Factor Information, Zone SP-LOBBY - PERFORMING ARTS THEATRE-SPACE FUNCTION SYS-3 FLR-1 SCH-C HPLCMT-SOUTH ZN,   1.3000    
 Heating Sizing Factor Information, Zone SP-LOBBY - SPACE DESIGNED TO ANSI/IES RP-28 (USED PRIMARILY BY RESIDENTS)-SPACE FUNCTION SYS-3 FLR-1 SCH-B HPLCMT-EAST ZN,   1.3000    
 Heating Sizing Factor Information, Zone SP-LOCKER ROOM-SCH-A-SPACE FUNCTION SYS-6 FLR-3 SCH-A HPLCMT-NORTH ZN,   1.3000    
 Heating Sizing Factor Information, Zone SP-LOCKER ROOM-SCH-B-SPACE FUNCTION SYS-6 FLR-1 SCH-B HPLCMT-NORTH ZN,   1.3000    
 Heating Sizing Factor Information, Zone SP-LOCKER ROOM-SCH-C-SPACE FUNCTION SYS-6 FLR-2 SCH-C HPLCMT-WEST ZN,   1.3000    
 Heating Sizing Factor Information, Zone SP-LOCKER ROOM-SCH-D-SPACE FUNCTION SYS-6 FLR-2 SCH-D HPLCMT-NORTH ZN,   1.3000    
 Heating Sizing Factor Information, Zone SP-LOCKER ROOM-SCH-E-SPACE FUNCTION SYS-6 FLR-4 SCH-E HPLCMT-CORE ZN,   1.3000    
 Heating Sizing Factor Information, Zone SP-LOCKER ROOM-SCH-F-SPACE FUNCTION SYS-6 FLR-3 SCH-F HPLCMT-WEST ZN,   1.3000    
 Heating Sizing Factor Information, Zone SP-LOCKER ROOM-SCH-G-SPACE FUNCTION SYS-6 FLR-2 SCH-G HPLCMT-EAST ZN,   1.3000    
 Heating Sizing Factor Information, Zone SP-LOCKER ROOM-SCH-H-SPACE FUNCTION SYS-6 FLR-2 SCH-H HPLCMT-SOUTH ZN,   1.3000    
 Heating Sizing Factor Information, Zone SP-LOCKER ROOM-SCH-I-SPACE FUNCTION SYS-6 FLR-2 SCH-I HPLCMT-CORE ZN,   1.3000    
! <Cooling Sizing Factor Information>, Sizing Factor ID, Value
 Cooling Sizing Factor Information, Global,   1.1000    
 Cooling Sizing Factor Information, Zone SP-GUEST ROOM-SPACE FUNCTION SYS-1 FLR-4 SCH-F HPLCMT-NORTH ZN,   1.1000    
 Cooling Sizing Factor Information, Zone SP-LABORATORY - CLASSROOMS-SPACE FUNCTION SYS-3 FLR-4 SCH-D HPLCMT-WEST ZN,   1.1000    
 Cooling Sizing Factor Information, Zone SP-LABORATORY - OTHER-SPACE FUNCTION SYS-3 FLR-4 SCH-A HPLCMT-EAST ZN,   1.1000    
 Cooling Sizing Factor Information, Zone SP-LAUNDRY/WASHING AREA-SPACE FUNCTION SYS-3 FLR-3 SCH-C HPLCMT-CORE ZN,   1.1000    
 Cooling Sizing Factor Information, Zone SP-LOADING DOCK INTERIOR-SPACE FUNCTION SYS-4 FLR-3 SCH-H HPLCMT-SOUTH ZN,   1.1000    
 Cooling Sizing Factor Information, Zone SP-LOBBY - ELEVATOR-SPACE FUNCTION SYS-3 FLR-4 SCH-C HPLCMT-SOUTH ZN,   1.1000    
 Cooling Sizing Factor Information, Zone SP-LOBBY - HOTEL-SPACE FUNCTION SYS-3 FLR-3 SCH-H HPLCMT-EAST ZN,   1.1000    
 Cooling Sizing Factor Information, Zone SP-LOBBY - MOTION PICTURE THEATRE-SPACE FUNCTION SYS-3 FLR-1 SCH-C HPLCMT-WEST ZN,   1.1000    
 Cooling Sizing Factor Information, Zone SP-LOBBY - OTHER-SPACE FUNCTION SYS-3 FLR-1 SCH-C HPLCMT-CORE ZN,   1.1000    
 Cooling Sizing Factor Information, Zone SP-LOBBY - PERFORMING ARTS THEATRE-SPACE FUNCTION SYS-3 FLR-1 SCH-C HPLCMT-SOUTH ZN,   1.1000    
 Cooling Sizing Factor Information, Zone SP-LOBBY - SPACE DESIGNED TO ANSI/IES RP-28 (USED PRIMARILY BY RESIDENTS)-SPACE FUNCTION SYS-3 FLR-1 SCH-B HPLCMT-EAST ZN,   1.1000    
 Cooling Sizing Factor Information, Zone SP-LOCKER ROOM-SCH-A-SPACE FUNCTION SYS-6 FLR-3 SCH-A HPLCMT-NORTH ZN,   1.1000    
 Cooling Sizing Factor Information, Zone SP-LOCKER ROOM-SCH-B-SPACE FUNCTION SYS-6 FLR-1 SCH-B HPLCMT-NORTH ZN,   1.1000    
 Cooling Sizing Factor Information, Zone SP-LOCKER ROOM-SCH-C-SPACE FUNCTION SYS-6 FLR-2 SCH-C HPLCMT-WEST ZN,   1.1000    
 Cooling Sizing Factor Information, Zone SP-LOCKER ROOM-SCH-D-SPACE FUNCTION SYS-6 FLR-2 SCH-D HPLCMT-NORTH ZN,   1.1000    
 Cooling Sizing Factor Information, Zone SP-LOCKER ROOM-SCH-E-SPACE FUNCTION SYS-6 FLR-4 SCH-E HPLCMT-CORE ZN,   1.1000    
 Cooling Sizing Factor Information, Zone SP-LOCKER ROOM-SCH-F-SPACE FUNCTION SYS-6 FLR-3 SCH-F HPLCMT-WEST ZN,   1.1000    
 Cooling Sizing Factor Information, Zone SP-LOCKER ROOM-SCH-G-SPACE FUNCTION SYS-6 FLR-2 SCH-G HPLCMT-EAST ZN,   1.1000    
 Cooling Sizing Factor Information, Zone SP-LOCKER ROOM-SCH-H-SPACE FUNCTION SYS-6 FLR-2 SCH-H HPLCMT-SOUTH ZN,   1.1000    
 Cooling Sizing Factor Information, Zone SP-LOCKER ROOM-SCH-I-SPACE FUNCTION SYS-6 FLR-2 SCH-I HPLCMT-CORE ZN,   1.1000    
! <Zone Sizing Information>, Zone Name, Load Type, Calc Des Load {W}, User Des Load {W}, Calc Des Air Flow Rate {m3/s}, User Des Air Flow Rate {m3/s}, Design Day Name, Date/Time of Peak, Temperature at Peak {C}, Humidity Ratio at Peak {kgWater/kgDryAir}, Floor Area {m2}, # Occupants, Calc Outdoor Air Flow Rate {m3/s}, Calc DOAS Heat Addition Rate {W}
 Zone Sizing Information, SP-GUEST ROOM-SPACE FUNCTION SYS-1 FLR-4 SCH-F HPLCMT-NORTH ZN, Cooling, 46722.02216, 51394.22437, 3.61086, 3.97194, FORT MCMURRAY AP ANN CLG .4% CONDNS DB=>MWB, 7/21 13:40:00, 28.69333, 8.76969E-003, 1875.00000, 75.02726, 1.04775, 0.00000
 Zone Sizing Information, SP-GUEST ROOM-SPACE FUNCTION SYS-1 FLR-4 SCH-F HPLCMT-NORTH ZN, Heating, 49559.30871, 64427.10133, 1.97606, 2.56888, FORT MCMURRAY AP ANN HTG 99.6% CONDNS DB, 1/21 09:00:00, -36.20000, 1.25811E-004, 1875.00000, 75.02726, 1.04775, 0.00000
 Zone Sizing Information, SP-LABORATORY - CLASSROOMS-SPACE FUNCTION SYS-3 FLR-4 SCH-D HPLCMT-WEST ZN, Cooling, 92884.32111, 102172.75322, 7.17901, 7.89691, FORT MCMURRAY AP ANN CLG .4% CONDNS DB=>MWB, 7/21 16:00:00, 28.15600, 8.76969E-003, 1875.00000, 93.78407, 4.09575, 0.00000
 Zone Sizing Information, SP-LABORATORY - CLASSROOMS-SPACE FUNCTION SYS-3 FLR-4 SCH-D HPLCMT-WEST ZN, Heating, 46469.47002, 60410.31102, 1.75888, 4.09575, FORT MCMURRAY AP ANN HTG 99.6% CONDNS DB, 1/21 08:20:00, -36.20000, 1.25811E-004, 1875.00000, 93.78407, 4.09575, 0.00000
 Zone Sizing Information, SP-LABORATORY - OTHER-SPACE FUNCTION SYS-3 FLR-4 SCH-A HPLCMT-EAST ZN, Cooling, 96282.72153, 105910.99369, 7.44173, 8.18590, FORT MCMURRAY AP ANN CLG .4% CONDNS DB=>MWB, 7/21 10:30:00, 25.11800, 8.76969E-003, 1875.00000, 93.78407, 4.09575, 0.00000
 Zone Sizing Information, SP-LABORATORY - OTHER-SPACE FUNCTION SYS-3 FLR-4 SCH-A HPLCMT-EAST ZN, Heating, 36968.49939, 48059.04920, 1.46681, 4.09575, FORT MCMURRAY AP ANN HTG 99.6% CONDNS DB, 1/21 08:00:00, -36.20000, 1.25811E-004, 1875.00000, 93.78407, 4.09575, 0.00000
 Zone Sizing Information, SP-LAUNDRY/WASHING AREA-SPACE FUNCTION SYS-3 FLR-3 SCH-C HPLCMT-CORE ZN, Cooling, 63543.46564, 69897.81221, 4.91125, 5.40238, FORT MCMURRAY AP ANN CLG .4% CONDNS DB=>MWB, 7/21 17:00:00, 27.16400, 8.76969E-003, 2500.00000, 125.04543, 2.12090, 0.00000
 Zone Sizing Information, SP-LAUNDRY/WASHING AREA-SPACE FUNCTION SYS-3 FLR-3 SCH-C HPLCMT-CORE ZN, Heating, 0.00000, 0.00000, 0.00000, 2.12090, FORT MCMURRAY AP ANN HTG 99.6% CONDNS DB, , -36.20000, 1.25811E-004, 2500.00000, 125.04543, 2.12090, 0.00000
 Zone Sizing Information, SP-LOADING DOCK INTERIOR-SPACE FUNCTION SYS-4 FLR-3 SCH-H HPLCMT-SOUTH ZN, Cooling, 31385.96786, 34524.56465, 2.42560, 2.66816, FORT MCMURRAY AP ANN CLG .4% CONDNS DB=>MWB, 7/21 14:20:00, 28.90000, 8.76969E-003, 1875.00000, 3.75136, 1.33350, 0.00000
 Zone Sizing Information, SP-LOADING DOCK INTERIOR-SPACE FUNCTION SYS-4 FLR-3 SCH-H HPLCMT-SOUTH ZN, Heating, 16395.08463, 21313.61002, 0.64389, 1.33350, FORT MCMURRAY AP ANN HTG 99.6% CONDNS DB, 1/21 09:00:00, -36.20000, 1.25811E-004, 1875.00000, 3.75136, 1.33350, 0.00000
 Zone Sizing Information, SP-LOBBY - ELEVATOR-SPACE FUNCTION SYS-3 FLR-4 SCH-C HPLCMT-SOUTH ZN, Cooling, 78723.69232, 86596.06155, 6.08489, 7.59143, FORT MCMURRAY AP ANN CLG .4% CONDNS DB=>MWB, 7/21 13:30:00, 28.59000, 8.76969E-003, 1875.00000, 187.56814, 7.59143, 0.00000
 Zone Sizing Information, SP-LOBBY - ELEVATOR-SPACE FUNCTION SYS-3 FLR-4 SCH-C HPLCMT-SOUTH ZN, Heating, 47073.10869, 61195.04129, 1.87551, 7.59143, FORT MCMURRAY AP ANN HTG 99.6% CONDNS DB, 1/21 09:00:00, -36.20000, 1.25811E-004, 1875.00000, 187.56814, 7.59143, 0.00000
 Zone Sizing Information, SP-LOBBY - HOTEL-SPACE FUNCTION SYS-3 FLR-3 SCH-H HPLCMT-EAST ZN, Cooling, 53136.09561, 58449.70518, 4.10739, 4.51813, FORT MCMURRAY AP ANN CLG .4% CONDNS DB=>MWB, 7/21 09:50:00, 23.83667, 8.76969E-003, 1875.00000, 187.56814, 2.69558, 0.00000
 Zone Sizing Information, SP-LOBBY - HOTEL-SPACE FUNCTION SYS-3 FLR-3 SCH-H HPLCMT-EAST ZN, Heating, 0.00000, 0.00000, 0.00000, 2.69558, FORT MCMURRAY AP ANN HTG 99.6% CONDNS DB, , -36.20000, 1.25811E-004, 1875.00000, 187.56814, 2.69558, 0.00000
 Zone Sizing Information, SP-LOBBY - MOTION PICTURE THEATRE-SPACE FUNCTION SYS-3 FLR-1 SCH-C HPLCMT-WEST ZN, Cooling, 21512.47697, 23663.72467, 1.66286, 7.71525, FORT MCMURRAY AP ANN CLG .4% CONDNS DB=>MWB, 7/21 17:00:00, 27.16400, 8.76969E-003, 1875.00000, 187.56814, 7.71525, 0.00000
 Zone Sizing Information, SP-LOBBY - MOTION PICTURE THEATRE-SPACE FUNCTION SYS-3 FLR-1 SCH-C HPLCMT-WEST ZN, Heating, 0.00000, 0.00000, 0.00000, 7.71525, FORT MCMURRAY AP ANN HTG 99.6% CONDNS DB, , -36.20000, 1.25811E-004, 1875.00000, 187.56814, 7.71525, 0.00000
 Zone Sizing Information, SP-LOBBY - OTHER-SPACE FUNCTION SYS-3 FLR-1 SCH-C HPLCMT-CORE ZN, Cooling, 31291.19466, 34420.31413, 2.41873, 10.28700, FORT MCMURRAY AP ANN CLG .4% CONDNS DB=>MWB, 7/21 17:00:00, 27.16400, 8.76969E-003, 2500.00000, 250.09086, 10.28700, 0.00000
 Zone Sizing Information, SP-LOBBY - OTHER-SPACE FUNCTION SYS-3 FLR-1 SCH-C HPLCMT-CORE ZN, Heating, 0.00000, 0.00000, 0.00000, 10.28700, FORT MCMURRAY AP ANN HTG 99.6% CONDNS DB, , -36.20000, 1.25811E-004, 2500.00000, 250.09086, 10.28700, 0.00000
 Zone Sizing Information, SP-LOBBY - PERFORMING ARTS THEATRE-SPACE FUNCTION SYS-3 FLR-1 SCH-C HPLCMT-SOUTH ZN, Cooling, 38501.80720, 42351.98792, 2.97607, 7.71525, FORT MCMURRAY AP ANN CLG .4% CONDNS DB=>MWB, 7/21 17:00:00, 27.16400, 8.76969E-003, 1875.00000, 187.56814, 7.71525, 0.00000
 Zone Sizing Information, SP-LOBBY - PERFORMING ARTS THEATRE-SPACE FUNCTION SYS-3 FLR-1 SCH-C HPLCMT-SOUTH ZN, Heating, 0.00000, 0.00000, 0.00000, 7.71525, FORT MCMURRAY AP ANN HTG 99.6% CONDNS DB, , -36.20000, 1.25811E-004, 1875.00000, 187.56814, 7.71525, 0.00000
 Zone Sizing Information, SP-LOBBY - SPACE DESIGNED TO ANSI/IES RP-28 (USED PRIMARILY BY RESIDENTS)-SPACE FUNCTION SYS-3 FLR-1 SCH-B HPLCMT-EAST ZN, Cooling, 38438.66012, 42282.52614, 2.97101, 7.71525, FORT MCMURRAY AP ANN CLG .4% CONDNS DB=>MWB, 7/21 22:00:00, 20.46800, 8.76969E-003, 1875.00000, 187.56814, 7.71525, 0.00000
 Zone Sizing Information, SP-LOBBY - SPACE DESIGNED TO ANSI/IES RP-28 (USED PRIMARILY BY RESIDENTS)-SPACE FUNCTION SYS-3 FLR-1 SCH-B HPLCMT-EAST ZN, Heating, 0.00000, 0.00000, 0.00000, 7.71525, FORT MCMURRAY AP ANN HTG 99.6% CONDNS DB, , -36.20000, 1.25811E-004, 1875.00000, 187.56814, 7.71525, 0.00000
 Zone Sizing Information, SP-LOCKER ROOM-SCH-A-SPACE FUNCTION SYS-6 FLR-3 SCH-A HPLCMT-NORTH ZN, Cooling, 35711.19459, 39282.31405, 2.76045, 3.03650, FORT MCMURRAY AP ANN CLG .4% CONDNS DB=>MWB, 7/21 17:00:00, 27.16400, 8.76969E-003, 1875.00000, 187.56814, 2.38125, 0.00000
 Zone Sizing Information, SP-LOCKER ROOM-SCH-A-SPACE FUNCTION SYS-6 FLR-3 SCH-A HPLCMT-NORTH ZN, Heating, 24546.74280, 31910.76564, 0.96411, 2.38125, FORT MCMURRAY AP ANN HTG 99.6% CONDNS DB, 1/21 08:00:00, -36.20000, 1.25811E-004, 1875.00000, 187.56814, 2.38125, 0.00000
 Zone Sizing Information, SP-LOCKER ROOM-SCH-B-SPACE FUNCTION SYS-6 FLR-1 SCH-B HPLCMT-NORTH ZN, Cooling, 24842.96293, 27327.25922, 1.92016, 2.38125, FORT MCMURRAY AP ANN CLG .4% CONDNS DB=>MWB, 7/21 21:50:00, 20.65400, 8.76969E-003, 1875.00000, 187.56814, 2.38125, 0.00000
 Zone Sizing Information, SP-LOCKER ROOM-SCH-B-SPACE FUNCTION SYS-6 FLR-1 SCH-B HPLCMT-NORTH ZN, Heating, 0.00000, 0.00000, 0.00000, 2.38125, FORT MCMURRAY AP ANN HTG 99.6% CONDNS DB, , -36.20000, 1.25811E-004, 1875.00000, 187.56814, 2.38125, 0.00000
 Zone Sizing Information, SP-LOCKER ROOM-SCH-C-SPACE FUNCTION SYS-6 FLR-2 SCH-C HPLCMT-WEST ZN, Cooling, 42465.87776, 46712.46554, 3.28250, 3.61075, FORT MCMURRAY AP ANN CLG .4% CONDNS DB=>MWB, 7/21 17:50:00, 26.13067, 8.76969E-003, 1875.00000, 187.56814, 2.38125, 0.00000
 Zone Sizing Information, SP-LOCKER ROOM-SCH-C-SPACE FUNCTION SYS-6 FLR-2 SCH-C HPLCMT-WEST ZN, Heating, 9680.49331, 12584.64131, 0.37334, 2.38125, FORT MCMURRAY AP ANN HTG 99.6% CONDNS DB, 1/21 09:00:00, -36.20000, 1.25811E-004, 1875.00000, 187.56814, 2.38125, 0.00000
 Zone Sizing Information, SP-LOCKER ROOM-SCH-D-SPACE FUNCTION SYS-6 FLR-2 SCH-D HPLCMT-NORTH ZN, Cooling, 29230.14128, 32153.15541, 2.25943, 2.48538, FORT MCMURRAY AP ANN CLG .4% CONDNS DB=>MWB, 7/21 16:00:00, 28.15600, 8.76969E-003, 1875.00000, 187.56814, 2.38125, 0.00000
 Zone Sizing Information, SP-LOCKER ROOM-SCH-D-SPACE FUNCTION SYS-6 FLR-2 SCH-D HPLCMT-NORTH ZN, Heating, 9084.68884, 11810.09549, 0.35447, 2.38125, FORT MCMURRAY AP ANN HTG 99.6% CONDNS DB, 1/21 09:00:00, -36.20000, 1.25811E-004, 1875.00000, 187.56814, 2.38125, 0.00000
 Zone Sizing Information, SP-LOCKER ROOM-SCH-E-SPACE FUNCTION SYS-6 FLR-4 SCH-E HPLCMT-CORE ZN, Cooling, 87534.69765, 96288.16742, 6.76632, 7.44295, FORT MCMURRAY AP ANN CLG .4% CONDNS DB=>MWB, 7/21 13:40:00, 28.69333, 8.76969E-003, 2500.00000, 250.09086, 3.17500, 0.00000
 Zone Sizing Information, SP-LOCKER ROOM-SCH-E-SPACE FUNCTION SYS-6 FLR-4 SCH-E HPLCMT-CORE ZN, Heating, 39762.54166, 51691.30416, 1.49518, 3.17500, FORT MCMURRAY AP ANN HTG 99.6% CONDNS DB, 1/21 08:20:00, -36.20000, 1.25811E-004, 2500.00000, 250.09086, 3.17500, 0.00000
 Zone Sizing Information, SP-LOCKER ROOM-SCH-F-SPACE FUNCTION SYS-6 FLR-3 SCH-F HPLCMT-WEST ZN, Cooling, 39218.83904, 43140.72295, 3.03114, 3.33425, FORT MCMURRAY AP ANN CLG .4% CONDNS DB=>MWB, 7/21 18:20:00, 25.30400, 8.76968E-003, 1875.00000, 187.56814, 2.38125, 0.00000
 Zone Sizing Information, SP-LOCKER ROOM-SCH-F-SPACE FUNCTION SYS-6 FLR-3 SCH-F HPLCMT-WEST ZN, Heating, 16034.77703, 20845.21014, 0.63407, 2.38125, FORT MCMURRAY AP ANN HTG 99.6% CONDNS DB, 1/21 09:00:00, -36.20000, 1.25811E-004, 1875.00000, 187.56814, 2.38125, 0.00000
 Zone Sizing Information, SP-LOCKER ROOM-SCH-G-SPACE FUNCTION SYS-6 FLR-2 SCH-G HPLCMT-EAST ZN, Cooling, 38728.27119, 42601.09831, 2.99347, 3.29281, FORT MCMURRAY AP ANN CLG .4% CONDNS DB=>MWB, 7/21 08:00:00, 19.72400, 8.76969E-003, 1875.00000, 187.56814, 2.38125, 0.00000
 Zone Sizing Information, SP-LOCKER ROOM-SCH-G-SPACE FUNCTION SYS-6 FLR-2 SCH-G HPLCMT-EAST ZN, Heating, 0.00000, 0.00000, 0.00000, 2.38125, FORT MCMURRAY AP ANN HTG 99.6% CONDNS DB, , -36.20000, 1.25811E-004, 1875.00000, 187.56814, 2.38125, 0.00000
 Zone Sizing Information, SP-LOCKER ROOM-SCH-H-SPACE FUNCTION SYS-6 FLR-2 SCH-H HPLCMT-SOUTH ZN, Cooling, 41935.24382, 46128.76820, 3.24159, 3.56575, FORT MCMURRAY AP ANN CLG .4% CONDNS DB=>MWB, 7/21 13:50:00, 28.79667, 8.76969E-003, 1875.00000, 187.56814, 2.38125, 0.00000
 Zone Sizing Information, SP-LOCKER ROOM-SCH-H-SPACE FUNCTION SYS-6 FLR-2 SCH-H HPLCMT-SOUTH ZN, Heating, 0.00000, 0.00000, 0.00000, 2.38125, FORT MCMURRAY AP ANN HTG 99.6% CONDNS DB, , -36.20000, 1.25811E-004, 1875.00000, 187.56814, 2.38125, 0.00000
 Zone Sizing Information, SP-LOCKER ROOM-SCH-I-SPACE FUNCTION SYS-6 FLR-2 SCH-I HPLCMT-CORE ZN, Cooling, 36985.38893, 40683.92782, 2.85870, 3.17500, FORT MCMURRAY AP ANN CLG .4% CONDNS DB=>MWB, 7/21 20:40:00, 21.95600, 8.76969E-003, 2500.00000, 250.09086, 3.17500, 0.00000
 Zone Sizing Information, SP-LOCKER ROOM-SCH-I-SPACE FUNCTION SYS-6 FLR-2 SCH-I HPLCMT-CORE ZN, Heating, 0.00000, 0.00000, 0.00000, 3.17500, FORT MCMURRAY AP ANN HTG 99.6% CONDNS DB, , -36.20000, 1.25811E-004, 2500.00000, 250.09086, 3.17500, 0.00000
! <System Sizing Information>, System Name, Load Type, Peak Load Kind, User Design Capacity, Calc Des Air Flow Rate [m3/s], User Des Air Flow Rate [m3/s], Design Day Name, Date/Time of Peak
 System Sizing Information, SYS_1_MAKE-UP AIR UNIT, Cooling, Sensible, 19042.81, 3.97194, 1.04775, FORT MCMURRAY AP ANN CLG .4% CONDNS DB=>MWB, 7/21 05:00:00
 System Sizing Information, SYS_1_MAKE-UP AIR UNIT, Heating, Sensible, 96103.89, 2.56888, 1.04775, FORT MCMURRAY AP ANN HTG 99.6% CONDNS DB, 1/21 09:00:00
 System Sizing Information, SYS_3_PSZ SP-LABORATORY - CLASSROOMS-SPACE FUNCTION SYS-3 FLR-4 SCH-D HPLCMT-WEST ZN, Cooling, Sensible, 120311.42, 7.89691, 7.89691, FORT MCMURRAY AP ANN CLG .4% CONDNS DB=>MWB, 7/21 05:00:00
 System Sizing Information, SYS_3_PSZ SP-LABORATORY - CLASSROOMS-SPACE FUNCTION SYS-3 FLR-4 SCH-D HPLCMT-WEST ZN, Heating, Sensible, 375678.85, 4.09575, 4.09575, FORT MCMURRAY AP ANN HTG 99.6% CONDNS DB, 1/21 00:10:00
 System Sizing Information, SYS_3_PSZ SP-LABORATORY - OTHER-SPACE FUNCTION SYS-3 FLR-4 SCH-A HPLCMT-EAST ZN, Cooling, Sensible, 109581.71, 8.18590, 8.18590, FORT MCMURRAY AP ANN CLG .4% CONDNS DB=>MWB, 7/21 05:00:00
 System Sizing Information, SYS_3_PSZ SP-LABORATORY - OTHER-SPACE FUNCTION SYS-3 FLR-4 SCH-A HPLCMT-EAST ZN, Heating, Sensible, 375678.85, 4.09575, 4.09575, FORT MCMURRAY AP ANN HTG 99.6% CONDNS DB, 1/21 00:20:00
 System Sizing Information, SYS_3_PSZ SP-LAUNDRY/WASHING AREA-SPACE FUNCTION SYS-3 FLR-3 SCH-C HPLCMT-CORE ZN, Cooling, Sensible, 76591.13, 5.40238, 5.40238, FORT MCMURRAY AP ANN CLG .4% CONDNS DB=>MWB, 7/21 05:00:00
 System Sizing Information, SYS_3_PSZ SP-LAUNDRY/WASHING AREA-SPACE FUNCTION SYS-3 FLR-3 SCH-C HPLCMT-CORE ZN, Heating, Sensible, 194537.57, 2.12090, 2.12090, FORT MCMURRAY AP ANN HTG 99.6% CONDNS DB, 1/21 00:10:00
 System Sizing Information, SYS_3_PSZ SP-LOBBY - ELEVATOR-SPACE FUNCTION SYS-3 FLR-4 SCH-C HPLCMT-SOUTH ZN, Cooling, Sensible, 137065.31, 7.59143, 7.59143, FORT MCMURRAY AP ANN CLG .4% CONDNS DB=>MWB, 7/21 05:00:00
 System Sizing Information, SYS_3_PSZ SP-LOBBY - ELEVATOR-SPACE FUNCTION SYS-3 FLR-4 SCH-C HPLCMT-SOUTH ZN, Heating, Sensible, 696316.37, 7.59143, 7.59143, FORT MCMURRAY AP ANN HTG 99.6% CONDNS DB, 1/21 00:10:00
 System Sizing Information, SYS_3_PSZ SP-LOBBY - HOTEL-SPACE FUNCTION SYS-3 FLR-3 SCH-H HPLCMT-EAST ZN, Cooling, Sensible, 57043.52, 4.51813, 4.51813, FORT MCMURRAY AP ANN CLG .4% CONDNS DB=>MWB, 7/21 05:00:00
 System Sizing Information, SYS_3_PSZ SP-LOBBY - HOTEL-SPACE FUNCTION SYS-3 FLR-3 SCH-H HPLCMT-EAST ZN, Heating, Sensible, 247249.10, 2.69558, 2.69558, FORT MCMURRAY AP ANN HTG 99.6% CONDNS DB, 1/21 00:10:00
 System Sizing Information, SYS_3_PSZ SP-LOBBY - MOTION PICTURE THEATRE-SPACE FUNCTION SYS-3 FLR-1 SCH-C HPLCMT-WEST ZN, Cooling, Sensible, 126559.29, 7.71525, 7.71525, FORT MCMURRAY AP ANN CLG .4% CONDNS DB=>MWB, 7/21 05:00:00
 System Sizing Information, SYS_3_PSZ SP-LOBBY - MOTION PICTURE THEATRE-SPACE FUNCTION SYS-3 FLR-1 SCH-C HPLCMT-WEST ZN, Heating, Sensible, 707674.10, 7.71525, 7.71525, FORT MCMURRAY AP ANN HTG 99.6% CONDNS DB, 1/21 00:10:00
 System Sizing Information, SYS_3_PSZ SP-LOBBY - OTHER-SPACE FUNCTION SYS-3 FLR-1 SCH-C HPLCMT-CORE ZN, Cooling, Sensible, 168745.72, 10.28700, 10.28700, FORT MCMURRAY AP ANN CLG .4% CONDNS DB=>MWB, 7/21 05:00:00
 System Sizing Information, SYS_3_PSZ SP-LOBBY - OTHER-SPACE FUNCTION SYS-3 FLR-1 SCH-C HPLCMT-CORE ZN, Heating, Sensible, 943565.47, 10.28700, 10.28700, FORT MCMURRAY AP ANN HTG 99.6% CONDNS DB, 1/21 00:10:00
 System Sizing Information, SYS_3_PSZ SP-LOBBY - PERFORMING ARTS THEATRE-SPACE FUNCTION SYS-3 FLR-1 SCH-C HPLCMT-SOUTH ZN, Cooling, Sensible, 126559.29, 7.71525, 7.71525, FORT MCMURRAY AP ANN CLG .4% CONDNS DB=>MWB, 7/21 05:00:00
 System Sizing Information, SYS_3_PSZ SP-LOBBY - PERFORMING ARTS THEATRE-SPACE FUNCTION SYS-3 FLR-1 SCH-C HPLCMT-SOUTH ZN, Heating, Sensible, 707674.10, 7.71525, 7.71525, FORT MCMURRAY AP ANN HTG 99.6% CONDNS DB, 1/21 00:10:00
 System Sizing Information, SYS_3_PSZ SP-LOBBY - SPACE DESIGNED TO ANSI/IES RP-28 (USED PRIMARILY BY RESIDENTS)-SPACE FUNCTION SYS-3 FLR-1 SCH-B HPLCMT-EAST ZN, Cooling, Sensible, 66728.66, 7.71525, 7.71525, FORT MCMURRAY AP ANN CLG .4% CONDNS DB=>MWB, 7/21 05:00:00
 System Sizing Information, SYS_3_PSZ SP-LOBBY - SPACE DESIGNED TO ANSI/IES RP-28 (USED PRIMARILY BY RESIDENTS)-SPACE FUNCTION SYS-3 FLR-1 SCH-B HPLCMT-EAST ZN, Heating, Sensible, 707674.10, 7.71525, 7.71525, FORT MCMURRAY AP ANN HTG 99.6% CONDNS DB, 1/21 00:10:00
 System Sizing Information, SYS_4_PSZ_SP-LOADING DOCK INTERIOR-SPACE FUNCTION SYS-4 FLR-3 SCH-H HPLCMT-SOUTH ZN, Cooling, Sensible, 41558.18, 2.66816, 2.66816, FORT MCMURRAY AP ANN CLG .4% CONDNS DB=>MWB, 7/21 05:00:00
 System Sizing Information, SYS_4_PSZ_SP-LOADING DOCK INTERIOR-SPACE FUNCTION SYS-4 FLR-3 SCH-H HPLCMT-SOUTH ZN, Heating, Sensible, 122314.04, 1.33350, 1.33350, FORT MCMURRAY AP ANN HTG 99.6% CONDNS DB, 1/21 00:20:00
 System Sizing Information, SYS_6_VAV WITH REHEAT, Cooling, Sensible, 21108.22, 2.38125, 2.38125, FORT MCMURRAY AP ANN CLG .4% CONDNS DB=>MWB, 7/21 00:00:00
 System Sizing Information, SYS_6_VAV WITH REHEAT, Heating, Sensible, 135959.65, 2.38125, 2.38125, FORT MCMURRAY AP ANN HTG 99.6% CONDNS DB, 1/21 00:10:00
 System Sizing Information, SYS_6_VAV WITH REHEAT 1, Cooling, Sensible, 218749.20, 16.12968, 16.12968, FORT MCMURRAY AP ANN CLG .4% CONDNS DB=>MWB, 7/21 00:00:00
 System Sizing Information, SYS_6_VAV WITH REHEAT 1, Heating, Sensible, 725118.12, 12.70000, 12.70000, FORT MCMURRAY AP ANN HTG 99.6% CONDNS DB, 1/21 00:10:00
 System Sizing Information, SYS_6_VAV WITH REHEAT 2, Cooling, Sensible, 93239.11, 6.37075, 6.37075, FORT MCMURRAY AP ANN CLG .4% CONDNS DB=>MWB, 7/21 00:00:00
 System Sizing Information, SYS_6_VAV WITH REHEAT 2, Heating, Sensible, 271919.30, 4.76250, 4.76250, FORT MCMURRAY AP ANN HTG 99.6% CONDNS DB, 1/21 00:10:00
 System Sizing Information, SYS_6_VAV WITH REHEAT 3, Cooling, Sensible, 112065.42, 7.44295, 7.44295, FORT MCMURRAY AP ANN CLG .4% CONDNS DB=>MWB, 7/21 00:00:00
 System Sizing Information, SYS_6_VAV WITH REHEAT 3, Heating, Sensible, 181279.53, 3.17500, 3.17500, FORT MCMURRAY AP ANN HTG 99.6% CONDNS DB, 1/21 00:10:00
! <Component Sizing Information>, Component Type, Component Name, Input Field Description, Value
 Component Sizing Information, ZoneHVAC:PackagedTerminalAirConditioner, SP-GUEST ROOM-SPACE FUNCTION SYS-1 FLR-4 SCH-F HPLCMT-NORTH ZN PTAC, Design Size Cooling Supply Air Flow Rate [m3/s], 3.97194
 Component Sizing Information, ZoneHVAC:PackagedTerminalAirConditioner, SP-GUEST ROOM-SPACE FUNCTION SYS-1 FLR-4 SCH-F HPLCMT-NORTH ZN PTAC, Design Size Heating Supply Air Flow Rate [m3/s], 3.97194
 Component Sizing Information, ZoneHVAC:PackagedTerminalAirConditioner, SP-GUEST ROOM-SPACE FUNCTION SYS-1 FLR-4 SCH-F HPLCMT-NORTH ZN PTAC, Design Size No Load Supply Air Flow Rate [m3/s], 3.97194
 Component Sizing Information, ZoneHVAC:PackagedTerminalAirConditioner, SP-GUEST ROOM-SPACE FUNCTION SYS-1 FLR-4 SCH-F HPLCMT-NORTH ZN PTAC, Design Size Outdoor Air Flow Rate During Cooling Operation [m3/s], 1.04775
 Component Sizing Information, ZoneHVAC:PackagedTerminalAirConditioner, SP-GUEST ROOM-SPACE FUNCTION SYS-1 FLR-4 SCH-F HPLCMT-NORTH ZN PTAC, Design Size Outdoor Air Flow Rate During Heating Operation [m3/s], 1.04775
 Component Sizing Information, ZoneHVAC:PackagedTerminalAirConditioner, SP-GUEST ROOM-SPACE FUNCTION SYS-1 FLR-4 SCH-F HPLCMT-NORTH ZN PTAC, Design Size Outdoor Air Flow Rate When No Cooling or Heating is Needed [m3/s], 1.04775
 Component Sizing Information, Coil:Cooling:DX:SingleSpeed, COIL COOLING DX SINGLE SPEED 2 224KBTU/HR 9.3EER, Design Size Rated Air Flow Rate [m3/s], 3.97194
 Component Sizing Information, Coil:Cooling:DX:SingleSpeed, COIL COOLING DX SINGLE SPEED 2 224KBTU/HR 9.3EER, Design Size Gross Rated Total Cooling Capacity [W], 65749.78459
 Component Sizing Information, Coil:Cooling:DX:SingleSpeed, COIL COOLING DX SINGLE SPEED 2 224KBTU/HR 9.3EER, Design Size Gross Rated Sensible Heat Ratio, 0.80066
! <DX Cooling Coil Standard Rating Information>, Component Type, Component Name, Standard Rating (Net) Cooling Capacity {W}, Standard Rated Net COP {W/W}, EER {Btu/W-h}, SEER {Btu/W-h}, IEER {Btu/W-h}
 DX Cooling Coil Standard Rating Information, Coil:Cooling:DX:SingleSpeed, COIL COOLING DX SINGLE SPEED 2 224KBTU/HR 9.3EER, 62662.3, 2.73, 9.32, 9.84, 9.31
 Component Sizing Information, Coil:Heating:Electric, COIL HEATING ELECTRIC 1, Design Size Nominal Capacity [W], 135066.98224
 Component Sizing Information, Fan:ConstantVolume, FAN CONSTANT VOLUME 2, Design Size Maximum Flow Rate [m3/s], 3.97194
 Component Sizing Information, ZoneHVAC:Baseboard:Convective:Water, ZONE HVAC BASEBOARD CONVECTIVE WATER 1, Design Size Maximum Water Flow Rate [m3/s], 9.62271E-004
 Component Sizing Information, ZoneHVAC:Baseboard:Convective:Water, ZONE HVAC BASEBOARD CONVECTIVE WATER 1, Design Size U-Factor Times Area Value [W/K], 1963.55472
 Component Sizing Information, AirTerminal:SingleDuct:Uncontrolled, AIR TERMINAL SINGLE DUCT UNCONTROLLED 1, Design Size Maximum Air Flow Rate [m3/s], 1.04775
 Component Sizing Information, AirTerminal:SingleDuct:Uncontrolled, AIR TERMINAL SINGLE DUCT UNCONTROLLED 8, Design Size Maximum Air Flow Rate [m3/s], 7.89691
 Component Sizing Information, ZoneHVAC:Baseboard:Convective:Water, ZONE HVAC BASEBOARD CONVECTIVE WATER 8, Design Size Maximum Water Flow Rate [m3/s], 9.02277E-004
 Component Sizing Information, ZoneHVAC:Baseboard:Convective:Water, ZONE HVAC BASEBOARD CONVECTIVE WATER 8, Design Size U-Factor Times Area Value [W/K], 1845.65157
 Component Sizing Information, AirTerminal:SingleDuct:Uncontrolled, AIR TERMINAL SINGLE DUCT UNCONTROLLED 9, Design Size Maximum Air Flow Rate [m3/s], 8.18590
 Component Sizing Information, ZoneHVAC:Baseboard:Convective:Water, ZONE HVAC BASEBOARD CONVECTIVE WATER 9, Design Size Maximum Water Flow Rate [m3/s], 7.17801E-004
 Component Sizing Information, ZoneHVAC:Baseboard:Convective:Water, ZONE HVAC BASEBOARD CONVECTIVE WATER 9, Design Size U-Factor Times Area Value [W/K], 1465.49357
 Component Sizing Information, AirTerminal:SingleDuct:Uncontrolled, AIR TERMINAL SINGLE DUCT UNCONTROLLED 6, Design Size Maximum Air Flow Rate [m3/s], 5.40238
 Component Sizing Information, ZoneHVAC:Baseboard:Convective:Water, ZONE HVAC BASEBOARD CONVECTIVE WATER 6, Design Size Maximum Water Flow Rate [m3/s], 0.00000
 Component Sizing Information, ZoneHVAC:Baseboard:Convective:Water, ZONE HVAC BASEBOARD CONVECTIVE WATER 6, Design Size U-Factor Times Area Value [W/K], 0.00000
 Component Sizing Information, AirTerminal:SingleDuct:Uncontrolled, AIR TERMINAL SINGLE DUCT UNCONTROLLED 11, Design Size Maximum Air Flow Rate [m3/s], 2.66816
 Component Sizing Information, ZoneHVAC:Baseboard:Convective:Water, ZONE HVAC BASEBOARD CONVECTIVE WATER 11, Design Size Maximum Water Flow Rate [m3/s], 3.18336E-004
 Component Sizing Information, ZoneHVAC:Baseboard:Convective:Water, ZONE HVAC BASEBOARD CONVECTIVE WATER 11, Design Size U-Factor Times Area Value [W/K], 649.72163
 Component Sizing Information, AirTerminal:SingleDuct:Uncontrolled, AIR TERMINAL SINGLE DUCT UNCONTROLLED 10, Design Size Maximum Air Flow Rate [m3/s], 7.59143
 Component Sizing Information, ZoneHVAC:Baseboard:Convective:Water, ZONE HVAC BASEBOARD CONVECTIVE WATER 10, Design Size Maximum Water Flow Rate [m3/s], 9.13998E-004
 Component Sizing Information, ZoneHVAC:Baseboard:Convective:Water, ZONE HVAC BASEBOARD CONVECTIVE WATER 10, Design Size U-Factor Times Area Value [W/K], 1865.54408
 Component Sizing Information, AirTerminal:SingleDuct:Uncontrolled, AIR TERMINAL SINGLE DUCT UNCONTROLLED 7, Design Size Maximum Air Flow Rate [m3/s], 4.51813
 Component Sizing Information, ZoneHVAC:Baseboard:Convective:Water, ZONE HVAC BASEBOARD CONVECTIVE WATER 7, Design Size Maximum Water Flow Rate [m3/s], 0.00000
 Component Sizing Information, ZoneHVAC:Baseboard:Convective:Water, ZONE HVAC BASEBOARD CONVECTIVE WATER 7, Design Size U-Factor Times Area Value [W/K], 0.00000
 Component Sizing Information, AirTerminal:SingleDuct:Uncontrolled, AIR TERMINAL SINGLE DUCT UNCONTROLLED 2, Design Size Maximum Air Flow Rate [m3/s], 7.71525
 Component Sizing Information, ZoneHVAC:Baseboard:Convective:Water, ZONE HVAC BASEBOARD CONVECTIVE WATER 2, Design Size Maximum Water Flow Rate [m3/s], 0.00000
 Component Sizing Information, ZoneHVAC:Baseboard:Convective:Water, ZONE HVAC BASEBOARD CONVECTIVE WATER 2, Design Size U-Factor Times Area Value [W/K], 0.00000
 Component Sizing Information, AirTerminal:SingleDuct:Uncontrolled, AIR TERMINAL SINGLE DUCT UNCONTROLLED 4, Design Size Maximum Air Flow Rate [m3/s], 10.28700
 Component Sizing Information, ZoneHVAC:Baseboard:Convective:Water, ZONE HVAC BASEBOARD CONVECTIVE WATER 4, Design Size Maximum Water Flow Rate [m3/s], 0.00000
 Component Sizing Information, ZoneHVAC:Baseboard:Convective:Water, ZONE HVAC BASEBOARD CONVECTIVE WATER 4, Design Size U-Factor Times Area Value [W/K], 0.00000
 Component Sizing Information, AirTerminal:SingleDuct:Uncontrolled, AIR TERMINAL SINGLE DUCT UNCONTROLLED 3, Design Size Maximum Air Flow Rate [m3/s], 7.71525
 Component Sizing Information, ZoneHVAC:Baseboard:Convective:Water, ZONE HVAC BASEBOARD CONVECTIVE WATER 3, Design Size Maximum Water Flow Rate [m3/s], 0.00000
 Component Sizing Information, ZoneHVAC:Baseboard:Convective:Water, ZONE HVAC BASEBOARD CONVECTIVE WATER 3, Design Size U-Factor Times Area Value [W/K], 0.00000
 Component Sizing Information, AirTerminal:SingleDuct:Uncontrolled, AIR TERMINAL SINGLE DUCT UNCONTROLLED 5, Design Size Maximum Air Flow Rate [m3/s], 7.71525
 Component Sizing Information, ZoneHVAC:Baseboard:Convective:Water, ZONE HVAC BASEBOARD CONVECTIVE WATER 5, Design Size Maximum Water Flow Rate [m3/s], 0.00000
 Component Sizing Information, ZoneHVAC:Baseboard:Convective:Water, ZONE HVAC BASEBOARD CONVECTIVE WATER 5, Design Size U-Factor Times Area Value [W/K], 0.00000
 Component Sizing Information, AirTerminal:SingleDuct:VAV:Reheat, AIR TERMINAL SINGLE DUCT VAV REHEAT 7, Design Size Maximum Air Flow Rate [m3/s], 3.03650
 Component Sizing Information, AirTerminal:SingleDuct:VAV:Reheat, AIR TERMINAL SINGLE DUCT VAV REHEAT 7, Design Size Constant Minimum Air Flow Fraction, 0.47053
 Component Sizing Information, AirTerminal:SingleDuct:VAV:Reheat, AIR TERMINAL SINGLE DUCT VAV REHEAT 7, User-Specified Constant Minimum Air Flow Fraction, 0.30000
 Component Sizing Information, AirTerminal:SingleDuct:VAV:Reheat, AIR TERMINAL SINGLE DUCT VAV REHEAT 7, Design Size Minimum Air Flow Rate [m3/s], 0.91095
 Component Sizing Information, AirTerminal:SingleDuct:VAV:Reheat, AIR TERMINAL SINGLE DUCT VAV REHEAT 7, Design Size Maximum Flow per Zone Floor Area during Reheat [m3/s-m2], 4.85840E-004
 Component Sizing Information, AirTerminal:SingleDuct:VAV:Reheat, AIR TERMINAL SINGLE DUCT VAV REHEAT 7, Design Size Maximum Flow Fraction during Reheat [], 0.30000
 Component Sizing Information, AirTerminal:SingleDuct:VAV:Reheat, AIR TERMINAL SINGLE DUCT VAV REHEAT 7, Design Size Maximum Reheat Water Flow Rate [m3/s], 6.85502E-004
 Component Sizing Information, AirTerminal:SingleDuct:VAV:Reheat, AIR TERMINAL SINGLE DUCT VAV REHEAT 7, Design Size Reheat Coil Sizing Air Volume Flow Rate [m3/s], 1.25334
 Component Sizing Information, AirTerminal:SingleDuct:VAV:Reheat, AIR TERMINAL SINGLE DUCT VAV REHEAT 7, Design Size Reheat Coil Sizing Inlet Air Temperature [C], 13.10000
 Component Sizing Information, AirTerminal:SingleDuct:VAV:Reheat, AIR TERMINAL SINGLE DUCT VAV REHEAT 7, Design Size Reheat Coil Sizing Inlet Air Humidity Ratio [kgWater/kgDryAir], 8.00000E-003
 Component Sizing Information, Coil:Heating:Water, COIL HEATING WATER 11, Design Size Rated Capacity [W], 45896.56257
 Component Sizing Information, Coil:Heating:Water, COIL HEATING WATER 11, Design Size Maximum Water Flow Rate [m3/s], 6.85502E-004
 Component Sizing Information, Coil:Heating:Water, COIL HEATING WATER 11, Design Size U-Factor Times Area Value [W/K], 1051.26655
! <Water Heating Coil Capacity Information>,Component Type,Name,Nominal Total Capacity {W}
Water Heating Coil Capacity Information,Coil:Heating:Water,COIL HEATING WATER 11,39319.22
 Component Sizing Information, ZoneHVAC:Baseboard:Convective:Water, ZONE HVAC BASEBOARD CONVECTIVE WATER 18, Design Size Maximum Water Flow Rate [m3/s], 4.76613E-004
 Component Sizing Information, ZoneHVAC:Baseboard:Convective:Water, ZONE HVAC BASEBOARD CONVECTIVE WATER 18, Design Size U-Factor Times Area Value [W/K], 967.96337
 Component Sizing Information, AirTerminal:SingleDuct:VAV:Reheat, AIR TERMINAL SINGLE DUCT VAV REHEAT 1, Design Size Maximum Air Flow Rate [m3/s], 2.38125
 Component Sizing Information, AirTerminal:SingleDuct:VAV:Reheat, AIR TERMINAL SINGLE DUCT VAV REHEAT 1, Design Size Constant Minimum Air Flow Fraction, 0.60000
 Component Sizing Information, AirTerminal:SingleDuct:VAV:Reheat, AIR TERMINAL SINGLE DUCT VAV REHEAT 1, User-Specified Constant Minimum Air Flow Fraction, 0.30000
 Component Sizing Information, AirTerminal:SingleDuct:VAV:Reheat, AIR TERMINAL SINGLE DUCT VAV REHEAT 1, Design Size Minimum Air Flow Rate [m3/s], 0.71438
 Component Sizing Information, AirTerminal:SingleDuct:VAV:Reheat, AIR TERMINAL SINGLE DUCT VAV REHEAT 1, Design Size Maximum Flow per Zone Floor Area during Reheat [m3/s-m2], 3.81000E-004
 Component Sizing Information, AirTerminal:SingleDuct:VAV:Reheat, AIR TERMINAL SINGLE DUCT VAV REHEAT 1, Design Size Maximum Flow Fraction during Reheat [], 0.30000
 Component Sizing Information, AirTerminal:SingleDuct:VAV:Reheat, AIR TERMINAL SINGLE DUCT VAV REHEAT 1, Design Size Maximum Reheat Water Flow Rate [m3/s], 1.13498E-004
 Component Sizing Information, AirTerminal:SingleDuct:VAV:Reheat, AIR TERMINAL SINGLE DUCT VAV REHEAT 1, Design Size Reheat Coil Sizing Air Volume Flow Rate [m3/s], 0.71438
 Component Sizing Information, AirTerminal:SingleDuct:VAV:Reheat, AIR TERMINAL SINGLE DUCT VAV REHEAT 1, Design Size Reheat Coil Sizing Inlet Air Temperature [C], 13.10000
 Component Sizing Information, AirTerminal:SingleDuct:VAV:Reheat, AIR TERMINAL SINGLE DUCT VAV REHEAT 1, Design Size Reheat Coil Sizing Inlet Air Humidity Ratio [kgWater/kgDryAir], 8.00000E-003
 Component Sizing Information, Coil:Heating:Water, COIL HEATING WATER 3, Design Size Rated Capacity [W], 7599.07294
 Component Sizing Information, Coil:Heating:Water, COIL HEATING WATER 3, Design Size Maximum Water Flow Rate [m3/s], 1.13498E-004
 Component Sizing Information, Coil:Heating:Water, COIL HEATING WATER 3, Design Size U-Factor Times Area Value [W/K], 137.01381
Water Heating Coil Capacity Information,Coil:Heating:Water,COIL HEATING WATER 3,7125.19
 Component Sizing Information, ZoneHVAC:Baseboard:Convective:Water, ZONE HVAC BASEBOARD CONVECTIVE WATER 12, Design Size Maximum Water Flow Rate [m3/s], 0.00000
 Component Sizing Information, ZoneHVAC:Baseboard:Convective:Water, ZONE HVAC BASEBOARD CONVECTIVE WATER 12, Design Size U-Factor Times Area Value [W/K], 0.00000
[...]
 Component Sizing Information, Controller:OutdoorAir, CONTROLLER OUTDOOR AIR 15, Minimum Outdoor Air Flow Rate [m3/s], 3.17500
 Component Sizing Information, HeatExchanger:AirToAir:SensibleAndLatent, SYS_6_VAV WITH REHEAT 3 ERV, Design Size Nominal Supply Air Flow Rate [m3/s], 3.17500
 Component Sizing Information, Coil:Cooling:Water, COIL COOLING WATER 4, Design Size Design Coil Load [W], 141590.21524
 Component Sizing Information, Coil:Cooling:Water, COIL COOLING WATER 4, Design Size Design Water Flow Rate [m3/s], 5.62191E-003
 Component Sizing Information, Coil:Cooling:Water, COIL COOLING WATER 4, Design Size Design Air Flow Rate [m3/s], 7.44295
 Component Sizing Information, Coil:Cooling:Water, COIL COOLING WATER 4, Design Size Design Inlet Air Temperature [C], 26.00075
 Component Sizing Information, Coil:Cooling:Water, COIL COOLING WATER 4, Design Size Design Inlet Water Temperature [C], 7.00000
 Component Sizing Information, Coil:Cooling:Water, COIL COOLING WATER 4, Design Size Design Outlet Air Temperature [C], 13.00000
 Component Sizing Information, Coil:Cooling:Water, COIL COOLING WATER 4, Design Size Design Inlet Air Humidity Ratio, 8.98812E-003
 Component Sizing Information, Coil:Cooling:Water, COIL COOLING WATER 4, Design Size Design Outlet Air Humidity Ratio, 8.76847E-003
Water Cooling Coil Capacity Information,Coil:Cooling:Water,COIL COOLING WATER 4,175421.88,121205.01,54216.87,0.69,19261.06,195.36
 Component Sizing Information, Coil:Heating:Water, COIL HEATING WATER 13, Design Size Rated Capacity [W], 127488.59871
 Component Sizing Information, Coil:Heating:Water, COIL HEATING WATER 13, Design Size Maximum Water Flow Rate [m3/s], 1.90415E-003
 Component Sizing Information, Coil:Heating:Water, COIL HEATING WATER 13, Design Size U-Factor Times Area Value [W/K], 1555.73472
Water Heating Coil Capacity Information,Coil:Heating:Water,COIL HEATING WATER 13,71030.87
 Component Sizing Information, Fan:VariableVolume, SYS6 SUPPLY FAN 3, Design Size Maximum Flow Rate [m3/s], 7.44295
 Component Sizing Information, Controller:WaterCoil, CONTROLLER WATER COIL 17, Maximum Actuated Flow [m3/s], 5.62191E-003
 Component Sizing Information, Controller:WaterCoil, CONTROLLER WATER COIL 17, Controller Convergence Tolerance, 8.47026E-005
 Component Sizing Information, Controller:WaterCoil, CONTROLLER WATER COIL 16, Maximum Actuated Flow [m3/s], 1.90415E-003
Water Heater Information,WaterHeater:Mixed,306GAL NATURALGAS WATER HEATER - 545KBTU/HR 0.804 THERM EFF,1.1579,159707.4,0.565,0.3250
 Component Sizing Information, PlantLoop, CHILLED WATER LOOP, Maximum Loop Flow Rate [m3/s], 2.22224E-002
 Component Sizing Information, PlantLoop, CHILLED WATER LOOP, Plant Loop Volume [m3], 2.66669
 Component Sizing Information, Pump:ConstantSpeed, PUMP CONSTANT SPEED 1, Design Flow Rate [m3/s], 2.22224E-002
 Component Sizing Information, Pump:ConstantSpeed, PUMP CONSTANT SPEED 1, Design Power Consumption [W], 5572.28482
 Component Sizing Information, Chiller:Electric:EIR, PRIMARY CHILLER WATERCOOLED SCROLL 160TONS 0.7KW/TON, Design Size Reference Chilled Water Flow Rate [m3/s], 2.22224E-002
 Component Sizing Information, Chiller:Electric:EIR, PRIMARY CHILLER WATERCOOLED SCROLL 160TONS 0.7KW/TON, Design Size Reference Capacity [W], 559671.46375
 Component Sizing Information, Chiller:Electric:EIR, PRIMARY CHILLER WATERCOOLED SCROLL 160TONS 0.7KW/TON, User-Specified Reference Capacity [W], 563219.26105
 Component Sizing Information, Chiller:Electric:EIR, PRIMARY CHILLER WATERCOOLED SCROLL 160TONS 0.7KW/TON, Design Size Reference Condenser Fluid Flow Rate [m3/s], 2.67960E-002
! <Chiller Standard Rating Information>, Component Type, Component Name, IPLV in SI Units {W/W}, IPLV in IP Units {Btu/W-h}
 Chiller Standard Rating Information, Chiller:Electric:EIR, PRIMARY CHILLER WATERCOOLED SCROLL 160TONS 0.7KW/TON, 6.45, 22.01
 Component Sizing Information, Chiller:Electric:EIR, SECONDARY CHILLER WATERCOOLED SCROLL 0TONS 0.8KW/TON, Design Size Reference Chilled Water Flow Rate [m3/s], 2.22224E-002
 Component Sizing Information, Chiller:Electric:EIR, SECONDARY CHILLER WATERCOOLED SCROLL 0TONS 0.8KW/TON, Design Size Reference Capacity [W], 559671.46375
 Component Sizing Information, Chiller:Electric:EIR, SECONDARY CHILLER WATERCOOLED SCROLL 0TONS 0.8KW/TON, User-Specified Reference Capacity [W], 1.00000E-003
 Component Sizing Information, Chiller:Electric:EIR, SECONDARY CHILLER WATERCOOLED SCROLL 0TONS 0.8KW/TON, Design Size Reference Condenser Fluid Flow Rate [m3/s], 4.87330E-011
 Chiller Standard Rating Information, Chiller:Electric:EIR, SECONDARY CHILLER WATERCOOLED SCROLL 0TONS 0.8KW/TON, 5.61, 19.14
 Component Sizing Information, PlantLoop, CONDENSER WATER LOOP, Maximum Loop Flow Rate [m3/s], 2.67960E-002
 Component Sizing Information, PlantLoop, CONDENSER WATER LOOP, Plant Loop Volume [m3], 3.21552
 Component Sizing Information, Pump:ConstantSpeed, PUMP CONSTANT SPEED 2, Design Flow Rate [m3/s], 2.67960E-002
 Component Sizing Information, Pump:ConstantSpeed, PUMP CONSTANT SPEED 2, Design Power Consumption [W], 6625.19277
 Component Sizing Information, CoolingTower:SingleSpeed, COOLING TOWER SINGLE SPEED 1, Design Water Flow Rate [m3/s], 2.67960E-002
 Component Sizing Information, CoolingTower:SingleSpeed, COOLING TOWER SINGLE SPEED 1, Design Air Flow Rate [m3/s], 24.02067
 Component Sizing Information, CoolingTower:SingleSpeed, COOLING TOWER SINGLE SPEED 1, U-Factor Times Area Value at Design Air Flow Rate [W/C], 24341.50181
 Component Sizing Information, CoolingTower:SingleSpeed, COOLING TOWER SINGLE SPEED 1, Free Convection Regime Air Flow Rate [m3/s], 2.40207
 Component Sizing Information, CoolingTower:SingleSpeed, COOLING TOWER SINGLE SPEED 1, Free Convection U-Factor Times Area Value [W/K], 2434.15018
 Component Sizing Information, PlantLoop, HOT WATER LOOP, Maximum Loop Flow Rate [m3/s], 1.90084E-002
 Component Sizing Information, PlantLoop, HOT WATER LOOP, Plant Loop Volume [m3], 2.28101
 Component Sizing Information, Pump:VariableSpeed, PUMP VARIABLE SPEED 1, Design Flow Rate [m3/s], 1.90084E-002
 Component Sizing Information, Pump:VariableSpeed, PUMP VARIABLE SPEED 1, Design Power Consumption [W], 4766.38095
 Component Sizing Information, Boiler:HotWater, PRIMARY BOILER 4359KBTU/HR 0.833 COMBUSTION EFF, Design Size Nominal Capacity [W], 1277601.76678
 Component Sizing Information, Boiler:HotWater, PRIMARY BOILER 4359KBTU/HR 0.833 COMBUSTION EFF, User-Specified Nominal Capacity [W], 1277601.76678
 Component Sizing Information, Boiler:HotWater, PRIMARY BOILER 4359KBTU/HR 0.833 COMBUSTION EFF, Design Size Design Water Flow Rate [m3/s], 1.90084E-002
 Component Sizing Information, Boiler:HotWater, SECONDARY BOILER 0KBTU/HR 0.85 AFUE, Design Size Nominal Capacity [W], 1277601.76678
 Component Sizing Information, Boiler:HotWater, SECONDARY BOILER 0KBTU/HR 0.85 AFUE, User-Specified Nominal Capacity [W], 1.00000E-003
 Component Sizing Information, Boiler:HotWater, SECONDARY BOILER 0KBTU/HR 0.85 AFUE, Design Size Design Water Flow Rate [m3/s], 1.90084E-002
 Component Sizing Information, PlantLoop, MAIN SERVICE WATER LOOP, Maximum Loop Flow Rate [m3/s], 5.17845E-004
 Component Sizing Information, PlantLoop, MAIN SERVICE WATER LOOP, Plant Loop Volume [m3], 6.21414E-002
 Component Sizing Information, Pump:ConstantSpeed, SERVICE WATER LOOP PUMP, Design Flow Rate [m3/s], 5.17845E-004
 Component Sizing Information, Pump:ConstantSpeed, SERVICE WATER LOOP PUMP, Design Power Consumption [W], 215.54932
 Component Sizing Information, WaterHeater:Mixed, 306GAL NATURALGAS WATER HEATER - 545KBTU/HR 0.804 THERM EFF, Use Side Design Flow Rate [m3/s], 5.17845E-004
! <Environment>,Environment Name,Environment Type, Start Date, End Date, Start DayOfWeek, Duration {#days}, Source:Start DayOfWeek,  Use Daylight Saving, Use Holidays, Apply Weekend Holiday Rule,  Use Rain Values, Use Snow Values
! <Environment:Special Days>, Special Day Name, Special Day Type, Source, Start Date, Duration {#days}
! <Environment:Daylight Saving>, Daylight Saving Indicator, Source, Start Date, End Date
! <Environment:WarmupDays>, NumberofWarmupDays
Environment,FORT MCMURRAY AP ANN CLG .4% CONDNS DB=>MWB,SizingPeriod:DesignDay,07/21,07/21,SummerDesignDay,1,N/A,N/A,N/A,N/A,N/A,N/A
Environment:Daylight Saving,No,SizingPeriod:DesignDay
! <Environment:Design Day Data>, Max Dry-Bulb Temp {C}, Temp Range {dC}, Temp Range Ind Type, Hum Ind Value at Max Temp, Hum Ind Type,Pressure {Pa}, Wind Direction {deg CW from N}, Wind Speed {m/s}, Clearness, Rain, Snow
! <Environment:Design Day Misc>,DayOfYear,ASHRAE A Coeff,ASHRAE B Coeff,ASHRAE C Coeff,Solar Constant-Annual Variation,Eq of Time {minutes}, Solar Declination Angle {deg}, Solar Model
Environment:Design Day Data,28.90,12.40,DefaultMultipliers,96969,250,3.7,0.00,No,No
Environment:Design Day Misc,202,1084.4,0.2082,0.1365,1.0,-6.23,20.6,ASHRAETau
Environment:WarmupDays, 12
! <Tabular Report>,Style,Unit Conversion
Tabular Report,HTML,None
! <Warmup Convergence Information>,Zone Name,Environment Type/Name,Average Warmup Temperature Difference {deltaC},Std Dev Warmup Temperature Difference {deltaC},Max Temperature Pass/Fail Convergence,Min Temperature Pass/Fail Convergence,Average Warmup Load Difference {W},Std Dev Warmup Load Difference {W},Heating Load Pass/Fail Convergence,Cooling Load Pass/Fail Convergence
 Warmup Convergence Information,SP-GUEST ROOM-SPACE FUNCTION SYS-1 FLR-4 SCH-F HPLCMT-NORTH ZN,SizingPeriod: FORT MCMURRAY AP ANN CLG .4% CONDNS DB=>MWB,2.2590757136E-002,3.3290219812E-002,Pass,Pass,4.3022959895E-002,5.4612553814E-002,Pass,Pass
 Warmup Convergence Information,SP-LABORATORY - CLASSROOMS-SPACE FUNCTION SYS-3 FLR-4 SCH-D HPLCMT-WEST ZN,SizingPeriod: FORT MCMURRAY AP ANN CLG .4% CONDNS DB=>MWB,2.8474680428E-002,5.8838843311E-002,Pass,Pass,4.0844428164E-002,5.7551601424E-002,Pass,Pass
 Warmup Convergence Information,SP-LABORATORY - OTHER-SPACE FUNCTION SYS-3 FLR-4 SCH-A HPLCMT-EAST ZN,SizingPeriod: FORT MCMURRAY AP ANN CLG .4% CONDNS DB=>MWB,3.6844357708E-002,8.9955929774E-002,Pass,Pass,4.0520970136E-002,9.4405467809E-002,Pass,Pass
 Warmup Convergence Information,SP-LAUNDRY/WASHING AREA-SPACE FUNCTION SYS-3 FLR-3 SCH-C HPLCMT-CORE ZN,SizingPeriod: FORT MCMURRAY AP ANN CLG .4% CONDNS DB=>MWB,1.4954654247E-002,3.8562383694E-002,Pass,Pass,4.2743494982E-002,0.2303381052,Pass,Pass
 Warmup Convergence Information,SP-LOADING DOCK INTERIOR-SPACE FUNCTION SYS-4 FLR-3 SCH-H HPLCMT-SOUTH ZN,SizingPeriod: FORT MCMURRAY AP ANN CLG .4% CONDNS DB=>MWB,1.2157860167E-002,2.4386375278E-002,Pass,Pass,1.9013240638E-002,2.5460331080E-002,Pass,Pass
 Warmup Convergence Information,SP-LOBBY - ELEVATOR-SPACE FUNCTION SYS-3 FLR-4 SCH-C HPLCMT-SOUTH ZN,SizingPeriod: FORT MCMURRAY AP ANN CLG .4% CONDNS DB=>MWB,3.6969319776E-002,7.5079375304E-002,Pass,Pass,4.7769607452E-002,7.1111182647E-002,Pass,Pass
 Warmup Convergence Information,SP-LOBBY - HOTEL-SPACE FUNCTION SYS-3 FLR-3 SCH-H HPLCMT-EAST ZN,SizingPeriod: FORT MCMURRAY AP ANN CLG .4% CONDNS DB=>MWB,3.1233415772E-004,1.3233463830E-003,Pass,Pass,6.4384015759E-003,5.7908335485E-003,Pass,Pass
 Warmup Convergence Information,SP-LOBBY - MOTION PICTURE THEATRE-SPACE FUNCTION SYS-3 FLR-1 SCH-C HPLCMT-WEST ZN,SizingPeriod: FORT MCMURRAY AP ANN CLG .4% CONDNS DB=>MWB,3.3499124916E-002,8.3351148185E-002,Pass,Pass,8.7410266811E-002,0.2861184587,Pass,Pass
 Warmup Convergence Information,SP-LOBBY - OTHER-SPACE FUNCTION SYS-3 FLR-1 SCH-C HPLCMT-CORE ZN,SizingPeriod: FORT MCMURRAY AP ANN CLG .4% CONDNS DB=>MWB,3.4142677971E-002,8.6171569726E-002,Pass,Pass,0.1375793234,0.9302894763,Pass,Pass
 Warmup Convergence Information,SP-LOBBY - PERFORMING ARTS THEATRE-SPACE FUNCTION SYS-3 FLR-1 SCH-C HPLCMT-SOUTH ZN,SizingPeriod: FORT MCMURRAY AP ANN CLG .4% CONDNS DB=>MWB,2.5046818560E-002,6.3347228172E-002,Pass,Pass,2.8430381705E-002,0.1137289110,Pass,Pass
 Warmup Convergence Information,SP-LOBBY - SPACE DESIGNED TO ANSI/IES RP-28 (USED PRIMARILY BY RESIDENTS)-SPACE FUNCTION SYS-3 FLR-1 SCH-B HPLCMT-EAST ZN,SizingPeriod: FORT MCMURRAY AP ANN CLG .4% CONDNS DB=>MWB,2.4341482195E-002,6.3019780671E-002,Pass,Pass,3.5299608542E-002,9.5477611378E-002,Pass,Pass
 Warmup Convergence Information,SP-LOCKER ROOM-SCH-A-SPACE FUNCTION SYS-6 FLR-3 SCH-A HPLCMT-NORTH ZN,SizingPeriod: FORT MCMURRAY AP ANN CLG .4% CONDNS DB=>MWB,4.5774050420E-002,7.4504379075E-002,Pass,Pass,2.2770967670E-002,5.7569541008E-002,Pass,Pass
 Warmup Convergence Information,SP-LOCKER ROOM-SCH-B-SPACE FUNCTION SYS-6 FLR-1 SCH-B HPLCMT-NORTH ZN,SizingPeriod: FORT MCMURRAY AP ANN CLG .4% CONDNS DB=>MWB,5.0992103154E-002,6.2062872074E-002,Pass,Pass,1.0303260132E-002,3.2567407854E-002,Pass,Pass
 Warmup Convergence Information,SP-LOCKER ROOM-SCH-C-SPACE FUNCTION SYS-6 FLR-2 SCH-C HPLCMT-WEST ZN,SizingPeriod: FORT MCMURRAY AP ANN CLG .4% CONDNS DB=>MWB,6.3287184131E-002,8.2632421057E-002,Pass,Pass,0.1106233476,0.2142353639,Pass,Pass
 Warmup Convergence Information,SP-LOCKER ROOM-SCH-D-SPACE FUNCTION SYS-6 FLR-2 SCH-D HPLCMT-NORTH ZN,SizingPeriod: FORT MCMURRAY AP ANN CLG .4% CONDNS DB=>MWB,4.9680796845E-002,7.2197489254E-002,Pass,Pass,5.4001374684E-002,8.5201078367E-002,Pass,Pass
 Warmup Convergence Information,SP-LOCKER ROOM-SCH-E-SPACE FUNCTION SYS-6 FLR-4 SCH-E HPLCMT-CORE ZN,SizingPeriod: FORT MCMURRAY AP ANN CLG .4% CONDNS DB=>MWB,8.5458514272E-002,0.1833363946,Pass,Pass,5.1272970672E-002,0.1637900344,Pass,Pass
 Warmup Convergence Information,SP-LOCKER ROOM-SCH-F-SPACE FUNCTION SYS-6 FLR-3 SCH-F HPLCMT-WEST ZN,SizingPeriod: FORT MCMURRAY AP ANN CLG .4% CONDNS DB=>MWB,3.3486089881E-002,4.1547212185E-002,Pass,Pass,1.5189814004E-002,2.5851790848E-002,Pass,Pass
 Warmup Convergence Information,SP-LOCKER ROOM-SCH-G-SPACE FUNCTION SYS-6 FLR-2 SCH-G HPLCMT-EAST ZN,SizingPeriod: FORT MCMURRAY AP ANN CLG .4% CONDNS DB=>MWB,5.4588461615E-002,6.3344915231E-002,Pass,Pass,0.1178013984,0.1628730574,Pass,Pass
 Warmup Convergence Information,SP-LOCKER ROOM-SCH-H-SPACE FUNCTION SYS-6 FLR-2 SCH-H HPLCMT-SOUTH ZN,SizingPeriod: FORT MCMURRAY AP ANN CLG .4% CONDNS DB=>MWB,6.2945567576E-002,5.7648905256E-002,Pass,Pass,0.1576401985,0.1645159652,Pass,Pass
 Warmup Convergence Information,SP-LOCKER ROOM-SCH-I-SPACE FUNCTION SYS-6 FLR-2 SCH-I HPLCMT-CORE ZN,SizingPeriod: FORT MCMURRAY AP ANN CLG .4% CONDNS DB=>MWB,3.8913527581E-002,5.9028393063E-002,Pass,Pass,4.4303255878E-002,6.9879339363E-002,Pass,Pass
Environment,FORT MCMURRAY AP ANN HTG 99.6% CONDNS DB,SizingPeriod:DesignDay,01/21,01/21,WinterDesignDay,1,N/A,N/A,N/A,N/A,N/A,N/A
Environment:Daylight Saving,No,SizingPeriod:DesignDay
Environment:Design Day Data,-36.20,0.00,DefaultMultipliers,96969,90,1.0,0.00,No,No
Environment:Design Day Misc, 21,1229.0,0.1415,5.7310E-002,1.0,-11.15,-20.1,ASHRAEClearSky
Environment:WarmupDays,  8
 Warmup Convergence Information,SP-GUEST ROOM-SPACE FUNCTION SYS-1 FLR-4 SCH-F HPLCMT-NORTH ZN,SizingPeriod: FORT MCMURRAY AP ANN HTG 99.6% CONDNS DB,5.9685940591E-002,0.1974655404,Pass,Pass,0.2737576831,2.6826782057,Pass,Pass
 Warmup Convergence Information,SP-LABORATORY - CLASSROOMS-SPACE FUNCTION SYS-3 FLR-4 SCH-D HPLCMT-WEST ZN,SizingPeriod: FORT MCMURRAY AP ANN HTG 99.6% CONDNS DB,5.5581834465E-002,0.3350459762,Pass,Pass,6.0052325749E-002,0.2418650728,Pass,Pass
 Warmup Convergence Information,SP-LABORATORY - OTHER-SPACE FUNCTION SYS-3 FLR-4 SCH-A HPLCMT-EAST ZN,SizingPeriod: FORT MCMURRAY AP ANN HTG 99.6% CONDNS DB,5.5569261063E-002,0.3317346029,Pass,Pass,0.4239171956,2.3778136801,Pass,Pass
 Warmup Convergence Information,SP-LAUNDRY/WASHING AREA-SPACE FUNCTION SYS-3 FLR-3 SCH-C HPLCMT-CORE ZN,SizingPeriod: FORT MCMURRAY AP ANN HTG 99.6% CONDNS DB,5.5564695914E-002,0.2601168540,Pass,Pass,0.1009929863,0.3089672362,Pass,Pass
 Warmup Convergence Information,SP-LOADING DOCK INTERIOR-SPACE FUNCTION SYS-4 FLR-3 SCH-H HPLCMT-SOUTH ZN,SizingPeriod: FORT MCMURRAY AP ANN HTG 99.6% CONDNS DB,5.5557073209E-002,0.2486559958,Pass,Pass,0.1792215470,0.8289671387,Pass,Pass
 Warmup Convergence Information,SP-LOBBY - ELEVATOR-SPACE FUNCTION SYS-3 FLR-4 SCH-C HPLCMT-SOUTH ZN,SizingPeriod: FORT MCMURRAY AP ANN HTG 99.6% CONDNS DB,5.5567134052E-002,0.3325886233,Pass,Pass,3.0287095465E-002,0.1239487477,Pass,Pass
 Warmup Convergence Information,SP-LOBBY - HOTEL-SPACE FUNCTION SYS-3 FLR-3 SCH-H HPLCMT-EAST ZN,SizingPeriod: FORT MCMURRAY AP ANN HTG 99.6% CONDNS DB,5.5599593161E-002,0.2562488934,Pass,Pass,0.2189236606,0.6382050670,Pass,Pass
 Warmup Convergence Information,SP-LOBBY - MOTION PICTURE THEATRE-SPACE FUNCTION SYS-3 FLR-1 SCH-C HPLCMT-WEST ZN,SizingPeriod: FORT MCMURRAY AP ANN HTG 99.6% CONDNS DB,5.5558619167E-002,0.3100014369,Pass,Pass,0.2676905216,1.2217539095,Pass,Pass
 Warmup Convergence Information,SP-LOBBY - OTHER-SPACE FUNCTION SYS-3 FLR-1 SCH-C HPLCMT-CORE ZN,SizingPeriod: FORT MCMURRAY AP ANN HTG 99.6% CONDNS DB,5.5558196644E-002,0.3098748848,Pass,Pass,0.2137388162,0.5745566549,Pass,Pass
 Warmup Convergence Information,SP-LOBBY - PERFORMING ARTS THEATRE-SPACE FUNCTION SYS-3 FLR-1 SCH-C HPLCMT-SOUTH ZN,SizingPeriod: FORT MCMURRAY AP ANN HTG 99.6% CONDNS DB,5.5560373159E-002,0.3065879916,Pass,Pass,0.7749073085,7.8895613341,Pass,Pass
 Warmup Convergence Information,SP-LOBBY - SPACE DESIGNED TO ANSI/IES RP-28 (USED PRIMARILY BY RESIDENTS)-SPACE FUNCTION SYS-3 FLR-1 SCH-B HPLCMT-EAST ZN,SizingPeriod: FORT MCMURRAY AP ANN HTG 99.6% CONDNS DB,5.5573862464E-002,0.3054897152,Pass,Pass,0.2429359070,1.2149066435,Pass,Pass
 Warmup Convergence Information,SP-LOCKER ROOM-SCH-A-SPACE FUNCTION SYS-6 FLR-3 SCH-A HPLCMT-NORTH ZN,SizingPeriod: FORT MCMURRAY AP ANN HTG 99.6% CONDNS DB,5.5978302387E-002,0.2119349874,Pass,Pass,0.5782244398,3.5033987273,Pass,Pass
 Warmup Convergence Information,SP-LOCKER ROOM-SCH-B-SPACE FUNCTION SYS-6 FLR-1 SCH-B HPLCMT-NORTH ZN,SizingPeriod: FORT MCMURRAY AP ANN HTG 99.6% CONDNS DB,6.1396777037E-002,5.9670194075E-002,Pass,Pass,5.9659478742E-003,1.2975157123E-002,Pass,Pass
 Warmup Convergence Information,SP-LOCKER ROOM-SCH-C-SPACE FUNCTION SYS-6 FLR-2 SCH-C HPLCMT-WEST ZN,SizingPeriod: FORT MCMURRAY AP ANN HTG 99.6% CONDNS DB,5.0720015995E-002,6.7587516378E-002,Pass,Pass,0.1098802618,0.4047537162,Pass,Pass
 Warmup Convergence Information,SP-LOCKER ROOM-SCH-D-SPACE FUNCTION SYS-6 FLR-2 SCH-D HPLCMT-NORTH ZN,SizingPeriod: FORT MCMURRAY AP ANN HTG 99.6% CONDNS DB,6.3800568850E-002,9.9856130082E-002,Pass,Pass,2.2665262554,19.4456246903,Pass,Pass
 Warmup Convergence Information,SP-LOCKER ROOM-SCH-E-SPACE FUNCTION SYS-6 FLR-4 SCH-E HPLCMT-CORE ZN,SizingPeriod: FORT MCMURRAY AP ANN HTG 99.6% CONDNS DB,5.6457658993E-002,0.2891070619,Pass,Pass,0.1304358127,0.7002008470,Pass,Pass
 Warmup Convergence Information,SP-LOCKER ROOM-SCH-F-SPACE FUNCTION SYS-6 FLR-3 SCH-F HPLCMT-WEST ZN,SizingPeriod: FORT MCMURRAY AP ANN HTG 99.6% CONDNS DB,3.7851106143E-002,8.2662691720E-002,Pass,Pass,0.2607583369,0.8535157773,Pass,Pass
 Warmup Convergence Information,SP-LOCKER ROOM-SCH-G-SPACE FUNCTION SYS-6 FLR-2 SCH-G HPLCMT-EAST ZN,SizingPeriod: FORT MCMURRAY AP ANN HTG 99.6% CONDNS DB,3.6842394391E-002,5.8498392866E-002,Pass,Pass,2.0847670592E-002,6.0047707524E-002,Pass,Pass
 Warmup Convergence Information,SP-LOCKER ROOM-SCH-H-SPACE FUNCTION SYS-6 FLR-2 SCH-H HPLCMT-SOUTH ZN,SizingPeriod: FORT MCMURRAY AP ANN HTG 99.6% CONDNS DB,2.0351215943E-002,3.3083732069E-002,Pass,Pass,7.5373300991E-003,2.0898698759E-002,Pass,Pass
 Warmup Convergence Information,SP-LOCKER ROOM-SCH-I-SPACE FUNCTION SYS-6 FLR-2 SCH-I HPLCMT-CORE ZN,SizingPeriod: FORT MCMURRAY AP ANN HTG 99.6% CONDNS DB,5.0927528226E-002,6.3152288607E-002,Pass,Pass,2.4259199858E-002,6.8669548079E-002,Pass,Pass
! <Program Control Information:Threads/Parallel Sims>, Threading Supported,Maximum Number of Threads, Env Set Threads (OMP_NUM_THREADS), EP Env Set Threads (EP_OMP_NUM_THREADS), IDF Set Threads, Number of Threads Used (Interior Radiant Exchange), Number Nominal Surfaces, Number Parallel Sims
Program Control:Threads/Parallel Sims, No,1, N/A, N/A, N/A, N/A, N/A, N/A
End of Data
