Program Version,EnergyPlus, Version 8.9.0-eba93e8e1b, YMD=2019.03.28 14:21,
   ************* Beginning Zone Sizing Calculations
   ** Warning ** ProcessScheduleInput: Schedule:Day:Interval="ECONOMIZER MAX OA FRACTION 100 PCT DEFAULT", Blank Schedule Type Limits Name input -- will not be validated.
   ** Warning ** ProcessScheduleInput: Schedule:Day:Interval="SCHEDULE DAY 1", Blank Schedule Type Limits Name input -- will not be validated.
   ** Warning ** ProcessScheduleInput: Schedule:Day:Interval="SCHEDULE DAY 10", Blank Schedule Type Limits Name input -- will not be validated.
   ** Warning ** ProcessScheduleInput: Schedule:Day:Interval="SCHEDULE DAY 11", Blank Schedule Type Limits Name input -- will not be validated.
   ** Warning ** ProcessScheduleInput: Schedule:Day:Interval="SCHEDULE DAY 12", Blank Schedule Type Limits Name input -- will not be validated.
   ** Warning ** ProcessScheduleInput: Schedule:Day:Interval="SCHEDULE DAY 13", Blank Schedule Type Limits Name input -- will not be validated.
   ** Warning ** ProcessScheduleInput: Schedule:Day:Interval="SCHEDULE DAY 14", Blank Schedule Type Limits Name input -- will not be validated.
   ** Warning ** ProcessScheduleInput: Schedule:Day:Interval="SCHEDULE DAY 15", Blank Schedule Type Limits Name input -- will not be validated.
   ** Warning ** ProcessScheduleInput: Schedule:Day:Interval="SCHEDULE DAY 16", Blank Schedule Type Limits Name input -- will not be validated.
   ** Warning ** ProcessScheduleInput: Schedule:Day:Interval="SCHEDULE DAY 17", Blank Schedule Type Limits Name input -- will not be validated.
   ** Warning ** ProcessScheduleInput: Schedule:Day:Interval="SCHEDULE DAY 18", Blank Schedule Type Limits Name input -- will not be validated.
   ** Warning ** ProcessScheduleInput: Schedule:Day:Interval="SCHEDULE DAY 19", Blank Schedule Type Limits Name input -- will not be validated.
   ** Warning ** ProcessScheduleInput: Schedule:Day:Interval="SCHEDULE DAY 2", Blank Schedule Type Limits Name input -- will not be validated.
   ** Warning ** ProcessScheduleInput: Schedule:Day:Interval="SCHEDULE DAY 20", Blank Schedule Type Limits Name input -- will not be validated.
   ** Warning ** ProcessScheduleInput: Schedule:Day:Interval="SCHEDULE DAY 21", Blank Schedule Type Limits Name input -- will not be validated.
   ** Warning ** ProcessScheduleInput: Schedule:Day:Interval="SCHEDULE DAY 22", Blank Schedule Type Limits Name input -- will not be validated.
   ** Warning ** ProcessScheduleInput: Schedule:Day:Interval="SCHEDULE DAY 23", Blank Schedule Type Limits Name input -- will not be validated.
   ** Warning ** ProcessScheduleInput: Schedule:Day:Interval="SCHEDULE DAY 24", Blank Schedule Type Limits Name input -- will not be validated.
   ** Warning ** ProcessScheduleInput: Schedule:Day:Interval="SCHEDULE DAY 25", Blank Schedule Type Limits Name input -- will not be validated.
   ** Warning ** ProcessScheduleInput: Schedule:Day:Interval="SCHEDULE DAY 26", Blank Schedule Type Limits Name input -- will not be validated.
   ** Warning ** ProcessScheduleInput: Schedule:Day:Interval="SCHEDULE DAY 27", Blank Schedule Type Limits Name input -- will not be validated.
   ** Warning ** ProcessScheduleInput: Schedule:Day:Interval="SCHEDULE DAY 28", Blank Schedule Type Limits Name input -- will not be validated.
   ** Warning ** ProcessScheduleInput: Schedule:Day:Interval="SCHEDULE DAY 29", Blank Schedule Type Limits Name input -- will not be validated.
   ** Warning ** ProcessScheduleInput: Schedule:Day:Interval="SCHEDULE DAY 30", Blank Schedule Type Limits Name input -- will not be validated.
   ** Warning ** ProcessScheduleInput: Schedule:Day:Interval="SCHEDULE DAY 31", Blank Schedule Type Limits Name input -- will not be validated.
   ** Warning ** ProcessScheduleInput: Schedule:Day:Interval="SCHEDULE DAY 32", Blank Schedule Type Limits Name input -- will not be validated.
   ** Warning ** ProcessScheduleInput: Schedule:Day:Interval="SCHEDULE DAY 33", Blank Schedule Type Limits Name input -- will not be validated.
   ** Warning ** ProcessScheduleInput: Schedule:Day:Interval="SCHEDULE DAY 34", Blank Schedule Type Limits Name input -- will not be validated.
   ** Warning ** ProcessScheduleInput: Schedule:Day:Interval="SCHEDULE DAY 35", Blank Schedule Type Limits Name input -- will not be validated.
   ** Warning ** ProcessScheduleInput: Schedule:Day:Interval="SCHEDULE DAY 36", Blank Schedule Type Limits Name input -- will not be validated.
   ** Warning ** ProcessScheduleInput: Schedule:Day:Interval="SCHEDULE DAY 37", Blank Schedule Type Limits Name input -- will not be validated.
   ** Warning ** ProcessScheduleInput: Schedule:Day:Interval="SCHEDULE DAY 38", Blank Schedule Type Limits Name input -- will not be validated.
   ** Warning ** ProcessScheduleInput: Schedule:Day:Interval="SCHEDULE DAY 39", Blank Schedule Type Limits Name input -- will not be validated.
   ** Warning ** ProcessScheduleInput: Schedule:Day:Interval="SCHEDULE DAY 40", Blank Schedule Type Limits Name input -- will not be validated.
   ** Warning ** ProcessScheduleInput: Schedule:Day:Interval="SCHEDULE DAY 41", Blank Schedule Type Limits Name input -- will not be validated.
   ** Warning ** ProcessScheduleInput: Schedule:Day:Interval="SCHEDULE DAY 42", Blank Schedule Type Limits Name input -- will not be validated.
   ** Warning ** ProcessScheduleInput: Schedule:Day:Interval="SCHEDULE DAY 43", Blank Schedule Type Limits Name input -- will not be validated.
   ** Warning ** ProcessScheduleInput: Schedule:Day:Interval="SCHEDULE DAY 44", Blank Schedule Type Limits Name input -- will not be validated.
   ** Warning ** ProcessScheduleInput: Schedule:Day:Interval="SCHEDULE DAY 45", Blank Schedule Type Limits Name input -- will not be validated.
   ** Warning ** ProcessScheduleInput: Schedule:Day:Interval="SCHEDULE DAY 46", Blank Schedule Type Limits Name input -- will not be validated.
   ** Warning ** ProcessScheduleInput: Schedule:Day:Interval="SCHEDULE DAY 47", Blank Schedule Type Limits Name input -- will not be validated.
   ** Warning ** ProcessScheduleInput: Schedule:Day:Interval="SCHEDULE DAY 48", Blank Schedule Type Limits Name input -- will not be validated.
   ** Warning ** ProcessScheduleInput: Schedule:Day:Interval="SCHEDULE DAY 49", Blank Schedule Type Limits Name input -- will not be validated.
   ** Warning ** ProcessScheduleInput: Schedule:Day:Interval="SCHEDULE DAY 50", Blank Schedule Type Limits Name input -- will not be validated.
   ** Warning ** ProcessScheduleInput: Schedule:Day:Interval="SCHEDULE DAY 51", Blank Schedule Type Limits Name input -- will not be validated.
   ** Warning ** ProcessScheduleInput: Schedule:Day:Interval="SCHEDULE DAY 52", Blank Schedule Type Limits Name input -- will not be validated.
   ** Warning ** ProcessScheduleInput: Schedule:Day:Interval="SCHEDULE DAY 53", Blank Schedule Type Limits Name input -- will not be validated.
   ** Warning ** ProcessScheduleInput: Schedule:Day:Interval="SCHEDULE DAY 54", Blank Schedule Type Limits Name input -- will not be validated.
   ** Warning ** ProcessScheduleInput: Schedule:Day:Interval="SCHEDULE DAY 55", Blank Schedule Type Limits Name input -- will not be validated.
   ** Warning ** ProcessScheduleInput: Schedule:Day:Interval="SCHEDULE DAY 8", Blank Schedule Type Limits Name input -- will not be validated.
   ** Warning ** ProcessScheduleInput: Schedule:Day:Interval="SCHEDULE DAY 9", Blank Schedule Type Limits Name input -- will not be validated.
   ** Warning ** ProcessScheduleInput: Schedule:Year="ECONOMIZER MAX OA FRACTION 100 PCT", Blank Schedule Type Limits Name input -- will not be validated.
   ** Warning ** ProcessScheduleInput: Schedule:Year="SCHEDULE RULESET 10", Blank Schedule Type Limits Name input -- will not be validated.
   ** Warning ** ProcessScheduleInput: Schedule:Year="SCHEDULE RULESET 11", Blank Schedule Type Limits Name input -- will not be validated.
   ** Warning ** ProcessScheduleInput: Schedule:Year="SCHEDULE RULESET 12", Blank Schedule Type Limits Name input -- will not be validated.
   ** Warning ** ProcessScheduleInput: Schedule:Year="SCHEDULE RULESET 13", Blank Schedule Type Limits Name input -- will not be validated.
   ** Warning ** ProcessScheduleInput: Schedule:Year="SCHEDULE RULESET 14", Blank Schedule Type Limits Name input -- will not be validated.
   ** Warning ** ProcessScheduleInput: Schedule:Year="SCHEDULE RULESET 15", Blank Schedule Type Limits Name input -- will not be validated.
   ** Warning ** ProcessScheduleInput: Schedule:Year="SCHEDULE RULESET 16", Blank Schedule Type Limits Name input -- will not be validated.
   ** Warning ** ProcessScheduleInput: Schedule:Year="SCHEDULE RULESET 17", Blank Schedule Type Limits Name input -- will not be validated.
   ** Warning ** ProcessScheduleInput: Schedule:Year="SCHEDULE RULESET 18", Blank Schedule Type Limits Name input -- will not be validated.
   ** Warning ** ProcessScheduleInput: Schedule:Year="SCHEDULE RULESET 19", Blank Schedule Type Limits Name input -- will not be validated.
   ** Warning ** ProcessScheduleInput: Schedule:Year="SCHEDULE RULESET 20", Blank Schedule Type Limits Name input -- will not be validated.
   ** Warning ** ProcessScheduleInput: Schedule:Year="SCHEDULE RULESET 3", Blank Schedule Type Limits Name input -- will not be validated.
   ** Warning ** ProcessScheduleInput: Schedule:Year="SCHEDULE RULESET 4", Blank Schedule Type Limits Name input -- will not be validated.
   ** Warning ** ProcessScheduleInput: Schedule:Year="SCHEDULE RULESET 5", Blank Schedule Type Limits Name input -- will not be validated.
   ** Warning ** ProcessScheduleInput: Schedule:Year="SCHEDULE RULESET 6", Blank Schedule Type Limits Name input -- will not be validated.
   ** Warning ** ProcessScheduleInput: Schedule:Year="SCHEDULE RULESET 7", Blank Schedule Type Limits Name input -- will not be validated.
   ** Warning ** ProcessScheduleInput: Schedule:Year="SCHEDULE RULESET 8", Blank Schedule Type Limits Name input -- will not be validated.
   ** Warning ** ProcessScheduleInput: Schedule:Year="SCHEDULE RULESET 9", Blank Schedule Type Limits Name input -- will not be validated.
   ** Warning ** ProcessScheduleInput: Schedule:Constant="ALWAYS OFF DISCRETE", Blank Schedule Type Limits Name input -- will not be validated.
   ** Warning ** ProcessScheduleInput: Schedule:Constant="ALWAYS ON CONTINUOUS", Blank Schedule Type Limits Name input -- will not be validated.
   ** Warning ** CheckUsedConstructions: There are 27 nominally unused constructions in input.
   **   ~~~   ** For explicit details on each unused construction, use Output:Diagnostics,DisplayExtraWarnings;
   ** Warning ** GetInternalHeatGains: People Combination of ZoneList and Object Name generate a name too long.
   **   ~~~   ** Object Name="SPACE FUNCTION LABORATORY - CLASSROOMS PEOPLE".
   **   ~~~   ** ZoneList/Zone Name="SP-LABORATORY - CLASSROOMS-SPACE FUNCTION SYS-3 FLR-4 SCH-D HPLCMT-SOUTH ZN".
   **   ~~~   ** Item length=[120] > Maximum Length=[100]. You may need to shorten the names.
   **   ~~~   ** Shortening the Object Name by [21] characters will assure uniqueness for this ZoneList.
   **   ~~~   ** name that will be used (may be needed in reporting)="SP-LABORATORY - CLASSROOMS-SPACE FUNCTION SYS-3 FLR-4 SCH-D HPLCMT-SOUTH ZN SPACE FUNCTION LABORATORY - CLASSROOMS PEOPLE".
   ** Warning ** GetInternalHeatGains: People Combination of ZoneList and Object Name generate a name too long.
   **   ~~~   ** Object Name="SPACE FUNCTION LABORATORY - OTHER PEOPLE".
   **   ~~~   ** ZoneList/Zone Name="SP-LABORATORY - OTHER-SPACE FUNCTION SYS-3 FLR-4 SCH-A HPLCMT-EAST ZN".
   **   ~~~   ** Item length=[109] > Maximum Length=[100]. You may need to shorten the names.
   **   ~~~   ** Shortening the Object Name by [10] characters will assure uniqueness for this ZoneList.
   **   ~~~   ** name that will be used (may be needed in reporting)="SP-LABORATORY - OTHER-SPACE FUNCTION SYS-3 FLR-4 SCH-A HPLCMT-EAST ZN SPACE FUNCTION LABORATORY - OTHER PEOPLE".
   ** Warning ** GetInternalHeatGains: People Combination of ZoneList and Object Name generate a name too long.
   **   ~~~   ** Object Name="SPACE FUNCTION LAUNDRY/WASHING AREA PEOPLE".
   **   ~~~   ** ZoneList/Zone Name="SP-LAUNDRY/WASHING AREA-SPACE FUNCTION SYS-3 FLR-4 SCH-C HPLCMT-NORTH ZN".
   **   ~~~   ** Item length=[114] > Maximum Length=[100]. You may need to shorten the names.
   **   ~~~   ** Shortening the Object Name by [15] characters will assure uniqueness for this ZoneList.
   **   ~~~   ** name that will be used (may be needed in reporting)="SP-LAUNDRY/WASHING AREA-SPACE FUNCTION SYS-3 FLR-4 SCH-C HPLCMT-NORTH ZN SPACE FUNCTION LAUNDRY/WASHING AREA PEOPLE".
   ** Warning ** GetInternalHeatGains: People Combination of ZoneList and Object Name generate a name too long.
   **   ~~~   ** Object Name="SPACE FUNCTION LOADING DOCK INTERIOR PEOPLE".
   **   ~~~   ** ZoneList/Zone Name="SP-LOADING DOCK INTERIOR-SPACE FUNCTION SYS-4 FLR-3 SCH-H HPLCMT-CORE ZN".
   **   ~~~   ** Item length=[115] > Maximum Length=[100]. You may need to shorten the names.
   **   ~~~   ** Shortening the Object Name by [16] characters will assure uniqueness for this ZoneList.
   **   ~~~   ** name that will be used (may be needed in reporting)="SP-LOADING DOCK INTERIOR-SPACE FUNCTION SYS-4 FLR-3 SCH-H HPLCMT-CORE ZN SPACE FUNCTION LOADING DOCK INTERIOR PEOPLE".
   ** Warning ** GetInternalHeatGains: People Combination of ZoneList and Object Name generate a name too long.
   **   ~~~   ** Object Name="SPACE FUNCTION LOBBY - ELEVATOR PEOPLE".
   **   ~~~   ** ZoneList/Zone Name="SP-LOBBY - ELEVATOR-SPACE FUNCTION SYS-3 FLR-3 SCH-C HPLCMT-SOUTH ZN".
   **   ~~~   ** Item length=[106] > Maximum Length=[100]. You may need to shorten the names.
   **   ~~~   ** Shortening the Object Name by [7] characters will assure uniqueness for this ZoneList.
   **   ~~~   ** name that will be used (may be needed in reporting)="SP-LOBBY - ELEVATOR-SPACE FUNCTION SYS-3 FLR-3 SCH-C HPLCMT-SOUTH ZN SPACE FUNCTION LOBBY - ELEVATOR PEOPLE".
   ** Warning ** GetInternalHeatGains: People Combination of ZoneList and Object Name generate a name too long.
   **   ~~~   ** Object Name="SPACE FUNCTION LOBBY - MOTION PICTURE THEATRE PEOPLE".
   **   ~~~   ** ZoneList/Zone Name="SP-LOBBY - MOTION PICTURE THEATRE-SPACE FUNCTION SYS-3 FLR-1 SCH-C HPLCMT-CORE ZN".
   **   ~~~   ** Item length=[133] > Maximum Length=[100]. You may need to shorten the names.
   **   ~~~   ** Shortening the Object Name by [34] characters will assure uniqueness for this ZoneList.
   **   ~~~   ** name that will be used (may be needed in reporting)="SP-LOBBY - MOTION PICTURE THEATRE-SPACE FUNCTION SYS-3 FLR-1 SCH-C HPLCMT-CORE ZN SPACE FUNCTION LOBBY - MOTION PICTURE THEATRE PEOPLE".
   ** Warning ** GetInternalHeatGains: People Combination of ZoneList and Object Name generate a name too long.
   **   ~~~   ** Object Name="SPACE FUNCTION LOBBY - PERFORMING ARTS THEATRE PEOPLE".
   **   ~~~   ** ZoneList/Zone Name="SP-LOBBY - PERFORMING ARTS THEATRE-SPACE FUNCTION SYS-3 FLR-1 SCH-C HPLCMT-WEST ZN".
   **   ~~~   ** Item length=[135] > Maximum Length=[100]. You may need to shorten the names.
   **   ~~~   ** Shortening the Object Name by [36] characters will assure uniqueness for this ZoneList.
   **   ~~~   ** name that will be used (may be needed in reporting)="SP-LOBBY - PERFORMING ARTS THEATRE-SPACE FUNCTION SYS-3 FLR-1 SCH-C HPLCMT-WEST ZN SPACE FUNCTION LOBBY - PERFORMING ARTS THEATRE PEOPLE".
   ** Warning ** GetInternalHeatGains: People Combination of ZoneList and Object Name generate a name too long.
   **   ~~~   ** Object Name="SPACE FUNCTION LOBBY - SPACE DESIGNED TO ANSI/IES RP-28 (USED PRIMARILY BY RESIDENTS) PEOPLE".
   **   ~~~   ** ZoneList/Zone Name="SP-LOBBY - SPACE DESIGNED TO ANSI/IES RP-28 (USED PRIMARILY BY RESIDENTS)-SPACE FUNCTION SYS-3 FLR-1 SCH-B HPLCMT-NORTH ZN".
   **   ~~~   ** Item length=[214] > Maximum Length=[100]. You may need to shorten the names.
   **   ~~~   ** Shortening the Object Name by [115] characters will assure uniqueness for this ZoneList.
   **   ~~~   ** name that will be used (may be needed in reporting)="SP-LOBBY - SPACE DESIGNED TO ANSI/IES RP-28 (USED PRIMARILY BY RESIDENTS)-SPACE FUNCTION SYS-3 FLR-1 SCH-B HPLCMT-NORTH ZN SPACE FUNCTION LOBBY - SPACE DESIGNED TO ANSI/IES RP-28 (USED PRIMARILY BY RESIDENTS) PEOPLE".
   ** Warning ** GetInternalHeatGains: People Combination of ZoneList and Object Name generate a name too long.
   **   ~~~   ** Object Name="SPACE FUNCTION LOCKER ROOM-SCH-A PEOPLE".
   **   ~~~   ** ZoneList/Zone Name="SP-LOCKER ROOM-SCH-A-SPACE FUNCTION SYS-6 FLR-1 SCH-A HPLCMT-SOUTH ZN".
   **   ~~~   ** Item length=[108] > Maximum Length=[100]. You may need to shorten the names.
   **   ~~~   ** Shortening the Object Name by [9] characters will assure uniqueness for this ZoneList.
   **   ~~~   ** name that will be used (may be needed in reporting)="SP-LOCKER ROOM-SCH-A-SPACE FUNCTION SYS-6 FLR-1 SCH-A HPLCMT-SOUTH ZN SPACE FUNCTION LOCKER ROOM-SCH-A PEOPLE".
   ** Warning ** GetInternalHeatGains: People Combination of ZoneList and Object Name generate a name too long.
   **   ~~~   ** Object Name="SPACE FUNCTION LOCKER ROOM-SCH-B PEOPLE".
   **   ~~~   ** ZoneList/Zone Name="SP-LOCKER ROOM-SCH-B-SPACE FUNCTION SYS-6 FLR-1 SCH-B HPLCMT-EAST ZN".
   **   ~~~   ** Item length=[107] > Maximum Length=[100]. You may need to shorten the names.
   **   ~~~   ** Shortening the Object Name by [8] characters will assure uniqueness for this ZoneList.
   **   ~~~   ** name that will be used (may be needed in reporting)="SP-LOCKER ROOM-SCH-B-SPACE FUNCTION SYS-6 FLR-1 SCH-B HPLCMT-EAST ZN SPACE FUNCTION LOCKER ROOM-SCH-B PEOPLE".
   ** Warning ** GetInternalHeatGains: People Combination of ZoneList and Object Name generate a name too long.
   **   ~~~   ** Object Name="SPACE FUNCTION LOCKER ROOM-SCH-C PEOPLE".
   **   ~~~   ** ZoneList/Zone Name="SP-LOCKER ROOM-SCH-C-SPACE FUNCTION SYS-6 FLR-2 SCH-C HPLCMT-WEST ZN".
   **   ~~~   ** Item length=[107] > Maximum Length=[100]. You may need to shorten the names.
   **   ~~~   ** Shortening the Object Name by [8] characters will assure uniqueness for this ZoneList.
   **   ~~~   ** name that will be used (may be needed in reporting)="SP-LOCKER ROOM-SCH-C-SPACE FUNCTION SYS-6 FLR-2 SCH-C HPLCMT-WEST ZN SPACE FUNCTION LOCKER ROOM-SCH-C PEOPLE".
   ** Warning ** GetInternalHeatGains: People Combination of ZoneList and Object Name generate a name too long.
   **   ~~~   ** Object Name="SPACE FUNCTION LOCKER ROOM-SCH-D PEOPLE".
   **   ~~~   ** ZoneList/Zone Name="SP-LOCKER ROOM-SCH-D-SPACE FUNCTION SYS-6 FLR-4 SCH-D HPLCMT-WEST ZN".
   **   ~~~   ** Item length=[107] > Maximum Length=[100]. You may need to shorten the names.
   **   ~~~   ** Shortening the Object Name by [8] characters will assure uniqueness for this ZoneList.
   **   ~~~   ** name that will be used (may be needed in reporting)="SP-LOCKER ROOM-SCH-D-SPACE FUNCTION SYS-6 FLR-4 SCH-D HPLCMT-WEST ZN SPACE FUNCTION LOCKER ROOM-SCH-D PEOPLE".
   ** Warning ** GetInternalHeatGains: People Combination of ZoneList and Object Name generate a name too long.
   **   ~~~   ** Object Name="SPACE FUNCTION LOCKER ROOM-SCH-E PEOPLE".
   **   ~~~   ** ZoneList/Zone Name="SP-LOCKER ROOM-SCH-E-SPACE FUNCTION SYS-6 FLR-2 SCH-E HPLCMT-NORTH ZN".
   **   ~~~   ** Item length=[108] > Maximum Length=[100]. You may need to shorten the names.
   **   ~~~   ** Shortening the Object Name by [9] characters will assure uniqueness for this ZoneList.
   **   ~~~   ** name that will be used (may be needed in reporting)="SP-LOCKER ROOM-SCH-E-SPACE FUNCTION SYS-6 FLR-2 SCH-E HPLCMT-NORTH ZN SPACE FUNCTION LOCKER ROOM-SCH-E PEOPLE".
   ** Warning ** GetInternalHeatGains: People Combination of ZoneList and Object Name generate a name too long.
   **   ~~~   ** Object Name="SPACE FUNCTION LOCKER ROOM-SCH-F PEOPLE".
   **   ~~~   ** ZoneList/Zone Name="SP-LOCKER ROOM-SCH-F-SPACE FUNCTION SYS-6 FLR-2 SCH-F HPLCMT-EAST ZN".
   **   ~~~   ** Item length=[107] > Maximum Length=[100]. You may need to shorten the names.
   **   ~~~   ** Shortening the Object Name by [8] characters will assure uniqueness for this ZoneList.
   **   ~~~   ** name that will be used (may be needed in reporting)="SP-LOCKER ROOM-SCH-F-SPACE FUNCTION SYS-6 FLR-2 SCH-F HPLCMT-EAST ZN SPACE FUNCTION LOCKER ROOM-SCH-F PEOPLE".
   ** Warning ** GetInternalHeatGains: People Combination of ZoneList and Object Name generate a name too long.
   **   ~~~   ** Object Name="SPACE FUNCTION LOCKER ROOM-SCH-G PEOPLE".
   **   ~~~   ** ZoneList/Zone Name="SP-LOCKER ROOM-SCH-G-SPACE FUNCTION SYS-6 FLR-2 SCH-G HPLCMT-SOUTH ZN".
   **   ~~~   ** Item length=[108] > Maximum Length=[100]. You may need to shorten the names.
   **   ~~~   ** Shortening the Object Name by [9] characters will assure uniqueness for this ZoneList.
   **   ~~~   ** name that will be used (may be needed in reporting)="SP-LOCKER ROOM-SCH-G-SPACE FUNCTION SYS-6 FLR-2 SCH-G HPLCMT-SOUTH ZN SPACE FUNCTION LOCKER ROOM-SCH-G PEOPLE".
   ** Warning ** GetInternalHeatGains: People Combination of ZoneList and Object Name generate a name too long.
   **   ~~~   ** Object Name="SPACE FUNCTION LOCKER ROOM-SCH-H PEOPLE".
   **   ~~~   ** ZoneList/Zone Name="SP-LOCKER ROOM-SCH-H-SPACE FUNCTION SYS-6 FLR-3 SCH-H HPLCMT-NORTH ZN".
   **   ~~~   ** Item length=[108] > Maximum Length=[100]. You may need to shorten the names.
   **   ~~~   ** Shortening the Object Name by [9] characters will assure uniqueness for this ZoneList.
   **   ~~~   ** name that will be used (may be needed in reporting)="SP-LOCKER ROOM-SCH-H-SPACE FUNCTION SYS-6 FLR-3 SCH-H HPLCMT-NORTH ZN SPACE FUNCTION LOCKER ROOM-SCH-H PEOPLE".
   ** Warning ** GetInternalHeatGains: People Combination of ZoneList and Object Name generate a name too long.
   **   ~~~   ** Object Name="SPACE FUNCTION LOCKER ROOM-SCH-I PEOPLE".
   **   ~~~   ** ZoneList/Zone Name="SP-LOCKER ROOM-SCH-I-SPACE FUNCTION SYS-6 FLR-2 SCH-I HPLCMT-CORE ZN".
   **   ~~~   ** Item length=[107] > Maximum Length=[100]. You may need to shorten the names.
   **   ~~~   ** Shortening the Object Name by [8] characters will assure uniqueness for this ZoneList.
   **   ~~~   ** name that will be used (may be needed in reporting)="SP-LOCKER ROOM-SCH-I-SPACE FUNCTION SYS-6 FLR-2 SCH-I HPLCMT-CORE ZN SPACE FUNCTION LOCKER ROOM-SCH-I PEOPLE".
   ** Warning ** GetInternalHeatGains: Lights Combination of ZoneList and Object Name generate a name too long.
   **   ~~~   ** Object Name="SPACE FUNCTION LABORATORY - CLASSROOMS LIGHTS".
   **   ~~~   ** ZoneList/Zone Name="SP-LABORATORY - CLASSROOMS-SPACE FUNCTION SYS-3 FLR-4 SCH-D HPLCMT-SOUTH ZN".
   **   ~~~   ** Item length=[120] > Maximum Length=[100]. You may need to shorten the names.
   **   ~~~   ** Shortening the Object Name by [21] characters will assure uniqueness for this ZoneList.
   **   ~~~   ** name that will be used (may be needed in reporting)="SP-LABORATORY - CLASSROOMS-SPACE FUNCTION SYS-3 FLR-4 SCH-D HPLCMT-SOUTH ZN SPACE FUNCTION LABORATORY - CLASSROOMS LIGHTS".
   ** Warning ** GetInternalHeatGains: Lights Combination of ZoneList and Object Name generate a name too long.
   **   ~~~   ** Object Name="SPACE FUNCTION LABORATORY - OTHER LIGHTS".
   **   ~~~   ** ZoneList/Zone Name="SP-LABORATORY - OTHER-SPACE FUNCTION SYS-3 FLR-4 SCH-A HPLCMT-EAST ZN".
   **   ~~~   ** Item length=[109] > Maximum Length=[100]. You may need to shorten the names.
   **   ~~~   ** Shortening the Object Name by [10] characters will assure uniqueness for this ZoneList.
   **   ~~~   ** name that will be used (may be needed in reporting)="SP-LABORATORY - OTHER-SPACE FUNCTION SYS-3 FLR-4 SCH-A HPLCMT-EAST ZN SPACE FUNCTION LABORATORY - OTHER LIGHTS".
   ** Warning ** GetInternalHeatGains: Lights Combination of ZoneList and Object Name generate a name too long.
   **   ~~~   ** Object Name="SPACE FUNCTION LAUNDRY/WASHING AREA LIGHTS".
   **   ~~~   ** ZoneList/Zone Name="SP-LAUNDRY/WASHING AREA-SPACE FUNCTION SYS-3 FLR-4 SCH-C HPLCMT-NORTH ZN".
   **   ~~~   ** Item length=[114] > Maximum Length=[100]. You may need to shorten the names.
   **   ~~~   ** Shortening the Object Name by [15] characters will assure uniqueness for this ZoneList.
   **   ~~~   ** name that will be used (may be needed in reporting)="SP-LAUNDRY/WASHING AREA-SPACE FUNCTION SYS-3 FLR-4 SCH-C HPLCMT-NORTH ZN SPACE FUNCTION LAUNDRY/WASHING AREA LIGHTS".
   ** Warning ** GetInternalHeatGains: Lights Combination of ZoneList and Object Name generate a name too long.
   **   ~~~   ** Object Name="SPACE FUNCTION LOADING DOCK INTERIOR LIGHTS".
   **   ~~~   ** ZoneList/Zone Name="SP-LOADING DOCK INTERIOR-SPACE FUNCTION SYS-4 FLR-3 SCH-H HPLCMT-CORE ZN".
   **   ~~~   ** Item length=[115] > Maximum Length=[100]. You may need to shorten the names.
   **   ~~~   ** Shortening the Object Name by [16] characters will assure uniqueness for this ZoneList.
   **   ~~~   ** name that will be used (may be needed in reporting)="SP-LOADING DOCK INTERIOR-SPACE FUNCTION SYS-4 FLR-3 SCH-H HPLCMT-CORE ZN SPACE FUNCTION LOADING DOCK INTERIOR LIGHTS".
   ** Warning ** GetInternalHeatGains: Lights Combination of ZoneList and Object Name generate a name too long.
   **   ~~~   ** Object Name="SPACE FUNCTION LOBBY - ELEVATOR LIGHTS".
   **   ~~~   ** ZoneList/Zone Name="SP-LOBBY - ELEVATOR-SPACE FUNCTION SYS-3 FLR-3 SCH-C HPLCMT-SOUTH ZN".
   **   ~~~   ** Item length=[106] > Maximum Length=[100]. You may need to shorten the names.
   **   ~~~   ** Shortening the Object Name by [7] characters will assure uniqueness for this ZoneList.
   **   ~~~   ** name that will be used (may be needed in reporting)="SP-LOBBY - ELEVATOR-SPACE FUNCTION SYS-3 FLR-3 SCH-C HPLCMT-SOUTH ZN SPACE FUNCTION LOBBY - ELEVATOR LIGHTS".
   ** Warning ** GetInternalHeatGains: Lights Combination of ZoneList and Object Name generate a name too long.
   **   ~~~   ** Object Name="SPACE FUNCTION LOBBY - MOTION PICTURE THEATRE LIGHTS".
   **   ~~~   ** ZoneList/Zone Name="SP-LOBBY - MOTION PICTURE THEATRE-SPACE FUNCTION SYS-3 FLR-1 SCH-C HPLCMT-CORE ZN".
   **   ~~~   ** Item length=[133] > Maximum Length=[100]. You may need to shorten the names.
   **   ~~~   ** Shortening the Object Name by [34] characters will assure uniqueness for this ZoneList.
   **   ~~~   ** name that will be used (may be needed in reporting)="SP-LOBBY - MOTION PICTURE THEATRE-SPACE FUNCTION SYS-3 FLR-1 SCH-C HPLCMT-CORE ZN SPACE FUNCTION LOBBY - MOTION PICTURE THEATRE LIGHTS".
   ** Warning ** GetInternalHeatGains: Lights Combination of ZoneList and Object Name generate a name too long.
   **   ~~~   ** Object Name="SPACE FUNCTION LOBBY - PERFORMING ARTS THEATRE LIGHTS".
   **   ~~~   ** ZoneList/Zone Name="SP-LOBBY - PERFORMING ARTS THEATRE-SPACE FUNCTION SYS-3 FLR-1 SCH-C HPLCMT-WEST ZN".
   **   ~~~   ** Item length=[135] > Maximum Length=[100]. You may need to shorten the names.
   **   ~~~   ** Shortening the Object Name by [36] characters will assure uniqueness for this ZoneList.
   **   ~~~   ** name that will be used (may be needed in reporting)="SP-LOBBY - PERFORMING ARTS THEATRE-SPACE FUNCTION SYS-3 FLR-1 SCH-C HPLCMT-WEST ZN SPACE FUNCTION LOBBY - PERFORMING ARTS THEATRE LIGHTS".
   ** Warning ** GetInternalHeatGains: Lights Combination of ZoneList and Object Name generate a name too long.
   **   ~~~   ** Object Name="SPACE FUNCTION LOBBY - SPACE DESIGNED TO ANSI/IES RP-28 (USED PRIMARILY BY RESIDENTS) LIGHTS".
   **   ~~~   ** ZoneList/Zone Name="SP-LOBBY - SPACE DESIGNED TO ANSI/IES RP-28 (USED PRIMARILY BY RESIDENTS)-SPACE FUNCTION SYS-3 FLR-1 SCH-B HPLCMT-NORTH ZN".
   **   ~~~   ** Item length=[214] > Maximum Length=[100]. You may need to shorten the names.
   **   ~~~   ** Shortening the Object Name by [115] characters will assure uniqueness for this ZoneList.
   **   ~~~   ** name that will be used (may be needed in reporting)="SP-LOBBY - SPACE DESIGNED TO ANSI/IES RP-28 (USED PRIMARILY BY RESIDENTS)-SPACE FUNCTION SYS-3 FLR-1 SCH-B HPLCMT-NORTH ZN SPACE FUNCTION LOBBY - SPACE DESIGNED TO ANSI/IES RP-28 (USED PRIMARILY BY RESIDENTS) LIGHTS".
   ** Warning ** GetInternalHeatGains: Lights Combination of ZoneList and Object Name generate a name too long.
   **   ~~~   ** Object Name="SPACE FUNCTION LOCKER ROOM-SCH-A LIGHTS".
   **   ~~~   ** ZoneList/Zone Name="SP-LOCKER ROOM-SCH-A-SPACE FUNCTION SYS-6 FLR-1 SCH-A HPLCMT-SOUTH ZN".
   **   ~~~   ** Item length=[108] > Maximum Length=[100]. You may need to shorten the names.
   **   ~~~   ** Shortening the Object Name by [9] characters will assure uniqueness for this ZoneList.
   **   ~~~   ** name that will be used (may be needed in reporting)="SP-LOCKER ROOM-SCH-A-SPACE FUNCTION SYS-6 FLR-1 SCH-A HPLCMT-SOUTH ZN SPACE FUNCTION LOCKER ROOM-SCH-A LIGHTS".
   ** Warning ** GetInternalHeatGains: Lights Combination of ZoneList and Object Name generate a name too long.
   **   ~~~   ** Object Name="SPACE FUNCTION LOCKER ROOM-SCH-B LIGHTS".
   **   ~~~   ** ZoneList/Zone Name="SP-LOCKER ROOM-SCH-B-SPACE FUNCTION SYS-6 FLR-1 SCH-B HPLCMT-EAST ZN".
   **   ~~~   ** Item length=[107] > Maximum Length=[100]. You may need to shorten the names.
   **   ~~~   ** Shortening the Object Name by [8] characters will assure uniqueness for this ZoneList.
   **   ~~~   ** name that will be used (may be needed in reporting)="SP-LOCKER ROOM-SCH-B-SPACE FUNCTION SYS-6 FLR-1 SCH-B HPLCMT-EAST ZN SPACE FUNCTION LOCKER ROOM-SCH-B LIGHTS".
   ** Warning ** GetInternalHeatGains: Lights Combination of ZoneList and Object Name generate a name too long.
   **   ~~~   ** Object Name="SPACE FUNCTION LOCKER ROOM-SCH-C LIGHTS".
   **   ~~~   ** ZoneList/Zone Name="SP-LOCKER ROOM-SCH-C-SPACE FUNCTION SYS-6 FLR-2 SCH-C HPLCMT-WEST ZN".
   **   ~~~   ** Item length=[107] > Maximum Length=[100]. You may need to shorten the names.
   **   ~~~   ** Shortening the Object Name by [8] characters will assure uniqueness for this ZoneList.
   **   ~~~   ** name that will be used (may be needed in reporting)="SP-LOCKER ROOM-SCH-C-SPACE FUNCTION SYS-6 FLR-2 SCH-C HPLCMT-WEST ZN SPACE FUNCTION LOCKER ROOM-SCH-C LIGHTS".
   ** Warning ** GetInternalHeatGains: Lights Combination of ZoneList and Object Name generate a name too long.
   **   ~~~   ** Object Name="SPACE FUNCTION LOCKER ROOM-SCH-D LIGHTS".
   **   ~~~   ** ZoneList/Zone Name="SP-LOCKER ROOM-SCH-D-SPACE FUNCTION SYS-6 FLR-4 SCH-D HPLCMT-WEST ZN".
   **   ~~~   ** Item length=[107] > Maximum Length=[100]. You may need to shorten the names.
   **   ~~~   ** Shortening the Object Name by [8] characters will assure uniqueness for this ZoneList.
   **   ~~~   ** name that will be used (may be needed in reporting)="SP-LOCKER ROOM-SCH-D-SPACE FUNCTION SYS-6 FLR-4 SCH-D HPLCMT-WEST ZN SPACE FUNCTION LOCKER ROOM-SCH-D LIGHTS".
   ** Warning ** GetInternalHeatGains: Lights Combination of ZoneList and Object Name generate a name too long.
   **   ~~~   ** Object Name="SPACE FUNCTION LOCKER ROOM-SCH-E LIGHTS".
   **   ~~~   ** ZoneList/Zone Name="SP-LOCKER ROOM-SCH-E-SPACE FUNCTION SYS-6 FLR-2 SCH-E HPLCMT-NORTH ZN".
   **   ~~~   ** Item length=[108] > Maximum Length=[100]. You may need to shorten the names.
   **   ~~~   ** Shortening the Object Name by [9] characters will assure uniqueness for this ZoneList.
   **   ~~~   ** name that will be used (may be needed in reporting)="SP-LOCKER ROOM-SCH-E-SPACE FUNCTION SYS-6 FLR-2 SCH-E HPLCMT-NORTH ZN SPACE FUNCTION LOCKER ROOM-SCH-E LIGHTS".
   ** Warning ** GetInternalHeatGains: Lights Combination of ZoneList and Object Name generate a name too long.
   **   ~~~   ** Object Name="SPACE FUNCTION LOCKER ROOM-SCH-F LIGHTS".
   **   ~~~   ** ZoneList/Zone Name="SP-LOCKER ROOM-SCH-F-SPACE FUNCTION SYS-6 FLR-2 SCH-F HPLCMT-EAST ZN".
   **   ~~~   ** Item length=[107] > Maximum Length=[100]. You may need to shorten the names.
   **   ~~~   ** Shortening the Object Name by [8] characters will assure uniqueness for this ZoneList.
   **   ~~~   ** name that will be used (may be needed in reporting)="SP-LOCKER ROOM-SCH-F-SPACE FUNCTION SYS-6 FLR-2 SCH-F HPLCMT-EAST ZN SPACE FUNCTION LOCKER ROOM-SCH-F LIGHTS".
   ** Warning ** GetInternalHeatGains: Lights Combination of ZoneList and Object Name generate a name too long.
   **   ~~~   ** Object Name="SPACE FUNCTION LOCKER ROOM-SCH-G LIGHTS".
   **   ~~~   ** ZoneList/Zone Name="SP-LOCKER ROOM-SCH-G-SPACE FUNCTION SYS-6 FLR-2 SCH-G HPLCMT-SOUTH ZN".
   **   ~~~   ** Item length=[108] > Maximum Length=[100]. You may need to shorten the names.
   **   ~~~   ** Shortening the Object Name by [9] characters will assure uniqueness for this ZoneList.
   **   ~~~   ** name that will be used (may be needed in reporting)="SP-LOCKER ROOM-SCH-G-SPACE FUNCTION SYS-6 FLR-2 SCH-G HPLCMT-SOUTH ZN SPACE FUNCTION LOCKER ROOM-SCH-G LIGHTS".
   ** Warning ** GetInternalHeatGains: Lights Combination of ZoneList and Object Name generate a name too long.
   **   ~~~   ** Object Name="SPACE FUNCTION LOCKER ROOM-SCH-H LIGHTS".
   **   ~~~   ** ZoneList/Zone Name="SP-LOCKER ROOM-SCH-H-SPACE FUNCTION SYS-6 FLR-3 SCH-H HPLCMT-NORTH ZN".
   **   ~~~   ** Item length=[108] > Maximum Length=[100]. You may need to shorten the names.
   **   ~~~   ** Shortening the Object Name by [9] characters will assure uniqueness for this ZoneList.
   **   ~~~   ** name that will be used (may be needed in reporting)="SP-LOCKER ROOM-SCH-H-SPACE FUNCTION SYS-6 FLR-3 SCH-H HPLCMT-NORTH ZN SPACE FUNCTION LOCKER ROOM-SCH-H LIGHTS".
   ** Warning ** GetInternalHeatGains: Lights Combination of ZoneList and Object Name generate a name too long.
   **   ~~~   ** Object Name="SPACE FUNCTION LOCKER ROOM-SCH-I LIGHTS".
   **   ~~~   ** ZoneList/Zone Name="SP-LOCKER ROOM-SCH-I-SPACE FUNCTION SYS-6 FLR-2 SCH-I HPLCMT-CORE ZN".
   **   ~~~   ** Item length=[107] > Maximum Length=[100]. You may need to shorten the names.
   **   ~~~   ** Shortening the Object Name by [8] characters will assure uniqueness for this ZoneList.
   **   ~~~   ** name that will be used (may be needed in reporting)="SP-LOCKER ROOM-SCH-I-SPACE FUNCTION SYS-6 FLR-2 SCH-I HPLCMT-CORE ZN SPACE FUNCTION LOCKER ROOM-SCH-I LIGHTS".
   ** Warning ** GetInternalHeatGains: ElectricEquipment Combination of ZoneList and Object Name generate a name too long.
   **   ~~~   ** Object Name="SPACE FUNCTION LABORATORY - CLASSROOMS ELEC EQUIP".
   **   ~~~   ** ZoneList/Zone Name="SP-LABORATORY - CLASSROOMS-SPACE FUNCTION SYS-3 FLR-4 SCH-D HPLCMT-SOUTH ZN".
   **   ~~~   ** Item length=[124] > Maximum Length=[100]. You may need to shorten the names.
   **   ~~~   ** Shortening the Object Name by [25] characters will assure uniqueness for this ZoneList.
   **   ~~~   ** name that will be used (may be needed in reporting)="SP-LABORATORY - CLASSROOMS-SPACE FUNCTION SYS-3 FLR-4 SCH-D HPLCMT-SOUTH ZN SPACE FUNCTION LABORATORY - CLASSROOMS ELEC EQUIP".
   ** Warning ** GetInternalHeatGains: ElectricEquipment Combination of ZoneList and Object Name generate a name too long.
   **   ~~~   ** Object Name="SPACE FUNCTION LABORATORY - OTHER ELEC EQUIP".
   **   ~~~   ** ZoneList/Zone Name="SP-LABORATORY - OTHER-SPACE FUNCTION SYS-3 FLR-4 SCH-A HPLCMT-EAST ZN".
   **   ~~~   ** Item length=[113] > Maximum Length=[100]. You may need to shorten the names.
   **   ~~~   ** Shortening the Object Name by [14] characters will assure uniqueness for this ZoneList.
   **   ~~~   ** name that will be used (may be needed in reporting)="SP-LABORATORY - OTHER-SPACE FUNCTION SYS-3 FLR-4 SCH-A HPLCMT-EAST ZN SPACE FUNCTION LABORATORY - OTHER ELEC EQUIP".
   ** Warning ** GetInternalHeatGains: ElectricEquipment Combination of ZoneList and Object Name generate a name too long.
   **   ~~~   ** Object Name="SPACE FUNCTION LAUNDRY/WASHING AREA ELEC EQUIP".
   **   ~~~   ** ZoneList/Zone Name="SP-LAUNDRY/WASHING AREA-SPACE FUNCTION SYS-3 FLR-4 SCH-C HPLCMT-NORTH ZN".
   **   ~~~   ** Item length=[118] > Maximum Length=[100]. You may need to shorten the names.
   **   ~~~   ** Shortening the Object Name by [19] characters will assure uniqueness for this ZoneList.
   **   ~~~   ** name that will be used (may be needed in reporting)="SP-LAUNDRY/WASHING AREA-SPACE FUNCTION SYS-3 FLR-4 SCH-C HPLCMT-NORTH ZN SPACE FUNCTION LAUNDRY/WASHING AREA ELEC EQUIP".
   ** Warning ** GetInternalHeatGains: ElectricEquipment Combination of ZoneList and Object Name generate a name too long.
   **   ~~~   ** Object Name="SPACE FUNCTION LOBBY - ELEVATOR ELEC EQUIP".
   **   ~~~   ** ZoneList/Zone Name="SP-LOBBY - ELEVATOR-SPACE FUNCTION SYS-3 FLR-3 SCH-C HPLCMT-SOUTH ZN".
   **   ~~~   ** Item length=[110] > Maximum Length=[100]. You may need to shorten the names.
   **   ~~~   ** Shortening the Object Name by [11] characters will assure uniqueness for this ZoneList.
   **   ~~~   ** name that will be used (may be needed in reporting)="SP-LOBBY - ELEVATOR-SPACE FUNCTION SYS-3 FLR-3 SCH-C HPLCMT-SOUTH ZN SPACE FUNCTION LOBBY - ELEVATOR ELEC EQUIP".
   ** Warning ** GetInternalHeatGains: ElectricEquipment Combination of ZoneList and Object Name generate a name too long.
   **   ~~~   ** Object Name="SPACE FUNCTION LOBBY - HOTEL ELEC EQUIP".
   **   ~~~   ** ZoneList/Zone Name="SP-LOBBY - HOTEL-SPACE FUNCTION SYS-3 FLR-3 SCH-H HPLCMT-EAST ZN".
   **   ~~~   ** Item length=[103] > Maximum Length=[100]. You may need to shorten the names.
   **   ~~~   ** Shortening the Object Name by [4] characters will assure uniqueness for this ZoneList.
   **   ~~~   ** name that will be used (may be needed in reporting)="SP-LOBBY - HOTEL-SPACE FUNCTION SYS-3 FLR-3 SCH-H HPLCMT-EAST ZN SPACE FUNCTION LOBBY - HOTEL ELEC EQUIP".
   ** Warning ** GetInternalHeatGains: ElectricEquipment Combination of ZoneList and Object Name generate a name too long.
   **   ~~~   ** Object Name="SPACE FUNCTION LOBBY - MOTION PICTURE THEATRE ELEC EQUIP".
   **   ~~~   ** ZoneList/Zone Name="SP-LOBBY - MOTION PICTURE THEATRE-SPACE FUNCTION SYS-3 FLR-1 SCH-C HPLCMT-CORE ZN".
   **   ~~~   ** Item length=[137] > Maximum Length=[100]. You may need to shorten the names.
   **   ~~~   ** Shortening the Object Name by [38] characters will assure uniqueness for this ZoneList.
   **   ~~~   ** name that will be used (may be needed in reporting)="SP-LOBBY - MOTION PICTURE THEATRE-SPACE FUNCTION SYS-3 FLR-1 SCH-C HPLCMT-CORE ZN SPACE FUNCTION LOBBY - MOTION PICTURE THEATRE ELEC EQUIP".
   ** Warning ** GetInternalHeatGains: ElectricEquipment Combination of ZoneList and Object Name generate a name too long.
   **   ~~~   ** Object Name="SPACE FUNCTION LOBBY - OTHER ELEC EQUIP".
   **   ~~~   ** ZoneList/Zone Name="SP-LOBBY - OTHER-SPACE FUNCTION SYS-3 FLR-3 SCH-C HPLCMT-WEST ZN".
   **   ~~~   ** Item length=[103] > Maximum Length=[100]. You may need to shorten the names.
   **   ~~~   ** Shortening the Object Name by [4] characters will assure uniqueness for this ZoneList.
   **   ~~~   ** name that will be used (may be needed in reporting)="SP-LOBBY - OTHER-SPACE FUNCTION SYS-3 FLR-3 SCH-C HPLCMT-WEST ZN SPACE FUNCTION LOBBY - OTHER ELEC EQUIP".
   ** Warning ** GetInternalHeatGains: ElectricEquipment Combination of ZoneList and Object Name generate a name too long.
   **   ~~~   ** Object Name="SPACE FUNCTION LOBBY - PERFORMING ARTS THEATRE ELEC EQUIP".
   **   ~~~   ** ZoneList/Zone Name="SP-LOBBY - PERFORMING ARTS THEATRE-SPACE FUNCTION SYS-3 FLR-1 SCH-C HPLCMT-WEST ZN".
   **   ~~~   ** Item length=[139] > Maximum Length=[100]. You may need to shorten the names.
   **   ~~~   ** Shortening the Object Name by [40] characters will assure uniqueness for this ZoneList.
   **   ~~~   ** name that will be used (may be needed in reporting)="SP-LOBBY - PERFORMING ARTS THEATRE-SPACE FUNCTION SYS-3 FLR-1 SCH-C HPLCMT-WEST ZN SPACE FUNCTION LOBBY - PERFORMING ARTS THEATRE ELEC EQUIP".
   ** Warning ** GetInternalHeatGains: ElectricEquipment Combination of ZoneList and Object Name generate a name too long.
   **   ~~~   ** Object Name="SPACE FUNCTION LOBBY - SPACE DESIGNED TO ANSI/IES RP-28 (USED PRIMARILY BY RESIDENTS) ELEC EQUIP".
   **   ~~~   ** ZoneList/Zone Name="SP-LOBBY - SPACE DESIGNED TO ANSI/IES RP-28 (USED PRIMARILY BY RESIDENTS)-SPACE FUNCTION SYS-3 FLR-1 SCH-B HPLCMT-NORTH ZN".
   **   ~~~   ** Item length=[218] > Maximum Length=[100]. You may need to shorten the names.
   **   ~~~   ** Shortening the Object Name by [119] characters will assure uniqueness for this ZoneList.
   **   ~~~   ** name that will be used (may be needed in reporting)="SP-LOBBY - SPACE DESIGNED TO ANSI/IES RP-28 (USED PRIMARILY BY RESIDENTS)-SPACE FUNCTION SYS-3 FLR-1 SCH-B HPLCMT-NORTH ZN SPACE FUNCTION LOBBY - SPACE DESIGNED TO ANSI/IES RP-28 (USED PRIMARILY BY RESIDENTS) ELEC EQUIP".
   ** Warning ** GetInternalHeatGains: ElectricEquipment Combination of ZoneList and Object Name generate a name too long.
   **   ~~~   ** Object Name="SPACE FUNCTION LOCKER ROOM-SCH-A ELEC EQUIP".
   **   ~~~   ** ZoneList/Zone Name="SP-LOCKER ROOM-SCH-A-SPACE FUNCTION SYS-6 FLR-1 SCH-A HPLCMT-SOUTH ZN".
   **   ~~~   ** Item length=[112] > Maximum Length=[100]. You may need to shorten the names.
   **   ~~~   ** Shortening the Object Name by [13] characters will assure uniqueness for this ZoneList.
   **   ~~~   ** name that will be used (may be needed in reporting)="SP-LOCKER ROOM-SCH-A-SPACE FUNCTION SYS-6 FLR-1 SCH-A HPLCMT-SOUTH ZN SPACE FUNCTION LOCKER ROOM-SCH-A ELEC EQUIP".
   ** Warning ** GetInternalHeatGains: ElectricEquipment Combination of ZoneList and Object Name generate a name too long.
   **   ~~~   ** Object Name="SPACE FUNCTION LOCKER ROOM-SCH-B ELEC EQUIP".
   **   ~~~   ** ZoneList/Zone Name="SP-LOCKER ROOM-SCH-B-SPACE FUNCTION SYS-6 FLR-1 SCH-B HPLCMT-EAST ZN".
   **   ~~~   ** Item length=[111] > Maximum Length=[100]. You may need to shorten the names.
   **   ~~~   ** Shortening the Object Name by [12] characters will assure uniqueness for this ZoneList.
   **   ~~~   ** name that will be used (may be needed in reporting)="SP-LOCKER ROOM-SCH-B-SPACE FUNCTION SYS-6 FLR-1 SCH-B HPLCMT-EAST ZN SPACE FUNCTION LOCKER ROOM-SCH-B ELEC EQUIP".
   ** Warning ** GetInternalHeatGains: ElectricEquipment Combination of ZoneList and Object Name generate a name too long.
   **   ~~~   ** Object Name="SPACE FUNCTION LOCKER ROOM-SCH-C ELEC EQUIP".
   **   ~~~   ** ZoneList/Zone Name="SP-LOCKER ROOM-SCH-C-SPACE FUNCTION SYS-6 FLR-2 SCH-C HPLCMT-WEST ZN".
   **   ~~~   ** Item length=[111] > Maximum Length=[100]. You may need to shorten the names.
   **   ~~~   ** Shortening the Object Name by [12] characters will assure uniqueness for this ZoneList.
   **   ~~~   ** name that will be used (may be needed in reporting)="SP-LOCKER ROOM-SCH-C-SPACE FUNCTION SYS-6 FLR-2 SCH-C HPLCMT-WEST ZN SPACE FUNCTION LOCKER ROOM-SCH-C ELEC EQUIP".
   ** Warning ** GetInternalHeatGains: ElectricEquipment Combination of ZoneList and Object Name generate a name too long.
   **   ~~~   ** Object Name="SPACE FUNCTION LOCKER ROOM-SCH-D ELEC EQUIP".
   **   ~~~   ** ZoneList/Zone Name="SP-LOCKER ROOM-SCH-D-SPACE FUNCTION SYS-6 FLR-4 SCH-D HPLCMT-WEST ZN".
   **   ~~~   ** Item length=[111] > Maximum Length=[100]. You may need to shorten the names.
   **   ~~~   ** Shortening the Object Name by [12] characters will assure uniqueness for this ZoneList.
   **   ~~~   ** name that will be used (may be needed in reporting)="SP-LOCKER ROOM-SCH-D-SPACE FUNCTION SYS-6 FLR-4 SCH-D HPLCMT-WEST ZN SPACE FUNCTION LOCKER ROOM-SCH-D ELEC EQUIP".
   ** Warning ** GetInternalHeatGains: ElectricEquipment Combination of ZoneList and Object Name generate a name too long.
   **   ~~~   ** Object Name="SPACE FUNCTION LOCKER ROOM-SCH-E ELEC EQUIP".
   **   ~~~   ** ZoneList/Zone Name="SP-LOCKER ROOM-SCH-E-SPACE FUNCTION SYS-6 FLR-2 SCH-E HPLCMT-NORTH ZN".
   **   ~~~   ** Item length=[112] > Maximum Length=[100]. You may need to shorten the names.
   **   ~~~   ** Shortening the Object Name by [13] characters will assure uniqueness for this ZoneList.
   **   ~~~   ** name that will be used (may be needed in reporting)="SP-LOCKER ROOM-SCH-E-SPACE FUNCTION SYS-6 FLR-2 SCH-E HPLCMT-NORTH ZN SPACE FUNCTION LOCKER ROOM-SCH-E ELEC EQUIP".
   ** Warning ** GetInternalHeatGains: ElectricEquipment Combination of ZoneList and Object Name generate a name too long.
   **   ~~~   ** Object Name="SPACE FUNCTION LOCKER ROOM-SCH-F ELEC EQUIP".
   **   ~~~   ** ZoneList/Zone Name="SP-LOCKER ROOM-SCH-F-SPACE FUNCTION SYS-6 FLR-2 SCH-F HPLCMT-EAST ZN".
   **   ~~~   ** Item length=[111] > Maximum Length=[100]. You may need to shorten the names.
   **   ~~~   ** Shortening the Object Name by [12] characters will assure uniqueness for this ZoneList.
   **   ~~~   ** name that will be used (may be needed in reporting)="SP-LOCKER ROOM-SCH-F-SPACE FUNCTION SYS-6 FLR-2 SCH-F HPLCMT-EAST ZN SPACE FUNCTION LOCKER ROOM-SCH-F ELEC EQUIP".
   ** Warning ** GetInternalHeatGains: ElectricEquipment Combination of ZoneList and Object Name generate a name too long.
   **   ~~~   ** Object Name="SPACE FUNCTION LOCKER ROOM-SCH-G ELEC EQUIP".
   **   ~~~   ** ZoneList/Zone Name="SP-LOCKER ROOM-SCH-G-SPACE FUNCTION SYS-6 FLR-2 SCH-G HPLCMT-SOUTH ZN".
   **   ~~~   ** Item length=[112] > Maximum Length=[100]. You may need to shorten the names.
   **   ~~~   ** Shortening the Object Name by [13] characters will assure uniqueness for this ZoneList.
   **   ~~~   ** name that will be used (may be needed in reporting)="SP-LOCKER ROOM-SCH-G-SPACE FUNCTION SYS-6 FLR-2 SCH-G HPLCMT-SOUTH ZN SPACE FUNCTION LOCKER ROOM-SCH-G ELEC EQUIP".
   ** Warning ** GetInternalHeatGains: ElectricEquipment Combination of ZoneList and Object Name generate a name too long.
   **   ~~~   ** Object Name="SPACE FUNCTION LOCKER ROOM-SCH-H ELEC EQUIP".
   **   ~~~   ** ZoneList/Zone Name="SP-LOCKER ROOM-SCH-H-SPACE FUNCTION SYS-6 FLR-3 SCH-H HPLCMT-NORTH ZN".
   **   ~~~   ** Item length=[112] > Maximum Length=[100]. You may need to shorten the names.
   **   ~~~   ** Shortening the Object Name by [13] characters will assure uniqueness for this ZoneList.
   **   ~~~   ** name that will be used (may be needed in reporting)="SP-LOCKER ROOM-SCH-H-SPACE FUNCTION SYS-6 FLR-3 SCH-H HPLCMT-NORTH ZN SPACE FUNCTION LOCKER ROOM-SCH-H ELEC EQUIP".
   ** Warning ** GetInternalHeatGains: ElectricEquipment Combination of ZoneList and Object Name generate a name too long.
   **   ~~~   ** Object Name="SPACE FUNCTION LOCKER ROOM-SCH-I ELEC EQUIP".
   **   ~~~   ** ZoneList/Zone Name="SP-LOCKER ROOM-SCH-I-SPACE FUNCTION SYS-6 FLR-2 SCH-I HPLCMT-CORE ZN".
   **   ~~~   ** Item length=[111] > Maximum Length=[100]. You may need to shorten the names.
   **   ~~~   ** Shortening the Object Name by [12] characters will assure uniqueness for this ZoneList.
   **   ~~~   ** name that will be used (may be needed in reporting)="SP-LOCKER ROOM-SCH-I-SPACE FUNCTION SYS-6 FLR-2 SCH-I HPLCMT-CORE ZN SPACE FUNCTION LOCKER ROOM-SCH-I ELEC EQUIP".
   ** Warning ** Calculated design heating load for zone=SP-LOADING DOCK INTERIOR-SPACE FUNCTION SYS-4 FLR-3 SCH-H HPLCMT-CORE ZN is zero.
   **   ~~~   ** Check Sizing:Zone and ZoneControl:Thermostat inputs.
   ** Warning ** Calculated design heating load for zone=SP-LOBBY - HOTEL-SPACE FUNCTION SYS-3 FLR-3 SCH-H HPLCMT-EAST ZN is zero.
   **   ~~~   ** Check Sizing:Zone and ZoneControl:Thermostat inputs.
   ** Warning ** Calculated design heating load for zone=SP-LOBBY - MOTION PICTURE THEATRE-SPACE FUNCTION SYS-3 FLR-1 SCH-C HPLCMT-CORE ZN is zero.
   **   ~~~   ** Check Sizing:Zone and ZoneControl:Thermostat inputs.
   ** Warning ** Calculated design heating load for zone=SP-LOBBY - PERFORMING ARTS THEATRE-SPACE FUNCTION SYS-3 FLR-1 SCH-C HPLCMT-WEST ZN is zero.
   **   ~~~   ** Check Sizing:Zone and ZoneControl:Thermostat inputs.
   ** Warning ** Calculated design heating load for zone=SP-LOBBY - SPACE DESIGNED TO ANSI/IES RP-28 (USED PRIMARILY BY RESIDENTS)-SPACE FUNCTION SYS-3 FLR-1 SCH-B HPLCMT-NORTH ZN is zero.
   **   ~~~   ** Check Sizing:Zone and ZoneControl:Thermostat inputs.
   ** Warning ** Calculated design heating load for zone=SP-LOCKER ROOM-SCH-A-SPACE FUNCTION SYS-6 FLR-1 SCH-A HPLCMT-SOUTH ZN is zero.
   **   ~~~   ** Check Sizing:Zone and ZoneControl:Thermostat inputs.
   ** Warning ** Calculated design heating load for zone=SP-LOCKER ROOM-SCH-B-SPACE FUNCTION SYS-6 FLR-1 SCH-B HPLCMT-EAST ZN is zero.
   **   ~~~   ** Check Sizing:Zone and ZoneControl:Thermostat inputs.
   ** Warning ** Calculated design heating load for zone=SP-LOCKER ROOM-SCH-E-SPACE FUNCTION SYS-6 FLR-2 SCH-E HPLCMT-NORTH ZN is zero.
   **   ~~~   ** Check Sizing:Zone and ZoneControl:Thermostat inputs.
   ** Warning ** Calculated design heating load for zone=SP-LOCKER ROOM-SCH-F-SPACE FUNCTION SYS-6 FLR-2 SCH-F HPLCMT-EAST ZN is zero.
   **   ~~~   ** Check Sizing:Zone and ZoneControl:Thermostat inputs.
   ** Warning ** Calculated design heating load for zone=SP-LOCKER ROOM-SCH-H-SPACE FUNCTION SYS-6 FLR-3 SCH-H HPLCMT-NORTH ZN is zero.
   **   ~~~   ** Check Sizing:Zone and ZoneControl:Thermostat inputs.
   ** Warning ** Calculated design heating load for zone=SP-LOCKER ROOM-SCH-I-SPACE FUNCTION SYS-6 FLR-2 SCH-I HPLCMT-CORE ZN is zero.
   **   ~~~   ** Check Sizing:Zone and ZoneControl:Thermostat inputs.
   ************* Beginning System Sizing Calculations
   ** Warning ** GetDXCoils: Coil:Cooling:DX:SingleSpeed="COIL COOLING DX SINGLE SPEED 2 165KBTU/HR 9.3EER", invalid
   **   ~~~   ** ...Part Load Fraction Correlation Curve Name = DXCOOL-NECB2011-REF-COOLPLFFPLR has out of range value.
   **   ~~~   ** ...Curve maximum must be <= 1.0, curve max at PLR = 0.99 is 1.015
   **   ~~~   ** ...Setting curve maximum to 1.0 and simulation continues.
   ** Warning ** Since Zone Minimum Air Flow Input Method = CONSTANT, input for Fixed Minimum Air Flow Rate will be ignored.
   **   ~~~   ** Occurs in AirTerminal:SingleDuct:VAV:Reheat = AIR TERMINAL SINGLE DUCT VAV REHEAT 1
   ** Warning ** Since Damper Heating Action = NORMAL, input for Maximum Flow Fraction During Reheat will be ignored.
   **   ~~~   ** Occurs in AirTerminal:SingleDuct:VAV:Reheat = AIR TERMINAL SINGLE DUCT VAV REHEAT 1
   ** Warning ** Since Zone Minimum Air Flow Input Method = CONSTANT, input for Fixed Minimum Air Flow Rate will be ignored.
   **   ~~~   ** Occurs in AirTerminal:SingleDuct:VAV:Reheat = AIR TERMINAL SINGLE DUCT VAV REHEAT 2
   ** Warning ** Since Damper Heating Action = NORMAL, input for Maximum Flow Fraction During Reheat will be ignored.
   **   ~~~   ** Occurs in AirTerminal:SingleDuct:VAV:Reheat = AIR TERMINAL SINGLE DUCT VAV REHEAT 2
   ** Warning ** Since Zone Minimum Air Flow Input Method = CONSTANT, input for Fixed Minimum Air Flow Rate will be ignored.
   **   ~~~   ** Occurs in AirTerminal:SingleDuct:VAV:Reheat = AIR TERMINAL SINGLE DUCT VAV REHEAT 3
   ** Warning ** Since Damper Heating Action = NORMAL, input for Maximum Flow Fraction During Reheat will be ignored.
   **   ~~~   ** Occurs in AirTerminal:SingleDuct:VAV:Reheat = AIR TERMINAL SINGLE DUCT VAV REHEAT 3
   ** Warning ** Since Zone Minimum Air Flow Input Method = CONSTANT, input for Fixed Minimum Air Flow Rate will be ignored.
   **   ~~~   ** Occurs in AirTerminal:SingleDuct:VAV:Reheat = AIR TERMINAL SINGLE DUCT VAV REHEAT 9
   ** Warning ** Since Zone Minimum Air Flow Input Method = CONSTANT, input for Fixed Minimum Air Flow Rate will be ignored.
   **   ~~~   ** Occurs in AirTerminal:SingleDuct:VAV:Reheat = AIR TERMINAL SINGLE DUCT VAV REHEAT 4
   ** Warning ** Since Damper Heating Action = NORMAL, input for Maximum Flow Fraction During Reheat will be ignored.
   **   ~~~   ** Occurs in AirTerminal:SingleDuct:VAV:Reheat = AIR TERMINAL SINGLE DUCT VAV REHEAT 4
   ** Warning ** Since Zone Minimum Air Flow Input Method = CONSTANT, input for Fixed Minimum Air Flow Rate will be ignored.
   **   ~~~   ** Occurs in AirTerminal:SingleDuct:VAV:Reheat = AIR TERMINAL SINGLE DUCT VAV REHEAT 5
   ** Warning ** Since Damper Heating Action = NORMAL, input for Maximum Flow Fraction During Reheat will be ignored.
   **   ~~~   ** Occurs in AirTerminal:SingleDuct:VAV:Reheat = AIR TERMINAL SINGLE DUCT VAV REHEAT 5
   ** Warning ** Since Zone Minimum Air Flow Input Method = CONSTANT, input for Fixed Minimum Air Flow Rate will be ignored.
   **   ~~~   ** Occurs in AirTerminal:SingleDuct:VAV:Reheat = AIR TERMINAL SINGLE DUCT VAV REHEAT 6
   ** Warning ** Since Damper Heating Action = NORMAL, input for Maximum Flow Fraction During Reheat will be ignored.
   **   ~~~   ** Occurs in AirTerminal:SingleDuct:VAV:Reheat = AIR TERMINAL SINGLE DUCT VAV REHEAT 6
   ** Warning ** Since Zone Minimum Air Flow Input Method = CONSTANT, input for Fixed Minimum Air Flow Rate will be ignored.
   **   ~~~   ** Occurs in AirTerminal:SingleDuct:VAV:Reheat = AIR TERMINAL SINGLE DUCT VAV REHEAT 8
   ** Warning ** Since Zone Minimum Air Flow Input Method = CONSTANT, input for Fixed Minimum Air Flow Rate will be ignored.
   **   ~~~   ** Occurs in AirTerminal:SingleDuct:VAV:Reheat = AIR TERMINAL SINGLE DUCT VAV REHEAT 7
   ** Warning ** Since Damper Heating Action = NORMAL, input for Maximum Flow Fraction During Reheat will be ignored.
   **   ~~~   ** Occurs in AirTerminal:SingleDuct:VAV:Reheat = AIR TERMINAL SINGLE DUCT VAV REHEAT 7
   ************* Beginning Plant Sizing Calculations
   ** Warning ** The Standard Ratings is calculated for Coil:Cooling:DX:SingleSpeed = COIL COOLING DX SINGLE SPEED 2 165KBTU/HR 9.3EER but not at the AHRI test condition due to curve out of bound.
   **   ~~~   **  Review the Standard Ratings calculations in the Engineering Reference for this coil type. Also, use Output:Diagnostics, DisplayExtraWarnings for further guidance.
   ** Warning ** The Standard Ratings is calculated for Coil:Cooling:DX:SingleSpeed = COIL COOLING DX SINGLE SPEED 1 89KBTU/HR 9.26EER but not at the AHRI test condition due to curve out of bound.
   **   ~~~   **  Review the Standard Ratings calculations in the Engineering Reference for this coil type. Also, use Output:Diagnostics, DisplayExtraWarnings for further guidance.
   ** Warning ** The Standard Ratings is calculated for Coil:Cooling:DX:SingleSpeed = COIL COOLING DX SINGLE SPEED 9 385KBTU/HR 8.21EER but not at the AHRI test condition due to curve out of bound.
   **   ~~~   **  Review the Standard Ratings calculations in the Engineering Reference for this coil type. Also, use Output:Diagnostics, DisplayExtraWarnings for further guidance.
   ** Warning ** The Standard Ratings is calculated for Coil:Cooling:DX:SingleSpeed = COIL COOLING DX SINGLE SPEED 10 381KBTU/HR 8.21EER but not at the AHRI test condition due to curve out of bound.
   **   ~~~   **  Review the Standard Ratings calculations in the Engineering Reference for this coil type. Also, use Output:Diagnostics, DisplayExtraWarnings for further guidance.
   ** Warning ** The Standard Ratings is calculated for Coil:Cooling:DX:SingleSpeed = COIL COOLING DX SINGLE SPEED 11 313KBTU/HR 8.21EER but not at the AHRI test condition due to curve out of bound.
   **   ~~~   **  Review the Standard Ratings calculations in the Engineering Reference for this coil type. Also, use Output:Diagnostics, DisplayExtraWarnings for further guidance.
   ** Warning ** The Standard Ratings is calculated for Coil:Cooling:DX:SingleSpeed = COIL COOLING DX SINGLE SPEED 7 488KBTU/HR 8.21EER but not at the AHRI test condition due to curve out of bound.
   **   ~~~   **  Review the Standard Ratings calculations in the Engineering Reference for this coil type. Also, use Output:Diagnostics, DisplayExtraWarnings for further guidance.
   ** Warning ** The Standard Ratings is calculated for Coil:Cooling:DX:SingleSpeed = COIL COOLING DX SINGLE SPEED 8 243KBTU/HR 8.21EER but not at the AHRI test condition due to curve out of bound.
   **   ~~~   **  Review the Standard Ratings calculations in the Engineering Reference for this coil type. Also, use Output:Diagnostics, DisplayExtraWarnings for further guidance.
   ** Warning ** The Standard Ratings is calculated for Coil:Cooling:DX:SingleSpeed = COIL COOLING DX SINGLE SPEED 4 597KBTU/HR 8.21EER but not at the AHRI test condition due to curve out of bound.
   **   ~~~   **  Review the Standard Ratings calculations in the Engineering Reference for this coil type. Also, use Output:Diagnostics, DisplayExtraWarnings for further guidance.
   ** Warning ** The Standard Ratings is calculated for Coil:Cooling:DX:SingleSpeed = COIL COOLING DX SINGLE SPEED 6 436KBTU/HR 8.21EER but not at the AHRI test condition due to curve out of bound.
   **   ~~~   **  Review the Standard Ratings calculations in the Engineering Reference for this coil type. Also, use Output:Diagnostics, DisplayExtraWarnings for further guidance.
   ** Warning ** The Standard Ratings is calculated for Coil:Cooling:DX:SingleSpeed = COIL COOLING DX SINGLE SPEED 3 448KBTU/HR 8.21EER but not at the AHRI test condition due to curve out of bound.
   **   ~~~   **  Review the Standard Ratings calculations in the Engineering Reference for this coil type. Also, use Output:Diagnostics, DisplayExtraWarnings for further guidance.
   ** Warning ** The Standard Ratings is calculated for Coil:Cooling:DX:SingleSpeed = COIL COOLING DX SINGLE SPEED 5 436KBTU/HR 8.21EER but not at the AHRI test condition due to curve out of bound.
   **   ~~~   **  Review the Standard Ratings calculations in the Engineering Reference for this coil type. Also, use Output:Diagnostics, DisplayExtraWarnings for further guidance.
   ** Warning ** The Standard Ratings is calculated for Coil:Cooling:DX:SingleSpeed = COIL COOLING DX SINGLE SPEED 12 100KBTU/HR 9.26EER but not at the AHRI test condition due to curve out of bound.
   **   ~~~   **  Review the Standard Ratings calculations in the Engineering Reference for this coil type. Also, use Output:Diagnostics, DisplayExtraWarnings for further guidance.
   ** Warning ** Missing temperature setpoint for LeavingSetpointModulated mode chiller named PRIMARY CHILLER WATERCOOLED SCROLL 130TONS 0.8KW/TON
   **   ~~~   **   A temperature setpoint is needed at the outlet node of a chiller in variable flow mode, use a SetpointManager
   **   ~~~   **   The overall loop setpoint will be assumed for chiller. The simulation continues ... 
   ** Warning ** Missing temperature setpoint for LeavingSetpointModulated mode chiller named SECONDARY CHILLER WATERCOOLED SCROLL 0TONS 0.8KW/TON
   **   ~~~   **   A temperature setpoint is needed at the outlet node of a chiller in variable flow mode, use a SetpointManager
   **   ~~~   **   The overall loop setpoint will be assumed for chiller. The simulation continues ... 
   ** Warning ** Error when autosizing the load for cooling tower = COOLING TOWER SINGLE SPEED 1. Tower Design Range Temperature is different from the Design Loop Delta Temperature.
   **   ~~~   ** Tower Design Range Temperature specified in tower = COOLING TOWER SINGLE SPEED 1
   **   ~~~   ** is inconsistent with Design Loop Delta Temperature specified in Sizing:Plant object = CONDENSER WATER LOOP.
   **   ~~~   ** ..The Design Range Temperature specified in tower is = 5.00
   **   ~~~   ** ..The Design Loop Delta Temperature specified in plant sizing data is = 6.00
   ** Warning ** Error when autosizing the load for cooling tower = COOLING TOWER SINGLE SPEED 1. Tower Design Range Temperature is different from the Design Loop Delta Temperature.
   **   ~~~   ** Tower Design Range Temperature specified in tower = COOLING TOWER SINGLE SPEED 1
   **   ~~~   ** is inconsistent with Design Loop Delta Temperature specified in Sizing:Plant object = CONDENSER WATER LOOP.
   **   ~~~   ** ..The Design Range Temperature specified in tower is = 5.00
   **   ~~~   ** ..The Design Loop Delta Temperature specified in plant sizing data is = 6.00
   ** Warning ** Error when autosizing the load for cooling tower = COOLING TOWER SINGLE SPEED 1. Tower Design Range Temperature is different from the Design Loop Delta Temperature.
   **   ~~~   ** Tower Design Range Temperature specified in tower = COOLING TOWER SINGLE SPEED 1
   **   ~~~   ** is inconsistent with Design Loop Delta Temperature specified in Sizing:Plant object = CONDENSER WATER LOOP.
   **   ~~~   ** ..The Design Range Temperature specified in tower is = 5.00
   **   ~~~   ** ..The Design Loop Delta Temperature specified in plant sizing data is = 6.00
   ** Warning ** Error when autosizing the load for cooling tower = COOLING TOWER SINGLE SPEED 1. Tower Design Range Temperature is different from the Design Loop Delta Temperature.
   **   ~~~   ** Tower Design Range Temperature specified in tower = COOLING TOWER SINGLE SPEED 1
   **   ~~~   ** is inconsistent with Design Loop Delta Temperature specified in Sizing:Plant object = CONDENSER WATER LOOP.
   **   ~~~   ** ..The Design Range Temperature specified in tower is = 5.00
   **   ~~~   ** ..The Design Loop Delta Temperature specified in plant sizing data is = 6.00
   ** Warning ** Error when autosizing the load for cooling tower = COOLING TOWER SINGLE SPEED 1. Tower Design Range Temperature is different from the Design Loop Delta Temperature.
   **   ~~~   ** Tower Design Range Temperature specified in tower = COOLING TOWER SINGLE SPEED 1
   **   ~~~   ** is inconsistent with Design Loop Delta Temperature specified in Sizing:Plant object = CONDENSER WATER LOOP.
   **   ~~~   ** ..The Design Range Temperature specified in tower is = 5.00
   **   ~~~   ** ..The Design Loop Delta Temperature specified in plant sizing data is = 6.00
   ** Warning ** Error when autosizing the load for cooling tower = COOLING TOWER SINGLE SPEED 1. Tower Design Range Temperature is different from the Design Loop Delta Temperature.
   **   ~~~   ** Tower Design Range Temperature specified in tower = COOLING TOWER SINGLE SPEED 1
   **   ~~~   ** is inconsistent with Design Loop Delta Temperature specified in Sizing:Plant object = CONDENSER WATER LOOP.
   **   ~~~   ** ..The Design Range Temperature specified in tower is = 5.00
   **   ~~~   ** ..The Design Loop Delta Temperature specified in plant sizing data is = 6.00
   ** Warning ** Missing temperature setpoint for LeavingSetpointModulated mode Boiler named PRIMARY BOILER 3600KBTU/HR 0.833 COMBUSTION EFF
   **   ~~~   **   A temperature setpoint is needed at the outlet node of a boiler in variable flow mode, use a SetpointManager
   **   ~~~   **   The overall loop setpoint will be assumed for Boiler. The simulation continues ... 
   ** Warning ** Output:Meter: invalid Key Name="DISTRICTCOOLING:FACILITY" - not found.
   ** Warning ** Output:Meter: invalid Key Name="DISTRICTHEATING:FACILITY" - not found.
   ** Warning ** Output:Meter:MeterFileOnly requested for "Electricity:Facility" (TimeStep), already on "Output:Meter". Will report to both eplusout.eso and eplusout.mtr
   ************* Testing Individual Branch Integrity
   ************* All Branches passed integrity testing
   ************* Testing Individual Supply Air Path Integrity
   ************* All Supply Air Paths passed integrity testing
   ************* Testing Individual Return Air Path Integrity
   ************* All Return Air Paths passed integrity testing
   ************* No node connection errors were found.
   ************* Beginning Simulation
   ** Severe  ** CheckWarmupConvergence: Loads Initialization, Zone="SP-GUEST ROOM-SPACE FUNCTION SYS-1 FLR-4 SCH-F HPLCMT-CORE ZN" did not converge after 25 warmup days.
   **   ~~~   ** See Warmup Convergence Information in .eio file for details.
   **   ~~~   ** ...Environment(RunPeriod)="RUN PERIOD 1"
   **   ~~~   ** ..Max Temp Comparison = 5.47E-002 vs Temperature Convergence Tolerance=0.40 - Pass Convergence
   **   ~~~   ** ..Min Temp Comparison = 4.80E-003 vs Temperature Convergence Tolerance=0.40 - Pass Convergence
   **   ~~~   ** ..Max Heat Load Comparison = 4.4174E-002 vs Loads Convergence Tolerance=4.00E-002 - Fail Convergence
   **   ~~~   ** ..Max Cool Load Comparison = 2.4951E-003 vs Loads Convergence Tolerance=4.00E-002 - Pass Convergence
   ** Severe  ** CheckWarmupConvergence: Loads Initialization, Zone="SP-LOBBY - SPACE DESIGNED TO ANSI/IES RP-28 (USED PRIMARILY BY RESIDENTS)-SPACE FUNCTION SYS-3 FLR-1 SCH-B HPLCMT-NORTH ZN" did not converge after 25 warmup days.
   **   ~~~   ** ...Environment(RunPeriod)="RUN PERIOD 1"
   **   ~~~   ** ..Max Temp Comparison = 3.16E-002 vs Temperature Convergence Tolerance=0.40 - Pass Convergence
   **   ~~~   ** ..Min Temp Comparison = 4.43E-006 vs Temperature Convergence Tolerance=0.40 - Pass Convergence
   **   ~~~   ** ..Max Heat Load Comparison = 4.3048E-002 vs Loads Convergence Tolerance=4.00E-002 - Fail Convergence
   **   ~~~   ** ..Max Cool Load Comparison = 8.0303E-003 vs Loads Convergence Tolerance=4.00E-002 - Pass Convergence
   ** Severe  ** CheckWarmupConvergence: Loads Initialization, Zone="SP-LOCKER ROOM-SCH-C-SPACE FUNCTION SYS-6 FLR-2 SCH-C HPLCMT-WEST ZN" did not converge after 25 warmup days.
   **   ~~~   ** ...Environment(RunPeriod)="RUN PERIOD 1"
   **   ~~~   ** ..Max Temp Comparison = 0.56 vs Temperature Convergence Tolerance=0.40 - Fail Convergence
   **   ~~~   ** ..Min Temp Comparison = 1.18E-005 vs Temperature Convergence Tolerance=0.40 - Pass Convergence
   **   ~~~   ** ..Max Heat Load Comparison = 0.5619 vs Loads Convergence Tolerance=4.00E-002 - Fail Convergence
   **   ~~~   ** ..Max Cool Load Comparison = 1.3646 vs Loads Convergence Tolerance=4.00E-002 - Fail Convergence
   ** Severe  ** CheckWarmupConvergence: Loads Initialization, Zone="SP-LOCKER ROOM-SCH-E-SPACE FUNCTION SYS-6 FLR-2 SCH-E HPLCMT-NORTH ZN" did not converge after 25 warmup days.
   **   ~~~   ** ...Environment(RunPeriod)="RUN PERIOD 1"
   **   ~~~   ** ..Max Temp Comparison = 1.29 vs Temperature Convergence Tolerance=0.40 - Fail Convergence
   **   ~~~   ** ..Min Temp Comparison = 3.16E-002 vs Temperature Convergence Tolerance=0.40 - Pass Convergence
   **   ~~~   ** ..Max Heat Load Comparison = 2.3996 vs Loads Convergence Tolerance=4.00E-002 - Fail Convergence
   **   ~~~   ** ..Max Cool Load Comparison = 1.2273 vs Loads Convergence Tolerance=4.00E-002 - Fail Convergence
   ** Severe  ** CheckWarmupConvergence: Loads Initialization, Zone="SP-LOCKER ROOM-SCH-F-SPACE FUNCTION SYS-6 FLR-2 SCH-F HPLCMT-EAST ZN" did not converge after 25 warmup days.
   **   ~~~   ** ...Environment(RunPeriod)="RUN PERIOD 1"
   **   ~~~   ** ..Max Temp Comparison = 0.11 vs Temperature Convergence Tolerance=0.40 - Pass Convergence
   **   ~~~   ** ..Min Temp Comparison = 0.34 vs Temperature Convergence Tolerance=0.40 - Pass Convergence
   **   ~~~   ** ..Max Heat Load Comparison = 0.3871 vs Loads Convergence Tolerance=4.00E-002 - Fail Convergence
   **   ~~~   ** ..Max Cool Load Comparison = 0.9720 vs Loads Convergence Tolerance=4.00E-002 - Fail Convergence
   ** Severe  ** CheckWarmupConvergence: Loads Initialization, Zone="SP-LOCKER ROOM-SCH-G-SPACE FUNCTION SYS-6 FLR-2 SCH-G HPLCMT-SOUTH ZN" did not converge after 25 warmup days.
   **   ~~~   ** ...Environment(RunPeriod)="RUN PERIOD 1"
   **   ~~~   ** ..Max Temp Comparison = 0.54 vs Temperature Convergence Tolerance=0.40 - Fail Convergence
   **   ~~~   ** ..Min Temp Comparison = 7.58E-003 vs Temperature Convergence Tolerance=0.40 - Pass Convergence
   **   ~~~   ** ..Max Heat Load Comparison = 0.1683 vs Loads Convergence Tolerance=4.00E-002 - Fail Convergence
   **   ~~~   ** ..Max Cool Load Comparison = 0.8926 vs Loads Convergence Tolerance=4.00E-002 - Fail Convergence
   ** Severe  ** CheckWarmupConvergence: Loads Initialization, Zone="SP-LOCKER ROOM-SCH-H-SPACE FUNCTION SYS-6 FLR-3 SCH-H HPLCMT-NORTH ZN" did not converge after 25 warmup days.
   **   ~~~   ** ...Environment(RunPeriod)="RUN PERIOD 1"
   **   ~~~   ** ..Max Temp Comparison = 0.80 vs Temperature Convergence Tolerance=0.40 - Fail Convergence
   **   ~~~   ** ..Min Temp Comparison = 1.96E-002 vs Temperature Convergence Tolerance=0.40 - Pass Convergence
   **   ~~~   ** ..Max Heat Load Comparison = 0.4343 vs Loads Convergence Tolerance=4.00E-002 - Fail Convergence
   **   ~~~   ** ..Max Cool Load Comparison = 0.3493 vs Loads Convergence Tolerance=4.00E-002 - Fail Convergence
   ** Severe  ** CheckWarmupConvergence: Loads Initialization, Zone="SP-LOCKER ROOM-SCH-I-SPACE FUNCTION SYS-6 FLR-2 SCH-I HPLCMT-CORE ZN" did not converge after 25 warmup days.
   **   ~~~   ** ...Environment(RunPeriod)="RUN PERIOD 1"
   **   ~~~   ** ..Max Temp Comparison = 0.43 vs Temperature Convergence Tolerance=0.40 - Fail Convergence
   **   ~~~   ** ..Min Temp Comparison = 2.60E-002 vs Temperature Convergence Tolerance=0.40 - Pass Convergence
   **   ~~~   ** ..Max Heat Load Comparison = 1.2318 vs Loads Convergence Tolerance=4.00E-002 - Pass Convergence
   **   ~~~   ** ..Max Cool Load Comparison = 1.1369 vs Loads Convergence Tolerance=4.00E-002 - Fail Convergence
   ** Warning ** Processing Monthly Tabular Reports: Variable names not valid for this simulation
   **   ~~~   ** ...use Output:Diagnostics,DisplayExtraWarnings; to show more details on individual variables.
   ** Warning ** HeatExchanger:AirToAir:SensibleAndLatent "SYS_3_PSZ SP-LOBBY - HOTEL-SPACE FUNCTION SYS-3 FLR-3 SCH-H HPLCMT-EAST ZN ERV"
   **   ~~~   ** Average air volume flow rate is <50% or >130% of the nominal HX supply air volume flow rate.
   **   ~~~   ** Air volume flow rate ratio = 1.611. Environment=RUN PERIOD 1, at Simulation time=01/01 07:03 - 07:07
   ** Warning ** CalcDoe2DXCoil: Coil:Cooling:DX:SingleSpeed "COIL COOLING DX SINGLE SPEED 8 243KBTU/HR 8.21EER" - Air-cooled condenser inlet dry-bulb temperature below 0 C. Outdoor dry-bulb temperature = -3.53
   **   ~~~   **  ... Occurrence info = RUN PERIOD 1, 01/01 07:10 - 07:20
   **   ~~~   ** ... Operation at low ambient temperatures may require special performance curves.
   ** Warning ** CalcDoe2DXCoil: Coil:Cooling:DX:SingleSpeed "COIL COOLING DX SINGLE SPEED 8 243KBTU/HR 8.21EER" - Full load outlet air dry-bulb temperature < 2C. This indicates the possibility of coil frost/freeze. Outlet temperature = -0.79 C.
   **   ~~~   **  ...Occurrence info = RUN PERIOD 1, 01/01 07:10 - 07:20
   **   ~~~   ** ... Possible reasons for low outlet air dry-bulb temperatures are: This DX coil
   **   ~~~   **    1) may have a low inlet air dry-bulb temperature. Inlet air temperature = 12.073 C.
   **   ~~~   **    2) may have a low air flow rate per watt of cooling capacity. Check inputs.
   **   ~~~   **    3) is used as part of a HX assisted cooling coil which uses a high sensible effectiveness. Check inputs.
   ** Warning ** HeatExchanger:AirToAir:SensibleAndLatent "SYS_3_PSZ SP-LAUNDRY/WASHING AREA-SPACE FUNCTION SYS-3 FLR-4 SCH-C HPLCMT-NORTH ZN ERV"
   **   ~~~   ** Average air volume flow rate is <50% or >130% of the nominal HX supply air volume flow rate.
   **   ~~~   ** Air volume flow rate ratio = 3.518. Environment=RUN PERIOD 1, at Simulation time=01/01 09:02 - 09:05
   ** Warning ** CalcDoe2DXCoil: Coil:Cooling:DX:SingleSpeed "COIL COOLING DX SINGLE SPEED 11 313KBTU/HR 8.21EER" - Air-cooled condenser inlet dry-bulb temperature below 0 C. Outdoor dry-bulb temperature = -3.10
   **   ~~~   **  ... Occurrence info = RUN PERIOD 1, 01/01 10:15 - 10:18
   **   ~~~   ** ... Operation at low ambient temperatures may require special performance curves.
   ** Warning ** HeatExchanger:AirToAir:SensibleAndLatent "SYS_3_PSZ SP-LABORATORY - OTHER-SPACE FUNCTION SYS-3 FLR-4 SCH-A HPLCMT-EAST ZN ERV"
   **   ~~~   ** Average air volume flow rate is <50% or >130% of the nominal HX supply air volume flow rate.
   **   ~~~   ** Air volume flow rate ratio = 1.664. Environment=RUN PERIOD 1, at Simulation time=01/02 06:03 - 06:05
   ** Warning ** HeatExchanger:AirToAir:SensibleAndLatent "SYS_3_PSZ SP-LABORATORY - CLASSROOMS-SPACE FUNCTION SYS-3 FLR-4 SCH-D HPLCMT-SOUTH ZN ERV"
   **   ~~~   ** Average air volume flow rate is <50% or >130% of the nominal HX supply air volume flow rate.
   **   ~~~   ** Air volume flow rate ratio = 1.643. Environment=RUN PERIOD 1, at Simulation time=01/02 07:02 - 07:03
   ** Warning ** HeatExchanger:AirToAir:SensibleAndLatent "SYS_3_PSZ SP-LOBBY - OTHER-SPACE FUNCTION SYS-3 FLR-3 SCH-C HPLCMT-WEST ZN ERV"
   **   ~~~   ** Average air volume flow rate is <50% or >130% of the nominal HX supply air volume flow rate.
   **   ~~~   ** Air volume flow rate ratio = 5.357E-002. Environment=RUN PERIOD 1, at Simulation time=01/02 07:02 - 07:03
   ** Warning ** HeatExchanger:AirToAir:SensibleAndLatent "SYS_3_PSZ SP-LOBBY - ELEVATOR-SPACE FUNCTION SYS-3 FLR-3 SCH-C HPLCMT-SOUTH ZN ERV"
   **   ~~~   ** Average air volume flow rate is <50% or >130% of the nominal HX supply air volume flow rate.
   **   ~~~   ** Air volume flow rate ratio = 9.550E-002. Environment=RUN PERIOD 1, at Simulation time=01/02 08:02 - 08:03
   ** Warning ** HeatExchanger:AirToAir:SensibleAndLatent "SYS_3_PSZ SP-LOBBY - MOTION PICTURE THEATRE-SPACE FUNCTION SYS-3 FLR-1 SCH-C HPLCMT-CORE ZN ERV"
   **   ~~~   ** Average air volume flow rate is <50% or >130% of the nominal HX supply air volume flow rate.
   **   ~~~   ** Air volume flow rate ratio = 4.099E-002. Environment=RUN PERIOD 1, at Simulation time=01/02 08:02 - 08:03
   ** Warning ** HeatExchanger:AirToAir:SensibleAndLatent "SYS_3_PSZ SP-LOBBY - PERFORMING ARTS THEATRE-SPACE FUNCTION SYS-3 FLR-1 SCH-C HPLCMT-WEST ZN ERV"
   **   ~~~   ** Average air volume flow rate is <50% or >130% of the nominal HX supply air volume flow rate.
   **   ~~~   ** Air volume flow rate ratio = 3.144E-002. Environment=RUN PERIOD 1, at Simulation time=01/02 08:02 - 08:03
   ** Warning ** HeatExchanger:AirToAir:SensibleAndLatent "SYS_6_VAV WITH REHEAT 3 ERV"
   **   ~~~   ** Average air volume flow rate is <50% or >130% of the nominal HX supply air volume flow rate.
   **   ~~~   ** Air volume flow rate ratio = 1.554. Environment=RUN PERIOD 1, at Simulation time=01/02 09:00 - 09:05
   ** Severe  ** FindRootSimpleController: Controller error for controller = "CONTROLLER WATER COIL 13"
   **   ~~~   **  Environment=RUN PERIOD 1, at Simulation time=01/06 04:00 - 04:10
   **   ~~~   **   Controller function is inconsistent with user specified controller action = Normal action
   **   ~~~   **   Actuator will be set to maximum action
   **   ~~~   ** Controller control type=Temperature
   **   ~~~   ** Controller temperature setpoint = 11.95 [C]
   **   ~~~   ** Controller sensed temperature = 11.22 [C]
   **   ~~~   ** Controller actuator mass flow rate set to 0.72 [kg/s]
   **   ~~~   ** Controller actuator temperature = 46.11 [C]
   **   ~~~   **   Note: Chilled water coils should be reverse action and the entering chilled
   **   ~~~   **         water temperature (controller actuator temperature) should be below the setpoint temperature
   **   ~~~   **   Note: Hot water coils should be normal action and the entering hot
   **   ~~~   **         water temperature (controller actuator temperature) should be above the setpoint temperature
   ** Warning ** HeatExchanger:AirToAir:SensibleAndLatent "SYS_3_PSZ SP-LOBBY - SPACE DESIGNED TO ANSI/IES RP-28 (USED PRIMARILY BY RESIDENTS)-SPACE FUNCTION SYS-3 FLR-1 SCH-B HPLCMT-NORTH ZN ERV"
   **   ~~~   ** Average air volume flow rate is <50% or >130% of the nominal HX supply air volume flow rate.
   **   ~~~   ** Air volume flow rate ratio = 7.969E-003. Environment=RUN PERIOD 1, at Simulation time=01/07 09:40 - 09:50
   ** Warning ** SimHVAC: Maximum iterations (20) exceeded for all HVAC loops, at RUN PERIOD 1, 01/08 08:17 - 08:20
   **   ~~~   ** The solution for one or more of the Air Loop HVAC systems did not appear to converge
   **   ~~~   ** ...use Output:Diagnostics,DisplayExtraWarnings; to show more details on each max iteration exceeded.
   ** Warning ** SimHVAC: Maximum iterations (20) exceeded for all HVAC loops, at RUN PERIOD 1, 01/08 09:12 - 09:14
   **   ~~~   ** The solution for one or more of the Air Loop HVAC systems did not appear to converge
   **   ~~~   ** The solution for zone HVAC equipment did not appear to converge
   ** Warning ** SimHVAC: Maximum iterations (20) exceeded for all HVAC loops, at RUN PERIOD 1, 02/13 08:15 - 08:18
   **   ~~~   ** The solution for one or more of the Air Loop HVAC systems did not appear to converge
   ** Warning ** SimHVAC: Maximum iterations (20) exceeded for all HVAC loops, at RUN PERIOD 1, 02/13 21:03 - 21:04
   **   ~~~   ** The solution for one or more of the Air Loop HVAC systems did not appear to converge
   ** Warning ** SimHVAC: Maximum iterations (20) exceeded for all HVAC loops, at RUN PERIOD 1, 02/13 21:20 - 21:22
   **   ~~~   ** The solution for one or more of the Air Loop HVAC systems did not appear to converge
   ** Warning ** SimHVAC: Maximum iterations (20) exceeded for all HVAC loops, at RUN PERIOD 1, 02/15 08:18 - 08:20
   **   ~~~   ** The solution for one or more of the Air Loop HVAC systems did not appear to converge
   **   ~~~   ** The solution for zone HVAC equipment did not appear to converge
   ** Warning ** SimHVAC: Maximum iterations (20) exceeded for all HVAC loops, at RUN PERIOD 1, 02/19 14:32 - 14:35
   **   ~~~   ** The solution for one or more of the Air Loop HVAC systems did not appear to converge
   ** Warning ** SimHVAC: Maximum iterations (20) exceeded for all HVAC loops, at RUN PERIOD 1, 03/12 23:17 - 23:20
   **   ~~~   ** The solution for one or more of the Air Loop HVAC systems did not appear to converge
   ** Warning ** CalcDoe2DXCoil: Coil:Cooling:DX:SingleSpeed "COIL COOLING DX SINGLE SPEED 2 165KBTU/HR 9.3EER" - Full load outlet air dry-bulb temperature < 2C. This indicates the possibility of coil frost/freeze. Outlet temperature = 1.94 C.
   **   ~~~   **  ...Occurrence info = RUN PERIOD 1, 03/16 11:35 - 11:40
   **   ~~~   ** ... Possible reasons for low outlet air dry-bulb temperatures are: This DX coil
   **   ~~~   **    1) may have a low inlet air dry-bulb temperature. Inlet air temperature = 12.951 C.
   **   ~~~   **    2) may have a low air flow rate per watt of cooling capacity. Check inputs.
   **   ~~~   **    3) is used as part of a HX assisted cooling coil which uses a high sensible effectiveness. Check inputs.
   ** Warning ** SimHVAC: Maximum iterations (20) exceeded for all HVAC loops, at RUN PERIOD 1, 03/18 08:02 - 08:03
   **   ~~~   ** The solution for one or more of the Air Loop HVAC systems did not appear to converge
   ** Warning ** CalcDoe2DXCoil: Coil:Cooling:DX:SingleSpeed "COIL COOLING DX SINGLE SPEED 2 165KBTU/HR 9.3EER" - Air-cooled condenser inlet dry-bulb temperature below 0 C. Outdoor dry-bulb temperature = -0.85
   **   ~~~   **  ... Occurrence info = RUN PERIOD 1, 03/27 11:00 - 11:05
   **   ~~~   ** ... Operation at low ambient temperatures may require special performance curves.
   ** Warning ** SimHVAC: Maximum iterations (20) exceeded for all HVAC loops, at RUN PERIOD 1, 03/29 08:17 - 08:20
   **   ~~~   ** The solution for one or more of the Air Loop HVAC systems did not appear to converge
   ** Warning ** CalcDoe2DXCoil: Coil:Cooling:DX:SingleSpeed "COIL COOLING DX SINGLE SPEED 10 381KBTU/HR 8.21EER" - Air-cooled condenser inlet dry-bulb temperature below 0 C. Outdoor dry-bulb temperature = -0.30
   **   ~~~   **  ... Occurrence info = RUN PERIOD 1, 03/31 08:10 - 08:13
   **   ~~~   ** ... Operation at low ambient temperatures may require special performance curves.
   ** Warning ** CalcDoe2DXCoil: Coil:Cooling:DX:SingleSpeed "COIL COOLING DX SINGLE SPEED 10 381KBTU/HR 8.21EER" - Full load outlet air dry-bulb temperature < 2C. This indicates the possibility of coil frost/freeze. Outlet temperature = 1.71 C.
   **   ~~~   **  ...Occurrence info = RUN PERIOD 1, 04/03 08:10 - 08:13
   **   ~~~   ** ... Possible reasons for low outlet air dry-bulb temperatures are: This DX coil
[...]
   **   ~~~   **  ...Occurrence info = RUN PERIOD 1, 05/29 13:40 - 13:50
   **   ~~~   ** ... Possible reasons for low outlet air dry-bulb temperatures are: This DX coil
   **   ~~~   **    1) may have a low inlet air dry-bulb temperature. Inlet air temperature = 17.550 C.
   **   ~~~   **    2) may have a low air flow rate per watt of cooling capacity. Check inputs.
   **   ~~~   **    3) is used as part of a HX assisted cooling coil which uses a high sensible effectiveness. Check inputs.
   ** Severe  ** FindRootSimpleController: Controller error for controller = "CONTROLLER WATER COIL 1"
   **   ~~~   **  Environment=RUN PERIOD 1, at Simulation time=06/24 16:00 - 16:10
   **   ~~~   **   Controller function is inconsistent with user specified controller action = Normal action
   **   ~~~   **   Actuator will be set to maximum action
   **   ~~~   ** Controller control type=Temperature
   **   ~~~   ** Controller temperature setpoint = 20.00 [C]
   **   ~~~   ** Controller sensed temperature = 17.16 [C]
   **   ~~~   ** Controller actuator mass flow rate set to 1.91 [kg/s]
   **   ~~~   ** Controller actuator temperature = 16.58 [C]
   **   ~~~   **   Note: Chilled water coils should be reverse action and the entering chilled
   **   ~~~   **         water temperature (controller actuator temperature) should be below the setpoint temperature
   **   ~~~   **   Note: Hot water coils should be normal action and the entering hot
   **   ~~~   **         water temperature (controller actuator temperature) should be above the setpoint temperature
   ** Warning ** CalcDoe2DXCoil: Coil:Cooling:DX:SingleSpeed "COIL COOLING DX SINGLE SPEED 6 436KBTU/HR 8.21EER" - Full load outlet air dry-bulb temperature < 2C. This indicates the possibility of coil frost/freeze. Outlet temperature = 1.82 C.
   **   ~~~   **  ...Occurrence info = RUN PERIOD 1, 07/03 08:20 - 08:21
   **   ~~~   ** ... Possible reasons for low outlet air dry-bulb temperatures are: This DX coil
   **   ~~~   **    1) may have a low inlet air dry-bulb temperature. Inlet air temperature = 12.800 C.
   **   ~~~   **    2) may have a low air flow rate per watt of cooling capacity. Check inputs.
   **   ~~~   **    3) is used as part of a HX assisted cooling coil which uses a high sensible effectiveness. Check inputs.
   ** Warning ** SimHVAC: Maximum iterations (20) exceeded for all HVAC loops, at RUN PERIOD 1, 10/10 08:20 - 08:25
   **   ~~~   ** The solution for one or more of the Air Loop HVAC systems did not appear to converge
   ** Warning ** The resource referenced by LifeCycleCost:UsePriceEscalation= "U.S. AVG  COMMERCIAL-ELECTRICITY" has no energy cost. 
   **   ~~~   ** ... It is likely that the wrong resource is used. The resource should match the meter used in Utility:Tariff.
   ** Warning ** The resource referenced by LifeCycleCost:UsePriceEscalation= "U.S. AVG  COMMERCIAL-DISTILLATE OIL" has no energy cost. 
   **   ~~~   ** ... It is likely that the wrong resource is used. The resource should match the meter used in Utility:Tariff.
   ** Warning ** The resource referenced by LifeCycleCost:UsePriceEscalation= "U.S. AVG  COMMERCIAL-RESIDUAL OIL" has no energy cost. 
   **   ~~~   ** ... It is likely that the wrong resource is used. The resource should match the meter used in Utility:Tariff.
   ** Warning ** The resource referenced by LifeCycleCost:UsePriceEscalation= "U.S. AVG  COMMERCIAL-NATURAL GAS" has no energy cost. 
   **   ~~~   ** ... It is likely that the wrong resource is used. The resource should match the meter used in Utility:Tariff.
   ** Warning ** The resource referenced by LifeCycleCost:UsePriceEscalation= "U.S. AVG  COMMERCIAL-COAL" has no energy cost. 
   **   ~~~   ** ... It is likely that the wrong resource is used. The resource should match the meter used in Utility:Tariff.
   ************* Simulation Error Summary *************
   ************* There are 9 unused schedules in input.
   ************* There are 9 unused week schedules in input.
   ************* There are 51 unused day schedules in input.
   ************* Use Output:Diagnostics,DisplayUnusedSchedules; to see them.
   *************
   ************* ===== Recurring Error Summary =====
   ************* The following recurring error messages occurred.
   *************
   *************  ** Warning ** Plant loop falling below lower temperature limit, PlantLoop="MAIN SERVICE WATER LOOP"
   *************  **   ~~~   **   This error occurred 11 total times;
   *************  **   ~~~   **   during Warmup 4 times;
   *************  **   ~~~   **   during Sizing 0 times.
   *************  **   ~~~   **   Min=0.
   *************
   *************  ** Warning ** HeatExchanger:AirToAir:SensibleAndLatent "SYS_3_PSZ SP-LOBBY - HOTEL-SPACE FUNCTION SYS-3 FLR-3 SCH-H HPLCMT-EAST ZN ERV":  Average air volume flow rate is <50% or >130% warning continues. Air flow rate ratio statistics follow.
   *************  **   ~~~   **   This error occurred 145460 total times;
   *************  **   ~~~   **   during Warmup 0 times;
   *************  **   ~~~   **   during Sizing 0 times.
   *************  **   ~~~   **   Max=1.638164  Min=1.411517
   *************
   *************  ** Warning ** CalcDoe2DXCoil: Coil:Cooling:DX:SingleSpeed="COIL COOLING DX SINGLE SPEED 8 243KBTU/HR 8.21EER" - Low condenser dry-bulb temperature error continues...
   *************  **   ~~~   **   This error occurred 129 total times;
   *************  **   ~~~   **   during Warmup 0 times;
   *************  **   ~~~   **   during Sizing 0 times.
   *************  **   ~~~   **   Max=-5.000000E-002 [C]  Min=-11.216667 [C]
   *************
   *************  ** Warning ** CalcDoe2DXCoil: Coil:Cooling:DX:SingleSpeed="COIL COOLING DX SINGLE SPEED 8 243KBTU/HR 8.21EER" - Full load outlet temperature indicates a possibility of frost/freeze error continues. Outlet air temperature statistics follow:
   *************  **   ~~~   **   This error occurred 209 total times;
   *************  **   ~~~   **   during Warmup 0 times;
   *************  **   ~~~   **   during Sizing 0 times.
   *************  **   ~~~   **   Max=1.992841  Min=-1.397122
   *************
   *************  ** Warning ** HeatExchanger:AirToAir:SensibleAndLatent "SYS_3_PSZ SP-LAUNDRY/WASHING AREA-SPACE FUNCTION SYS-3 FLR-4 SCH-C HPLCMT-NORTH ZN ERV":  Average air volume flow rate is <50% or >130% warning continues. Air flow rate ratio statistics follow.
   *************  **   ~~~   **   This error occurred 117209 total times;
   *************  **   ~~~   **   during Warmup 0 times;
   *************  **   ~~~   **   during Sizing 0 times.
   *************  **   ~~~   **   Max=3.588951  Min=5.952823E-004
   *************
   *************  ** Warning ** CalcDoe2DXCoil: Coil:Cooling:DX:SingleSpeed="COIL COOLING DX SINGLE SPEED 11 313KBTU/HR 8.21EER" - Low condenser dry-bulb temperature error continues...
   *************  **   ~~~   **   This error occurred 41 total times;
   *************  **   ~~~   **   during Warmup 0 times;
   *************  **   ~~~   **   during Sizing 0 times.
   *************  **   ~~~   **   Max=-0.1 [C]  Min=-19.883333 [C]
   *************
   *************  ** Warning ** HeatExchanger:AirToAir:SensibleAndLatent "SYS_3_PSZ SP-LABORATORY - OTHER-SPACE FUNCTION SYS-3 FLR-4 SCH-A HPLCMT-EAST ZN ERV":  Average air volume flow rate is <50% or >130% warning continues. Air flow rate ratio statistics follow.
   *************  **   ~~~   **   This error occurred 46856 total times;
   *************  **   ~~~   **   during Warmup 0 times;
   *************  **   ~~~   **   during Sizing 0 times.
   *************  **   ~~~   **   Max=1.691264  Min=2.176962E-004
   *************
   *************  ** Warning ** HeatExchanger:AirToAir:SensibleAndLatent "SYS_3_PSZ SP-LABORATORY - CLASSROOMS-SPACE FUNCTION SYS-3 FLR-4 SCH-D HPLCMT-SOUTH ZN ERV":  Average air volume flow rate is <50% or >130% warning continues. Air flow rate ratio statistics follow.
   *************  **   ~~~   **   This error occurred 46403 total times;
   *************  **   ~~~   **   during Warmup 0 times;
   *************  **   ~~~   **   during Sizing 0 times.
   *************  **   ~~~   **   Max=1.67039  Min=2.210275E-004
   *************
   *************  ** Warning ** HeatExchanger:AirToAir:SensibleAndLatent "SYS_3_PSZ SP-LOBBY - OTHER-SPACE FUNCTION SYS-3 FLR-3 SCH-C HPLCMT-WEST ZN ERV":  Average air volume flow rate is <50% or >130% warning continues. Air flow rate ratio statistics follow.
   *************  **   ~~~   **   This error occurred 2522 total times;
   *************  **   ~~~   **   during Warmup 0 times;
   *************  **   ~~~   **   during Sizing 0 times.
   *************  **   ~~~   **   Max=0.250368  Min=1.343503E-004
   *************
   *************  ** Warning ** HeatExchanger:AirToAir:SensibleAndLatent "SYS_3_PSZ SP-LOBBY - ELEVATOR-SPACE FUNCTION SYS-3 FLR-3 SCH-C HPLCMT-SOUTH ZN ERV":  Average air volume flow rate is <50% or >130% warning continues. Air flow rate ratio statistics follow.
   *************  **   ~~~   **   This error occurred 2102 total times;
   *************  **   ~~~   **   during Warmup 0 times;
   *************  **   ~~~   **   during Sizing 0 times.
   *************  **   ~~~   **   Max=0.194963  Min=1.184045E-004
   *************
   *************  ** Warning ** HeatExchanger:AirToAir:SensibleAndLatent "SYS_3_PSZ SP-LOBBY - MOTION PICTURE THEATRE-SPACE FUNCTION SYS-3 FLR-1 SCH-C HPLCMT-CORE ZN ERV":  Average air volume flow rate is <50% or >130% warning continues. Air flow rate ratio statistics follow.
   *************  **   ~~~   **   This error occurred 320 total times;
   *************  **   ~~~   **   during Warmup 0 times;
   *************  **   ~~~   **   during Sizing 0 times.
   *************  **   ~~~   **   Max=6.933960E-002  Min=2.209848E-004
   *************
   *************  ** Warning ** HeatExchanger:AirToAir:SensibleAndLatent "SYS_3_PSZ SP-LOBBY - PERFORMING ARTS THEATRE-SPACE FUNCTION SYS-3 FLR-1 SCH-C HPLCMT-WEST ZN ERV":  Average air volume flow rate is <50% or >130% warning continues. Air flow rate ratio statistics follow.
   *************  **   ~~~   **   This error occurred 482 total times;
   *************  **   ~~~   **   during Warmup 0 times;
   *************  **   ~~~   **   during Sizing 0 times.
   *************  **   ~~~   **   Max=0.385006  Min=3.907174E-003
   *************
   *************  ** Warning ** HeatExchanger:AirToAir:SensibleAndLatent "SYS_6_VAV WITH REHEAT 3 ERV":  Average air volume flow rate is <50% or >130% warning continues. Air flow rate ratio statistics follow.
   *************  **   ~~~   **   This error occurred 5391302 total times;
   *************  **   ~~~   **   during Warmup 0 times;
   *************  **   ~~~   **   during Sizing 0 times.
   *************  **   ~~~   **   Max=1.584706  Min=1.310485
   *************
   *************  ** Warning ** HeatExchanger:AirToAir:SensibleAndLatent "SYS_3_PSZ SP-LOBBY - SPACE DESIGNED TO ANSI/IES RP-28 (USED PRIMARILY BY RESIDENTS)-SPACE FUNCTION SYS-3 FLR-1 SCH-B HPLCMT-NORTH ZN ERV":  Average air volume flow rate is <50% or >130% warning continues. Air flow rate ratio statistics follow.
   *************  **   ~~~   **   This error occurred 1043 total times;
   *************  **   ~~~   **   during Warmup 0 times;
   *************  **   ~~~   **   during Sizing 0 times.
   *************  **   ~~~   **   Max=0.379669  Min=3.687513E-004
   *************
   *************  ** Severe  ** FindRootSimpleController: Previous controller action error continues for controller = CONTROLLER WATER COIL 13
   *************  **   ~~~   **   This error occurred 6 total times;
   *************  **   ~~~   **   during Warmup 0 times;
   *************  **   ~~~   **   during Sizing 0 times.
   *************
   *************  ** Warning ** CalcDoe2DXCoil: Coil:Cooling:DX:SingleSpeed="COIL COOLING DX SINGLE SPEED 2 165KBTU/HR 9.3EER" - Full load outlet temperature indicates a possibility of frost/freeze error continues. Outlet air temperature statistics follow:
   *************  **   ~~~   **   This error occurred 78 total times;
   *************  **   ~~~   **   during Warmup 0 times;
   *************  **   ~~~   **   during Sizing 0 times.
   *************  **   ~~~   **   Max=1.992349  Min=4.039906E-003
   *************
   *************  ** Warning ** CalcDoe2DXCoil: Coil:Cooling:DX:SingleSpeed="COIL COOLING DX SINGLE SPEED 2 165KBTU/HR 9.3EER" - Low condenser dry-bulb temperature error continues...
   *************  **   ~~~   **   This error occurred 44 total times;
   *************  **   ~~~   **   during Warmup 0 times;
   *************  **   ~~~   **   during Sizing 0 times.
   *************  **   ~~~   **   Max=-0.15 [C]  Min=-2.55 [C]
   *************
   *************  ** Warning ** CalcDoe2DXCoil: Coil:Cooling:DX:SingleSpeed="COIL COOLING DX SINGLE SPEED 10 381KBTU/HR 8.21EER" - Low condenser dry-bulb temperature error continues...
   *************  **   ~~~   **   This error occurred 3 total times;
   *************  **   ~~~   **   during Warmup 0 times;
   *************  **   ~~~   **   during Sizing 0 times.
   *************  **   ~~~   **   Max=-0.3 [C]  Min=-3.366667 [C]
   *************
   *************  ** Warning ** CalcDoe2DXCoil: Coil:Cooling:DX:SingleSpeed="COIL COOLING DX SINGLE SPEED 10 381KBTU/HR 8.21EER" - Full load outlet temperature indicates a possibility of frost/freeze error continues. Outlet air temperature statistics follow:
   *************  **   ~~~   **   This error occurred 47 total times;
   *************  **   ~~~   **   during Warmup 0 times;
   *************  **   ~~~   **   during Sizing 0 times.
   *************  **   ~~~   **   Max=1.98568  Min=6.289348E-002
   *************
   *************  ** Warning ** CalcDoe2DXCoil: Coil:Cooling:DX:SingleSpeed="COIL COOLING DX SINGLE SPEED 9 385KBTU/HR 8.21EER" - Full load outlet temperature indicates a possibility of frost/freeze error continues. Outlet air temperature statistics follow:
   *************  **   ~~~   **   This error occurred 124 total times;
   *************  **   ~~~   **   during Warmup 0 times;
   *************  **   ~~~   **   during Sizing 0 times.
   *************  **   ~~~   **   Max=1.994592  Min=-1.15759
   *************
   *************  ** Warning ** CalcDoe2DXCoil: Coil:Cooling:DX:SingleSpeed="COIL COOLING DX SINGLE SPEED 9 385KBTU/HR 8.21EER" - Low condenser dry-bulb temperature error continues...
   *************  **   ~~~   **   This error occurred 3 total times;
   *************  **   ~~~   **   during Warmup 0 times;
   *************  **   ~~~   **   during Sizing 0 times.
   *************  **   ~~~   **   Max=-0.9 [C]  Min=-1.9 [C]
   *************
   *************  ** Warning ** CalcDoe2DXCoil: Coil:Cooling:DX:SingleSpeed="COIL COOLING DX SINGLE SPEED 12 100KBTU/HR 9.26EER" - Full load outlet temperature indicates a possibility of frost/freeze error continues. Outlet air temperature statistics follow:
   *************  **   ~~~   **   This error occurred 30 total times;
   *************  **   ~~~   **   during Warmup 0 times;
   *************  **   ~~~   **   during Sizing 0 times.
   *************  **   ~~~   **   Max=1.990111  Min=0.860941
   *************
   *************  ** Warning ** CalcDoe2DXCoil: Coil:Cooling:DX:SingleSpeed="COIL COOLING DX SINGLE SPEED 11 313KBTU/HR 8.21EER" - Full load outlet temperature indicates a possibility of frost/freeze error continues. Outlet air temperature statistics follow:
   *************  **   ~~~   **   This error occurred 19 total times;
   *************  **   ~~~   **   during Warmup 0 times;
   *************  **   ~~~   **   during Sizing 0 times.
   *************  **   ~~~   **   Max=1.966531  Min=0.710994
   *************
   *************  ** Warning ** CalcDoe2DXCoil: Coil:Cooling:DX:SingleSpeed="COIL COOLING DX SINGLE SPEED 3 448KBTU/HR 8.21EER" - Full load outlet temperature indicates a possibility of frost/freeze error continues. Outlet air temperature statistics follow:
   *************  **   ~~~   **   This error occurred 2 total times;
   *************  **   ~~~   **   during Warmup 0 times;
   *************  **   ~~~   **   during Sizing 0 times.
   *************  **   ~~~   **   Max=1.804728  Min=0.84364
   *************
   *************  ** Warning ** CalcDoe2DXCoil: Coil:Cooling:DX:SingleSpeed="COIL COOLING DX SINGLE SPEED 7 488KBTU/HR 8.21EER" - Full load outlet temperature indicates a possibility of frost/freeze error continues. Outlet air temperature statistics follow:
   *************  **   ~~~   **   This error occurred 5 total times;
   *************  **   ~~~   **   during Warmup 0 times;
   *************  **   ~~~   **   during Sizing 0 times.
   *************  **   ~~~   **   Max=1.967189  Min=-2.377006E-003
   *************
   *************  ** Severe  ** FindRootSimpleController: Previous controller action error continues for controller = CONTROLLER WATER COIL 1
   *************  **   ~~~   **   This error occurred 11 total times;
   *************  **   ~~~   **   during Warmup 0 times;
   *************  **   ~~~   **   during Sizing 0 times.
   *************
   *************  ** Warning ** CalcDoe2DXCoil: Coil:Cooling:DX:SingleSpeed="COIL COOLING DX SINGLE SPEED 6 436KBTU/HR 8.21EER" - Full load outlet temperature indicates a possibility of frost/freeze error continues. Outlet air temperature statistics follow:
   *************  **   ~~~   **   This error occurred 1 total times;
   *************  **   ~~~   **   during Warmup 0 times;
   *************  **   ~~~   **   during Sizing 0 times.
   *************  **   ~~~   **   Max=1.821049  Min=1.821049
   *************
   *************  ** Warning ** SimHVAC: Exceeding Maximum iterations for all HVAC loops, during RUN PERIOD 1 continues
   *************  **   ~~~   **   This error occurred 16 total times;
   *************  **   ~~~   **   during Warmup 0 times;
   *************  **   ~~~   **   during Sizing 0 times.
   *************
   *************
   ************* ===== Final Error Summary =====
   ************* The following error categories occurred.  Consider correcting or noting.
   ************* Loads Initialization did not Converge
   ************* ..1) very high thermal mass such as very thick concrete (solution: increase max number of warmup
   ************* ..   days in the BUILDING object);
   ************* ..2) moderate mass and inadequate space conditioning such that the building keeps getting warmer
   ************* ..   and warmer on successive days (solution: add HVAC, check building thermal properties,
   ************* ..   check if infiltration is included, make sure HVAC properly controlled);
   ************* ..3) a soil layer modeled below the concrete slab - (solution remove this layer and read about
   ************* ..   ground temperatures in the Auxiliary Programs document).
   ************* ..4) unreasonable (too small) limits in the BUILDING object for temperature (.4 default) or
   ************* ..   loads tolerances (.04 default)
   ************* Nominally Unused Constructions
   ************* ..The nominally unused constructions warning is provided to alert you to potential conditions that can cause
   ************* ..extra time during simulation. Each construction is calculated by the algorithm indicated in the HeatBalanceAlgorithm
   ************* ..object. You may remove the constructions indicated (when you use the DisplayExtraWarnings option).
   *************
   ************* EnergyPlus Warmup Error Summary. During Warmup: 0 Warning; 8 Severe Errors.
   ************* EnergyPlus Sizing Error Summary. During Sizing: 153 Warning; 0 Severe Errors.
   ************* EnergyPlus Completed Successfully-- 5754668 Warning; 27 Severe Errors; Elapsed Time=00hr 05min 41.19sec
