Program Version,EnergyPlus, Version 8.9.0-eba93e8e1b, YMD=2019.03.28 14:21
! This file shows details about the branches, nodes, and other
! elements of the flow connections.
! This file is intended for use in "debugging" potential problems
! that may also be detected by the program, but may be more easily
! identified by "eye".
! This file is also intended to support software which draws a
! schematic diagram of the HVAC system.
! ===============================================================
! #Nodes,<Number of Unique Nodes>
 #Nodes,409
! <Node>,<NodeNumber>,<Node Name>,<Node Fluid Type>,<# Times Node Referenced After Definition>
 Node,1,NODE 46,Air,3
 Node,2,NODE 38,Air,3
 Node,3,NODE 45,Air,3
 Node,4,NODE 132,Air,4
 Node,5,NODE 145,Air,4
 Node,6,NODE 158,Air,4
 Node,7,NODE 171,Air,4
 Node,8,NODE 106,Air,4
 Node,9,NODE 119,Air,4
 Node,10,NODE 67,Air,4
 Node,11,NODE 93,Air,4
 Node,12,NODE 54,Air,4
 Node,13,NODE 80,Air,4
 Node,14,NODE 211,Air,4
 Node,15,NODE 229,Air,4
 Node,16,NODE 238,Air,4
 Node,17,NODE 308,Air,4
 Node,18,NODE 257,Air,4
 Node,19,NODE 264,Air,4
 Node,20,NODE 271,Air,4
 Node,21,NODE 287,Air,4
 Node,22,NODE 278,Air,4
 Node,23,NODE 35,Air,10
 Node,24,NODE 36,Air,3
 Node,25,NODE 129,Air,10
 Node,26,NODE 130,Air,3
 Node,27,NODE 142,Air,10
 Node,28,NODE 143,Air,3
 Node,29,NODE 155,Air,10
 Node,30,NODE 156,Air,3
 Node,31,NODE 103,Air,10
 Node,32,NODE 104,Air,3
 Node,33,NODE 116,Air,10
 Node,34,NODE 117,Air,3
 Node,35,NODE 64,Air,10
 Node,36,NODE 65,Air,3
 Node,37,NODE 90,Air,10
 Node,38,NODE 91,Air,3
 Node,39,NODE 51,Air,10
 Node,40,NODE 52,Air,3
 Node,41,NODE 77,Air,10
 Node,42,NODE 78,Air,3
 Node,43,NODE 168,Air,10
 Node,44,NODE 169,Air,3
 Node,45,NODE 208,Air,12
 Node,46,NODE 209,Air,3
 Node,47,NODE 235,Air,12
 Node,48,NODE 236,Air,3
 Node,49,NODE 284,Air,12
 Node,50,NODE 285,Air,3
 Node,51,NODE 305,Air,12
 Node,52,NODE 306,Air,3
 Node,53,NODE 34,Air,4
 Node,54,NODE 44,Air,8
 Node,55,NODE 43,Air,6
 Node,56,NODE 42,Air,8
 Node,57,NODE 128,Air,4
 Node,58,NODE 137,Air,8
 Node,59,NODE 136,Air,6
 Node,60,NODE 135,Air,8
 Node,61,NODE 141,Air,4
 Node,62,NODE 150,Air,8
 Node,63,NODE 149,Air,6
 Node,64,NODE 148,Air,8
 Node,65,NODE 154,Air,4
 Node,66,NODE 163,Air,8
 Node,67,NODE 162,Air,6
 Node,68,NODE 161,Air,8
 Node,69,NODE 102,Air,4
 Node,70,NODE 111,Air,8
 Node,71,NODE 110,Air,6
 Node,72,NODE 109,Air,8
 Node,73,NODE 115,Air,4
 Node,74,NODE 124,Air,8
 Node,75,NODE 123,Air,6
 Node,76,NODE 122,Air,8
 Node,77,NODE 63,Air,4
 Node,78,NODE 72,Air,8
 Node,79,NODE 71,Air,6
 Node,80,NODE 70,Air,8
 Node,81,NODE 89,Air,4
 Node,82,NODE 98,Air,8
 Node,83,NODE 97,Air,6
 Node,84,NODE 96,Air,8
 Node,85,NODE 50,Air,4
 Node,86,NODE 59,Air,8
 Node,87,NODE 58,Air,6
 Node,88,NODE 57,Air,8
 Node,89,NODE 76,Air,4
 Node,90,NODE 85,Air,8
 Node,91,NODE 84,Air,6
 Node,92,NODE 83,Air,8
 Node,93,NODE 167,Air,4
 Node,94,NODE 176,Air,8
 Node,95,NODE 175,Air,6
 Node,96,NODE 174,Air,8
 Node,97,NODE 207,Air,2
 Node,98,NODE 220,Air,6
 Node,99,NODE 219,Air,7
 Node,100,NODE 218,Air,5
 Node,101,NODE 217,Air,9
 Node,102,NODE 234,Air,2
 Node,103,NODE 248,Air,6
 Node,104,NODE 247,Air,7
 Node,105,NODE 246,Air,5
 Node,106,NODE 245,Air,9
 Node,107,NODE 283,Air,2
 Node,108,NODE 297,Air,6
 Node,109,NODE 296,Air,7
 Node,110,NODE 295,Air,5
 Node,111,NODE 294,Air,9
 Node,112,NODE 304,Air,2
 Node,113,NODE 318,Air,6
 Node,114,NODE 317,Air,7
 Node,115,NODE 316,Air,5
 Node,116,NODE 315,Air,9
 Node,117,NODE 180,Water,2
 Node,118,NODE 186,Water,1
 Node,119,NODE 182,Water,1
 Node,120,NODE 187,Water,1
 Node,121,NODE 188,Water,1
 Node,122,NODE 189,Water,1
 Node,123,NODE 190,Water,1
 Node,124,NODE 191,Water,1
 Node,125,NODE 192,Water,1
 Node,126,NODE 181,Water,4
 Node,127,NODE 183,Water,2
 Node,128,CHILLED WATER LOOP DEMAND INLET PIPE NODE,Water,1
 Node,129,NODE 185,Water,2
 Node,130,NODE 214,Water,1
 Node,131,NODE 241,Water,2
 Node,132,NODE 242,Water,1
 Node,133,NODE 290,Water,2
 Node,134,NODE 291,Water,1
 Node,135,NODE 311,Water,2
 Node,136,NODE 312,Water,1
 Node,137,CHILLED WATER LOOP DEMAND BYPASS PIPE INLET NODE,Water,1
 Node,138,CHILLED WATER LOOP DEMAND BYPASS PIPE OUTLET NODE,Water,1
 Node,139,CHILLED WATER LOOP DEMAND OUTLET PIPE NODE,Water,1
 Node,140,NODE 184,Water,2
 Node,141,NODE 193,Water,2
 Node,142,NODE 199,Water,1
 Node,143,NODE 195,Water,1
 Node,144,NODE 200,Water,1
 Node,145,NODE 201,Water,1
 Node,146,NODE 202,Water,1
 Node,147,NODE 203,Water,1
 Node,148,NODE 194,Water,4
 Node,149,NODE 196,Water,2
 Node,150,CONDENSER WATER LOOP DEMAND INLET PIPE NODE,Water,1
 Node,151,NODE 198,Water,1
 Node,152,NODE 204,Water,1
 Node,153,NODE 205,Water,1
 Node,154,NODE 206,Water,1
 Node,155,CONDENSER WATER LOOP DEMAND BYPASS PIPE INLET NODE,Water,1
 Node,156,CONDENSER WATER LOOP DEMAND BYPASS PIPE OUTLET NODE,Water,1
 Node,157,CONDENSER WATER LOOP DEMAND OUTLET PIPE NODE,Water,1
 Node,158,NODE 197,Water,2
 Node,159,NODE 21,Water,2
 Node,160,NODE 27,Water,1
 Node,161,NODE 23,Water,1
 Node,162,NODE 28,Water,1
 Node,163,NODE 29,Water,1
 Node,164,NODE 30,Water,1
 Node,165,NODE 31,Water,1
 Node,166,NODE 32,Water,1
 Node,167,NODE 33,Water,1
 Node,168,NODE 22,Water,4
 Node,169,NODE 24,Water,2
 Node,170,HOT WATER LOOP DEMAND INLET PIPE NODE,Water,1
 Node,171,NODE 26,Water,2
 Node,172,NODE 39,Water,1
 Node,173,NODE 47,Water,1
 Node,174,NODE 48,Water,1
 Node,175,NODE 61,Water,1
 Node,176,NODE 62,Water,1
 Node,177,NODE 74,Water,1
 Node,178,NODE 75,Water,1
 Node,179,NODE 87,Water,1
 Node,180,NODE 88,Water,1
 Node,181,NODE 100,Water,1
 Node,182,NODE 101,Water,1
 Node,183,NODE 113,Water,1
 Node,184,NODE 114,Water,1
 Node,185,NODE 126,Water,1
 Node,186,NODE 127,Water,1
 Node,187,NODE 139,Water,1
 Node,188,NODE 140,Water,1
 Node,189,NODE 152,Water,1
 Node,190,NODE 153,Water,1
 Node,191,NODE 165,Water,1
 Node,192,NODE 166,Water,1
 Node,193,NODE 178,Water,1
 Node,194,NODE 179,Water,1
 Node,195,NODE 212,Water,2
 Node,196,NODE 213,Water,1
 Node,197,NODE 221,Water,1
 Node,198,NODE 222,Water,1
 Node,199,NODE 225,Water,1
 Node,200,NODE 226,Water,1
 Node,201,NODE 227,Water,1
 Node,202,NODE 228,Water,1
 Node,203,NODE 232,Water,1
 Node,204,NODE 233,Water,1
 Node,205,NODE 239,Water,2
 Node,206,NODE 240,Water,1
 Node,207,NODE 249,Water,1
 Node,208,NODE 250,Water,1
 Node,209,NODE 253,Water,1
 Node,210,NODE 254,Water,1
 Node,211,NODE 255,Water,1
 Node,212,NODE 256,Water,1
 Node,213,NODE 260,Water,1
 Node,214,NODE 261,Water,1
 Node,215,NODE 262,Water,1
 Node,216,NODE 263,Water,1
 Node,217,NODE 267,Water,1
 Node,218,NODE 268,Water,1
 Node,219,NODE 269,Water,1
 Node,220,NODE 270,Water,1
 Node,221,NODE 274,Water,1
 Node,222,NODE 275,Water,1
 Node,223,NODE 276,Water,1
 Node,224,NODE 277,Water,1
 Node,225,NODE 281,Water,1
 Node,226,NODE 282,Water,1
 Node,227,NODE 288,Water,2
 Node,228,NODE 289,Water,1
 Node,229,NODE 298,Water,1
 Node,230,NODE 299,Water,1
 Node,231,NODE 302,Water,1
 Node,232,NODE 303,Water,1
 Node,233,NODE 309,Water,2
 Node,234,NODE 310,Water,1
 Node,235,NODE 319,Water,1
 Node,236,NODE 320,Water,1
 Node,237,NODE 323,Water,1
 Node,238,NODE 324,Water,1
 Node,239,HOT WATER LOOP DEMAND BYPASS PIPE INLET NODE,Water,1
 Node,240,HOT WATER LOOP DEMAND BYPASS PIPE OUTLET NODE,Water,1
 Node,241,HOT WATER LOOP DEMAND OUTLET PIPE NODE,Water,1
 Node,242,NODE 25,Water,2
 Node,243,NODE 325,Water,2
 Node,244,NODE 331,Water,1
 Node,245,NODE 327,Water,1
 Node,246,NODE 332,Water,1
 Node,247,NODE 333,Water,1
 Node,248,NODE 334,Water,1
 Node,249,NODE 336,Water,1
 Node,250,NODE 326,Water,4
 Node,251,NODE 328,Water,2
 Node,252,NODE 337,Water,1
 Node,253,NODE 330,Water,1
 Node,254,NODE 335,Water,1
 Node,255,NODE 339,Water,1
 Node,256,NODE 340,Water,1
 Node,257,NODE 341,Water,1
 Node,258,NODE 342,Water,1
 Node,259,NODE 343,Water,1
 Node,260,NODE 344,Water,1
 Node,261,NODE 345,Water,1
 Node,262,NODE 346,Water,1
 Node,263,NODE 347,Water,1
 Node,264,NODE 348,Water,1
 Node,265,NODE 349,Water,1
 Node,266,NODE 350,Water,1
 Node,267,MAIN SERVICE WATER LOOP DEMAND BYPASS PIPE INLET NODE,Water,1
 Node,268,MAIN SERVICE WATER LOOP DEMAND BYPASS PIPE OUTLET NODE,Water,1
 Node,269,NODE 338,Water,1
 Node,270,NODE 329,Water,2
 Node,271,NODE 1,Air,0
 Node,272,NODE 49,Air,1
 Node,273,NODE 8,Air,1
 Node,274,NODE 138,Air,1
 Node,275,NODE 9,Air,1
 Node,276,NODE 151,Air,1
 Node,277,NODE 10,Air,1
 Node,278,NODE 164,Air,1
 Node,279,NODE 11,Air,1
 Node,280,NODE 177,Air,1
 Node,281,NODE 6,Air,1
 Node,282,NODE 112,Air,1
 Node,283,NODE 7,Air,1
 Node,284,NODE 125,Air,1
 Node,285,NODE 3,Air,1
 Node,286,NODE 73,Air,1
 Node,287,NODE 5,Air,1
 Node,288,NODE 99,Air,1
 Node,289,NODE 2,Air,1
 Node,290,NODE 60,Air,1
 Node,291,NODE 4,Air,1
 Node,292,NODE 86,Air,1
 Node,293,NODE 12,Air,0
 Node,294,NODE 223,Air,1
 Node,295,NODE 13,Air,0
 Node,296,NODE 230,Air,1
 Node,297,NODE 15,Air,0
 Node,298,NODE 251,Air,1
 Node,299,NODE 20,Air,0
 Node,300,NODE 321,Air,1
 Node,301,NODE 16,Air,0
 Node,302,NODE 258,Air,1
 Node,303,NODE 14,Air,0
 Node,304,NODE 265,Air,1
 Node,305,NODE 17,Air,0
 Node,306,NODE 272,Air,1
 Node,307,NODE 19,Air,0
 Node,308,NODE 300,Air,1
 Node,309,NODE 18,Air,0
 Node,310,NODE 279,Air,1
 Node,311,NODE 37,Air,2
 Node,312,NODE 131,Air,2
 Node,313,NODE 144,Air,2
 Node,314,NODE 157,Air,2
 Node,315,NODE 105,Air,2
 Node,316,NODE 118,Air,2
 Node,317,NODE 66,Air,2
 Node,318,NODE 92,Air,2
 Node,319,NODE 53,Air,2
 Node,320,NODE 79,Air,2
 Node,321,NODE 170,Air,2
 Node,322,NODE 210,Air,2
 Node,323,NODE 237,Air,2
 Node,324,NODE 286,Air,2
 Node,325,NODE 307,Air,2
 Node,326,SP-GUEST ROOM-SPACE FUNCTION SYS-1 FLR-4 SCH-F HPLCMT-CORE ZN PTAC OA NODE,Air,1
 Node,327,NODE 40,Air,3
 Node,328,NODE 133,Air,3
 Node,329,NODE 146,Air,3
 Node,330,NODE 159,Air,3
 Node,331,NODE 107,Air,3
 Node,332,NODE 120,Air,3
 Node,333,NODE 68,Air,3
 Node,334,NODE 94,Air,3
 Node,335,NODE 55,Air,3
 Node,336,NODE 81,Air,3
 Node,337,NODE 172,Air,3
 Node,338,NODE 215,Air,3
 Node,339,NODE 243,Air,3
 Node,340,NODE 292,Air,3
 Node,341,NODE 313,Air,3
 Node,342,MODEL OUTDOOR AIR NODE,Air,0
 Node,343,NODE 352,Air,2
 Node,344,NODE 354,Air,2
 Node,345,NODE 356,Air,2
 Node,346,NODE 358,Air,2
 Node,347,NODE 360,Air,2
 Node,348,NODE 362,Air,2
 Node,349,NODE 364,Air,2
 Node,350,NODE 366,Air,2
 Node,351,NODE 368,Air,2
 Node,352,NODE 370,Air,2
 Node,353,NODE 372,Air,2
 Node,354,NODE 374,Air,2
 Node,355,NODE 376,Air,2
 Node,356,NODE 378,Air,2
 Node,357,NODE 380,Air,2
 Node,358,NODE 224,Air,1
 Node,359,NODE 231,Air,1
 Node,360,NODE 252,Air,1
 Node,361,NODE 259,Air,1
 Node,362,NODE 266,Air,1
 Node,363,NODE 273,Air,1
 Node,364,NODE 280,Air,1
 Node,365,NODE 301,Air,1
 Node,366,NODE 322,Air,1
 Node,367,SP-GUEST ROOM-SPACE FUNCTION SYS-1 FLR-4 SCH-F HPLCMT-CORE ZN PTAC MIXED AIR NODE,Air,1
 Node,368,SP-GUEST ROOM-SPACE FUNCTION SYS-1 FLR-4 SCH-F HPLCMT-CORE ZN PTAC RELIEF AIR NODE,Air,0
 Node,369,NODE 353,Air,2
 Node,370,NODE 355,Air,2
 Node,371,NODE 357,Air,2
 Node,372,NODE 359,Air,2
 Node,373,NODE 361,Air,2
 Node,374,NODE 363,Air,2
 Node,375,NODE 365,Air,2
 Node,376,NODE 367,Air,2
 Node,377,NODE 369,Air,2
 Node,378,NODE 371,Air,2
 Node,379,NODE 373,Air,2
 Node,380,NODE 375,Air,2
 Node,381,NODE 377,Air,2
 Node,382,NODE 379,Air,2
 Node,383,NODE 381,Air,2
 Node,384,SP-GUEST ROOM-SPACE FUNCTION SYS-1 FLR-4 SCH-F HPLCMT-CORE ZN PTAC HEATING COIL OUTLET NODE,Air,1
 Node,385,SP-GUEST ROOM-SPACE FUNCTION SYS-1 FLR-4 SCH-F HPLCMT-CORE ZN PTAC COOLING COIL OUTLET NODE,Air,1
 Node,386,AIR TERMINAL SINGLE DUCT VAV REHEAT 1 DAMPER OUTLET,Air,1
 Node,387,AIR TERMINAL SINGLE DUCT VAV REHEAT 2 DAMPER OUTLET,Air,1
 Node,388,AIR TERMINAL SINGLE DUCT VAV REHEAT 3 DAMPER OUTLET,Air,1
 Node,389,AIR TERMINAL SINGLE DUCT VAV REHEAT 9 DAMPER OUTLET,Air,1
 Node,390,AIR TERMINAL SINGLE DUCT VAV REHEAT 4 DAMPER OUTLET,Air,1
 Node,391,AIR TERMINAL SINGLE DUCT VAV REHEAT 5 DAMPER OUTLET,Air,1
 Node,392,AIR TERMINAL SINGLE DUCT VAV REHEAT 6 DAMPER OUTLET,Air,1
 Node,393,AIR TERMINAL SINGLE DUCT VAV REHEAT 8 DAMPER OUTLET,Air,1
 Node,394,AIR TERMINAL SINGLE DUCT VAV REHEAT 7 DAMPER OUTLET,Air,1
 Node,395,NODE 41,Air,0
 Node,396,NODE 134,Air,0
 Node,397,NODE 147,Air,0
 Node,398,NODE 160,Air,0
 Node,399,NODE 108,Air,0
 Node,400,NODE 121,Air,0
 Node,401,NODE 69,Air,0
 Node,402,NODE 95,Air,0
 Node,403,NODE 56,Air,0
 Node,404,NODE 82,Air,0
 Node,405,NODE 173,Air,0
 Node,406,NODE 216,Air,0
 Node,407,NODE 244,Air,0
 Node,408,NODE 293,Air,0
 Node,409,NODE 314,Air,0
! ===============================================================
! Suspicious nodes have 0 references.  It is normal for some nodes, however.
! Listing nodes with 0 references (culled from previous list):
! <Suspicious Node>,<NodeNumber>,<Node Name>,<Node Fluid Type>,<# Times Node Referenced After Definition>
 Suspicious Node,271,NODE 1,Air,0
 Suspicious Node,293,NODE 12,Air,0
 Suspicious Node,295,NODE 13,Air,0
 Suspicious Node,297,NODE 15,Air,0
 Suspicious Node,299,NODE 20,Air,0
 Suspicious Node,301,NODE 16,Air,0
 Suspicious Node,303,NODE 14,Air,0
 Suspicious Node,305,NODE 17,Air,0
 Suspicious Node,307,NODE 19,Air,0
 Suspicious Node,309,NODE 18,Air,0
 Suspicious Node,342,MODEL OUTDOOR AIR NODE,Air,0
 Suspicious Node,368,SP-GUEST ROOM-SPACE FUNCTION SYS-1 FLR-4 SCH-F HPLCMT-CORE ZN PTAC RELIEF AIR NODE,Air,0
 Suspicious Node,395,NODE 41,Air,0
 Suspicious Node,396,NODE 134,Air,0
 Suspicious Node,397,NODE 147,Air,0
 Suspicious Node,398,NODE 160,Air,0
 Suspicious Node,399,NODE 108,Air,0
 Suspicious Node,400,NODE 121,Air,0
 Suspicious Node,401,NODE 69,Air,0
 Suspicious Node,402,NODE 95,Air,0
 Suspicious Node,403,NODE 56,Air,0
 Suspicious Node,404,NODE 82,Air,0
 Suspicious Node,405,NODE 173,Air,0
 Suspicious Node,406,NODE 216,Air,0
 Suspicious Node,407,NODE 244,Air,0
 Suspicious Node,408,NODE 293,Air,0
 Suspicious Node,409,NODE 314,Air,0
! ===============================================================
! <#Branch Lists>,<Number of Branch Lists>
 #Branch Lists,23
! <Branch List>,<Branch List Count>,<Branch List Name>,<Loop Name>,<Loop Type>,<Number of Branches>
! <Branch>,<Branch Count>,<Branch Name>,<Loop Name>,<Loop Type>,<Branch Inlet Node Name>,<Branch Outlet Node Name>
 Branch List,1,SYS_1_MAKE-UP AIR UNIT SUPPLY BRANCHES,SYS_1_MAKE-UP AIR UNIT,Air,1
   Branch,1,SYS_1_MAKE-UP AIR UNIT MAIN BRANCH,SYS_1_MAKE-UP AIR UNIT,Air,NODE 34,NODE 35
 Branch List,2,SYS_3_PSZ SP-LABORATORY - CLASSROOMS-SPACE FUNCTION SYS-3 FLR-4 SCH-D HPLCMT-SOUTH ZN SUPPLY BRANCHES,SYS_3_PSZ SP-LABORATORY - CLASSROOMS-SPACE FUNCTION SYS-3 FLR-4 SCH-D HPLCMT-SOUTH ZN,Air,1
   Branch,1,SYS_3_PSZ SP-LABORATORY - CLASSROOMS-SPACE FUNCTION SYS-3 FLR-4 SCH-D HPLCMT-SOUTH ZN MAIN BRANCH,SYS_3_PSZ SP-LABORATORY - CLASSROOMS-SPACE FUNCTION SYS-3 FLR-4 SCH-D HPLCMT-SOUTH ZN,Air,NODE 128,NODE 129
 Branch List,3,SYS_3_PSZ SP-LABORATORY - OTHER-SPACE FUNCTION SYS-3 FLR-4 SCH-A HPLCMT-EAST ZN SUPPLY BRANCHES,SYS_3_PSZ SP-LABORATORY - OTHER-SPACE FUNCTION SYS-3 FLR-4 SCH-A HPLCMT-EAST ZN,Air,1
   Branch,1,SYS_3_PSZ SP-LABORATORY - OTHER-SPACE FUNCTION SYS-3 FLR-4 SCH-A HPLCMT-EAST ZN MAIN BRANCH,SYS_3_PSZ SP-LABORATORY - OTHER-SPACE FUNCTION SYS-3 FLR-4 SCH-A HPLCMT-EAST ZN,Air,NODE 141,NODE 142
 Branch List,4,SYS_3_PSZ SP-LAUNDRY/WASHING AREA-SPACE FUNCTION SYS-3 FLR-4 SCH-C HPLCMT-NORTH ZN SUPPLY BRANCHES,SYS_3_PSZ SP-LAUNDRY/WASHING AREA-SPACE FUNCTION SYS-3 FLR-4 SCH-C HPLCMT-NORTH ZN,Air,1
   Branch,1,SYS_3_PSZ SP-LAUNDRY/WASHING AREA-SPACE FUNCTION SYS-3 FLR-4 SCH-C HPLCMT-NORTH ZN MAIN BRANCH,SYS_3_PSZ SP-LAUNDRY/WASHING AREA-SPACE FUNCTION SYS-3 FLR-4 SCH-C HPLCMT-NORTH ZN,Air,NODE 154,NODE 155
 Branch List,5,SYS_3_PSZ SP-LOBBY - ELEVATOR-SPACE FUNCTION SYS-3 FLR-3 SCH-C HPLCMT-SOUTH ZN SUPPLY BRANCHES,SYS_3_PSZ SP-LOBBY - ELEVATOR-SPACE FUNCTION SYS-3 FLR-3 SCH-C HPLCMT-SOUTH ZN,Air,1
   Branch,1,SYS_3_PSZ SP-LOBBY - ELEVATOR-SPACE FUNCTION SYS-3 FLR-3 SCH-C HPLCMT-SOUTH ZN MAIN BRANCH,SYS_3_PSZ SP-LOBBY - ELEVATOR-SPACE FUNCTION SYS-3 FLR-3 SCH-C HPLCMT-SOUTH ZN,Air,NODE 102,NODE 103
 Branch List,6,SYS_3_PSZ SP-LOBBY - HOTEL-SPACE FUNCTION SYS-3 FLR-3 SCH-H HPLCMT-EAST ZN SUPPLY BRANCHES,SYS_3_PSZ SP-LOBBY - HOTEL-SPACE FUNCTION SYS-3 FLR-3 SCH-H HPLCMT-EAST ZN,Air,1
   Branch,1,SYS_3_PSZ SP-LOBBY - HOTEL-SPACE FUNCTION SYS-3 FLR-3 SCH-H HPLCMT-EAST ZN MAIN BRANCH,SYS_3_PSZ SP-LOBBY - HOTEL-SPACE FUNCTION SYS-3 FLR-3 SCH-H HPLCMT-EAST ZN,Air,NODE 115,NODE 116
 Branch List,7,SYS_3_PSZ SP-LOBBY - MOTION PICTURE THEATRE-SPACE FUNCTION SYS-3 FLR-1 SCH-C HPLCMT-CORE ZN SUPPLY BRANCHES,SYS_3_PSZ SP-LOBBY - MOTION PICTURE THEATRE-SPACE FUNCTION SYS-3 FLR-1 SCH-C HPLCMT-CORE ZN,Air,1
   Branch,1,SYS_3_PSZ SP-LOBBY - MOTION PICTURE THEATRE-SPACE FUNCTION SYS-3 FLR-1 SCH-C HPLCMT-CORE ZN MAIN BRANCH,SYS_3_PSZ SP-LOBBY - MOTION PICTURE THEATRE-SPACE FUNCTION SYS-3 FLR-1 SCH-C HPLCMT-CORE ZN,Air,NODE 63,NODE 64
 Branch List,8,SYS_3_PSZ SP-LOBBY - OTHER-SPACE FUNCTION SYS-3 FLR-3 SCH-C HPLCMT-WEST ZN SUPPLY BRANCHES,SYS_3_PSZ SP-LOBBY - OTHER-SPACE FUNCTION SYS-3 FLR-3 SCH-C HPLCMT-WEST ZN,Air,1
   Branch,1,SYS_3_PSZ SP-LOBBY - OTHER-SPACE FUNCTION SYS-3 FLR-3 SCH-C HPLCMT-WEST ZN MAIN BRANCH,SYS_3_PSZ SP-LOBBY - OTHER-SPACE FUNCTION SYS-3 FLR-3 SCH-C HPLCMT-WEST ZN,Air,NODE 89,NODE 90
 Branch List,9,SYS_3_PSZ SP-LOBBY - PERFORMING ARTS THEATRE-SPACE FUNCTION SYS-3 FLR-1 SCH-C HPLCMT-WEST ZN SUPPLY BRANCHES,SYS_3_PSZ SP-LOBBY - PERFORMING ARTS THEATRE-SPACE FUNCTION SYS-3 FLR-1 SCH-C HPLCMT-WEST ZN,Air,1
   Branch,1,SYS_3_PSZ SP-LOBBY - PERFORMING ARTS THEATRE-SPACE FUNCTION SYS-3 FLR-1 SCH-C HPLCMT-WEST ZN MAIN BRANCH,SYS_3_PSZ SP-LOBBY - PERFORMING ARTS THEATRE-SPACE FUNCTION SYS-3 FLR-1 SCH-C HPLCMT-WEST ZN,Air,NODE 50,NODE 51
 Branch List,10,SYS_3_PSZ SP-LOBBY - SPACE DESIGNED TO ANSI/IES RP-28 (USED PRIMARILY BY RESIDENTS)-SPACE FUNCTION SYS-3 FLR-1 SCH-B HPLCMT-NORTH ZN SUPPLY BRANCHES,SYS_3_PSZ SP-LOBBY - SPACE DESIGNED TO ANSI/IES RP-28 (USED PRIMARILY BY RESIDENTS)-SPACE FUNCTION SYS-3 FLR-1 SCH-B HPLCMT-NORTH ZN,Air,1
   Branch,1,SYS_3_PSZ SP-LOBBY - SPACE DESIGNED TO ANSI/IES RP-28 (USED PRIMARILY BY RESIDENTS)-SPACE FUNCTION SYS-3 FLR-1 SCH-B HPLCMT-NORTH ZN MAIN BRANCH,SYS_3_PSZ SP-LOBBY - SPACE DESIGNED TO ANSI/IES RP-28 (USED PRIMARILY BY RESIDENTS)-SPACE FUNCTION SYS-3 FLR-1 SCH-B HPLCMT-NORTH ZN,Air,NODE 76,NODE 77
 Branch List,11,SYS_4_PSZ_SP-LOADING DOCK INTERIOR-SPACE FUNCTION SYS-4 FLR-3 SCH-H HPLCMT-CORE ZN SUPPLY BRANCHES,SYS_4_PSZ_SP-LOADING DOCK INTERIOR-SPACE FUNCTION SYS-4 FLR-3 SCH-H HPLCMT-CORE ZN,Air,1
   Branch,1,SYS_4_PSZ_SP-LOADING DOCK INTERIOR-SPACE FUNCTION SYS-4 FLR-3 SCH-H HPLCMT-CORE ZN MAIN BRANCH,SYS_4_PSZ_SP-LOADING DOCK INTERIOR-SPACE FUNCTION SYS-4 FLR-3 SCH-H HPLCMT-CORE ZN,Air,NODE 167,NODE 168
 Branch List,12,SYS_6_VAV WITH REHEAT SUPPLY BRANCHES,SYS_6_VAV WITH REHEAT,Air,1
   Branch,1,SYS_6_VAV WITH REHEAT MAIN BRANCH,SYS_6_VAV WITH REHEAT,Air,NODE 207,NODE 208
 Branch List,13,SYS_6_VAV WITH REHEAT 1 SUPPLY BRANCHES,SYS_6_VAV WITH REHEAT 1,Air,1
   Branch,1,SYS_6_VAV WITH REHEAT 1 MAIN BRANCH,SYS_6_VAV WITH REHEAT 1,Air,NODE 234,NODE 235
 Branch List,14,SYS_6_VAV WITH REHEAT 2 SUPPLY BRANCHES,SYS_6_VAV WITH REHEAT 2,Air,1
   Branch,1,SYS_6_VAV WITH REHEAT 2 MAIN BRANCH,SYS_6_VAV WITH REHEAT 2,Air,NODE 283,NODE 284
 Branch List,15,SYS_6_VAV WITH REHEAT 3 SUPPLY BRANCHES,SYS_6_VAV WITH REHEAT 3,Air,1
   Branch,1,SYS_6_VAV WITH REHEAT 3 MAIN BRANCH,SYS_6_VAV WITH REHEAT 3,Air,NODE 304,NODE 305
 Branch List,16,CHILLED WATER LOOP SUPPLY BRANCHES,CHILLED WATER LOOP,Plant Supply,5
   Branch,1,CHILLED WATER LOOP SUPPLY INLET BRANCH,CHILLED WATER LOOP,Plant Supply,NODE 180,NODE 186
   Branch,2,CHILLED WATER LOOP SUPPLY BRANCH 1,CHILLED WATER LOOP,Plant Supply,NODE 182,NODE 187
   Branch,3,CHILLED WATER LOOP SUPPLY BRANCH 2,CHILLED WATER LOOP,Plant Supply,NODE 188,NODE 189
   Branch,4,CHILLED WATER LOOP SUPPLY BRANCH 3,CHILLED WATER LOOP,Plant Supply,NODE 190,NODE 191
   Branch,5,CHILLED WATER LOOP SUPPLY OUTLET BRANCH,CHILLED WATER LOOP,Plant Supply,NODE 192,NODE 181
 Branch List,17,CHILLED WATER LOOP DEMAND BRANCHES,CHILLED WATER LOOP,Plant Demand,7
   Branch,1,CHILLED WATER LOOP DEMAND INLET BRANCH,CHILLED WATER LOOP,Plant Demand,NODE 183,CHILLED WATER LOOP DEMAND INLET PIPE NODE
   Branch,2,CHILLED WATER LOOP DEMAND BRANCH 1,CHILLED WATER LOOP,Plant Demand,NODE 185,NODE 214
   Branch,3,CHILLED WATER LOOP DEMAND BRANCH 2,CHILLED WATER LOOP,Plant Demand,NODE 241,NODE 242
   Branch,4,CHILLED WATER LOOP DEMAND BRANCH 3,CHILLED WATER LOOP,Plant Demand,NODE 290,NODE 291
   Branch,5,CHILLED WATER LOOP DEMAND BRANCH 4,CHILLED WATER LOOP,Plant Demand,NODE 311,NODE 312
   Branch,6,CHILLED WATER LOOP DEMAND BYPASS BRANCH,CHILLED WATER LOOP,Plant Demand,CHILLED WATER LOOP DEMAND BYPASS PIPE INLET NODE,CHILLED WATER LOOP DEMAND BYPASS PIPE OUTLET NODE
   Branch,7,CHILLED WATER LOOP DEMAND OUTLET BRANCH,CHILLED WATER LOOP,Plant Demand,CHILLED WATER LOOP DEMAND OUTLET PIPE NODE,NODE 184
 Branch List,18,CONDENSER WATER LOOP SUPPLY BRANCHES,CONDENSER WATER LOOP,Plant Supply,4
   Branch,1,CONDENSER WATER LOOP SUPPLY INLET BRANCH,CONDENSER WATER LOOP,Plant Supply,NODE 193,NODE 199
   Branch,2,CONDENSER WATER LOOP SUPPLY BRANCH 1,CONDENSER WATER LOOP,Plant Supply,NODE 195,NODE 200
   Branch,3,CONDENSER WATER LOOP SUPPLY BRANCH 2,CONDENSER WATER LOOP,Plant Supply,NODE 201,NODE 202
   Branch,4,CONDENSER WATER LOOP SUPPLY OUTLET BRANCH,CONDENSER WATER LOOP,Plant Supply,NODE 203,NODE 194
 Branch List,19,CONDENSER WATER LOOP DEMAND BRANCHES,CONDENSER WATER LOOP,Plant Demand,5
   Branch,1,CONDENSER WATER LOOP DEMAND INLET BRANCH,CONDENSER WATER LOOP,Plant Demand,NODE 196,CONDENSER WATER LOOP DEMAND INLET PIPE NODE
   Branch,2,CONDENSER WATER LOOP DEMAND BRANCH 1,CONDENSER WATER LOOP,Plant Demand,NODE 198,NODE 204
   Branch,3,CONDENSER WATER LOOP DEMAND BRANCH 2,CONDENSER WATER LOOP,Plant Demand,NODE 205,NODE 206
   Branch,4,CONDENSER WATER LOOP DEMAND BYPASS BRANCH,CONDENSER WATER LOOP,Plant Demand,CONDENSER WATER LOOP DEMAND BYPASS PIPE INLET NODE,CONDENSER WATER LOOP DEMAND BYPASS PIPE OUTLET NODE
   Branch,5,CONDENSER WATER LOOP DEMAND OUTLET BRANCH,CONDENSER WATER LOOP,Plant Demand,CONDENSER WATER LOOP DEMAND OUTLET PIPE NODE,NODE 197
 Branch List,20,HOT WATER LOOP SUPPLY BRANCHES,HOT WATER LOOP,Plant Supply,5
   Branch,1,HOT WATER LOOP SUPPLY INLET BRANCH,HOT WATER LOOP,Plant Supply,NODE 21,NODE 27
   Branch,2,HOT WATER LOOP SUPPLY BRANCH 1,HOT WATER LOOP,Plant Supply,NODE 23,NODE 28
   Branch,3,HOT WATER LOOP SUPPLY BRANCH 2,HOT WATER LOOP,Plant Supply,NODE 29,NODE 30
   Branch,4,HOT WATER LOOP SUPPLY BRANCH 3,HOT WATER LOOP,Plant Supply,NODE 31,NODE 32
   Branch,5,HOT WATER LOOP SUPPLY OUTLET BRANCH,HOT WATER LOOP,Plant Supply,NODE 33,NODE 22
 Branch List,21,HOT WATER LOOP DEMAND BRANCHES,HOT WATER LOOP,Plant Demand,37
   Branch,1,HOT WATER LOOP DEMAND INLET BRANCH,HOT WATER LOOP,Plant Demand,NODE 24,HOT WATER LOOP DEMAND INLET PIPE NODE
   Branch,2,HOT WATER LOOP DEMAND BRANCH 1,HOT WATER LOOP,Plant Demand,NODE 26,NODE 39
   Branch,3,HOT WATER LOOP DEMAND BRANCH 2,HOT WATER LOOP,Plant Demand,NODE 47,NODE 48
   Branch,4,HOT WATER LOOP DEMAND BRANCH 3,HOT WATER LOOP,Plant Demand,NODE 61,NODE 62
   Branch,5,HOT WATER LOOP DEMAND BRANCH 4,HOT WATER LOOP,Plant Demand,NODE 74,NODE 75
   Branch,6,HOT WATER LOOP DEMAND BRANCH 5,HOT WATER LOOP,Plant Demand,NODE 87,NODE 88
   Branch,7,HOT WATER LOOP DEMAND BRANCH 6,HOT WATER LOOP,Plant Demand,NODE 100,NODE 101
   Branch,8,HOT WATER LOOP DEMAND BRANCH 7,HOT WATER LOOP,Plant Demand,NODE 113,NODE 114
   Branch,9,HOT WATER LOOP DEMAND BRANCH 8,HOT WATER LOOP,Plant Demand,NODE 126,NODE 127
   Branch,10,HOT WATER LOOP DEMAND BRANCH 9,HOT WATER LOOP,Plant Demand,NODE 139,NODE 140
   Branch,11,HOT WATER LOOP DEMAND BRANCH 10,HOT WATER LOOP,Plant Demand,NODE 152,NODE 153
   Branch,12,HOT WATER LOOP DEMAND BRANCH 11,HOT WATER LOOP,Plant Demand,NODE 165,NODE 166
   Branch,13,HOT WATER LOOP DEMAND BRANCH 12,HOT WATER LOOP,Plant Demand,NODE 178,NODE 179
   Branch,14,HOT WATER LOOP DEMAND BRANCH 13,HOT WATER LOOP,Plant Demand,NODE 212,NODE 213
   Branch,15,HOT WATER LOOP DEMAND BRANCH 14,HOT WATER LOOP,Plant Demand,NODE 221,NODE 222
   Branch,16,HOT WATER LOOP DEMAND BRANCH 15,HOT WATER LOOP,Plant Demand,NODE 225,NODE 226
   Branch,17,HOT WATER LOOP DEMAND BRANCH 16,HOT WATER LOOP,Plant Demand,NODE 227,NODE 228
   Branch,18,HOT WATER LOOP DEMAND BRANCH 17,HOT WATER LOOP,Plant Demand,NODE 232,NODE 233
   Branch,19,HOT WATER LOOP DEMAND BRANCH 18,HOT WATER LOOP,Plant Demand,NODE 239,NODE 240
   Branch,20,HOT WATER LOOP DEMAND BRANCH 19,HOT WATER LOOP,Plant Demand,NODE 249,NODE 250
   Branch,21,HOT WATER LOOP DEMAND BRANCH 20,HOT WATER LOOP,Plant Demand,NODE 253,NODE 254
   Branch,22,HOT WATER LOOP DEMAND BRANCH 21,HOT WATER LOOP,Plant Demand,NODE 255,NODE 256
   Branch,23,HOT WATER LOOP DEMAND BRANCH 22,HOT WATER LOOP,Plant Demand,NODE 260,NODE 261
   Branch,24,HOT WATER LOOP DEMAND BRANCH 23,HOT WATER LOOP,Plant Demand,NODE 262,NODE 263
   Branch,25,HOT WATER LOOP DEMAND BRANCH 24,HOT WATER LOOP,Plant Demand,NODE 267,NODE 268
   Branch,26,HOT WATER LOOP DEMAND BRANCH 25,HOT WATER LOOP,Plant Demand,NODE 269,NODE 270
   Branch,27,HOT WATER LOOP DEMAND BRANCH 26,HOT WATER LOOP,Plant Demand,NODE 274,NODE 275
   Branch,28,HOT WATER LOOP DEMAND BRANCH 27,HOT WATER LOOP,Plant Demand,NODE 276,NODE 277
   Branch,29,HOT WATER LOOP DEMAND BRANCH 28,HOT WATER LOOP,Plant Demand,NODE 281,NODE 282
   Branch,30,HOT WATER LOOP DEMAND BRANCH 29,HOT WATER LOOP,Plant Demand,NODE 288,NODE 289
   Branch,31,HOT WATER LOOP DEMAND BRANCH 30,HOT WATER LOOP,Plant Demand,NODE 298,NODE 299
   Branch,32,HOT WATER LOOP DEMAND BRANCH 31,HOT WATER LOOP,Plant Demand,NODE 302,NODE 303
   Branch,33,HOT WATER LOOP DEMAND BRANCH 32,HOT WATER LOOP,Plant Demand,NODE 309,NODE 310
   Branch,34,HOT WATER LOOP DEMAND BRANCH 33,HOT WATER LOOP,Plant Demand,NODE 319,NODE 320
   Branch,35,HOT WATER LOOP DEMAND BRANCH 34,HOT WATER LOOP,Plant Demand,NODE 323,NODE 324
   Branch,36,HOT WATER LOOP DEMAND BYPASS BRANCH,HOT WATER LOOP,Plant Demand,HOT WATER LOOP DEMAND BYPASS PIPE INLET NODE,HOT WATER LOOP DEMAND BYPASS PIPE OUTLET NODE
   Branch,37,HOT WATER LOOP DEMAND OUTLET BRANCH,HOT WATER LOOP,Plant Demand,HOT WATER LOOP DEMAND OUTLET PIPE NODE,NODE 25
 Branch List,22,MAIN SERVICE WATER LOOP SUPPLY BRANCHES,MAIN SERVICE WATER LOOP,Plant Supply,4
   Branch,1,MAIN SERVICE WATER LOOP SUPPLY INLET BRANCH,MAIN SERVICE WATER LOOP,Plant Supply,NODE 325,NODE 331
   Branch,2,MAIN SERVICE WATER LOOP SUPPLY BRANCH 1,MAIN SERVICE WATER LOOP,Plant Supply,NODE 327,NODE 332
   Branch,3,MAIN SERVICE WATER LOOP SUPPLY BRANCH 2,MAIN SERVICE WATER LOOP,Plant Supply,NODE 333,NODE 334
   Branch,4,MAIN SERVICE WATER LOOP SUPPLY OUTLET BRANCH,MAIN SERVICE WATER LOOP,Plant Supply,NODE 336,NODE 326
 Branch List,23,MAIN SERVICE WATER LOOP DEMAND BRANCHES,MAIN SERVICE WATER LOOP,Plant Demand,10
   Branch,1,MAIN SERVICE WATER LOOP DEMAND INLET BRANCH,MAIN SERVICE WATER LOOP,Plant Demand,NODE 328,NODE 337
   Branch,2,MAIN SERVICE WATER LOOP DEMAND BRANCH 1,MAIN SERVICE WATER LOOP,Plant Demand,NODE 330,NODE 335
   Branch,3,MAIN SERVICE WATER LOOP DEMAND BRANCH 2,MAIN SERVICE WATER LOOP,Plant Demand,NODE 339,NODE 340
   Branch,4,MAIN SERVICE WATER LOOP DEMAND BRANCH 3,MAIN SERVICE WATER LOOP,Plant Demand,NODE 341,NODE 342
   Branch,5,MAIN SERVICE WATER LOOP DEMAND BRANCH 4,MAIN SERVICE WATER LOOP,Plant Demand,NODE 343,NODE 344
   Branch,6,MAIN SERVICE WATER LOOP DEMAND BRANCH 5,MAIN SERVICE WATER LOOP,Plant Demand,NODE 345,NODE 346
   Branch,7,MAIN SERVICE WATER LOOP DEMAND BRANCH 6,MAIN SERVICE WATER LOOP,Plant Demand,NODE 347,NODE 348
   Branch,8,MAIN SERVICE WATER LOOP DEMAND BRANCH 7,MAIN SERVICE WATER LOOP,Plant Demand,NODE 349,NODE 350
   Branch,9,MAIN SERVICE WATER LOOP DEMAND BYPASS BRANCH,MAIN SERVICE WATER LOOP,Plant Demand,MAIN SERVICE WATER LOOP DEMAND BYPASS PIPE INLET NODE,MAIN SERVICE WATER LOOP DEMAND BYPASS PIPE OUTLET NODE
   Branch,10,MAIN SERVICE WATER LOOP DEMAND OUTLET BRANCH,MAIN SERVICE WATER LOOP,Plant Demand,NODE 338,NODE 329
! ===============================================================
! <#Supply Air Paths>,<Number of Supply Air Paths>
 #Supply Air Paths,15
! <Supply Air Path>,<Supply Air Path Count>,<Supply Air Path Name>,<AirLoopHVAC Name>
! <#Components on Supply Air Path>,<Number of Components>
! <Supply Air Path Component>,<Component Count>,<Component Type>,<Component Name>,<AirLoopHVAC Name>
! <#Outlet Nodes on Supply Air Path Component>,<Number of Nodes>
! <Supply Air Path Component Nodes>,<Node Count>,<Component Type>,<Component Name>,<Inlet Node Name>,<Outlet Node Name>,<AirLoopHVAC Name>
 Supply Air Path,1,SYS_1_MAKE-UP AIR UNIT NODE 36 SUPPLY PATH,SYS_1_MAKE-UP AIR UNIT
   #Components on Supply Air Path,1
   Supply Air Path Component,1,AIRLOOPHVAC:ZONESPLITTER,AIR LOOP HVAC ZONE SPLITTER 1,SYS_1_MAKE-UP AIR UNIT
     #Outlet Nodes on Supply Air Path Component,1
     Supply Air Path Component Nodes,1,AIRLOOPHVAC:ZONESPLITTER,AIR LOOP HVAC ZONE SPLITTER 1,NODE 36,NODE 38,SYS_1_MAKE-UP AIR UNIT
! <#Nodes on Supply Air Path>,<Number of Nodes>
! <Supply Air Path Node>,<Node Type>,<Node Count>,<Node Name>,<AirLoopHVAC Name>
#Nodes on Supply Air Path,2
   Supply Air Path Node,Inlet Node,1,NODE 36,SYS_1_MAKE-UP AIR UNIT
   Supply Air Path Node,Outlet Node,2,NODE 38,SYS_1_MAKE-UP AIR UNIT
 Supply Air Path,2,SYS_3_PSZ SP-LABORATORY - CLASSROOMS-SPACE FUNCTION SYS-3 FLR-4 SCH-D HPLCMT-SOUTH ZN NODE 130 SUPPLY PATH,SYS_3_PSZ SP-LABORATORY - CLASSROOMS-SPACE FUNCTION SYS-3 FLR-4 SCH-D HPLCMT-SOUTH ZN
   #Components on Supply Air Path,1
   Supply Air Path Component,1,AIRLOOPHVAC:ZONESPLITTER,AIR LOOP HVAC ZONE SPLITTER 8,SYS_3_PSZ SP-LABORATORY - CLASSROOMS-SPACE FUNCTION SYS-3 FLR-4 SCH-D HPLCMT-SOUTH ZN
     #Outlet Nodes on Supply Air Path Component,1
     Supply Air Path Component Nodes,1,AIRLOOPHVAC:ZONESPLITTER,AIR LOOP HVAC ZONE SPLITTER 8,NODE 130,NODE 132,SYS_3_PSZ SP-LABORATORY - CLASSROOMS-SPACE FUNCTION SYS-3 FLR-4 SCH-D HPLCMT-SOUTH ZN
! <#Nodes on Supply Air Path>,<Number of Nodes>
! <Supply Air Path Node>,<Node Type>,<Node Count>,<Node Name>,<AirLoopHVAC Name>
#Nodes on Supply Air Path,2
   Supply Air Path Node,Inlet Node,1,NODE 130,SYS_3_PSZ SP-LABORATORY - CLASSROOMS-SPACE FUNCTION SYS-3 FLR-4 SCH-D HPLCMT-SOUTH ZN
   Supply Air Path Node,Outlet Node,2,NODE 132,SYS_3_PSZ SP-LABORATORY - CLASSROOMS-SPACE FUNCTION SYS-3 FLR-4 SCH-D HPLCMT-SOUTH ZN
 Supply Air Path,3,SYS_3_PSZ SP-LABORATORY - OTHER-SPACE FUNCTION SYS-3 FLR-4 SCH-A HPLCMT-EAST ZN NODE 143 SUPPLY PATH,SYS_3_PSZ SP-LABORATORY - OTHER-SPACE FUNCTION SYS-3 FLR-4 SCH-A HPLCMT-EAST ZN
   #Components on Supply Air Path,1
   Supply Air Path Component,1,AIRLOOPHVAC:ZONESPLITTER,AIR LOOP HVAC ZONE SPLITTER 9,SYS_3_PSZ SP-LABORATORY - OTHER-SPACE FUNCTION SYS-3 FLR-4 SCH-A HPLCMT-EAST ZN
     #Outlet Nodes on Supply Air Path Component,1
     Supply Air Path Component Nodes,1,AIRLOOPHVAC:ZONESPLITTER,AIR LOOP HVAC ZONE SPLITTER 9,NODE 143,NODE 145,SYS_3_PSZ SP-LABORATORY - OTHER-SPACE FUNCTION SYS-3 FLR-4 SCH-A HPLCMT-EAST ZN
! <#Nodes on Supply Air Path>,<Number of Nodes>
! <Supply Air Path Node>,<Node Type>,<Node Count>,<Node Name>,<AirLoopHVAC Name>
#Nodes on Supply Air Path,2
   Supply Air Path Node,Inlet Node,1,NODE 143,SYS_3_PSZ SP-LABORATORY - OTHER-SPACE FUNCTION SYS-3 FLR-4 SCH-A HPLCMT-EAST ZN
   Supply Air Path Node,Outlet Node,2,NODE 145,SYS_3_PSZ SP-LABORATORY - OTHER-SPACE FUNCTION SYS-3 FLR-4 SCH-A HPLCMT-EAST ZN
 Supply Air Path,4,SYS_3_PSZ SP-LAUNDRY/WASHING AREA-SPACE FUNCTION SYS-3 FLR-4 SCH-C HPLCMT-NORTH ZN NODE 156 SUPPLY PATH,SYS_3_PSZ SP-LAUNDRY/WASHING AREA-SPACE FUNCTION SYS-3 FLR-4 SCH-C HPLCMT-NORTH ZN
   #Components on Supply Air Path,1
   Supply Air Path Component,1,AIRLOOPHVAC:ZONESPLITTER,AIR LOOP HVAC ZONE SPLITTER 10,SYS_3_PSZ SP-LAUNDRY/WASHING AREA-SPACE FUNCTION SYS-3 FLR-4 SCH-C HPLCMT-NORTH ZN
     #Outlet Nodes on Supply Air Path Component,1
     Supply Air Path Component Nodes,1,AIRLOOPHVAC:ZONESPLITTER,AIR LOOP HVAC ZONE SPLITTER 10,NODE 156,NODE 158,SYS_3_PSZ SP-LAUNDRY/WASHING AREA-SPACE FUNCTION SYS-3 FLR-4 SCH-C HPLCMT-NORTH ZN
! <#Nodes on Supply Air Path>,<Number of Nodes>
! <Supply Air Path Node>,<Node Type>,<Node Count>,<Node Name>,<AirLoopHVAC Name>
#Nodes on Supply Air Path,2
   Supply Air Path Node,Inlet Node,1,NODE 156,SYS_3_PSZ SP-LAUNDRY/WASHING AREA-SPACE FUNCTION SYS-3 FLR-4 SCH-C HPLCMT-NORTH ZN
   Supply Air Path Node,Outlet Node,2,NODE 158,SYS_3_PSZ SP-LAUNDRY/WASHING AREA-SPACE FUNCTION SYS-3 FLR-4 SCH-C HPLCMT-NORTH ZN
 Supply Air Path,5,SYS_3_PSZ SP-LOBBY - ELEVATOR-SPACE FUNCTION SYS-3 FLR-3 SCH-C HPLCMT-SOUTH ZN NODE 104 SUPPLY PATH,SYS_3_PSZ SP-LOBBY - ELEVATOR-SPACE FUNCTION SYS-3 FLR-3 SCH-C HPLCMT-SOUTH ZN
   #Components on Supply Air Path,1
   Supply Air Path Component,1,AIRLOOPHVAC:ZONESPLITTER,AIR LOOP HVAC ZONE SPLITTER 6,SYS_3_PSZ SP-LOBBY - ELEVATOR-SPACE FUNCTION SYS-3 FLR-3 SCH-C HPLCMT-SOUTH ZN
     #Outlet Nodes on Supply Air Path Component,1
     Supply Air Path Component Nodes,1,AIRLOOPHVAC:ZONESPLITTER,AIR LOOP HVAC ZONE SPLITTER 6,NODE 104,NODE 106,SYS_3_PSZ SP-LOBBY - ELEVATOR-SPACE FUNCTION SYS-3 FLR-3 SCH-C HPLCMT-SOUTH ZN
! <#Nodes on Supply Air Path>,<Number of Nodes>
! <Supply Air Path Node>,<Node Type>,<Node Count>,<Node Name>,<AirLoopHVAC Name>
#Nodes on Supply Air Path,2
   Supply Air Path Node,Inlet Node,1,NODE 104,SYS_3_PSZ SP-LOBBY - ELEVATOR-SPACE FUNCTION SYS-3 FLR-3 SCH-C HPLCMT-SOUTH ZN
   Supply Air Path Node,Outlet Node,2,NODE 106,SYS_3_PSZ SP-LOBBY - ELEVATOR-SPACE FUNCTION SYS-3 FLR-3 SCH-C HPLCMT-SOUTH ZN
 Supply Air Path,6,SYS_3_PSZ SP-LOBBY - HOTEL-SPACE FUNCTION SYS-3 FLR-3 SCH-H HPLCMT-EAST ZN NODE 117 SUPPLY PATH,SYS_3_PSZ SP-LOBBY - HOTEL-SPACE FUNCTION SYS-3 FLR-3 SCH-H HPLCMT-EAST ZN
   #Components on Supply Air Path,1
   Supply Air Path Component,1,AIRLOOPHVAC:ZONESPLITTER,AIR LOOP HVAC ZONE SPLITTER 7,SYS_3_PSZ SP-LOBBY - HOTEL-SPACE FUNCTION SYS-3 FLR-3 SCH-H HPLCMT-EAST ZN
     #Outlet Nodes on Supply Air Path Component,1
     Supply Air Path Component Nodes,1,AIRLOOPHVAC:ZONESPLITTER,AIR LOOP HVAC ZONE SPLITTER 7,NODE 117,NODE 119,SYS_3_PSZ SP-LOBBY - HOTEL-SPACE FUNCTION SYS-3 FLR-3 SCH-H HPLCMT-EAST ZN
! <#Nodes on Supply Air Path>,<Number of Nodes>
! <Supply Air Path Node>,<Node Type>,<Node Count>,<Node Name>,<AirLoopHVAC Name>
#Nodes on Supply Air Path,2
   Supply Air Path Node,Inlet Node,1,NODE 117,SYS_3_PSZ SP-LOBBY - HOTEL-SPACE FUNCTION SYS-3 FLR-3 SCH-H HPLCMT-EAST ZN
   Supply Air Path Node,Outlet Node,2,NODE 119,SYS_3_PSZ SP-LOBBY - HOTEL-SPACE FUNCTION SYS-3 FLR-3 SCH-H HPLCMT-EAST ZN
 Supply Air Path,7,SYS_3_PSZ SP-LOBBY - MOTION PICTURE THEATRE-SPACE FUNCTION SYS-3 FLR-1 SCH-C HPLCMT-CORE ZN NODE 65 SUPPLY PATH,SYS_3_PSZ SP-LOBBY - MOTION PICTURE THEATRE-SPACE FUNCTION SYS-3 FLR-1 SCH-C HPLCMT-CORE ZN
   #Components on Supply Air Path,1
   Supply Air Path Component,1,AIRLOOPHVAC:ZONESPLITTER,AIR LOOP HVAC ZONE SPLITTER 3,SYS_3_PSZ SP-LOBBY - MOTION PICTURE THEATRE-SPACE FUNCTION SYS-3 FLR-1 SCH-C HPLCMT-CORE ZN
     #Outlet Nodes on Supply Air Path Component,1
     Supply Air Path Component Nodes,1,AIRLOOPHVAC:ZONESPLITTER,AIR LOOP HVAC ZONE SPLITTER 3,NODE 65,NODE 67,SYS_3_PSZ SP-LOBBY - MOTION PICTURE THEATRE-SPACE FUNCTION SYS-3 FLR-1 SCH-C HPLCMT-CORE ZN
! <#Nodes on Supply Air Path>,<Number of Nodes>
! <Supply Air Path Node>,<Node Type>,<Node Count>,<Node Name>,<AirLoopHVAC Name>
#Nodes on Supply Air Path,2
   Supply Air Path Node,Inlet Node,1,NODE 65,SYS_3_PSZ SP-LOBBY - MOTION PICTURE THEATRE-SPACE FUNCTION SYS-3 FLR-1 SCH-C HPLCMT-CORE ZN
   Supply Air Path Node,Outlet Node,2,NODE 67,SYS_3_PSZ SP-LOBBY - MOTION PICTURE THEATRE-SPACE FUNCTION SYS-3 FLR-1 SCH-C HPLCMT-CORE ZN
 Supply Air Path,8,SYS_3_PSZ SP-LOBBY - OTHER-SPACE FUNCTION SYS-3 FLR-3 SCH-C HPLCMT-WEST ZN NODE 91 SUPPLY PATH,SYS_3_PSZ SP-LOBBY - OTHER-SPACE FUNCTION SYS-3 FLR-3 SCH-C HPLCMT-WEST ZN
   #Components on Supply Air Path,1
   Supply Air Path Component,1,AIRLOOPHVAC:ZONESPLITTER,AIR LOOP HVAC ZONE SPLITTER 5,SYS_3_PSZ SP-LOBBY - OTHER-SPACE FUNCTION SYS-3 FLR-3 SCH-C HPLCMT-WEST ZN
     #Outlet Nodes on Supply Air Path Component,1
     Supply Air Path Component Nodes,1,AIRLOOPHVAC:ZONESPLITTER,AIR LOOP HVAC ZONE SPLITTER 5,NODE 91,NODE 93,SYS_3_PSZ SP-LOBBY - OTHER-SPACE FUNCTION SYS-3 FLR-3 SCH-C HPLCMT-WEST ZN
! <#Nodes on Supply Air Path>,<Number of Nodes>
! <Supply Air Path Node>,<Node Type>,<Node Count>,<Node Name>,<AirLoopHVAC Name>
#Nodes on Supply Air Path,2
   Supply Air Path Node,Inlet Node,1,NODE 91,SYS_3_PSZ SP-LOBBY - OTHER-SPACE FUNCTION SYS-3 FLR-3 SCH-C HPLCMT-WEST ZN
   Supply Air Path Node,Outlet Node,2,NODE 93,SYS_3_PSZ SP-LOBBY - OTHER-SPACE FUNCTION SYS-3 FLR-3 SCH-C HPLCMT-WEST ZN
 Supply Air Path,9,SYS_3_PSZ SP-LOBBY - PERFORMING ARTS THEATRE-SPACE FUNCTION SYS-3 FLR-1 SCH-C HPLCMT-WEST ZN NODE 52 SUPPLY PATH,SYS_3_PSZ SP-LOBBY - PERFORMING ARTS THEATRE-SPACE FUNCTION SYS-3 FLR-1 SCH-C HPLCMT-WEST ZN
   #Components on Supply Air Path,1
   Supply Air Path Component,1,AIRLOOPHVAC:ZONESPLITTER,AIR LOOP HVAC ZONE SPLITTER 2,SYS_3_PSZ SP-LOBBY - PERFORMING ARTS THEATRE-SPACE FUNCTION SYS-3 FLR-1 SCH-C HPLCMT-WEST ZN
     #Outlet Nodes on Supply Air Path Component,1
     Supply Air Path Component Nodes,1,AIRLOOPHVAC:ZONESPLITTER,AIR LOOP HVAC ZONE SPLITTER 2,NODE 52,NODE 54,SYS_3_PSZ SP-LOBBY - PERFORMING ARTS THEATRE-SPACE FUNCTION SYS-3 FLR-1 SCH-C HPLCMT-WEST ZN
! <#Nodes on Supply Air Path>,<Number of Nodes>
! <Supply Air Path Node>,<Node Type>,<Node Count>,<Node Name>,<AirLoopHVAC Name>
#Nodes on Supply Air Path,2
   Supply Air Path Node,Inlet Node,1,NODE 52,SYS_3_PSZ SP-LOBBY - PERFORMING ARTS THEATRE-SPACE FUNCTION SYS-3 FLR-1 SCH-C HPLCMT-WEST ZN
   Supply Air Path Node,Outlet Node,2,NODE 54,SYS_3_PSZ SP-LOBBY - PERFORMING ARTS THEATRE-SPACE FUNCTION SYS-3 FLR-1 SCH-C HPLCMT-WEST ZN
 Supply Air Path,10,SYS_3_PSZ SP-LOBBY - SPACE DESIGNED TO ANSI/IES RP-28 (USED PRIMARILY BY RESIDENTS)-SPACE FUNCTION SYS-3 FLR-1 SCH-B HPLCMT-NORTH ZN NODE 78 SUPPLY PATH,SYS_3_PSZ SP-LOBBY - SPACE DESIGNED TO ANSI/IES RP-28 (USED PRIMARILY BY RESIDENTS)-SPACE FUNCTION SYS-3 FLR-1 SCH-B HPLCMT-NORTH ZN
   #Components on Supply Air Path,1
   Supply Air Path Component,1,AIRLOOPHVAC:ZONESPLITTER,AIR LOOP HVAC ZONE SPLITTER 4,SYS_3_PSZ SP-LOBBY - SPACE DESIGNED TO ANSI/IES RP-28 (USED PRIMARILY BY RESIDENTS)-SPACE FUNCTION SYS-3 FLR-1 SCH-B HPLCMT-NORTH ZN
     #Outlet Nodes on Supply Air Path Component,1
     Supply Air Path Component Nodes,1,AIRLOOPHVAC:ZONESPLITTER,AIR LOOP HVAC ZONE SPLITTER 4,NODE 78,NODE 80,SYS_3_PSZ SP-LOBBY - SPACE DESIGNED TO ANSI/IES RP-28 (USED PRIMARILY BY RESIDENTS)-SPACE FUNCTION SYS-3 FLR-1 SCH-B HPLCMT-NORTH ZN
! <#Nodes on Supply Air Path>,<Number of Nodes>
! <Supply Air Path Node>,<Node Type>,<Node Count>,<Node Name>,<AirLoopHVAC Name>
#Nodes on Supply Air Path,2
   Supply Air Path Node,Inlet Node,1,NODE 78,SYS_3_PSZ SP-LOBBY - SPACE DESIGNED TO ANSI/IES RP-28 (USED PRIMARILY BY RESIDENTS)-SPACE FUNCTION SYS-3 FLR-1 SCH-B HPLCMT-NORTH ZN
   Supply Air Path Node,Outlet Node,2,NODE 80,SYS_3_PSZ SP-LOBBY - SPACE DESIGNED TO ANSI/IES RP-28 (USED PRIMARILY BY RESIDENTS)-SPACE FUNCTION SYS-3 FLR-1 SCH-B HPLCMT-NORTH ZN
 Supply Air Path,11,SYS_4_PSZ_SP-LOADING DOCK INTERIOR-SPACE FUNCTION SYS-4 FLR-3 SCH-H HPLCMT-CORE ZN NODE 169 SUPPLY PATH,SYS_4_PSZ_SP-LOADING DOCK INTERIOR-SPACE FUNCTION SYS-4 FLR-3 SCH-H HPLCMT-CORE ZN
   #Components on Supply Air Path,1
   Supply Air Path Component,1,AIRLOOPHVAC:ZONESPLITTER,AIR LOOP HVAC ZONE SPLITTER 11,SYS_4_PSZ_SP-LOADING DOCK INTERIOR-SPACE FUNCTION SYS-4 FLR-3 SCH-H HPLCMT-CORE ZN
     #Outlet Nodes on Supply Air Path Component,1
     Supply Air Path Component Nodes,1,AIRLOOPHVAC:ZONESPLITTER,AIR LOOP HVAC ZONE SPLITTER 11,NODE 169,NODE 171,SYS_4_PSZ_SP-LOADING DOCK INTERIOR-SPACE FUNCTION SYS-4 FLR-3 SCH-H HPLCMT-CORE ZN
! <#Nodes on Supply Air Path>,<Number of Nodes>
! <Supply Air Path Node>,<Node Type>,<Node Count>,<Node Name>,<AirLoopHVAC Name>
#Nodes on Supply Air Path,2
   Supply Air Path Node,Inlet Node,1,NODE 169,SYS_4_PSZ_SP-LOADING DOCK INTERIOR-SPACE FUNCTION SYS-4 FLR-3 SCH-H HPLCMT-CORE ZN
   Supply Air Path Node,Outlet Node,2,NODE 171,SYS_4_PSZ_SP-LOADING DOCK INTERIOR-SPACE FUNCTION SYS-4 FLR-3 SCH-H HPLCMT-CORE ZN
 Supply Air Path,12,SYS_6_VAV WITH REHEAT NODE 209 SUPPLY PATH,SYS_6_VAV WITH REHEAT
   #Components on Supply Air Path,1
   Supply Air Path Component,1,AIRLOOPHVAC:ZONESPLITTER,AIR LOOP HVAC ZONE SPLITTER 12,SYS_6_VAV WITH REHEAT
     #Outlet Nodes on Supply Air Path Component,2
     Supply Air Path Component Nodes,1,AIRLOOPHVAC:ZONESPLITTER,AIR LOOP HVAC ZONE SPLITTER 12,NODE 209,NODE 224,SYS_6_VAV WITH REHEAT
     Supply Air Path Component Nodes,2,AIRLOOPHVAC:ZONESPLITTER,AIR LOOP HVAC ZONE SPLITTER 12,NODE 209,NODE 231,SYS_6_VAV WITH REHEAT
! <#Nodes on Supply Air Path>,<Number of Nodes>
! <Supply Air Path Node>,<Node Type>,<Node Count>,<Node Name>,<AirLoopHVAC Name>
#Nodes on Supply Air Path,3
   Supply Air Path Node,Inlet Node,1,NODE 209,SYS_6_VAV WITH REHEAT
   Supply Air Path Node,Outlet Node,2,NODE 224,SYS_6_VAV WITH REHEAT
   Supply Air Path Node,Outlet Node,3,NODE 231,SYS_6_VAV WITH REHEAT
 Supply Air Path,13,SYS_6_VAV WITH REHEAT 1 NODE 236 SUPPLY PATH,SYS_6_VAV WITH REHEAT 1
   #Components on Supply Air Path,1
   Supply Air Path Component,1,AIRLOOPHVAC:ZONESPLITTER,AIR LOOP HVAC ZONE SPLITTER 13,SYS_6_VAV WITH REHEAT 1
     #Outlet Nodes on Supply Air Path Component,5
     Supply Air Path Component Nodes,1,AIRLOOPHVAC:ZONESPLITTER,AIR LOOP HVAC ZONE SPLITTER 13,NODE 236,NODE 252,SYS_6_VAV WITH REHEAT 1
     Supply Air Path Component Nodes,2,AIRLOOPHVAC:ZONESPLITTER,AIR LOOP HVAC ZONE SPLITTER 13,NODE 236,NODE 259,SYS_6_VAV WITH REHEAT 1
     Supply Air Path Component Nodes,3,AIRLOOPHVAC:ZONESPLITTER,AIR LOOP HVAC ZONE SPLITTER 13,NODE 236,NODE 266,SYS_6_VAV WITH REHEAT 1
     Supply Air Path Component Nodes,4,AIRLOOPHVAC:ZONESPLITTER,AIR LOOP HVAC ZONE SPLITTER 13,NODE 236,NODE 273,SYS_6_VAV WITH REHEAT 1
     Supply Air Path Component Nodes,5,AIRLOOPHVAC:ZONESPLITTER,AIR LOOP HVAC ZONE SPLITTER 13,NODE 236,NODE 280,SYS_6_VAV WITH REHEAT 1
! <#Nodes on Supply Air Path>,<Number of Nodes>
! <Supply Air Path Node>,<Node Type>,<Node Count>,<Node Name>,<AirLoopHVAC Name>
#Nodes on Supply Air Path,6
   Supply Air Path Node,Inlet Node,1,NODE 236,SYS_6_VAV WITH REHEAT 1
   Supply Air Path Node,Outlet Node,2,NODE 252,SYS_6_VAV WITH REHEAT 1
   Supply Air Path Node,Outlet Node,3,NODE 259,SYS_6_VAV WITH REHEAT 1
   Supply Air Path Node,Outlet Node,4,NODE 266,SYS_6_VAV WITH REHEAT 1
   Supply Air Path Node,Outlet Node,5,NODE 273,SYS_6_VAV WITH REHEAT 1
   Supply Air Path Node,Outlet Node,6,NODE 280,SYS_6_VAV WITH REHEAT 1
 Supply Air Path,14,SYS_6_VAV WITH REHEAT 2 NODE 285 SUPPLY PATH,SYS_6_VAV WITH REHEAT 2
   #Components on Supply Air Path,1
   Supply Air Path Component,1,AIRLOOPHVAC:ZONESPLITTER,AIR LOOP HVAC ZONE SPLITTER 14,SYS_6_VAV WITH REHEAT 2
     #Outlet Nodes on Supply Air Path Component,1
     Supply Air Path Component Nodes,1,AIRLOOPHVAC:ZONESPLITTER,AIR LOOP HVAC ZONE SPLITTER 14,NODE 285,NODE 301,SYS_6_VAV WITH REHEAT 2
! <#Nodes on Supply Air Path>,<Number of Nodes>
! <Supply Air Path Node>,<Node Type>,<Node Count>,<Node Name>,<AirLoopHVAC Name>
#Nodes on Supply Air Path,2
   Supply Air Path Node,Inlet Node,1,NODE 285,SYS_6_VAV WITH REHEAT 2
   Supply Air Path Node,Outlet Node,2,NODE 301,SYS_6_VAV WITH REHEAT 2
 Supply Air Path,15,SYS_6_VAV WITH REHEAT 3 NODE 306 SUPPLY PATH,SYS_6_VAV WITH REHEAT 3
   #Components on Supply Air Path,1
   Supply Air Path Component,1,AIRLOOPHVAC:ZONESPLITTER,AIR LOOP HVAC ZONE SPLITTER 15,SYS_6_VAV WITH REHEAT 3
     #Outlet Nodes on Supply Air Path Component,1
     Supply Air Path Component Nodes,1,AIRLOOPHVAC:ZONESPLITTER,AIR LOOP HVAC ZONE SPLITTER 15,NODE 306,NODE 322,SYS_6_VAV WITH REHEAT 3
! <#Nodes on Supply Air Path>,<Number of Nodes>
! <Supply Air Path Node>,<Node Type>,<Node Count>,<Node Name>,<AirLoopHVAC Name>
#Nodes on Supply Air Path,2
   Supply Air Path Node,Inlet Node,1,NODE 306,SYS_6_VAV WITH REHEAT 3
   Supply Air Path Node,Outlet Node,2,NODE 322,SYS_6_VAV WITH REHEAT 3
! ===============================================================
! <#Return Air Paths>,<Number of Return Air Paths>
 #Return Air Paths,15
! <Return Air Path>,<Return Air Path Count>,<Return Air Path Name>,<AirLoopHVAC Name>
! <#Components on Return Air Path>,<Number of Components>
! <Return Air Path Component>,<Component Count>,<Component Type>,<Component Name>,<AirLoopHVAC Name>
! <#Inlet Nodes on Return Air Path Component>,<Number of Nodes>
! <Return Air Path Component Nodes>,<Node Count>,<Component Type>,<Component Name>,<Inlet Node Name>,<Outlet Node Name>,<AirLoopHVAC Name>
 Return Air Path,1,SYS_1_MAKE-UP AIR UNIT RETURN PATH,SYS_1_MAKE-UP AIR UNIT
   #Components on Return Air Path,1
   Return Air Path Component,1,AIRLOOPHVAC:ZONEMIXER,AIR LOOP HVAC ZONE MIXER 1,SYS_1_MAKE-UP AIR UNIT
     #Inlet Nodes on Return Air Path Component,1
     Return Air Path Component Nodes,1,AIRLOOPHVAC:ZONEMIXER,AIR LOOP HVAC ZONE MIXER 1,NODE 49,NODE 37,SYS_1_MAKE-UP AIR UNIT
! <#Nodes on Return Air Path>,<Number of Nodes>
! <Return Air Path Node>,<Node Type>,<Node Count>,<Node Name>,<AirLoopHVAC Name>
   #Nodes on Return Air Path,2
   Return Air Path Node,Outlet Node,1,NODE 37,SYS_1_MAKE-UP AIR UNIT
   Return Air Path Node,Inlet Node,2,NODE 49,SYS_1_MAKE-UP AIR UNIT
 Return Air Path,2,SYS_3_PSZ SP-LABORATORY - CLASSROOMS-SPACE FUNCTION SYS-3 FLR-4 SCH-D HPLCMT-SOUTH ZN RETURN PATH,SYS_3_PSZ SP-LABORATORY - CLASSROOMS-SPACE FUNCTION SYS-3 FLR-4 SCH-D HPLCMT-SOUTH ZN
   #Components on Return Air Path,1
   Return Air Path Component,1,AIRLOOPHVAC:ZONEMIXER,AIR LOOP HVAC ZONE MIXER 8,SYS_3_PSZ SP-LABORATORY - CLASSROOMS-SPACE FUNCTION SYS-3 FLR-4 SCH-D HPLCMT-SOUTH ZN
     #Inlet Nodes on Return Air Path Component,1
     Return Air Path Component Nodes,1,AIRLOOPHVAC:ZONEMIXER,AIR LOOP HVAC ZONE MIXER 8,NODE 138,NODE 131,SYS_3_PSZ SP-LABORATORY - CLASSROOMS-SPACE FUNCTION SYS-3 FLR-4 SCH-D HPLCMT-SOUTH ZN
! <#Nodes on Return Air Path>,<Number of Nodes>
! <Return Air Path Node>,<Node Type>,<Node Count>,<Node Name>,<AirLoopHVAC Name>
   #Nodes on Return Air Path,2
   Return Air Path Node,Outlet Node,1,NODE 131,SYS_3_PSZ SP-LABORATORY - CLASSROOMS-SPACE FUNCTION SYS-3 FLR-4 SCH-D HPLCMT-SOUTH ZN
   Return Air Path Node,Inlet Node,2,NODE 138,SYS_3_PSZ SP-LABORATORY - CLASSROOMS-SPACE FUNCTION SYS-3 FLR-4 SCH-D HPLCMT-SOUTH ZN
 Return Air Path,3,SYS_3_PSZ SP-LABORATORY - OTHER-SPACE FUNCTION SYS-3 FLR-4 SCH-A HPLCMT-EAST ZN RETURN PATH,SYS_3_PSZ SP-LABORATORY - OTHER-SPACE FUNCTION SYS-3 FLR-4 SCH-A HPLCMT-EAST ZN
   #Components on Return Air Path,1
   Return Air Path Component,1,AIRLOOPHVAC:ZONEMIXER,AIR LOOP HVAC ZONE MIXER 9,SYS_3_PSZ SP-LABORATORY - OTHER-SPACE FUNCTION SYS-3 FLR-4 SCH-A HPLCMT-EAST ZN
     #Inlet Nodes on Return Air Path Component,1
     Return Air Path Component Nodes,1,AIRLOOPHVAC:ZONEMIXER,AIR LOOP HVAC ZONE MIXER 9,NODE 151,NODE 144,SYS_3_PSZ SP-LABORATORY - OTHER-SPACE FUNCTION SYS-3 FLR-4 SCH-A HPLCMT-EAST ZN
! <#Nodes on Return Air Path>,<Number of Nodes>
! <Return Air Path Node>,<Node Type>,<Node Count>,<Node Name>,<AirLoopHVAC Name>
   #Nodes on Return Air Path,2
   Return Air Path Node,Outlet Node,1,NODE 144,SYS_3_PSZ SP-LABORATORY - OTHER-SPACE FUNCTION SYS-3 FLR-4 SCH-A HPLCMT-EAST ZN
   Return Air Path Node,Inlet Node,2,NODE 151,SYS_3_PSZ SP-LABORATORY - OTHER-SPACE FUNCTION SYS-3 FLR-4 SCH-A HPLCMT-EAST ZN
 Return Air Path,4,SYS_3_PSZ SP-LAUNDRY/WASHING AREA-SPACE FUNCTION SYS-3 FLR-4 SCH-C HPLCMT-NORTH ZN RETURN PATH,SYS_3_PSZ SP-LAUNDRY/WASHING AREA-SPACE FUNCTION SYS-3 FLR-4 SCH-C HPLCMT-NORTH ZN
   #Components on Return Air Path,1
   Return Air Path Component,1,AIRLOOPHVAC:ZONEMIXER,AIR LOOP HVAC ZONE MIXER 10,SYS_3_PSZ SP-LAUNDRY/WASHING AREA-SPACE FUNCTION SYS-3 FLR-4 SCH-C HPLCMT-NORTH ZN
     #Inlet Nodes on Return Air Path Component,1
     Return Air Path Component Nodes,1,AIRLOOPHVAC:ZONEMIXER,AIR LOOP HVAC ZONE MIXER 10,NODE 164,NODE 157,SYS_3_PSZ SP-LAUNDRY/WASHING AREA-SPACE FUNCTION SYS-3 FLR-4 SCH-C HPLCMT-NORTH ZN
! <#Nodes on Return Air Path>,<Number of Nodes>
! <Return Air Path Node>,<Node Type>,<Node Count>,<Node Name>,<AirLoopHVAC Name>
   #Nodes on Return Air Path,2
   Return Air Path Node,Outlet Node,1,NODE 157,SYS_3_PSZ SP-LAUNDRY/WASHING AREA-SPACE FUNCTION SYS-3 FLR-4 SCH-C HPLCMT-NORTH ZN
   Return Air Path Node,Inlet Node,2,NODE 164,SYS_3_PSZ SP-LAUNDRY/WASHING AREA-SPACE FUNCTION SYS-3 FLR-4 SCH-C HPLCMT-NORTH ZN
 Return Air Path,5,SYS_3_PSZ SP-LOBBY - ELEVATOR-SPACE FUNCTION SYS-3 FLR-3 SCH-C HPLCMT-SOUTH ZN RETURN PATH,SYS_3_PSZ SP-LOBBY - ELEVATOR-SPACE FUNCTION SYS-3 FLR-3 SCH-C HPLCMT-SOUTH ZN
   #Components on Return Air Path,1
   Return Air Path Component,1,AIRLOOPHVAC:ZONEMIXER,AIR LOOP HVAC ZONE MIXER 6,SYS_3_PSZ SP-LOBBY - ELEVATOR-SPACE FUNCTION SYS-3 FLR-3 SCH-C HPLCMT-SOUTH ZN
     #Inlet Nodes on Return Air Path Component,1
     Return Air Path Component Nodes,1,AIRLOOPHVAC:ZONEMIXER,AIR LOOP HVAC ZONE MIXER 6,NODE 112,NODE 105,SYS_3_PSZ SP-LOBBY - ELEVATOR-SPACE FUNCTION SYS-3 FLR-3 SCH-C HPLCMT-SOUTH ZN
! <#Nodes on Return Air Path>,<Number of Nodes>
! <Return Air Path Node>,<Node Type>,<Node Count>,<Node Name>,<AirLoopHVAC Name>
   #Nodes on Return Air Path,2
   Return Air Path Node,Outlet Node,1,NODE 105,SYS_3_PSZ SP-LOBBY - ELEVATOR-SPACE FUNCTION SYS-3 FLR-3 SCH-C HPLCMT-SOUTH ZN
   Return Air Path Node,Inlet Node,2,NODE 112,SYS_3_PSZ SP-LOBBY - ELEVATOR-SPACE FUNCTION SYS-3 FLR-3 SCH-C HPLCMT-SOUTH ZN
 Return Air Path,6,SYS_3_PSZ SP-LOBBY - HOTEL-SPACE FUNCTION SYS-3 FLR-3 SCH-H HPLCMT-EAST ZN RETURN PATH,SYS_3_PSZ SP-LOBBY - HOTEL-SPACE FUNCTION SYS-3 FLR-3 SCH-H HPLCMT-EAST ZN
   #Components on Return Air Path,1
   Return Air Path Component,1,AIRLOOPHVAC:ZONEMIXER,AIR LOOP HVAC ZONE MIXER 7,SYS_3_PSZ SP-LOBBY - HOTEL-SPACE FUNCTION SYS-3 FLR-3 SCH-H HPLCMT-EAST ZN
     #Inlet Nodes on Return Air Path Component,1
     Return Air Path Component Nodes,1,AIRLOOPHVAC:ZONEMIXER,AIR LOOP HVAC ZONE MIXER 7,NODE 125,NODE 118,SYS_3_PSZ SP-LOBBY - HOTEL-SPACE FUNCTION SYS-3 FLR-3 SCH-H HPLCMT-EAST ZN
! <#Nodes on Return Air Path>,<Number of Nodes>
! <Return Air Path Node>,<Node Type>,<Node Count>,<Node Name>,<AirLoopHVAC Name>
   #Nodes on Return Air Path,2
   Return Air Path Node,Outlet Node,1,NODE 118,SYS_3_PSZ SP-LOBBY - HOTEL-SPACE FUNCTION SYS-3 FLR-3 SCH-H HPLCMT-EAST ZN
   Return Air Path Node,Inlet Node,2,NODE 125,SYS_3_PSZ SP-LOBBY - HOTEL-SPACE FUNCTION SYS-3 FLR-3 SCH-H HPLCMT-EAST ZN
 Return Air Path,7,SYS_3_PSZ SP-LOBBY - MOTION PICTURE THEATRE-SPACE FUNCTION SYS-3 FLR-1 SCH-C HPLCMT-CORE ZN RETURN PATH,SYS_3_PSZ SP-LOBBY - MOTION PICTURE THEATRE-SPACE FUNCTION SYS-3 FLR-1 SCH-C HPLCMT-CORE ZN
   #Components on Return Air Path,1
   Return Air Path Component,1,AIRLOOPHVAC:ZONEMIXER,AIR LOOP HVAC ZONE MIXER 3,SYS_3_PSZ SP-LOBBY - MOTION PICTURE THEATRE-SPACE FUNCTION SYS-3 FLR-1 SCH-C HPLCMT-CORE ZN
     #Inlet Nodes on Return Air Path Component,1
     Return Air Path Component Nodes,1,AIRLOOPHVAC:ZONEMIXER,AIR LOOP HVAC ZONE MIXER 3,NODE 73,NODE 66,SYS_3_PSZ SP-LOBBY - MOTION PICTURE THEATRE-SPACE FUNCTION SYS-3 FLR-1 SCH-C HPLCMT-CORE ZN
! <#Nodes on Return Air Path>,<Number of Nodes>
! <Return Air Path Node>,<Node Type>,<Node Count>,<Node Name>,<AirLoopHVAC Name>
   #Nodes on Return Air Path,2
   Return Air Path Node,Outlet Node,1,NODE 66,SYS_3_PSZ SP-LOBBY - MOTION PICTURE THEATRE-SPACE FUNCTION SYS-3 FLR-1 SCH-C HPLCMT-CORE ZN
   Return Air Path Node,Inlet Node,2,NODE 73,SYS_3_PSZ SP-LOBBY - MOTION PICTURE THEATRE-SPACE FUNCTION SYS-3 FLR-1 SCH-C HPLCMT-CORE ZN
 Return Air Path,8,SYS_3_PSZ SP-LOBBY - OTHER-SPACE FUNCTION SYS-3 FLR-3 SCH-C HPLCMT-WEST ZN RETURN PATH,SYS_3_PSZ SP-LOBBY - OTHER-SPACE FUNCTION SYS-3 FLR-3 SCH-C HPLCMT-WEST ZN
   #Components on Return Air Path,1
   Return Air Path Component,1,AIRLOOPHVAC:ZONEMIXER,AIR LOOP HVAC ZONE MIXER 5,SYS_3_PSZ SP-LOBBY - OTHER-SPACE FUNCTION SYS-3 FLR-3 SCH-C HPLCMT-WEST ZN
     #Inlet Nodes on Return Air Path Component,1
     Return Air Path Component Nodes,1,AIRLOOPHVAC:ZONEMIXER,AIR LOOP HVAC ZONE MIXER 5,NODE 99,NODE 92,SYS_3_PSZ SP-LOBBY - OTHER-SPACE FUNCTION SYS-3 FLR-3 SCH-C HPLCMT-WEST ZN
! <#Nodes on Return Air Path>,<Number of Nodes>
! <Return Air Path Node>,<Node Type>,<Node Count>,<Node Name>,<AirLoopHVAC Name>
   #Nodes on Return Air Path,2
   Return Air Path Node,Outlet Node,1,NODE 92,SYS_3_PSZ SP-LOBBY - OTHER-SPACE FUNCTION SYS-3 FLR-3 SCH-C HPLCMT-WEST ZN
   Return Air Path Node,Inlet Node,2,NODE 99,SYS_3_PSZ SP-LOBBY - OTHER-SPACE FUNCTION SYS-3 FLR-3 SCH-C HPLCMT-WEST ZN
 Return Air Path,9,SYS_3_PSZ SP-LOBBY - PERFORMING ARTS THEATRE-SPACE FUNCTION SYS-3 FLR-1 SCH-C HPLCMT-WEST ZN RETURN PATH,SYS_3_PSZ SP-LOBBY - PERFORMING ARTS THEATRE-SPACE FUNCTION SYS-3 FLR-1 SCH-C HPLCMT-WEST ZN
   #Components on Return Air Path,1
   Return Air Path Component,1,AIRLOOPHVAC:ZONEMIXER,AIR LOOP HVAC ZONE MIXER 2,SYS_3_PSZ SP-LOBBY - PERFORMING ARTS THEATRE-SPACE FUNCTION SYS-3 FLR-1 SCH-C HPLCMT-WEST ZN
     #Inlet Nodes on Return Air Path Component,1
     Return Air Path Component Nodes,1,AIRLOOPHVAC:ZONEMIXER,AIR LOOP HVAC ZONE MIXER 2,NODE 60,NODE 53,SYS_3_PSZ SP-LOBBY - PERFORMING ARTS THEATRE-SPACE FUNCTION SYS-3 FLR-1 SCH-C HPLCMT-WEST ZN
! <#Nodes on Return Air Path>,<Number of Nodes>
! <Return Air Path Node>,<Node Type>,<Node Count>,<Node Name>,<AirLoopHVAC Name>
   #Nodes on Return Air Path,2
   Return Air Path Node,Outlet Node,1,NODE 53,SYS_3_PSZ SP-LOBBY - PERFORMING ARTS THEATRE-SPACE FUNCTION SYS-3 FLR-1 SCH-C HPLCMT-WEST ZN
   Return Air Path Node,Inlet Node,2,NODE 60,SYS_3_PSZ SP-LOBBY - PERFORMING ARTS THEATRE-SPACE FUNCTION SYS-3 FLR-1 SCH-C HPLCMT-WEST ZN
 Return Air Path,10,SYS_3_PSZ SP-LOBBY - SPACE DESIGNED TO ANSI/IES RP-28 (USED PRIMARILY BY RESIDENTS)-SPACE FUNCTION SYS-3 FLR-1 SCH-B HPLCMT-NORTH ZN RETURN PATH,SYS_3_PSZ SP-LOBBY - SPACE DESIGNED TO ANSI/IES RP-28 (USED PRIMARILY BY RESIDENTS)-SPACE FUNCTION SYS-3 FLR-1 SCH-B HPLCMT-NORTH ZN
   #Components on Return Air Path,1
   Return Air Path Component,1,AIRLOOPHVAC:ZONEMIXER,AIR LOOP HVAC ZONE MIXER 4,SYS_3_PSZ SP-LOBBY - SPACE DESIGNED TO ANSI/IES RP-28 (USED PRIMARILY BY RESIDENTS)-SPACE FUNCTION SYS-3 FLR-1 SCH-B HPLCMT-NORTH ZN
     #Inlet Nodes on Return Air Path Component,1
     Return Air Path Component Nodes,1,AIRLOOPHVAC:ZONEMIXER,AIR LOOP HVAC ZONE MIXER 4,NODE 86,NODE 79,SYS_3_PSZ SP-LOBBY - SPACE DESIGNED TO ANSI/IES RP-28 (USED PRIMARILY BY RESIDENTS)-SPACE FUNCTION SYS-3 FLR-1 SCH-B HPLCMT-NORTH ZN
! <#Nodes on Return Air Path>,<Number of Nodes>
! <Return Air Path Node>,<Node Type>,<Node Count>,<Node Name>,<AirLoopHVAC Name>
   #Nodes on Return Air Path,2
   Return Air Path Node,Outlet Node,1,NODE 79,SYS_3_PSZ SP-LOBBY - SPACE DESIGNED TO ANSI/IES RP-28 (USED PRIMARILY BY RESIDENTS)-SPACE FUNCTION SYS-3 FLR-1 SCH-B HPLCMT-NORTH ZN
   Return Air Path Node,Inlet Node,2,NODE 86,SYS_3_PSZ SP-LOBBY - SPACE DESIGNED TO ANSI/IES RP-28 (USED PRIMARILY BY RESIDENTS)-SPACE FUNCTION SYS-3 FLR-1 SCH-B HPLCMT-NORTH ZN
 Return Air Path,11,SYS_4_PSZ_SP-LOADING DOCK INTERIOR-SPACE FUNCTION SYS-4 FLR-3 SCH-H HPLCMT-CORE ZN RETURN PATH,SYS_4_PSZ_SP-LOADING DOCK INTERIOR-SPACE FUNCTION SYS-4 FLR-3 SCH-H HPLCMT-CORE ZN
   #Components on Return Air Path,1
   Return Air Path Component,1,AIRLOOPHVAC:ZONEMIXER,AIR LOOP HVAC ZONE MIXER 11,SYS_4_PSZ_SP-LOADING DOCK INTERIOR-SPACE FUNCTION SYS-4 FLR-3 SCH-H HPLCMT-CORE ZN
     #Inlet Nodes on Return Air Path Component,1
     Return Air Path Component Nodes,1,AIRLOOPHVAC:ZONEMIXER,AIR LOOP HVAC ZONE MIXER 11,NODE 177,NODE 170,SYS_4_PSZ_SP-LOADING DOCK INTERIOR-SPACE FUNCTION SYS-4 FLR-3 SCH-H HPLCMT-CORE ZN
! <#Nodes on Return Air Path>,<Number of Nodes>
! <Return Air Path Node>,<Node Type>,<Node Count>,<Node Name>,<AirLoopHVAC Name>
   #Nodes on Return Air Path,2
   Return Air Path Node,Outlet Node,1,NODE 170,SYS_4_PSZ_SP-LOADING DOCK INTERIOR-SPACE FUNCTION SYS-4 FLR-3 SCH-H HPLCMT-CORE ZN
   Return Air Path Node,Inlet Node,2,NODE 177,SYS_4_PSZ_SP-LOADING DOCK INTERIOR-SPACE FUNCTION SYS-4 FLR-3 SCH-H HPLCMT-CORE ZN
 Return Air Path,12,SYS_6_VAV WITH REHEAT RETURN PATH,SYS_6_VAV WITH REHEAT
   #Components on Return Air Path,1
   Return Air Path Component,1,AIRLOOPHVAC:ZONEMIXER,AIR LOOP HVAC ZONE MIXER 12,SYS_6_VAV WITH REHEAT
     #Inlet Nodes on Return Air Path Component,2
     Return Air Path Component Nodes,1,AIRLOOPHVAC:ZONEMIXER,AIR LOOP HVAC ZONE MIXER 12,NODE 223,NODE 210,SYS_6_VAV WITH REHEAT
     Return Air Path Component Nodes,2,AIRLOOPHVAC:ZONEMIXER,AIR LOOP HVAC ZONE MIXER 12,NODE 230,NODE 210,SYS_6_VAV WITH REHEAT
! <#Nodes on Return Air Path>,<Number of Nodes>
! <Return Air Path Node>,<Node Type>,<Node Count>,<Node Name>,<AirLoopHVAC Name>
   #Nodes on Return Air Path,3
   Return Air Path Node,Outlet Node,1,NODE 210,SYS_6_VAV WITH REHEAT
   Return Air Path Node,Inlet Node,2,NODE 223,SYS_6_VAV WITH REHEAT
   Return Air Path Node,Inlet Node,3,NODE 230,SYS_6_VAV WITH REHEAT
 Return Air Path,13,SYS_6_VAV WITH REHEAT 1 RETURN PATH,SYS_6_VAV WITH REHEAT 1
   #Components on Return Air Path,1
   Return Air Path Component,1,AIRLOOPHVAC:ZONEMIXER,AIR LOOP HVAC ZONE MIXER 13,SYS_6_VAV WITH REHEAT 1
     #Inlet Nodes on Return Air Path Component,5
     Return Air Path Component Nodes,1,AIRLOOPHVAC:ZONEMIXER,AIR LOOP HVAC ZONE MIXER 13,NODE 251,NODE 237,SYS_6_VAV WITH REHEAT 1
     Return Air Path Component Nodes,2,AIRLOOPHVAC:ZONEMIXER,AIR LOOP HVAC ZONE MIXER 13,NODE 258,NODE 237,SYS_6_VAV WITH REHEAT 1
     Return Air Path Component Nodes,3,AIRLOOPHVAC:ZONEMIXER,AIR LOOP HVAC ZONE MIXER 13,NODE 265,NODE 237,SYS_6_VAV WITH REHEAT 1
     Return Air Path Component Nodes,4,AIRLOOPHVAC:ZONEMIXER,AIR LOOP HVAC ZONE MIXER 13,NODE 272,NODE 237,SYS_6_VAV WITH REHEAT 1
     Return Air Path Component Nodes,5,AIRLOOPHVAC:ZONEMIXER,AIR LOOP HVAC ZONE MIXER 13,NODE 279,NODE 237,SYS_6_VAV WITH REHEAT 1
! <#Nodes on Return Air Path>,<Number of Nodes>
! <Return Air Path Node>,<Node Type>,<Node Count>,<Node Name>,<AirLoopHVAC Name>
   #Nodes on Return Air Path,6
   Return Air Path Node,Outlet Node,1,NODE 237,SYS_6_VAV WITH REHEAT 1
   Return Air Path Node,Inlet Node,2,NODE 251,SYS_6_VAV WITH REHEAT 1
   Return Air Path Node,Inlet Node,3,NODE 258,SYS_6_VAV WITH REHEAT 1
   Return Air Path Node,Inlet Node,4,NODE 265,SYS_6_VAV WITH REHEAT 1
   Return Air Path Node,Inlet Node,5,NODE 272,SYS_6_VAV WITH REHEAT 1
   Return Air Path Node,Inlet Node,6,NODE 279,SYS_6_VAV WITH REHEAT 1
 Return Air Path,14,SYS_6_VAV WITH REHEAT 2 RETURN PATH,SYS_6_VAV WITH REHEAT 2
   #Components on Return Air Path,1
   Return Air Path Component,1,AIRLOOPHVAC:ZONEMIXER,AIR LOOP HVAC ZONE MIXER 14,SYS_6_VAV WITH REHEAT 2
     #Inlet Nodes on Return Air Path Component,1
     Return Air Path Component Nodes,1,AIRLOOPHVAC:ZONEMIXER,AIR LOOP HVAC ZONE MIXER 14,NODE 300,NODE 286,SYS_6_VAV WITH REHEAT 2
! <#Nodes on Return Air Path>,<Number of Nodes>
! <Return Air Path Node>,<Node Type>,<Node Count>,<Node Name>,<AirLoopHVAC Name>
   #Nodes on Return Air Path,2
   Return Air Path Node,Outlet Node,1,NODE 286,SYS_6_VAV WITH REHEAT 2
   Return Air Path Node,Inlet Node,2,NODE 300,SYS_6_VAV WITH REHEAT 2
 Return Air Path,15,SYS_6_VAV WITH REHEAT 3 RETURN PATH,SYS_6_VAV WITH REHEAT 3
   #Components on Return Air Path,1
   Return Air Path Component,1,AIRLOOPHVAC:ZONEMIXER,AIR LOOP HVAC ZONE MIXER 15,SYS_6_VAV WITH REHEAT 3
     #Inlet Nodes on Return Air Path Component,1
     Return Air Path Component Nodes,1,AIRLOOPHVAC:ZONEMIXER,AIR LOOP HVAC ZONE MIXER 15,NODE 321,NODE 307,SYS_6_VAV WITH REHEAT 3
! <#Nodes on Return Air Path>,<Number of Nodes>
! <Return Air Path Node>,<Node Type>,<Node Count>,<Node Name>,<AirLoopHVAC Name>
   #Nodes on Return Air Path,2
   Return Air Path Node,Outlet Node,1,NODE 307,SYS_6_VAV WITH REHEAT 3
   Return Air Path Node,Inlet Node,2,NODE 321,SYS_6_VAV WITH REHEAT 3
! ===============================================================
! #Outdoor Air Nodes,<Number of Outdoor Air Nodes>
 #Outdoor Air Nodes,17
! <Outdoor Air Node>,<NodeNumber>,<Node Name>
 Outdoor Air Node,326,SP-GUEST ROOM-SPACE FUNCTION SYS-1 FLR-4 SCH-F HPLCMT-CORE ZN PTAC OA NODE
 Outdoor Air Node,327,NODE 40
 Outdoor Air Node,328,NODE 133
 Outdoor Air Node,329,NODE 146
 Outdoor Air Node,330,NODE 159
 Outdoor Air Node,331,NODE 107
 Outdoor Air Node,332,NODE 120
 Outdoor Air Node,333,NODE 68
 Outdoor Air Node,334,NODE 94
 Outdoor Air Node,335,NODE 55
 Outdoor Air Node,336,NODE 81
 Outdoor Air Node,337,NODE 172
 Outdoor Air Node,338,NODE 215
 Outdoor Air Node,339,NODE 243
 Outdoor Air Node,340,NODE 292
 Outdoor Air Node,341,NODE 313
 Outdoor Air Node,342,MODEL OUTDOOR AIR NODE
! ===============================================================
! <#Component Sets>,<Number of Component Sets>
 #Component Sets,204
! <Component Set>,<Component Set Count>,<Parent Object Type>,<Parent Object Name>,<Component Type>,<Component Name>,<Inlet Node ID>,<Outlet Node ID>,<Description>
 Component Set,1,BRANCH,SYS_1_MAKE-UP AIR UNIT MAIN BRANCH,AIRLOOPHVAC:OUTDOORAIRSYSTEM,AIR LOOP HVAC OUTDOOR AIR SYSTEM 1,NODE 34,NODE 44,Air Nodes
 Component Set,2,BRANCH,SYS_1_MAKE-UP AIR UNIT MAIN BRANCH,COILSYSTEM:COOLING:DX,COIL COOLING DX SINGLE SPEED 1 89KBTU/HR 9.26EER COILSYSTEM,NODE 44,NODE 43,Air Nodes
 Component Set,3,BRANCH,SYS_1_MAKE-UP AIR UNIT MAIN BRANCH,COIL:HEATING:WATER,COIL HEATING WATER 1,NODE 43,NODE 42,Air Nodes
 Component Set,4,BRANCH,SYS_1_MAKE-UP AIR UNIT MAIN BRANCH,FAN:CONSTANTVOLUME,FAN CONSTANT VOLUME 1,NODE 42,NODE 35,Air Nodes
 Component Set,5,BRANCH,SYS_3_PSZ SP-LABORATORY - CLASSROOMS-SPACE FUNCTION SYS-3 FLR-4 SCH-D HPLCMT-SOUTH ZN MAIN BRANCH,AIRLOOPHVAC:OUTDOORAIRSYSTEM,AIR LOOP HVAC OUTDOOR AIR SYSTEM 8,NODE 128,NODE 137,Air Nodes
 Component Set,6,BRANCH,SYS_3_PSZ SP-LABORATORY - CLASSROOMS-SPACE FUNCTION SYS-3 FLR-4 SCH-D HPLCMT-SOUTH ZN MAIN BRANCH,COILSYSTEM:COOLING:DX,COIL COOLING DX SINGLE SPEED 9 385KBTU/HR 8.21EER COILSYSTEM,NODE 137,NODE 136,Air Nodes
 Component Set,7,BRANCH,SYS_3_PSZ SP-LABORATORY - CLASSROOMS-SPACE FUNCTION SYS-3 FLR-4 SCH-D HPLCMT-SOUTH ZN MAIN BRANCH,COIL:HEATING:FUEL,COIL HEATING GAS 7,NODE 136,NODE 135,Air Nodes
 Component Set,8,BRANCH,SYS_3_PSZ SP-LABORATORY - CLASSROOMS-SPACE FUNCTION SYS-3 FLR-4 SCH-D HPLCMT-SOUTH ZN MAIN BRANCH,FAN:CONSTANTVOLUME,FAN CONSTANT VOLUME 9,NODE 135,NODE 129,Air Nodes
 Component Set,9,BRANCH,SYS_3_PSZ SP-LABORATORY - OTHER-SPACE FUNCTION SYS-3 FLR-4 SCH-A HPLCMT-EAST ZN MAIN BRANCH,AIRLOOPHVAC:OUTDOORAIRSYSTEM,AIR LOOP HVAC OUTDOOR AIR SYSTEM 9,NODE 141,NODE 150,Air Nodes
 Component Set,10,BRANCH,SYS_3_PSZ SP-LABORATORY - OTHER-SPACE FUNCTION SYS-3 FLR-4 SCH-A HPLCMT-EAST ZN MAIN BRANCH,COILSYSTEM:COOLING:DX,COIL COOLING DX SINGLE SPEED 10 381KBTU/HR 8.21EER COILSYSTEM,NODE 150,NODE 149,Air Nodes
 Component Set,11,BRANCH,SYS_3_PSZ SP-LABORATORY - OTHER-SPACE FUNCTION SYS-3 FLR-4 SCH-A HPLCMT-EAST ZN MAIN BRANCH,COIL:HEATING:FUEL,COIL HEATING GAS 8,NODE 149,NODE 148,Air Nodes
 Component Set,12,BRANCH,SYS_3_PSZ SP-LABORATORY - OTHER-SPACE FUNCTION SYS-3 FLR-4 SCH-A HPLCMT-EAST ZN MAIN BRANCH,FAN:CONSTANTVOLUME,FAN CONSTANT VOLUME 10,NODE 148,NODE 142,Air Nodes
 Component Set,13,BRANCH,SYS_3_PSZ SP-LAUNDRY/WASHING AREA-SPACE FUNCTION SYS-3 FLR-4 SCH-C HPLCMT-NORTH ZN MAIN BRANCH,AIRLOOPHVAC:OUTDOORAIRSYSTEM,AIR LOOP HVAC OUTDOOR AIR SYSTEM 10,NODE 154,NODE 163,Air Nodes
 Component Set,14,BRANCH,SYS_3_PSZ SP-LAUNDRY/WASHING AREA-SPACE FUNCTION SYS-3 FLR-4 SCH-C HPLCMT-NORTH ZN MAIN BRANCH,COILSYSTEM:COOLING:DX,COIL COOLING DX SINGLE SPEED 11 313KBTU/HR 8.21EER COILSYSTEM,NODE 163,NODE 162,Air Nodes
 Component Set,15,BRANCH,SYS_3_PSZ SP-LAUNDRY/WASHING AREA-SPACE FUNCTION SYS-3 FLR-4 SCH-C HPLCMT-NORTH ZN MAIN BRANCH,COIL:HEATING:FUEL,COIL HEATING GAS 9,NODE 162,NODE 161,Air Nodes
 Component Set,16,BRANCH,SYS_3_PSZ SP-LAUNDRY/WASHING AREA-SPACE FUNCTION SYS-3 FLR-4 SCH-C HPLCMT-NORTH ZN MAIN BRANCH,FAN:CONSTANTVOLUME,FAN CONSTANT VOLUME 11,NODE 161,NODE 155,Air Nodes
 Component Set,17,BRANCH,SYS_3_PSZ SP-LOBBY - ELEVATOR-SPACE FUNCTION SYS-3 FLR-3 SCH-C HPLCMT-SOUTH ZN MAIN BRANCH,AIRLOOPHVAC:OUTDOORAIRSYSTEM,AIR LOOP HVAC OUTDOOR AIR SYSTEM 6,NODE 102,NODE 111,Air Nodes
 Component Set,18,BRANCH,SYS_3_PSZ SP-LOBBY - ELEVATOR-SPACE FUNCTION SYS-3 FLR-3 SCH-C HPLCMT-SOUTH ZN MAIN BRANCH,COILSYSTEM:COOLING:DX,COIL COOLING DX SINGLE SPEED 7 488KBTU/HR 8.21EER COILSYSTEM,NODE 111,NODE 110,Air Nodes
 Component Set,19,BRANCH,SYS_3_PSZ SP-LOBBY - ELEVATOR-SPACE FUNCTION SYS-3 FLR-3 SCH-C HPLCMT-SOUTH ZN MAIN BRANCH,COIL:HEATING:FUEL,COIL HEATING GAS 5,NODE 110,NODE 109,Air Nodes
 Component Set,20,BRANCH,SYS_3_PSZ SP-LOBBY - ELEVATOR-SPACE FUNCTION SYS-3 FLR-3 SCH-C HPLCMT-SOUTH ZN MAIN BRANCH,FAN:CONSTANTVOLUME,FAN CONSTANT VOLUME 7,NODE 109,NODE 103,Air Nodes
 Component Set,21,BRANCH,SYS_3_PSZ SP-LOBBY - HOTEL-SPACE FUNCTION SYS-3 FLR-3 SCH-H HPLCMT-EAST ZN MAIN BRANCH,AIRLOOPHVAC:OUTDOORAIRSYSTEM,AIR LOOP HVAC OUTDOOR AIR SYSTEM 7,NODE 115,NODE 124,Air Nodes
 Component Set,22,BRANCH,SYS_3_PSZ SP-LOBBY - HOTEL-SPACE FUNCTION SYS-3 FLR-3 SCH-H HPLCMT-EAST ZN MAIN BRANCH,COILSYSTEM:COOLING:DX,COIL COOLING DX SINGLE SPEED 8 243KBTU/HR 8.21EER COILSYSTEM,NODE 124,NODE 123,Air Nodes
 Component Set,23,BRANCH,SYS_3_PSZ SP-LOBBY - HOTEL-SPACE FUNCTION SYS-3 FLR-3 SCH-H HPLCMT-EAST ZN MAIN BRANCH,COIL:HEATING:FUEL,COIL HEATING GAS 6,NODE 123,NODE 122,Air Nodes
 Component Set,24,BRANCH,SYS_3_PSZ SP-LOBBY - HOTEL-SPACE FUNCTION SYS-3 FLR-3 SCH-H HPLCMT-EAST ZN MAIN BRANCH,FAN:CONSTANTVOLUME,FAN CONSTANT VOLUME 8,NODE 122,NODE 116,Air Nodes
 Component Set,25,BRANCH,SYS_3_PSZ SP-LOBBY - MOTION PICTURE THEATRE-SPACE FUNCTION SYS-3 FLR-1 SCH-C HPLCMT-CORE ZN MAIN BRANCH,AIRLOOPHVAC:OUTDOORAIRSYSTEM,AIR LOOP HVAC OUTDOOR AIR SYSTEM 3,NODE 63,NODE 72,Air Nodes
 Component Set,26,BRANCH,SYS_3_PSZ SP-LOBBY - MOTION PICTURE THEATRE-SPACE FUNCTION SYS-3 FLR-1 SCH-C HPLCMT-CORE ZN MAIN BRANCH,COILSYSTEM:COOLING:DX,COIL COOLING DX SINGLE SPEED 4 597KBTU/HR 8.21EER COILSYSTEM,NODE 72,NODE 71,Air Nodes
 Component Set,27,BRANCH,SYS_3_PSZ SP-LOBBY - MOTION PICTURE THEATRE-SPACE FUNCTION SYS-3 FLR-1 SCH-C HPLCMT-CORE ZN MAIN BRANCH,COIL:HEATING:FUEL,COIL HEATING GAS 2,NODE 71,NODE 70,Air Nodes
 Component Set,28,BRANCH,SYS_3_PSZ SP-LOBBY - MOTION PICTURE THEATRE-SPACE FUNCTION SYS-3 FLR-1 SCH-C HPLCMT-CORE ZN MAIN BRANCH,FAN:CONSTANTVOLUME,FAN CONSTANT VOLUME 4,NODE 70,NODE 64,Air Nodes
 Component Set,29,BRANCH,SYS_3_PSZ SP-LOBBY - OTHER-SPACE FUNCTION SYS-3 FLR-3 SCH-C HPLCMT-WEST ZN MAIN BRANCH,AIRLOOPHVAC:OUTDOORAIRSYSTEM,AIR LOOP HVAC OUTDOOR AIR SYSTEM 5,NODE 89,NODE 98,Air Nodes
 Component Set,30,BRANCH,SYS_3_PSZ SP-LOBBY - OTHER-SPACE FUNCTION SYS-3 FLR-3 SCH-C HPLCMT-WEST ZN MAIN BRANCH,COILSYSTEM:COOLING:DX,COIL COOLING DX SINGLE SPEED 6 436KBTU/HR 8.21EER COILSYSTEM,NODE 98,NODE 97,Air Nodes
 Component Set,31,BRANCH,SYS_3_PSZ SP-LOBBY - OTHER-SPACE FUNCTION SYS-3 FLR-3 SCH-C HPLCMT-WEST ZN MAIN BRANCH,COIL:HEATING:FUEL,COIL HEATING GAS 4,NODE 97,NODE 96,Air Nodes
 Component Set,32,BRANCH,SYS_3_PSZ SP-LOBBY - OTHER-SPACE FUNCTION SYS-3 FLR-3 SCH-C HPLCMT-WEST ZN MAIN BRANCH,FAN:CONSTANTVOLUME,FAN CONSTANT VOLUME 6,NODE 96,NODE 90,Air Nodes
 Component Set,33,BRANCH,SYS_3_PSZ SP-LOBBY - PERFORMING ARTS THEATRE-SPACE FUNCTION SYS-3 FLR-1 SCH-C HPLCMT-WEST ZN MAIN BRANCH,AIRLOOPHVAC:OUTDOORAIRSYSTEM,AIR LOOP HVAC OUTDOOR AIR SYSTEM 2,NODE 50,NODE 59,Air Nodes
 Component Set,34,BRANCH,SYS_3_PSZ SP-LOBBY - PERFORMING ARTS THEATRE-SPACE FUNCTION SYS-3 FLR-1 SCH-C HPLCMT-WEST ZN MAIN BRANCH,COILSYSTEM:COOLING:DX,COIL COOLING DX SINGLE SPEED 3 448KBTU/HR 8.21EER COILSYSTEM,NODE 59,NODE 58,Air Nodes
 Component Set,35,BRANCH,SYS_3_PSZ SP-LOBBY - PERFORMING ARTS THEATRE-SPACE FUNCTION SYS-3 FLR-1 SCH-C HPLCMT-WEST ZN MAIN BRANCH,COIL:HEATING:FUEL,COIL HEATING GAS 1,NODE 58,NODE 57,Air Nodes
 Component Set,36,BRANCH,SYS_3_PSZ SP-LOBBY - PERFORMING ARTS THEATRE-SPACE FUNCTION SYS-3 FLR-1 SCH-C HPLCMT-WEST ZN MAIN BRANCH,FAN:CONSTANTVOLUME,FAN CONSTANT VOLUME 3,NODE 57,NODE 51,Air Nodes
 Component Set,37,BRANCH,SYS_3_PSZ SP-LOBBY - SPACE DESIGNED TO ANSI/IES RP-28 (USED PRIMARILY BY RESIDENTS)-SPACE FUNCTION SYS-3 FLR-1 SCH-B HPLCMT-NORTH ZN MAIN BRANCH,AIRLOOPHVAC:OUTDOORAIRSYSTEM,AIR LOOP HVAC OUTDOOR AIR SYSTEM 4,NODE 76,NODE 85,Air Nodes
 Component Set,38,BRANCH,SYS_3_PSZ SP-LOBBY - SPACE DESIGNED TO ANSI/IES RP-28 (USED PRIMARILY BY RESIDENTS)-SPACE FUNCTION SYS-3 FLR-1 SCH-B HPLCMT-NORTH ZN MAIN BRANCH,COILSYSTEM:COOLING:DX,COIL COOLING DX SINGLE SPEED 5 436KBTU/HR 8.21EER COILSYSTEM,NODE 85,NODE 84,Air Nodes
 Component Set,39,BRANCH,SYS_3_PSZ SP-LOBBY - SPACE DESIGNED TO ANSI/IES RP-28 (USED PRIMARILY BY RESIDENTS)-SPACE FUNCTION SYS-3 FLR-1 SCH-B HPLCMT-NORTH ZN MAIN BRANCH,COIL:HEATING:FUEL,COIL HEATING GAS 3,NODE 84,NODE 83,Air Nodes
 Component Set,40,BRANCH,SYS_3_PSZ SP-LOBBY - SPACE DESIGNED TO ANSI/IES RP-28 (USED PRIMARILY BY RESIDENTS)-SPACE FUNCTION SYS-3 FLR-1 SCH-B HPLCMT-NORTH ZN MAIN BRANCH,FAN:CONSTANTVOLUME,FAN CONSTANT VOLUME 5,NODE 83,NODE 77,Air Nodes
 Component Set,41,BRANCH,SYS_4_PSZ_SP-LOADING DOCK INTERIOR-SPACE FUNCTION SYS-4 FLR-3 SCH-H HPLCMT-CORE ZN MAIN BRANCH,AIRLOOPHVAC:OUTDOORAIRSYSTEM,AIR LOOP HVAC OUTDOOR AIR SYSTEM 11,NODE 167,NODE 176,Air Nodes
 Component Set,42,BRANCH,SYS_4_PSZ_SP-LOADING DOCK INTERIOR-SPACE FUNCTION SYS-4 FLR-3 SCH-H HPLCMT-CORE ZN MAIN BRANCH,COILSYSTEM:COOLING:DX,COIL COOLING DX SINGLE SPEED 12 100KBTU/HR 9.26EER COILSYSTEM,NODE 176,NODE 175,Air Nodes
 Component Set,43,BRANCH,SYS_4_PSZ_SP-LOADING DOCK INTERIOR-SPACE FUNCTION SYS-4 FLR-3 SCH-H HPLCMT-CORE ZN MAIN BRANCH,COIL:HEATING:FUEL,COIL HEATING GAS 10,NODE 175,NODE 174,Air Nodes
 Component Set,44,BRANCH,SYS_4_PSZ_SP-LOADING DOCK INTERIOR-SPACE FUNCTION SYS-4 FLR-3 SCH-H HPLCMT-CORE ZN MAIN BRANCH,FAN:CONSTANTVOLUME,FAN CONSTANT VOLUME 12,NODE 174,NODE 168,Air Nodes
 Component Set,45,BRANCH,SYS_6_VAV WITH REHEAT MAIN BRANCH,FAN:VARIABLEVOLUME,SYS6 RETURN FAN,NODE 207,NODE 220,Air Nodes
 Component Set,46,BRANCH,SYS_6_VAV WITH REHEAT MAIN BRANCH,AIRLOOPHVAC:OUTDOORAIRSYSTEM,AIR LOOP HVAC OUTDOOR AIR SYSTEM 12,NODE 220,NODE 219,Air Nodes
 Component Set,47,BRANCH,SYS_6_VAV WITH REHEAT MAIN BRANCH,COIL:COOLING:WATER,COIL COOLING WATER 1,NODE 219,NODE 218,Air Nodes
 Component Set,48,BRANCH,SYS_6_VAV WITH REHEAT MAIN BRANCH,COIL:HEATING:WATER,COIL HEATING WATER 2,NODE 218,NODE 217,Air Nodes
 Component Set,49,BRANCH,SYS_6_VAV WITH REHEAT MAIN BRANCH,FAN:VARIABLEVOLUME,SYS6 SUPPLY FAN,NODE 217,NODE 208,Air Nodes
 Component Set,50,BRANCH,SYS_6_VAV WITH REHEAT 1 MAIN BRANCH,FAN:VARIABLEVOLUME,SYS6 RETURN FAN 1,NODE 234,NODE 248,Air Nodes
 Component Set,51,BRANCH,SYS_6_VAV WITH REHEAT 1 MAIN BRANCH,AIRLOOPHVAC:OUTDOORAIRSYSTEM,AIR LOOP HVAC OUTDOOR AIR SYSTEM 13,NODE 248,NODE 247,Air Nodes
 Component Set,52,BRANCH,SYS_6_VAV WITH REHEAT 1 MAIN BRANCH,COIL:COOLING:WATER,COIL COOLING WATER 2,NODE 247,NODE 246,Air Nodes
 Component Set,53,BRANCH,SYS_6_VAV WITH REHEAT 1 MAIN BRANCH,COIL:HEATING:WATER,COIL HEATING WATER 5,NODE 246,NODE 245,Air Nodes
 Component Set,54,BRANCH,SYS_6_VAV WITH REHEAT 1 MAIN BRANCH,FAN:VARIABLEVOLUME,SYS6 SUPPLY FAN 1,NODE 245,NODE 235,Air Nodes
 Component Set,55,BRANCH,SYS_6_VAV WITH REHEAT 2 MAIN BRANCH,FAN:VARIABLEVOLUME,SYS6 RETURN FAN 2,NODE 283,NODE 297,Air Nodes
 Component Set,56,BRANCH,SYS_6_VAV WITH REHEAT 2 MAIN BRANCH,AIRLOOPHVAC:OUTDOORAIRSYSTEM,AIR LOOP HVAC OUTDOOR AIR SYSTEM 14,NODE 297,NODE 296,Air Nodes
 Component Set,57,BRANCH,SYS_6_VAV WITH REHEAT 2 MAIN BRANCH,COIL:COOLING:WATER,COIL COOLING WATER 3,NODE 296,NODE 295,Air Nodes
 Component Set,58,BRANCH,SYS_6_VAV WITH REHEAT 2 MAIN BRANCH,COIL:HEATING:WATER,COIL HEATING WATER 11,NODE 295,NODE 294,Air Nodes
 Component Set,59,BRANCH,SYS_6_VAV WITH REHEAT 2 MAIN BRANCH,FAN:VARIABLEVOLUME,SYS6 SUPPLY FAN 2,NODE 294,NODE 284,Air Nodes
 Component Set,60,BRANCH,SYS_6_VAV WITH REHEAT 3 MAIN BRANCH,FAN:VARIABLEVOLUME,SYS6 RETURN FAN 3,NODE 304,NODE 318,Air Nodes
 Component Set,61,BRANCH,SYS_6_VAV WITH REHEAT 3 MAIN BRANCH,AIRLOOPHVAC:OUTDOORAIRSYSTEM,AIR LOOP HVAC OUTDOOR AIR SYSTEM 15,NODE 318,NODE 317,Air Nodes
 Component Set,62,BRANCH,SYS_6_VAV WITH REHEAT 3 MAIN BRANCH,COIL:COOLING:WATER,COIL COOLING WATER 4,NODE 317,NODE 316,Air Nodes
 Component Set,63,BRANCH,SYS_6_VAV WITH REHEAT 3 MAIN BRANCH,COIL:HEATING:WATER,COIL HEATING WATER 13,NODE 316,NODE 315,Air Nodes
 Component Set,64,BRANCH,SYS_6_VAV WITH REHEAT 3 MAIN BRANCH,FAN:VARIABLEVOLUME,SYS6 SUPPLY FAN 3,NODE 315,NODE 305,Air Nodes
 Component Set,65,BRANCH,CHILLED WATER LOOP SUPPLY INLET BRANCH,PUMP:CONSTANTSPEED,PUMP CONSTANT SPEED 1,NODE 180,NODE 186,Water Nodes
 Component Set,66,BRANCH,CHILLED WATER LOOP SUPPLY BRANCH 1,CHILLER:ELECTRIC:EIR,PRIMARY CHILLER WATERCOOLED SCROLL 130TONS 0.8KW/TON,NODE 182,NODE 187,Chilled Water Nodes
 Component Set,67,BRANCH,CHILLED WATER LOOP SUPPLY BRANCH 2,CHILLER:ELECTRIC:EIR,SECONDARY CHILLER WATERCOOLED SCROLL 0TONS 0.8KW/TON,NODE 188,NODE 189,Chilled Water Nodes
 Component Set,68,BRANCH,CHILLED WATER LOOP SUPPLY BRANCH 3,PIPE:ADIABATIC,PIPE ADIABATIC 3,NODE 190,NODE 191,Pipe Nodes
 Component Set,69,BRANCH,CHILLED WATER LOOP SUPPLY OUTLET BRANCH,PIPE:ADIABATIC,PIPE ADIABATIC 4,NODE 192,NODE 181,Pipe Nodes
 Component Set,70,BRANCH,CHILLED WATER LOOP DEMAND INLET BRANCH,PIPE:ADIABATIC,CHILLED WATER LOOP DEMAND INLET PIPE,NODE 183,CHILLED WATER LOOP DEMAND INLET PIPE NODE,Pipe Nodes
 Component Set,71,BRANCH,CHILLED WATER LOOP DEMAND BRANCH 1,COIL:COOLING:WATER,COIL COOLING WATER 1,NODE 185,NODE 214,Water Nodes
 Component Set,72,BRANCH,CHILLED WATER LOOP DEMAND BRANCH 2,COIL:COOLING:WATER,COIL COOLING WATER 2,NODE 241,NODE 242,Water Nodes
 Component Set,73,BRANCH,CHILLED WATER LOOP DEMAND BRANCH 3,COIL:COOLING:WATER,COIL COOLING WATER 3,NODE 290,NODE 291,Water Nodes
 Component Set,74,BRANCH,CHILLED WATER LOOP DEMAND BRANCH 4,COIL:COOLING:WATER,COIL COOLING WATER 4,NODE 311,NODE 312,Water Nodes
 Component Set,75,BRANCH,CHILLED WATER LOOP DEMAND BYPASS BRANCH,PIPE:ADIABATIC,CHILLED WATER LOOP DEMAND BYPASS PIPE,CHILLED WATER LOOP DEMAND BYPASS PIPE INLET NODE,CHILLED WATER LOOP DEMAND BYPASS PIPE OUTLET NODE,Pipe Nodes
 Component Set,76,BRANCH,CHILLED WATER LOOP DEMAND OUTLET BRANCH,PIPE:ADIABATIC,CHILLED WATER LOOP DEMAND OUTLET PIPE,CHILLED WATER LOOP DEMAND OUTLET PIPE NODE,NODE 184,Pipe Nodes
 Component Set,77,BRANCH,CONDENSER WATER LOOP SUPPLY INLET BRANCH,PUMP:CONSTANTSPEED,PUMP CONSTANT SPEED 2,NODE 193,NODE 199,Water Nodes
 Component Set,78,BRANCH,CONDENSER WATER LOOP SUPPLY BRANCH 1,COOLINGTOWER:SINGLESPEED,COOLING TOWER SINGLE SPEED 1,NODE 195,NODE 200,Chilled Water Nodes
 Component Set,79,BRANCH,CONDENSER WATER LOOP SUPPLY BRANCH 2,PIPE:ADIABATIC,PIPE ADIABATIC 5,NODE 201,NODE 202,Pipe Nodes
 Component Set,80,BRANCH,CONDENSER WATER LOOP SUPPLY OUTLET BRANCH,PIPE:ADIABATIC,PIPE ADIABATIC 6,NODE 203,NODE 194,Pipe Nodes
 Component Set,81,BRANCH,CONDENSER WATER LOOP DEMAND INLET BRANCH,PIPE:ADIABATIC,CONDENSER WATER LOOP DEMAND INLET PIPE,NODE 196,CONDENSER WATER LOOP DEMAND INLET PIPE NODE,Pipe Nodes
 Component Set,82,BRANCH,CONDENSER WATER LOOP DEMAND BRANCH 1,CHILLER:ELECTRIC:EIR,PRIMARY CHILLER WATERCOOLED SCROLL 130TONS 0.8KW/TON,NODE 198,NODE 204,Condenser Water Nodes
 Component Set,83,BRANCH,CONDENSER WATER LOOP DEMAND BRANCH 2,CHILLER:ELECTRIC:EIR,SECONDARY CHILLER WATERCOOLED SCROLL 0TONS 0.8KW/TON,NODE 205,NODE 206,Condenser Water Nodes
 Component Set,84,BRANCH,CONDENSER WATER LOOP DEMAND BYPASS BRANCH,PIPE:ADIABATIC,CONDENSER WATER LOOP DEMAND BYPASS PIPE,CONDENSER WATER LOOP DEMAND BYPASS PIPE INLET NODE,CONDENSER WATER LOOP DEMAND BYPASS PIPE OUTLET NODE,Pipe Nodes
 Component Set,85,BRANCH,CONDENSER WATER LOOP DEMAND OUTLET BRANCH,PIPE:ADIABATIC,CONDENSER WATER LOOP DEMAND OUTLET PIPE,CONDENSER WATER LOOP DEMAND OUTLET PIPE NODE,NODE 197,Pipe Nodes
 Component Set,86,BRANCH,HOT WATER LOOP SUPPLY INLET BRANCH,PUMP:VARIABLESPEED,PUMP VARIABLE SPEED 1,NODE 21,NODE 27,Water Nodes
 Component Set,87,BRANCH,HOT WATER LOOP SUPPLY BRANCH 1,BOILER:HOTWATER,PRIMARY BOILER 3600KBTU/HR 0.833 COMBUSTION EFF,NODE 23,NODE 28,Hot Water Nodes
 Component Set,88,BRANCH,HOT WATER LOOP SUPPLY BRANCH 2,BOILER:HOTWATER,SECONDARY BOILER 0KBTU/HR 0.85 AFUE,NODE 29,NODE 30,Hot Water Nodes
 Component Set,89,BRANCH,HOT WATER LOOP SUPPLY BRANCH 3,PIPE:ADIABATIC,PIPE ADIABATIC 1,NODE 31,NODE 32,Pipe Nodes
 Component Set,90,BRANCH,HOT WATER LOOP SUPPLY OUTLET BRANCH,PIPE:ADIABATIC,PIPE ADIABATIC 2,NODE 33,NODE 22,Pipe Nodes
 Component Set,91,BRANCH,HOT WATER LOOP DEMAND INLET BRANCH,PIPE:ADIABATIC,HOT WATER LOOP DEMAND INLET PIPE,NODE 24,HOT WATER LOOP DEMAND INLET PIPE NODE,Pipe Nodes
 Component Set,92,BRANCH,HOT WATER LOOP DEMAND BRANCH 1,COIL:HEATING:WATER,COIL HEATING WATER 1,NODE 26,NODE 39,Water Nodes
 Component Set,93,BRANCH,HOT WATER LOOP DEMAND BRANCH 2,ZONEHVAC:BASEBOARD:CONVECTIVE:WATER,ZONE HVAC BASEBOARD CONVECTIVE WATER 1,NODE 47,NODE 48,Hot Water Nodes
 Component Set,94,BRANCH,HOT WATER LOOP DEMAND BRANCH 3,ZONEHVAC:BASEBOARD:CONVECTIVE:WATER,ZONE HVAC BASEBOARD CONVECTIVE WATER 2,NODE 61,NODE 62,Hot Water Nodes
 Component Set,95,BRANCH,HOT WATER LOOP DEMAND BRANCH 4,ZONEHVAC:BASEBOARD:CONVECTIVE:WATER,ZONE HVAC BASEBOARD CONVECTIVE WATER 3,NODE 74,NODE 75,Hot Water Nodes
 Component Set,96,BRANCH,HOT WATER LOOP DEMAND BRANCH 5,ZONEHVAC:BASEBOARD:CONVECTIVE:WATER,ZONE HVAC BASEBOARD CONVECTIVE WATER 4,NODE 87,NODE 88,Hot Water Nodes
 Component Set,97,BRANCH,HOT WATER LOOP DEMAND BRANCH 6,ZONEHVAC:BASEBOARD:CONVECTIVE:WATER,ZONE HVAC BASEBOARD CONVECTIVE WATER 5,NODE 100,NODE 101,Hot Water Nodes
 Component Set,98,BRANCH,HOT WATER LOOP DEMAND BRANCH 7,ZONEHVAC:BASEBOARD:CONVECTIVE:WATER,ZONE HVAC BASEBOARD CONVECTIVE WATER 6,NODE 113,NODE 114,Hot Water Nodes
 Component Set,99,BRANCH,HOT WATER LOOP DEMAND BRANCH 8,ZONEHVAC:BASEBOARD:CONVECTIVE:WATER,ZONE HVAC BASEBOARD CONVECTIVE WATER 7,NODE 126,NODE 127,Hot Water Nodes
 Component Set,100,BRANCH,HOT WATER LOOP DEMAND BRANCH 9,ZONEHVAC:BASEBOARD:CONVECTIVE:WATER,ZONE HVAC BASEBOARD CONVECTIVE WATER 8,NODE 139,NODE 140,Hot Water Nodes
 Component Set,101,BRANCH,HOT WATER LOOP DEMAND BRANCH 10,ZONEHVAC:BASEBOARD:CONVECTIVE:WATER,ZONE HVAC BASEBOARD CONVECTIVE WATER 9,NODE 152,NODE 153,Hot Water Nodes
 Component Set,102,BRANCH,HOT WATER LOOP DEMAND BRANCH 11,ZONEHVAC:BASEBOARD:CONVECTIVE:WATER,ZONE HVAC BASEBOARD CONVECTIVE WATER 10,NODE 165,NODE 166,Hot Water Nodes
 Component Set,103,BRANCH,HOT WATER LOOP DEMAND BRANCH 12,ZONEHVAC:BASEBOARD:CONVECTIVE:WATER,ZONE HVAC BASEBOARD CONVECTIVE WATER 11,NODE 178,NODE 179,Hot Water Nodes
 Component Set,104,BRANCH,HOT WATER LOOP DEMAND BRANCH 13,COIL:HEATING:WATER,COIL HEATING WATER 2,NODE 212,NODE 213,Water Nodes
 Component Set,105,BRANCH,HOT WATER LOOP DEMAND BRANCH 14,COIL:HEATING:WATER,COIL HEATING WATER 3,NODE 221,NODE 222,Water Nodes
 Component Set,106,BRANCH,HOT WATER LOOP DEMAND BRANCH 15,ZONEHVAC:BASEBOARD:CONVECTIVE:WATER,ZONE HVAC BASEBOARD CONVECTIVE WATER 12,NODE 225,NODE 226,Hot Water Nodes
 Component Set,107,BRANCH,HOT WATER LOOP DEMAND BRANCH 16,COIL:HEATING:WATER,COIL HEATING WATER 4,NODE 227,NODE 228,Water Nodes
 Component Set,108,BRANCH,HOT WATER LOOP DEMAND BRANCH 17,ZONEHVAC:BASEBOARD:CONVECTIVE:WATER,ZONE HVAC BASEBOARD CONVECTIVE WATER 13,NODE 232,NODE 233,Hot Water Nodes
 Component Set,109,BRANCH,HOT WATER LOOP DEMAND BRANCH 18,COIL:HEATING:WATER,COIL HEATING WATER 5,NODE 239,NODE 240,Water Nodes
 Component Set,110,BRANCH,HOT WATER LOOP DEMAND BRANCH 19,COIL:HEATING:WATER,COIL HEATING WATER 6,NODE 249,NODE 250,Water Nodes
 Component Set,111,BRANCH,HOT WATER LOOP DEMAND BRANCH 20,ZONEHVAC:BASEBOARD:CONVECTIVE:WATER,ZONE HVAC BASEBOARD CONVECTIVE WATER 14,NODE 253,NODE 254,Hot Water Nodes
 Component Set,112,BRANCH,HOT WATER LOOP DEMAND BRANCH 21,COIL:HEATING:WATER,COIL HEATING WATER 7,NODE 255,NODE 256,Water Nodes
[...]
 Non-Parent Node Connection,NODE 164,AIRLOOPHVAC:ZONEMIXER,AIR LOOP HVAC ZONE MIXER 10,Inlet,1
 Non-Parent Node Connection,NODE 105,AIRLOOPHVAC:ZONEMIXER,AIR LOOP HVAC ZONE MIXER 6,Outlet,1
 Non-Parent Node Connection,NODE 112,AIRLOOPHVAC:ZONEMIXER,AIR LOOP HVAC ZONE MIXER 6,Inlet,1
 Non-Parent Node Connection,NODE 118,AIRLOOPHVAC:ZONEMIXER,AIR LOOP HVAC ZONE MIXER 7,Outlet,1
 Non-Parent Node Connection,NODE 125,AIRLOOPHVAC:ZONEMIXER,AIR LOOP HVAC ZONE MIXER 7,Inlet,1
 Non-Parent Node Connection,NODE 66,AIRLOOPHVAC:ZONEMIXER,AIR LOOP HVAC ZONE MIXER 3,Outlet,1
 Non-Parent Node Connection,NODE 73,AIRLOOPHVAC:ZONEMIXER,AIR LOOP HVAC ZONE MIXER 3,Inlet,1
 Non-Parent Node Connection,NODE 92,AIRLOOPHVAC:ZONEMIXER,AIR LOOP HVAC ZONE MIXER 5,Outlet,1
 Non-Parent Node Connection,NODE 99,AIRLOOPHVAC:ZONEMIXER,AIR LOOP HVAC ZONE MIXER 5,Inlet,1
 Non-Parent Node Connection,NODE 53,AIRLOOPHVAC:ZONEMIXER,AIR LOOP HVAC ZONE MIXER 2,Outlet,1
 Non-Parent Node Connection,NODE 60,AIRLOOPHVAC:ZONEMIXER,AIR LOOP HVAC ZONE MIXER 2,Inlet,1
 Non-Parent Node Connection,NODE 79,AIRLOOPHVAC:ZONEMIXER,AIR LOOP HVAC ZONE MIXER 4,Outlet,1
 Non-Parent Node Connection,NODE 86,AIRLOOPHVAC:ZONEMIXER,AIR LOOP HVAC ZONE MIXER 4,Inlet,1
 Non-Parent Node Connection,NODE 170,AIRLOOPHVAC:ZONEMIXER,AIR LOOP HVAC ZONE MIXER 11,Outlet,1
 Non-Parent Node Connection,NODE 177,AIRLOOPHVAC:ZONEMIXER,AIR LOOP HVAC ZONE MIXER 11,Inlet,1
 Non-Parent Node Connection,NODE 210,AIRLOOPHVAC:ZONEMIXER,AIR LOOP HVAC ZONE MIXER 12,Outlet,1
 Non-Parent Node Connection,NODE 223,AIRLOOPHVAC:ZONEMIXER,AIR LOOP HVAC ZONE MIXER 12,Inlet,1
 Non-Parent Node Connection,NODE 230,AIRLOOPHVAC:ZONEMIXER,AIR LOOP HVAC ZONE MIXER 12,Inlet,1
 Non-Parent Node Connection,NODE 237,AIRLOOPHVAC:ZONEMIXER,AIR LOOP HVAC ZONE MIXER 13,Outlet,1
 Non-Parent Node Connection,NODE 251,AIRLOOPHVAC:ZONEMIXER,AIR LOOP HVAC ZONE MIXER 13,Inlet,1
 Non-Parent Node Connection,NODE 258,AIRLOOPHVAC:ZONEMIXER,AIR LOOP HVAC ZONE MIXER 13,Inlet,1
 Non-Parent Node Connection,NODE 265,AIRLOOPHVAC:ZONEMIXER,AIR LOOP HVAC ZONE MIXER 13,Inlet,1
 Non-Parent Node Connection,NODE 272,AIRLOOPHVAC:ZONEMIXER,AIR LOOP HVAC ZONE MIXER 13,Inlet,1
 Non-Parent Node Connection,NODE 279,AIRLOOPHVAC:ZONEMIXER,AIR LOOP HVAC ZONE MIXER 13,Inlet,1
 Non-Parent Node Connection,NODE 286,AIRLOOPHVAC:ZONEMIXER,AIR LOOP HVAC ZONE MIXER 14,Outlet,1
 Non-Parent Node Connection,NODE 300,AIRLOOPHVAC:ZONEMIXER,AIR LOOP HVAC ZONE MIXER 14,Inlet,1
 Non-Parent Node Connection,NODE 307,AIRLOOPHVAC:ZONEMIXER,AIR LOOP HVAC ZONE MIXER 15,Outlet,1
 Non-Parent Node Connection,NODE 321,AIRLOOPHVAC:ZONEMIXER,AIR LOOP HVAC ZONE MIXER 15,Inlet,1
 Non-Parent Node Connection,NODE 44,CONTROLLER:OUTDOORAIR,CONTROLLER OUTDOOR AIR 1,Sensor,1
 Non-Parent Node Connection,NODE 40,CONTROLLER:OUTDOORAIR,CONTROLLER OUTDOOR AIR 1,Actuator,1
 Non-Parent Node Connection,NODE 353,CONTROLLER:OUTDOORAIR,CONTROLLER OUTDOOR AIR 1,Actuator,1
 Non-Parent Node Connection,NODE 34,CONTROLLER:OUTDOORAIR,CONTROLLER OUTDOOR AIR 1,Sensor,1
 Non-Parent Node Connection,NODE 137,CONTROLLER:OUTDOORAIR,CONTROLLER OUTDOOR AIR 8,Sensor,1
 Non-Parent Node Connection,NODE 133,CONTROLLER:OUTDOORAIR,CONTROLLER OUTDOOR AIR 8,Actuator,1
 Non-Parent Node Connection,NODE 355,CONTROLLER:OUTDOORAIR,CONTROLLER OUTDOOR AIR 8,Actuator,1
 Non-Parent Node Connection,NODE 128,CONTROLLER:OUTDOORAIR,CONTROLLER OUTDOOR AIR 8,Sensor,1
 Non-Parent Node Connection,NODE 150,CONTROLLER:OUTDOORAIR,CONTROLLER OUTDOOR AIR 9,Sensor,1
 Non-Parent Node Connection,NODE 146,CONTROLLER:OUTDOORAIR,CONTROLLER OUTDOOR AIR 9,Actuator,1
 Non-Parent Node Connection,NODE 357,CONTROLLER:OUTDOORAIR,CONTROLLER OUTDOOR AIR 9,Actuator,1
 Non-Parent Node Connection,NODE 141,CONTROLLER:OUTDOORAIR,CONTROLLER OUTDOOR AIR 9,Sensor,1
 Non-Parent Node Connection,NODE 163,CONTROLLER:OUTDOORAIR,CONTROLLER OUTDOOR AIR 10,Sensor,1
 Non-Parent Node Connection,NODE 159,CONTROLLER:OUTDOORAIR,CONTROLLER OUTDOOR AIR 10,Actuator,1
 Non-Parent Node Connection,NODE 359,CONTROLLER:OUTDOORAIR,CONTROLLER OUTDOOR AIR 10,Actuator,1
 Non-Parent Node Connection,NODE 154,CONTROLLER:OUTDOORAIR,CONTROLLER OUTDOOR AIR 10,Sensor,1
 Non-Parent Node Connection,NODE 111,CONTROLLER:OUTDOORAIR,CONTROLLER OUTDOOR AIR 6,Sensor,1
 Non-Parent Node Connection,NODE 107,CONTROLLER:OUTDOORAIR,CONTROLLER OUTDOOR AIR 6,Actuator,1
 Non-Parent Node Connection,NODE 361,CONTROLLER:OUTDOORAIR,CONTROLLER OUTDOOR AIR 6,Actuator,1
 Non-Parent Node Connection,NODE 102,CONTROLLER:OUTDOORAIR,CONTROLLER OUTDOOR AIR 6,Sensor,1
 Non-Parent Node Connection,NODE 124,CONTROLLER:OUTDOORAIR,CONTROLLER OUTDOOR AIR 7,Sensor,1
 Non-Parent Node Connection,NODE 120,CONTROLLER:OUTDOORAIR,CONTROLLER OUTDOOR AIR 7,Actuator,1
 Non-Parent Node Connection,NODE 363,CONTROLLER:OUTDOORAIR,CONTROLLER OUTDOOR AIR 7,Actuator,1
 Non-Parent Node Connection,NODE 115,CONTROLLER:OUTDOORAIR,CONTROLLER OUTDOOR AIR 7,Sensor,1
 Non-Parent Node Connection,NODE 72,CONTROLLER:OUTDOORAIR,CONTROLLER OUTDOOR AIR 3,Sensor,1
 Non-Parent Node Connection,NODE 68,CONTROLLER:OUTDOORAIR,CONTROLLER OUTDOOR AIR 3,Actuator,1
 Non-Parent Node Connection,NODE 365,CONTROLLER:OUTDOORAIR,CONTROLLER OUTDOOR AIR 3,Actuator,1
 Non-Parent Node Connection,NODE 63,CONTROLLER:OUTDOORAIR,CONTROLLER OUTDOOR AIR 3,Sensor,1
 Non-Parent Node Connection,NODE 98,CONTROLLER:OUTDOORAIR,CONTROLLER OUTDOOR AIR 5,Sensor,1
 Non-Parent Node Connection,NODE 94,CONTROLLER:OUTDOORAIR,CONTROLLER OUTDOOR AIR 5,Actuator,1
 Non-Parent Node Connection,NODE 367,CONTROLLER:OUTDOORAIR,CONTROLLER OUTDOOR AIR 5,Actuator,1
 Non-Parent Node Connection,NODE 89,CONTROLLER:OUTDOORAIR,CONTROLLER OUTDOOR AIR 5,Sensor,1
 Non-Parent Node Connection,NODE 59,CONTROLLER:OUTDOORAIR,CONTROLLER OUTDOOR AIR 2,Sensor,1
 Non-Parent Node Connection,NODE 55,CONTROLLER:OUTDOORAIR,CONTROLLER OUTDOOR AIR 2,Actuator,1
 Non-Parent Node Connection,NODE 369,CONTROLLER:OUTDOORAIR,CONTROLLER OUTDOOR AIR 2,Actuator,1
 Non-Parent Node Connection,NODE 50,CONTROLLER:OUTDOORAIR,CONTROLLER OUTDOOR AIR 2,Sensor,1
 Non-Parent Node Connection,NODE 85,CONTROLLER:OUTDOORAIR,CONTROLLER OUTDOOR AIR 4,Sensor,1
 Non-Parent Node Connection,NODE 81,CONTROLLER:OUTDOORAIR,CONTROLLER OUTDOOR AIR 4,Actuator,1
 Non-Parent Node Connection,NODE 371,CONTROLLER:OUTDOORAIR,CONTROLLER OUTDOOR AIR 4,Actuator,1
 Non-Parent Node Connection,NODE 76,CONTROLLER:OUTDOORAIR,CONTROLLER OUTDOOR AIR 4,Sensor,1
 Non-Parent Node Connection,NODE 176,CONTROLLER:OUTDOORAIR,CONTROLLER OUTDOOR AIR 11,Sensor,1
 Non-Parent Node Connection,NODE 172,CONTROLLER:OUTDOORAIR,CONTROLLER OUTDOOR AIR 11,Actuator,1
 Non-Parent Node Connection,NODE 373,CONTROLLER:OUTDOORAIR,CONTROLLER OUTDOOR AIR 11,Actuator,1
 Non-Parent Node Connection,NODE 167,CONTROLLER:OUTDOORAIR,CONTROLLER OUTDOOR AIR 11,Sensor,1
 Non-Parent Node Connection,NODE 219,CONTROLLER:OUTDOORAIR,CONTROLLER OUTDOOR AIR 12,Sensor,1
 Non-Parent Node Connection,NODE 215,CONTROLLER:OUTDOORAIR,CONTROLLER OUTDOOR AIR 12,Actuator,1
 Non-Parent Node Connection,NODE 375,CONTROLLER:OUTDOORAIR,CONTROLLER OUTDOOR AIR 12,Actuator,1
 Non-Parent Node Connection,NODE 220,CONTROLLER:OUTDOORAIR,CONTROLLER OUTDOOR AIR 12,Sensor,1
 Non-Parent Node Connection,NODE 247,CONTROLLER:OUTDOORAIR,CONTROLLER OUTDOOR AIR 13,Sensor,1
 Non-Parent Node Connection,NODE 243,CONTROLLER:OUTDOORAIR,CONTROLLER OUTDOOR AIR 13,Actuator,1
 Non-Parent Node Connection,NODE 377,CONTROLLER:OUTDOORAIR,CONTROLLER OUTDOOR AIR 13,Actuator,1
 Non-Parent Node Connection,NODE 248,CONTROLLER:OUTDOORAIR,CONTROLLER OUTDOOR AIR 13,Sensor,1
 Non-Parent Node Connection,NODE 296,CONTROLLER:OUTDOORAIR,CONTROLLER OUTDOOR AIR 14,Sensor,1
 Non-Parent Node Connection,NODE 292,CONTROLLER:OUTDOORAIR,CONTROLLER OUTDOOR AIR 14,Actuator,1
 Non-Parent Node Connection,NODE 379,CONTROLLER:OUTDOORAIR,CONTROLLER OUTDOOR AIR 14,Actuator,1
 Non-Parent Node Connection,NODE 297,CONTROLLER:OUTDOORAIR,CONTROLLER OUTDOOR AIR 14,Sensor,1
 Non-Parent Node Connection,NODE 317,CONTROLLER:OUTDOORAIR,CONTROLLER OUTDOOR AIR 15,Sensor,1
 Non-Parent Node Connection,NODE 313,CONTROLLER:OUTDOORAIR,CONTROLLER OUTDOOR AIR 15,Actuator,1
 Non-Parent Node Connection,NODE 381,CONTROLLER:OUTDOORAIR,CONTROLLER OUTDOOR AIR 15,Actuator,1
 Non-Parent Node Connection,NODE 318,CONTROLLER:OUTDOORAIR,CONTROLLER OUTDOOR AIR 15,Sensor,1
 Non-Parent Node Connection,NODE 40,HEATEXCHANGER:AIRTOAIR:SENSIBLEANDLATENT,SYS_1_MAKE-UP AIR UNIT ERV,Inlet,1
 Non-Parent Node Connection,NODE 352,HEATEXCHANGER:AIRTOAIR:SENSIBLEANDLATENT,SYS_1_MAKE-UP AIR UNIT ERV,Outlet,1
 Non-Parent Node Connection,NODE 353,HEATEXCHANGER:AIRTOAIR:SENSIBLEANDLATENT,SYS_1_MAKE-UP AIR UNIT ERV,Inlet,2
 Non-Parent Node Connection,NODE 41,HEATEXCHANGER:AIRTOAIR:SENSIBLEANDLATENT,SYS_1_MAKE-UP AIR UNIT ERV,Outlet,2
 Non-Parent Node Connection,NODE 133,HEATEXCHANGER:AIRTOAIR:SENSIBLEANDLATENT,SYS_3_PSZ SP-LABORATORY - CLASSROOMS-SPACE FUNCTION SYS-3 FLR-4 SCH-D HPLCMT-SOUTH ZN ERV,Inlet,1
 Non-Parent Node Connection,NODE 354,HEATEXCHANGER:AIRTOAIR:SENSIBLEANDLATENT,SYS_3_PSZ SP-LABORATORY - CLASSROOMS-SPACE FUNCTION SYS-3 FLR-4 SCH-D HPLCMT-SOUTH ZN ERV,Outlet,1
 Non-Parent Node Connection,NODE 355,HEATEXCHANGER:AIRTOAIR:SENSIBLEANDLATENT,SYS_3_PSZ SP-LABORATORY - CLASSROOMS-SPACE FUNCTION SYS-3 FLR-4 SCH-D HPLCMT-SOUTH ZN ERV,Inlet,2
 Non-Parent Node Connection,NODE 134,HEATEXCHANGER:AIRTOAIR:SENSIBLEANDLATENT,SYS_3_PSZ SP-LABORATORY - CLASSROOMS-SPACE FUNCTION SYS-3 FLR-4 SCH-D HPLCMT-SOUTH ZN ERV,Outlet,2
 Non-Parent Node Connection,NODE 146,HEATEXCHANGER:AIRTOAIR:SENSIBLEANDLATENT,SYS_3_PSZ SP-LABORATORY - OTHER-SPACE FUNCTION SYS-3 FLR-4 SCH-A HPLCMT-EAST ZN ERV,Inlet,1
 Non-Parent Node Connection,NODE 356,HEATEXCHANGER:AIRTOAIR:SENSIBLEANDLATENT,SYS_3_PSZ SP-LABORATORY - OTHER-SPACE FUNCTION SYS-3 FLR-4 SCH-A HPLCMT-EAST ZN ERV,Outlet,1
 Non-Parent Node Connection,NODE 357,HEATEXCHANGER:AIRTOAIR:SENSIBLEANDLATENT,SYS_3_PSZ SP-LABORATORY - OTHER-SPACE FUNCTION SYS-3 FLR-4 SCH-A HPLCMT-EAST ZN ERV,Inlet,2
 Non-Parent Node Connection,NODE 147,HEATEXCHANGER:AIRTOAIR:SENSIBLEANDLATENT,SYS_3_PSZ SP-LABORATORY - OTHER-SPACE FUNCTION SYS-3 FLR-4 SCH-A HPLCMT-EAST ZN ERV,Outlet,2
 Non-Parent Node Connection,NODE 159,HEATEXCHANGER:AIRTOAIR:SENSIBLEANDLATENT,SYS_3_PSZ SP-LAUNDRY/WASHING AREA-SPACE FUNCTION SYS-3 FLR-4 SCH-C HPLCMT-NORTH ZN ERV,Inlet,1
 Non-Parent Node Connection,NODE 358,HEATEXCHANGER:AIRTOAIR:SENSIBLEANDLATENT,SYS_3_PSZ SP-LAUNDRY/WASHING AREA-SPACE FUNCTION SYS-3 FLR-4 SCH-C HPLCMT-NORTH ZN ERV,Outlet,1
 Non-Parent Node Connection,NODE 359,HEATEXCHANGER:AIRTOAIR:SENSIBLEANDLATENT,SYS_3_PSZ SP-LAUNDRY/WASHING AREA-SPACE FUNCTION SYS-3 FLR-4 SCH-C HPLCMT-NORTH ZN ERV,Inlet,2
 Non-Parent Node Connection,NODE 160,HEATEXCHANGER:AIRTOAIR:SENSIBLEANDLATENT,SYS_3_PSZ SP-LAUNDRY/WASHING AREA-SPACE FUNCTION SYS-3 FLR-4 SCH-C HPLCMT-NORTH ZN ERV,Outlet,2
 Non-Parent Node Connection,NODE 107,HEATEXCHANGER:AIRTOAIR:SENSIBLEANDLATENT,SYS_3_PSZ SP-LOBBY - ELEVATOR-SPACE FUNCTION SYS-3 FLR-3 SCH-C HPLCMT-SOUTH ZN ERV,Inlet,1
 Non-Parent Node Connection,NODE 360,HEATEXCHANGER:AIRTOAIR:SENSIBLEANDLATENT,SYS_3_PSZ SP-LOBBY - ELEVATOR-SPACE FUNCTION SYS-3 FLR-3 SCH-C HPLCMT-SOUTH ZN ERV,Outlet,1
 Non-Parent Node Connection,NODE 361,HEATEXCHANGER:AIRTOAIR:SENSIBLEANDLATENT,SYS_3_PSZ SP-LOBBY - ELEVATOR-SPACE FUNCTION SYS-3 FLR-3 SCH-C HPLCMT-SOUTH ZN ERV,Inlet,2
 Non-Parent Node Connection,NODE 108,HEATEXCHANGER:AIRTOAIR:SENSIBLEANDLATENT,SYS_3_PSZ SP-LOBBY - ELEVATOR-SPACE FUNCTION SYS-3 FLR-3 SCH-C HPLCMT-SOUTH ZN ERV,Outlet,2
 Non-Parent Node Connection,NODE 120,HEATEXCHANGER:AIRTOAIR:SENSIBLEANDLATENT,SYS_3_PSZ SP-LOBBY - HOTEL-SPACE FUNCTION SYS-3 FLR-3 SCH-H HPLCMT-EAST ZN ERV,Inlet,1
 Non-Parent Node Connection,NODE 362,HEATEXCHANGER:AIRTOAIR:SENSIBLEANDLATENT,SYS_3_PSZ SP-LOBBY - HOTEL-SPACE FUNCTION SYS-3 FLR-3 SCH-H HPLCMT-EAST ZN ERV,Outlet,1
 Non-Parent Node Connection,NODE 363,HEATEXCHANGER:AIRTOAIR:SENSIBLEANDLATENT,SYS_3_PSZ SP-LOBBY - HOTEL-SPACE FUNCTION SYS-3 FLR-3 SCH-H HPLCMT-EAST ZN ERV,Inlet,2
 Non-Parent Node Connection,NODE 121,HEATEXCHANGER:AIRTOAIR:SENSIBLEANDLATENT,SYS_3_PSZ SP-LOBBY - HOTEL-SPACE FUNCTION SYS-3 FLR-3 SCH-H HPLCMT-EAST ZN ERV,Outlet,2
 Non-Parent Node Connection,NODE 68,HEATEXCHANGER:AIRTOAIR:SENSIBLEANDLATENT,SYS_3_PSZ SP-LOBBY - MOTION PICTURE THEATRE-SPACE FUNCTION SYS-3 FLR-1 SCH-C HPLCMT-CORE ZN ERV,Inlet,1
 Non-Parent Node Connection,NODE 364,HEATEXCHANGER:AIRTOAIR:SENSIBLEANDLATENT,SYS_3_PSZ SP-LOBBY - MOTION PICTURE THEATRE-SPACE FUNCTION SYS-3 FLR-1 SCH-C HPLCMT-CORE ZN ERV,Outlet,1
 Non-Parent Node Connection,NODE 365,HEATEXCHANGER:AIRTOAIR:SENSIBLEANDLATENT,SYS_3_PSZ SP-LOBBY - MOTION PICTURE THEATRE-SPACE FUNCTION SYS-3 FLR-1 SCH-C HPLCMT-CORE ZN ERV,Inlet,2
 Non-Parent Node Connection,NODE 69,HEATEXCHANGER:AIRTOAIR:SENSIBLEANDLATENT,SYS_3_PSZ SP-LOBBY - MOTION PICTURE THEATRE-SPACE FUNCTION SYS-3 FLR-1 SCH-C HPLCMT-CORE ZN ERV,Outlet,2
 Non-Parent Node Connection,NODE 94,HEATEXCHANGER:AIRTOAIR:SENSIBLEANDLATENT,SYS_3_PSZ SP-LOBBY - OTHER-SPACE FUNCTION SYS-3 FLR-3 SCH-C HPLCMT-WEST ZN ERV,Inlet,1
 Non-Parent Node Connection,NODE 366,HEATEXCHANGER:AIRTOAIR:SENSIBLEANDLATENT,SYS_3_PSZ SP-LOBBY - OTHER-SPACE FUNCTION SYS-3 FLR-3 SCH-C HPLCMT-WEST ZN ERV,Outlet,1
 Non-Parent Node Connection,NODE 367,HEATEXCHANGER:AIRTOAIR:SENSIBLEANDLATENT,SYS_3_PSZ SP-LOBBY - OTHER-SPACE FUNCTION SYS-3 FLR-3 SCH-C HPLCMT-WEST ZN ERV,Inlet,2
 Non-Parent Node Connection,NODE 95,HEATEXCHANGER:AIRTOAIR:SENSIBLEANDLATENT,SYS_3_PSZ SP-LOBBY - OTHER-SPACE FUNCTION SYS-3 FLR-3 SCH-C HPLCMT-WEST ZN ERV,Outlet,2
 Non-Parent Node Connection,NODE 55,HEATEXCHANGER:AIRTOAIR:SENSIBLEANDLATENT,SYS_3_PSZ SP-LOBBY - PERFORMING ARTS THEATRE-SPACE FUNCTION SYS-3 FLR-1 SCH-C HPLCMT-WEST ZN ERV,Inlet,1
 Non-Parent Node Connection,NODE 368,HEATEXCHANGER:AIRTOAIR:SENSIBLEANDLATENT,SYS_3_PSZ SP-LOBBY - PERFORMING ARTS THEATRE-SPACE FUNCTION SYS-3 FLR-1 SCH-C HPLCMT-WEST ZN ERV,Outlet,1
 Non-Parent Node Connection,NODE 369,HEATEXCHANGER:AIRTOAIR:SENSIBLEANDLATENT,SYS_3_PSZ SP-LOBBY - PERFORMING ARTS THEATRE-SPACE FUNCTION SYS-3 FLR-1 SCH-C HPLCMT-WEST ZN ERV,Inlet,2
 Non-Parent Node Connection,NODE 56,HEATEXCHANGER:AIRTOAIR:SENSIBLEANDLATENT,SYS_3_PSZ SP-LOBBY - PERFORMING ARTS THEATRE-SPACE FUNCTION SYS-3 FLR-1 SCH-C HPLCMT-WEST ZN ERV,Outlet,2
 Non-Parent Node Connection,NODE 81,HEATEXCHANGER:AIRTOAIR:SENSIBLEANDLATENT,SYS_3_PSZ SP-LOBBY - SPACE DESIGNED TO ANSI/IES RP-28 (USED PRIMARILY BY RESIDENTS)-SPACE FUNCTION SYS-3 FLR-1 SCH-B HPLCMT-NORTH ZN ERV,Inlet,1
 Non-Parent Node Connection,NODE 370,HEATEXCHANGER:AIRTOAIR:SENSIBLEANDLATENT,SYS_3_PSZ SP-LOBBY - SPACE DESIGNED TO ANSI/IES RP-28 (USED PRIMARILY BY RESIDENTS)-SPACE FUNCTION SYS-3 FLR-1 SCH-B HPLCMT-NORTH ZN ERV,Outlet,1
 Non-Parent Node Connection,NODE 371,HEATEXCHANGER:AIRTOAIR:SENSIBLEANDLATENT,SYS_3_PSZ SP-LOBBY - SPACE DESIGNED TO ANSI/IES RP-28 (USED PRIMARILY BY RESIDENTS)-SPACE FUNCTION SYS-3 FLR-1 SCH-B HPLCMT-NORTH ZN ERV,Inlet,2
 Non-Parent Node Connection,NODE 82,HEATEXCHANGER:AIRTOAIR:SENSIBLEANDLATENT,SYS_3_PSZ SP-LOBBY - SPACE DESIGNED TO ANSI/IES RP-28 (USED PRIMARILY BY RESIDENTS)-SPACE FUNCTION SYS-3 FLR-1 SCH-B HPLCMT-NORTH ZN ERV,Outlet,2
 Non-Parent Node Connection,NODE 172,HEATEXCHANGER:AIRTOAIR:SENSIBLEANDLATENT,SYS_4_PSZ_SP-LOADING DOCK INTERIOR-SPACE FUNCTION SYS-4 FLR-3 SCH-H HPLCMT-CORE ZN ERV,Inlet,1
 Non-Parent Node Connection,NODE 372,HEATEXCHANGER:AIRTOAIR:SENSIBLEANDLATENT,SYS_4_PSZ_SP-LOADING DOCK INTERIOR-SPACE FUNCTION SYS-4 FLR-3 SCH-H HPLCMT-CORE ZN ERV,Outlet,1
 Non-Parent Node Connection,NODE 373,HEATEXCHANGER:AIRTOAIR:SENSIBLEANDLATENT,SYS_4_PSZ_SP-LOADING DOCK INTERIOR-SPACE FUNCTION SYS-4 FLR-3 SCH-H HPLCMT-CORE ZN ERV,Inlet,2
 Non-Parent Node Connection,NODE 173,HEATEXCHANGER:AIRTOAIR:SENSIBLEANDLATENT,SYS_4_PSZ_SP-LOADING DOCK INTERIOR-SPACE FUNCTION SYS-4 FLR-3 SCH-H HPLCMT-CORE ZN ERV,Outlet,2
 Non-Parent Node Connection,NODE 215,HEATEXCHANGER:AIRTOAIR:SENSIBLEANDLATENT,SYS_6_VAV WITH REHEAT ERV,Inlet,1
 Non-Parent Node Connection,NODE 374,HEATEXCHANGER:AIRTOAIR:SENSIBLEANDLATENT,SYS_6_VAV WITH REHEAT ERV,Outlet,1
 Non-Parent Node Connection,NODE 375,HEATEXCHANGER:AIRTOAIR:SENSIBLEANDLATENT,SYS_6_VAV WITH REHEAT ERV,Inlet,2
 Non-Parent Node Connection,NODE 216,HEATEXCHANGER:AIRTOAIR:SENSIBLEANDLATENT,SYS_6_VAV WITH REHEAT ERV,Outlet,2
 Non-Parent Node Connection,NODE 243,HEATEXCHANGER:AIRTOAIR:SENSIBLEANDLATENT,SYS_6_VAV WITH REHEAT 1 ERV,Inlet,1
 Non-Parent Node Connection,NODE 376,HEATEXCHANGER:AIRTOAIR:SENSIBLEANDLATENT,SYS_6_VAV WITH REHEAT 1 ERV,Outlet,1
 Non-Parent Node Connection,NODE 377,HEATEXCHANGER:AIRTOAIR:SENSIBLEANDLATENT,SYS_6_VAV WITH REHEAT 1 ERV,Inlet,2
 Non-Parent Node Connection,NODE 244,HEATEXCHANGER:AIRTOAIR:SENSIBLEANDLATENT,SYS_6_VAV WITH REHEAT 1 ERV,Outlet,2
 Non-Parent Node Connection,NODE 292,HEATEXCHANGER:AIRTOAIR:SENSIBLEANDLATENT,SYS_6_VAV WITH REHEAT 2 ERV,Inlet,1
 Non-Parent Node Connection,NODE 378,HEATEXCHANGER:AIRTOAIR:SENSIBLEANDLATENT,SYS_6_VAV WITH REHEAT 2 ERV,Outlet,1
 Non-Parent Node Connection,NODE 379,HEATEXCHANGER:AIRTOAIR:SENSIBLEANDLATENT,SYS_6_VAV WITH REHEAT 2 ERV,Inlet,2
 Non-Parent Node Connection,NODE 293,HEATEXCHANGER:AIRTOAIR:SENSIBLEANDLATENT,SYS_6_VAV WITH REHEAT 2 ERV,Outlet,2
 Non-Parent Node Connection,NODE 313,HEATEXCHANGER:AIRTOAIR:SENSIBLEANDLATENT,SYS_6_VAV WITH REHEAT 3 ERV,Inlet,1
 Non-Parent Node Connection,NODE 380,HEATEXCHANGER:AIRTOAIR:SENSIBLEANDLATENT,SYS_6_VAV WITH REHEAT 3 ERV,Outlet,1
 Non-Parent Node Connection,NODE 381,HEATEXCHANGER:AIRTOAIR:SENSIBLEANDLATENT,SYS_6_VAV WITH REHEAT 3 ERV,Inlet,2
 Non-Parent Node Connection,NODE 314,HEATEXCHANGER:AIRTOAIR:SENSIBLEANDLATENT,SYS_6_VAV WITH REHEAT 3 ERV,Outlet,2
 Non-Parent Node Connection,NODE 182,CHILLER:ELECTRIC:EIR,PRIMARY CHILLER WATERCOOLED SCROLL 130TONS 0.8KW/TON,Inlet,1
 Non-Parent Node Connection,NODE 187,CHILLER:ELECTRIC:EIR,PRIMARY CHILLER WATERCOOLED SCROLL 130TONS 0.8KW/TON,Outlet,1
 Non-Parent Node Connection,NODE 198,CHILLER:ELECTRIC:EIR,PRIMARY CHILLER WATERCOOLED SCROLL 130TONS 0.8KW/TON,Inlet,2
 Non-Parent Node Connection,NODE 204,CHILLER:ELECTRIC:EIR,PRIMARY CHILLER WATERCOOLED SCROLL 130TONS 0.8KW/TON,Outlet,2
 Non-Parent Node Connection,NODE 188,CHILLER:ELECTRIC:EIR,SECONDARY CHILLER WATERCOOLED SCROLL 0TONS 0.8KW/TON,Inlet,1
 Non-Parent Node Connection,NODE 189,CHILLER:ELECTRIC:EIR,SECONDARY CHILLER WATERCOOLED SCROLL 0TONS 0.8KW/TON,Outlet,1
 Non-Parent Node Connection,NODE 205,CHILLER:ELECTRIC:EIR,SECONDARY CHILLER WATERCOOLED SCROLL 0TONS 0.8KW/TON,Inlet,2
 Non-Parent Node Connection,NODE 206,CHILLER:ELECTRIC:EIR,SECONDARY CHILLER WATERCOOLED SCROLL 0TONS 0.8KW/TON,Outlet,2
 Non-Parent Node Connection,NODE 195,COOLINGTOWER:SINGLESPEED,COOLING TOWER SINGLE SPEED 1,Inlet,1
 Non-Parent Node Connection,NODE 200,COOLINGTOWER:SINGLESPEED,COOLING TOWER SINGLE SPEED 1,Outlet,1
 Non-Parent Node Connection,NODE 23,BOILER:HOTWATER,PRIMARY BOILER 3600KBTU/HR 0.833 COMBUSTION EFF,Inlet,1
 Non-Parent Node Connection,NODE 28,BOILER:HOTWATER,PRIMARY BOILER 3600KBTU/HR 0.833 COMBUSTION EFF,Outlet,1
 Non-Parent Node Connection,NODE 29,BOILER:HOTWATER,SECONDARY BOILER 0KBTU/HR 0.85 AFUE,Inlet,1
 Non-Parent Node Connection,NODE 30,BOILER:HOTWATER,SECONDARY BOILER 0KBTU/HR 0.85 AFUE,Outlet,1
 Non-Parent Node Connection,NODE 21,PUMP:VARIABLESPEED,PUMP VARIABLE SPEED 1,Inlet,1
 Non-Parent Node Connection,NODE 27,PUMP:VARIABLESPEED,PUMP VARIABLE SPEED 1,Outlet,1
 Non-Parent Node Connection,NODE 180,PUMP:CONSTANTSPEED,PUMP CONSTANT SPEED 1,Inlet,1
 Non-Parent Node Connection,NODE 186,PUMP:CONSTANTSPEED,PUMP CONSTANT SPEED 1,Outlet,1
 Non-Parent Node Connection,NODE 193,PUMP:CONSTANTSPEED,PUMP CONSTANT SPEED 2,Inlet,1
 Non-Parent Node Connection,NODE 199,PUMP:CONSTANTSPEED,PUMP CONSTANT SPEED 2,Outlet,1
 Non-Parent Node Connection,NODE 325,PUMP:CONSTANTSPEED,SERVICE WATER LOOP PUMP,Inlet,1
 Non-Parent Node Connection,NODE 331,PUMP:CONSTANTSPEED,SERVICE WATER LOOP PUMP,Outlet,1
