! Program Version,EnergyPlus, Version 8.9.0-eba93e8e1b, YMD=2019.03.28 13:46,
! Output:Meter Objects (applicable to this run)
Output:Meter,Electricity:Facility,hourly; !- [J]
Output:Meter:Cumulative,Electricity:Facility,hourly; !- [J]
Output:Meter,Electricity:Building,hourly; !- [J]
Output:Meter:Cumulative,Electricity:Building,hourly; !- [J]
Output:Meter,Electricity:Zone:SP-AUDIENCE SEATING AREA PERMANENT - OTHER-SCH-H-SPACE FUNCTION SYS-3 FLR-4 SCH-H HPLCMT-CORE ZN,hourly; !- [J]
Output:Meter:Cumulative,Electricity:Zone:SP-AUDIENCE SEATING AREA PERMANENT - OTHER-SCH-H-SPACE FUNCTION SYS-3 FLR-4 SCH-H HPLCMT-CORE ZN,hourly; !- [J]
Output:Meter,InteriorLights:Electricity,hourly; !- [J]
Output:Meter:Cumulative,InteriorLights:Electricity,hourly; !- [J]
Output:Meter,InteriorLights:Electricity:Zone:SP-AUDIENCE SEATING AREA PERMANENT - OTHER-SCH-H-SPACE FUNCTION SYS-3 FLR-4 SCH-H HPLCMT-CORE ZN,hourly; !- [J]
Output:Meter:Cumulative,InteriorLights:Electricity:Zone:SP-AUDIENCE SEATING AREA PERMANENT - OTHER-SCH-H-SPACE FUNCTION SYS-3 FLR-4 SCH-H HPLCMT-CORE ZN,hourly; !- [J]
Output:Meter,General:InteriorLights:Electricity,hourly; !- [J]
Output:Meter:Cumulative,General:InteriorLights:Electricity,hourly; !- [J]
Output:Meter,Electricity:Zone:SP-AUDIENCE SEATING AREA PERMANENT - OTHER-SCH-I-SPACE FUNCTION SYS-3 FLR-4 SCH-I HPLCMT-NORTH ZN,hourly; !- [J]
Output:Meter:Cumulative,Electricity:Zone:SP-AUDIENCE SEATING AREA PERMANENT - OTHER-SCH-I-SPACE FUNCTION SYS-3 FLR-4 SCH-I HPLCMT-NORTH ZN,hourly; !- [J]
Output:Meter,InteriorLights:Electricity:Zone:SP-AUDIENCE SEATING AREA PERMANENT - OTHER-SCH-I-SPACE FUNCTION SYS-3 FLR-4 SCH-I HPLCMT-NORTH ZN,hourly; !- [J]
Output:Meter:Cumulative,InteriorLights:Electricity:Zone:SP-AUDIENCE SEATING AREA PERMANENT - OTHER-SCH-I-SPACE FUNCTION SYS-3 FLR-4 SCH-I HPLCMT-NORTH ZN,hourly; !- [J]
Output:Meter,Electricity:Zone:SP-AUDIENCE SEATING AREA PERMANENT - OTHER-SCH-J-SPACE FUNCTION SYS-3 FLR-4 SCH-J HPLCMT-WEST ZN,hourly; !- [J]
Output:Meter:Cumulative,Electricity:Zone:SP-AUDIENCE SEATING AREA PERMANENT - OTHER-SCH-J-SPACE FUNCTION SYS-3 FLR-4 SCH-J HPLCMT-WEST ZN,hourly; !- [J]
Output:Meter,InteriorLights:Electricity:Zone:SP-AUDIENCE SEATING AREA PERMANENT - OTHER-SCH-J-SPACE FUNCTION SYS-3 FLR-4 SCH-J HPLCMT-WEST ZN,hourly; !- [J]
Output:Meter:Cumulative,InteriorLights:Electricity:Zone:SP-AUDIENCE SEATING AREA PERMANENT - OTHER-SCH-J-SPACE FUNCTION SYS-3 FLR-4 SCH-J HPLCMT-WEST ZN,hourly; !- [J]
Output:Meter,Electricity:Zone:SP-AUDIENCE SEATING AREA PERMANENT - OTHER-SCH-K-SPACE FUNCTION SYS-3 FLR-3 SCH-K HPLCMT-CORE ZN,hourly; !- [J]
Output:Meter:Cumulative,Electricity:Zone:SP-AUDIENCE SEATING AREA PERMANENT - OTHER-SCH-K-SPACE FUNCTION SYS-3 FLR-3 SCH-K HPLCMT-CORE ZN,hourly; !- [J]
Output:Meter,InteriorLights:Electricity:Zone:SP-AUDIENCE SEATING AREA PERMANENT - OTHER-SCH-K-SPACE FUNCTION SYS-3 FLR-3 SCH-K HPLCMT-CORE ZN,hourly; !- [J]
Output:Meter:Cumulative,InteriorLights:Electricity:Zone:SP-AUDIENCE SEATING AREA PERMANENT - OTHER-SCH-K-SPACE FUNCTION SYS-3 FLR-3 SCH-K HPLCMT-CORE ZN,hourly; !- [J]
Output:Meter,Electricity:Zone:SP-BANKING ACTIVITY AREA AND OFFICES-SPACE FUNCTION SYS-6 FLR-3 SCH-A HPLCMT-EAST ZN,hourly; !- [J]
Output:Meter:Cumulative,Electricity:Zone:SP-BANKING ACTIVITY AREA AND OFFICES-SPACE FUNCTION SYS-6 FLR-3 SCH-A HPLCMT-EAST ZN,hourly; !- [J]
Output:Meter,InteriorLights:Electricity:Zone:SP-BANKING ACTIVITY AREA AND OFFICES-SPACE FUNCTION SYS-6 FLR-3 SCH-A HPLCMT-EAST ZN,hourly; !- [J]
Output:Meter:Cumulative,InteriorLights:Electricity:Zone:SP-BANKING ACTIVITY AREA AND OFFICES-SPACE FUNCTION SYS-6 FLR-3 SCH-A HPLCMT-EAST ZN,hourly; !- [J]
Output:Meter,Electricity:Zone:SP-CLASSROOM/LECTURE HALL/TRAINING ROOM - PENITENTARY-SPACE FUNCTION SYS-3 FLR-4 SCH-D HPLCMT-EAST ZN,hourly; !- [J]
Output:Meter:Cumulative,Electricity:Zone:SP-CLASSROOM/LECTURE HALL/TRAINING ROOM - PENITENTARY-SPACE FUNCTION SYS-3 FLR-4 SCH-D HPLCMT-EAST ZN,hourly; !- [J]
Output:Meter,InteriorLights:Electricity:Zone:SP-CLASSROOM/LECTURE HALL/TRAINING ROOM - PENITENTARY-SPACE FUNCTION SYS-3 FLR-4 SCH-D HPLCMT-EAST ZN,hourly; !- [J]
Output:Meter:Cumulative,InteriorLights:Electricity:Zone:SP-CLASSROOM/LECTURE HALL/TRAINING ROOM - PENITENTARY-SPACE FUNCTION SYS-3 FLR-4 SCH-D HPLCMT-EAST ZN,hourly; !- [J]
Output:Meter,Electricity:Zone:SP-CLASSROOM/LECTURE HALL/TRAINING ROOM OTHER-SPACE FUNCTION SYS-3 FLR-3 SCH-D HPLCMT-WEST ZN,hourly; !- [J]
Output:Meter:Cumulative,Electricity:Zone:SP-CLASSROOM/LECTURE HALL/TRAINING ROOM OTHER-SPACE FUNCTION SYS-3 FLR-3 SCH-D HPLCMT-WEST ZN,hourly; !- [J]
Output:Meter,InteriorLights:Electricity:Zone:SP-CLASSROOM/LECTURE HALL/TRAINING ROOM OTHER-SPACE FUNCTION SYS-3 FLR-3 SCH-D HPLCMT-WEST ZN,hourly; !- [J]
Output:Meter:Cumulative,InteriorLights:Electricity:Zone:SP-CLASSROOM/LECTURE HALL/TRAINING ROOM OTHER-SPACE FUNCTION SYS-3 FLR-3 SCH-D HPLCMT-WEST ZN,hourly; !- [J]
Output:Meter,Electricity:Zone:SP-CONFERENCE/MEETING/MULTI-PURPOSE ROOM-SPACE FUNCTION SYS-3 FLR-3 SCH-C HPLCMT-NORTH ZN,hourly; !- [J]
Output:Meter:Cumulative,Electricity:Zone:SP-CONFERENCE/MEETING/MULTI-PURPOSE ROOM-SPACE FUNCTION SYS-3 FLR-3 SCH-C HPLCMT-NORTH ZN,hourly; !- [J]
Output:Meter,InteriorLights:Electricity:Zone:SP-CONFERENCE/MEETING/MULTI-PURPOSE ROOM-SPACE FUNCTION SYS-3 FLR-3 SCH-C HPLCMT-NORTH ZN,hourly; !- [J]
Output:Meter:Cumulative,InteriorLights:Electricity:Zone:SP-CONFERENCE/MEETING/MULTI-PURPOSE ROOM-SPACE FUNCTION SYS-3 FLR-3 SCH-C HPLCMT-NORTH ZN,hourly; !- [J]
Output:Meter,Electricity:Zone:SP-CONFINEMENT CELL-SPACE FUNCTION SYS-3 FLR-1 SCH-G HPLCMT-NORTH ZN,hourly; !- [J]
Output:Meter:Cumulative,Electricity:Zone:SP-CONFINEMENT CELL-SPACE FUNCTION SYS-3 FLR-1 SCH-G HPLCMT-NORTH ZN,hourly; !- [J]
Output:Meter,InteriorLights:Electricity:Zone:SP-CONFINEMENT CELL-SPACE FUNCTION SYS-3 FLR-1 SCH-G HPLCMT-NORTH ZN,hourly; !- [J]
Output:Meter:Cumulative,InteriorLights:Electricity:Zone:SP-CONFINEMENT CELL-SPACE FUNCTION SYS-3 FLR-1 SCH-G HPLCMT-NORTH ZN,hourly; !- [J]
Output:Meter,Electricity:Zone:SP-COPY/PRINT ROOM-SPACE FUNCTION SYS-3 FLR-1 SCH-A HPLCMT-EAST ZN,hourly; !- [J]
Output:Meter:Cumulative,Electricity:Zone:SP-COPY/PRINT ROOM-SPACE FUNCTION SYS-3 FLR-1 SCH-A HPLCMT-EAST ZN,hourly; !- [J]
Output:Meter,InteriorLights:Electricity:Zone:SP-COPY/PRINT ROOM-SPACE FUNCTION SYS-3 FLR-1 SCH-A HPLCMT-EAST ZN,hourly; !- [J]
Output:Meter:Cumulative,InteriorLights:Electricity:Zone:SP-COPY/PRINT ROOM-SPACE FUNCTION SYS-3 FLR-1 SCH-A HPLCMT-EAST ZN,hourly; !- [J]
Output:Meter,Electricity:Zone:SP-COURTROOM-SPACE FUNCTION SYS-3 FLR-2 SCH-A HPLCMT-WEST ZN,hourly; !- [J]
Output:Meter:Cumulative,Electricity:Zone:SP-COURTROOM-SPACE FUNCTION SYS-3 FLR-2 SCH-A HPLCMT-WEST ZN,hourly; !- [J]
Output:Meter,InteriorLights:Electricity:Zone:SP-COURTROOM-SPACE FUNCTION SYS-3 FLR-2 SCH-A HPLCMT-WEST ZN,hourly; !- [J]
Output:Meter:Cumulative,InteriorLights:Electricity:Zone:SP-COURTROOM-SPACE FUNCTION SYS-3 FLR-2 SCH-A HPLCMT-WEST ZN,hourly; !- [J]
Output:Meter,Electricity:Zone:SP-DINING AREA - BAR LOUNGE/LEISURE DINING-SPACE FUNCTION SYS-3 FLR-1 SCH-B HPLCMT-CORE ZN,hourly; !- [J]
Output:Meter:Cumulative,Electricity:Zone:SP-DINING AREA - BAR LOUNGE/LEISURE DINING-SPACE FUNCTION SYS-3 FLR-1 SCH-B HPLCMT-CORE ZN,hourly; !- [J]
Output:Meter,InteriorLights:Electricity:Zone:SP-DINING AREA - BAR LOUNGE/LEISURE DINING-SPACE FUNCTION SYS-3 FLR-1 SCH-B HPLCMT-CORE ZN,hourly; !- [J]
Output:Meter:Cumulative,InteriorLights:Electricity:Zone:SP-DINING AREA - BAR LOUNGE/LEISURE DINING-SPACE FUNCTION SYS-3 FLR-1 SCH-B HPLCMT-CORE ZN,hourly; !- [J]
Output:Meter,Electricity:Zone:SP-DINING AREA - CAFETERIA/FAST FOOD DINING-SPACE FUNCTION SYS-3 FLR-4 SCH-B HPLCMT-SOUTH ZN,hourly; !- [J]
Output:Meter:Cumulative,Electricity:Zone:SP-DINING AREA - CAFETERIA/FAST FOOD DINING-SPACE FUNCTION SYS-3 FLR-4 SCH-B HPLCMT-SOUTH ZN,hourly; !- [J]
Output:Meter,InteriorLights:Electricity:Zone:SP-DINING AREA - CAFETERIA/FAST FOOD DINING-SPACE FUNCTION SYS-3 FLR-4 SCH-B HPLCMT-SOUTH ZN,hourly; !- [J]
Output:Meter:Cumulative,InteriorLights:Electricity:Zone:SP-DINING AREA - CAFETERIA/FAST FOOD DINING-SPACE FUNCTION SYS-3 FLR-4 SCH-B HPLCMT-SOUTH ZN,hourly; !- [J]
Output:Meter,Electricity:Zone:SP-DINING AREA - FAMILY DINING-SPACE FUNCTION SYS-3 FLR-1 SCH-B HPLCMT-WEST ZN,hourly; !- [J]
Output:Meter:Cumulative,Electricity:Zone:SP-DINING AREA - FAMILY DINING-SPACE FUNCTION SYS-3 FLR-1 SCH-B HPLCMT-WEST ZN,hourly; !- [J]
Output:Meter,InteriorLights:Electricity:Zone:SP-DINING AREA - FAMILY DINING-SPACE FUNCTION SYS-3 FLR-1 SCH-B HPLCMT-WEST ZN,hourly; !- [J]
Output:Meter:Cumulative,InteriorLights:Electricity:Zone:SP-DINING AREA - FAMILY DINING-SPACE FUNCTION SYS-3 FLR-1 SCH-B HPLCMT-WEST ZN,hourly; !- [J]
Output:Meter,Electricity:Zone:SP-DINING AREA - OTHER-SPACE FUNCTION SYS-3 FLR-1 SCH-B HPLCMT-SOUTH ZN,hourly; !- [J]
Output:Meter:Cumulative,Electricity:Zone:SP-DINING AREA - OTHER-SPACE FUNCTION SYS-3 FLR-1 SCH-B HPLCMT-SOUTH ZN,hourly; !- [J]
Output:Meter,InteriorLights:Electricity:Zone:SP-DINING AREA - OTHER-SPACE FUNCTION SYS-3 FLR-1 SCH-B HPLCMT-SOUTH ZN,hourly; !- [J]
Output:Meter:Cumulative,InteriorLights:Electricity:Zone:SP-DINING AREA - OTHER-SPACE FUNCTION SYS-3 FLR-1 SCH-B HPLCMT-SOUTH ZN,hourly; !- [J]
Output:Meter,Electricity:Zone:SP-DINING AREA - PENITENTIARY-SPACE FUNCTION SYS-3 FLR-2 SCH-B HPLCMT-NORTH ZN,hourly; !- [J]
Output:Meter:Cumulative,Electricity:Zone:SP-DINING AREA - PENITENTIARY-SPACE FUNCTION SYS-3 FLR-2 SCH-B HPLCMT-NORTH ZN,hourly; !- [J]
Output:Meter,InteriorLights:Electricity:Zone:SP-DINING AREA - PENITENTIARY-SPACE FUNCTION SYS-3 FLR-2 SCH-B HPLCMT-NORTH ZN,hourly; !- [J]
Output:Meter:Cumulative,InteriorLights:Electricity:Zone:SP-DINING AREA - PENITENTIARY-SPACE FUNCTION SYS-3 FLR-2 SCH-B HPLCMT-NORTH ZN,hourly; !- [J]
Output:Meter,Electricity:Zone:SP-DINING AREA - SPACE DESIGNED TO ANSI/IES RP-28 (USED PRIMARILY BY RESIDENTS)-SPACE FUNCTION SYS-3 FLR-2 SCH-B HPLCMT-SOUTH ZN,hourly; !- [J]
Output:Meter:Cumulative,Electricity:Zone:SP-DINING AREA - SPACE DESIGNED TO ANSI/IES RP-28 (USED PRIMARILY BY RESIDENTS)-SPACE FUNCTION SYS-3 FLR-2 SCH-B HPLCMT-SOUTH ZN,hourly; !- [J]
Output:Meter,InteriorLights:Electricity:Zone:SP-DINING AREA - SPACE DESIGNED TO ANSI/IES RP-28 (USED PRIMARILY BY RESIDENTS)-SPACE FUNCTION SYS-3 FLR-2 SCH-B HPLCMT-SOUTH ZN,hourly; !- [J]
Output:Meter:Cumulative,InteriorLights:Electricity:Zone:SP-DINING AREA - SPACE DESIGNED TO ANSI/IES RP-28 (USED PRIMARILY BY RESIDENTS)-SPACE FUNCTION SYS-3 FLR-2 SCH-B HPLCMT-SOUTH ZN,hourly; !- [J]
Output:Meter,Electricity:Zone:SP-DRESSING/FITTING ROOM - PERFORMING ARTS THEATRE-SPACE FUNCTION SYS-3 FLR-2 SCH-C HPLCMT-EAST ZN,hourly; !- [J]
Output:Meter:Cumulative,Electricity:Zone:SP-DRESSING/FITTING ROOM - PERFORMING ARTS THEATRE-SPACE FUNCTION SYS-3 FLR-2 SCH-C HPLCMT-EAST ZN,hourly; !- [J]
Output:Meter,InteriorLights:Electricity:Zone:SP-DRESSING/FITTING ROOM - PERFORMING ARTS THEATRE-SPACE FUNCTION SYS-3 FLR-2 SCH-C HPLCMT-EAST ZN,hourly; !- [J]
Output:Meter:Cumulative,InteriorLights:Electricity:Zone:SP-DRESSING/FITTING ROOM - PERFORMING ARTS THEATRE-SPACE FUNCTION SYS-3 FLR-2 SCH-C HPLCMT-EAST ZN,hourly; !- [J]
Output:Meter,Electricity:Zone:SP-EMERGENCY VEHICLE GARAGE-SPACE FUNCTION SYS-4 FLR-3 SCH-H HPLCMT-SOUTH ZN,hourly; !- [J]
Output:Meter:Cumulative,Electricity:Zone:SP-EMERGENCY VEHICLE GARAGE-SPACE FUNCTION SYS-4 FLR-3 SCH-H HPLCMT-SOUTH ZN,hourly; !- [J]
Output:Meter,InteriorLights:Electricity:Zone:SP-EMERGENCY VEHICLE GARAGE-SPACE FUNCTION SYS-4 FLR-3 SCH-H HPLCMT-SOUTH ZN,hourly; !- [J]
Output:Meter:Cumulative,InteriorLights:Electricity:Zone:SP-EMERGENCY VEHICLE GARAGE-SPACE FUNCTION SYS-4 FLR-3 SCH-H HPLCMT-SOUTH ZN,hourly; !- [J]
Output:Meter,Electricity:Zone:SP-FOOD PREPARATION AREA-SPACE FUNCTION SYS-3 FLR-2 SCH-B HPLCMT-CORE ZN,hourly; !- [J]
Output:Meter:Cumulative,Electricity:Zone:SP-FOOD PREPARATION AREA-SPACE FUNCTION SYS-3 FLR-2 SCH-B HPLCMT-CORE ZN,hourly; !- [J]
Output:Meter,InteriorLights:Electricity:Zone:SP-FOOD PREPARATION AREA-SPACE FUNCTION SYS-3 FLR-2 SCH-B HPLCMT-CORE ZN,hourly; !- [J]
Output:Meter:Cumulative,InteriorLights:Electricity:Zone:SP-FOOD PREPARATION AREA-SPACE FUNCTION SYS-3 FLR-2 SCH-B HPLCMT-CORE ZN,hourly; !- [J]
Output:Meter,InteriorEquipment:Electricity,hourly; !- [J]
Output:Meter:Cumulative,InteriorEquipment:Electricity,hourly; !- [J]
Output:Meter,InteriorEquipment:Electricity:Zone:SP-AUDIENCE SEATING AREA PERMANENT - OTHER-SCH-H-SPACE FUNCTION SYS-3 FLR-4 SCH-H HPLCMT-CORE ZN,hourly; !- [J]
Output:Meter:Cumulative,InteriorEquipment:Electricity:Zone:SP-AUDIENCE SEATING AREA PERMANENT - OTHER-SCH-H-SPACE FUNCTION SYS-3 FLR-4 SCH-H HPLCMT-CORE ZN,hourly; !- [J]
Output:Meter,General:InteriorEquipment:Electricity,hourly; !- [J]
Output:Meter:Cumulative,General:InteriorEquipment:Electricity,hourly; !- [J]
Output:Meter,InteriorEquipment:Electricity:Zone:SP-AUDIENCE SEATING AREA PERMANENT - OTHER-SCH-I-SPACE FUNCTION SYS-3 FLR-4 SCH-I HPLCMT-NORTH ZN,hourly; !- [J]
Output:Meter:Cumulative,InteriorEquipment:Electricity:Zone:SP-AUDIENCE SEATING AREA PERMANENT - OTHER-SCH-I-SPACE FUNCTION SYS-3 FLR-4 SCH-I HPLCMT-NORTH ZN,hourly; !- [J]
Output:Meter,InteriorEquipment:Electricity:Zone:SP-AUDIENCE SEATING AREA PERMANENT - OTHER-SCH-J-SPACE FUNCTION SYS-3 FLR-4 SCH-J HPLCMT-WEST ZN,hourly; !- [J]
Output:Meter:Cumulative,InteriorEquipment:Electricity:Zone:SP-AUDIENCE SEATING AREA PERMANENT - OTHER-SCH-J-SPACE FUNCTION SYS-3 FLR-4 SCH-J HPLCMT-WEST ZN,hourly; !- [J]
Output:Meter,InteriorEquipment:Electricity:Zone:SP-AUDIENCE SEATING AREA PERMANENT - OTHER-SCH-K-SPACE FUNCTION SYS-3 FLR-3 SCH-K HPLCMT-CORE ZN,hourly; !- [J]
Output:Meter:Cumulative,InteriorEquipment:Electricity:Zone:SP-AUDIENCE SEATING AREA PERMANENT - OTHER-SCH-K-SPACE FUNCTION SYS-3 FLR-3 SCH-K HPLCMT-CORE ZN,hourly; !- [J]
Output:Meter,InteriorEquipment:Electricity:Zone:SP-BANKING ACTIVITY AREA AND OFFICES-SPACE FUNCTION SYS-6 FLR-3 SCH-A HPLCMT-EAST ZN,hourly; !- [J]
Output:Meter:Cumulative,InteriorEquipment:Electricity:Zone:SP-BANKING ACTIVITY AREA AND OFFICES-SPACE FUNCTION SYS-6 FLR-3 SCH-A HPLCMT-EAST ZN,hourly; !- [J]
Output:Meter,InteriorEquipment:Electricity:Zone:SP-CLASSROOM/LECTURE HALL/TRAINING ROOM - PENITENTARY-SPACE FUNCTION SYS-3 FLR-4 SCH-D HPLCMT-EAST ZN,hourly; !- [J]
Output:Meter:Cumulative,InteriorEquipment:Electricity:Zone:SP-CLASSROOM/LECTURE HALL/TRAINING ROOM - PENITENTARY-SPACE FUNCTION SYS-3 FLR-4 SCH-D HPLCMT-EAST ZN,hourly; !- [J]
Output:Meter,InteriorEquipment:Electricity:Zone:SP-CLASSROOM/LECTURE HALL/TRAINING ROOM OTHER-SPACE FUNCTION SYS-3 FLR-3 SCH-D HPLCMT-WEST ZN,hourly; !- [J]
Output:Meter:Cumulative,InteriorEquipment:Electricity:Zone:SP-CLASSROOM/LECTURE HALL/TRAINING ROOM OTHER-SPACE FUNCTION SYS-3 FLR-3 SCH-D HPLCMT-WEST ZN,hourly; !- [J]
Output:Meter,InteriorEquipment:Electricity:Zone:SP-CONFERENCE/MEETING/MULTI-PURPOSE ROOM-SPACE FUNCTION SYS-3 FLR-3 SCH-C HPLCMT-NORTH ZN,hourly; !- [J]
Output:Meter:Cumulative,InteriorEquipment:Electricity:Zone:SP-CONFERENCE/MEETING/MULTI-PURPOSE ROOM-SPACE FUNCTION SYS-3 FLR-3 SCH-C HPLCMT-NORTH ZN,hourly; !- [J]
Output:Meter,InteriorEquipment:Electricity:Zone:SP-COPY/PRINT ROOM-SPACE FUNCTION SYS-3 FLR-1 SCH-A HPLCMT-EAST ZN,hourly; !- [J]
Output:Meter:Cumulative,InteriorEquipment:Electricity:Zone:SP-COPY/PRINT ROOM-SPACE FUNCTION SYS-3 FLR-1 SCH-A HPLCMT-EAST ZN,hourly; !- [J]
Output:Meter,InteriorEquipment:Electricity:Zone:SP-COURTROOM-SPACE FUNCTION SYS-3 FLR-2 SCH-A HPLCMT-WEST ZN,hourly; !- [J]
Output:Meter:Cumulative,InteriorEquipment:Electricity:Zone:SP-COURTROOM-SPACE FUNCTION SYS-3 FLR-2 SCH-A HPLCMT-WEST ZN,hourly; !- [J]
Output:Meter,InteriorEquipment:Electricity:Zone:SP-DINING AREA - BAR LOUNGE/LEISURE DINING-SPACE FUNCTION SYS-3 FLR-1 SCH-B HPLCMT-CORE ZN,hourly; !- [J]
Output:Meter:Cumulative,InteriorEquipment:Electricity:Zone:SP-DINING AREA - BAR LOUNGE/LEISURE DINING-SPACE FUNCTION SYS-3 FLR-1 SCH-B HPLCMT-CORE ZN,hourly; !- [J]
Output:Meter,InteriorEquipment:Electricity:Zone:SP-DINING AREA - CAFETERIA/FAST FOOD DINING-SPACE FUNCTION SYS-3 FLR-4 SCH-B HPLCMT-SOUTH ZN,hourly; !- [J]
Output:Meter:Cumulative,InteriorEquipment:Electricity:Zone:SP-DINING AREA - CAFETERIA/FAST FOOD DINING-SPACE FUNCTION SYS-3 FLR-4 SCH-B HPLCMT-SOUTH ZN,hourly; !- [J]
Output:Meter,InteriorEquipment:Electricity:Zone:SP-DINING AREA - FAMILY DINING-SPACE FUNCTION SYS-3 FLR-1 SCH-B HPLCMT-WEST ZN,hourly; !- [J]
Output:Meter:Cumulative,InteriorEquipment:Electricity:Zone:SP-DINING AREA - FAMILY DINING-SPACE FUNCTION SYS-3 FLR-1 SCH-B HPLCMT-WEST ZN,hourly; !- [J]
Output:Meter,InteriorEquipment:Electricity:Zone:SP-DINING AREA - OTHER-SPACE FUNCTION SYS-3 FLR-1 SCH-B HPLCMT-SOUTH ZN,hourly; !- [J]
Output:Meter:Cumulative,InteriorEquipment:Electricity:Zone:SP-DINING AREA - OTHER-SPACE FUNCTION SYS-3 FLR-1 SCH-B HPLCMT-SOUTH ZN,hourly; !- [J]
Output:Meter,InteriorEquipment:Electricity:Zone:SP-DINING AREA - PENITENTIARY-SPACE FUNCTION SYS-3 FLR-2 SCH-B HPLCMT-NORTH ZN,hourly; !- [J]
Output:Meter:Cumulative,InteriorEquipment:Electricity:Zone:SP-DINING AREA - PENITENTIARY-SPACE FUNCTION SYS-3 FLR-2 SCH-B HPLCMT-NORTH ZN,hourly; !- [J]
Output:Meter,InteriorEquipment:Electricity:Zone:SP-DINING AREA - SPACE DESIGNED TO ANSI/IES RP-28 (USED PRIMARILY BY RESIDENTS)-SPACE FUNCTION SYS-3 FLR-2 SCH-B HPLCMT-SOUTH ZN,hourly; !- [J]
Output:Meter:Cumulative,InteriorEquipment:Electricity:Zone:SP-DINING AREA - SPACE DESIGNED TO ANSI/IES RP-28 (USED PRIMARILY BY RESIDENTS)-SPACE FUNCTION SYS-3 FLR-2 SCH-B HPLCMT-SOUTH ZN,hourly; !- [J]
Output:Meter,InteriorEquipment:Electricity:Zone:SP-DRESSING/FITTING ROOM - PERFORMING ARTS THEATRE-SPACE FUNCTION SYS-3 FLR-2 SCH-C HPLCMT-EAST ZN,hourly; !- [J]
Output:Meter:Cumulative,InteriorEquipment:Electricity:Zone:SP-DRESSING/FITTING ROOM - PERFORMING ARTS THEATRE-SPACE FUNCTION SYS-3 FLR-2 SCH-C HPLCMT-EAST ZN,hourly; !- [J]
Output:Meter,InteriorEquipment:Electricity:Zone:SP-EMERGENCY VEHICLE GARAGE-SPACE FUNCTION SYS-4 FLR-3 SCH-H HPLCMT-SOUTH ZN,hourly; !- [J]
Output:Meter:Cumulative,InteriorEquipment:Electricity:Zone:SP-EMERGENCY VEHICLE GARAGE-SPACE FUNCTION SYS-4 FLR-3 SCH-H HPLCMT-SOUTH ZN,hourly; !- [J]
Output:Meter,InteriorEquipment:Electricity:Zone:SP-FOOD PREPARATION AREA-SPACE FUNCTION SYS-3 FLR-2 SCH-B HPLCMT-CORE ZN,hourly; !- [J]
Output:Meter:Cumulative,InteriorEquipment:Electricity:Zone:SP-FOOD PREPARATION AREA-SPACE FUNCTION SYS-3 FLR-2 SCH-B HPLCMT-CORE ZN,hourly; !- [J]
Output:Meter,PlantLoopHeatingDemand:Facility,hourly; !- [J]
Output:Meter:Cumulative,PlantLoopHeatingDemand:Facility,hourly; !- [J]
Output:Meter,PlantLoopHeatingDemand:Plant,hourly; !- [J]
Output:Meter:Cumulative,PlantLoopHeatingDemand:Plant,hourly; !- [J]
Output:Meter,WaterSystems:PlantLoopHeatingDemand,hourly; !- [J]
Output:Meter:Cumulative,WaterSystems:PlantLoopHeatingDemand,hourly; !- [J]
Output:Meter,General:WaterSystems:PlantLoopHeatingDemand,hourly; !- [J]
Output:Meter:Cumulative,General:WaterSystems:PlantLoopHeatingDemand,hourly; !- [J]
Output:Meter,Gas:Facility,hourly; !- [J]
Output:Meter:Cumulative,Gas:Facility,hourly; !- [J]
Output:Meter,Gas:Plant,hourly; !- [J]
Output:Meter:Cumulative,Gas:Plant,hourly; !- [J]
Output:Meter,WaterSystems:Gas,hourly; !- [J]
Output:Meter:Cumulative,WaterSystems:Gas,hourly; !- [J]
Output:Meter,General:WaterSystems:Gas,hourly; !- [J]
Output:Meter:Cumulative,General:WaterSystems:Gas,hourly; !- [J]
Output:Meter,Water:Facility,hourly; !- [m3]
Output:Meter:Cumulative,Water:Facility,hourly; !- [m3]
Output:Meter,Water:Plant,hourly; !- [m3]
Output:Meter:Cumulative,Water:Plant,hourly; !- [m3]
Output:Meter,WaterSystems:Water,hourly; !- [m3]
Output:Meter:Cumulative,WaterSystems:Water,hourly; !- [m3]
Output:Meter,General:WaterSystems:Water,hourly; !- [m3]
Output:Meter:Cumulative,General:WaterSystems:Water,hourly; !- [m3]
Output:Meter,MainsWater:Facility,hourly; !- [m3]
Output:Meter:Cumulative,MainsWater:Facility,hourly; !- [m3]
Output:Meter,MainsWater:Plant,hourly; !- [m3]
Output:Meter:Cumulative,MainsWater:Plant,hourly; !- [m3]
Output:Meter,WaterSystems:MainsWater,hourly; !- [m3]
Output:Meter:Cumulative,WaterSystems:MainsWater,hourly; !- [m3]
Output:Meter,General:WaterSystems:MainsWater,hourly; !- [m3]
Output:Meter:Cumulative,General:WaterSystems:MainsWater,hourly; !- [m3]
Output:Meter,EnergyTransfer:Facility,hourly; !- [J]
Output:Meter:Cumulative,EnergyTransfer:Facility,hourly; !- [J]
Output:Meter,EnergyTransfer:Building,hourly; !- [J]
Output:Meter:Cumulative,EnergyTransfer:Building,hourly; !- [J]
Output:Meter,EnergyTransfer:Zone:SP-AUDIENCE SEATING AREA PERMANENT - OTHER-SCH-H-SPACE FUNCTION SYS-3 FLR-4 SCH-H HPLCMT-CORE ZN,hourly; !- [J]
Output:Meter:Cumulative,EnergyTransfer:Zone:SP-AUDIENCE SEATING AREA PERMANENT - OTHER-SCH-H-SPACE FUNCTION SYS-3 FLR-4 SCH-H HPLCMT-CORE ZN,hourly; !- [J]
Output:Meter,Heating:EnergyTransfer,hourly; !- [J]
Output:Meter:Cumulative,Heating:EnergyTransfer,hourly; !- [J]
Output:Meter,Heating:EnergyTransfer:Zone:SP-AUDIENCE SEATING AREA PERMANENT - OTHER-SCH-H-SPACE FUNCTION SYS-3 FLR-4 SCH-H HPLCMT-CORE ZN,hourly; !- [J]
Output:Meter:Cumulative,Heating:EnergyTransfer:Zone:SP-AUDIENCE SEATING AREA PERMANENT - OTHER-SCH-H-SPACE FUNCTION SYS-3 FLR-4 SCH-H HPLCMT-CORE ZN,hourly; !- [J]
Output:Meter,Cooling:EnergyTransfer,hourly; !- [J]
Output:Meter:Cumulative,Cooling:EnergyTransfer,hourly; !- [J]
Output:Meter,Cooling:EnergyTransfer:Zone:SP-AUDIENCE SEATING AREA PERMANENT - OTHER-SCH-H-SPACE FUNCTION SYS-3 FLR-4 SCH-H HPLCMT-CORE ZN,hourly; !- [J]
Output:Meter:Cumulative,Cooling:EnergyTransfer:Zone:SP-AUDIENCE SEATING AREA PERMANENT - OTHER-SCH-H-SPACE FUNCTION SYS-3 FLR-4 SCH-H HPLCMT-CORE ZN,hourly; !- [J]
Output:Meter,EnergyTransfer:Zone:SP-AUDIENCE SEATING AREA PERMANENT - OTHER-SCH-I-SPACE FUNCTION SYS-3 FLR-4 SCH-I HPLCMT-NORTH ZN,hourly; !- [J]
Output:Meter:Cumulative,EnergyTransfer:Zone:SP-AUDIENCE SEATING AREA PERMANENT - OTHER-SCH-I-SPACE FUNCTION SYS-3 FLR-4 SCH-I HPLCMT-NORTH ZN,hourly; !- [J]
Output:Meter,Heating:EnergyTransfer:Zone:SP-AUDIENCE SEATING AREA PERMANENT - OTHER-SCH-I-SPACE FUNCTION SYS-3 FLR-4 SCH-I HPLCMT-NORTH ZN,hourly; !- [J]
Output:Meter:Cumulative,Heating:EnergyTransfer:Zone:SP-AUDIENCE SEATING AREA PERMANENT - OTHER-SCH-I-SPACE FUNCTION SYS-3 FLR-4 SCH-I HPLCMT-NORTH ZN,hourly; !- [J]
Output:Meter,Cooling:EnergyTransfer:Zone:SP-AUDIENCE SEATING AREA PERMANENT - OTHER-SCH-I-SPACE FUNCTION SYS-3 FLR-4 SCH-I HPLCMT-NORTH ZN,hourly; !- [J]
Output:Meter:Cumulative,Cooling:EnergyTransfer:Zone:SP-AUDIENCE SEATING AREA PERMANENT - OTHER-SCH-I-SPACE FUNCTION SYS-3 FLR-4 SCH-I HPLCMT-NORTH ZN,hourly; !- [J]
Output:Meter,EnergyTransfer:Zone:SP-AUDIENCE SEATING AREA PERMANENT - OTHER-SCH-J-SPACE FUNCTION SYS-3 FLR-4 SCH-J HPLCMT-WEST ZN,hourly; !- [J]
Output:Meter:Cumulative,EnergyTransfer:Zone:SP-AUDIENCE SEATING AREA PERMANENT - OTHER-SCH-J-SPACE FUNCTION SYS-3 FLR-4 SCH-J HPLCMT-WEST ZN,hourly; !- [J]
Output:Meter,Heating:EnergyTransfer:Zone:SP-AUDIENCE SEATING AREA PERMANENT - OTHER-SCH-J-SPACE FUNCTION SYS-3 FLR-4 SCH-J HPLCMT-WEST ZN,hourly; !- [J]
Output:Meter:Cumulative,Heating:EnergyTransfer:Zone:SP-AUDIENCE SEATING AREA PERMANENT - OTHER-SCH-J-SPACE FUNCTION SYS-3 FLR-4 SCH-J HPLCMT-WEST ZN,hourly; !- [J]
Output:Meter,Cooling:EnergyTransfer:Zone:SP-AUDIENCE SEATING AREA PERMANENT - OTHER-SCH-J-SPACE FUNCTION SYS-3 FLR-4 SCH-J HPLCMT-WEST ZN,hourly; !- [J]
Output:Meter:Cumulative,Cooling:EnergyTransfer:Zone:SP-AUDIENCE SEATING AREA PERMANENT - OTHER-SCH-J-SPACE FUNCTION SYS-3 FLR-4 SCH-J HPLCMT-WEST ZN,hourly; !- [J]
Output:Meter,EnergyTransfer:Zone:SP-AUDIENCE SEATING AREA PERMANENT - OTHER-SCH-K-SPACE FUNCTION SYS-3 FLR-3 SCH-K HPLCMT-CORE ZN,hourly; !- [J]
Output:Meter:Cumulative,EnergyTransfer:Zone:SP-AUDIENCE SEATING AREA PERMANENT - OTHER-SCH-K-SPACE FUNCTION SYS-3 FLR-3 SCH-K HPLCMT-CORE ZN,hourly; !- [J]
Output:Meter,Heating:EnergyTransfer:Zone:SP-AUDIENCE SEATING AREA PERMANENT - OTHER-SCH-K-SPACE FUNCTION SYS-3 FLR-3 SCH-K HPLCMT-CORE ZN,hourly; !- [J]
Output:Meter:Cumulative,Heating:EnergyTransfer:Zone:SP-AUDIENCE SEATING AREA PERMANENT - OTHER-SCH-K-SPACE FUNCTION SYS-3 FLR-3 SCH-K HPLCMT-CORE ZN,hourly; !- [J]
Output:Meter,Cooling:EnergyTransfer:Zone:SP-AUDIENCE SEATING AREA PERMANENT - OTHER-SCH-K-SPACE FUNCTION SYS-3 FLR-3 SCH-K HPLCMT-CORE ZN,hourly; !- [J]
Output:Meter:Cumulative,Cooling:EnergyTransfer:Zone:SP-AUDIENCE SEATING AREA PERMANENT - OTHER-SCH-K-SPACE FUNCTION SYS-3 FLR-3 SCH-K HPLCMT-CORE ZN,hourly; !- [J]
Output:Meter,EnergyTransfer:Zone:SP-BANKING ACTIVITY AREA AND OFFICES-SPACE FUNCTION SYS-6 FLR-3 SCH-A HPLCMT-EAST ZN,hourly; !- [J]
Output:Meter:Cumulative,EnergyTransfer:Zone:SP-BANKING ACTIVITY AREA AND OFFICES-SPACE FUNCTION SYS-6 FLR-3 SCH-A HPLCMT-EAST ZN,hourly; !- [J]
Output:Meter,Heating:EnergyTransfer:Zone:SP-BANKING ACTIVITY AREA AND OFFICES-SPACE FUNCTION SYS-6 FLR-3 SCH-A HPLCMT-EAST ZN,hourly; !- [J]
Output:Meter:Cumulative,Heating:EnergyTransfer:Zone:SP-BANKING ACTIVITY AREA AND OFFICES-SPACE FUNCTION SYS-6 FLR-3 SCH-A HPLCMT-EAST ZN,hourly; !- [J]
Output:Meter,Cooling:EnergyTransfer:Zone:SP-BANKING ACTIVITY AREA AND OFFICES-SPACE FUNCTION SYS-6 FLR-3 SCH-A HPLCMT-EAST ZN,hourly; !- [J]
Output:Meter:Cumulative,Cooling:EnergyTransfer:Zone:SP-BANKING ACTIVITY AREA AND OFFICES-SPACE FUNCTION SYS-6 FLR-3 SCH-A HPLCMT-EAST ZN,hourly; !- [J]
Output:Meter,EnergyTransfer:Zone:SP-CLASSROOM/LECTURE HALL/TRAINING ROOM - PENITENTARY-SPACE FUNCTION SYS-3 FLR-4 SCH-D HPLCMT-EAST ZN,hourly; !- [J]
Output:Meter:Cumulative,EnergyTransfer:Zone:SP-CLASSROOM/LECTURE HALL/TRAINING ROOM - PENITENTARY-SPACE FUNCTION SYS-3 FLR-4 SCH-D HPLCMT-EAST ZN,hourly; !- [J]
Output:Meter,Heating:EnergyTransfer:Zone:SP-CLASSROOM/LECTURE HALL/TRAINING ROOM - PENITENTARY-SPACE FUNCTION SYS-3 FLR-4 SCH-D HPLCMT-EAST ZN,hourly; !- [J]
Output:Meter:Cumulative,Heating:EnergyTransfer:Zone:SP-CLASSROOM/LECTURE HALL/TRAINING ROOM - PENITENTARY-SPACE FUNCTION SYS-3 FLR-4 SCH-D HPLCMT-EAST ZN,hourly; !- [J]
Output:Meter,Cooling:EnergyTransfer:Zone:SP-CLASSROOM/LECTURE HALL/TRAINING ROOM - PENITENTARY-SPACE FUNCTION SYS-3 FLR-4 SCH-D HPLCMT-EAST ZN,hourly; !- [J]
Output:Meter:Cumulative,Cooling:EnergyTransfer:Zone:SP-CLASSROOM/LECTURE HALL/TRAINING ROOM - PENITENTARY-SPACE FUNCTION SYS-3 FLR-4 SCH-D HPLCMT-EAST ZN,hourly; !- [J]
Output:Meter,EnergyTransfer:Zone:SP-CLASSROOM/LECTURE HALL/TRAINING ROOM OTHER-SPACE FUNCTION SYS-3 FLR-3 SCH-D HPLCMT-WEST ZN,hourly; !- [J]
Output:Meter:Cumulative,EnergyTransfer:Zone:SP-CLASSROOM/LECTURE HALL/TRAINING ROOM OTHER-SPACE FUNCTION SYS-3 FLR-3 SCH-D HPLCMT-WEST ZN,hourly; !- [J]
Output:Meter,Heating:EnergyTransfer:Zone:SP-CLASSROOM/LECTURE HALL/TRAINING ROOM OTHER-SPACE FUNCTION SYS-3 FLR-3 SCH-D HPLCMT-WEST ZN,hourly; !- [J]
Output:Meter:Cumulative,Heating:EnergyTransfer:Zone:SP-CLASSROOM/LECTURE HALL/TRAINING ROOM OTHER-SPACE FUNCTION SYS-3 FLR-3 SCH-D HPLCMT-WEST ZN,hourly; !- [J]
Output:Meter,Cooling:EnergyTransfer:Zone:SP-CLASSROOM/LECTURE HALL/TRAINING ROOM OTHER-SPACE FUNCTION SYS-3 FLR-3 SCH-D HPLCMT-WEST ZN,hourly; !- [J]
Output:Meter:Cumulative,Cooling:EnergyTransfer:Zone:SP-CLASSROOM/LECTURE HALL/TRAINING ROOM OTHER-SPACE FUNCTION SYS-3 FLR-3 SCH-D HPLCMT-WEST ZN,hourly; !- [J]
Output:Meter,EnergyTransfer:Zone:SP-CONFERENCE/MEETING/MULTI-PURPOSE ROOM-SPACE FUNCTION SYS-3 FLR-3 SCH-C HPLCMT-NORTH ZN,hourly; !- [J]
Output:Meter:Cumulative,EnergyTransfer:Zone:SP-CONFERENCE/MEETING/MULTI-PURPOSE ROOM-SPACE FUNCTION SYS-3 FLR-3 SCH-C HPLCMT-NORTH ZN,hourly; !- [J]
Output:Meter,Heating:EnergyTransfer:Zone:SP-CONFERENCE/MEETING/MULTI-PURPOSE ROOM-SPACE FUNCTION SYS-3 FLR-3 SCH-C HPLCMT-NORTH ZN,hourly; !- [J]
Output:Meter:Cumulative,Heating:EnergyTransfer:Zone:SP-CONFERENCE/MEETING/MULTI-PURPOSE ROOM-SPACE FUNCTION SYS-3 FLR-3 SCH-C HPLCMT-NORTH ZN,hourly; !- [J]
Output:Meter,Cooling:EnergyTransfer:Zone:SP-CONFERENCE/MEETING/MULTI-PURPOSE ROOM-SPACE FUNCTION SYS-3 FLR-3 SCH-C HPLCMT-NORTH ZN,hourly; !- [J]
Output:Meter:Cumulative,Cooling:EnergyTransfer:Zone:SP-CONFERENCE/MEETING/MULTI-PURPOSE ROOM-SPACE FUNCTION SYS-3 FLR-3 SCH-C HPLCMT-NORTH ZN,hourly; !- [J]
Output:Meter,EnergyTransfer:Zone:SP-CONFINEMENT CELL-SPACE FUNCTION SYS-3 FLR-1 SCH-G HPLCMT-NORTH ZN,hourly; !- [J]
Output:Meter:Cumulative,EnergyTransfer:Zone:SP-CONFINEMENT CELL-SPACE FUNCTION SYS-3 FLR-1 SCH-G HPLCMT-NORTH ZN,hourly; !- [J]
Output:Meter,Heating:EnergyTransfer:Zone:SP-CONFINEMENT CELL-SPACE FUNCTION SYS-3 FLR-1 SCH-G HPLCMT-NORTH ZN,hourly; !- [J]
Output:Meter:Cumulative,Heating:EnergyTransfer:Zone:SP-CONFINEMENT CELL-SPACE FUNCTION SYS-3 FLR-1 SCH-G HPLCMT-NORTH ZN,hourly; !- [J]
Output:Meter,Cooling:EnergyTransfer:Zone:SP-CONFINEMENT CELL-SPACE FUNCTION SYS-3 FLR-1 SCH-G HPLCMT-NORTH ZN,hourly; !- [J]
Output:Meter:Cumulative,Cooling:EnergyTransfer:Zone:SP-CONFINEMENT CELL-SPACE FUNCTION SYS-3 FLR-1 SCH-G HPLCMT-NORTH ZN,hourly; !- [J]
Output:Meter,EnergyTransfer:Zone:SP-COPY/PRINT ROOM-SPACE FUNCTION SYS-3 FLR-1 SCH-A HPLCMT-EAST ZN,hourly; !- [J]
Output:Meter:Cumulative,EnergyTransfer:Zone:SP-COPY/PRINT ROOM-SPACE FUNCTION SYS-3 FLR-1 SCH-A HPLCMT-EAST ZN,hourly; !- [J]
Output:Meter,Heating:EnergyTransfer:Zone:SP-COPY/PRINT ROOM-SPACE FUNCTION SYS-3 FLR-1 SCH-A HPLCMT-EAST ZN,hourly; !- [J]
Output:Meter:Cumulative,Heating:EnergyTransfer:Zone:SP-COPY/PRINT ROOM-SPACE FUNCTION SYS-3 FLR-1 SCH-A HPLCMT-EAST ZN,hourly; !- [J]
Output:Meter,Cooling:EnergyTransfer:Zone:SP-COPY/PRINT ROOM-SPACE FUNCTION SYS-3 FLR-1 SCH-A HPLCMT-EAST ZN,hourly; !- [J]
Output:Meter:Cumulative,Cooling:EnergyTransfer:Zone:SP-COPY/PRINT ROOM-SPACE FUNCTION SYS-3 FLR-1 SCH-A HPLCMT-EAST ZN,hourly; !- [J]
Output:Meter,EnergyTransfer:Zone:SP-COURTROOM-SPACE FUNCTION SYS-3 FLR-2 SCH-A HPLCMT-WEST ZN,hourly; !- [J]
Output:Meter:Cumulative,EnergyTransfer:Zone:SP-COURTROOM-SPACE FUNCTION SYS-3 FLR-2 SCH-A HPLCMT-WEST ZN,hourly; !- [J]
Output:Meter,Heating:EnergyTransfer:Zone:SP-COURTROOM-SPACE FUNCTION SYS-3 FLR-2 SCH-A HPLCMT-WEST ZN,hourly; !- [J]
Output:Meter:Cumulative,Heating:EnergyTransfer:Zone:SP-COURTROOM-SPACE FUNCTION SYS-3 FLR-2 SCH-A HPLCMT-WEST ZN,hourly; !- [J]
Output:Meter,Cooling:EnergyTransfer:Zone:SP-COURTROOM-SPACE FUNCTION SYS-3 FLR-2 SCH-A HPLCMT-WEST ZN,hourly; !- [J]
Output:Meter:Cumulative,Cooling:EnergyTransfer:Zone:SP-COURTROOM-SPACE FUNCTION SYS-3 FLR-2 SCH-A HPLCMT-WEST ZN,hourly; !- [J]
Output:Meter,EnergyTransfer:Zone:SP-DINING AREA - BAR LOUNGE/LEISURE DINING-SPACE FUNCTION SYS-3 FLR-1 SCH-B HPLCMT-CORE ZN,hourly; !- [J]
Output:Meter:Cumulative,EnergyTransfer:Zone:SP-DINING AREA - BAR LOUNGE/LEISURE DINING-SPACE FUNCTION SYS-3 FLR-1 SCH-B HPLCMT-CORE ZN,hourly; !- [J]
Output:Meter,Heating:EnergyTransfer:Zone:SP-DINING AREA - BAR LOUNGE/LEISURE DINING-SPACE FUNCTION SYS-3 FLR-1 SCH-B HPLCMT-CORE ZN,hourly; !- [J]
Output:Meter:Cumulative,Heating:EnergyTransfer:Zone:SP-DINING AREA - BAR LOUNGE/LEISURE DINING-SPACE FUNCTION SYS-3 FLR-1 SCH-B HPLCMT-CORE ZN,hourly; !- [J]
Output:Meter,Cooling:EnergyTransfer:Zone:SP-DINING AREA - BAR LOUNGE/LEISURE DINING-SPACE FUNCTION SYS-3 FLR-1 SCH-B HPLCMT-CORE ZN,hourly; !- [J]
Output:Meter:Cumulative,Cooling:EnergyTransfer:Zone:SP-DINING AREA - BAR LOUNGE/LEISURE DINING-SPACE FUNCTION SYS-3 FLR-1 SCH-B HPLCMT-CORE ZN,hourly; !- [J]
Output:Meter,EnergyTransfer:Zone:SP-DINING AREA - CAFETERIA/FAST FOOD DINING-SPACE FUNCTION SYS-3 FLR-4 SCH-B HPLCMT-SOUTH ZN,hourly; !- [J]
Output:Meter:Cumulative,EnergyTransfer:Zone:SP-DINING AREA - CAFETERIA/FAST FOOD DINING-SPACE FUNCTION SYS-3 FLR-4 SCH-B HPLCMT-SOUTH ZN,hourly; !- [J]
Output:Meter,Heating:EnergyTransfer:Zone:SP-DINING AREA - CAFETERIA/FAST FOOD DINING-SPACE FUNCTION SYS-3 FLR-4 SCH-B HPLCMT-SOUTH ZN,hourly; !- [J]
Output:Meter:Cumulative,Heating:EnergyTransfer:Zone:SP-DINING AREA - CAFETERIA/FAST FOOD DINING-SPACE FUNCTION SYS-3 FLR-4 SCH-B HPLCMT-SOUTH ZN,hourly; !- [J]
Output:Meter,Cooling:EnergyTransfer:Zone:SP-DINING AREA - CAFETERIA/FAST FOOD DINING-SPACE FUNCTION SYS-3 FLR-4 SCH-B HPLCMT-SOUTH ZN,hourly; !- [J]
Output:Meter:Cumulative,Cooling:EnergyTransfer:Zone:SP-DINING AREA - CAFETERIA/FAST FOOD DINING-SPACE FUNCTION SYS-3 FLR-4 SCH-B HPLCMT-SOUTH ZN,hourly; !- [J]
Output:Meter,EnergyTransfer:Zone:SP-DINING AREA - FAMILY DINING-SPACE FUNCTION SYS-3 FLR-1 SCH-B HPLCMT-WEST ZN,hourly; !- [J]
Output:Meter:Cumulative,EnergyTransfer:Zone:SP-DINING AREA - FAMILY DINING-SPACE FUNCTION SYS-3 FLR-1 SCH-B HPLCMT-WEST ZN,hourly; !- [J]
Output:Meter,Heating:EnergyTransfer:Zone:SP-DINING AREA - FAMILY DINING-SPACE FUNCTION SYS-3 FLR-1 SCH-B HPLCMT-WEST ZN,hourly; !- [J]
Output:Meter:Cumulative,Heating:EnergyTransfer:Zone:SP-DINING AREA - FAMILY DINING-SPACE FUNCTION SYS-3 FLR-1 SCH-B HPLCMT-WEST ZN,hourly; !- [J]
Output:Meter,Cooling:EnergyTransfer:Zone:SP-DINING AREA - FAMILY DINING-SPACE FUNCTION SYS-3 FLR-1 SCH-B HPLCMT-WEST ZN,hourly; !- [J]
Output:Meter:Cumulative,Cooling:EnergyTransfer:Zone:SP-DINING AREA - FAMILY DINING-SPACE FUNCTION SYS-3 FLR-1 SCH-B HPLCMT-WEST ZN,hourly; !- [J]
Output:Meter,EnergyTransfer:Zone:SP-DINING AREA - OTHER-SPACE FUNCTION SYS-3 FLR-1 SCH-B HPLCMT-SOUTH ZN,hourly; !- [J]
Output:Meter:Cumulative,EnergyTransfer:Zone:SP-DINING AREA - OTHER-SPACE FUNCTION SYS-3 FLR-1 SCH-B HPLCMT-SOUTH ZN,hourly; !- [J]
Output:Meter,Heating:EnergyTransfer:Zone:SP-DINING AREA - OTHER-SPACE FUNCTION SYS-3 FLR-1 SCH-B HPLCMT-SOUTH ZN,hourly; !- [J]
Output:Meter:Cumulative,Heating:EnergyTransfer:Zone:SP-DINING AREA - OTHER-SPACE FUNCTION SYS-3 FLR-1 SCH-B HPLCMT-SOUTH ZN,hourly; !- [J]
Output:Meter,Cooling:EnergyTransfer:Zone:SP-DINING AREA - OTHER-SPACE FUNCTION SYS-3 FLR-1 SCH-B HPLCMT-SOUTH ZN,hourly; !- [J]
Output:Meter:Cumulative,Cooling:EnergyTransfer:Zone:SP-DINING AREA - OTHER-SPACE FUNCTION SYS-3 FLR-1 SCH-B HPLCMT-SOUTH ZN,hourly; !- [J]
Output:Meter,EnergyTransfer:Zone:SP-DINING AREA - PENITENTIARY-SPACE FUNCTION SYS-3 FLR-2 SCH-B HPLCMT-NORTH ZN,hourly; !- [J]
Output:Meter:Cumulative,EnergyTransfer:Zone:SP-DINING AREA - PENITENTIARY-SPACE FUNCTION SYS-3 FLR-2 SCH-B HPLCMT-NORTH ZN,hourly; !- [J]
Output:Meter,Heating:EnergyTransfer:Zone:SP-DINING AREA - PENITENTIARY-SPACE FUNCTION SYS-3 FLR-2 SCH-B HPLCMT-NORTH ZN,hourly; !- [J]
Output:Meter:Cumulative,Heating:EnergyTransfer:Zone:SP-DINING AREA - PENITENTIARY-SPACE FUNCTION SYS-3 FLR-2 SCH-B HPLCMT-NORTH ZN,hourly; !- [J]
Output:Meter,Cooling:EnergyTransfer:Zone:SP-DINING AREA - PENITENTIARY-SPACE FUNCTION SYS-3 FLR-2 SCH-B HPLCMT-NORTH ZN,hourly; !- [J]
Output:Meter:Cumulative,Cooling:EnergyTransfer:Zone:SP-DINING AREA - PENITENTIARY-SPACE FUNCTION SYS-3 FLR-2 SCH-B HPLCMT-NORTH ZN,hourly; !- [J]
Output:Meter,EnergyTransfer:Zone:SP-DINING AREA - SPACE DESIGNED TO ANSI/IES RP-28 (USED PRIMARILY BY RESIDENTS)-SPACE FUNCTION SYS-3 FLR-2 SCH-B HPLCMT-SOUTH ZN,hourly; !- [J]
Output:Meter:Cumulative,EnergyTransfer:Zone:SP-DINING AREA - SPACE DESIGNED TO ANSI/IES RP-28 (USED PRIMARILY BY RESIDENTS)-SPACE FUNCTION SYS-3 FLR-2 SCH-B HPLCMT-SOUTH ZN,hourly; !- [J]
Output:Meter,Heating:EnergyTransfer:Zone:SP-DINING AREA - SPACE DESIGNED TO ANSI/IES RP-28 (USED PRIMARILY BY RESIDENTS)-SPACE FUNCTION SYS-3 FLR-2 SCH-B HPLCMT-SOUTH ZN,hourly; !- [J]
Output:Meter:Cumulative,Heating:EnergyTransfer:Zone:SP-DINING AREA - SPACE DESIGNED TO ANSI/IES RP-28 (USED PRIMARILY BY RESIDENTS)-SPACE FUNCTION SYS-3 FLR-2 SCH-B HPLCMT-SOUTH ZN,hourly; !- [J]
Output:Meter,Cooling:EnergyTransfer:Zone:SP-DINING AREA - SPACE DESIGNED TO ANSI/IES RP-28 (USED PRIMARILY BY RESIDENTS)-SPACE FUNCTION SYS-3 FLR-2 SCH-B HPLCMT-SOUTH ZN,hourly; !- [J]
Output:Meter:Cumulative,Cooling:EnergyTransfer:Zone:SP-DINING AREA - SPACE DESIGNED TO ANSI/IES RP-28 (USED PRIMARILY BY RESIDENTS)-SPACE FUNCTION SYS-3 FLR-2 SCH-B HPLCMT-SOUTH ZN,hourly; !- [J]
Output:Meter,EnergyTransfer:Zone:SP-DRESSING/FITTING ROOM - PERFORMING ARTS THEATRE-SPACE FUNCTION SYS-3 FLR-2 SCH-C HPLCMT-EAST ZN,hourly; !- [J]
Output:Meter:Cumulative,EnergyTransfer:Zone:SP-DRESSING/FITTING ROOM - PERFORMING ARTS THEATRE-SPACE FUNCTION SYS-3 FLR-2 SCH-C HPLCMT-EAST ZN,hourly; !- [J]
Output:Meter,Heating:EnergyTransfer:Zone:SP-DRESSING/FITTING ROOM - PERFORMING ARTS THEATRE-SPACE FUNCTION SYS-3 FLR-2 SCH-C HPLCMT-EAST ZN,hourly; !- [J]
Output:Meter:Cumulative,Heating:EnergyTransfer:Zone:SP-DRESSING/FITTING ROOM - PERFORMING ARTS THEATRE-SPACE FUNCTION SYS-3 FLR-2 SCH-C HPLCMT-EAST ZN,hourly; !- [J]
Output:Meter,Cooling:EnergyTransfer:Zone:SP-DRESSING/FITTING ROOM - PERFORMING ARTS THEATRE-SPACE FUNCTION SYS-3 FLR-2 SCH-C HPLCMT-EAST ZN,hourly; !- [J]
Output:Meter:Cumulative,Cooling:EnergyTransfer:Zone:SP-DRESSING/FITTING ROOM - PERFORMING ARTS THEATRE-SPACE FUNCTION SYS-3 FLR-2 SCH-C HPLCMT-EAST ZN,hourly; !- [J]
Output:Meter,EnergyTransfer:Zone:SP-EMERGENCY VEHICLE GARAGE-SPACE FUNCTION SYS-4 FLR-3 SCH-H HPLCMT-SOUTH ZN,hourly; !- [J]
Output:Meter:Cumulative,EnergyTransfer:Zone:SP-EMERGENCY VEHICLE GARAGE-SPACE FUNCTION SYS-4 FLR-3 SCH-H HPLCMT-SOUTH ZN,hourly; !- [J]
Output:Meter,Heating:EnergyTransfer:Zone:SP-EMERGENCY VEHICLE GARAGE-SPACE FUNCTION SYS-4 FLR-3 SCH-H HPLCMT-SOUTH ZN,hourly; !- [J]
Output:Meter:Cumulative,Heating:EnergyTransfer:Zone:SP-EMERGENCY VEHICLE GARAGE-SPACE FUNCTION SYS-4 FLR-3 SCH-H HPLCMT-SOUTH ZN,hourly; !- [J]
Output:Meter,Cooling:EnergyTransfer:Zone:SP-EMERGENCY VEHICLE GARAGE-SPACE FUNCTION SYS-4 FLR-3 SCH-H HPLCMT-SOUTH ZN,hourly; !- [J]
Output:Meter:Cumulative,Cooling:EnergyTransfer:Zone:SP-EMERGENCY VEHICLE GARAGE-SPACE FUNCTION SYS-4 FLR-3 SCH-H HPLCMT-SOUTH ZN,hourly; !- [J]
Output:Meter,EnergyTransfer:Zone:SP-FOOD PREPARATION AREA-SPACE FUNCTION SYS-3 FLR-2 SCH-B HPLCMT-CORE ZN,hourly; !- [J]
Output:Meter:Cumulative,EnergyTransfer:Zone:SP-FOOD PREPARATION AREA-SPACE FUNCTION SYS-3 FLR-2 SCH-B HPLCMT-CORE ZN,hourly; !- [J]
Output:Meter,Heating:EnergyTransfer:Zone:SP-FOOD PREPARATION AREA-SPACE FUNCTION SYS-3 FLR-2 SCH-B HPLCMT-CORE ZN,hourly; !- [J]
Output:Meter:Cumulative,Heating:EnergyTransfer:Zone:SP-FOOD PREPARATION AREA-SPACE FUNCTION SYS-3 FLR-2 SCH-B HPLCMT-CORE ZN,hourly; !- [J]
Output:Meter,Cooling:EnergyTransfer:Zone:SP-FOOD PREPARATION AREA-SPACE FUNCTION SYS-3 FLR-2 SCH-B HPLCMT-CORE ZN,hourly; !- [J]
Output:Meter:Cumulative,Cooling:EnergyTransfer:Zone:SP-FOOD PREPARATION AREA-SPACE FUNCTION SYS-3 FLR-2 SCH-B HPLCMT-CORE ZN,hourly; !- [J]
Output:Meter,EnergyTransfer:Plant,hourly; !- [J]
Output:Meter:Cumulative,EnergyTransfer:Plant,hourly; !- [J]
Output:Meter,WaterSystems:EnergyTransfer,hourly; !- [J]
Output:Meter:Cumulative,WaterSystems:EnergyTransfer,hourly; !- [J]
Output:Meter,General:WaterSystems:EnergyTransfer,hourly; !- [J]
Output:Meter:Cumulative,General:WaterSystems:EnergyTransfer,hourly; !- [J]
Output:Meter,ElectricityPurchased:Facility,hourly; !- [J]
Output:Meter:Cumulative,ElectricityPurchased:Facility,hourly; !- [J]
Output:Meter,ElectricityPurchased:Plant,hourly; !- [J]
Output:Meter:Cumulative,ElectricityPurchased:Plant,hourly; !- [J]
Output:Meter,Cogeneration:ElectricityPurchased,hourly; !- [J]
Output:Meter:Cumulative,Cogeneration:ElectricityPurchased,hourly; !- [J]
Output:Meter,ElectricitySurplusSold:Facility,hourly; !- [J]
Output:Meter:Cumulative,ElectricitySurplusSold:Facility,hourly; !- [J]
Output:Meter,ElectricitySurplusSold:Plant,hourly; !- [J]
Output:Meter:Cumulative,ElectricitySurplusSold:Plant,hourly; !- [J]
Output:Meter,Cogeneration:ElectricitySurplusSold,hourly; !- [J]
Output:Meter:Cumulative,Cogeneration:ElectricitySurplusSold,hourly; !- [J]
Output:Meter,ElectricityNet:Facility,hourly; !- [J]
Output:Meter:Cumulative,ElectricityNet:Facility,hourly; !- [J]
Output:Meter,ElectricityNet:Plant,hourly; !- [J]
Output:Meter:Cumulative,ElectricityNet:Plant,hourly; !- [J]
Output:Meter,Cogeneration:ElectricityNet,hourly; !- [J]
Output:Meter:Cumulative,Cogeneration:ElectricityNet,hourly; !- [J]
Output:Meter,EnergyTransfer:HVAC,hourly; !- [J]
Output:Meter:Cumulative,EnergyTransfer:HVAC,hourly; !- [J]
Output:Meter,Baseboard:EnergyTransfer,hourly; !- [J]
Output:Meter:Cumulative,Baseboard:EnergyTransfer,hourly; !- [J]
Output:Meter,PlantLoopHeatingDemand:HVAC,hourly; !- [J]
Output:Meter:Cumulative,PlantLoopHeatingDemand:HVAC,hourly; !- [J]
Output:Meter,Baseboard:PlantLoopHeatingDemand,hourly; !- [J]
Output:Meter:Cumulative,Baseboard:PlantLoopHeatingDemand,hourly; !- [J]
Output:Meter,HeatingCoils:EnergyTransfer,hourly; !- [J]
Output:Meter:Cumulative,HeatingCoils:EnergyTransfer,hourly; !- [J]
Output:Meter,HeatingCoils:PlantLoopHeatingDemand,hourly; !- [J]
Output:Meter:Cumulative,HeatingCoils:PlantLoopHeatingDemand,hourly; !- [J]
Output:Meter,CoolingCoils:EnergyTransfer,hourly; !- [J]
Output:Meter:Cumulative,CoolingCoils:EnergyTransfer,hourly; !- [J]
Output:Meter,PlantLoopCoolingDemand:Facility,hourly; !- [J]
Output:Meter:Cumulative,PlantLoopCoolingDemand:Facility,hourly; !- [J]
Output:Meter,PlantLoopCoolingDemand:HVAC,hourly; !- [J]
Output:Meter:Cumulative,PlantLoopCoolingDemand:HVAC,hourly; !- [J]
Output:Meter,CoolingCoils:PlantLoopCoolingDemand,hourly; !- [J]
Output:Meter:Cumulative,CoolingCoils:PlantLoopCoolingDemand,hourly; !- [J]
Output:Meter,Electricity:HVAC,hourly; !- [J]
Output:Meter:Cumulative,Electricity:HVAC,hourly; !- [J]
Output:Meter,Fans:Electricity,hourly; !- [J]
Output:Meter:Cumulative,Fans:Electricity,hourly; !- [J]
Output:Meter,General:Fans:Electricity,hourly; !- [J]
Output:Meter:Cumulative,General:Fans:Electricity,hourly; !- [J]
Output:Meter,HeatRecoveryForHeating:EnergyTransfer,hourly; !- [J]
Output:Meter:Cumulative,HeatRecoveryForHeating:EnergyTransfer,hourly; !- [J]
Output:Meter,HeatRecoveryForCooling:EnergyTransfer,hourly; !- [J]
Output:Meter:Cumulative,HeatRecoveryForCooling:EnergyTransfer,hourly; !- [J]
Output:Meter,HeatRecovery:Electricity,hourly; !- [J]
Output:Meter:Cumulative,HeatRecovery:Electricity,hourly; !- [J]
Output:Meter,Cooling:Electricity,hourly; !- [J]
Output:Meter:Cumulative,Cooling:Electricity,hourly; !- [J]
Output:Meter,Gas:HVAC,hourly; !- [J]
Output:Meter:Cumulative,Gas:HVAC,hourly; !- [J]
Output:Meter,Heating:Gas,hourly; !- [J]
Output:Meter:Cumulative,Heating:Gas,hourly; !- [J]
Output:Meter,Heating:Electricity,hourly; !- [J]
Output:Meter:Cumulative,Heating:Electricity,hourly; !- [J]
Output:Meter,Electricity:Plant,hourly; !- [J]
Output:Meter:Cumulative,Electricity:Plant,hourly; !- [J]
Output:Meter,General:Cooling:Electricity,hourly; !- [J]
Output:Meter:Cumulative,General:Cooling:Electricity,hourly; !- [J]
Output:Meter,Chillers:EnergyTransfer,hourly; !- [J]
Output:Meter:Cumulative,Chillers:EnergyTransfer,hourly; !- [J]
Output:Meter,HeatRejection:EnergyTransfer,hourly; !- [J]
Output:Meter:Cumulative,HeatRejection:EnergyTransfer,hourly; !- [J]
Output:Meter,HeatRejection:Electricity,hourly; !- [J]
Output:Meter:Cumulative,HeatRejection:Electricity,hourly; !- [J]
Output:Meter,General:HeatRejection:Electricity,hourly; !- [J]
Output:Meter:Cumulative,General:HeatRejection:Electricity,hourly; !- [J]
Output:Meter,HeatRejection:Water,hourly; !- [m3]
Output:Meter:Cumulative,HeatRejection:Water,hourly; !- [m3]
Output:Meter,HeatRejection:MainsWater,hourly; !- [m3]
Output:Meter:Cumulative,HeatRejection:MainsWater,hourly; !- [m3]
Output:Meter,Boilers:EnergyTransfer,hourly; !- [J]
Output:Meter:Cumulative,Boilers:EnergyTransfer,hourly; !- [J]
Output:Meter,General:Heating:Gas,hourly; !- [J]
Output:Meter:Cumulative,General:Heating:Gas,hourly; !- [J]
Output:Meter,Boiler Parasitic:Heating:Electricity,hourly; !- [J]
Output:Meter:Cumulative,Boiler Parasitic:Heating:Electricity,hourly; !- [J]
Output:Meter,Pumps:Electricity,hourly; !- [J]
Output:Meter:Cumulative,Pumps:Electricity,hourly; !- [J]
Output:Meter,Carbon Equivalent:Facility,hourly; !- [kg]
Output:Meter:Cumulative,Carbon Equivalent:Facility,hourly; !- [kg]
Output:Meter,CarbonEquivalentEmissions:Carbon Equivalent,hourly; !- [kg]
Output:Meter:Cumulative,CarbonEquivalentEmissions:Carbon Equivalent,hourly; !- [kg]
