Program Version,EnergyPlus, Version 8.9.0-eba93e8e1b, YMD=2019.03.28 14:11
! <Version>, Version ID
 Version, 8.9
! <Timesteps per Hour>, #TimeSteps, Minutes per TimeStep {minutes}
 Timesteps per Hour,  6, 10
! <System Convergence Limits>, Minimum System TimeStep {minutes}, Max HVAC Iterations, Minimum Plant Iterations, Maximum Plant Iterations
 System Convergence Limits, 1, 20, 2, 8
! <Simulation Control>, Do Zone Sizing, Do System Sizing, Do Plant Sizing, Do Design Days, Do Weather Simulation, Do HVAC Sizing Simulation
 Simulation Control, Yes, No, No, Yes, No, No
! <Output Reporting Tolerances>, Tolerance for Time Heating Setpoint Not Met, Tolerance for Zone Cooling Setpoint Not Met Time
 Output Reporting Tolerances, 0.200, 0.200, 
! <Site:GroundTemperature:BuildingSurface>,Jan{C},Feb{C},Mar{C},Apr{C},May{C},Jun{C},Jul{C},Aug{C},Sep{C},Oct{C},Nov{C},Dec{C}
 Site:GroundTemperature:BuildingSurface,  19.53,  19.50,  19.54,  19.60,  20.00,  21.64,  22.23,  22.38,  21.45,  20.12,  19.80,  19.63
! <Site:GroundTemperature:FCfactorMethod>,Jan{C},Feb{C},Mar{C},Apr{C},May{C},Jun{C},Jul{C},Aug{C},Sep{C},Oct{C},Nov{C},Dec{C}
 Site:GroundTemperature:FCfactorMethod, -12.27, -13.66, -11.19,  -7.33,   2.77,  10.57,  15.83,  17.43,  14.70,   8.65,   0.56,  -6.95
! <Site:GroundTemperature:Shallow>,Jan{C},Feb{C},Mar{C},Apr{C},May{C},Jun{C},Jul{C},Aug{C},Sep{C},Oct{C},Nov{C},Dec{C}
 Site:GroundTemperature:Shallow,  13.00,  13.00,  13.00,  13.00,  13.00,  13.00,  13.00,  13.00,  13.00,  13.00,  13.00,  13.00
! <Site:GroundTemperature:Deep>,Jan{C},Feb{C},Mar{C},Apr{C},May{C},Jun{C},Jul{C},Aug{C},Sep{C},Oct{C},Nov{C},Dec{C}
 Site:GroundTemperature:Deep,  16.00,  16.00,  16.00,  16.00,  16.00,  16.00,  16.00,  16.00,  16.00,  16.00,  16.00,  16.00
! <Site:GroundReflectance>,Jan{dimensionless},Feb{dimensionless},Mar{dimensionless},Apr{dimensionless},May{dimensionless},Jun{dimensionless},Jul{dimensionless},Aug{dimensionless},Sep{dimensionless},Oct{dimensionless},Nov{dimensionless},Dec{dimensionless}
 Site:GroundReflectance,  0.20,  0.20,  0.20,  0.20,  0.20,  0.20,  0.20,  0.20,  0.20,  0.20,  0.20,  0.20
! <Site:GroundReflectance:SnowModifier>, Normal, Daylighting {dimensionless}
 Site:GroundReflectance:SnowModifier,   1.000,   1.000
! <Site:GroundReflectance:Snow>,Jan{dimensionless},Feb{dimensionless},Mar{dimensionless},Apr{dimensionless},May{dimensionless},Jun{dimensionless},Jul{dimensionless},Aug{dimensionless},Sep{dimensionless},Oct{dimensionless},Nov{dimensionless},Dec{dimensionless}
 Site:GroundReflectance:Snow,  0.20,  0.20,  0.20,  0.20,  0.20,  0.20,  0.20,  0.20,  0.20,  0.20,  0.20,  0.20
! <Site:GroundReflectance:Snow:Daylighting>,Jan{dimensionless},Feb{dimensionless},Mar{dimensionless},Apr{dimensionless},May{dimensionless},Jun{dimensionless},Jul{dimensionless},Aug{dimensionless},Sep{dimensionless},Oct{dimensionless},Nov{dimensionless},Dec{dimensionless}
 Site:GroundReflectance:Snow:Daylighting,  0.20,  0.20,  0.20,  0.20,  0.20,  0.20,  0.20,  0.20,  0.20,  0.20,  0.20,  0.20
! <Environment:Weather Station>,Wind Sensor Height Above Ground {m},Wind Speed Profile Exponent {},Wind Speed Profile Boundary Layer Thickness {m},Air Temperature Sensor Height Above Ground {m},Wind Speed Modifier Coefficient-Internal,Temperature Modifier Coefficient-Internal
Environment:Weather Station,10.000,0.140,270.000,1.500,1.586,9.750E-003
! <Site:Location>, Location Name, Latitude {N+/S- Deg}, Longitude {E+/W- Deg},  Time Zone Number {GMT+/-}, Elevation {m},  Standard Pressure at Elevation {Pa}, Standard RhoAir at Elevation
Site:Location,Fort McMurray AP AB CAN CWEC2016 WMO#=716890,56.65,-111.22,-7.00,369.10,96969,1.1525
! <Building Information>, Building Name,North Axis {deg},Terrain,  Loads Convergence Tolerance Value,Temperature Convergence Tolerance Value,  Solar Distribution,Maximum Number of Warmup Days,Minimum Number of Warmup Days
 Building Information,Building 1,0.000,Suburbs,4.00000E-002,0.40000,FullExterior,25,6
! <Inside Convection Algorithm>, Algorithm {Simple | TARP | CeilingDiffuser | AdaptiveConvectionAlgorithm}
Inside Convection Algorithm,TARP
! <Outside Convection Algorithm>, Algorithm {SimpleCombined | TARP | MoWitt | DOE-2 | AdaptiveConvectionAlgorithm}
Outside Convection Algorithm,TARP
! <Sky Radiance Distribution>, Value {Anisotropic}
Sky Radiance Distribution,Anisotropic
! <Zone Air Solution Algorithm>, Value {ThirdOrderBackwardDifference | AnalyticalSolution | EulerMethod}
 Zone Air Solution Algorithm, ThirdOrderBackwardDifference
! <Zone Air Carbon Dioxide Balance Simulation>, Simulation {Yes/No}, Carbon Dioxide Concentration
 Zone Air Carbon Dioxide Balance Simulation, No,N/A
! <Zone Air Generic Contaminant Balance Simulation>, Simulation {Yes/No}, Generic Contaminant Concentration
 Zone Air Generic Contaminant Balance Simulation, No,N/A
! <Zone Air Mass Flow Balance Simulation>, Enforce Mass Balance, Adjust Zone Mixing, Adjust Zone Infiltration {AddInfiltration | AdjustInfiltration | None}, Infiltration Zones {MixingSourceZonesOnly | AllZones}
 Zone Air Mass Flow Balance Simulation, No,N/A,N/A,N/A
! <HVACSystemRootFindingAlgorithm>, Value {RegulaFalsi | Bisection | BisectionThenRegulaFalsi | RegulaFalsiThenBisection}
 HVACSystemRootFindingAlgorithm, RegulaFalsi
! <Environment:Site Atmospheric Variation>,Wind Speed Profile Exponent {},Wind Speed Profile Boundary Layer Thickness {m},Air Temperature Gradient Coefficient {K/m}
Environment:Site Atmospheric Variation,0.220,370.000,6.500000E-003
! <Surface Geometry>,Starting Corner,Vertex Input Direction,Coordinate System,Daylight Reference Point Coordinate System,Rectangular (Simple) Surface Coordinate System
 Surface Geometry,UpperLeftCorner,Counterclockwise,RelativeCoordinateSystem,RelativeCoordinateSystem,RelativeToZoneOrigin
! <Surface Heat Transfer Algorithm>, Value {CTF - ConductionTransferFunction | EMPD - MoisturePenetrationDepthConductionTransferFunction | CondFD - ConductionFiniteDifference | HAMT - CombinedHeatAndMoistureFiniteElement} - Description,Inside Surface Max Temperature Limit{C}, Surface Convection Coefficient Lower Limit {W/m2-K}, Surface Convection Coefficient Upper Limit {W/m2-K}
Surface Heat Transfer Algorithm, CTF - ConductionTransferFunction,200,0.10,1000.0
! <Shading Summary>, Number of Fixed Detached Shades, Number of Building Detached Shades, Number of Attached Shades
 Shading Summary,0,0,0
! <Zone Summary>, Number of Zones, Number of Zone Surfaces, Number of SubSurfaces
 Zone Summary,20,137,17
! <Zone Information>,Zone Name,North Axis {deg},Origin X-Coordinate {m},Origin Y-Coordinate {m},Origin Z-Coordinate {m},Centroid X-Coordinate {m},Centroid Y-Coordinate {m},Centroid Z-Coordinate {m},Type,Zone Multiplier,Zone List Multiplier,Minimum X {m},Maximum X {m},Minimum Y {m},Maximum Y {m},Minimum Z {m},Maximum Z {m},Ceiling Height {m},Volume {m3},Zone Inside Convection Algorithm {Simple-Detailed-CeilingDiffuser-TrombeWall},Zone Outside Convection Algorithm {Simple-Detailed-Tarp-MoWitt-DOE-2-BLAST}, Floor Area {m2},Exterior Gross Wall Area {m2},Exterior Net Wall Area {m2},Exterior Window Area {m2}, Number of Surfaces, Number of SubSurfaces, Number of Shading SubSurfaces,  Part of Total Building Area
 Zone Information, WHOLEBUILDING-AUTOMOTIVE FACILITY ZN,0.0,0.00,0.00,11.40,50.00,10.85,13.30,1,1,1,0.00,100.00,0.00,25.00,11.40,15.20,3.80,7125.00,TARP,TARP,1875.00,380.00,285.00,132.50,6,2,0,Yes
 Zone Information, WHOLEBUILDING-CONVENTION CENTRE ZN,0.0,25.00,25.00,7.60,50.00,50.00,9.50,1,1,1,25.00,75.00,25.00,75.00,7.60,11.40,3.80,9500.00,TARP,TARP,2500.00,0.00,0.00,0.00,6,0,0,Yes
 Zone Information, WHOLEBUILDING-COURTHOUSE ZN,0.0,75.00,25.00,7.60,89.15,50.00,9.50,1,1,1,75.00,100.00,0.00,100.00,7.60,11.40,3.80,7125.00,TARP,TARP,1875.00,380.00,285.00,95.00,6,1,0,Yes
 Zone Information, WHOLEBUILDING-DINING - BAR LOUNGE/LEISURE ZN,0.0,25.00,75.00,7.60,50.00,89.15,9.50,1,1,1,0.00,100.00,75.00,100.00,7.60,11.40,3.80,7125.00,TARP,TARP,1875.00,380.00,285.00,95.00,6,1,0,Yes
 Zone Information, WHOLEBUILDING-DINING - CAFETERIA/FAST FOOD ZN,0.0,0.00,0.00,0.00,10.85,50.00,1.90,1,1,1,0.00,25.00,0.00,100.00,0.00,3.80,3.80,7125.00,TARP,TARP,1875.00,0.00,0.00,0.00,6,0,0,Yes
 Zone Information, WHOLEBUILDING-DINING - FAMILY ZN,0.0,25.00,25.00,11.40,50.00,50.00,13.30,1,1,1,25.00,75.00,25.00,75.00,11.40,15.20,3.80,9500.00,TARP,TARP,2500.00,0.00,0.00,50.00,6,1,0,Yes
 Zone Information, WHOLEBUILDING-DORMITORY ZN,0.0,0.00,0.00,7.60,50.00,10.85,9.50,1,1,1,0.00,100.00,0.00,25.00,7.60,11.40,3.80,7125.00,TARP,TARP,1875.00,380.00,285.00,95.00,6,1,0,Yes
 Zone Information, WHOLEBUILDING-EXERCISE CENTRE ZN,0.0,0.00,0.00,3.80,50.00,10.85,5.70,1,1,1,0.00,100.00,0.00,25.00,3.80,7.60,3.80,7125.00,TARP,TARP,1875.00,380.00,285.00,95.00,6,1,0,Yes
 Zone Information, WHOLEBUILDING-FIRE STATION ZN,0.0,25.00,75.00,0.00,50.00,89.15,1.90,1,1,1,0.00,100.00,75.00,100.00,0.00,3.80,3.80,7125.00,TARP,TARP,1875.00,0.00,0.00,0.00,6,0,0,Yes
 Zone Information, WHOLEBUILDING-GYMNASIUM ZN,0.0,0.00,0.00,11.40,10.85,50.00,13.30,1,1,1,0.00,25.00,0.00,100.00,11.40,15.20,3.80,7125.00,TARP,TARP,1875.00,380.00,285.00,132.50,6,2,0,Yes
 Zone Information, WHOLEBUILDING-HEALTH CARE CLINIC ZN,0.0,25.00,25.00,3.80,50.00,50.00,5.70,1,1,1,25.00,75.00,25.00,75.00,3.80,7.60,3.80,9500.00,TARP,TARP,2500.00,0.00,0.00,0.00,6,0,0,Yes
 Zone Information, WHOLEBUILDING-HOSPITAL ZN,0.0,75.00,25.00,11.40,89.15,50.00,13.30,1,1,1,75.00,100.00,0.00,100.00,11.40,15.20,3.80,7125.00,TARP,TARP,1875.00,380.00,285.00,132.50,6,2,0,Yes
 Zone Information, WHOLEBUILDING-HOTEL/MOTEL ZN,0.0,25.00,75.00,11.40,50.00,89.15,13.30,1,1,1,0.00,100.00,75.00,100.00,11.40,15.20,3.80,7125.00,TARP,TARP,1875.00,380.00,285.00,132.50,6,2,0,Yes
 Zone Information, WHOLEBUILDING-LIBRARY ZN,0.0,0.00,0.00,0.00,50.00,10.85,1.90,1,1,1,0.00,100.00,0.00,25.00,0.00,3.80,3.80,7125.00,TARP,TARP,1875.00,0.00,0.00,0.00,6,0,0,Yes
 Zone Information, WHOLEBUILDING-LONG-TERM CARE - DWELLING UNITS ZN,0.0,75.00,25.00,0.00,89.15,50.00,1.90,1,1,1,75.00,100.00,0.00,100.00,0.00,3.80,3.80,7125.00,TARP,TARP,1875.00,0.00,0.00,0.00,6,0,0,Yes
 Zone Information, WHOLEBUILDING-LONG-TERM CARE - OTHER ZN,0.0,0.00,0.00,3.80,10.85,50.00,5.70,1,1,1,0.00,25.00,0.00,100.00,3.80,7.60,3.80,7125.00,TARP,TARP,1875.00,380.00,285.00,95.00,6,1,0,Yes
 Zone Information, WHOLEBUILDING-MANUFACTURING FACILITY ZN,0.0,0.00,0.00,7.60,10.85,50.00,9.50,1,1,1,0.00,25.00,0.00,100.00,7.60,11.40,3.80,7125.00,TARP,TARP,1875.00,380.00,285.00,95.00,6,1,0,Yes
 Zone Information, WHOLEBUILDING-MOTION PICTURE THEATRE ZN,0.0,25.00,25.00,0.00,50.00,50.00,1.90,1,1,1,25.00,75.00,25.00,75.00,0.00,3.80,3.80,9500.00,TARP,TARP,2500.00,0.00,0.00,0.00,6,0,0,Yes
 Zone Information, WHOLEBUILDING-MULTI-UNIT RESIDENTIAL BUILDING ZN,0.0,25.00,75.00,3.80,50.00,89.15,5.70,1,1,1,0.00,100.00,75.00,100.00,3.80,7.60,3.80,7125.00,TARP,TARP,1875.00,380.00,285.00,95.00,6,1,0,Yes
 Zone Information, WHOLEBUILDING-MUSEUM ZN,0.0,75.00,25.00,3.80,89.15,50.00,5.70,1,1,1,75.00,100.00,0.00,100.00,3.80,7.60,3.80,7125.00,TARP,TARP,1875.00,380.00,285.00,95.00,6,1,0,Yes
! <Zone Internal Gains Nominal>,Zone Name, Floor Area {m2},# Occupants,Area per Occupant {m2/person},Occupant per Area {person/m2},Interior Lighting {W/m2},Electric Load {W/m2},Gas Load {W/m2},Other Load {W/m2},Hot Water Eq {W/m2},Steam Equipment {W/m2},Sum Loads per Area {W/m2},Outdoor Controlled Baseboard Heat
 Zone Internal Gains Nominal, WHOLEBUILDING-AUTOMOTIVE FACILITY ZN,1875.00,93.8,19.993,5.002E-002,7.600,5.002,0.000,0.000,0.000,0.000,12.602,No
 Zone Internal Gains Nominal, WHOLEBUILDING-CONVENTION CENTRE ZN,2500.00,312.6,7.997,0.125,8.200,2.501,0.000,0.000,0.000,0.000,10.701,No
 Zone Internal Gains Nominal, WHOLEBUILDING-COURTHOUSE ZN,1875.00,125.0,14.995,6.669E-002,9.700,5.002,0.000,0.000,0.000,0.000,14.702,No
 Zone Internal Gains Nominal, WHOLEBUILDING-DINING - BAR LOUNGE/LEISURE ZN,1875.00,187.6,9.996,0.100,9.700,1.000,0.000,0.000,0.000,0.000,10.700,No
 Zone Internal Gains Nominal, WHOLEBUILDING-DINING - CAFETERIA/FAST FOOD ZN,1875.00,187.6,9.996,0.100,8.500,1.000,0.000,0.000,0.000,0.000,9.500,No
 Zone Internal Gains Nominal, WHOLEBUILDING-DINING - FAMILY ZN,2500.00,250.1,9.996,0.100,8.400,1.000,0.000,0.000,0.000,0.000,9.400,No
 Zone Internal Gains Nominal, WHOLEBUILDING-DORMITORY ZN,1875.00,62.5,29.989,3.335E-002,6.600,2.501,0.000,0.000,0.000,0.000,9.101,No
 Zone Internal Gains Nominal, WHOLEBUILDING-EXERCISE CENTRE ZN,1875.00,187.6,9.996,0.100,7.000,1.000,0.000,0.000,0.000,0.000,8.000,No
 Zone Internal Gains Nominal, WHOLEBUILDING-FIRE STATION ZN,1875.00,75.0,24.991,4.001E-002,5.700,2.501,0.000,0.000,0.000,0.000,8.201,No
 Zone Internal Gains Nominal, WHOLEBUILDING-GYMNASIUM ZN,1875.00,187.6,9.996,0.100,7.300,1.000,0.000,0.000,0.000,0.000,8.300,No
 Zone Internal Gains Nominal, WHOLEBUILDING-HEALTH CARE CLINIC ZN,2500.00,125.0,19.993,5.002E-002,8.800,7.503,0.000,0.000,0.000,0.000,16.303,No
 Zone Internal Gains Nominal, WHOLEBUILDING-HOSPITAL ZN,1875.00,93.8,19.993,5.002E-002,11.304,7.503,0.000,0.000,0.000,0.000,18.807,No
 Zone Internal Gains Nominal, WHOLEBUILDING-HOTEL/MOTEL ZN,1875.00,75.0,24.991,4.001E-002,8.100,2.501,0.000,0.000,0.000,0.000,10.601,No
 Zone Internal Gains Nominal, WHOLEBUILDING-LIBRARY ZN,1875.00,93.8,19.993,5.002E-002,8.400,2.501,0.000,0.000,0.000,0.000,10.901,No
 Zone Internal Gains Nominal, WHOLEBUILDING-LONG-TERM CARE - DWELLING UNITS ZN,1875.00,75.0,24.991,4.001E-002,5.502,1.501,0.000,0.000,0.000,0.000,7.003,No
 Zone Internal Gains Nominal, WHOLEBUILDING-LONG-TERM CARE - OTHER ZN,1875.00,75.0,24.991,4.001E-002,5.502,1.501,0.000,0.000,0.000,0.000,7.003,No
 Zone Internal Gains Nominal, WHOLEBUILDING-MANUFACTURING FACILITY ZN,1875.00,62.5,29.989,3.335E-002,9.700,10.004,0.000,0.000,0.000,0.000,19.704,No
 Zone Internal Gains Nominal, WHOLEBUILDING-MOTION PICTURE THEATRE ZN,2500.00,312.6,7.997,0.125,8.900,1.000,0.000,0.000,0.000,0.000,9.900,No
 Zone Internal Gains Nominal, WHOLEBUILDING-MULTI-UNIT RESIDENTIAL BUILDING ZN,1875.00,75.0,24.991,4.001E-002,7.300,5.002,0.000,0.000,0.000,0.000,12.302,No
 Zone Internal Gains Nominal, WHOLEBUILDING-MUSEUM ZN,1875.00,93.8,19.993,5.002E-002,11.400,2.501,0.000,0.000,0.000,0.000,13.901,No
! <People Internal Gains Nominal>,Name,Schedule Name,Zone Name,Zone Floor Area {m2},# Zone Occupants,Number of People {},People/Floor Area {person/m2},Floor Area per person {m2/person},Fraction Radiant,Fraction Convected,Sensible Fraction Calculation,Activity level,ASHRAE 55 Warnings,Carbon Dioxide Generation Rate,Nominal Minimum Number of People,Nominal Maximum Number of People
 People Internal Gains Nominal, WHOLEBUILDING-AUTOMOTIVE FACILITY ZN AUTOMOTIVE FACILITY WHOLEBUILDING PEOPLE,NECB-E-OCCUPANCY,WHOLEBUILDING-AUTOMOTIVE FACILITY ZN,1875.00,93.8,93.8,5.002E-002,19.993,0.300,0.700,AutoCalculate,NECB-ACTIVITY,No,3.8200E-008,0,84
 People Internal Gains Nominal, WHOLEBUILDING-CONVENTION CENTRE ZN CONVENTION CENTRE WHOLEBUILDING PEOPLE,NECB-C-OCCUPANCY,WHOLEBUILDING-CONVENTION CENTRE ZN,2500.00,312.6,312.6,0.125,7.997,0.300,0.700,AutoCalculate,NECB-ACTIVITY,No,3.8200E-008,0,281
 People Internal Gains Nominal, WHOLEBUILDING-COURTHOUSE ZN COURTHOUSE WHOLEBUILDING PEOPLE,NECB-A-OCCUPANCY,WHOLEBUILDING-COURTHOUSE ZN,1875.00,125.0,125.0,6.669E-002,14.995,0.300,0.700,AutoCalculate,NECB-ACTIVITY,No,3.8200E-008,0,113
 People Internal Gains Nominal, WHOLEBUILDING-DINING - BAR LOUNGE/LEISURE ZN DINING - BAR LOUNGE/LEISURE WHOLEBUILDING PEOPLE,NECB-B-OCCUPANCY,WHOLEBUILDING-DINING - BAR LOUNGE/LEISURE ZN,1875.00,187.6,187.6,0.100,9.996,0.300,0.700,AutoCalculate,NECB-ACTIVITY,No,3.8200E-008,0,169
 People Internal Gains Nominal, WHOLEBUILDING-DINING - CAFETERIA/FAST FOOD ZN DINING - CAFETERIA/FAST FOOD WHOLEBUILDING PEOPLE,NECB-B-OCCUPANCY,WHOLEBUILDING-DINING - CAFETERIA/FAST FOOD ZN,1875.00,187.6,187.6,0.100,9.996,0.300,0.700,AutoCalculate,NECB-ACTIVITY,No,3.8200E-008,0,169
 People Internal Gains Nominal, WHOLEBUILDING-DINING - FAMILY ZN DINING - FAMILY WHOLEBUILDING PEOPLE,NECB-B-OCCUPANCY,WHOLEBUILDING-DINING - FAMILY ZN,2500.00,250.1,250.1,0.100,9.996,0.300,0.700,AutoCalculate,NECB-ACTIVITY,No,3.8200E-008,0,225
 People Internal Gains Nominal, WHOLEBUILDING-DORMITORY ZN DORMITORY WHOLEBUILDING PEOPLE,NECB-G-OCCUPANCY,WHOLEBUILDING-DORMITORY ZN,1875.00,62.5,62.5,3.335E-002,29.989,0.300,0.700,AutoCalculate,NECB-ACTIVITY,No,3.8200E-008,19,56
 People Internal Gains Nominal, WHOLEBUILDING-EXERCISE CENTRE ZN EXERCISE CENTRE WHOLEBUILDING PEOPLE,NECB-B-OCCUPANCY,WHOLEBUILDING-EXERCISE CENTRE ZN,1875.00,187.6,187.6,0.100,9.996,0.300,0.700,AutoCalculate,NECB-ACTIVITY,No,3.8200E-008,0,169
 People Internal Gains Nominal, WHOLEBUILDING-FIRE STATION ZN FIRE STATION WHOLEBUILDING PEOPLE,NECB-F-OCCUPANCY,WHOLEBUILDING-FIRE STATION ZN,1875.00,75.0,75.0,4.001E-002,24.991,0.300,0.700,AutoCalculate,NECB-ACTIVITY,No,3.8200E-008,11,47
 People Internal Gains Nominal, WHOLEBUILDING-GYMNASIUM ZN GYMNASIUM WHOLEBUILDING PEOPLE,NECB-B-OCCUPANCY,WHOLEBUILDING-GYMNASIUM ZN,1875.00,187.6,187.6,0.100,9.996,0.300,0.700,AutoCalculate,NECB-ACTIVITY,No,3.8200E-008,0,169
 People Internal Gains Nominal, WHOLEBUILDING-HEALTH CARE CLINIC ZN HEALTH CARE CLINIC WHOLEBUILDING PEOPLE,NECB-A-OCCUPANCY,WHOLEBUILDING-HEALTH CARE CLINIC ZN,2500.00,125.0,125.0,5.002E-002,19.993,0.300,0.700,AutoCalculate,NECB-ACTIVITY,No,3.8200E-008,0,113
 People Internal Gains Nominal, WHOLEBUILDING-HOSPITAL ZN HOSPITAL WHOLEBUILDING PEOPLE,NECB-H-OCCUPANCY,WHOLEBUILDING-HOSPITAL ZN,1875.00,93.8,93.8,5.002E-002,19.993,0.300,0.700,AutoCalculate,NECB-ACTIVITY,No,3.8200E-008,84,84
 People Internal Gains Nominal, WHOLEBUILDING-HOTEL/MOTEL ZN HOTEL/MOTEL WHOLEBUILDING PEOPLE,NECB-F-OCCUPANCY,WHOLEBUILDING-HOTEL/MOTEL ZN,1875.00,75.0,75.0,4.001E-002,24.991,0.300,0.700,AutoCalculate,NECB-ACTIVITY,No,3.8200E-008,11,47
 People Internal Gains Nominal, WHOLEBUILDING-LIBRARY ZN LIBRARY WHOLEBUILDING PEOPLE,NECB-C-OCCUPANCY,WHOLEBUILDING-LIBRARY ZN,1875.00,93.8,93.8,5.002E-002,19.993,0.300,0.700,AutoCalculate,NECB-ACTIVITY,No,3.8200E-008,0,84
 People Internal Gains Nominal, WHOLEBUILDING-LONG-TERM CARE - DWELLING UNITS ZN LONG-TERM CARE - DWELLING UNITS WHOLEBUILDING PEOPLE,NECB-J-OCCUPANCY,WHOLEBUILDING-LONG-TERM CARE - DWELLING UNITS ZN,1875.00,75.0,75.0,4.001E-002,24.991,0.300,0.700,AutoCalculate,NECB-ACTIVITY,No,3.8200E-008,45,68
 People Internal Gains Nominal, WHOLEBUILDING-LONG-TERM CARE - OTHER ZN LONG-TERM CARE - OTHER WHOLEBUILDING PEOPLE,NECB-B-OCCUPANCY,WHOLEBUILDING-LONG-TERM CARE - OTHER ZN,1875.00,75.0,75.0,4.001E-002,24.991,0.300,0.700,AutoCalculate,NECB-ACTIVITY,No,3.8200E-008,0,68
 People Internal Gains Nominal, WHOLEBUILDING-MANUFACTURING FACILITY ZN MANUFACTURING FACILITY WHOLEBUILDING PEOPLE,NECB-A-OCCUPANCY,WHOLEBUILDING-MANUFACTURING FACILITY ZN,1875.00,62.5,62.5,3.335E-002,29.989,0.300,0.700,AutoCalculate,NECB-ACTIVITY,No,3.8200E-008,0,56
 People Internal Gains Nominal, WHOLEBUILDING-MOTION PICTURE THEATRE ZN MOTION PICTURE THEATRE WHOLEBUILDING PEOPLE,NECB-C-OCCUPANCY,WHOLEBUILDING-MOTION PICTURE THEATRE ZN,2500.00,312.6,312.6,0.125,7.997,0.300,0.700,AutoCalculate,NECB-ACTIVITY,No,3.8200E-008,0,281
 People Internal Gains Nominal, WHOLEBUILDING-MULTI-UNIT RESIDENTIAL BUILDING ZN MULTI-UNIT RESIDENTIAL BUILDING WHOLEBUILDING PEOPLE,NECB-G-OCCUPANCY,WHOLEBUILDING-MULTI-UNIT RESIDENTIAL BUILDING ZN,1875.00,75.0,75.0,4.001E-002,24.991,0.300,0.700,AutoCalculate,NECB-ACTIVITY,No,3.8200E-008,23,68
 People Internal Gains Nominal, WHOLEBUILDING-MUSEUM ZN MUSEUM WHOLEBUILDING PEOPLE,NECB-C-OCCUPANCY,WHOLEBUILDING-MUSEUM ZN,1875.00,93.8,93.8,5.002E-002,19.993,0.300,0.700,AutoCalculate,NECB-ACTIVITY,No,3.8200E-008,0,84
! <Lights Internal Gains Nominal>,Name,Schedule Name,Zone Name,Zone Floor Area {m2},# Zone Occupants,Lighting Level {W},Lights/Floor Area {W/m2},Lights per person {W/person},Fraction Return Air,Fraction Radiant,Fraction Short Wave,Fraction Convected,Fraction Replaceable,End-Use Category,Nominal Minimum Lighting Level {W},Nominal Maximum Lighting Level {W}
 Lights Internal Gains Nominal, WHOLEBUILDING-AUTOMOTIVE FACILITY ZN AUTOMOTIVE FACILITY WHOLEBUILDING LIGHTS,NECB-E-LIGHTING,WHOLEBUILDING-AUTOMOTIVE FACILITY ZN,1875.00,93.8,14249.877,7.600,151.943,0.000,0.500,0.200,0.300,1.000,General,712.494,12824.889
 Lights Internal Gains Nominal, WHOLEBUILDING-CONVENTION CENTRE ZN CONVENTION CENTRE WHOLEBUILDING LIGHTS,NECB-C-LIGHTING,WHOLEBUILDING-CONVENTION CENTRE ZN,2500.00,312.6,20499.840,8.200,65.576,0.000,0.500,0.200,0.300,1.000,General,1024.992,18449.856
 Lights Internal Gains Nominal, WHOLEBUILDING-COURTHOUSE ZN COURTHOUSE WHOLEBUILDING LIGHTS,NECB-A-OCCUPANCY-NECB-A-LIGHTING-0.0-0.0-0.0-LIGHT RULESET,WHOLEBUILDING-COURTHOUSE ZN,1875.00,125.0,18187.349,9.700,145.446,0.000,0.500,0.200,0.300,1.000,General,909.367,16368.614
 Lights Internal Gains Nominal, WHOLEBUILDING-DINING - BAR LOUNGE/LEISURE ZN DINING - BAR LOUNGE/LEISURE WHOLEBUILDING LIGHTS,NECB-B-OCCUPANCY-NECB-B-LIGHTING-0.0-0.0-0.0-LIGHT RULESET,WHOLEBUILDING-DINING - BAR LOUNGE/LEISURE ZN,1875.00,187.6,18187.349,9.700,96.964,0.000,0.500,0.200,0.300,1.000,General,1818.735,16368.614
 Lights Internal Gains Nominal, WHOLEBUILDING-DINING - CAFETERIA/FAST FOOD ZN DINING - CAFETERIA/FAST FOOD WHOLEBUILDING LIGHTS,NECB-B-LIGHTING,WHOLEBUILDING-DINING - CAFETERIA/FAST FOOD ZN,1875.00,187.6,15937.362,8.500,84.968,0.000,0.500,0.200,0.300,1.000,General,1593.736,14343.626
 Lights Internal Gains Nominal, WHOLEBUILDING-DINING - FAMILY ZN DINING - FAMILY WHOLEBUILDING LIGHTS,NECB-B-LIGHTING,WHOLEBUILDING-DINING - FAMILY ZN,2500.00,250.1,20999.824,8.400,83.969,0.000,0.500,0.200,0.300,1.000,General,2099.982,18899.842
 Lights Internal Gains Nominal, WHOLEBUILDING-DORMITORY ZN DORMITORY WHOLEBUILDING LIGHTS,NECB-G-LIGHTING,WHOLEBUILDING-DORMITORY ZN,1875.00,62.5,12374.898,6.600,197.926,0.000,0.500,0.200,0.300,1.000,General,0.000,11137.408
 Lights Internal Gains Nominal, WHOLEBUILDING-EXERCISE CENTRE ZN EXERCISE CENTRE WHOLEBUILDING LIGHTS,NECB-B-LIGHTING,WHOLEBUILDING-EXERCISE CENTRE ZN,1875.00,187.6,13124.893,7.000,69.974,0.000,0.500,0.200,0.300,1.000,General,1312.489,11812.404
 Lights Internal Gains Nominal, WHOLEBUILDING-FIRE STATION ZN FIRE STATION WHOLEBUILDING LIGHTS,NECB-F-LIGHTING,WHOLEBUILDING-FIRE STATION ZN,1875.00,75.0,10687.413,5.700,142.447,0.000,0.500,0.200,0.300,1.000,General,748.119,6733.070
 Lights Internal Gains Nominal, WHOLEBUILDING-GYMNASIUM ZN GYMNASIUM WHOLEBUILDING LIGHTS,NECB-B-LIGHTING,WHOLEBUILDING-GYMNASIUM ZN,1875.00,187.6,13687.395,7.300,72.973,0.000,0.500,0.200,0.300,1.000,General,1368.740,12318.656
 Lights Internal Gains Nominal, WHOLEBUILDING-HEALTH CARE CLINIC ZN HEALTH CARE CLINIC WHOLEBUILDING LIGHTS,NECB-A-OCCUPANCY-NECB-A-LIGHTING-0.0-0.0-0.0-LIGHT RULESET,WHOLEBUILDING-HEALTH CARE CLINIC ZN,2500.00,125.0,21999.818,8.800,175.935,0.000,0.500,0.200,0.300,1.000,General,1099.991,19799.836
 Lights Internal Gains Nominal, WHOLEBUILDING-HOSPITAL ZN HOSPITAL WHOLEBUILDING LIGHTS,NECB-H-OCCUPANCY-NECB-H-LIGHTING-0.0-0.0-0.0-LIGHT RULESET,WHOLEBUILDING-HOSPITAL ZN,1875.00,93.8,21195.200,11.304,226.000,0.000,0.500,0.200,0.300,1.000,General,19075.680,19075.680
 Lights Internal Gains Nominal, WHOLEBUILDING-HOTEL/MOTEL ZN HOTEL/MOTEL WHOLEBUILDING LIGHTS,NECB-F-LIGHTING,WHOLEBUILDING-HOTEL/MOTEL ZN,1875.00,75.0,15187.366,8.100,202.425,0.000,0.500,0.200,0.300,1.000,General,1063.116,9568.041
 Lights Internal Gains Nominal, WHOLEBUILDING-LIBRARY ZN LIBRARY WHOLEBUILDING LIGHTS,NECB-C-LIGHTING,WHOLEBUILDING-LIBRARY ZN,1875.00,93.8,15749.868,8.400,167.938,0.000,0.500,0.200,0.300,1.000,General,787.493,14174.881
 Lights Internal Gains Nominal, WHOLEBUILDING-LONG-TERM CARE - DWELLING UNITS ZN LONG-TERM CARE - DWELLING UNITS WHOLEBUILDING LIGHTS,NECB-J-LIGHTING,WHOLEBUILDING-LONG-TERM CARE - DWELLING UNITS ZN,1875.00,75.0,10316.248,5.502,137.500,0.000,0.500,0.200,0.300,1.000,General,1031.625,7221.373
 Lights Internal Gains Nominal, WHOLEBUILDING-LONG-TERM CARE - OTHER ZN LONG-TERM CARE - OTHER WHOLEBUILDING LIGHTS,NECB-B-LIGHTING,WHOLEBUILDING-LONG-TERM CARE - OTHER ZN,1875.00,75.0,10316.248,5.502,137.500,0.000,0.500,0.200,0.300,1.000,General,1031.625,9284.623
 Lights Internal Gains Nominal, WHOLEBUILDING-MANUFACTURING FACILITY ZN MANUFACTURING FACILITY WHOLEBUILDING LIGHTS,NECB-A-OCCUPANCY-NECB-A-LIGHTING-0.0-0.0-0.0-LIGHT RULESET,WHOLEBUILDING-MANUFACTURING FACILITY ZN,1875.00,62.5,18187.349,9.700,290.892,0.000,0.500,0.200,0.300,1.000,General,909.367,16368.614
 Lights Internal Gains Nominal, WHOLEBUILDING-MOTION PICTURE THEATRE ZN MOTION PICTURE THEATRE WHOLEBUILDING LIGHTS,NECB-C-OCCUPANCY-NECB-C-LIGHTING-0.0-0.0-0.0-LIGHT RULESET,WHOLEBUILDING-MOTION PICTURE THEATRE ZN,2500.00,312.6,22249.810,8.900,71.174,0.000,0.500,0.200,0.300,1.000,General,1112.491,20024.829
 Lights Internal Gains Nominal, WHOLEBUILDING-MULTI-UNIT RESIDENTIAL BUILDING ZN MULTI-UNIT RESIDENTIAL BUILDING WHOLEBUILDING LIGHTS,NECB-G-LIGHTING,WHOLEBUILDING-MULTI-UNIT RESIDENTIAL BUILDING ZN,1875.00,75.0,13687.395,7.300,182.432,0.000,0.500,0.200,0.300,1.000,General,0.000,12318.656
 Lights Internal Gains Nominal, WHOLEBUILDING-MUSEUM ZN MUSEUM WHOLEBUILDING LIGHTS,NECB-C-OCCUPANCY-NECB-C-LIGHTING-0.0-0.0-0.0-LIGHT RULESET,WHOLEBUILDING-MUSEUM ZN,1875.00,93.8,21374.825,11.400,227.915,0.000,0.500,0.200,0.300,1.000,General,1068.741,19237.343
! <ElectricEquipment Internal Gains Nominal>,Name,Schedule Name,Zone Name,Zone Floor Area {m2},# Zone Occupants,Equipment Level {W},Equipment/Floor Area {W/m2},Equipment per person {W/person},Fraction Latent,Fraction Radiant,Fraction Lost,Fraction Convected,End-Use SubCategory,Nominal Minimum Equipment Level {W},Nominal Maximum Equipment Level {W}
 ElectricEquipment Internal Gains Nominal, WHOLEBUILDING-AUTOMOTIVE FACILITY ZN AUTOMOTIVE FACILITY WHOLEBUILDING ELEC EQUIP,NECB-E-ELECTRIC-EQUIPMENT,WHOLEBUILDING-AUTOMOTIVE FACILITY ZN,1875.00,93.8,9378.407,5.002,100.000,0.000,0.500,0.000,0.500,General,468.920,8440.566
 ElectricEquipment Internal Gains Nominal, WHOLEBUILDING-CONVENTION CENTRE ZN CONVENTION CENTRE WHOLEBUILDING ELEC EQUIP,NECB-C-ELECTRIC-EQUIPMENT,WHOLEBUILDING-CONVENTION CENTRE ZN,2500.00,312.6,6252.271,2.501,20.000,0.000,0.500,0.000,0.500,General,312.614,5627.044
 ElectricEquipment Internal Gains Nominal, WHOLEBUILDING-COURTHOUSE ZN COURTHOUSE WHOLEBUILDING ELEC EQUIP,NECB-A-ELECTRIC-EQUIPMENT,WHOLEBUILDING-COURTHOUSE ZN,1875.00,125.0,9378.407,5.002,75.000,0.000,0.500,0.000,0.500,General,1875.681,8440.566
 ElectricEquipment Internal Gains Nominal, WHOLEBUILDING-DINING - BAR LOUNGE/LEISURE ZN DINING - BAR LOUNGE/LEISURE WHOLEBUILDING ELEC EQUIP,NECB-B-ELECTRIC-EQUIPMENT,WHOLEBUILDING-DINING - BAR LOUNGE/LEISURE ZN,1875.00,187.6,1875.681,1.000,10.000,0.000,0.500,0.000,0.500,General,187.568,1688.113
 ElectricEquipment Internal Gains Nominal, WHOLEBUILDING-DINING - CAFETERIA/FAST FOOD ZN DINING - CAFETERIA/FAST FOOD WHOLEBUILDING ELEC EQUIP,NECB-B-ELECTRIC-EQUIPMENT,WHOLEBUILDING-DINING - CAFETERIA/FAST FOOD ZN,1875.00,187.6,1875.681,1.000,10.000,0.000,0.500,0.000,0.500,General,187.568,1688.113
 ElectricEquipment Internal Gains Nominal, WHOLEBUILDING-DINING - FAMILY ZN DINING - FAMILY WHOLEBUILDING ELEC EQUIP,NECB-B-ELECTRIC-EQUIPMENT,WHOLEBUILDING-DINING - FAMILY ZN,2500.00,250.1,2500.909,1.000,10.000,0.000,0.500,0.000,0.500,General,250.091,2250.818
 ElectricEquipment Internal Gains Nominal, WHOLEBUILDING-DORMITORY ZN DORMITORY WHOLEBUILDING ELEC EQUIP,NECB-G-ELECTRIC-EQUIPMENT,WHOLEBUILDING-DORMITORY ZN,1875.00,62.5,4689.204,2.501,75.000,0.000,0.500,0.000,0.500,General,937.841,4220.283
 ElectricEquipment Internal Gains Nominal, WHOLEBUILDING-EXERCISE CENTRE ZN EXERCISE CENTRE WHOLEBUILDING ELEC EQUIP,NECB-B-ELECTRIC-EQUIPMENT,WHOLEBUILDING-EXERCISE CENTRE ZN,1875.00,187.6,1875.681,1.000,10.000,0.000,0.500,0.000,0.500,General,187.568,1688.113
 ElectricEquipment Internal Gains Nominal, WHOLEBUILDING-FIRE STATION ZN FIRE STATION WHOLEBUILDING ELEC EQUIP,NECB-F-ELECTRIC-EQUIPMENT,WHOLEBUILDING-FIRE STATION ZN,1875.00,75.0,4689.204,2.501,62.500,0.000,0.500,0.000,0.500,General,328.244,2954.198
 ElectricEquipment Internal Gains Nominal, WHOLEBUILDING-GYMNASIUM ZN GYMNASIUM WHOLEBUILDING ELEC EQUIP,NECB-B-ELECTRIC-EQUIPMENT,WHOLEBUILDING-GYMNASIUM ZN,1875.00,187.6,1875.681,1.000,10.000,0.000,0.500,0.000,0.500,General,187.568,1688.113
 ElectricEquipment Internal Gains Nominal, WHOLEBUILDING-HEALTH CARE CLINIC ZN HEALTH CARE CLINIC WHOLEBUILDING ELEC EQUIP,NECB-A-ELECTRIC-EQUIPMENT,WHOLEBUILDING-HEALTH CARE CLINIC ZN,2500.00,125.0,18756.814,7.503,150.000,0.000,0.500,0.000,0.500,General,3751.363,16881.133
 ElectricEquipment Internal Gains Nominal, WHOLEBUILDING-HOSPITAL ZN HOSPITAL WHOLEBUILDING ELEC EQUIP,NECB-H-ELECTRIC-EQUIPMENT,WHOLEBUILDING-HOSPITAL ZN,1875.00,93.8,14067.611,7.503,150.000,0.000,0.500,0.000,0.500,General,12660.850,12660.850
 ElectricEquipment Internal Gains Nominal, WHOLEBUILDING-HOTEL/MOTEL ZN HOTEL/MOTEL WHOLEBUILDING ELEC EQUIP,NECB-F-ELECTRIC-EQUIPMENT,WHOLEBUILDING-HOTEL/MOTEL ZN,1875.00,75.0,4689.204,2.501,62.500,0.000,0.500,0.000,0.500,General,328.244,2954.198
 ElectricEquipment Internal Gains Nominal, WHOLEBUILDING-LIBRARY ZN LIBRARY WHOLEBUILDING ELEC EQUIP,NECB-C-ELECTRIC-EQUIPMENT,WHOLEBUILDING-LIBRARY ZN,1875.00,93.8,4689.204,2.501,50.000,0.000,0.500,0.000,0.500,General,234.460,4220.283
 ElectricEquipment Internal Gains Nominal, WHOLEBUILDING-LONG-TERM CARE - DWELLING UNITS ZN LONG-TERM CARE - DWELLING UNITS WHOLEBUILDING ELEC EQUIP,NECB-J-ELECTRIC-EQUIPMENT,WHOLEBUILDING-LONG-TERM CARE - DWELLING UNITS ZN,1875.00,75.0,2813.522,1.501,37.500,0.000,0.500,0.000,0.500,General,281.352,1969.465
 ElectricEquipment Internal Gains Nominal, WHOLEBUILDING-LONG-TERM CARE - OTHER ZN LONG-TERM CARE - OTHER WHOLEBUILDING ELEC EQUIP,NECB-B-ELECTRIC-EQUIPMENT,WHOLEBUILDING-LONG-TERM CARE - OTHER ZN,1875.00,75.0,2813.522,1.501,37.500,0.000,0.500,0.000,0.500,General,281.352,2532.170
 ElectricEquipment Internal Gains Nominal, WHOLEBUILDING-MANUFACTURING FACILITY ZN MANUFACTURING FACILITY WHOLEBUILDING ELEC EQUIP,NECB-A-ELECTRIC-EQUIPMENT,WHOLEBUILDING-MANUFACTURING FACILITY ZN,1875.00,62.5,18756.814,10.004,300.000,0.000,0.500,0.000,0.500,General,3751.363,16881.133
 ElectricEquipment Internal Gains Nominal, WHOLEBUILDING-MOTION PICTURE THEATRE ZN MOTION PICTURE THEATRE WHOLEBUILDING ELEC EQUIP,NECB-C-ELECTRIC-EQUIPMENT,WHOLEBUILDING-MOTION PICTURE THEATRE ZN,2500.00,312.6,2500.909,1.000,8.000,0.000,0.500,0.000,0.500,General,125.045,2250.818
 ElectricEquipment Internal Gains Nominal, WHOLEBUILDING-MULTI-UNIT RESIDENTIAL BUILDING ZN MULTI-UNIT RESIDENTIAL BUILDING WHOLEBUILDING ELEC EQUIP,NECB-G-ELECTRIC-EQUIPMENT,WHOLEBUILDING-MULTI-UNIT RESIDENTIAL BUILDING ZN,1875.00,75.0,9378.407,5.002,125.000,0.000,0.500,0.000,0.500,General,1875.681,8440.566
 ElectricEquipment Internal Gains Nominal, WHOLEBUILDING-MUSEUM ZN MUSEUM WHOLEBUILDING ELEC EQUIP,NECB-C-ELECTRIC-EQUIPMENT,WHOLEBUILDING-MUSEUM ZN,1875.00,93.8,4689.204,2.501,50.000,0.000,0.500,0.000,0.500,General,234.460,4220.283
! <Shadowing/Sun Position Calculations Annual Simulations>, Calculation Method, Value {days}, Allowable Number Figures in Shadow Overlap {}, Polygon Clipping Algorithm, Sky Diffuse Modeling Algorithm, External Shading Calculation Method, Output External Shading Calculation Results, Disable Self-Shading Within Shading Zone Groups, Disable Self-Shading From Shading Zone Groups to Other Zones
Shadowing/Sun Position Calculations Annual Simulations,AverageOverDaysInFrequency,20,15000,SutherlandHodgman,SimpleSkyDiffuseModeling,InternalCalculation,No,No,No
! <ZoneInfiltration Airflow Stats Nominal>,Name,Schedule Name,Zone Name, Zone Floor Area {m2}, # Zone Occupants,Design Volume Flow Rate {m3/s},Volume Flow Rate/Floor Area {m3/s/m2},Volume Flow Rate/Exterior Surface Area {m3/s/m2},ACH - Air Changes per Hour,Equation A - Constant Term Coefficient {},Equation B - Temperature Term Coefficient {1/C},Equation C - Velocity Term Coefficient {s/m}, Equation D - Velocity Squared Term Coefficient {s2/m2}
 ZoneInfiltration Airflow Stats Nominal, WHOLEBUILDING-AUTOMOTIVE FACILITY INFILTRATION,ALWAYS ON DISCRETE,WHOLEBUILDING-AUTOMOTIVE FACILITY ZN,1875.00,93.8,0.564,3.007E-004,2.500E-004,0.285,0.000,0.000,0.224,0.000
 ZoneInfiltration Airflow Stats Nominal, WHOLEBUILDING-COURTHOUSE INFILTRATION,ALWAYS ON DISCRETE,WHOLEBUILDING-COURTHOUSE ZN,1875.00,125.0,9.500E-002,5.067E-005,2.500E-004,4.800E-002,0.000,0.000,0.224,0.000
 ZoneInfiltration Airflow Stats Nominal, WHOLEBUILDING-DINING - BAR LOUNGE/LEISURE INFILTRATION,ALWAYS ON DISCRETE,WHOLEBUILDING-DINING - BAR LOUNGE/LEISURE ZN,1875.00,187.6,9.500E-002,5.067E-005,2.500E-004,4.800E-002,0.000,0.000,0.224,0.000
 ZoneInfiltration Airflow Stats Nominal, WHOLEBUILDING-DINING - FAMILY INFILTRATION,ALWAYS ON DISCRETE,WHOLEBUILDING-DINING - FAMILY ZN,2500.00,250.1,0.625,2.500E-004,2.500E-004,0.237,0.000,0.000,0.224,0.000
 ZoneInfiltration Airflow Stats Nominal, WHOLEBUILDING-DORMITORY INFILTRATION,ALWAYS ON DISCRETE,WHOLEBUILDING-DORMITORY ZN,1875.00,62.5,9.500E-002,5.067E-005,2.500E-004,4.800E-002,0.000,0.000,0.224,0.000
 ZoneInfiltration Airflow Stats Nominal, WHOLEBUILDING-EXERCISE CENTRE INFILTRATION,ALWAYS ON DISCRETE,WHOLEBUILDING-EXERCISE CENTRE ZN,1875.00,187.6,9.500E-002,5.067E-005,2.500E-004,4.800E-002,0.000,0.000,0.224,0.000
 ZoneInfiltration Airflow Stats Nominal, WHOLEBUILDING-GYMNASIUM INFILTRATION,ALWAYS ON DISCRETE,WHOLEBUILDING-GYMNASIUM ZN,1875.00,187.6,0.564,3.007E-004,2.500E-004,0.285,0.000,0.000,0.224,0.000
 ZoneInfiltration Airflow Stats Nominal, WHOLEBUILDING-HOSPITAL INFILTRATION,ALWAYS ON DISCRETE,WHOLEBUILDING-HOSPITAL ZN,1875.00,93.8,0.564,3.007E-004,2.500E-004,0.285,0.000,0.000,0.224,0.000
 ZoneInfiltration Airflow Stats Nominal, WHOLEBUILDING-HOTEL/MOTEL INFILTRATION,ALWAYS ON DISCRETE,WHOLEBUILDING-HOTEL/MOTEL ZN,1875.00,75.0,0.564,3.007E-004,2.500E-004,0.285,0.000,0.000,0.224,0.000
 ZoneInfiltration Airflow Stats Nominal, WHOLEBUILDING-LONG-TERM CARE - OTHER INFILTRATION,ALWAYS ON DISCRETE,WHOLEBUILDING-LONG-TERM CARE - OTHER ZN,1875.00,75.0,9.500E-002,5.067E-005,2.500E-004,4.800E-002,0.000,0.000,0.224,0.000
 ZoneInfiltration Airflow Stats Nominal, WHOLEBUILDING-MANUFACTURING FACILITY INFILTRATION,ALWAYS ON DISCRETE,WHOLEBUILDING-MANUFACTURING FACILITY ZN,1875.00,62.5,9.500E-002,5.067E-005,2.500E-004,4.800E-002,0.000,0.000,0.224,0.000
 ZoneInfiltration Airflow Stats Nominal, WHOLEBUILDING-MULTI-UNIT RESIDENTIAL BUILDING INFILTRATION,ALWAYS ON DISCRETE,WHOLEBUILDING-MULTI-UNIT RESIDENTIAL BUILDING ZN,1875.00,75.0,9.500E-002,5.067E-005,2.500E-004,4.800E-002,0.000,0.000,0.224,0.000
 ZoneInfiltration Airflow Stats Nominal, WHOLEBUILDING-MUSEUM INFILTRATION,ALWAYS ON DISCRETE,WHOLEBUILDING-MUSEUM ZN,1875.00,93.8,9.500E-002,5.067E-005,2.500E-004,4.800E-002,0.000,0.000,0.224,0.000
! <AirFlow Model>, Simple
 AirFlow Model, Simple
! <RoomAir Model>, Zone Name, Mixing/Mundt/UCSDDV/UCSDCV/UCSDUFI/UCSDUFE/User Defined
RoomAir Model,WHOLEBUILDING-AUTOMOTIVE FACILITY ZN,Mixing/Well-Stirred
RoomAir Model,WHOLEBUILDING-CONVENTION CENTRE ZN,Mixing/Well-Stirred
RoomAir Model,WHOLEBUILDING-COURTHOUSE ZN,Mixing/Well-Stirred
RoomAir Model,WHOLEBUILDING-DINING - BAR LOUNGE/LEISURE ZN,Mixing/Well-Stirred
RoomAir Model,WHOLEBUILDING-DINING - CAFETERIA/FAST FOOD ZN,Mixing/Well-Stirred
RoomAir Model,WHOLEBUILDING-DINING - FAMILY ZN,Mixing/Well-Stirred
RoomAir Model,WHOLEBUILDING-DORMITORY ZN,Mixing/Well-Stirred
RoomAir Model,WHOLEBUILDING-EXERCISE CENTRE ZN,Mixing/Well-Stirred
RoomAir Model,WHOLEBUILDING-FIRE STATION ZN,Mixing/Well-Stirred
RoomAir Model,WHOLEBUILDING-GYMNASIUM ZN,Mixing/Well-Stirred
RoomAir Model,WHOLEBUILDING-HEALTH CARE CLINIC ZN,Mixing/Well-Stirred
RoomAir Model,WHOLEBUILDING-HOSPITAL ZN,Mixing/Well-Stirred
RoomAir Model,WHOLEBUILDING-HOTEL/MOTEL ZN,Mixing/Well-Stirred
RoomAir Model,WHOLEBUILDING-LIBRARY ZN,Mixing/Well-Stirred
RoomAir Model,WHOLEBUILDING-LONG-TERM CARE - DWELLING UNITS ZN,Mixing/Well-Stirred
RoomAir Model,WHOLEBUILDING-LONG-TERM CARE - OTHER ZN,Mixing/Well-Stirred
RoomAir Model,WHOLEBUILDING-MANUFACTURING FACILITY ZN,Mixing/Well-Stirred
RoomAir Model,WHOLEBUILDING-MOTION PICTURE THEATRE ZN,Mixing/Well-Stirred
RoomAir Model,WHOLEBUILDING-MULTI-UNIT RESIDENTIAL BUILDING ZN,Mixing/Well-Stirred
RoomAir Model,WHOLEBUILDING-MUSEUM ZN,Mixing/Well-Stirred
! <AirflowNetwork Model:Control>, No Multizone or Distribution/Multizone with Distribution/Multizone without Distribution/Multizone with Distribution only during Fan Operation
AirflowNetwork Model:Control,NoMultizoneOrDistribution
! <Zone Volume Capacitance Multiplier>, Sensible Heat Capacity Multiplier, Moisture Capacity Multiplier, Carbon Dioxide Capacity Multiplier, Generic Contaminant Capacity Multiplier
Zone Volume Capacitance Multiplier,   1.000 ,   1.000,   1.000,   1.000
! <Load Timesteps in Zone Design Calculation Averaging Window>, Value
 Load Timesteps in Zone Design Calculation Averaging Window,    6
! <Heating Sizing Factor Information>, Sizing Factor ID, Value
 Heating Sizing Factor Information, Global,   1.2500    
 Heating Sizing Factor Information, Zone WHOLEBUILDING-AUTOMOTIVE FACILITY ZN,   1.2500    
 Heating Sizing Factor Information, Zone WHOLEBUILDING-CONVENTION CENTRE ZN,   1.2500    
 Heating Sizing Factor Information, Zone WHOLEBUILDING-COURTHOUSE ZN,   1.2500    
 Heating Sizing Factor Information, Zone WHOLEBUILDING-DINING - BAR LOUNGE/LEISURE ZN,   1.2500    
 Heating Sizing Factor Information, Zone WHOLEBUILDING-DINING - CAFETERIA/FAST FOOD ZN,   1.2500    
 Heating Sizing Factor Information, Zone WHOLEBUILDING-DINING - FAMILY ZN,   1.2500    
 Heating Sizing Factor Information, Zone WHOLEBUILDING-DORMITORY ZN,   1.2500    
 Heating Sizing Factor Information, Zone WHOLEBUILDING-EXERCISE CENTRE ZN,   1.2500    
 Heating Sizing Factor Information, Zone WHOLEBUILDING-FIRE STATION ZN,   1.2500    
 Heating Sizing Factor Information, Zone WHOLEBUILDING-GYMNASIUM ZN,   1.2500    
 Heating Sizing Factor Information, Zone WHOLEBUILDING-HEALTH CARE CLINIC ZN,   1.2500    
 Heating Sizing Factor Information, Zone WHOLEBUILDING-HOSPITAL ZN,   1.2500    
 Heating Sizing Factor Information, Zone WHOLEBUILDING-HOTEL/MOTEL ZN,   1.2500    
 Heating Sizing Factor Information, Zone WHOLEBUILDING-LIBRARY ZN,   1.2500    
 Heating Sizing Factor Information, Zone WHOLEBUILDING-LONG-TERM CARE - DWELLING UNITS ZN,   1.2500    
 Heating Sizing Factor Information, Zone WHOLEBUILDING-LONG-TERM CARE - OTHER ZN,   1.2500    
 Heating Sizing Factor Information, Zone WHOLEBUILDING-MANUFACTURING FACILITY ZN,   1.2500    
 Heating Sizing Factor Information, Zone WHOLEBUILDING-MOTION PICTURE THEATRE ZN,   1.2500    
 Heating Sizing Factor Information, Zone WHOLEBUILDING-MULTI-UNIT RESIDENTIAL BUILDING ZN,   1.2500    
 Heating Sizing Factor Information, Zone WHOLEBUILDING-MUSEUM ZN,   1.2500    
! <Cooling Sizing Factor Information>, Sizing Factor ID, Value
 Cooling Sizing Factor Information, Global,   1.1500    
 Cooling Sizing Factor Information, Zone WHOLEBUILDING-AUTOMOTIVE FACILITY ZN,   1.1500    
 Cooling Sizing Factor Information, Zone WHOLEBUILDING-CONVENTION CENTRE ZN,   1.1500    
 Cooling Sizing Factor Information, Zone WHOLEBUILDING-COURTHOUSE ZN,   1.1500    
 Cooling Sizing Factor Information, Zone WHOLEBUILDING-DINING - BAR LOUNGE/LEISURE ZN,   1.1500    
 Cooling Sizing Factor Information, Zone WHOLEBUILDING-DINING - CAFETERIA/FAST FOOD ZN,   1.1500    
 Cooling Sizing Factor Information, Zone WHOLEBUILDING-DINING - FAMILY ZN,   1.1500    
 Cooling Sizing Factor Information, Zone WHOLEBUILDING-DORMITORY ZN,   1.1500    
 Cooling Sizing Factor Information, Zone WHOLEBUILDING-EXERCISE CENTRE ZN,   1.1500    
 Cooling Sizing Factor Information, Zone WHOLEBUILDING-FIRE STATION ZN,   1.1500    
 Cooling Sizing Factor Information, Zone WHOLEBUILDING-GYMNASIUM ZN,   1.1500    
 Cooling Sizing Factor Information, Zone WHOLEBUILDING-HEALTH CARE CLINIC ZN,   1.1500    
 Cooling Sizing Factor Information, Zone WHOLEBUILDING-HOSPITAL ZN,   1.1500    
 Cooling Sizing Factor Information, Zone WHOLEBUILDING-HOTEL/MOTEL ZN,   1.1500    
 Cooling Sizing Factor Information, Zone WHOLEBUILDING-LIBRARY ZN,   1.1500    
 Cooling Sizing Factor Information, Zone WHOLEBUILDING-LONG-TERM CARE - DWELLING UNITS ZN,   1.1500    
 Cooling Sizing Factor Information, Zone WHOLEBUILDING-LONG-TERM CARE - OTHER ZN,   1.1500    
 Cooling Sizing Factor Information, Zone WHOLEBUILDING-MANUFACTURING FACILITY ZN,   1.1500    
 Cooling Sizing Factor Information, Zone WHOLEBUILDING-MOTION PICTURE THEATRE ZN,   1.1500    
 Cooling Sizing Factor Information, Zone WHOLEBUILDING-MULTI-UNIT RESIDENTIAL BUILDING ZN,   1.1500    
 Cooling Sizing Factor Information, Zone WHOLEBUILDING-MUSEUM ZN,   1.1500    
! <Zone Sizing Information>, Zone Name, Load Type, Calc Des Load {W}, User Des Load {W}, Calc Des Air Flow Rate {m3/s}, User Des Air Flow Rate {m3/s}, Design Day Name, Date/Time of Peak, Temperature at Peak {C}, Humidity Ratio at Peak {kgWater/kgDryAir}, Floor Area {m2}, # Occupants, Calc Outdoor Air Flow Rate {m3/s}, Calc DOAS Heat Addition Rate {W}
 Zone Sizing Information, WHOLEBUILDING-AUTOMOTIVE FACILITY ZN, Cooling, 64210.53558, 73842.11592, 5.45917, 6.27804, FORT MCMURRAY AP ANN CLG .4% CONDNS DB=>MWB, 7/21 13:30:00, 28.59000, 8.76969E-003, 1875.00000, 93.78407, 2.15265, 0.00000
 Zone Sizing Information, WHOLEBUILDING-AUTOMOTIVE FACILITY ZN, Heating, 40144.38666, 50180.48333, 1.85567, 2.31959, FORT MCMURRAY AP ANN HTG 99.6% CONDNS DB, 1/21 09:00:00, -36.20000, 1.25811E-004, 1875.00000, 93.78407, 2.15265, 0.00000
 Zone Sizing Information, WHOLEBUILDING-CONVENTION CENTRE ZN, Cooling, 43033.08899, 49488.05234, 3.65915, 4.20802, FORT MCMURRAY AP ANN CLG .4% CONDNS DB=>MWB, 7/21 17:00:00, 27.16400, 8.76969E-003, 2500.00000, 312.61357, 1.86690, 0.00000
 Zone Sizing Information, WHOLEBUILDING-CONVENTION CENTRE ZN, Heating, 0.00000, 0.00000, 0.00000, 1.86690, FORT MCMURRAY AP ANN HTG 99.6% CONDNS DB, , -36.20000, 1.25811E-004, 2500.00000, 312.61357, 1.86690, 0.00000
 Zone Sizing Information, WHOLEBUILDING-COURTHOUSE ZN, Cooling, 49997.96089, 57497.65503, 4.25084, 4.88846, FORT MCMURRAY AP ANN CLG .4% CONDNS DB=>MWB, 7/21 10:00:00, 24.18800, 8.76969E-003, 1875.00000, 125.04543, 0.86678, 0.00000
 Zone Sizing Information, WHOLEBUILDING-COURTHOUSE ZN, Heating, 7655.33932, 9569.17415, 0.35043, 0.86678, FORT MCMURRAY AP ANN HTG 99.6% CONDNS DB, 1/21 08:00:00, -36.20000, 1.25811E-004, 1875.00000, 125.04543, 0.86678, 0.00000
 Zone Sizing Information, WHOLEBUILDING-DINING - BAR LOUNGE/LEISURE ZN, Cooling, 30855.28885, 35483.58218, 2.62345, 3.01696, FORT MCMURRAY AP ANN CLG .4% CONDNS DB=>MWB, 7/21 20:20:00, 22.32800, 8.76969E-003, 1875.00000, 187.56814, 2.38125, 0.00000
 Zone Sizing Information, WHOLEBUILDING-DINING - BAR LOUNGE/LEISURE ZN, Heating, 18168.71941, 22710.89927, 0.81834, 2.38125, FORT MCMURRAY AP ANN HTG 99.6% CONDNS DB, 1/21 10:00:00, -36.20000, 1.25811E-004, 1875.00000, 187.56814, 2.38125, 0.00000
 Zone Sizing Information, WHOLEBUILDING-DINING - CAFETERIA/FAST FOOD ZN, Cooling, 25556.84842, 29390.37568, 2.17306, 2.49902, FORT MCMURRAY AP ANN CLG .4% CONDNS DB=>MWB, 7/21 21:00:00, 21.58400, 8.76969E-003, 1875.00000, 187.56814, 2.38125, 0.00000
 Zone Sizing Information, WHOLEBUILDING-DINING - CAFETERIA/FAST FOOD ZN, Heating, 0.00000, 0.00000, 0.00000, 2.38125, FORT MCMURRAY AP ANN HTG 99.6% CONDNS DB, , -36.20000, 1.25811E-004, 1875.00000, 187.56814, 2.38125, 0.00000
 Zone Sizing Information, WHOLEBUILDING-DINING - FAMILY ZN, Cooling, 60462.85335, 69532.28135, 5.14082, 5.91194, FORT MCMURRAY AP ANN CLG .4% CONDNS DB=>MWB, 7/21 13:10:00, 28.38333, 8.76969E-003, 2500.00000, 250.09086, 3.17500, 0.00000
 Zone Sizing Information, WHOLEBUILDING-DINING - FAMILY ZN, Heating, 28312.41985, 35390.52481, 1.28291, 3.17500, FORT MCMURRAY AP ANN HTG 99.6% CONDNS DB, 1/21 10:00:00, -36.20000, 1.25811E-004, 2500.00000, 250.09086, 3.17500, 0.00000
 Zone Sizing Information, WHOLEBUILDING-DORMITORY ZN, Cooling, 26393.09737, 30352.06198, 2.24381, 2.58038, FORT MCMURRAY AP ANN CLG .4% CONDNS DB=>MWB, 7/21 20:00:00, 22.70000, 8.76969E-003, 1875.00000, 62.52271, 0.71438, 0.00000
 Zone Sizing Information, WHOLEBUILDING-DORMITORY ZN, Heating, 17562.88995, 21953.61244, 0.80674, 1.00843, FORT MCMURRAY AP ANN HTG 99.6% CONDNS DB, 1/21 09:00:00, -36.20000, 1.25811E-004, 1875.00000, 62.52271, 0.71438, 0.00000
 Zone Sizing Information, WHOLEBUILDING-EXERCISE CENTRE ZN, Cooling, 34971.63995, 40217.38594, 2.97344, 3.41946, FORT MCMURRAY AP ANN CLG .4% CONDNS DB=>MWB, 7/21 13:10:00, 28.38333, 8.76969E-003, 1875.00000, 187.56814, 2.34315, 0.00000
 Zone Sizing Information, WHOLEBUILDING-EXERCISE CENTRE ZN, Heating, 8549.08946, 10686.36183, 0.38933, 2.34315, FORT MCMURRAY AP ANN HTG 99.6% CONDNS DB, 1/21 10:00:00, -36.20000, 1.25811E-004, 1875.00000, 187.56814, 2.34315, 0.00000
 Zone Sizing Information, WHOLEBUILDING-FIRE STATION ZN, Cooling, 9497.19476, 10921.77398, 0.80738, 1.40970, FORT MCMURRAY AP ANN CLG .4% CONDNS DB=>MWB, 7/21 22:00:00, 20.46800, 8.76969E-003, 1875.00000, 75.02726, 1.40970, 0.00000
 Zone Sizing Information, WHOLEBUILDING-FIRE STATION ZN, Heating, 0.00000, 0.00000, 0.00000, 1.40970, FORT MCMURRAY AP ANN HTG 99.6% CONDNS DB, , -36.20000, 1.25811E-004, 1875.00000, 75.02726, 1.40970, 0.00000
 Zone Sizing Information, WHOLEBUILDING-GYMNASIUM ZN, Cooling, 58840.32266, 67666.37106, 5.00237, 5.75272, FORT MCMURRAY AP ANN CLG .4% CONDNS DB=>MWB, 7/21 16:40:00, 27.49467, 8.76969E-003, 1875.00000, 187.56814, 2.34315, 0.00000
 Zone Sizing Information, WHOLEBUILDING-GYMNASIUM ZN, Heating, 37921.32702, 47401.65878, 1.74995, 2.34315, FORT MCMURRAY AP ANN HTG 99.6% CONDNS DB, 1/21 10:00:00, -36.20000, 1.25811E-004, 1875.00000, 187.56814, 2.34315, 0.00000
 Zone Sizing Information, WHOLEBUILDING-HEALTH CARE CLINIC ZN, Cooling, 38718.10416, 44525.81978, 3.29183, 5.71500, FORT MCMURRAY AP ANN CLG .4% CONDNS DB=>MWB, 7/21 17:00:00, 27.16400, 8.76969E-003, 2500.00000, 125.04543, 5.71500, 0.00000
 Zone Sizing Information, WHOLEBUILDING-HEALTH CARE CLINIC ZN, Heating, 0.00000, 0.00000, 0.00000, 5.71500, FORT MCMURRAY AP ANN HTG 99.6% CONDNS DB, , -36.20000, 1.25811E-004, 2500.00000, 125.04543, 5.71500, 0.00000
 Zone Sizing Information, WHOLEBUILDING-HOSPITAL ZN, Cooling, 71126.56753, 81795.55266, 6.04716, 6.95424, FORT MCMURRAY AP ANN CLG .4% CONDNS DB=>MWB, 7/21 10:00:00, 24.18800, 8.76969E-003, 1875.00000, 93.78407, 4.28625, 0.00000
 Zone Sizing Information, WHOLEBUILDING-HOSPITAL ZN, Heating, 8038.56465, 10048.20582, 0.37162, 4.28625, FORT MCMURRAY AP ANN HTG 99.6% CONDNS DB, 1/21 09:00:00, -36.20000, 1.25811E-004, 1875.00000, 93.78407, 4.28625, 0.00000
 Zone Sizing Information, WHOLEBUILDING-HOTEL/MOTEL ZN, Cooling, 30475.59412, 35046.93324, 2.59080, 2.97942, FORT MCMURRAY AP ANN CLG .4% CONDNS DB=>MWB, 7/21 14:00:00, 28.90000, 8.76969E-003, 1875.00000, 75.02726, 0.75248, 0.00000
 Zone Sizing Information, WHOLEBUILDING-HOTEL/MOTEL ZN, Heating, 39476.12251, 49345.15314, 1.82411, 2.28013, FORT MCMURRAY AP ANN HTG 99.6% CONDNS DB, 1/21 09:00:00, -36.20000, 1.25811E-004, 1875.00000, 75.02726, 0.75248, 0.00000
 Zone Sizing Information, WHOLEBUILDING-LIBRARY ZN, Cooling, 20554.77789, 23637.99457, 1.74754, 2.00967, FORT MCMURRAY AP ANN CLG .4% CONDNS DB=>MWB, 7/21 17:00:00, 27.16400, 8.76969E-003, 1875.00000, 93.78407, 1.36208, 0.00000
 Zone Sizing Information, WHOLEBUILDING-LIBRARY ZN, Heating, 0.00000, 0.00000, 0.00000, 1.36208, FORT MCMURRAY AP ANN HTG 99.6% CONDNS DB, , -36.20000, 1.25811E-004, 1875.00000, 93.78407, 1.36208, 0.00000
 Zone Sizing Information, WHOLEBUILDING-LONG-TERM CARE - DWELLING UNITS ZN, Cooling, 14079.96654, 16191.96152, 1.19704, 1.37660, FORT MCMURRAY AP ANN CLG .4% CONDNS DB=>MWB, 7/21 11:00:00, 26.04800, 8.76969E-003, 1875.00000, 75.02726, 1.04775, 0.00000
 Zone Sizing Information, WHOLEBUILDING-LONG-TERM CARE - DWELLING UNITS ZN, Heating, 0.00000, 0.00000, 0.00000, 1.04775, FORT MCMURRAY AP ANN HTG 99.6% CONDNS DB, , -36.20000, 1.25811E-004, 1875.00000, 75.02726, 1.04775, 0.00000
 Zone Sizing Information, WHOLEBUILDING-LONG-TERM CARE - OTHER ZN, Cooling, 35019.59507, 40272.53433, 2.97714, 3.42371, FORT MCMURRAY AP ANN CLG .4% CONDNS DB=>MWB, 7/21 18:50:00, 24.37400, 8.76969E-003, 1875.00000, 75.02726, 1.04775, 0.00000
 Zone Sizing Information, WHOLEBUILDING-LONG-TERM CARE - OTHER ZN, Heating, 5932.48986, 7415.61233, 0.27298, 1.04775, FORT MCMURRAY AP ANN HTG 99.6% CONDNS DB, 1/21 10:00:00, -36.20000, 1.25811E-004, 1875.00000, 75.02726, 1.04775, 0.00000
 Zone Sizing Information, WHOLEBUILDING-MANUFACTURING FACILITY ZN, Cooling, 54055.73139, 62164.09110, 4.59565, 5.28500, FORT MCMURRAY AP ANN CLG .4% CONDNS DB=>MWB, 7/21 17:40:00, 26.33733, 8.76969E-003, 1875.00000, 62.52271, 2.00978, 0.00000
 Zone Sizing Information, WHOLEBUILDING-MANUFACTURING FACILITY ZN, Heating, 14223.25031, 17779.06289, 0.64644, 2.00978, FORT MCMURRAY AP ANN HTG 99.6% CONDNS DB, 1/21 08:00:00, -36.20000, 1.25811E-004, 1875.00000, 62.52271, 2.00978, 0.00000
 Zone Sizing Information, WHOLEBUILDING-MOTION PICTURE THEATRE ZN, Cooling, 31808.12243, 36579.34079, 2.70470, 3.11040, FORT MCMURRAY AP ANN CLG .4% CONDNS DB=>MWB, 7/21 17:00:00, 27.16400, 8.76969E-003, 2500.00000, 312.61357, 1.49860, 0.00000
 Zone Sizing Information, WHOLEBUILDING-MOTION PICTURE THEATRE ZN, Heating, 0.00000, 0.00000, 0.00000, 1.49860, FORT MCMURRAY AP ANN HTG 99.6% CONDNS DB, , -36.20000, 1.25811E-004, 2500.00000, 312.61357, 1.49860, 0.00000
 Zone Sizing Information, WHOLEBUILDING-MULTI-UNIT RESIDENTIAL BUILDING ZN, Cooling, 22167.13737, 25492.20797, 1.88458, 2.16727, FORT MCMURRAY AP ANN CLG .4% CONDNS DB=>MWB, 7/21 20:10:00, 22.51400, 8.76969E-003, 1875.00000, 75.02726, 0.64770, 0.00000
 Zone Sizing Information, WHOLEBUILDING-MULTI-UNIT RESIDENTIAL BUILDING ZN, Heating, 2667.65991, 3334.57489, 0.12611, 0.64770, FORT MCMURRAY AP ANN HTG 99.6% CONDNS DB, 1/21 18:00:00, -36.20000, 1.25811E-004, 1875.00000, 75.02726, 0.64770, 0.00000
 Zone Sizing Information, WHOLEBUILDING-MUSEUM ZN, Cooling, 41397.17798, 47606.75468, 3.19465, 3.67385, FORT MCMURRAY AP ANN CLG .4% CONDNS DB=>MWB, 7/21 08:00:00, 19.72400, 8.76969E-003, 1875.00000, 93.78407, 0.90488, 0.00000
 Zone Sizing Information, WHOLEBUILDING-MUSEUM ZN, Heating, 2585.44103, 3231.80129, 0.11824, 0.90488, FORT MCMURRAY AP ANN HTG 99.6% CONDNS DB, 1/21 08:40:00, -36.20000, 1.25811E-004, 1875.00000, 93.78407, 0.90488, 0.00000
! <Component Sizing Information>, Component Type, Component Name, Input Field Description, Value
 Component Sizing Information, ZoneHVAC:IdealLoadsAirSystem, ZONE HVAC IDEAL LOADS AIR SYSTEM 1, User-Specified Maximum Heating Air Flow Rate [m3/s], 0.00000
 Component Sizing Information, ZoneHVAC:IdealLoadsAirSystem, ZONE HVAC IDEAL LOADS AIR SYSTEM 1, User-Specified Maximum Cooling Air Flow Rate [m3/s], 0.00000
 Component Sizing Information, ZoneHVAC:IdealLoadsAirSystem, ZONE HVAC IDEAL LOADS AIR SYSTEM 2, User-Specified Maximum Heating Air Flow Rate [m3/s], 0.00000
 Component Sizing Information, ZoneHVAC:IdealLoadsAirSystem, ZONE HVAC IDEAL LOADS AIR SYSTEM 2, User-Specified Maximum Cooling Air Flow Rate [m3/s], 0.00000
 Component Sizing Information, ZoneHVAC:IdealLoadsAirSystem, ZONE HVAC IDEAL LOADS AIR SYSTEM 3, User-Specified Maximum Heating Air Flow Rate [m3/s], 0.00000
 Component Sizing Information, ZoneHVAC:IdealLoadsAirSystem, ZONE HVAC IDEAL LOADS AIR SYSTEM 3, User-Specified Maximum Cooling Air Flow Rate [m3/s], 0.00000
 Component Sizing Information, ZoneHVAC:IdealLoadsAirSystem, ZONE HVAC IDEAL LOADS AIR SYSTEM 4, User-Specified Maximum Heating Air Flow Rate [m3/s], 0.00000
 Component Sizing Information, ZoneHVAC:IdealLoadsAirSystem, ZONE HVAC IDEAL LOADS AIR SYSTEM 4, User-Specified Maximum Cooling Air Flow Rate [m3/s], 0.00000
 Component Sizing Information, ZoneHVAC:IdealLoadsAirSystem, ZONE HVAC IDEAL LOADS AIR SYSTEM 5, User-Specified Maximum Heating Air Flow Rate [m3/s], 0.00000
 Component Sizing Information, ZoneHVAC:IdealLoadsAirSystem, ZONE HVAC IDEAL LOADS AIR SYSTEM 5, User-Specified Maximum Cooling Air Flow Rate [m3/s], 0.00000
 Component Sizing Information, ZoneHVAC:IdealLoadsAirSystem, ZONE HVAC IDEAL LOADS AIR SYSTEM 6, User-Specified Maximum Heating Air Flow Rate [m3/s], 0.00000
 Component Sizing Information, ZoneHVAC:IdealLoadsAirSystem, ZONE HVAC IDEAL LOADS AIR SYSTEM 6, User-Specified Maximum Cooling Air Flow Rate [m3/s], 0.00000
 Component Sizing Information, ZoneHVAC:IdealLoadsAirSystem, ZONE HVAC IDEAL LOADS AIR SYSTEM 7, User-Specified Maximum Heating Air Flow Rate [m3/s], 0.00000
 Component Sizing Information, ZoneHVAC:IdealLoadsAirSystem, ZONE HVAC IDEAL LOADS AIR SYSTEM 7, User-Specified Maximum Cooling Air Flow Rate [m3/s], 0.00000
 Component Sizing Information, ZoneHVAC:IdealLoadsAirSystem, ZONE HVAC IDEAL LOADS AIR SYSTEM 8, User-Specified Maximum Heating Air Flow Rate [m3/s], 0.00000
 Component Sizing Information, ZoneHVAC:IdealLoadsAirSystem, ZONE HVAC IDEAL LOADS AIR SYSTEM 8, User-Specified Maximum Cooling Air Flow Rate [m3/s], 0.00000
 Component Sizing Information, ZoneHVAC:IdealLoadsAirSystem, ZONE HVAC IDEAL LOADS AIR SYSTEM 9, User-Specified Maximum Heating Air Flow Rate [m3/s], 0.00000
 Component Sizing Information, ZoneHVAC:IdealLoadsAirSystem, ZONE HVAC IDEAL LOADS AIR SYSTEM 9, User-Specified Maximum Cooling Air Flow Rate [m3/s], 0.00000
 Component Sizing Information, ZoneHVAC:IdealLoadsAirSystem, ZONE HVAC IDEAL LOADS AIR SYSTEM 10, User-Specified Maximum Heating Air Flow Rate [m3/s], 0.00000
 Component Sizing Information, ZoneHVAC:IdealLoadsAirSystem, ZONE HVAC IDEAL LOADS AIR SYSTEM 10, User-Specified Maximum Cooling Air Flow Rate [m3/s], 0.00000
 Component Sizing Information, ZoneHVAC:IdealLoadsAirSystem, ZONE HVAC IDEAL LOADS AIR SYSTEM 11, User-Specified Maximum Heating Air Flow Rate [m3/s], 0.00000
 Component Sizing Information, ZoneHVAC:IdealLoadsAirSystem, ZONE HVAC IDEAL LOADS AIR SYSTEM 11, User-Specified Maximum Cooling Air Flow Rate [m3/s], 0.00000
 Component Sizing Information, ZoneHVAC:IdealLoadsAirSystem, ZONE HVAC IDEAL LOADS AIR SYSTEM 12, User-Specified Maximum Heating Air Flow Rate [m3/s], 0.00000
 Component Sizing Information, ZoneHVAC:IdealLoadsAirSystem, ZONE HVAC IDEAL LOADS AIR SYSTEM 12, User-Specified Maximum Cooling Air Flow Rate [m3/s], 0.00000
 Component Sizing Information, ZoneHVAC:IdealLoadsAirSystem, ZONE HVAC IDEAL LOADS AIR SYSTEM 13, User-Specified Maximum Heating Air Flow Rate [m3/s], 0.00000
 Component Sizing Information, ZoneHVAC:IdealLoadsAirSystem, ZONE HVAC IDEAL LOADS AIR SYSTEM 13, User-Specified Maximum Cooling Air Flow Rate [m3/s], 0.00000
 Component Sizing Information, ZoneHVAC:IdealLoadsAirSystem, ZONE HVAC IDEAL LOADS AIR SYSTEM 14, User-Specified Maximum Heating Air Flow Rate [m3/s], 0.00000
 Component Sizing Information, ZoneHVAC:IdealLoadsAirSystem, ZONE HVAC IDEAL LOADS AIR SYSTEM 14, User-Specified Maximum Cooling Air Flow Rate [m3/s], 0.00000
 Component Sizing Information, ZoneHVAC:IdealLoadsAirSystem, ZONE HVAC IDEAL LOADS AIR SYSTEM 15, User-Specified Maximum Heating Air Flow Rate [m3/s], 0.00000
 Component Sizing Information, ZoneHVAC:IdealLoadsAirSystem, ZONE HVAC IDEAL LOADS AIR SYSTEM 15, User-Specified Maximum Cooling Air Flow Rate [m3/s], 0.00000
 Component Sizing Information, ZoneHVAC:IdealLoadsAirSystem, ZONE HVAC IDEAL LOADS AIR SYSTEM 16, User-Specified Maximum Heating Air Flow Rate [m3/s], 0.00000
 Component Sizing Information, ZoneHVAC:IdealLoadsAirSystem, ZONE HVAC IDEAL LOADS AIR SYSTEM 16, User-Specified Maximum Cooling Air Flow Rate [m3/s], 0.00000
 Component Sizing Information, ZoneHVAC:IdealLoadsAirSystem, ZONE HVAC IDEAL LOADS AIR SYSTEM 17, User-Specified Maximum Heating Air Flow Rate [m3/s], 0.00000
 Component Sizing Information, ZoneHVAC:IdealLoadsAirSystem, ZONE HVAC IDEAL LOADS AIR SYSTEM 17, User-Specified Maximum Cooling Air Flow Rate [m3/s], 0.00000
 Component Sizing Information, ZoneHVAC:IdealLoadsAirSystem, ZONE HVAC IDEAL LOADS AIR SYSTEM 18, User-Specified Maximum Heating Air Flow Rate [m3/s], 0.00000
 Component Sizing Information, ZoneHVAC:IdealLoadsAirSystem, ZONE HVAC IDEAL LOADS AIR SYSTEM 18, User-Specified Maximum Cooling Air Flow Rate [m3/s], 0.00000
 Component Sizing Information, ZoneHVAC:IdealLoadsAirSystem, ZONE HVAC IDEAL LOADS AIR SYSTEM 19, User-Specified Maximum Heating Air Flow Rate [m3/s], 0.00000
 Component Sizing Information, ZoneHVAC:IdealLoadsAirSystem, ZONE HVAC IDEAL LOADS AIR SYSTEM 19, User-Specified Maximum Cooling Air Flow Rate [m3/s], 0.00000
 Component Sizing Information, ZoneHVAC:IdealLoadsAirSystem, ZONE HVAC IDEAL LOADS AIR SYSTEM 20, User-Specified Maximum Heating Air Flow Rate [m3/s], 0.00000
 Component Sizing Information, ZoneHVAC:IdealLoadsAirSystem, ZONE HVAC IDEAL LOADS AIR SYSTEM 20, User-Specified Maximum Cooling Air Flow Rate [m3/s], 0.00000
! <Environment>,Environment Name,Environment Type, Start Date, End Date, Start DayOfWeek, Duration {#days}, Source:Start DayOfWeek,  Use Daylight Saving, Use Holidays, Apply Weekend Holiday Rule,  Use Rain Values, Use Snow Values
! <Environment:Special Days>, Special Day Name, Special Day Type, Source, Start Date, Duration {#days}
! <Environment:Daylight Saving>, Daylight Saving Indicator, Source, Start Date, End Date
! <Environment:WarmupDays>, NumberofWarmupDays
Environment,FORT MCMURRAY AP ANN CLG .4% CONDNS DB=>MWB,SizingPeriod:DesignDay,07/21,07/21,SummerDesignDay,1,N/A,N/A,N/A,N/A,N/A,N/A
Environment:Daylight Saving,No,SizingPeriod:DesignDay
! <Environment:Design Day Data>, Max Dry-Bulb Temp {C}, Temp Range {dC}, Temp Range Ind Type, Hum Ind Value at Max Temp, Hum Ind Type,Pressure {Pa}, Wind Direction {deg CW from N}, Wind Speed {m/s}, Clearness, Rain, Snow
! <Environment:Design Day Misc>,DayOfYear,ASHRAE A Coeff,ASHRAE B Coeff,ASHRAE C Coeff,Solar Constant-Annual Variation,Eq of Time {minutes}, Solar Declination Angle {deg}, Solar Model
Environment:Design Day Data,28.90,12.40,DefaultMultipliers,96969,250,3.7,0.00,No,No
Environment:Design Day Misc,202,1084.4,0.2082,0.1365,1.0,-6.23,20.6,ASHRAETau
Environment:WarmupDays,  6
! <Tabular Report>,Style,Unit Conversion
Tabular Report,HTML,None
! <Warmup Convergence Information>,Zone Name,Environment Type/Name,Average Warmup Temperature Difference {deltaC},Std Dev Warmup Temperature Difference {deltaC},Max Temperature Pass/Fail Convergence,Min Temperature Pass/Fail Convergence,Average Warmup Load Difference {W},Std Dev Warmup Load Difference {W},Heating Load Pass/Fail Convergence,Cooling Load Pass/Fail Convergence
 Warmup Convergence Information,WHOLEBUILDING-AUTOMOTIVE FACILITY ZN,SizingPeriod: FORT MCMURRAY AP ANN CLG .4% CONDNS DB=>MWB,5.5269541841E-002,8.4669787010E-002,Pass,Pass,7.4705900796E-002,0.4605154985,Pass,Pass
 Warmup Convergence Information,WHOLEBUILDING-CONVENTION CENTRE ZN,SizingPeriod: FORT MCMURRAY AP ANN CLG .4% CONDNS DB=>MWB,2.1193560160E-002,4.0408495997E-002,Pass,Pass,4.3655710876E-002,0.2126290129,Pass,Pass
 Warmup Convergence Information,WHOLEBUILDING-COURTHOUSE ZN,SizingPeriod: FORT MCMURRAY AP ANN CLG .4% CONDNS DB=>MWB,4.4697626710E-002,0.1706816175,Pass,Pass,6.4556648279E-002,0.4191091724,Pass,Pass
 Warmup Convergence Information,WHOLEBUILDING-DINING - BAR LOUNGE/LEISURE ZN,SizingPeriod: FORT MCMURRAY AP ANN CLG .4% CONDNS DB=>MWB,1.9024178390E-002,3.8874155794E-002,Pass,Pass,2.7520165032E-002,6.1066011809E-002,Pass,Pass
 Warmup Convergence Information,WHOLEBUILDING-DINING - CAFETERIA/FAST FOOD ZN,SizingPeriod: FORT MCMURRAY AP ANN CLG .4% CONDNS DB=>MWB,2.6068950762E-002,5.2139025738E-002,Pass,Pass,3.8113046350E-002,9.2266676692E-002,Pass,Pass
 Warmup Convergence Information,WHOLEBUILDING-DINING - FAMILY ZN,SizingPeriod: FORT MCMURRAY AP ANN CLG .4% CONDNS DB=>MWB,4.0680115503E-002,7.3738641119E-002,Pass,Pass,2.8462407250E-002,4.7974503404E-002,Pass,Pass
 Warmup Convergence Information,WHOLEBUILDING-DORMITORY ZN,SizingPeriod: FORT MCMURRAY AP ANN CLG .4% CONDNS DB=>MWB,2.8174993203E-014,2.6082328045E-014,Pass,Pass,2.3653451538E-002,4.1355697581E-002,Pass,Pass
 Warmup Convergence Information,WHOLEBUILDING-EXERCISE CENTRE ZN,SizingPeriod: FORT MCMURRAY AP ANN CLG .4% CONDNS DB=>MWB,2.1851342728E-002,4.2643974034E-002,Pass,Pass,3.3456596311E-002,7.2398113269E-002,Pass,Pass
 Warmup Convergence Information,WHOLEBUILDING-FIRE STATION ZN,SizingPeriod: FORT MCMURRAY AP ANN CLG .4% CONDNS DB=>MWB,1.6106253430E-002,2.6993386672E-002,Pass,Pass,2.7295338077E-002,5.9595332352E-002,Pass,Pass
 Warmup Convergence Information,WHOLEBUILDING-GYMNASIUM ZN,SizingPeriod: FORT MCMURRAY AP ANN CLG .4% CONDNS DB=>MWB,3.5544753601E-002,6.8439343048E-002,Pass,Pass,2.9433239674E-002,4.4924003403E-002,Pass,Pass
 Warmup Convergence Information,WHOLEBUILDING-HEALTH CARE CLINIC ZN,SizingPeriod: FORT MCMURRAY AP ANN CLG .4% CONDNS DB=>MWB,4.4777534062E-002,0.1006600632,Pass,Pass,2.3477888958E-002,5.2996804075E-002,Pass,Pass
 Warmup Convergence Information,WHOLEBUILDING-HOSPITAL ZN,SizingPeriod: FORT MCMURRAY AP ANN CLG .4% CONDNS DB=>MWB,1.1711770450E-002,2.9456297417E-002,Pass,Pass,1.1354884880E-002,1.1689139983E-002,Pass,Pass
 Warmup Convergence Information,WHOLEBUILDING-HOTEL/MOTEL ZN,SizingPeriod: FORT MCMURRAY AP ANN CLG .4% CONDNS DB=>MWB,1.0784726576E-002,2.1739692820E-002,Pass,Pass,2.8144663309E-002,4.2612519124E-002,Pass,Pass
 Warmup Convergence Information,WHOLEBUILDING-LIBRARY ZN,SizingPeriod: FORT MCMURRAY AP ANN CLG .4% CONDNS DB=>MWB,2.0466464309E-002,4.0770289637E-002,Pass,Pass,3.5502817289E-002,0.1361137836,Pass,Pass
 Warmup Convergence Information,WHOLEBUILDING-LONG-TERM CARE - DWELLING UNITS ZN,SizingPeriod: FORT MCMURRAY AP ANN CLG .4% CONDNS DB=>MWB,2.7171163877E-003,7.1809955135E-003,Pass,Pass,9.7674003731E-003,2.3448037921E-002,Pass,Pass
 Warmup Convergence Information,WHOLEBUILDING-LONG-TERM CARE - OTHER ZN,SizingPeriod: FORT MCMURRAY AP ANN CLG .4% CONDNS DB=>MWB,1.5200881316E-002,4.2163075551E-002,Pass,Pass,3.5560933264E-002,0.1225080435,Pass,Pass
 Warmup Convergence Information,WHOLEBUILDING-MANUFACTURING FACILITY ZN,SizingPeriod: FORT MCMURRAY AP ANN CLG .4% CONDNS DB=>MWB,2.7590169498E-002,5.6674635476E-002,Pass,Pass,3.6720083908E-002,0.1781902976,Pass,Pass
 Warmup Convergence Information,WHOLEBUILDING-MOTION PICTURE THEATRE ZN,SizingPeriod: FORT MCMURRAY AP ANN CLG .4% CONDNS DB=>MWB,2.0756311954E-002,4.1684914158E-002,Pass,Pass,4.3644128727E-002,0.1863328940,Pass,Pass
 Warmup Convergence Information,WHOLEBUILDING-MULTI-UNIT RESIDENTIAL BUILDING ZN,SizingPeriod: FORT MCMURRAY AP ANN CLG .4% CONDNS DB=>MWB,2.3092638912E-014,1.8630587707E-014,Pass,Pass,2.1947811767E-002,6.5038345123E-002,Pass,Pass
 Warmup Convergence Information,WHOLEBUILDING-MUSEUM ZN,SizingPeriod: FORT MCMURRAY AP ANN CLG .4% CONDNS DB=>MWB,4.0098825992E-002,0.1527779453,Pass,Pass,6.1014247830E-002,0.3926549520,Pass,Pass
Environment,FORT MCMURRAY AP ANN HTG 99.6% CONDNS DB,SizingPeriod:DesignDay,01/21,01/21,WinterDesignDay,1,N/A,N/A,N/A,N/A,N/A,N/A
Environment:Daylight Saving,No,SizingPeriod:DesignDay
Environment:Design Day Data,-36.20,0.00,DefaultMultipliers,96969,90,1.0,0.00,No,No
Environment:Design Day Misc, 21,1229.0,0.1415,5.7310E-002,1.0,-11.15,-20.1,ASHRAEClearSky
Environment:WarmupDays,  6
 Warmup Convergence Information,WHOLEBUILDING-AUTOMOTIVE FACILITY ZN,SizingPeriod: FORT MCMURRAY AP ANN HTG 99.6% CONDNS DB,5.5555555556E-002,0.3631372620,Pass,Pass,0.1082302305,0.4293286799,Pass,Pass
 Warmup Convergence Information,WHOLEBUILDING-CONVENTION CENTRE ZN,SizingPeriod: FORT MCMURRAY AP ANN HTG 99.6% CONDNS DB,5.7401507557E-002,0.3412993550,Pass,Pass,0.6220189369,3.5900600827,Pass,Pass
 Warmup Convergence Information,WHOLEBUILDING-COURTHOUSE ZN,SizingPeriod: FORT MCMURRAY AP ANN HTG 99.6% CONDNS DB,5.9451271648E-002,0.3221529707,Pass,Pass,0.5799100757,3.9619568656,Pass,Pass
 Warmup Convergence Information,WHOLEBUILDING-DINING - BAR LOUNGE/LEISURE ZN,SizingPeriod: FORT MCMURRAY AP ANN HTG 99.6% CONDNS DB,5.5616844154E-002,0.3630925006,Pass,Pass,0.2177856398,0.6231048534,Pass,Pass
 Warmup Convergence Information,WHOLEBUILDING-DINING - CAFETERIA/FAST FOOD ZN,SizingPeriod: FORT MCMURRAY AP ANN HTG 99.6% CONDNS DB,5.5768279158E-002,0.3619488003,Pass,Pass,0.5084939023,2.5457996464,Pass,Pass
 Warmup Convergence Information,WHOLEBUILDING-DINING - FAMILY ZN,SizingPeriod: FORT MCMURRAY AP ANN HTG 99.6% CONDNS DB,5.5555555556E-002,0.3641272813,Pass,Pass,0.1951667043,0.5727932516,Pass,Pass
 Warmup Convergence Information,WHOLEBUILDING-DORMITORY ZN,SizingPeriod: FORT MCMURRAY AP ANN HTG 99.6% CONDNS DB,6.0622833606E-002,0.3201545095,Pass,Pass,0.4579696313,2.5693059046,Pass,Pass
 Warmup Convergence Information,WHOLEBUILDING-EXERCISE CENTRE ZN,SizingPeriod: FORT MCMURRAY AP ANN HTG 99.6% CONDNS DB,5.5660205636E-002,0.3624244223,Pass,Pass,0.5569739063,3.8982416061,Pass,Pass
 Warmup Convergence Information,WHOLEBUILDING-FIRE STATION ZN,SizingPeriod: FORT MCMURRAY AP ANN HTG 99.6% CONDNS DB,5.7462019748E-002,0.3406145515,Pass,Pass,0.2659047660,1.0009867241,Pass,Pass
 Warmup Convergence Information,WHOLEBUILDING-GYMNASIUM ZN,SizingPeriod: FORT MCMURRAY AP ANN HTG 99.6% CONDNS DB,5.5555555556E-002,0.3649761153,Pass,Pass,0.1408922192,0.6115569674,Pass,Pass
 Warmup Convergence Information,WHOLEBUILDING-HEALTH CARE CLINIC ZN,SizingPeriod: FORT MCMURRAY AP ANN HTG 99.6% CONDNS DB,5.5555555556E-002,0.3773075637,Pass,Pass,0.2040981226,0.9756191160,Pass,Pass
 Warmup Convergence Information,WHOLEBUILDING-HOSPITAL ZN,SizingPeriod: FORT MCMURRAY AP ANN HTG 99.6% CONDNS DB,5.5555555556E-002,0.3775559453,Pass,Pass,0.1194154459,0.5927208677,Pass,Pass
 Warmup Convergence Information,WHOLEBUILDING-HOTEL/MOTEL ZN,SizingPeriod: FORT MCMURRAY AP ANN HTG 99.6% CONDNS DB,5.8073185016E-002,0.3283039201,Pass,Pass,0.1163970985,0.5033254745,Pass,Pass
 Warmup Convergence Information,WHOLEBUILDING-LIBRARY ZN,SizingPeriod: FORT MCMURRAY AP ANN HTG 99.6% CONDNS DB,5.7711687236E-002,0.3411736918,Pass,Pass,0.6166515085,3.6059893568,Pass,Pass
 Warmup Convergence Information,WHOLEBUILDING-LONG-TERM CARE - DWELLING UNITS ZN,SizingPeriod: FORT MCMURRAY AP ANN HTG 99.6% CONDNS DB,3.9968028887E-015,3.9913165403E-015,Pass,Pass,0.1025961909,0.3483171794,Pass,Pass
 Warmup Convergence Information,WHOLEBUILDING-LONG-TERM CARE - OTHER ZN,SizingPeriod: FORT MCMURRAY AP ANN HTG 99.6% CONDNS DB,5.8758235611E-002,0.3335921853,Pass,Pass,0.1382679450,0.4012321891,Pass,Pass
 Warmup Convergence Information,WHOLEBUILDING-MANUFACTURING FACILITY ZN,SizingPeriod: FORT MCMURRAY AP ANN HTG 99.6% CONDNS DB,5.6082214465E-002,0.3567784227,Pass,Pass,0.3373304231,1.7227005497,Pass,Pass
 Warmup Convergence Information,WHOLEBUILDING-MOTION PICTURE THEATRE ZN,SizingPeriod: FORT MCMURRAY AP ANN HTG 99.6% CONDNS DB,5.8902135907E-002,0.3329591242,Pass,Pass,0.3578153347,1.8612872856,Pass,Pass
 Warmup Convergence Information,WHOLEBUILDING-MULTI-UNIT RESIDENTIAL BUILDING ZN,SizingPeriod: FORT MCMURRAY AP ANN HTG 99.6% CONDNS DB,6.2803346020E-002,0.3144620965,Pass,Pass,0.3725462232,1.8788928551,Pass,Pass
 Warmup Convergence Information,WHOLEBUILDING-MUSEUM ZN,SizingPeriod: FORT MCMURRAY AP ANN HTG 99.6% CONDNS DB,5.9433899440E-002,0.3259761648,Pass,Pass,0.3378344105,2.0306159224,Pass,Pass
! <Program Control Information:Threads/Parallel Sims>, Threading Supported,Maximum Number of Threads, Env Set Threads (OMP_NUM_THREADS), EP Env Set Threads (EP_OMP_NUM_THREADS), IDF Set Threads, Number of Threads Used (Interior Radiant Exchange), Number Nominal Surfaces, Number Parallel Sims
Program Control:Threads/Parallel Sims, No,1, N/A, N/A, N/A, N/A, N/A, N/A
End of Data
