Program Version,EnergyPlus, Version 8.9.0-eba93e8e1b, YMD=2019.03.28 13:50
! <Version>, Version ID
 Version, 8.9
! <Timesteps per Hour>, #TimeSteps, Minutes per TimeStep {minutes}
 Timesteps per Hour,  6, 10
! <System Convergence Limits>, Minimum System TimeStep {minutes}, Max HVAC Iterations, Minimum Plant Iterations, Maximum Plant Iterations
 System Convergence Limits, 1, 20, 2, 8
! <Simulation Control>, Do Zone Sizing, Do System Sizing, Do Plant Sizing, Do Design Days, Do Weather Simulation, Do HVAC Sizing Simulation
 Simulation Control, Yes, No, No, Yes, No, No
! <Output Reporting Tolerances>, Tolerance for Time Heating Setpoint Not Met, Tolerance for Zone Cooling Setpoint Not Met Time
 Output Reporting Tolerances, 0.200, 0.200, 
! <Site:GroundTemperature:BuildingSurface>,Jan{C},Feb{C},Mar{C},Apr{C},May{C},Jun{C},Jul{C},Aug{C},Sep{C},Oct{C},Nov{C},Dec{C}
 Site:GroundTemperature:BuildingSurface,  19.53,  19.50,  19.54,  19.60,  20.00,  21.64,  22.23,  22.38,  21.45,  20.12,  19.80,  19.63
! <Site:GroundTemperature:FCfactorMethod>,Jan{C},Feb{C},Mar{C},Apr{C},May{C},Jun{C},Jul{C},Aug{C},Sep{C},Oct{C},Nov{C},Dec{C}
 Site:GroundTemperature:FCfactorMethod, -12.27, -13.66, -11.19,  -7.33,   2.77,  10.57,  15.83,  17.43,  14.70,   8.65,   0.56,  -6.95
! <Site:GroundTemperature:Shallow>,Jan{C},Feb{C},Mar{C},Apr{C},May{C},Jun{C},Jul{C},Aug{C},Sep{C},Oct{C},Nov{C},Dec{C}
 Site:GroundTemperature:Shallow,  13.00,  13.00,  13.00,  13.00,  13.00,  13.00,  13.00,  13.00,  13.00,  13.00,  13.00,  13.00
! <Site:GroundTemperature:Deep>,Jan{C},Feb{C},Mar{C},Apr{C},May{C},Jun{C},Jul{C},Aug{C},Sep{C},Oct{C},Nov{C},Dec{C}
 Site:GroundTemperature:Deep,  16.00,  16.00,  16.00,  16.00,  16.00,  16.00,  16.00,  16.00,  16.00,  16.00,  16.00,  16.00
! <Site:GroundReflectance>,Jan{dimensionless},Feb{dimensionless},Mar{dimensionless},Apr{dimensionless},May{dimensionless},Jun{dimensionless},Jul{dimensionless},Aug{dimensionless},Sep{dimensionless},Oct{dimensionless},Nov{dimensionless},Dec{dimensionless}
 Site:GroundReflectance,  0.20,  0.20,  0.20,  0.20,  0.20,  0.20,  0.20,  0.20,  0.20,  0.20,  0.20,  0.20
! <Site:GroundReflectance:SnowModifier>, Normal, Daylighting {dimensionless}
 Site:GroundReflectance:SnowModifier,   1.000,   1.000
! <Site:GroundReflectance:Snow>,Jan{dimensionless},Feb{dimensionless},Mar{dimensionless},Apr{dimensionless},May{dimensionless},Jun{dimensionless},Jul{dimensionless},Aug{dimensionless},Sep{dimensionless},Oct{dimensionless},Nov{dimensionless},Dec{dimensionless}
 Site:GroundReflectance:Snow,  0.20,  0.20,  0.20,  0.20,  0.20,  0.20,  0.20,  0.20,  0.20,  0.20,  0.20,  0.20
! <Site:GroundReflectance:Snow:Daylighting>,Jan{dimensionless},Feb{dimensionless},Mar{dimensionless},Apr{dimensionless},May{dimensionless},Jun{dimensionless},Jul{dimensionless},Aug{dimensionless},Sep{dimensionless},Oct{dimensionless},Nov{dimensionless},Dec{dimensionless}
 Site:GroundReflectance:Snow:Daylighting,  0.20,  0.20,  0.20,  0.20,  0.20,  0.20,  0.20,  0.20,  0.20,  0.20,  0.20,  0.20
! <Environment:Weather Station>,Wind Sensor Height Above Ground {m},Wind Speed Profile Exponent {},Wind Speed Profile Boundary Layer Thickness {m},Air Temperature Sensor Height Above Ground {m},Wind Speed Modifier Coefficient-Internal,Temperature Modifier Coefficient-Internal
Environment:Weather Station,10.000,0.140,270.000,1.500,1.586,9.750E-003
! <Site:Location>, Location Name, Latitude {N+/S- Deg}, Longitude {E+/W- Deg},  Time Zone Number {GMT+/-}, Elevation {m},  Standard Pressure at Elevation {Pa}, Standard RhoAir at Elevation
Site:Location,Fort McMurray AP AB CAN CWEC2016 WMO#=716890,56.65,-111.22,-7.00,369.10,96969,1.1525
! <Building Information>, Building Name,North Axis {deg},Terrain,  Loads Convergence Tolerance Value,Temperature Convergence Tolerance Value,  Solar Distribution,Maximum Number of Warmup Days,Minimum Number of Warmup Days
 Building Information,Building 1,0.000,Suburbs,4.00000E-002,0.40000,FullExterior,25,6
! <Inside Convection Algorithm>, Algorithm {Simple | TARP | CeilingDiffuser | AdaptiveConvectionAlgorithm}
Inside Convection Algorithm,TARP
! <Outside Convection Algorithm>, Algorithm {SimpleCombined | TARP | MoWitt | DOE-2 | AdaptiveConvectionAlgorithm}
Outside Convection Algorithm,TARP
! <Sky Radiance Distribution>, Value {Anisotropic}
Sky Radiance Distribution,Anisotropic
! <Zone Air Solution Algorithm>, Value {ThirdOrderBackwardDifference | AnalyticalSolution | EulerMethod}
 Zone Air Solution Algorithm, ThirdOrderBackwardDifference
! <Zone Air Carbon Dioxide Balance Simulation>, Simulation {Yes/No}, Carbon Dioxide Concentration
 Zone Air Carbon Dioxide Balance Simulation, No,N/A
! <Zone Air Generic Contaminant Balance Simulation>, Simulation {Yes/No}, Generic Contaminant Concentration
 Zone Air Generic Contaminant Balance Simulation, No,N/A
! <Zone Air Mass Flow Balance Simulation>, Enforce Mass Balance, Adjust Zone Mixing, Adjust Zone Infiltration {AddInfiltration | AdjustInfiltration | None}, Infiltration Zones {MixingSourceZonesOnly | AllZones}
 Zone Air Mass Flow Balance Simulation, No,N/A,N/A,N/A
! <HVACSystemRootFindingAlgorithm>, Value {RegulaFalsi | Bisection | BisectionThenRegulaFalsi | RegulaFalsiThenBisection}
 HVACSystemRootFindingAlgorithm, RegulaFalsi
! <Environment:Site Atmospheric Variation>,Wind Speed Profile Exponent {},Wind Speed Profile Boundary Layer Thickness {m},Air Temperature Gradient Coefficient {K/m}
Environment:Site Atmospheric Variation,0.220,370.000,6.500000E-003
! <Surface Geometry>,Starting Corner,Vertex Input Direction,Coordinate System,Daylight Reference Point Coordinate System,Rectangular (Simple) Surface Coordinate System
 Surface Geometry,UpperLeftCorner,Counterclockwise,RelativeCoordinateSystem,RelativeCoordinateSystem,RelativeToZoneOrigin
! <Surface Heat Transfer Algorithm>, Value {CTF - ConductionTransferFunction | EMPD - MoisturePenetrationDepthConductionTransferFunction | CondFD - ConductionFiniteDifference | HAMT - CombinedHeatAndMoistureFiniteElement} - Description,Inside Surface Max Temperature Limit{C}, Surface Convection Coefficient Lower Limit {W/m2-K}, Surface Convection Coefficient Upper Limit {W/m2-K}
Surface Heat Transfer Algorithm, CTF - ConductionTransferFunction,200,0.10,1000.0
! <Shading Summary>, Number of Fixed Detached Shades, Number of Building Detached Shades, Number of Attached Shades
 Shading Summary,0,0,0
! <Zone Summary>, Number of Zones, Number of Zone Surfaces, Number of SubSurfaces
 Zone Summary,20,135,15
! <Zone Information>,Zone Name,North Axis {deg},Origin X-Coordinate {m},Origin Y-Coordinate {m},Origin Z-Coordinate {m},Centroid X-Coordinate {m},Centroid Y-Coordinate {m},Centroid Z-Coordinate {m},Type,Zone Multiplier,Zone List Multiplier,Minimum X {m},Maximum X {m},Minimum Y {m},Maximum Y {m},Minimum Z {m},Maximum Z {m},Ceiling Height {m},Volume {m3},Zone Inside Convection Algorithm {Simple-Detailed-CeilingDiffuser-TrombeWall},Zone Outside Convection Algorithm {Simple-Detailed-Tarp-MoWitt-DOE-2-BLAST}, Floor Area {m2},Exterior Gross Wall Area {m2},Exterior Net Wall Area {m2},Exterior Window Area {m2}, Number of Surfaces, Number of SubSurfaces, Number of Shading SubSurfaces,  Part of Total Building Area
 Zone Information, STORAGE GARAGE INTERIOR-SPACE FUNCTION ZN,0.0,0.00,0.00,11.40,50.00,10.85,13.30,1,1,1,0.00,100.00,0.00,25.00,11.40,15.20,3.80,7125.00,TARP,TARP,1875.00,380.00,380.00,0.00,6,0,0,Yes
 Zone Information, STORAGE ROOM < 5 M2-SCH-A-SPACE FUNCTION ZN,0.0,25.00,75.00,11.40,50.00,89.15,13.30,1,1,1,0.00,100.00,75.00,100.00,11.40,15.20,3.80,7125.00,TARP,TARP,1875.00,380.00,285.00,188.75,6,2,0,Yes
 Zone Information, STORAGE ROOM < 5 M2-SCH-B-SPACE FUNCTION ZN,0.0,0.00,0.00,11.40,10.85,50.00,13.30,1,1,1,0.00,25.00,0.00,100.00,11.40,15.20,3.80,7125.00,TARP,TARP,1875.00,380.00,285.00,188.75,6,2,0,Yes
 Zone Information, STORAGE ROOM < 5 M2-SCH-C-SPACE FUNCTION ZN,0.0,0.00,0.00,7.60,50.00,10.85,9.50,1,1,1,0.00,100.00,0.00,25.00,7.60,11.40,3.80,7125.00,TARP,TARP,1875.00,380.00,285.00,95.00,6,1,0,Yes
 Zone Information, STORAGE ROOM < 5 M2-SCH-D-SPACE FUNCTION ZN,0.0,75.00,25.00,7.60,89.15,50.00,9.50,1,1,1,75.00,100.00,0.00,100.00,7.60,11.40,3.80,7125.00,TARP,TARP,1875.00,380.00,285.00,95.00,6,1,0,Yes
 Zone Information, STORAGE ROOM < 5 M2-SCH-E-SPACE FUNCTION ZN,0.0,25.00,75.00,7.60,50.00,89.15,9.50,1,1,1,0.00,100.00,75.00,100.00,7.60,11.40,3.80,7125.00,TARP,TARP,1875.00,380.00,285.00,95.00,6,1,0,Yes
 Zone Information, STORAGE ROOM < 5 M2-SCH-F-SPACE FUNCTION ZN,0.0,0.00,0.00,7.60,10.85,50.00,9.50,1,1,1,0.00,25.00,0.00,100.00,7.60,11.40,3.80,7125.00,TARP,TARP,1875.00,380.00,285.00,95.00,6,1,0,Yes
 Zone Information, STORAGE ROOM < 5 M2-SCH-G-SPACE FUNCTION ZN,0.0,0.00,0.00,0.00,10.85,50.00,1.90,1,1,1,0.00,25.00,0.00,100.00,0.00,3.80,3.80,7125.00,TARP,TARP,1875.00,0.00,0.00,0.00,6,0,0,Yes
 Zone Information, STORAGE ROOM < 5 M2-SCH-H-SPACE FUNCTION ZN,0.0,25.00,75.00,0.00,50.00,89.15,1.90,1,1,1,0.00,100.00,75.00,100.00,0.00,3.80,3.80,7125.00,TARP,TARP,1875.00,0.00,0.00,0.00,6,0,0,Yes
 Zone Information, STORAGE ROOM < 5 M2-SCH-I-SPACE FUNCTION ZN,0.0,75.00,25.00,11.40,89.15,50.00,13.30,1,1,1,75.00,100.00,0.00,100.00,11.40,15.20,3.80,7125.00,TARP,TARP,1875.00,380.00,285.00,188.75,6,2,0,Yes
 Zone Information, STORAGE ROOM < 5 M2-SCH-J-SPACE FUNCTION ZN,0.0,75.00,25.00,0.00,89.15,50.00,1.90,1,1,1,75.00,100.00,0.00,100.00,0.00,3.80,3.80,7125.00,TARP,TARP,1875.00,0.00,0.00,0.00,6,0,0,Yes
 Zone Information, STORAGE ROOM < 5 M2-SCH-K-SPACE FUNCTION ZN,0.0,25.00,25.00,0.00,50.00,50.00,1.90,1,1,1,25.00,75.00,25.00,75.00,0.00,3.80,3.80,9500.00,TARP,TARP,2500.00,0.00,0.00,0.00,6,0,0,Yes
 Zone Information, STORAGE ROOM <= 5 M2 <= 100 M2-SCH-A-SPACE FUNCTION ZN,0.0,25.00,25.00,7.60,50.00,50.00,9.50,1,1,1,25.00,75.00,25.00,75.00,7.60,11.40,3.80,9500.00,TARP,TARP,2500.00,0.00,0.00,0.00,6,0,0,Yes
 Zone Information, STORAGE ROOM <= 5 M2 <= 100 M2-SCH-B-SPACE FUNCTION ZN,0.0,25.00,75.00,3.80,50.00,89.15,5.70,1,1,1,0.00,100.00,75.00,100.00,3.80,7.60,3.80,7125.00,TARP,TARP,1875.00,380.00,285.00,95.00,6,1,0,Yes
 Zone Information, STORAGE ROOM <= 5 M2 <= 100 M2-SCH-C-SPACE FUNCTION ZN,0.0,0.00,0.00,3.80,50.00,10.85,5.70,1,1,1,0.00,100.00,0.00,25.00,3.80,7.60,3.80,7125.00,TARP,TARP,1875.00,380.00,285.00,95.00,6,1,0,Yes
 Zone Information, STORAGE ROOM <= 5 M2 <= 100 M2-SCH-D-SPACE FUNCTION ZN,0.0,25.00,25.00,3.80,50.00,50.00,5.70,1,1,1,25.00,75.00,25.00,75.00,3.80,7.60,3.80,9500.00,TARP,TARP,2500.00,0.00,0.00,0.00,6,0,0,Yes
 Zone Information, STORAGE ROOM <= 5 M2 <= 100 M2-SCH-E-SPACE FUNCTION ZN,0.0,25.00,25.00,11.40,50.00,50.00,13.30,1,1,1,25.00,75.00,25.00,75.00,11.40,15.20,3.80,9500.00,TARP,TARP,2500.00,0.00,0.00,125.00,6,1,0,Yes
 Zone Information, STORAGE ROOM <= 5 M2 <= 100 M2-SCH-F-SPACE FUNCTION ZN,0.0,75.00,25.00,3.80,89.15,50.00,5.70,1,1,1,75.00,100.00,0.00,100.00,3.80,7.60,3.80,7125.00,TARP,TARP,1875.00,380.00,285.00,95.00,6,1,0,Yes
 Zone Information, STORAGE ROOM <= 5 M2 <= 100 M2-SCH-G-SPACE FUNCTION ZN,0.0,0.00,0.00,0.00,50.00,10.85,1.90,1,1,1,0.00,100.00,0.00,25.00,0.00,3.80,3.80,7125.00,TARP,TARP,1875.00,0.00,0.00,0.00,6,0,0,Yes
 Zone Information, STORAGE ROOM <= 5 M2 <= 100 M2-SCH-H-SPACE FUNCTION ZN,0.0,0.00,0.00,3.80,10.85,50.00,5.70,1,1,1,0.00,25.00,0.00,100.00,3.80,7.60,3.80,7125.00,TARP,TARP,1875.00,380.00,285.00,95.00,6,1,0,Yes
! <Zone Internal Gains Nominal>,Zone Name, Floor Area {m2},# Occupants,Area per Occupant {m2/person},Occupant per Area {person/m2},Interior Lighting {W/m2},Electric Load {W/m2},Gas Load {W/m2},Other Load {W/m2},Hot Water Eq {W/m2},Steam Equipment {W/m2},Sum Loads per Area {W/m2},Outdoor Controlled Baseboard Heat
 Zone Internal Gains Nominal, STORAGE GARAGE INTERIOR-SPACE FUNCTION ZN,1875.00,1.9,999.637,1.000E-003,2.101,0.000,0.000,0.000,0.000,0.000,2.101,No
 Zone Internal Gains Nominal, STORAGE ROOM < 5 M2-SCH-A-SPACE FUNCTION ZN,1875.00,18.8,99.964,1.000E-002,13.305,1.000,0.000,0.000,0.000,0.000,14.305,No
 Zone Internal Gains Nominal, STORAGE ROOM < 5 M2-SCH-B-SPACE FUNCTION ZN,1875.00,18.8,99.964,1.000E-002,13.305,1.000,0.000,0.000,0.000,0.000,14.305,No
 Zone Internal Gains Nominal, STORAGE ROOM < 5 M2-SCH-C-SPACE FUNCTION ZN,1875.00,18.8,99.964,1.000E-002,13.305,1.000,0.000,0.000,0.000,0.000,14.305,No
 Zone Internal Gains Nominal, STORAGE ROOM < 5 M2-SCH-D-SPACE FUNCTION ZN,1875.00,18.8,99.964,1.000E-002,13.305,1.000,0.000,0.000,0.000,0.000,14.305,No
 Zone Internal Gains Nominal, STORAGE ROOM < 5 M2-SCH-E-SPACE FUNCTION ZN,1875.00,18.8,99.964,1.000E-002,13.305,1.000,0.000,0.000,0.000,0.000,14.305,No
 Zone Internal Gains Nominal, STORAGE ROOM < 5 M2-SCH-F-SPACE FUNCTION ZN,1875.00,18.8,99.964,1.000E-002,13.305,1.000,0.000,0.000,0.000,0.000,14.305,No
 Zone Internal Gains Nominal, STORAGE ROOM < 5 M2-SCH-G-SPACE FUNCTION ZN,1875.00,18.8,99.964,1.000E-002,13.305,1.000,0.000,0.000,0.000,0.000,14.305,No
 Zone Internal Gains Nominal, STORAGE ROOM < 5 M2-SCH-H-SPACE FUNCTION ZN,1875.00,18.8,99.964,1.000E-002,13.305,1.000,0.000,0.000,0.000,0.000,14.305,No
 Zone Internal Gains Nominal, STORAGE ROOM < 5 M2-SCH-I-SPACE FUNCTION ZN,1875.00,18.8,99.964,1.000E-002,13.305,1.000,0.000,0.000,0.000,0.000,14.305,No
 Zone Internal Gains Nominal, STORAGE ROOM < 5 M2-SCH-J-SPACE FUNCTION ZN,1875.00,18.8,99.964,1.000E-002,13.305,1.000,0.000,0.000,0.000,0.000,14.305,No
 Zone Internal Gains Nominal, STORAGE ROOM < 5 M2-SCH-K-SPACE FUNCTION ZN,2500.00,25.0,99.964,1.000E-002,13.305,1.000,0.000,0.000,0.000,0.000,14.305,No
 Zone Internal Gains Nominal, STORAGE ROOM <= 5 M2 <= 100 M2-SCH-A-SPACE FUNCTION ZN,2500.00,25.0,99.964,1.000E-002,6.802,0.000,0.000,0.000,0.000,0.000,6.802,No
 Zone Internal Gains Nominal, STORAGE ROOM <= 5 M2 <= 100 M2-SCH-B-SPACE FUNCTION ZN,1875.00,18.8,99.964,1.000E-002,6.802,0.000,0.000,0.000,0.000,0.000,6.802,No
 Zone Internal Gains Nominal, STORAGE ROOM <= 5 M2 <= 100 M2-SCH-C-SPACE FUNCTION ZN,1875.00,18.8,99.964,1.000E-002,6.802,0.000,0.000,0.000,0.000,0.000,6.802,No
 Zone Internal Gains Nominal, STORAGE ROOM <= 5 M2 <= 100 M2-SCH-D-SPACE FUNCTION ZN,2500.00,25.0,99.964,1.000E-002,6.802,0.000,0.000,0.000,0.000,0.000,6.802,No
 Zone Internal Gains Nominal, STORAGE ROOM <= 5 M2 <= 100 M2-SCH-E-SPACE FUNCTION ZN,2500.00,25.0,99.964,1.000E-002,6.802,0.000,0.000,0.000,0.000,0.000,6.802,No
 Zone Internal Gains Nominal, STORAGE ROOM <= 5 M2 <= 100 M2-SCH-F-SPACE FUNCTION ZN,1875.00,18.8,99.964,1.000E-002,6.802,0.000,0.000,0.000,0.000,0.000,6.802,No
 Zone Internal Gains Nominal, STORAGE ROOM <= 5 M2 <= 100 M2-SCH-G-SPACE FUNCTION ZN,1875.00,18.8,99.964,1.000E-002,6.802,0.000,0.000,0.000,0.000,0.000,6.802,No
 Zone Internal Gains Nominal, STORAGE ROOM <= 5 M2 <= 100 M2-SCH-H-SPACE FUNCTION ZN,1875.00,18.8,99.964,1.000E-002,6.802,0.000,0.000,0.000,0.000,0.000,6.802,No
! <People Internal Gains Nominal>,Name,Schedule Name,Zone Name,Zone Floor Area {m2},# Zone Occupants,Number of People {},People/Floor Area {person/m2},Floor Area per person {m2/person},Fraction Radiant,Fraction Convected,Sensible Fraction Calculation,Activity level,ASHRAE 55 Warnings,Carbon Dioxide Generation Rate,Nominal Minimum Number of People,Nominal Maximum Number of People
 People Internal Gains Nominal, STORAGE GARAGE INTERIOR-SPACE FUNCTION ZN SPACE FUNCTION STORAGE GARAGE INTERIOR PEOPLE,NECB-K-OCCUPANCY,STORAGE GARAGE INTERIOR-SPACE FUNCTION ZN,1875.00,1.9,1.9,1.000E-003,999.637,0.300,0.700,AutoCalculate,NECB-ACTIVITY,No,3.8200E-008,0,2
 People Internal Gains Nominal, STORAGE ROOM < 5 M2-SCH-A-SPACE FUNCTION ZN SPACE FUNCTION STORAGE ROOM < 5 M2-SCH-A PEOPLE,NECB-A-OCCUPANCY,STORAGE ROOM < 5 M2-SCH-A-SPACE FUNCTION ZN,1875.00,18.8,18.8,1.000E-002,99.964,0.300,0.700,AutoCalculate,NECB-ACTIVITY,No,3.8200E-008,0,17
 People Internal Gains Nominal, STORAGE ROOM < 5 M2-SCH-B-SPACE FUNCTION ZN SPACE FUNCTION STORAGE ROOM < 5 M2-SCH-B PEOPLE,NECB-B-OCCUPANCY,STORAGE ROOM < 5 M2-SCH-B-SPACE FUNCTION ZN,1875.00,18.8,18.8,1.000E-002,99.964,0.300,0.700,AutoCalculate,NECB-ACTIVITY,No,3.8200E-008,0,17
 People Internal Gains Nominal, STORAGE ROOM < 5 M2-SCH-C-SPACE FUNCTION ZN SPACE FUNCTION STORAGE ROOM < 5 M2-SCH-C PEOPLE,NECB-C-OCCUPANCY,STORAGE ROOM < 5 M2-SCH-C-SPACE FUNCTION ZN,1875.00,18.8,18.8,1.000E-002,99.964,0.300,0.700,AutoCalculate,NECB-ACTIVITY,No,3.8200E-008,0,17
 People Internal Gains Nominal, STORAGE ROOM < 5 M2-SCH-D-SPACE FUNCTION ZN SPACE FUNCTION STORAGE ROOM < 5 M2-SCH-D PEOPLE,NECB-D-OCCUPANCY,STORAGE ROOM < 5 M2-SCH-D-SPACE FUNCTION ZN,1875.00,18.8,18.8,1.000E-002,99.964,0.300,0.700,AutoCalculate,NECB-ACTIVITY,No,3.8200E-008,0,17
 People Internal Gains Nominal, STORAGE ROOM < 5 M2-SCH-E-SPACE FUNCTION ZN SPACE FUNCTION STORAGE ROOM < 5 M2-SCH-E PEOPLE,NECB-E-OCCUPANCY,STORAGE ROOM < 5 M2-SCH-E-SPACE FUNCTION ZN,1875.00,18.8,18.8,1.000E-002,99.964,0.300,0.700,AutoCalculate,NECB-ACTIVITY,No,3.8200E-008,0,17
 People Internal Gains Nominal, STORAGE ROOM < 5 M2-SCH-F-SPACE FUNCTION ZN SPACE FUNCTION STORAGE ROOM < 5 M2-SCH-F PEOPLE,NECB-F-OCCUPANCY,STORAGE ROOM < 5 M2-SCH-F-SPACE FUNCTION ZN,1875.00,18.8,18.8,1.000E-002,99.964,0.300,0.700,AutoCalculate,NECB-ACTIVITY,No,3.8200E-008,3,12
 People Internal Gains Nominal, STORAGE ROOM < 5 M2-SCH-G-SPACE FUNCTION ZN SPACE FUNCTION STORAGE ROOM < 5 M2-SCH-G PEOPLE,NECB-G-OCCUPANCY,STORAGE ROOM < 5 M2-SCH-G-SPACE FUNCTION ZN,1875.00,18.8,18.8,1.000E-002,99.964,0.300,0.700,AutoCalculate,NECB-ACTIVITY,No,3.8200E-008,6,17
 People Internal Gains Nominal, STORAGE ROOM < 5 M2-SCH-H-SPACE FUNCTION ZN SPACE FUNCTION STORAGE ROOM < 5 M2-SCH-H PEOPLE,NECB-H-OCCUPANCY,STORAGE ROOM < 5 M2-SCH-H-SPACE FUNCTION ZN,1875.00,18.8,18.8,1.000E-002,99.964,0.300,0.700,AutoCalculate,NECB-ACTIVITY,No,3.8200E-008,17,17
 People Internal Gains Nominal, STORAGE ROOM < 5 M2-SCH-I-SPACE FUNCTION ZN SPACE FUNCTION STORAGE ROOM < 5 M2-SCH-I PEOPLE,NECB-I-OCCUPANCY,STORAGE ROOM < 5 M2-SCH-I-SPACE FUNCTION ZN,1875.00,18.8,18.8,1.000E-002,99.964,0.300,0.700,AutoCalculate,NECB-ACTIVITY,No,3.8200E-008,0,15
 People Internal Gains Nominal, STORAGE ROOM < 5 M2-SCH-J-SPACE FUNCTION ZN SPACE FUNCTION STORAGE ROOM < 5 M2-SCH-J PEOPLE,NECB-J-OCCUPANCY,STORAGE ROOM < 5 M2-SCH-J-SPACE FUNCTION ZN,1875.00,18.8,18.8,1.000E-002,99.964,0.300,0.700,AutoCalculate,NECB-ACTIVITY,No,3.8200E-008,11,17
 People Internal Gains Nominal, STORAGE ROOM < 5 M2-SCH-K-SPACE FUNCTION ZN SPACE FUNCTION STORAGE ROOM < 5 M2-SCH-K PEOPLE,NECB-K-OCCUPANCY,STORAGE ROOM < 5 M2-SCH-K-SPACE FUNCTION ZN,2500.00,25.0,25.0,1.000E-002,99.964,0.300,0.700,AutoCalculate,NECB-ACTIVITY,No,3.8200E-008,0,23
 People Internal Gains Nominal, STORAGE ROOM <= 5 M2 <= 100 M2-SCH-A-SPACE FUNCTION ZN SPACE FUNCTION STORAGE ROOM <= 5 M2 <= 100 M2-SCH-A PEOPLE,NECB-A-OCCUPANCY,STORAGE ROOM <= 5 M2 <= 100 M2-SCH-A-SPACE FUNCTION ZN,2500.00,25.0,25.0,1.000E-002,99.964,0.300,0.700,AutoCalculate,NECB-ACTIVITY,No,3.8200E-008,0,23
 People Internal Gains Nominal, STORAGE ROOM <= 5 M2 <= 100 M2-SCH-B-SPACE FUNCTION ZN SPACE FUNCTION STORAGE ROOM <= 5 M2 <= 100 M2-SCH-B PEOPLE,NECB-B-OCCUPANCY,STORAGE ROOM <= 5 M2 <= 100 M2-SCH-B-SPACE FUNCTION ZN,1875.00,18.8,18.8,1.000E-002,99.964,0.300,0.700,AutoCalculate,NECB-ACTIVITY,No,3.8200E-008,0,17
 People Internal Gains Nominal, STORAGE ROOM <= 5 M2 <= 100 M2-SCH-C-SPACE FUNCTION ZN SPACE FUNCTION STORAGE ROOM <= 5 M2 <= 100 M2-SCH-C PEOPLE,NECB-C-OCCUPANCY,STORAGE ROOM <= 5 M2 <= 100 M2-SCH-C-SPACE FUNCTION ZN,1875.00,18.8,18.8,1.000E-002,99.964,0.300,0.700,AutoCalculate,NECB-ACTIVITY,No,3.8200E-008,0,17
 People Internal Gains Nominal, STORAGE ROOM <= 5 M2 <= 100 M2-SCH-D-SPACE FUNCTION ZN SPACE FUNCTION STORAGE ROOM <= 5 M2 <= 100 M2-SCH-D PEOPLE,NECB-D-OCCUPANCY,STORAGE ROOM <= 5 M2 <= 100 M2-SCH-D-SPACE FUNCTION ZN,2500.00,25.0,25.0,1.000E-002,99.964,0.300,0.700,AutoCalculate,NECB-ACTIVITY,No,3.8200E-008,0,23
 People Internal Gains Nominal, STORAGE ROOM <= 5 M2 <= 100 M2-SCH-E-SPACE FUNCTION ZN SPACE FUNCTION STORAGE ROOM <= 5 M2 <= 100 M2-SCH-E PEOPLE,NECB-E-OCCUPANCY,STORAGE ROOM <= 5 M2 <= 100 M2-SCH-E-SPACE FUNCTION ZN,2500.00,25.0,25.0,1.000E-002,99.964,0.300,0.700,AutoCalculate,NECB-ACTIVITY,No,3.8200E-008,0,23
 People Internal Gains Nominal, STORAGE ROOM <= 5 M2 <= 100 M2-SCH-F-SPACE FUNCTION ZN SPACE FUNCTION STORAGE ROOM <= 5 M2 <= 100 M2-SCH-F PEOPLE,NECB-F-OCCUPANCY,STORAGE ROOM <= 5 M2 <= 100 M2-SCH-F-SPACE FUNCTION ZN,1875.00,18.8,18.8,1.000E-002,99.964,0.300,0.700,AutoCalculate,NECB-ACTIVITY,No,3.8200E-008,3,12
 People Internal Gains Nominal, STORAGE ROOM <= 5 M2 <= 100 M2-SCH-G-SPACE FUNCTION ZN SPACE FUNCTION STORAGE ROOM <= 5 M2 <= 100 M2-SCH-G PEOPLE,NECB-G-OCCUPANCY,STORAGE ROOM <= 5 M2 <= 100 M2-SCH-G-SPACE FUNCTION ZN,1875.00,18.8,18.8,1.000E-002,99.964,0.300,0.700,AutoCalculate,NECB-ACTIVITY,No,3.8200E-008,6,17
 People Internal Gains Nominal, STORAGE ROOM <= 5 M2 <= 100 M2-SCH-H-SPACE FUNCTION ZN SPACE FUNCTION STORAGE ROOM <= 5 M2 <= 100 M2-SCH-H PEOPLE,NECB-H-OCCUPANCY,STORAGE ROOM <= 5 M2 <= 100 M2-SCH-H-SPACE FUNCTION ZN,1875.00,18.8,18.8,1.000E-002,99.964,0.300,0.700,AutoCalculate,NECB-ACTIVITY,No,3.8200E-008,17,17
! <Lights Internal Gains Nominal>,Name,Schedule Name,Zone Name,Zone Floor Area {m2},# Zone Occupants,Lighting Level {W},Lights/Floor Area {W/m2},Lights per person {W/person},Fraction Return Air,Fraction Radiant,Fraction Short Wave,Fraction Convected,Fraction Replaceable,End-Use Category,Nominal Minimum Lighting Level {W},Nominal Maximum Lighting Level {W}
 Lights Internal Gains Nominal, STORAGE GARAGE INTERIOR-SPACE FUNCTION ZN SPACE FUNCTION STORAGE GARAGE INTERIOR LIGHTS,NECB-K-LIGHTING,STORAGE GARAGE INTERIOR-SPACE FUNCTION ZN,1875.00,1.9,3938.931,2.101,2100.000,0.000,0.500,0.200,0.300,1.000,General,3545.038,3545.038
 Lights Internal Gains Nominal, STORAGE ROOM < 5 M2-SCH-A-SPACE FUNCTION ZN SPACE FUNCTION STORAGE ROOM < 5 M2-SCH-A LIGHTS,NECB-A-OCCUPANCY-NECB-A-LIGHTING-0.6-0.0-0.67-LIGHT RULESET,STORAGE ROOM < 5 M2-SCH-A-SPACE FUNCTION ZN,1875.00,18.8,24946.563,13.305,1330.000,0.000,0.500,0.200,0.300,1.000,General,745.902,22451.907
 Lights Internal Gains Nominal, STORAGE ROOM < 5 M2-SCH-B-SPACE FUNCTION ZN SPACE FUNCTION STORAGE ROOM < 5 M2-SCH-B LIGHTS,NECB-B-OCCUPANCY-NECB-B-LIGHTING-0.6-0.0-0.67-LIGHT RULESET,STORAGE ROOM < 5 M2-SCH-B-SPACE FUNCTION ZN,1875.00,18.8,24946.563,13.305,1330.000,0.000,0.500,0.200,0.300,1.000,General,1491.804,22451.907
 Lights Internal Gains Nominal, STORAGE ROOM < 5 M2-SCH-C-SPACE FUNCTION ZN SPACE FUNCTION STORAGE ROOM < 5 M2-SCH-C LIGHTS,NECB-C-OCCUPANCY-NECB-C-LIGHTING-0.6-0.0-0.67-LIGHT RULESET,STORAGE ROOM < 5 M2-SCH-C-SPACE FUNCTION ZN,1875.00,18.8,24946.563,13.305,1330.000,0.000,0.500,0.200,0.300,1.000,General,745.902,22451.907
 Lights Internal Gains Nominal, STORAGE ROOM < 5 M2-SCH-D-SPACE FUNCTION ZN SPACE FUNCTION STORAGE ROOM < 5 M2-SCH-D LIGHTS,NECB-D-OCCUPANCY-NECB-D-LIGHTING-0.6-0.0-0.67-LIGHT RULESET,STORAGE ROOM < 5 M2-SCH-D-SPACE FUNCTION ZN,1875.00,18.8,24946.563,13.305,1330.000,0.000,0.500,0.200,0.300,1.000,General,745.902,22451.907
 Lights Internal Gains Nominal, STORAGE ROOM < 5 M2-SCH-E-SPACE FUNCTION ZN SPACE FUNCTION STORAGE ROOM < 5 M2-SCH-E LIGHTS,NECB-E-OCCUPANCY-NECB-E-LIGHTING-0.6-0.0-0.67-LIGHT RULESET,STORAGE ROOM < 5 M2-SCH-E-SPACE FUNCTION ZN,1875.00,18.8,24946.563,13.305,1330.000,0.000,0.500,0.200,0.300,1.000,General,745.902,22451.907
 Lights Internal Gains Nominal, STORAGE ROOM < 5 M2-SCH-F-SPACE FUNCTION ZN SPACE FUNCTION STORAGE ROOM < 5 M2-SCH-F LIGHTS,NECB-F-OCCUPANCY-NECB-F-LIGHTING-0.6-0.0-0.67-LIGHT RULESET,STORAGE ROOM < 5 M2-SCH-F-SPACE FUNCTION ZN,1875.00,18.8,24946.563,13.305,1330.000,0.000,0.500,0.200,0.300,1.000,General,1746.259,10477.556
 Lights Internal Gains Nominal, STORAGE ROOM < 5 M2-SCH-G-SPACE FUNCTION ZN SPACE FUNCTION STORAGE ROOM < 5 M2-SCH-G LIGHTS,NECB-G-OCCUPANCY-NECB-G-LIGHTING-0.6-0.0-0.67-LIGHT RULESET,STORAGE ROOM < 5 M2-SCH-G-SPACE FUNCTION ZN,1875.00,18.8,24946.563,13.305,1330.000,0.000,0.500,0.200,0.300,1.000,General,0.000,22451.907
 Lights Internal Gains Nominal, STORAGE ROOM < 5 M2-SCH-H-SPACE FUNCTION ZN SPACE FUNCTION STORAGE ROOM < 5 M2-SCH-H LIGHTS,NECB-H-OCCUPANCY-NECB-H-LIGHTING-0.6-0.0-0.67-LIGHT RULESET,STORAGE ROOM < 5 M2-SCH-H-SPACE FUNCTION ZN,1875.00,18.8,24946.563,13.305,1330.000,0.000,0.500,0.200,0.300,1.000,General,22451.907,22451.907
 Lights Internal Gains Nominal, STORAGE ROOM < 5 M2-SCH-I-SPACE FUNCTION ZN SPACE FUNCTION STORAGE ROOM < 5 M2-SCH-I LIGHTS,NECB-I-OCCUPANCY-NECB-I-LIGHTING-0.6-0.0-0.67-LIGHT RULESET,STORAGE ROOM < 5 M2-SCH-I-SPACE FUNCTION ZN,1875.00,18.8,24946.563,13.305,1330.000,0.000,0.500,0.200,0.300,1.000,General,745.902,22451.907
 Lights Internal Gains Nominal, STORAGE ROOM < 5 M2-SCH-J-SPACE FUNCTION ZN SPACE FUNCTION STORAGE ROOM < 5 M2-SCH-J LIGHTS,NECB-J-OCCUPANCY-NECB-J-LIGHTING-0.6-0.0-0.67-LIGHT RULESET,STORAGE ROOM < 5 M2-SCH-J-SPACE FUNCTION ZN,1875.00,18.8,24946.563,13.305,1330.000,0.000,0.500,0.200,0.300,1.000,General,2494.656,17462.594
 Lights Internal Gains Nominal, STORAGE ROOM < 5 M2-SCH-K-SPACE FUNCTION ZN SPACE FUNCTION STORAGE ROOM < 5 M2-SCH-K LIGHTS,NECB-K-OCCUPANCY-NECB-K-LIGHTING-0.6-0.0-0.67-LIGHT RULESET,STORAGE ROOM < 5 M2-SCH-K-SPACE FUNCTION ZN,2500.00,25.0,33262.084,13.305,1330.000,0.000,0.500,0.200,0.300,1.000,General,17901.653,29935.875
 Lights Internal Gains Nominal, STORAGE ROOM <= 5 M2 <= 100 M2-SCH-A-SPACE FUNCTION ZN SPACE FUNCTION STORAGE ROOM <= 5 M2 <= 100 M2-SCH-A LIGHTS,NECB-A-LIGHTING,STORAGE ROOM <= 5 M2 <= 100 M2-SCH-A-SPACE FUNCTION ZN,2500.00,25.0,17006.178,6.802,680.000,0.000,0.500,0.200,0.300,1.000,General,850.309,15305.560
 Lights Internal Gains Nominal, STORAGE ROOM <= 5 M2 <= 100 M2-SCH-B-SPACE FUNCTION ZN SPACE FUNCTION STORAGE ROOM <= 5 M2 <= 100 M2-SCH-B LIGHTS,NECB-B-LIGHTING,STORAGE ROOM <= 5 M2 <= 100 M2-SCH-B-SPACE FUNCTION ZN,1875.00,18.8,12754.634,6.802,680.000,0.000,0.500,0.200,0.300,1.000,General,1275.463,11479.170
 Lights Internal Gains Nominal, STORAGE ROOM <= 5 M2 <= 100 M2-SCH-C-SPACE FUNCTION ZN SPACE FUNCTION STORAGE ROOM <= 5 M2 <= 100 M2-SCH-C LIGHTS,NECB-C-LIGHTING,STORAGE ROOM <= 5 M2 <= 100 M2-SCH-C-SPACE FUNCTION ZN,1875.00,18.8,12754.634,6.802,680.000,0.000,0.500,0.200,0.300,1.000,General,637.732,11479.170
 Lights Internal Gains Nominal, STORAGE ROOM <= 5 M2 <= 100 M2-SCH-D-SPACE FUNCTION ZN SPACE FUNCTION STORAGE ROOM <= 5 M2 <= 100 M2-SCH-D LIGHTS,NECB-D-LIGHTING,STORAGE ROOM <= 5 M2 <= 100 M2-SCH-D-SPACE FUNCTION ZN,2500.00,25.0,17006.178,6.802,680.000,0.000,0.500,0.200,0.300,1.000,General,850.309,15305.560
 Lights Internal Gains Nominal, STORAGE ROOM <= 5 M2 <= 100 M2-SCH-E-SPACE FUNCTION ZN SPACE FUNCTION STORAGE ROOM <= 5 M2 <= 100 M2-SCH-E LIGHTS,NECB-E-LIGHTING,STORAGE ROOM <= 5 M2 <= 100 M2-SCH-E-SPACE FUNCTION ZN,2500.00,25.0,17006.178,6.802,680.000,0.000,0.500,0.200,0.300,1.000,General,850.309,15305.560
 Lights Internal Gains Nominal, STORAGE ROOM <= 5 M2 <= 100 M2-SCH-F-SPACE FUNCTION ZN SPACE FUNCTION STORAGE ROOM <= 5 M2 <= 100 M2-SCH-F LIGHTS,NECB-F-LIGHTING,STORAGE ROOM <= 5 M2 <= 100 M2-SCH-F-SPACE FUNCTION ZN,1875.00,18.8,12754.634,6.802,680.000,0.000,0.500,0.200,0.300,1.000,General,892.824,8035.419
 Lights Internal Gains Nominal, STORAGE ROOM <= 5 M2 <= 100 M2-SCH-G-SPACE FUNCTION ZN SPACE FUNCTION STORAGE ROOM <= 5 M2 <= 100 M2-SCH-G LIGHTS,NECB-G-LIGHTING,STORAGE ROOM <= 5 M2 <= 100 M2-SCH-G-SPACE FUNCTION ZN,1875.00,18.8,12754.634,6.802,680.000,0.000,0.500,0.200,0.300,1.000,General,0.000,11479.170
 Lights Internal Gains Nominal, STORAGE ROOM <= 5 M2 <= 100 M2-SCH-H-SPACE FUNCTION ZN SPACE FUNCTION STORAGE ROOM <= 5 M2 <= 100 M2-SCH-H LIGHTS,NECB-H-LIGHTING,STORAGE ROOM <= 5 M2 <= 100 M2-SCH-H-SPACE FUNCTION ZN,1875.00,18.8,12754.634,6.802,680.000,0.000,0.500,0.200,0.300,1.000,General,11479.170,11479.170
! <ElectricEquipment Internal Gains Nominal>,Name,Schedule Name,Zone Name,Zone Floor Area {m2},# Zone Occupants,Equipment Level {W},Equipment/Floor Area {W/m2},Equipment per person {W/person},Fraction Latent,Fraction Radiant,Fraction Lost,Fraction Convected,End-Use SubCategory,Nominal Minimum Equipment Level {W},Nominal Maximum Equipment Level {W}
 ElectricEquipment Internal Gains Nominal, STORAGE ROOM < 5 M2-SCH-A-SPACE FUNCTION ZN SPACE FUNCTION STORAGE ROOM < 5 M2-SCH-A ELEC EQUIP,NECB-A-ELECTRIC-EQUIPMENT,STORAGE ROOM < 5 M2-SCH-A-SPACE FUNCTION ZN,1875.00,18.8,1875.681,1.000,100.000,0.000,0.500,0.000,0.500,General,375.136,1688.113
 ElectricEquipment Internal Gains Nominal, STORAGE ROOM < 5 M2-SCH-B-SPACE FUNCTION ZN SPACE FUNCTION STORAGE ROOM < 5 M2-SCH-B ELEC EQUIP,NECB-B-ELECTRIC-EQUIPMENT,STORAGE ROOM < 5 M2-SCH-B-SPACE FUNCTION ZN,1875.00,18.8,1875.681,1.000,100.000,0.000,0.500,0.000,0.500,General,187.568,1688.113
 ElectricEquipment Internal Gains Nominal, STORAGE ROOM < 5 M2-SCH-C-SPACE FUNCTION ZN SPACE FUNCTION STORAGE ROOM < 5 M2-SCH-C ELEC EQUIP,NECB-C-ELECTRIC-EQUIPMENT,STORAGE ROOM < 5 M2-SCH-C-SPACE FUNCTION ZN,1875.00,18.8,1875.681,1.000,100.000,0.000,0.500,0.000,0.500,General,93.784,1688.113
 ElectricEquipment Internal Gains Nominal, STORAGE ROOM < 5 M2-SCH-D-SPACE FUNCTION ZN SPACE FUNCTION STORAGE ROOM < 5 M2-SCH-D ELEC EQUIP,NECB-D-ELECTRIC-EQUIPMENT,STORAGE ROOM < 5 M2-SCH-D-SPACE FUNCTION ZN,1875.00,18.8,1875.681,1.000,100.000,0.000,0.500,0.000,0.500,General,93.784,1688.113
 ElectricEquipment Internal Gains Nominal, STORAGE ROOM < 5 M2-SCH-E-SPACE FUNCTION ZN SPACE FUNCTION STORAGE ROOM < 5 M2-SCH-E ELEC EQUIP,NECB-E-ELECTRIC-EQUIPMENT,STORAGE ROOM < 5 M2-SCH-E-SPACE FUNCTION ZN,1875.00,18.8,1875.681,1.000,100.000,0.000,0.500,0.000,0.500,General,93.784,1688.113
 ElectricEquipment Internal Gains Nominal, STORAGE ROOM < 5 M2-SCH-F-SPACE FUNCTION ZN SPACE FUNCTION STORAGE ROOM < 5 M2-SCH-F ELEC EQUIP,NECB-F-ELECTRIC-EQUIPMENT,STORAGE ROOM < 5 M2-SCH-F-SPACE FUNCTION ZN,1875.00,18.8,1875.681,1.000,100.000,0.000,0.500,0.000,0.500,General,131.298,1181.679
 ElectricEquipment Internal Gains Nominal, STORAGE ROOM < 5 M2-SCH-G-SPACE FUNCTION ZN SPACE FUNCTION STORAGE ROOM < 5 M2-SCH-G ELEC EQUIP,NECB-G-ELECTRIC-EQUIPMENT,STORAGE ROOM < 5 M2-SCH-G-SPACE FUNCTION ZN,1875.00,18.8,1875.681,1.000,100.000,0.000,0.500,0.000,0.500,General,375.136,1688.113
 ElectricEquipment Internal Gains Nominal, STORAGE ROOM < 5 M2-SCH-H-SPACE FUNCTION ZN SPACE FUNCTION STORAGE ROOM < 5 M2-SCH-H ELEC EQUIP,NECB-H-ELECTRIC-EQUIPMENT,STORAGE ROOM < 5 M2-SCH-H-SPACE FUNCTION ZN,1875.00,18.8,1875.681,1.000,100.000,0.000,0.500,0.000,0.500,General,1688.113,1688.113
 ElectricEquipment Internal Gains Nominal, STORAGE ROOM < 5 M2-SCH-I-SPACE FUNCTION ZN SPACE FUNCTION STORAGE ROOM < 5 M2-SCH-I ELEC EQUIP,NECB-I-ELECTRIC-EQUIPMENT,STORAGE ROOM < 5 M2-SCH-I-SPACE FUNCTION ZN,1875.00,18.8,1875.681,1.000,100.000,0.000,0.500,0.000,0.500,General,187.568,1500.545
 ElectricEquipment Internal Gains Nominal, STORAGE ROOM < 5 M2-SCH-J-SPACE FUNCTION ZN SPACE FUNCTION STORAGE ROOM < 5 M2-SCH-J ELEC EQUIP,NECB-J-ELECTRIC-EQUIPMENT,STORAGE ROOM < 5 M2-SCH-J-SPACE FUNCTION ZN,1875.00,18.8,1875.681,1.000,100.000,0.000,0.500,0.000,0.500,General,187.568,1312.977
 ElectricEquipment Internal Gains Nominal, STORAGE ROOM < 5 M2-SCH-K-SPACE FUNCTION ZN SPACE FUNCTION STORAGE ROOM < 5 M2-SCH-K ELEC EQUIP,NECB-K-ELECTRIC-EQUIPMENT,STORAGE ROOM < 5 M2-SCH-K-SPACE FUNCTION ZN,2500.00,25.0,2500.909,1.000,100.000,0.000,0.500,0.000,0.500,General,0.000,0.000
! <Shadowing/Sun Position Calculations Annual Simulations>, Calculation Method, Value {days}, Allowable Number Figures in Shadow Overlap {}, Polygon Clipping Algorithm, Sky Diffuse Modeling Algorithm, External Shading Calculation Method, Output External Shading Calculation Results, Disable Self-Shading Within Shading Zone Groups, Disable Self-Shading From Shading Zone Groups to Other Zones
Shadowing/Sun Position Calculations Annual Simulations,AverageOverDaysInFrequency,20,15000,SutherlandHodgman,SimpleSkyDiffuseModeling,InternalCalculation,No,No,No
! <ZoneInfiltration Airflow Stats Nominal>,Name,Schedule Name,Zone Name, Zone Floor Area {m2}, # Zone Occupants,Design Volume Flow Rate {m3/s},Volume Flow Rate/Floor Area {m3/s/m2},Volume Flow Rate/Exterior Surface Area {m3/s/m2},ACH - Air Changes per Hour,Equation A - Constant Term Coefficient {},Equation B - Temperature Term Coefficient {1/C},Equation C - Velocity Term Coefficient {s/m}, Equation D - Velocity Squared Term Coefficient {s2/m2}
 ZoneInfiltration Airflow Stats Nominal, STORAGE GARAGE INTERIOR-SPACE FUNCTION INFILTRATION,ALWAYS ON DISCRETE,STORAGE GARAGE INTERIOR-SPACE FUNCTION ZN,1875.00,1.9,0.564,3.007E-004,2.500E-004,0.285,0.000,0.000,0.224,0.000
 ZoneInfiltration Airflow Stats Nominal, STORAGE ROOM < 5 M2-SCH-A-SPACE FUNCTION INFILTRATION,ALWAYS ON DISCRETE,STORAGE ROOM < 5 M2-SCH-A-SPACE FUNCTION ZN,1875.00,18.8,0.564,3.007E-004,2.500E-004,0.285,0.000,0.000,0.224,0.000
 ZoneInfiltration Airflow Stats Nominal, STORAGE ROOM < 5 M2-SCH-B-SPACE FUNCTION INFILTRATION,ALWAYS ON DISCRETE,STORAGE ROOM < 5 M2-SCH-B-SPACE FUNCTION ZN,1875.00,18.8,0.564,3.007E-004,2.500E-004,0.285,0.000,0.000,0.224,0.000
 ZoneInfiltration Airflow Stats Nominal, STORAGE ROOM < 5 M2-SCH-C-SPACE FUNCTION INFILTRATION,ALWAYS ON DISCRETE,STORAGE ROOM < 5 M2-SCH-C-SPACE FUNCTION ZN,1875.00,18.8,9.500E-002,5.067E-005,2.500E-004,4.800E-002,0.000,0.000,0.224,0.000
 ZoneInfiltration Airflow Stats Nominal, STORAGE ROOM < 5 M2-SCH-D-SPACE FUNCTION INFILTRATION,ALWAYS ON DISCRETE,STORAGE ROOM < 5 M2-SCH-D-SPACE FUNCTION ZN,1875.00,18.8,9.500E-002,5.067E-005,2.500E-004,4.800E-002,0.000,0.000,0.224,0.000
 ZoneInfiltration Airflow Stats Nominal, STORAGE ROOM < 5 M2-SCH-E-SPACE FUNCTION INFILTRATION,ALWAYS ON DISCRETE,STORAGE ROOM < 5 M2-SCH-E-SPACE FUNCTION ZN,1875.00,18.8,9.500E-002,5.067E-005,2.500E-004,4.800E-002,0.000,0.000,0.224,0.000
 ZoneInfiltration Airflow Stats Nominal, STORAGE ROOM < 5 M2-SCH-F-SPACE FUNCTION INFILTRATION,ALWAYS ON DISCRETE,STORAGE ROOM < 5 M2-SCH-F-SPACE FUNCTION ZN,1875.00,18.8,9.500E-002,5.067E-005,2.500E-004,4.800E-002,0.000,0.000,0.224,0.000
 ZoneInfiltration Airflow Stats Nominal, STORAGE ROOM < 5 M2-SCH-I-SPACE FUNCTION INFILTRATION,ALWAYS ON DISCRETE,STORAGE ROOM < 5 M2-SCH-I-SPACE FUNCTION ZN,1875.00,18.8,0.564,3.007E-004,2.500E-004,0.285,0.000,0.000,0.224,0.000
 ZoneInfiltration Airflow Stats Nominal, STORAGE ROOM <= 5 M2 <= 100 M2-SCH-B-SPACE FUNCTION INFILTRATION,ALWAYS ON DISCRETE,STORAGE ROOM <= 5 M2 <= 100 M2-SCH-B-SPACE FUNCTION ZN,1875.00,18.8,9.500E-002,5.067E-005,2.500E-004,4.800E-002,0.000,0.000,0.224,0.000
 ZoneInfiltration Airflow Stats Nominal, STORAGE ROOM <= 5 M2 <= 100 M2-SCH-C-SPACE FUNCTION INFILTRATION,ALWAYS ON DISCRETE,STORAGE ROOM <= 5 M2 <= 100 M2-SCH-C-SPACE FUNCTION ZN,1875.00,18.8,9.500E-002,5.067E-005,2.500E-004,4.800E-002,0.000,0.000,0.224,0.000
 ZoneInfiltration Airflow Stats Nominal, STORAGE ROOM <= 5 M2 <= 100 M2-SCH-E-SPACE FUNCTION INFILTRATION,ALWAYS ON DISCRETE,STORAGE ROOM <= 5 M2 <= 100 M2-SCH-E-SPACE FUNCTION ZN,2500.00,25.0,0.625,2.500E-004,2.500E-004,0.237,0.000,0.000,0.224,0.000
 ZoneInfiltration Airflow Stats Nominal, STORAGE ROOM <= 5 M2 <= 100 M2-SCH-F-SPACE FUNCTION INFILTRATION,ALWAYS ON DISCRETE,STORAGE ROOM <= 5 M2 <= 100 M2-SCH-F-SPACE FUNCTION ZN,1875.00,18.8,9.500E-002,5.067E-005,2.500E-004,4.800E-002,0.000,0.000,0.224,0.000
 ZoneInfiltration Airflow Stats Nominal, STORAGE ROOM <= 5 M2 <= 100 M2-SCH-H-SPACE FUNCTION INFILTRATION,ALWAYS ON DISCRETE,STORAGE ROOM <= 5 M2 <= 100 M2-SCH-H-SPACE FUNCTION ZN,1875.00,18.8,9.500E-002,5.067E-005,2.500E-004,4.800E-002,0.000,0.000,0.224,0.000
! <AirFlow Model>, Simple
 AirFlow Model, Simple
! <RoomAir Model>, Zone Name, Mixing/Mundt/UCSDDV/UCSDCV/UCSDUFI/UCSDUFE/User Defined
RoomAir Model,STORAGE GARAGE INTERIOR-SPACE FUNCTION ZN,Mixing/Well-Stirred
RoomAir Model,STORAGE ROOM < 5 M2-SCH-A-SPACE FUNCTION ZN,Mixing/Well-Stirred
RoomAir Model,STORAGE ROOM < 5 M2-SCH-B-SPACE FUNCTION ZN,Mixing/Well-Stirred
RoomAir Model,STORAGE ROOM < 5 M2-SCH-C-SPACE FUNCTION ZN,Mixing/Well-Stirred
RoomAir Model,STORAGE ROOM < 5 M2-SCH-D-SPACE FUNCTION ZN,Mixing/Well-Stirred
RoomAir Model,STORAGE ROOM < 5 M2-SCH-E-SPACE FUNCTION ZN,Mixing/Well-Stirred
RoomAir Model,STORAGE ROOM < 5 M2-SCH-F-SPACE FUNCTION ZN,Mixing/Well-Stirred
RoomAir Model,STORAGE ROOM < 5 M2-SCH-G-SPACE FUNCTION ZN,Mixing/Well-Stirred
RoomAir Model,STORAGE ROOM < 5 M2-SCH-H-SPACE FUNCTION ZN,Mixing/Well-Stirred
RoomAir Model,STORAGE ROOM < 5 M2-SCH-I-SPACE FUNCTION ZN,Mixing/Well-Stirred
RoomAir Model,STORAGE ROOM < 5 M2-SCH-J-SPACE FUNCTION ZN,Mixing/Well-Stirred
RoomAir Model,STORAGE ROOM < 5 M2-SCH-K-SPACE FUNCTION ZN,Mixing/Well-Stirred
RoomAir Model,STORAGE ROOM <= 5 M2 <= 100 M2-SCH-A-SPACE FUNCTION ZN,Mixing/Well-Stirred
RoomAir Model,STORAGE ROOM <= 5 M2 <= 100 M2-SCH-B-SPACE FUNCTION ZN,Mixing/Well-Stirred
RoomAir Model,STORAGE ROOM <= 5 M2 <= 100 M2-SCH-C-SPACE FUNCTION ZN,Mixing/Well-Stirred
RoomAir Model,STORAGE ROOM <= 5 M2 <= 100 M2-SCH-D-SPACE FUNCTION ZN,Mixing/Well-Stirred
RoomAir Model,STORAGE ROOM <= 5 M2 <= 100 M2-SCH-E-SPACE FUNCTION ZN,Mixing/Well-Stirred
RoomAir Model,STORAGE ROOM <= 5 M2 <= 100 M2-SCH-F-SPACE FUNCTION ZN,Mixing/Well-Stirred
RoomAir Model,STORAGE ROOM <= 5 M2 <= 100 M2-SCH-G-SPACE FUNCTION ZN,Mixing/Well-Stirred
RoomAir Model,STORAGE ROOM <= 5 M2 <= 100 M2-SCH-H-SPACE FUNCTION ZN,Mixing/Well-Stirred
! <AirflowNetwork Model:Control>, No Multizone or Distribution/Multizone with Distribution/Multizone without Distribution/Multizone with Distribution only during Fan Operation
AirflowNetwork Model:Control,NoMultizoneOrDistribution
! <Zone Volume Capacitance Multiplier>, Sensible Heat Capacity Multiplier, Moisture Capacity Multiplier, Carbon Dioxide Capacity Multiplier, Generic Contaminant Capacity Multiplier
Zone Volume Capacitance Multiplier,   1.000 ,   1.000,   1.000,   1.000
! <Load Timesteps in Zone Design Calculation Averaging Window>, Value
 Load Timesteps in Zone Design Calculation Averaging Window,    6
! <Heating Sizing Factor Information>, Sizing Factor ID, Value
 Heating Sizing Factor Information, Global,   1.2500    
 Heating Sizing Factor Information, Zone STORAGE GARAGE INTERIOR-SPACE FUNCTION ZN,   1.2500    
 Heating Sizing Factor Information, Zone STORAGE ROOM < 5 M2-SCH-A-SPACE FUNCTION ZN,   1.2500    
 Heating Sizing Factor Information, Zone STORAGE ROOM < 5 M2-SCH-B-SPACE FUNCTION ZN,   1.2500    
 Heating Sizing Factor Information, Zone STORAGE ROOM < 5 M2-SCH-C-SPACE FUNCTION ZN,   1.2500    
 Heating Sizing Factor Information, Zone STORAGE ROOM < 5 M2-SCH-D-SPACE FUNCTION ZN,   1.2500    
 Heating Sizing Factor Information, Zone STORAGE ROOM < 5 M2-SCH-E-SPACE FUNCTION ZN,   1.2500    
 Heating Sizing Factor Information, Zone STORAGE ROOM < 5 M2-SCH-F-SPACE FUNCTION ZN,   1.2500    
 Heating Sizing Factor Information, Zone STORAGE ROOM < 5 M2-SCH-G-SPACE FUNCTION ZN,   1.2500    
 Heating Sizing Factor Information, Zone STORAGE ROOM < 5 M2-SCH-H-SPACE FUNCTION ZN,   1.2500    
 Heating Sizing Factor Information, Zone STORAGE ROOM < 5 M2-SCH-I-SPACE FUNCTION ZN,   1.2500    
 Heating Sizing Factor Information, Zone STORAGE ROOM < 5 M2-SCH-J-SPACE FUNCTION ZN,   1.2500    
 Heating Sizing Factor Information, Zone STORAGE ROOM < 5 M2-SCH-K-SPACE FUNCTION ZN,   1.2500    
 Heating Sizing Factor Information, Zone STORAGE ROOM <= 5 M2 <= 100 M2-SCH-A-SPACE FUNCTION ZN,   1.2500    
 Heating Sizing Factor Information, Zone STORAGE ROOM <= 5 M2 <= 100 M2-SCH-B-SPACE FUNCTION ZN,   1.2500    
 Heating Sizing Factor Information, Zone STORAGE ROOM <= 5 M2 <= 100 M2-SCH-C-SPACE FUNCTION ZN,   1.2500    
 Heating Sizing Factor Information, Zone STORAGE ROOM <= 5 M2 <= 100 M2-SCH-D-SPACE FUNCTION ZN,   1.2500    
 Heating Sizing Factor Information, Zone STORAGE ROOM <= 5 M2 <= 100 M2-SCH-E-SPACE FUNCTION ZN,   1.2500    
 Heating Sizing Factor Information, Zone STORAGE ROOM <= 5 M2 <= 100 M2-SCH-F-SPACE FUNCTION ZN,   1.2500    
 Heating Sizing Factor Information, Zone STORAGE ROOM <= 5 M2 <= 100 M2-SCH-G-SPACE FUNCTION ZN,   1.2500    
 Heating Sizing Factor Information, Zone STORAGE ROOM <= 5 M2 <= 100 M2-SCH-H-SPACE FUNCTION ZN,   1.2500    
! <Cooling Sizing Factor Information>, Sizing Factor ID, Value
 Cooling Sizing Factor Information, Global,   1.1500    
 Cooling Sizing Factor Information, Zone STORAGE GARAGE INTERIOR-SPACE FUNCTION ZN,   1.1500    
 Cooling Sizing Factor Information, Zone STORAGE ROOM < 5 M2-SCH-A-SPACE FUNCTION ZN,   1.1500    
 Cooling Sizing Factor Information, Zone STORAGE ROOM < 5 M2-SCH-B-SPACE FUNCTION ZN,   1.1500    
 Cooling Sizing Factor Information, Zone STORAGE ROOM < 5 M2-SCH-C-SPACE FUNCTION ZN,   1.1500    
 Cooling Sizing Factor Information, Zone STORAGE ROOM < 5 M2-SCH-D-SPACE FUNCTION ZN,   1.1500    
 Cooling Sizing Factor Information, Zone STORAGE ROOM < 5 M2-SCH-E-SPACE FUNCTION ZN,   1.1500    
 Cooling Sizing Factor Information, Zone STORAGE ROOM < 5 M2-SCH-F-SPACE FUNCTION ZN,   1.1500    
 Cooling Sizing Factor Information, Zone STORAGE ROOM < 5 M2-SCH-G-SPACE FUNCTION ZN,   1.1500    
 Cooling Sizing Factor Information, Zone STORAGE ROOM < 5 M2-SCH-H-SPACE FUNCTION ZN,   1.1500    
 Cooling Sizing Factor Information, Zone STORAGE ROOM < 5 M2-SCH-I-SPACE FUNCTION ZN,   1.1500    
 Cooling Sizing Factor Information, Zone STORAGE ROOM < 5 M2-SCH-J-SPACE FUNCTION ZN,   1.1500    
 Cooling Sizing Factor Information, Zone STORAGE ROOM < 5 M2-SCH-K-SPACE FUNCTION ZN,   1.1500    
 Cooling Sizing Factor Information, Zone STORAGE ROOM <= 5 M2 <= 100 M2-SCH-A-SPACE FUNCTION ZN,   1.1500    
 Cooling Sizing Factor Information, Zone STORAGE ROOM <= 5 M2 <= 100 M2-SCH-B-SPACE FUNCTION ZN,   1.1500    
 Cooling Sizing Factor Information, Zone STORAGE ROOM <= 5 M2 <= 100 M2-SCH-C-SPACE FUNCTION ZN,   1.1500    
 Cooling Sizing Factor Information, Zone STORAGE ROOM <= 5 M2 <= 100 M2-SCH-D-SPACE FUNCTION ZN,   1.1500    
 Cooling Sizing Factor Information, Zone STORAGE ROOM <= 5 M2 <= 100 M2-SCH-E-SPACE FUNCTION ZN,   1.1500    
 Cooling Sizing Factor Information, Zone STORAGE ROOM <= 5 M2 <= 100 M2-SCH-F-SPACE FUNCTION ZN,   1.1500    
 Cooling Sizing Factor Information, Zone STORAGE ROOM <= 5 M2 <= 100 M2-SCH-G-SPACE FUNCTION ZN,   1.1500    
 Cooling Sizing Factor Information, Zone STORAGE ROOM <= 5 M2 <= 100 M2-SCH-H-SPACE FUNCTION ZN,   1.1500    
! <Zone Sizing Information>, Zone Name, Load Type, Calc Des Load {W}, User Des Load {W}, Calc Des Air Flow Rate {m3/s}, User Des Air Flow Rate {m3/s}, Design Day Name, Date/Time of Peak, Temperature at Peak {C}, Humidity Ratio at Peak {kgWater/kgDryAir}, Floor Area {m2}, # Occupants, Calc Outdoor Air Flow Rate {m3/s}, Calc DOAS Heat Addition Rate {W}
 Zone Sizing Information, STORAGE GARAGE INTERIOR-SPACE FUNCTION ZN, Cooling, 0.00000, 0.00000, 0.00000, 7.14375, FORT MCMURRAY AP ANN CLG .4% CONDNS DB=>MWB, , 28.90000, 8.76969E-003, 1875.00000, 1.87568, 7.14375, 0.00000
 Zone Sizing Information, STORAGE GARAGE INTERIOR-SPACE FUNCTION ZN, Heating, 0.00000, 0.00000, 0.00000, 7.14375, FORT MCMURRAY AP ANN HTG 99.6% CONDNS DB, , -36.20000, 1.25811E-004, 1875.00000, 1.87568, 7.14375, 0.00000
 Zone Sizing Information, STORAGE ROOM < 5 M2-SCH-A-SPACE FUNCTION ZN, Cooling, 61831.11936, 71105.78726, 5.25637, 6.04483, FORT MCMURRAY AP ANN CLG .4% CONDNS DB=>MWB, 7/21 15:00:00, 28.90000, 8.76969E-003, 1875.00000, 18.75681, 0.66675, 0.00000
 Zone Sizing Information, STORAGE ROOM < 5 M2-SCH-A-SPACE FUNCTION ZN, Heating, 57419.14660, 71773.93325, 2.66999, 3.33749, FORT MCMURRAY AP ANN HTG 99.6% CONDNS DB, 1/21 08:00:00, -36.20000, 1.25811E-004, 1875.00000, 18.75681, 0.66675, 0.00000
 Zone Sizing Information, STORAGE ROOM < 5 M2-SCH-B-SPACE FUNCTION ZN, Cooling, 66133.10532, 76053.07112, 5.62210, 6.46542, FORT MCMURRAY AP ANN CLG .4% CONDNS DB=>MWB, 7/21 16:10:00, 27.99067, 8.76969E-003, 1875.00000, 18.75681, 0.66675, 0.00000
 Zone Sizing Information, STORAGE ROOM < 5 M2-SCH-B-SPACE FUNCTION ZN, Heating, 52109.67298, 65137.09122, 2.41900, 3.02375, FORT MCMURRAY AP ANN HTG 99.6% CONDNS DB, 1/21 10:00:00, -36.20000, 1.25811E-004, 1875.00000, 18.75681, 0.66675, 0.00000
 Zone Sizing Information, STORAGE ROOM < 5 M2-SCH-C-SPACE FUNCTION ZN, Cooling, 37732.63387, 43392.52895, 3.20773, 3.68889, FORT MCMURRAY AP ANN CLG .4% CONDNS DB=>MWB, 7/21 14:10:00, 28.90000, 8.76969E-003, 1875.00000, 18.75681, 0.66675, 0.00000
 Zone Sizing Information, STORAGE ROOM < 5 M2-SCH-C-SPACE FUNCTION ZN, Heating, 44406.80582, 55508.50728, 2.05749, 2.57186, FORT MCMURRAY AP ANN HTG 99.6% CONDNS DB, 1/21 09:00:00, -36.20000, 1.25811E-004, 1875.00000, 18.75681, 0.66675, 0.00000
 Zone Sizing Information, STORAGE ROOM < 5 M2-SCH-D-SPACE FUNCTION ZN, Cooling, 44368.59481, 51023.88403, 3.77185, 4.33763, FORT MCMURRAY AP ANN CLG .4% CONDNS DB=>MWB, 7/21 15:00:00, 28.90000, 8.76969E-003, 1875.00000, 18.75681, 0.66675, 0.00000
 Zone Sizing Information, STORAGE ROOM < 5 M2-SCH-D-SPACE FUNCTION ZN, Heating, 32076.47323, 40095.59154, 1.47597, 1.84496, FORT MCMURRAY AP ANN HTG 99.6% CONDNS DB, 1/21 09:00:00, -36.20000, 1.25811E-004, 1875.00000, 18.75681, 0.66675, 0.00000
 Zone Sizing Information, STORAGE ROOM < 5 M2-SCH-E-SPACE FUNCTION ZN, Cooling, 30781.84955, 35399.12698, 2.61684, 3.00937, FORT MCMURRAY AP ANN CLG .4% CONDNS DB=>MWB, 7/21 17:10:00, 26.95733, 8.76969E-003, 1875.00000, 18.75681, 0.66675, 0.00000
 Zone Sizing Information, STORAGE ROOM < 5 M2-SCH-E-SPACE FUNCTION ZN, Heating, 30294.94767, 37868.68459, 1.39176, 1.73970, FORT MCMURRAY AP ANN HTG 99.6% CONDNS DB, 1/21 09:00:00, -36.20000, 1.25811E-004, 1875.00000, 18.75681, 0.66675, 0.00000
 Zone Sizing Information, STORAGE ROOM < 5 M2-SCH-F-SPACE FUNCTION ZN, Cooling, 32610.49231, 37502.06616, 2.77226, 3.18810, FORT MCMURRAY AP ANN CLG .4% CONDNS DB=>MWB, 7/21 18:20:00, 25.30400, 8.76968E-003, 1875.00000, 18.75681, 0.66675, 0.00000
 Zone Sizing Information, STORAGE ROOM < 5 M2-SCH-F-SPACE FUNCTION ZN, Heating, 27460.16749, 34325.20937, 1.25765, 1.57206, FORT MCMURRAY AP ANN HTG 99.6% CONDNS DB, 1/21 09:00:00, -36.20000, 1.25811E-004, 1875.00000, 18.75681, 0.66675, 0.00000
 Zone Sizing Information, STORAGE ROOM < 5 M2-SCH-G-SPACE FUNCTION ZN, Cooling, 18236.97762, 20972.52426, 1.55036, 1.78292, FORT MCMURRAY AP ANN CLG .4% CONDNS DB=>MWB, 7/21 22:00:00, 20.46800, 8.76969E-003, 1875.00000, 18.75681, 0.66675, 0.00000
 Zone Sizing Information, STORAGE ROOM < 5 M2-SCH-G-SPACE FUNCTION ZN, Heating, 0.00000, 0.00000, 0.00000, 0.66675, FORT MCMURRAY AP ANN HTG 99.6% CONDNS DB, , -36.20000, 1.25811E-004, 1875.00000, 18.75681, 0.66675, 0.00000
 Zone Sizing Information, STORAGE ROOM < 5 M2-SCH-H-SPACE FUNCTION ZN, Cooling, 20675.05679, 23776.31531, 1.75762, 2.02126, FORT MCMURRAY AP ANN CLG .4% CONDNS DB=>MWB, 7/21 09:00:00, 22.08000, 8.76969E-003, 1875.00000, 18.75681, 0.66675, 0.00000
 Zone Sizing Information, STORAGE ROOM < 5 M2-SCH-H-SPACE FUNCTION ZN, Heating, 0.00000, 0.00000, 0.00000, 0.66675, FORT MCMURRAY AP ANN HTG 99.6% CONDNS DB, , -36.20000, 1.25811E-004, 1875.00000, 18.75681, 0.66675, 0.00000
 Zone Sizing Information, STORAGE ROOM < 5 M2-SCH-I-SPACE FUNCTION ZN, Cooling, 107988.56243, 124186.84679, 7.28874, 8.38205, FORT MCMURRAY AP ANN CLG .4% CONDNS DB=>MWB, 7/21 15:00:00, 28.90000, 8.76969E-003, 1875.00000, 18.75681, 0.66675, 0.00000
 Zone Sizing Information, STORAGE ROOM < 5 M2-SCH-I-SPACE FUNCTION ZN, Heating, 45456.20144, 56820.25179, 2.10320, 2.62899, FORT MCMURRAY AP ANN HTG 99.6% CONDNS DB, 1/21 16:00:00, -36.20000, 1.25811E-004, 1875.00000, 18.75681, 0.66675, 0.00000
 Zone Sizing Information, STORAGE ROOM < 5 M2-SCH-J-SPACE FUNCTION ZN, Cooling, 16297.47711, 18742.09868, 1.38549, 1.59331, FORT MCMURRAY AP ANN CLG .4% CONDNS DB=>MWB, 7/21 11:00:00, 26.04800, 8.76969E-003, 1875.00000, 18.75681, 0.66675, 0.00000
 Zone Sizing Information, STORAGE ROOM < 5 M2-SCH-J-SPACE FUNCTION ZN, Heating, 0.00000, 0.00000, 0.00000, 0.66675, FORT MCMURRAY AP ANN HTG 99.6% CONDNS DB, , -36.20000, 1.25811E-004, 1875.00000, 18.75681, 0.66675, 0.00000
 Zone Sizing Information, STORAGE ROOM < 5 M2-SCH-K-SPACE FUNCTION ZN, Cooling, 0.00000, 0.00000, 0.00000, 0.88900, FORT MCMURRAY AP ANN CLG .4% CONDNS DB=>MWB, , 28.90000, 8.76969E-003, 2500.00000, 25.00909, 0.88900, 0.00000
 Zone Sizing Information, STORAGE ROOM < 5 M2-SCH-K-SPACE FUNCTION ZN, Heating, 0.00000, 0.00000, 0.00000, 0.88900, FORT MCMURRAY AP ANN HTG 99.6% CONDNS DB, , -36.20000, 1.25811E-004, 2500.00000, 25.00909, 0.88900, 0.00000
 Zone Sizing Information, STORAGE ROOM <= 5 M2 <= 100 M2-SCH-A-SPACE FUNCTION ZN, Cooling, 27034.57222, 31089.75805, 2.29828, 2.64302, FORT MCMURRAY AP ANN CLG .4% CONDNS DB=>MWB, 7/21 17:00:00, 27.16400, 8.76969E-003, 2500.00000, 25.00909, 0.88900, 0.00000
 Zone Sizing Information, STORAGE ROOM <= 5 M2 <= 100 M2-SCH-A-SPACE FUNCTION ZN, Heating, 13085.52642, 16356.90803, 0.60496, 0.88900, FORT MCMURRAY AP ANN HTG 99.6% CONDNS DB, 1/21 08:00:00, -36.20000, 1.25811E-004, 2500.00000, 25.00909, 0.88900, 0.00000
 Zone Sizing Information, STORAGE ROOM <= 5 M2 <= 100 M2-SCH-B-SPACE FUNCTION ZN, Cooling, 20354.18355, 23407.31108, 1.59681, 1.83634, FORT MCMURRAY AP ANN CLG .4% CONDNS DB=>MWB, 7/21 09:00:00, 22.08000, 8.76969E-003, 1875.00000, 18.75681, 0.66675, 0.00000
 Zone Sizing Information, STORAGE ROOM <= 5 M2 <= 100 M2-SCH-B-SPACE FUNCTION ZN, Heating, 15343.14773, 19178.93466, 0.69926, 0.87408, FORT MCMURRAY AP ANN HTG 99.6% CONDNS DB, 1/21 10:00:00, -36.20000, 1.25811E-004, 1875.00000, 18.75681, 0.66675, 0.00000
 Zone Sizing Information, STORAGE ROOM <= 5 M2 <= 100 M2-SCH-C-SPACE FUNCTION ZN, Cooling, 25421.41519, 29234.62746, 2.16113, 2.48530, FORT MCMURRAY AP ANN CLG .4% CONDNS DB=>MWB, 7/21 13:40:00, 28.69333, 8.76969E-003, 1875.00000, 18.75681, 0.66675, 0.00000
 Zone Sizing Information, STORAGE ROOM <= 5 M2 <= 100 M2-SCH-C-SPACE FUNCTION ZN, Heating, 27084.54383, 33855.67979, 1.23981, 1.54976, FORT MCMURRAY AP ANN HTG 99.6% CONDNS DB, 1/21 09:00:00, -36.20000, 1.25811E-004, 1875.00000, 18.75681, 0.66675, 0.00000
 Zone Sizing Information, STORAGE ROOM <= 5 M2 <= 100 M2-SCH-D-SPACE FUNCTION ZN, Cooling, 29516.13233, 33943.55218, 2.27821, 2.61994, FORT MCMURRAY AP ANN CLG .4% CONDNS DB=>MWB, 7/21 08:00:00, 19.72400, 8.76969E-003, 2500.00000, 25.00909, 0.88900, 0.00000
 Zone Sizing Information, STORAGE ROOM <= 5 M2 <= 100 M2-SCH-D-SPACE FUNCTION ZN, Heating, 0.00000, 0.00000, 0.00000, 0.88900, FORT MCMURRAY AP ANN HTG 99.6% CONDNS DB, , -36.20000, 1.25811E-004, 2500.00000, 25.00909, 0.88900, 0.00000
 Zone Sizing Information, STORAGE ROOM <= 5 M2 <= 100 M2-SCH-E-SPACE FUNCTION ZN, Cooling, 66155.60285, 76078.94328, 5.62408, 6.46769, FORT MCMURRAY AP ANN CLG .4% CONDNS DB=>MWB, 7/21 13:40:00, 28.69333, 8.76969E-003, 2500.00000, 25.00909, 0.88900, 0.00000
 Zone Sizing Information, STORAGE ROOM <= 5 M2 <= 100 M2-SCH-E-SPACE FUNCTION ZN, Heating, 53804.25160, 67255.31451, 2.48737, 3.10921, FORT MCMURRAY AP ANN HTG 99.6% CONDNS DB, 1/21 09:00:00, -36.20000, 1.25811E-004, 2500.00000, 25.00909, 0.88900, 0.00000
 Zone Sizing Information, STORAGE ROOM <= 5 M2 <= 100 M2-SCH-F-SPACE FUNCTION ZN, Cooling, 24962.29676, 28706.64128, 2.12208, 2.44039, FORT MCMURRAY AP ANN CLG .4% CONDNS DB=>MWB, 7/21 09:10:00, 22.43133, 8.76969E-003, 1875.00000, 18.75681, 0.66675, 0.00000
 Zone Sizing Information, STORAGE ROOM <= 5 M2 <= 100 M2-SCH-F-SPACE FUNCTION ZN, Heating, 19740.25274, 24675.31593, 0.89716, 1.12145, FORT MCMURRAY AP ANN HTG 99.6% CONDNS DB, 1/21 09:00:00, -36.20000, 1.25811E-004, 1875.00000, 18.75681, 0.66675, 0.00000
 Zone Sizing Information, STORAGE ROOM <= 5 M2 <= 100 M2-SCH-G-SPACE FUNCTION ZN, Cooling, 10994.12140, 12643.23961, 0.93463, 1.07483, FORT MCMURRAY AP ANN CLG .4% CONDNS DB=>MWB, 7/21 22:00:00, 20.46800, 8.76969E-003, 1875.00000, 18.75681, 0.66675, 0.00000
 Zone Sizing Information, STORAGE ROOM <= 5 M2 <= 100 M2-SCH-G-SPACE FUNCTION ZN, Heating, 3739.97099, 4674.96374, 0.17680, 0.66675, FORT MCMURRAY AP ANN HTG 99.6% CONDNS DB, 1/21 11:10:00, -36.20000, 1.25811E-004, 1875.00000, 18.75681, 0.66675, 0.00000
 Zone Sizing Information, STORAGE ROOM <= 5 M2 <= 100 M2-SCH-H-SPACE FUNCTION ZN, Cooling, 29082.20483, 33444.53555, 2.47236, 2.84321, FORT MCMURRAY AP ANN CLG .4% CONDNS DB=>MWB, 7/21 18:20:00, 25.30400, 8.76968E-003, 1875.00000, 18.75681, 0.66675, 0.00000
 Zone Sizing Information, STORAGE ROOM <= 5 M2 <= 100 M2-SCH-H-SPACE FUNCTION ZN, Heating, 7644.60019, 9555.75024, 0.35552, 0.66675, FORT MCMURRAY AP ANN HTG 99.6% CONDNS DB, 1/21 09:00:00, -36.20000, 1.25811E-004, 1875.00000, 18.75681, 0.66675, 0.00000
! <Component Sizing Information>, Component Type, Component Name, Input Field Description, Value
 Component Sizing Information, ZoneHVAC:IdealLoadsAirSystem, ZONE HVAC IDEAL LOADS AIR SYSTEM 1, User-Specified Maximum Heating Air Flow Rate [m3/s], 0.00000
 Component Sizing Information, ZoneHVAC:IdealLoadsAirSystem, ZONE HVAC IDEAL LOADS AIR SYSTEM 1, User-Specified Maximum Cooling Air Flow Rate [m3/s], 0.00000
 Component Sizing Information, ZoneHVAC:IdealLoadsAirSystem, ZONE HVAC IDEAL LOADS AIR SYSTEM 2, User-Specified Maximum Heating Air Flow Rate [m3/s], 0.00000
 Component Sizing Information, ZoneHVAC:IdealLoadsAirSystem, ZONE HVAC IDEAL LOADS AIR SYSTEM 2, User-Specified Maximum Cooling Air Flow Rate [m3/s], 0.00000
 Component Sizing Information, ZoneHVAC:IdealLoadsAirSystem, ZONE HVAC IDEAL LOADS AIR SYSTEM 3, User-Specified Maximum Heating Air Flow Rate [m3/s], 0.00000
 Component Sizing Information, ZoneHVAC:IdealLoadsAirSystem, ZONE HVAC IDEAL LOADS AIR SYSTEM 3, User-Specified Maximum Cooling Air Flow Rate [m3/s], 0.00000
 Component Sizing Information, ZoneHVAC:IdealLoadsAirSystem, ZONE HVAC IDEAL LOADS AIR SYSTEM 4, User-Specified Maximum Heating Air Flow Rate [m3/s], 0.00000
 Component Sizing Information, ZoneHVAC:IdealLoadsAirSystem, ZONE HVAC IDEAL LOADS AIR SYSTEM 4, User-Specified Maximum Cooling Air Flow Rate [m3/s], 0.00000
 Component Sizing Information, ZoneHVAC:IdealLoadsAirSystem, ZONE HVAC IDEAL LOADS AIR SYSTEM 5, User-Specified Maximum Heating Air Flow Rate [m3/s], 0.00000
 Component Sizing Information, ZoneHVAC:IdealLoadsAirSystem, ZONE HVAC IDEAL LOADS AIR SYSTEM 5, User-Specified Maximum Cooling Air Flow Rate [m3/s], 0.00000
 Component Sizing Information, ZoneHVAC:IdealLoadsAirSystem, ZONE HVAC IDEAL LOADS AIR SYSTEM 6, User-Specified Maximum Heating Air Flow Rate [m3/s], 0.00000
 Component Sizing Information, ZoneHVAC:IdealLoadsAirSystem, ZONE HVAC IDEAL LOADS AIR SYSTEM 6, User-Specified Maximum Cooling Air Flow Rate [m3/s], 0.00000
 Component Sizing Information, ZoneHVAC:IdealLoadsAirSystem, ZONE HVAC IDEAL LOADS AIR SYSTEM 7, User-Specified Maximum Heating Air Flow Rate [m3/s], 0.00000
 Component Sizing Information, ZoneHVAC:IdealLoadsAirSystem, ZONE HVAC IDEAL LOADS AIR SYSTEM 7, User-Specified Maximum Cooling Air Flow Rate [m3/s], 0.00000
 Component Sizing Information, ZoneHVAC:IdealLoadsAirSystem, ZONE HVAC IDEAL LOADS AIR SYSTEM 8, User-Specified Maximum Heating Air Flow Rate [m3/s], 0.00000
 Component Sizing Information, ZoneHVAC:IdealLoadsAirSystem, ZONE HVAC IDEAL LOADS AIR SYSTEM 8, User-Specified Maximum Cooling Air Flow Rate [m3/s], 0.00000
 Component Sizing Information, ZoneHVAC:IdealLoadsAirSystem, ZONE HVAC IDEAL LOADS AIR SYSTEM 9, User-Specified Maximum Heating Air Flow Rate [m3/s], 0.00000
 Component Sizing Information, ZoneHVAC:IdealLoadsAirSystem, ZONE HVAC IDEAL LOADS AIR SYSTEM 9, User-Specified Maximum Cooling Air Flow Rate [m3/s], 0.00000
 Component Sizing Information, ZoneHVAC:IdealLoadsAirSystem, ZONE HVAC IDEAL LOADS AIR SYSTEM 10, User-Specified Maximum Heating Air Flow Rate [m3/s], 0.00000
 Component Sizing Information, ZoneHVAC:IdealLoadsAirSystem, ZONE HVAC IDEAL LOADS AIR SYSTEM 10, User-Specified Maximum Cooling Air Flow Rate [m3/s], 0.00000
 Component Sizing Information, ZoneHVAC:IdealLoadsAirSystem, ZONE HVAC IDEAL LOADS AIR SYSTEM 11, User-Specified Maximum Heating Air Flow Rate [m3/s], 0.00000
 Component Sizing Information, ZoneHVAC:IdealLoadsAirSystem, ZONE HVAC IDEAL LOADS AIR SYSTEM 11, User-Specified Maximum Cooling Air Flow Rate [m3/s], 0.00000
 Component Sizing Information, ZoneHVAC:IdealLoadsAirSystem, ZONE HVAC IDEAL LOADS AIR SYSTEM 12, User-Specified Maximum Heating Air Flow Rate [m3/s], 0.00000
 Component Sizing Information, ZoneHVAC:IdealLoadsAirSystem, ZONE HVAC IDEAL LOADS AIR SYSTEM 12, User-Specified Maximum Cooling Air Flow Rate [m3/s], 0.00000
 Component Sizing Information, ZoneHVAC:IdealLoadsAirSystem, ZONE HVAC IDEAL LOADS AIR SYSTEM 13, User-Specified Maximum Heating Air Flow Rate [m3/s], 0.00000
 Component Sizing Information, ZoneHVAC:IdealLoadsAirSystem, ZONE HVAC IDEAL LOADS AIR SYSTEM 13, User-Specified Maximum Cooling Air Flow Rate [m3/s], 0.00000
 Component Sizing Information, ZoneHVAC:IdealLoadsAirSystem, ZONE HVAC IDEAL LOADS AIR SYSTEM 14, User-Specified Maximum Heating Air Flow Rate [m3/s], 0.00000
 Component Sizing Information, ZoneHVAC:IdealLoadsAirSystem, ZONE HVAC IDEAL LOADS AIR SYSTEM 14, User-Specified Maximum Cooling Air Flow Rate [m3/s], 0.00000
 Component Sizing Information, ZoneHVAC:IdealLoadsAirSystem, ZONE HVAC IDEAL LOADS AIR SYSTEM 15, User-Specified Maximum Heating Air Flow Rate [m3/s], 0.00000
 Component Sizing Information, ZoneHVAC:IdealLoadsAirSystem, ZONE HVAC IDEAL LOADS AIR SYSTEM 15, User-Specified Maximum Cooling Air Flow Rate [m3/s], 0.00000
 Component Sizing Information, ZoneHVAC:IdealLoadsAirSystem, ZONE HVAC IDEAL LOADS AIR SYSTEM 16, User-Specified Maximum Heating Air Flow Rate [m3/s], 0.00000
 Component Sizing Information, ZoneHVAC:IdealLoadsAirSystem, ZONE HVAC IDEAL LOADS AIR SYSTEM 16, User-Specified Maximum Cooling Air Flow Rate [m3/s], 0.00000
 Component Sizing Information, ZoneHVAC:IdealLoadsAirSystem, ZONE HVAC IDEAL LOADS AIR SYSTEM 17, User-Specified Maximum Heating Air Flow Rate [m3/s], 0.00000
 Component Sizing Information, ZoneHVAC:IdealLoadsAirSystem, ZONE HVAC IDEAL LOADS AIR SYSTEM 17, User-Specified Maximum Cooling Air Flow Rate [m3/s], 0.00000
 Component Sizing Information, ZoneHVAC:IdealLoadsAirSystem, ZONE HVAC IDEAL LOADS AIR SYSTEM 18, User-Specified Maximum Heating Air Flow Rate [m3/s], 0.00000
 Component Sizing Information, ZoneHVAC:IdealLoadsAirSystem, ZONE HVAC IDEAL LOADS AIR SYSTEM 18, User-Specified Maximum Cooling Air Flow Rate [m3/s], 0.00000
 Component Sizing Information, ZoneHVAC:IdealLoadsAirSystem, ZONE HVAC IDEAL LOADS AIR SYSTEM 19, User-Specified Maximum Heating Air Flow Rate [m3/s], 0.00000
 Component Sizing Information, ZoneHVAC:IdealLoadsAirSystem, ZONE HVAC IDEAL LOADS AIR SYSTEM 19, User-Specified Maximum Cooling Air Flow Rate [m3/s], 0.00000
 Component Sizing Information, ZoneHVAC:IdealLoadsAirSystem, ZONE HVAC IDEAL LOADS AIR SYSTEM 20, User-Specified Maximum Heating Air Flow Rate [m3/s], 0.00000
 Component Sizing Information, ZoneHVAC:IdealLoadsAirSystem, ZONE HVAC IDEAL LOADS AIR SYSTEM 20, User-Specified Maximum Cooling Air Flow Rate [m3/s], 0.00000
! <Environment>,Environment Name,Environment Type, Start Date, End Date, Start DayOfWeek, Duration {#days}, Source:Start DayOfWeek,  Use Daylight Saving, Use Holidays, Apply Weekend Holiday Rule,  Use Rain Values, Use Snow Values
! <Environment:Special Days>, Special Day Name, Special Day Type, Source, Start Date, Duration {#days}
! <Environment:Daylight Saving>, Daylight Saving Indicator, Source, Start Date, End Date
! <Environment:WarmupDays>, NumberofWarmupDays
Environment,FORT MCMURRAY AP ANN CLG .4% CONDNS DB=>MWB,SizingPeriod:DesignDay,07/21,07/21,SummerDesignDay,1,N/A,N/A,N/A,N/A,N/A,N/A
Environment:Daylight Saving,No,SizingPeriod:DesignDay
! <Environment:Design Day Data>, Max Dry-Bulb Temp {C}, Temp Range {dC}, Temp Range Ind Type, Hum Ind Value at Max Temp, Hum Ind Type,Pressure {Pa}, Wind Direction {deg CW from N}, Wind Speed {m/s}, Clearness, Rain, Snow
! <Environment:Design Day Misc>,DayOfYear,ASHRAE A Coeff,ASHRAE B Coeff,ASHRAE C Coeff,Solar Constant-Annual Variation,Eq of Time {minutes}, Solar Declination Angle {deg}, Solar Model
Environment:Design Day Data,28.90,12.40,DefaultMultipliers,96969,250,3.7,0.00,No,No
Environment:Design Day Misc,202,1084.4,0.2082,0.1365,1.0,-6.23,20.6,ASHRAETau
Environment:WarmupDays,  6
! <Tabular Report>,Style,Unit Conversion
Tabular Report,HTML,None
! <Warmup Convergence Information>,Zone Name,Environment Type/Name,Average Warmup Temperature Difference {deltaC},Std Dev Warmup Temperature Difference {deltaC},Max Temperature Pass/Fail Convergence,Min Temperature Pass/Fail Convergence,Average Warmup Load Difference {W},Std Dev Warmup Load Difference {W},Heating Load Pass/Fail Convergence,Cooling Load Pass/Fail Convergence
 Warmup Convergence Information,STORAGE GARAGE INTERIOR-SPACE FUNCTION ZN,SizingPeriod: FORT MCMURRAY AP ANN CLG .4% CONDNS DB=>MWB,0.1339252986,7.8974585442E-002,Pass,Pass,0.1313431431,0.3316398687,Pass,Pass
 Warmup Convergence Information,STORAGE ROOM < 5 M2-SCH-A-SPACE FUNCTION ZN,SizingPeriod: FORT MCMURRAY AP ANN CLG .4% CONDNS DB=>MWB,2.6782766226E-002,3.8273317993E-002,Pass,Pass,6.0265216013E-002,0.2581152082,Pass,Pass
 Warmup Convergence Information,STORAGE ROOM < 5 M2-SCH-B-SPACE FUNCTION ZN,SizingPeriod: FORT MCMURRAY AP ANN CLG .4% CONDNS DB=>MWB,3.5016217206E-002,0.1104264179,Pass,Pass,4.1492340448E-002,0.1233571901,Pass,Pass
 Warmup Convergence Information,STORAGE ROOM < 5 M2-SCH-C-SPACE FUNCTION ZN,SizingPeriod: FORT MCMURRAY AP ANN CLG .4% CONDNS DB=>MWB,2.0189080909E-002,5.2716998956E-002,Pass,Pass,6.0974413534E-002,0.4097440727,Pass,Pass
 Warmup Convergence Information,STORAGE ROOM < 5 M2-SCH-D-SPACE FUNCTION ZN,SizingPeriod: FORT MCMURRAY AP ANN CLG .4% CONDNS DB=>MWB,4.3030343857E-002,0.2076209636,Pass,Pass,4.4331341693E-002,0.2794443373,Pass,Pass
 Warmup Convergence Information,STORAGE ROOM < 5 M2-SCH-E-SPACE FUNCTION ZN,SizingPeriod: FORT MCMURRAY AP ANN CLG .4% CONDNS DB=>MWB,3.2081360217E-002,8.6077868844E-002,Pass,Pass,0.1489179137,1.4186308315,Pass,Pass
 Warmup Convergence Information,STORAGE ROOM < 5 M2-SCH-F-SPACE FUNCTION ZN,SizingPeriod: FORT MCMURRAY AP ANN CLG .4% CONDNS DB=>MWB,3.6711374681E-014,2.7496897135E-014,Pass,Pass,1.7514012937E-002,1.5278391005E-002,Pass,Pass
 Warmup Convergence Information,STORAGE ROOM < 5 M2-SCH-G-SPACE FUNCTION ZN,SizingPeriod: FORT MCMURRAY AP ANN CLG .4% CONDNS DB=>MWB,1.6135241291E-014,1.5693246702E-014,Pass,Pass,2.8580252792E-002,8.8391213270E-002,Pass,Pass
 Warmup Convergence Information,STORAGE ROOM < 5 M2-SCH-H-SPACE FUNCTION ZN,SizingPeriod: FORT MCMURRAY AP ANN CLG .4% CONDNS DB=>MWB,3.4367570518E-014,3.0002468537E-014,Pass,Pass,5.4871253991E-004,3.1002101532E-004,Pass,Pass
 Warmup Convergence Information,STORAGE ROOM < 5 M2-SCH-I-SPACE FUNCTION ZN,SizingPeriod: FORT MCMURRAY AP ANN CLG .4% CONDNS DB=>MWB,0.1533270707,0.7880022170,Pass,Pass,5.4607579072E-002,0.1930039994,Pass,Pass
 Warmup Convergence Information,STORAGE ROOM < 5 M2-SCH-J-SPACE FUNCTION ZN,SizingPeriod: FORT MCMURRAY AP ANN CLG .4% CONDNS DB=>MWB,2.2722564571E-014,2.2199402234E-014,Pass,Pass,1.5407606361E-002,4.8373337008E-002,Pass,Pass
 Warmup Convergence Information,STORAGE ROOM < 5 M2-SCH-K-SPACE FUNCTION ZN,SizingPeriod: FORT MCMURRAY AP ANN CLG .4% CONDNS DB=>MWB,3.8338283780E-002,3.9640996478E-002,Pass,Pass,0.2136998290,1.0919239307,Pass,Pass
 Warmup Convergence Information,STORAGE ROOM <= 5 M2 <= 100 M2-SCH-A-SPACE FUNCTION ZN,SizingPeriod: FORT MCMURRAY AP ANN CLG .4% CONDNS DB=>MWB,1.6377519677E-002,4.7617563231E-002,Pass,Pass,5.0223568361E-002,0.3044883527,Pass,Pass
 Warmup Convergence Information,STORAGE ROOM <= 5 M2 <= 100 M2-SCH-B-SPACE FUNCTION ZN,SizingPeriod: FORT MCMURRAY AP ANN CLG .4% CONDNS DB=>MWB,2.1330370472E-002,9.7617971359E-002,Pass,Pass,3.0533941811E-002,0.1606283964,Pass,Pass
 Warmup Convergence Information,STORAGE ROOM <= 5 M2 <= 100 M2-SCH-C-SPACE FUNCTION ZN,SizingPeriod: FORT MCMURRAY AP ANN CLG .4% CONDNS DB=>MWB,1.2137176388E-002,3.5110613928E-002,Pass,Pass,4.5908368874E-002,0.2968900472,Pass,Pass
 Warmup Convergence Information,STORAGE ROOM <= 5 M2 <= 100 M2-SCH-D-SPACE FUNCTION ZN,SizingPeriod: FORT MCMURRAY AP ANN CLG .4% CONDNS DB=>MWB,1.4807956486E-002,6.8769777418E-002,Pass,Pass,2.8775547603E-002,0.1603736133,Pass,Pass
 Warmup Convergence Information,STORAGE ROOM <= 5 M2 <= 100 M2-SCH-E-SPACE FUNCTION ZN,SizingPeriod: FORT MCMURRAY AP ANN CLG .4% CONDNS DB=>MWB,3.8372082203E-002,5.6117036654E-002,Pass,Pass,0.1631153816,1.3916939157,Pass,Pass
 Warmup Convergence Information,STORAGE ROOM <= 5 M2 <= 100 M2-SCH-F-SPACE FUNCTION ZN,SizingPeriod: FORT MCMURRAY AP ANN CLG .4% CONDNS DB=>MWB,2.9507260832E-014,2.2329549642E-014,Pass,Pass,1.5941910343E-002,1.7970643723E-002,Pass,Pass
 Warmup Convergence Information,STORAGE ROOM <= 5 M2 <= 100 M2-SCH-G-SPACE FUNCTION ZN,SizingPeriod: FORT MCMURRAY AP ANN CLG .4% CONDNS DB=>MWB,5.3435824945E-003,1.1635063414E-002,Pass,Pass,2.5619357643E-002,9.1681894493E-002,Pass,Pass
 Warmup Convergence Information,STORAGE ROOM <= 5 M2 <= 100 M2-SCH-H-SPACE FUNCTION ZN,SizingPeriod: FORT MCMURRAY AP ANN CLG .4% CONDNS DB=>MWB,2.9482589209E-014,2.8820077755E-014,Pass,Pass,9.6242534629E-003,1.0915786489E-002,Pass,Pass
Environment,FORT MCMURRAY AP ANN HTG 99.6% CONDNS DB,SizingPeriod:DesignDay,01/21,01/21,WinterDesignDay,1,N/A,N/A,N/A,N/A,N/A,N/A
Environment:Daylight Saving,No,SizingPeriod:DesignDay
Environment:Design Day Data,-36.20,0.00,DefaultMultipliers,96969,90,1.0,0.00,No,No
Environment:Design Day Misc, 21,1229.0,0.1415,5.7310E-002,1.0,-11.15,-20.1,ASHRAEClearSky
Environment:WarmupDays,  6
 Warmup Convergence Information,STORAGE GARAGE INTERIOR-SPACE FUNCTION ZN,SizingPeriod: FORT MCMURRAY AP ANN HTG 99.6% CONDNS DB,4.1386647196E-015,3.4512890943E-015,Pass,Pass,4.3071846907E-003,2.2674674583E-003,Pass,Pass
 Warmup Convergence Information,STORAGE ROOM < 5 M2-SCH-A-SPACE FUNCTION ZN,SizingPeriod: FORT MCMURRAY AP ANN HTG 99.6% CONDNS DB,5.7128439712E-002,0.3318346678,Pass,Pass,5.9283015979E-002,0.1974592683,Pass,Pass
 Warmup Convergence Information,STORAGE ROOM < 5 M2-SCH-B-SPACE FUNCTION ZN,SizingPeriod: FORT MCMURRAY AP ANN HTG 99.6% CONDNS DB,5.7218237344E-002,0.3340344982,Pass,Pass,6.1745104796E-002,0.2082390217,Pass,Pass
 Warmup Convergence Information,STORAGE ROOM < 5 M2-SCH-C-SPACE FUNCTION ZN,SizingPeriod: FORT MCMURRAY AP ANN HTG 99.6% CONDNS DB,5.7455372510E-002,0.3337449713,Pass,Pass,6.7865036502E-002,0.2541274492,Pass,Pass
 Warmup Convergence Information,STORAGE ROOM < 5 M2-SCH-D-SPACE FUNCTION ZN,SizingPeriod: FORT MCMURRAY AP ANN HTG 99.6% CONDNS DB,5.9806610907E-002,0.3198157158,Pass,Pass,0.1705797654,0.4775447574,Pass,Pass
 Warmup Convergence Information,STORAGE ROOM < 5 M2-SCH-E-SPACE FUNCTION ZN,SizingPeriod: FORT MCMURRAY AP ANN HTG 99.6% CONDNS DB,5.9877647274E-002,0.3397824330,Pass,Pass,0.2193043023,0.7770341082,Pass,Pass
 Warmup Convergence Information,STORAGE ROOM < 5 M2-SCH-F-SPACE FUNCTION ZN,SizingPeriod: FORT MCMURRAY AP ANN HTG 99.6% CONDNS DB,6.0282286216E-002,0.3180202358,Pass,Pass,0.1280824508,0.4384044634,Pass,Pass
 Warmup Convergence Information,STORAGE ROOM < 5 M2-SCH-G-SPACE FUNCTION ZN,SizingPeriod: FORT MCMURRAY AP ANN HTG 99.6% CONDNS DB,6.2634618599E-002,0.3142301766,Pass,Pass,0.3765387429,2.0130802891,Pass,Pass
 Warmup Convergence Information,STORAGE ROOM < 5 M2-SCH-H-SPACE FUNCTION ZN,SizingPeriod: FORT MCMURRAY AP ANN HTG 99.6% CONDNS DB,6.6954234426E-002,0.3064462081,Pass,Pass,0.4210352439,3.0908152211,Pass,Pass
 Warmup Convergence Information,STORAGE ROOM < 5 M2-SCH-I-SPACE FUNCTION ZN,SizingPeriod: FORT MCMURRAY AP ANN HTG 99.6% CONDNS DB,5.7262678623E-002,0.3312603833,Pass,Pass,7.9419583039E-002,0.2664092799,Pass,Pass
 Warmup Convergence Information,STORAGE ROOM < 5 M2-SCH-J-SPACE FUNCTION ZN,SizingPeriod: FORT MCMURRAY AP ANN HTG 99.6% CONDNS DB,3.4046839422E-015,2.8969990541E-015,Pass,Pass,8.1864794037E-002,0.2709668971,Pass,Pass
 Warmup Convergence Information,STORAGE ROOM < 5 M2-SCH-K-SPACE FUNCTION ZN,SizingPeriod: FORT MCMURRAY AP ANN HTG 99.6% CONDNS DB,2.0884516832E-002,3.7329194985E-002,Pass,Pass,4.2584228569E-004,8.1088883356E-004,Pass,Pass
 Warmup Convergence Information,STORAGE ROOM <= 5 M2 <= 100 M2-SCH-A-SPACE FUNCTION ZN,SizingPeriod: FORT MCMURRAY AP ANN HTG 99.6% CONDNS DB,6.0869391522E-002,0.3147109130,Pass,Pass,0.1280905228,0.4240844746,Pass,Pass
 Warmup Convergence Information,STORAGE ROOM <= 5 M2 <= 100 M2-SCH-B-SPACE FUNCTION ZN,SizingPeriod: FORT MCMURRAY AP ANN HTG 99.6% CONDNS DB,6.0706547280E-002,0.3169597180,Pass,Pass,0.1256953350,0.4955159027,Pass,Pass
 Warmup Convergence Information,STORAGE ROOM <= 5 M2 <= 100 M2-SCH-C-SPACE FUNCTION ZN,SizingPeriod: FORT MCMURRAY AP ANN HTG 99.6% CONDNS DB,5.9836341888E-002,0.3204765439,Pass,Pass,0.1648960690,0.4638770899,Pass,Pass
 Warmup Convergence Information,STORAGE ROOM <= 5 M2 <= 100 M2-SCH-D-SPACE FUNCTION ZN,SizingPeriod: FORT MCMURRAY AP ANN HTG 99.6% CONDNS DB,6.1003843235E-002,0.3178780470,Pass,Pass,0.1558612427,0.7079278040,Pass,Pass
 Warmup Convergence Information,STORAGE ROOM <= 5 M2 <= 100 M2-SCH-E-SPACE FUNCTION ZN,SizingPeriod: FORT MCMURRAY AP ANN HTG 99.6% CONDNS DB,5.7919443472E-002,0.3380271329,Pass,Pass,0.1486165457,0.8060909614,Pass,Pass
 Warmup Convergence Information,STORAGE ROOM <= 5 M2 <= 100 M2-SCH-F-SPACE FUNCTION ZN,SizingPeriod: FORT MCMURRAY AP ANN HTG 99.6% CONDNS DB,6.0750577630E-002,0.3174177059,Pass,Pass,0.2007114715,1.0263831677,Pass,Pass
 Warmup Convergence Information,STORAGE ROOM <= 5 M2 <= 100 M2-SCH-G-SPACE FUNCTION ZN,SizingPeriod: FORT MCMURRAY AP ANN HTG 99.6% CONDNS DB,6.1943218334E-002,0.3165949461,Pass,Pass,0.3354623577,2.1573048263,Pass,Pass
 Warmup Convergence Information,STORAGE ROOM <= 5 M2 <= 100 M2-SCH-H-SPACE FUNCTION ZN,SizingPeriod: FORT MCMURRAY AP ANN HTG 99.6% CONDNS DB,6.1609385464E-002,0.3143420928,Pass,Pass,0.7875633878,7.8638549254,Pass,Pass
! <Program Control Information:Threads/Parallel Sims>, Threading Supported,Maximum Number of Threads, Env Set Threads (OMP_NUM_THREADS), EP Env Set Threads (EP_OMP_NUM_THREADS), IDF Set Threads, Number of Threads Used (Interior Radiant Exchange), Number Nominal Surfaces, Number Parallel Sims
Program Control:Threads/Parallel Sims, No,1, N/A, N/A, N/A, N/A, N/A, N/A
End of Data
