Program Version,EnergyPlus, Version 8.9.0-eba93e8e1b, YMD=2019.03.19 18:36
! <Version>, Version ID
 Version, 8.9
! <Timesteps per Hour>, #TimeSteps, Minutes per TimeStep {minutes}
 Timesteps per Hour,  6, 10
! <System Convergence Limits>, Minimum System TimeStep {minutes}, Max HVAC Iterations, Minimum Plant Iterations, Maximum Plant Iterations
 System Convergence Limits, 1, 20, 2, 8
! <Simulation Control>, Do Zone Sizing, Do System Sizing, Do Plant Sizing, Do Design Days, Do Weather Simulation, Do HVAC Sizing Simulation
 Simulation Control, Yes, Yes, Yes, No, Yes, No
! <Output Reporting Tolerances>, Tolerance for Time Heating Setpoint Not Met, Tolerance for Zone Cooling Setpoint Not Met Time
 Output Reporting Tolerances, 1.000, 1.000, 
! <Site:GroundTemperature:BuildingSurface>,Jan{C},Feb{C},Mar{C},Apr{C},May{C},Jun{C},Jul{C},Aug{C},Sep{C},Oct{C},Nov{C},Dec{C}
 Site:GroundTemperature:BuildingSurface,  19.53,  19.50,  19.54,  19.60,  20.00,  21.64,  22.23,  22.38,  21.45,  20.12,  19.80,  19.63
! <Site:GroundTemperature:FCfactorMethod>,Jan{C},Feb{C},Mar{C},Apr{C},May{C},Jun{C},Jul{C},Aug{C},Sep{C},Oct{C},Nov{C},Dec{C}
 Site:GroundTemperature:FCfactorMethod, -12.27, -13.66, -11.19,  -7.33,   2.77,  10.57,  15.83,  17.43,  14.70,   8.65,   0.56,  -6.95
! <Site:GroundTemperature:Shallow>,Jan{C},Feb{C},Mar{C},Apr{C},May{C},Jun{C},Jul{C},Aug{C},Sep{C},Oct{C},Nov{C},Dec{C}
 Site:GroundTemperature:Shallow,  13.00,  13.00,  13.00,  13.00,  13.00,  13.00,  13.00,  13.00,  13.00,  13.00,  13.00,  13.00
! <Site:GroundTemperature:Deep>,Jan{C},Feb{C},Mar{C},Apr{C},May{C},Jun{C},Jul{C},Aug{C},Sep{C},Oct{C},Nov{C},Dec{C}
 Site:GroundTemperature:Deep,  16.00,  16.00,  16.00,  16.00,  16.00,  16.00,  16.00,  16.00,  16.00,  16.00,  16.00,  16.00
! <Site:GroundReflectance>,Jan{dimensionless},Feb{dimensionless},Mar{dimensionless},Apr{dimensionless},May{dimensionless},Jun{dimensionless},Jul{dimensionless},Aug{dimensionless},Sep{dimensionless},Oct{dimensionless},Nov{dimensionless},Dec{dimensionless}
 Site:GroundReflectance,  0.20,  0.20,  0.20,  0.20,  0.20,  0.20,  0.20,  0.20,  0.20,  0.20,  0.20,  0.20
! <Site:GroundReflectance:SnowModifier>, Normal, Daylighting {dimensionless}
 Site:GroundReflectance:SnowModifier,   1.000,   1.000
! <Site:GroundReflectance:Snow>,Jan{dimensionless},Feb{dimensionless},Mar{dimensionless},Apr{dimensionless},May{dimensionless},Jun{dimensionless},Jul{dimensionless},Aug{dimensionless},Sep{dimensionless},Oct{dimensionless},Nov{dimensionless},Dec{dimensionless}
 Site:GroundReflectance:Snow,  0.20,  0.20,  0.20,  0.20,  0.20,  0.20,  0.20,  0.20,  0.20,  0.20,  0.20,  0.20
! <Site:GroundReflectance:Snow:Daylighting>,Jan{dimensionless},Feb{dimensionless},Mar{dimensionless},Apr{dimensionless},May{dimensionless},Jun{dimensionless},Jul{dimensionless},Aug{dimensionless},Sep{dimensionless},Oct{dimensionless},Nov{dimensionless},Dec{dimensionless}
 Site:GroundReflectance:Snow:Daylighting,  0.20,  0.20,  0.20,  0.20,  0.20,  0.20,  0.20,  0.20,  0.20,  0.20,  0.20,  0.20
! <Environment:Weather Station>,Wind Sensor Height Above Ground {m},Wind Speed Profile Exponent {},Wind Speed Profile Boundary Layer Thickness {m},Air Temperature Sensor Height Above Ground {m},Wind Speed Modifier Coefficient-Internal,Temperature Modifier Coefficient-Internal
Environment:Weather Station,10.000,0.140,270.000,1.500,1.586,9.750E-003
! <Site:Location>, Location Name, Latitude {N+/S- Deg}, Longitude {E+/W- Deg},  Time Zone Number {GMT+/-}, Elevation {m},  Standard Pressure at Elevation {Pa}, Standard RhoAir at Elevation
Site:Location,Fort McMurray AP AB CAN CWEC2016 WMO#=716890,56.65,-111.22,-7.00,369.10,96969,1.1525
! <Building Information>, Building Name,North Axis {deg},Terrain,  Loads Convergence Tolerance Value,Temperature Convergence Tolerance Value,  Solar Distribution,Maximum Number of Warmup Days,Minimum Number of Warmup Days
 Building Information,Building 1,0.000,Suburbs,4.00000E-002,0.40000,FullExterior,25,6
! <Inside Convection Algorithm>, Algorithm {Simple | TARP | CeilingDiffuser | AdaptiveConvectionAlgorithm}
Inside Convection Algorithm,TARP
! <Outside Convection Algorithm>, Algorithm {SimpleCombined | TARP | MoWitt | DOE-2 | AdaptiveConvectionAlgorithm}
Outside Convection Algorithm,TARP
! <Sky Radiance Distribution>, Value {Anisotropic}
Sky Radiance Distribution,Anisotropic
! <Zone Air Solution Algorithm>, Value {ThirdOrderBackwardDifference | AnalyticalSolution | EulerMethod}
 Zone Air Solution Algorithm, ThirdOrderBackwardDifference
! <Zone Air Carbon Dioxide Balance Simulation>, Simulation {Yes/No}, Carbon Dioxide Concentration
 Zone Air Carbon Dioxide Balance Simulation, No,N/A
! <Zone Air Generic Contaminant Balance Simulation>, Simulation {Yes/No}, Generic Contaminant Concentration
 Zone Air Generic Contaminant Balance Simulation, No,N/A
! <Zone Air Mass Flow Balance Simulation>, Enforce Mass Balance, Adjust Zone Mixing, Adjust Zone Infiltration {AddInfiltration | AdjustInfiltration | None}, Infiltration Zones {MixingSourceZonesOnly | AllZones}
 Zone Air Mass Flow Balance Simulation, No,N/A,N/A,N/A
! <HVACSystemRootFindingAlgorithm>, Value {RegulaFalsi | Bisection | BisectionThenRegulaFalsi | RegulaFalsiThenBisection}
 HVACSystemRootFindingAlgorithm, RegulaFalsi
! <Environment:Site Atmospheric Variation>,Wind Speed Profile Exponent {},Wind Speed Profile Boundary Layer Thickness {m},Air Temperature Gradient Coefficient {K/m}
Environment:Site Atmospheric Variation,0.220,370.000,6.500000E-003
! <Surface Geometry>,Starting Corner,Vertex Input Direction,Coordinate System,Daylight Reference Point Coordinate System,Rectangular (Simple) Surface Coordinate System
 Surface Geometry,UpperLeftCorner,Counterclockwise,RelativeCoordinateSystem,RelativeCoordinateSystem,RelativeToZoneOrigin
! <Surface Heat Transfer Algorithm>, Value {CTF - ConductionTransferFunction | EMPD - MoisturePenetrationDepthConductionTransferFunction | CondFD - ConductionFiniteDifference | HAMT - CombinedHeatAndMoistureFiniteElement} - Description,Inside Surface Max Temperature Limit{C}, Surface Convection Coefficient Lower Limit {W/m2-K}, Surface Convection Coefficient Upper Limit {W/m2-K}
Surface Heat Transfer Algorithm, CTF - ConductionTransferFunction,200,0.10,1000.0
! <Shading Summary>, Number of Fixed Detached Shades, Number of Building Detached Shades, Number of Attached Shades
 Shading Summary,0,0,0
! <Zone Summary>, Number of Zones, Number of Zone Surfaces, Number of SubSurfaces
 Zone Summary,20,137,17
! <Zone Information>,Zone Name,North Axis {deg},Origin X-Coordinate {m},Origin Y-Coordinate {m},Origin Z-Coordinate {m},Centroid X-Coordinate {m},Centroid Y-Coordinate {m},Centroid Z-Coordinate {m},Type,Zone Multiplier,Zone List Multiplier,Minimum X {m},Maximum X {m},Minimum Y {m},Maximum Y {m},Minimum Z {m},Maximum Z {m},Ceiling Height {m},Volume {m3},Zone Inside Convection Algorithm {Simple-Detailed-CeilingDiffuser-TrombeWall},Zone Outside Convection Algorithm {Simple-Detailed-Tarp-MoWitt-DOE-2-BLAST}, Floor Area {m2},Exterior Gross Wall Area {m2},Exterior Net Wall Area {m2},Exterior Window Area {m2}, Number of Surfaces, Number of SubSurfaces, Number of Shading SubSurfaces,  Part of Total Building Area
 Zone Information, ALL_ST=ATRIUM - H < 13M_FL=STORY 4_SCH=C,0.0,25.00,75.00,11.40,50.00,89.15,13.30,1,1,1,0.00,100.00,75.00,100.00,11.40,15.20,3.80,7125.00,TARP,TARP,1875.00,380.00,285.00,188.75,6,2,0,Yes
 Zone Information, ALL_ST=ATRIUM - H > 13M_FL=STORY 1_SCH=C,0.0,25.00,75.00,0.00,50.00,89.15,1.90,1,1,1,0.00,100.00,75.00,100.00,0.00,3.80,3.80,7125.00,TARP,TARP,1875.00,0.00,0.00,0.00,6,0,0,Yes
 Zone Information, ALL_ST=AUDIENCE - AUDITORIUM_FL=STORY 1_SCH=C,0.0,25.00,25.00,0.00,50.00,50.00,1.90,1,1,1,25.00,75.00,25.00,75.00,0.00,3.80,3.80,9500.00,TARP,TARP,2500.00,0.00,0.00,0.00,6,0,0,Yes
 Zone Information, ALL_ST=AUDIENCE - MOTION PICTURE_FL=STORY 2_SCH=C,0.0,75.00,25.00,3.80,89.15,50.00,5.70,1,1,1,75.00,100.00,0.00,100.00,3.80,7.60,3.80,7125.00,TARP,TARP,1875.00,380.00,285.00,95.00,6,1,0,Yes
 Zone Information, ALL_ST=AUDIENCE - PERFORMANCE ARTS_FL=STORY 1_SCH=C,0.0,75.00,25.00,0.00,89.15,50.00,1.90,1,1,1,75.00,100.00,0.00,100.00,0.00,3.80,3.80,7125.00,TARP,TARP,1875.00,0.00,0.00,0.00,6,0,0,Yes
 Zone Information, ALL_ST=AUTOMOTIVE - REPAIR_FL=STORY 2_SCH=E,0.0,25.00,25.00,3.80,50.00,50.00,5.70,1,1,1,25.00,75.00,25.00,75.00,3.80,7.60,3.80,9500.00,TARP,TARP,2500.00,0.00,0.00,0.00,6,0,0,Yes
 Zone Information, ALL_ST=BANK - BANKING AND OFFICES_FL=STORY 1_SCH=A,0.0,0.00,0.00,0.00,50.00,10.85,1.90,1,1,1,0.00,100.00,0.00,25.00,0.00,3.80,3.80,7125.00,TARP,TARP,1875.00,0.00,0.00,0.00,6,0,0,Yes
 Zone Information, ALL_ST=CLASSROOM/LECTURE/TRAINING_FL=STORY 4_SCH=D,0.0,0.00,0.00,11.40,50.00,10.85,13.30,1,1,1,0.00,100.00,0.00,25.00,11.40,15.20,3.80,7125.00,TARP,TARP,1875.00,380.00,285.00,188.75,6,2,0,Yes
 Zone Information, ALL_ST=CONF./MEET./MULTI-PURPOSE_FL=STORY 2_SCH=C,0.0,0.00,0.00,3.80,10.85,50.00,5.70,1,1,1,0.00,25.00,0.00,100.00,3.80,7.60,3.80,7125.00,TARP,TARP,1875.00,380.00,285.00,95.00,6,1,0,Yes
 Zone Information, ALL_ST=CONVENTION CENTRE - AUDIENCE_FL=STORY 3_SCH=C,0.0,0.00,0.00,7.60,10.85,50.00,9.50,1,1,1,0.00,25.00,0.00,100.00,7.60,11.40,3.80,7125.00,TARP,TARP,1875.00,380.00,285.00,95.00,6,1,0,Yes
 Zone Information, ALL_ST=CONVENTION CENTRE - EXHIBIT_FL=STORY 2_SCH=C,0.0,25.00,75.00,3.80,50.00,89.15,5.70,1,1,1,0.00,100.00,75.00,100.00,3.80,7.60,3.80,7125.00,TARP,TARP,1875.00,380.00,285.00,95.00,6,1,0,Yes
 Zone Information, ALL_ST=WHOLEBUILDING_FL=STORY 1_SCH=C,0.0,0.00,0.00,0.00,10.85,50.00,1.90,1,1,1,0.00,25.00,0.00,100.00,0.00,3.80,3.80,7125.00,TARP,TARP,1875.00,0.00,0.00,0.00,6,0,0,Yes
 Zone Information, ALL_ST=WHOLEBUILDING_FL=STORY 3_SCH=A,0.0,75.00,25.00,7.60,89.15,50.00,9.50,1,1,1,75.00,100.00,0.00,100.00,7.60,11.40,3.80,7125.00,TARP,TARP,1875.00,380.00,285.00,95.00,6,1,0,Yes
 Zone Information, ALL_ST=WHOLEBUILDING_FL=STORY 3_SCH=H,0.0,0.00,0.00,7.60,50.00,10.85,9.50,1,1,1,0.00,100.00,0.00,25.00,7.60,11.40,3.80,7125.00,TARP,TARP,1875.00,380.00,285.00,95.00,6,1,0,Yes
 Zone Information, ALL_ST=WHOLEBUILDING_FL=STORY 3_SCH=I,0.0,25.00,75.00,7.60,50.00,89.15,9.50,1,1,1,0.00,100.00,75.00,100.00,7.60,11.40,3.80,7125.00,TARP,TARP,1875.00,380.00,285.00,95.00,6,1,0,Yes
 Zone Information, ALL_ST=WHOLEBUILDING_FL=STORY 4_SCH=C,0.0,0.00,0.00,11.40,10.85,50.00,13.30,1,1,1,0.00,25.00,0.00,100.00,11.40,15.20,3.80,7125.00,TARP,TARP,1875.00,380.00,285.00,188.75,6,2,0,Yes
 Zone Information, ALL_ST=WHOLEBUILDING_FL=STORY 4_SCH=D,0.0,75.00,25.00,11.40,89.15,50.00,13.30,1,1,1,75.00,100.00,0.00,100.00,11.40,15.20,3.80,7125.00,TARP,TARP,1875.00,380.00,285.00,188.75,6,2,0,Yes
 Zone Information, ALL_ST=WHOLEBUILDING_FL=STORY 4_SCH=H,0.0,25.00,25.00,11.40,50.00,50.00,13.30,1,1,1,25.00,75.00,25.00,75.00,11.40,15.20,3.80,9500.00,TARP,TARP,2500.00,0.00,0.00,125.00,6,1,0,Yes
 Zone Information, DU_BT=PENITENTIARY_ST=WHOLEBUILDING_FL=STORY 3_SCHH,0.0,25.00,25.00,7.60,50.00,50.00,9.50,1,1,1,25.00,75.00,25.00,75.00,7.60,11.40,3.80,9500.00,TARP,TARP,2500.00,0.00,0.00,0.00,6,0,0,Yes
 Zone Information, WILD_ST=CORR. < 2.4M WIDE-SCH-A_FL=STORY 2_SCH=C,0.0,0.00,0.00,3.80,50.00,10.85,5.70,1,1,1,0.00,100.00,0.00,25.00,3.80,7.60,3.80,7125.00,TARP,TARP,1875.00,380.00,285.00,95.00,6,1,0,Yes
! <Zone Internal Gains Nominal>,Zone Name, Floor Area {m2},# Occupants,Area per Occupant {m2/person},Occupant per Area {person/m2},Interior Lighting {W/m2},Electric Load {W/m2},Gas Load {W/m2},Other Load {W/m2},Hot Water Eq {W/m2},Steam Equipment {W/m2},Sum Loads per Area {W/m2},Outdoor Controlled Baseboard Heat
 Zone Internal Gains Nominal, ALL_ST=ATRIUM - H < 13M_FL=STORY 4_SCH=C,1875.00,187.5,10.000,10.000E-002,0.000,2.500,0.000,0.000,0.000,0.000,2.500,No
 Zone Internal Gains Nominal, ALL_ST=ATRIUM - H > 13M_FL=STORY 1_SCH=C,1875.00,187.5,10.000,10.000E-002,0.000,2.500,0.000,0.000,0.000,0.000,2.500,No
 Zone Internal Gains Nominal, ALL_ST=AUDIENCE - AUDITORIUM_FL=STORY 1_SCH=C,2500.00,500.0,5.000,0.200,8.500,2.500,0.000,0.000,0.000,0.000,11.000,No
 Zone Internal Gains Nominal, ALL_ST=AUDIENCE - MOTION PICTURE_FL=STORY 2_SCH=C,1875.00,375.0,5.000,0.200,12.300,2.500,0.000,0.000,0.000,0.000,14.800,No
 Zone Internal Gains Nominal, ALL_ST=AUDIENCE - PERFORMANCE ARTS_FL=STORY 1_SCH=C,1875.00,250.1,7.498,0.133,26.200,2.500,0.000,0.000,0.000,0.000,28.700,No
 Zone Internal Gains Nominal, ALL_ST=AUTOMOTIVE - REPAIR_FL=STORY 2_SCH=E,2500.00,125.1,19.979,5.005E-002,7.200,5.000,0.000,0.000,0.000,0.000,12.200,No
 Zone Internal Gains Nominal, ALL_ST=BANK - BANKING AND OFFICES_FL=STORY 1_SCH=A,1875.00,75.1,24.974,4.004E-002,14.900,5.000,0.000,0.000,0.000,0.000,19.900,No
 Zone Internal Gains Nominal, ALL_ST=CLASSROOM/LECTURE/TRAINING_FL=STORY 4_SCH=D,1875.00,250.1,7.498,0.133,11.970,5.000,0.000,0.000,0.000,0.000,16.970,No
 Zone Internal Gains Nominal, ALL_ST=CONF./MEET./MULTI-PURPOSE_FL=STORY 2_SCH=C,1875.00,375.0,5.000,0.200,11.880,1.000,0.000,0.000,0.000,0.000,12.880,No
 Zone Internal Gains Nominal, ALL_ST=CONVENTION CENTRE - AUDIENCE_FL=STORY 3_SCH=C,1875.00,375.0,5.000,0.200,8.800,2.500,0.000,0.000,0.000,0.000,11.300,No
 Zone Internal Gains Nominal, ALL_ST=CONVENTION CENTRE - EXHIBIT_FL=STORY 2_SCH=C,1875.00,375.0,5.000,0.200,15.600,2.500,0.000,0.000,0.000,0.000,18.100,No
 Zone Internal Gains Nominal, ALL_ST=WHOLEBUILDING_FL=STORY 1_SCH=C,1875.00,62.6,29.969,3.337E-002,15.100,2.500,0.000,0.000,0.000,0.000,17.600,No
 Zone Internal Gains Nominal, ALL_ST=WHOLEBUILDING_FL=STORY 3_SCH=A,1875.00,75.1,24.974,4.004E-002,9.400,7.500,0.000,0.000,0.000,0.000,16.900,No
 Zone Internal Gains Nominal, ALL_ST=WHOLEBUILDING_FL=STORY 3_SCH=H,1875.00,75.1,24.974,4.004E-002,10.300,7.500,0.000,0.000,0.000,0.000,17.800,No
 Zone Internal Gains Nominal, ALL_ST=WHOLEBUILDING_FL=STORY 3_SCH=I,1875.00,375.0,5.000,0.200,11.300,1.000,0.000,0.000,0.000,0.000,12.300,No
 Zone Internal Gains Nominal, ALL_ST=WHOLEBUILDING_FL=STORY 4_SCH=C,1875.00,234.3,8.002,0.125,15.000,1.000,0.000,0.000,0.000,0.000,16.000,No
 Zone Internal Gains Nominal, ALL_ST=WHOLEBUILDING_FL=STORY 4_SCH=D,1875.00,234.3,8.002,0.125,10.700,5.000,0.000,0.000,0.000,0.000,15.700,No
 Zone Internal Gains Nominal, ALL_ST=WHOLEBUILDING_FL=STORY 4_SCH=H,2500.00,2.4,1032.256,9.688E-004,2.700,0.000,0.000,0.000,0.000,0.000,2.700,No
 Zone Internal Gains Nominal, DU_BT=PENITENTIARY_ST=WHOLEBUILDING_FL=STORY 3_SCHH,2500.00,83.4,29.969,3.337E-002,10.400,2.500,0.000,0.000,0.000,0.000,12.900,No
 Zone Internal Gains Nominal, WILD_ST=CORR. < 2.4M WIDE-SCH-A_FL=STORY 2_SCH=C,1875.00,18.8,99.896,1.001E-002,8.400,0.000,0.000,0.000,0.000,0.000,8.400,No
! <People Internal Gains Nominal>,Name,Schedule Name,Zone Name,Zone Floor Area {m2},# Zone Occupants,Number of People {},People/Floor Area {person/m2},Floor Area per person {m2/person},Fraction Radiant,Fraction Convected,Sensible Fraction Calculation,Activity level,ASHRAE 55 Warnings,Carbon Dioxide Generation Rate,Nominal Minimum Number of People,Nominal Maximum Number of People
 People Internal Gains Nominal, ALL_ST=WHOLEBUILDING_FL=STORY 4_SCH=H PARKING GARAGE WHOLEBUILDING PEOPLE,NECB-H-OCCUPANCY,ALL_ST=WHOLEBUILDING_FL=STORY 4_SCH=H,2500.00,2.4,2.4,9.688E-004,1032.256,0.300,0.700,AutoCalculate,NECB-ACTIVITY,No,3.8200E-008,2,2
 People Internal Gains Nominal, DU_BT=PENITENTIARY_ST=WHOLEBUILDING_FL=STORY 3_SCHH PENITENTIARY WHOLEBUILDING PEOPLE,NECB-H-OCCUPANCY,DU_BT=PENITENTIARY_ST=WHOLEBUILDING_FL=STORY 3_SCHH,2500.00,83.4,83.4,3.337E-002,29.969,0.300,0.700,AutoCalculate,NECB-ACTIVITY,No,3.8200E-008,75,75
 People Internal Gains Nominal, ALL_ST=WHOLEBUILDING_FL=STORY 4_SCH=C PERFORMING ARTS THEATRE WHOLEBUILDING PEOPLE,NECB-C-OCCUPANCY,ALL_ST=WHOLEBUILDING_FL=STORY 4_SCH=C,1875.00,234.3,234.3,0.125,8.002,0.300,0.700,AutoCalculate,NECB-ACTIVITY,No,3.8200E-008,0,211
 People Internal Gains Nominal, ALL_ST=WHOLEBUILDING_FL=STORY 3_SCH=H POLICE STATION WHOLEBUILDING PEOPLE,NECB-H-OCCUPANCY,ALL_ST=WHOLEBUILDING_FL=STORY 3_SCH=H,1875.00,75.1,75.1,4.004E-002,24.974,0.300,0.700,AutoCalculate,NECB-ACTIVITY,No,3.8200E-008,68,68
 People Internal Gains Nominal, ALL_ST=WHOLEBUILDING_FL=STORY 3_SCH=A POST OFFICE WHOLEBUILDING PEOPLE,NECB-A-OCCUPANCY,ALL_ST=WHOLEBUILDING_FL=STORY 3_SCH=A,1875.00,75.1,75.1,4.004E-002,24.974,0.300,0.700,AutoCalculate,NECB-ACTIVITY,No,3.8200E-008,0,68
 People Internal Gains Nominal, ALL_ST=WHOLEBUILDING_FL=STORY 3_SCH=I RELIGIOUS WHOLEBUILDING PEOPLE,NECB-I-OCCUPANCY,ALL_ST=WHOLEBUILDING_FL=STORY 3_SCH=I,1875.00,375.0,375.0,0.200,5.000,0.300,0.700,AutoCalculate,NECB-ACTIVITY,No,3.8200E-008,0,300
 People Internal Gains Nominal, ALL_ST=WHOLEBUILDING_FL=STORY 1_SCH=C RETAIL WHOLEBUILDING PEOPLE,NECB-C-OCCUPANCY,ALL_ST=WHOLEBUILDING_FL=STORY 1_SCH=C,1875.00,62.6,62.6,3.337E-002,29.969,0.300,0.700,AutoCalculate,NECB-ACTIVITY,No,3.8200E-008,0,56
 People Internal Gains Nominal, ALL_ST=WHOLEBUILDING_FL=STORY 4_SCH=D SCHOOL/UNIVERSITY WHOLEBUILDING PEOPLE,NECB-D-OCCUPANCY,ALL_ST=WHOLEBUILDING_FL=STORY 4_SCH=D,1875.00,234.3,234.3,0.125,8.002,0.300,0.700,AutoCalculate,NECB-ACTIVITY,No,3.8200E-008,0,211
 People Internal Gains Nominal, ALL_ST=ATRIUM - H < 13M_FL=STORY 4_SCH=C SPACE FUNCTION ATRIUM - H < 13M PEOPLE,NECB-C-OCCUPANCY,ALL_ST=ATRIUM - H < 13M_FL=STORY 4_SCH=C,1875.00,187.5,187.5,10.000E-002,10.000,0.300,0.700,AutoCalculate,NECB-ACTIVITY,No,3.8200E-008,0,169
 People Internal Gains Nominal, ALL_ST=ATRIUM - H > 13M_FL=STORY 1_SCH=C SPACE FUNCTION ATRIUM - H > 13M PEOPLE,NECB-C-OCCUPANCY,ALL_ST=ATRIUM - H > 13M_FL=STORY 1_SCH=C,1875.00,187.5,187.5,10.000E-002,10.000,0.300,0.700,AutoCalculate,NECB-ACTIVITY,No,3.8200E-008,0,169
 People Internal Gains Nominal, ALL_ST=AUDIENCE - AUDITORIUM_FL=STORY 1_SCH=C SPACE FUNCTION AUDIENCE - AUDITORIUM PEOPLE,NECB-C-OCCUPANCY,ALL_ST=AUDIENCE - AUDITORIUM_FL=STORY 1_SCH=C,2500.00,500.0,500.0,0.200,5.000,0.300,0.700,AutoCalculate,NECB-ACTIVITY,No,3.8200E-008,0,450
 People Internal Gains Nominal, ALL_ST=AUDIENCE - MOTION PICTURE_FL=STORY 2_SCH=C SPACE FUNCTION AUDIENCE - MOTION PICTURE PEOPLE,NECB-C-OCCUPANCY,ALL_ST=AUDIENCE - MOTION PICTURE_FL=STORY 2_SCH=C,1875.00,375.0,375.0,0.200,5.000,0.300,0.700,AutoCalculate,NECB-ACTIVITY,No,3.8200E-008,0,337
 People Internal Gains Nominal, ALL_ST=AUDIENCE - PERFORMANCE ARTS_FL=STORY 1_SCH=C SPACE FUNCTION AUDIENCE - PERFORMANCE ARTS PEOPLE,NECB-C-OCCUPANCY,ALL_ST=AUDIENCE - PERFORMANCE ARTS_FL=STORY 1_SCH=C,1875.00,250.1,250.1,0.133,7.498,0.300,0.700,AutoCalculate,NECB-ACTIVITY,No,3.8200E-008,0,225
 People Internal Gains Nominal, ALL_ST=AUTOMOTIVE - REPAIR_FL=STORY 2_SCH=E SPACE FUNCTION AUTOMOTIVE - REPAIR PEOPLE,NECB-E-OCCUPANCY,ALL_ST=AUTOMOTIVE - REPAIR_FL=STORY 2_SCH=E,2500.00,125.1,125.1,5.005E-002,19.979,0.300,0.700,AutoCalculate,NECB-ACTIVITY,No,3.8200E-008,0,113
 People Internal Gains Nominal, ALL_ST=BANK - BANKING AND OFFICES_FL=STORY 1_SCH=A SPACE FUNCTION BANK - BANKING AND OFFICES PEOPLE,NECB-A-OCCUPANCY,ALL_ST=BANK - BANKING AND OFFICES_FL=STORY 1_SCH=A,1875.00,75.1,75.1,4.004E-002,24.974,0.300,0.700,AutoCalculate,NECB-ACTIVITY,No,3.8200E-008,0,68
 People Internal Gains Nominal, ALL_ST=CLASSROOM/LECTURE/TRAINING_FL=STORY 4_SCH=D SPACE FUNCTION CLASSROOM/LECTURE/TRAINING PEOPLE,NECB-D-OCCUPANCY,ALL_ST=CLASSROOM/LECTURE/TRAINING_FL=STORY 4_SCH=D,1875.00,250.1,250.1,0.133,7.498,0.300,0.700,AutoCalculate,NECB-ACTIVITY,No,3.8200E-008,0,225
 People Internal Gains Nominal, ALL_ST=CONF./MEET./MULTI-PURPOSE_FL=STORY 2_SCH=C SPACE FUNCTION CONF./MEET./MULTI-PURPOSE PEOPLE,NECB-C-OCCUPANCY,ALL_ST=CONF./MEET./MULTI-PURPOSE_FL=STORY 2_SCH=C,1875.00,375.0,375.0,0.200,5.000,0.300,0.700,AutoCalculate,NECB-ACTIVITY,No,3.8200E-008,0,337
 People Internal Gains Nominal, ALL_ST=CONVENTION CENTRE - AUDIENCE_FL=STORY 3_SCH=C SPACE FUNCTION CONVENTION CENTRE - AUDIENCE PEOPLE,NECB-C-OCCUPANCY,ALL_ST=CONVENTION CENTRE - AUDIENCE_FL=STORY 3_SCH=C,1875.00,375.0,375.0,0.200,5.000,0.300,0.700,AutoCalculate,NECB-ACTIVITY,No,3.8200E-008,0,337
 People Internal Gains Nominal, ALL_ST=CONVENTION CENTRE - EXHIBIT_FL=STORY 2_SCH=C SPACE FUNCTION CONVENTION CENTRE - EXHIBIT PEOPLE,NECB-C-OCCUPANCY,ALL_ST=CONVENTION CENTRE - EXHIBIT_FL=STORY 2_SCH=C,1875.00,375.0,375.0,0.200,5.000,0.300,0.700,AutoCalculate,NECB-ACTIVITY,No,3.8200E-008,0,337
 People Internal Gains Nominal, WILD_ST=CORR. < 2.4M WIDE-SCH-A_FL=STORY 2_SCH=C SPACE FUNCTION CORR. < 2.4M WIDE-SCH-C PEOPLE,NECB-C-OCCUPANCY,WILD_ST=CORR. < 2.4M WIDE-SCH-A_FL=STORY 2_SCH=C,1875.00,18.8,18.8,1.001E-002,99.896,0.300,0.700,AutoCalculate,NECB-ACTIVITY,No,3.8200E-008,0,17
! <Lights Internal Gains Nominal>,Name,Schedule Name,Zone Name,Zone Floor Area {m2},# Zone Occupants,Lighting Level {W},Lights/Floor Area {W/m2},Lights per person {W/person},Fraction Return Air,Fraction Radiant,Fraction Short Wave,Fraction Convected,Fraction Replaceable,End-Use Category,Nominal Minimum Lighting Level {W},Nominal Maximum Lighting Level {W}
 Lights Internal Gains Nominal, ALL_ST=WHOLEBUILDING_FL=STORY 4_SCH=H PARKING GARAGE WHOLEBUILDING LIGHTS,NECB-H-LIGHTING,ALL_ST=WHOLEBUILDING_FL=STORY 4_SCH=H,2500.00,2.4,6749.944,2.700,2787.068,0.000,0.500,0.200,0.300,1.000,General,6074.949,6074.949
 Lights Internal Gains Nominal, DU_BT=PENITENTIARY_ST=WHOLEBUILDING_FL=STORY 3_SCHH PENITENTIARY WHOLEBUILDING LIGHTS,NECB-H-LIGHTING,DU_BT=PENITENTIARY_ST=WHOLEBUILDING_FL=STORY 3_SCHH,2500.00,83.4,25999.784,10.400,311.672,0.000,0.500,0.200,0.300,1.000,General,23399.805,23399.805
 Lights Internal Gains Nominal, ALL_ST=WHOLEBUILDING_FL=STORY 4_SCH=C PERFORMING ARTS THEATRE WHOLEBUILDING LIGHTS,NECB-C-LIGHTING,ALL_ST=WHOLEBUILDING_FL=STORY 4_SCH=C,1875.00,234.3,28124.766,15.000,120.029,0.000,0.500,0.200,0.300,1.000,General,1406.238,25312.289
 Lights Internal Gains Nominal, ALL_ST=WHOLEBUILDING_FL=STORY 3_SCH=H POLICE STATION WHOLEBUILDING LIGHTS,NECB-H-LIGHTING,ALL_ST=WHOLEBUILDING_FL=STORY 3_SCH=H,1875.00,75.1,19312.339,10.300,257.229,0.000,0.500,0.200,0.300,1.000,General,17381.105,17381.105
 Lights Internal Gains Nominal, ALL_ST=WHOLEBUILDING_FL=STORY 3_SCH=A POST OFFICE WHOLEBUILDING LIGHTS,NECB-A-LIGHTING,ALL_ST=WHOLEBUILDING_FL=STORY 3_SCH=A,1875.00,75.1,17624.853,9.400,234.753,0.000,0.500,0.200,0.300,1.000,General,881.243,15862.368
 Lights Internal Gains Nominal, ALL_ST=WHOLEBUILDING_FL=STORY 3_SCH=I RELIGIOUS WHOLEBUILDING LIGHTS,NECB-I-LIGHTING,ALL_ST=WHOLEBUILDING_FL=STORY 3_SCH=I,1875.00,375.0,21187.324,11.300,56.501,0.000,0.500,0.200,0.300,1.000,General,1059.366,19068.591
 Lights Internal Gains Nominal, ALL_ST=WHOLEBUILDING_FL=STORY 1_SCH=C RETAIL WHOLEBUILDING LIGHTS,NECB-C-LIGHTING,ALL_ST=WHOLEBUILDING_FL=STORY 1_SCH=C,1875.00,62.6,28312.264,15.100,452.524,0.000,0.500,0.200,0.300,1.000,General,1415.613,25481.038
 Lights Internal Gains Nominal, ALL_ST=WHOLEBUILDING_FL=STORY 4_SCH=D SCHOOL/UNIVERSITY WHOLEBUILDING LIGHTS,NECB-D-LIGHTING,ALL_ST=WHOLEBUILDING_FL=STORY 4_SCH=D,1875.00,234.3,20062.333,10.700,85.621,0.000,0.500,0.200,0.300,1.000,General,1003.117,18056.100
 Lights Internal Gains Nominal, ALL_ST=AUDIENCE - AUDITORIUM_FL=STORY 1_SCH=C SPACE FUNCTION AUDIENCE - AUDITORIUM LIGHTS,NECB-C-LIGHTING,ALL_ST=AUDIENCE - AUDITORIUM_FL=STORY 1_SCH=C,2500.00,500.0,21249.823,8.500,42.501,0.000,0.500,0.200,0.300,1.000,General,1062.491,19124.841
 Lights Internal Gains Nominal, ALL_ST=AUDIENCE - MOTION PICTURE_FL=STORY 2_SCH=C SPACE FUNCTION AUDIENCE - MOTION PICTURE LIGHTS,NECB-C-LIGHTING,ALL_ST=AUDIENCE - MOTION PICTURE_FL=STORY 2_SCH=C,1875.00,375.0,23062.308,12.300,61.502,0.000,0.500,0.200,0.300,1.000,General,1153.115,20756.077
 Lights Internal Gains Nominal, ALL_ST=AUDIENCE - PERFORMANCE ARTS_FL=STORY 1_SCH=C SPACE FUNCTION AUDIENCE - PERFORMANCE ARTS LIGHTS,NECB-C-LIGHTING,ALL_ST=AUDIENCE - PERFORMANCE ARTS_FL=STORY 1_SCH=C,1875.00,250.1,49124.591,26.200,196.452,0.000,0.500,0.200,0.300,1.000,General,2456.230,44212.132
 Lights Internal Gains Nominal, ALL_ST=AUTOMOTIVE - REPAIR_FL=STORY 2_SCH=E SPACE FUNCTION AUTOMOTIVE - REPAIR LIGHTS,NECB-E-LIGHTING,ALL_ST=AUTOMOTIVE - REPAIR_FL=STORY 2_SCH=E,2500.00,125.1,17999.850,7.200,143.849,0.000,0.500,0.200,0.300,1.000,General,899.993,16199.865
 Lights Internal Gains Nominal, ALL_ST=BANK - BANKING AND OFFICES_FL=STORY 1_SCH=A SPACE FUNCTION BANK - BANKING AND OFFICES LIGHTS,NECB-A-LIGHTING,ALL_ST=BANK - BANKING AND OFFICES_FL=STORY 1_SCH=A,1875.00,75.1,27937.267,14.900,372.109,0.000,0.500,0.200,0.300,1.000,General,1396.863,25143.541
 Lights Internal Gains Nominal, ALL_ST=CLASSROOM/LECTURE/TRAINING_FL=STORY 4_SCH=D SPACE FUNCTION CLASSROOM/LECTURE/TRAINING LIGHTS,NECB-D-LIGHTING,ALL_ST=CLASSROOM/LECTURE/TRAINING_FL=STORY 4_SCH=D,1875.00,250.1,22443.563,11.970,89.753,0.000,0.500,0.200,0.300,1.000,General,1122.178,20199.207
 Lights Internal Gains Nominal, ALL_ST=CONF./MEET./MULTI-PURPOSE_FL=STORY 2_SCH=C SPACE FUNCTION CONF./MEET./MULTI-PURPOSE LIGHTS,NECB-C-LIGHTING,ALL_ST=CONF./MEET./MULTI-PURPOSE_FL=STORY 2_SCH=C,1875.00,375.0,22274.815,11.880,59.401,0.000,0.500,0.200,0.300,1.000,General,1113.741,20047.333
 Lights Internal Gains Nominal, ALL_ST=CONVENTION CENTRE - AUDIENCE_FL=STORY 3_SCH=C SPACE FUNCTION CONVENTION CENTRE - AUDIENCE LIGHTS,NECB-C-LIGHTING,ALL_ST=CONVENTION CENTRE - AUDIENCE_FL=STORY 3_SCH=C,1875.00,375.0,16499.863,8.800,44.001,0.000,0.500,0.200,0.300,1.000,General,824.993,14849.876
 Lights Internal Gains Nominal, ALL_ST=CONVENTION CENTRE - EXHIBIT_FL=STORY 2_SCH=C SPACE FUNCTION CONVENTION CENTRE - EXHIBIT LIGHTS,NECB-C-LIGHTING,ALL_ST=CONVENTION CENTRE - EXHIBIT_FL=STORY 2_SCH=C,1875.00,375.0,29249.757,15.600,78.002,0.000,0.500,0.200,0.300,1.000,General,1462.488,26324.781
 Lights Internal Gains Nominal, WILD_ST=CORR. < 2.4M WIDE-SCH-A_FL=STORY 2_SCH=C SPACE FUNCTION CORR. < 2.4M WIDE-SCH-C LIGHTS,NECB-C-LIGHTING,WILD_ST=CORR. < 2.4M WIDE-SCH-A_FL=STORY 2_SCH=C,1875.00,18.8,15749.869,8.400,839.117,0.000,0.500,0.200,0.300,1.000,General,787.493,14174.882
! <ElectricEquipment Internal Gains Nominal>,Name,Schedule Name,Zone Name,Zone Floor Area {m2},# Zone Occupants,Equipment Level {W},Equipment/Floor Area {W/m2},Equipment per person {W/person},Fraction Latent,Fraction Radiant,Fraction Lost,Fraction Convected,End-Use SubCategory,Nominal Minimum Equipment Level {W},Nominal Maximum Equipment Level {W}
 ElectricEquipment Internal Gains Nominal, DU_BT=PENITENTIARY_ST=WHOLEBUILDING_FL=STORY 3_SCHH PENITENTIARY WHOLEBUILDING ELEC EQUIP,NECB-H-ELECTRIC-EQUIPMENT,DU_BT=PENITENTIARY_ST=WHOLEBUILDING_FL=STORY 3_SCHH,2500.00,83.4,6249.948,2.500,74.921,0.000,0.500,0.000,0.500,General,5624.953,5624.953
 ElectricEquipment Internal Gains Nominal, ALL_ST=WHOLEBUILDING_FL=STORY 4_SCH=C PERFORMING ARTS THEATRE WHOLEBUILDING ELEC EQUIP,NECB-C-ELECTRIC-EQUIPMENT,ALL_ST=WHOLEBUILDING_FL=STORY 4_SCH=C,1875.00,234.3,1874.984,1.000,8.002,0.000,0.500,0.000,0.500,General,93.749,1687.486
 ElectricEquipment Internal Gains Nominal, ALL_ST=WHOLEBUILDING_FL=STORY 3_SCH=H POLICE STATION WHOLEBUILDING ELEC EQUIP,NECB-H-ELECTRIC-EQUIPMENT,ALL_ST=WHOLEBUILDING_FL=STORY 3_SCH=H,1875.00,75.1,14062.383,7.500,187.303,0.000,0.500,0.000,0.500,General,12656.145,12656.145
 ElectricEquipment Internal Gains Nominal, ALL_ST=WHOLEBUILDING_FL=STORY 3_SCH=A POST OFFICE WHOLEBUILDING ELEC EQUIP,NECB-A-ELECTRIC-EQUIPMENT,ALL_ST=WHOLEBUILDING_FL=STORY 3_SCH=A,1875.00,75.1,14062.383,7.500,187.303,0.000,0.500,0.000,0.500,General,2812.477,12656.145
 ElectricEquipment Internal Gains Nominal, ALL_ST=WHOLEBUILDING_FL=STORY 3_SCH=I RELIGIOUS WHOLEBUILDING ELEC EQUIP,NECB-I-ELECTRIC-EQUIPMENT,ALL_ST=WHOLEBUILDING_FL=STORY 3_SCH=I,1875.00,375.0,1874.984,1.000,5.000,0.000,0.500,0.000,0.500,General,187.498,1499.988
 ElectricEquipment Internal Gains Nominal, ALL_ST=WHOLEBUILDING_FL=STORY 1_SCH=C RETAIL WHOLEBUILDING ELEC EQUIP,NECB-C-ELECTRIC-EQUIPMENT,ALL_ST=WHOLEBUILDING_FL=STORY 1_SCH=C,1875.00,62.6,4687.461,2.500,74.921,0.000,0.500,0.000,0.500,General,234.373,4218.715
 ElectricEquipment Internal Gains Nominal, ALL_ST=WHOLEBUILDING_FL=STORY 4_SCH=D SCHOOL/UNIVERSITY WHOLEBUILDING ELEC EQUIP,NECB-D-ELECTRIC-EQUIPMENT,ALL_ST=WHOLEBUILDING_FL=STORY 4_SCH=D,1875.00,234.3,9374.922,5.000,40.010,0.000,0.500,0.000,0.500,General,468.746,8437.430
 ElectricEquipment Internal Gains Nominal, ALL_ST=ATRIUM - H < 13M_FL=STORY 4_SCH=C SPACE FUNCTION ATRIUM - H < 13M ELEC EQUIP,NECB-C-ELECTRIC-EQUIPMENT,ALL_ST=ATRIUM - H < 13M_FL=STORY 4_SCH=C,1875.00,187.5,4687.461,2.500,25.001,0.000,0.500,0.000,0.500,General,234.373,4218.715
 ElectricEquipment Internal Gains Nominal, ALL_ST=ATRIUM - H > 13M_FL=STORY 1_SCH=C SPACE FUNCTION ATRIUM - H > 13M ELEC EQUIP,NECB-C-ELECTRIC-EQUIPMENT,ALL_ST=ATRIUM - H > 13M_FL=STORY 1_SCH=C,1875.00,187.5,4687.461,2.500,25.001,0.000,0.500,0.000,0.500,General,234.373,4218.715
 ElectricEquipment Internal Gains Nominal, ALL_ST=AUDIENCE - AUDITORIUM_FL=STORY 1_SCH=C SPACE FUNCTION AUDIENCE - AUDITORIUM ELEC EQUIP,NECB-C-ELECTRIC-EQUIPMENT,ALL_ST=AUDIENCE - AUDITORIUM_FL=STORY 1_SCH=C,2500.00,500.0,6249.948,2.500,12.500,0.000,0.500,0.000,0.500,General,312.497,5624.953
 ElectricEquipment Internal Gains Nominal, ALL_ST=AUDIENCE - MOTION PICTURE_FL=STORY 2_SCH=C SPACE FUNCTION AUDIENCE - MOTION PICTURE ELEC EQUIP,NECB-C-ELECTRIC-EQUIPMENT,ALL_ST=AUDIENCE - MOTION PICTURE_FL=STORY 2_SCH=C,1875.00,375.0,4687.461,2.500,12.500,0.000,0.500,0.000,0.500,General,234.373,4218.715
 ElectricEquipment Internal Gains Nominal, ALL_ST=AUDIENCE - PERFORMANCE ARTS_FL=STORY 1_SCH=C SPACE FUNCTION AUDIENCE - PERFORMANCE ARTS ELEC EQUIP,NECB-C-ELECTRIC-EQUIPMENT,ALL_ST=AUDIENCE - PERFORMANCE ARTS_FL=STORY 1_SCH=C,1875.00,250.1,4687.461,2.500,18.745,0.000,0.500,0.000,0.500,General,234.373,4218.715
 ElectricEquipment Internal Gains Nominal, ALL_ST=AUTOMOTIVE - REPAIR_FL=STORY 2_SCH=E SPACE FUNCTION AUTOMOTIVE - REPAIR ELEC EQUIP,NECB-E-ELECTRIC-EQUIPMENT,ALL_ST=AUTOMOTIVE - REPAIR_FL=STORY 2_SCH=E,2500.00,125.1,12499.896,5.000,99.895,0.000,0.500,0.000,0.500,General,624.995,11249.906
 ElectricEquipment Internal Gains Nominal, ALL_ST=BANK - BANKING AND OFFICES_FL=STORY 1_SCH=A SPACE FUNCTION BANK - BANKING AND OFFICES ELEC EQUIP,NECB-A-ELECTRIC-EQUIPMENT,ALL_ST=BANK - BANKING AND OFFICES_FL=STORY 1_SCH=A,1875.00,75.1,9374.922,5.000,124.869,0.000,0.500,0.000,0.500,General,1874.984,8437.430
 ElectricEquipment Internal Gains Nominal, ALL_ST=CLASSROOM/LECTURE/TRAINING_FL=STORY 4_SCH=D SPACE FUNCTION CLASSROOM/LECTURE/TRAINING ELEC EQUIP,NECB-D-ELECTRIC-EQUIPMENT,ALL_ST=CLASSROOM/LECTURE/TRAINING_FL=STORY 4_SCH=D,1875.00,250.1,9374.922,5.000,37.491,0.000,0.500,0.000,0.500,General,468.746,8437.430
 ElectricEquipment Internal Gains Nominal, ALL_ST=CONF./MEET./MULTI-PURPOSE_FL=STORY 2_SCH=C SPACE FUNCTION CONF./MEET./MULTI-PURPOSE ELEC EQUIP,NECB-C-ELECTRIC-EQUIPMENT,ALL_ST=CONF./MEET./MULTI-PURPOSE_FL=STORY 2_SCH=C,1875.00,375.0,1874.984,1.000,5.000,0.000,0.500,0.000,0.500,General,93.749,1687.486
 ElectricEquipment Internal Gains Nominal, ALL_ST=CONVENTION CENTRE - AUDIENCE_FL=STORY 3_SCH=C SPACE FUNCTION CONVENTION CENTRE - AUDIENCE ELEC EQUIP,NECB-C-ELECTRIC-EQUIPMENT,ALL_ST=CONVENTION CENTRE - AUDIENCE_FL=STORY 3_SCH=C,1875.00,375.0,4687.461,2.500,12.500,0.000,0.500,0.000,0.500,General,234.373,4218.715
 ElectricEquipment Internal Gains Nominal, ALL_ST=CONVENTION CENTRE - EXHIBIT_FL=STORY 2_SCH=C SPACE FUNCTION CONVENTION CENTRE - EXHIBIT ELEC EQUIP,NECB-C-ELECTRIC-EQUIPMENT,ALL_ST=CONVENTION CENTRE - EXHIBIT_FL=STORY 2_SCH=C,1875.00,375.0,4687.461,2.500,12.500,0.000,0.500,0.000,0.500,General,234.373,4218.715
! <Shadowing/Sun Position Calculations Annual Simulations>, Calculation Method, Value {days}, Allowable Number Figures in Shadow Overlap {}, Polygon Clipping Algorithm, Sky Diffuse Modeling Algorithm, External Shading Calculation Method, Output External Shading Calculation Results, Disable Self-Shading Within Shading Zone Groups, Disable Self-Shading From Shading Zone Groups to Other Zones
Shadowing/Sun Position Calculations Annual Simulations,AverageOverDaysInFrequency,20,15000,SutherlandHodgman,SimpleSkyDiffuseModeling,InternalCalculation,No,No,No
! <Water Heater Information>,Type,Name,Volume {m3},Maximum Capacity {W},Standard Rated Recovery Efficiency, Standard Rated Energy Factor
! <ZoneInfiltration Airflow Stats Nominal>,Name,Schedule Name,Zone Name, Zone Floor Area {m2}, # Zone Occupants,Design Volume Flow Rate {m3/s},Volume Flow Rate/Floor Area {m3/s/m2},Volume Flow Rate/Exterior Surface Area {m3/s/m2},ACH - Air Changes per Hour,Equation A - Constant Term Coefficient {},Equation B - Temperature Term Coefficient {1/C},Equation C - Velocity Term Coefficient {s/m}, Equation D - Velocity Squared Term Coefficient {s2/m2}
 ZoneInfiltration Airflow Stats Nominal, ATRIUM - H < 13M-SPACE FUNCTION INFILTRATION,ALWAYS ON DISCRETE,ALL_ST=ATRIUM - H < 13M_FL=STORY 4_SCH=C,1875.00,187.5,0.564,3.007E-004,2.500E-004,0.285,0.000,0.000,0.224,0.000
 ZoneInfiltration Airflow Stats Nominal, AUDIENCE - MOTION PICTURE-SPACE FUNCTION INFILTRATION,ALWAYS ON DISCRETE,ALL_ST=AUDIENCE - MOTION PICTURE_FL=STORY 2_SCH=C,1875.00,375.0,9.500E-002,5.067E-005,2.500E-004,4.800E-002,0.000,0.000,0.224,0.000
 ZoneInfiltration Airflow Stats Nominal, CLASSROOM/LECTURE/TRAINING-SPACE FUNCTION INFILTRATION,ALWAYS ON DISCRETE,ALL_ST=CLASSROOM/LECTURE/TRAINING_FL=STORY 4_SCH=D,1875.00,250.1,0.564,3.007E-004,2.500E-004,0.285,0.000,0.000,0.224,0.000
 ZoneInfiltration Airflow Stats Nominal, CONF./MEET./MULTI-PURPOSE-SPACE FUNCTION INFILTRATION,ALWAYS ON DISCRETE,ALL_ST=CONF./MEET./MULTI-PURPOSE_FL=STORY 2_SCH=C,1875.00,375.0,9.500E-002,5.067E-005,2.500E-004,4.800E-002,0.000,0.000,0.224,0.000
 ZoneInfiltration Airflow Stats Nominal, CONVENTION CENTRE - AUDIENCE-SPACE FUNCTION INFILTRATION,ALWAYS ON DISCRETE,ALL_ST=CONVENTION CENTRE - AUDIENCE_FL=STORY 3_SCH=C,1875.00,375.0,9.500E-002,5.067E-005,2.500E-004,4.800E-002,0.000,0.000,0.224,0.000
 ZoneInfiltration Airflow Stats Nominal, CONVENTION CENTRE - EXHIBIT-SPACE FUNCTION INFILTRATION,ALWAYS ON DISCRETE,ALL_ST=CONVENTION CENTRE - EXHIBIT_FL=STORY 2_SCH=C,1875.00,375.0,9.500E-002,5.067E-005,2.500E-004,4.800E-002,0.000,0.000,0.224,0.000
 ZoneInfiltration Airflow Stats Nominal, WHOLEBUILDING-POST OFFICE INFILTRATION,ALWAYS ON DISCRETE,ALL_ST=WHOLEBUILDING_FL=STORY 3_SCH=A,1875.00,75.1,9.500E-002,5.067E-005,2.500E-004,4.800E-002,0.000,0.000,0.224,0.000
 ZoneInfiltration Airflow Stats Nominal, WHOLEBUILDING-POLICE STATION INFILTRATION,ALWAYS ON DISCRETE,ALL_ST=WHOLEBUILDING_FL=STORY 3_SCH=H,1875.00,75.1,9.500E-002,5.067E-005,2.500E-004,4.800E-002,0.000,0.000,0.224,0.000
 ZoneInfiltration Airflow Stats Nominal, WHOLEBUILDING-RELIGIOUS INFILTRATION,ALWAYS ON DISCRETE,ALL_ST=WHOLEBUILDING_FL=STORY 3_SCH=I,1875.00,375.0,9.500E-002,5.067E-005,2.500E-004,4.800E-002,0.000,0.000,0.224,0.000
 ZoneInfiltration Airflow Stats Nominal, WHOLEBUILDING-PERFORMING ARTS THEATRE INFILTRATION,ALWAYS ON DISCRETE,ALL_ST=WHOLEBUILDING_FL=STORY 4_SCH=C,1875.00,234.3,0.564,3.007E-004,2.500E-004,0.285,0.000,0.000,0.224,0.000
 ZoneInfiltration Airflow Stats Nominal, WHOLEBUILDING-SCHOOL/UNIVERSITY INFILTRATION,ALWAYS ON DISCRETE,ALL_ST=WHOLEBUILDING_FL=STORY 4_SCH=D,1875.00,234.3,0.564,3.007E-004,2.500E-004,0.285,0.000,0.000,0.224,0.000
 ZoneInfiltration Airflow Stats Nominal, WHOLEBUILDING-PARKING GARAGE INFILTRATION,ALWAYS ON DISCRETE,ALL_ST=WHOLEBUILDING_FL=STORY 4_SCH=H,2500.00,2.4,0.625,2.500E-004,2.500E-004,0.237,0.000,0.000,0.224,0.000
 ZoneInfiltration Airflow Stats Nominal, CORR. < 2.4M WIDE-SCH-A-SPACE FUNCTION INFILTRATION,ALWAYS ON DISCRETE,WILD_ST=CORR. < 2.4M WIDE-SCH-A_FL=STORY 2_SCH=C,1875.00,18.8,9.500E-002,5.067E-005,2.500E-004,4.800E-002,0.000,0.000,0.224,0.000
 ZoneInfiltration Airflow Stats Nominal, WILD_ST=CORR. < 2.4M WIDE-SCH-A_FL=STORY 2_SCH=C SPACE FUNCTION CORR. < 2.4M WIDE-SCH-C INFILTRATION,ALWAYS ON,WILD_ST=CORR. < 2.4M WIDE-SCH-A_FL=STORY 2_SCH=C,1875.00,18.8,9.502E-002,5.068E-005,2.501E-004,4.801E-002,1.000,0.000,0.000,0.000
! <AirFlow Model>, Simple
 AirFlow Model, Simple
! <RoomAir Model>, Zone Name, Mixing/Mundt/UCSDDV/UCSDCV/UCSDUFI/UCSDUFE/User Defined
RoomAir Model,ALL_ST=ATRIUM - H < 13M_FL=STORY 4_SCH=C,Mixing/Well-Stirred
RoomAir Model,ALL_ST=ATRIUM - H > 13M_FL=STORY 1_SCH=C,Mixing/Well-Stirred
RoomAir Model,ALL_ST=AUDIENCE - AUDITORIUM_FL=STORY 1_SCH=C,Mixing/Well-Stirred
RoomAir Model,ALL_ST=AUDIENCE - MOTION PICTURE_FL=STORY 2_SCH=C,Mixing/Well-Stirred
RoomAir Model,ALL_ST=AUDIENCE - PERFORMANCE ARTS_FL=STORY 1_SCH=C,Mixing/Well-Stirred
RoomAir Model,ALL_ST=AUTOMOTIVE - REPAIR_FL=STORY 2_SCH=E,Mixing/Well-Stirred
RoomAir Model,ALL_ST=BANK - BANKING AND OFFICES_FL=STORY 1_SCH=A,Mixing/Well-Stirred
RoomAir Model,ALL_ST=CLASSROOM/LECTURE/TRAINING_FL=STORY 4_SCH=D,Mixing/Well-Stirred
RoomAir Model,ALL_ST=CONF./MEET./MULTI-PURPOSE_FL=STORY 2_SCH=C,Mixing/Well-Stirred
RoomAir Model,ALL_ST=CONVENTION CENTRE - AUDIENCE_FL=STORY 3_SCH=C,Mixing/Well-Stirred
RoomAir Model,ALL_ST=CONVENTION CENTRE - EXHIBIT_FL=STORY 2_SCH=C,Mixing/Well-Stirred
RoomAir Model,ALL_ST=WHOLEBUILDING_FL=STORY 1_SCH=C,Mixing/Well-Stirred
RoomAir Model,ALL_ST=WHOLEBUILDING_FL=STORY 3_SCH=A,Mixing/Well-Stirred
RoomAir Model,ALL_ST=WHOLEBUILDING_FL=STORY 3_SCH=H,Mixing/Well-Stirred
RoomAir Model,ALL_ST=WHOLEBUILDING_FL=STORY 3_SCH=I,Mixing/Well-Stirred
RoomAir Model,ALL_ST=WHOLEBUILDING_FL=STORY 4_SCH=C,Mixing/Well-Stirred
RoomAir Model,ALL_ST=WHOLEBUILDING_FL=STORY 4_SCH=D,Mixing/Well-Stirred
RoomAir Model,ALL_ST=WHOLEBUILDING_FL=STORY 4_SCH=H,Mixing/Well-Stirred
RoomAir Model,DU_BT=PENITENTIARY_ST=WHOLEBUILDING_FL=STORY 3_SCHH,Mixing/Well-Stirred
RoomAir Model,WILD_ST=CORR. < 2.4M WIDE-SCH-A_FL=STORY 2_SCH=C,Mixing/Well-Stirred
! <AirflowNetwork Model:Control>, No Multizone or Distribution/Multizone with Distribution/Multizone without Distribution/Multizone with Distribution only during Fan Operation
AirflowNetwork Model:Control,NoMultizoneOrDistribution
! <Zone Volume Capacitance Multiplier>, Sensible Heat Capacity Multiplier, Moisture Capacity Multiplier, Carbon Dioxide Capacity Multiplier, Generic Contaminant Capacity Multiplier
Zone Volume Capacitance Multiplier,   1.000 ,   1.000,   1.000,   1.000
! <Load Timesteps in Zone Design Calculation Averaging Window>, Value
 Load Timesteps in Zone Design Calculation Averaging Window,    6
! <Heating Sizing Factor Information>, Sizing Factor ID, Value
 Heating Sizing Factor Information, Global,   1.3000    
 Heating Sizing Factor Information, Zone ALL_ST=ATRIUM - H < 13M_FL=STORY 4_SCH=C,   1.3000    
 Heating Sizing Factor Information, Zone ALL_ST=ATRIUM - H > 13M_FL=STORY 1_SCH=C,   1.3000    
 Heating Sizing Factor Information, Zone ALL_ST=AUDIENCE - AUDITORIUM_FL=STORY 1_SCH=C,   1.3000    
 Heating Sizing Factor Information, Zone ALL_ST=AUDIENCE - MOTION PICTURE_FL=STORY 2_SCH=C,   1.3000    
 Heating Sizing Factor Information, Zone ALL_ST=AUDIENCE - PERFORMANCE ARTS_FL=STORY 1_SCH=C,   1.3000    
 Heating Sizing Factor Information, Zone ALL_ST=AUTOMOTIVE - REPAIR_FL=STORY 2_SCH=E,   1.3000    
 Heating Sizing Factor Information, Zone ALL_ST=BANK - BANKING AND OFFICES_FL=STORY 1_SCH=A,   1.3000    
 Heating Sizing Factor Information, Zone ALL_ST=CLASSROOM/LECTURE/TRAINING_FL=STORY 4_SCH=D,   1.3000    
 Heating Sizing Factor Information, Zone ALL_ST=CONF./MEET./MULTI-PURPOSE_FL=STORY 2_SCH=C,   1.3000    
 Heating Sizing Factor Information, Zone ALL_ST=CONVENTION CENTRE - AUDIENCE_FL=STORY 3_SCH=C,   1.3000    
 Heating Sizing Factor Information, Zone ALL_ST=CONVENTION CENTRE - EXHIBIT_FL=STORY 2_SCH=C,   1.3000    
 Heating Sizing Factor Information, Zone ALL_ST=WHOLEBUILDING_FL=STORY 1_SCH=C,   1.3000    
 Heating Sizing Factor Information, Zone ALL_ST=WHOLEBUILDING_FL=STORY 3_SCH=A,   1.3000    
 Heating Sizing Factor Information, Zone ALL_ST=WHOLEBUILDING_FL=STORY 3_SCH=H,   1.3000    
 Heating Sizing Factor Information, Zone ALL_ST=WHOLEBUILDING_FL=STORY 3_SCH=I,   1.3000    
 Heating Sizing Factor Information, Zone ALL_ST=WHOLEBUILDING_FL=STORY 4_SCH=C,   1.3000    
 Heating Sizing Factor Information, Zone ALL_ST=WHOLEBUILDING_FL=STORY 4_SCH=D,   1.3000    
 Heating Sizing Factor Information, Zone ALL_ST=WHOLEBUILDING_FL=STORY 4_SCH=H,   1.3000    
 Heating Sizing Factor Information, Zone DU_BT=PENITENTIARY_ST=WHOLEBUILDING_FL=STORY 3_SCHH,   1.3000    
 Heating Sizing Factor Information, Zone WILD_ST=CORR. < 2.4M WIDE-SCH-A_FL=STORY 2_SCH=C,   1.3000    
! <Cooling Sizing Factor Information>, Sizing Factor ID, Value
 Cooling Sizing Factor Information, Global,   1.1000    
 Cooling Sizing Factor Information, Zone ALL_ST=ATRIUM - H < 13M_FL=STORY 4_SCH=C,   1.1000    
 Cooling Sizing Factor Information, Zone ALL_ST=ATRIUM - H > 13M_FL=STORY 1_SCH=C,   1.1000    
 Cooling Sizing Factor Information, Zone ALL_ST=AUDIENCE - AUDITORIUM_FL=STORY 1_SCH=C,   1.1000    
 Cooling Sizing Factor Information, Zone ALL_ST=AUDIENCE - MOTION PICTURE_FL=STORY 2_SCH=C,   1.1000    
 Cooling Sizing Factor Information, Zone ALL_ST=AUDIENCE - PERFORMANCE ARTS_FL=STORY 1_SCH=C,   1.1000    
 Cooling Sizing Factor Information, Zone ALL_ST=AUTOMOTIVE - REPAIR_FL=STORY 2_SCH=E,   1.1000    
 Cooling Sizing Factor Information, Zone ALL_ST=BANK - BANKING AND OFFICES_FL=STORY 1_SCH=A,   1.1000    
 Cooling Sizing Factor Information, Zone ALL_ST=CLASSROOM/LECTURE/TRAINING_FL=STORY 4_SCH=D,   1.1000    
 Cooling Sizing Factor Information, Zone ALL_ST=CONF./MEET./MULTI-PURPOSE_FL=STORY 2_SCH=C,   1.1000    
 Cooling Sizing Factor Information, Zone ALL_ST=CONVENTION CENTRE - AUDIENCE_FL=STORY 3_SCH=C,   1.1000    
 Cooling Sizing Factor Information, Zone ALL_ST=CONVENTION CENTRE - EXHIBIT_FL=STORY 2_SCH=C,   1.1000    
 Cooling Sizing Factor Information, Zone ALL_ST=WHOLEBUILDING_FL=STORY 1_SCH=C,   1.1000    
 Cooling Sizing Factor Information, Zone ALL_ST=WHOLEBUILDING_FL=STORY 3_SCH=A,   1.1000    
 Cooling Sizing Factor Information, Zone ALL_ST=WHOLEBUILDING_FL=STORY 3_SCH=H,   1.1000    
 Cooling Sizing Factor Information, Zone ALL_ST=WHOLEBUILDING_FL=STORY 3_SCH=I,   1.1000    
 Cooling Sizing Factor Information, Zone ALL_ST=WHOLEBUILDING_FL=STORY 4_SCH=C,   1.1000    
 Cooling Sizing Factor Information, Zone ALL_ST=WHOLEBUILDING_FL=STORY 4_SCH=D,   1.1000    
 Cooling Sizing Factor Information, Zone ALL_ST=WHOLEBUILDING_FL=STORY 4_SCH=H,   1.1000    
 Cooling Sizing Factor Information, Zone DU_BT=PENITENTIARY_ST=WHOLEBUILDING_FL=STORY 3_SCHH,   1.1000    
 Cooling Sizing Factor Information, Zone WILD_ST=CORR. < 2.4M WIDE-SCH-A_FL=STORY 2_SCH=C,   1.1000    
! <Zone Sizing Information>, Zone Name, Load Type, Calc Des Load {W}, User Des Load {W}, Calc Des Air Flow Rate {m3/s}, User Des Air Flow Rate {m3/s}, Design Day Name, Date/Time of Peak, Temperature at Peak {C}, Humidity Ratio at Peak {kgWater/kgDryAir}, Floor Area {m2}, # Occupants, Calc Outdoor Air Flow Rate {m3/s}, Calc DOAS Heat Addition Rate {W}
 Zone Sizing Information, ALL_ST=ATRIUM - H < 13M_FL=STORY 4_SCH=C, Cooling, 56913.17062, 62604.48768, 4.39907, 4.83898, FORT MCMURRAY AP ANN CLG .4% CONDNS DB=>MWB, 7/21 13:50:00, 28.79667, 8.76969E-003, 1875.00000, 187.49386, 0.57150, 0.00000
 Zone Sizing Information, ALL_ST=ATRIUM - H < 13M_FL=STORY 4_SCH=C, Heating, 52460.93139, 68199.21081, 2.09263, 2.72042, FORT MCMURRAY AP ANN HTG 99.6% CONDNS DB, 1/21 09:00:00, -36.20000, 1.25811E-004, 1875.00000, 187.49386, 0.57150, 0.00000
 Zone Sizing Information, ALL_ST=ATRIUM - H > 13M_FL=STORY 1_SCH=C, Cooling, 16837.86456, 18521.65102, 1.30152, 1.43168, FORT MCMURRAY AP ANN CLG .4% CONDNS DB=>MWB, 7/21 17:00:00, 27.16400, 8.76969E-003, 1875.00000, 187.49386, 0.57150, 0.00000
 Zone Sizing Information, ALL_ST=ATRIUM - H > 13M_FL=STORY 1_SCH=C, Heating, 0.00000, 0.00000, 0.00000, 0.57150, FORT MCMURRAY AP ANN HTG 99.6% CONDNS DB, , -36.20000, 1.25811E-004, 1875.00000, 187.49386, 0.57150, 0.00000
 Zone Sizing Information, ALL_ST=AUDIENCE - AUDITORIUM_FL=STORY 1_SCH=C, Cooling, 43345.33076, 47679.86384, 3.35115, 10.28700, FORT MCMURRAY AP ANN CLG .4% CONDNS DB=>MWB, 7/21 17:00:00, 27.16400, 8.76969E-003, 2500.00000, 499.98364, 10.28700, 0.00000
 Zone Sizing Information, ALL_ST=AUDIENCE - AUDITORIUM_FL=STORY 1_SCH=C, Heating, 0.00000, 0.00000, 0.00000, 10.28700, FORT MCMURRAY AP ANN HTG 99.6% CONDNS DB, , -36.20000, 1.25811E-004, 2500.00000, 499.98364, 10.28700, 0.00000
 Zone Sizing Information, ALL_ST=AUDIENCE - MOTION PICTURE_FL=STORY 2_SCH=C, Cooling, 51767.07350, 56943.78085, 4.00212, 7.71525, FORT MCMURRAY AP ANN CLG .4% CONDNS DB=>MWB, 7/21 17:00:00, 27.16400, 8.76969E-003, 1875.00000, 374.98773, 7.71525, 0.00000
 Zone Sizing Information, ALL_ST=AUDIENCE - MOTION PICTURE_FL=STORY 2_SCH=C, Heating, 2293.26792, 2981.24829, 9.04654E-002, 7.71525, FORT MCMURRAY AP ANN HTG 99.6% CONDNS DB, 1/21 08:10:00, -36.20000, 1.25811E-004, 1875.00000, 374.98773, 7.71525, 0.00000
 Zone Sizing Information, ALL_ST=AUDIENCE - PERFORMANCE ARTS_FL=STORY 1_SCH=C, Cooling, 50123.27368, 55135.60105, 3.87460, 7.71525, FORT MCMURRAY AP ANN CLG .4% CONDNS DB=>MWB, 7/21 17:00:00, 27.16400, 8.76969E-003, 1875.00000, 250.05909, 7.71525, 0.00000
 Zone Sizing Information, ALL_ST=AUDIENCE - PERFORMANCE ARTS_FL=STORY 1_SCH=C, Heating, 0.00000, 0.00000, 0.00000, 7.71525, FORT MCMURRAY AP ANN HTG 99.6% CONDNS DB, , -36.20000, 1.25811E-004, 1875.00000, 250.05909, 7.71525, 0.00000
 Zone Sizing Information, ALL_ST=AUTOMOTIVE - REPAIR_FL=STORY 2_SCH=E, Cooling, 34664.40227, 38130.84249, 2.67921, 3.17500, FORT MCMURRAY AP ANN CLG .4% CONDNS DB=>MWB, 7/21 16:00:00, 28.15600, 8.76969E-003, 2500.00000, 125.13046, 3.17500, 0.00000
 Zone Sizing Information, ALL_ST=AUTOMOTIVE - REPAIR_FL=STORY 2_SCH=E, Heating, 0.00000, 0.00000, 0.00000, 3.17500, FORT MCMURRAY AP ANN HTG 99.6% CONDNS DB, , -36.20000, 1.25811E-004, 2500.00000, 125.13046, 3.17500, 0.00000
 Zone Sizing Information, ALL_ST=BANK - BANKING AND OFFICES_FL=STORY 1_SCH=A, Cooling, 32006.08508, 35206.69359, 2.47373, 2.72110, FORT MCMURRAY AP ANN CLG .4% CONDNS DB=>MWB, 7/21 17:00:00, 27.16400, 8.76969E-003, 1875.00000, 75.07828, 1.64783, 0.00000
 Zone Sizing Information, ALL_ST=BANK - BANKING AND OFFICES_FL=STORY 1_SCH=A, Heating, 0.00000, 0.00000, 0.00000, 1.64783, FORT MCMURRAY AP ANN HTG 99.6% CONDNS DB, , -36.20000, 1.25811E-004, 1875.00000, 75.07828, 1.64783, 0.00000
 Zone Sizing Information, ALL_ST=CLASSROOM/LECTURE/TRAINING_FL=STORY 4_SCH=D, Cooling, 97518.25234, 107270.07757, 7.53829, 8.29212, FORT MCMURRAY AP ANN CLG .4% CONDNS DB=>MWB, 7/21 13:30:00, 28.59000, 8.76969E-003, 1875.00000, 250.05909, 5.21970, 0.00000
 Zone Sizing Information, ALL_ST=CLASSROOM/LECTURE/TRAINING_FL=STORY 4_SCH=D, Heating, 40149.91997, 52194.89597, 1.51610, 5.21970, FORT MCMURRAY AP ANN HTG 99.6% CONDNS DB, 1/21 08:20:00, -36.20000, 1.25811E-004, 1875.00000, 250.05909, 5.21970, 0.00000
 Zone Sizing Information, ALL_ST=CONF./MEET./MULTI-PURPOSE_FL=STORY 2_SCH=C, Cooling, 57171.39271, 62888.53198, 4.42002, 4.86203, FORT MCMURRAY AP ANN CLG .4% CONDNS DB=>MWB, 7/21 17:20:00, 26.75067, 8.76969E-003, 1875.00000, 374.98773, 2.95275, 0.00000
 Zone Sizing Information, ALL_ST=CONF./MEET./MULTI-PURPOSE_FL=STORY 2_SCH=C, Heating, 4327.62428, 5625.91157, 0.16712, 2.95275, FORT MCMURRAY AP ANN HTG 99.6% CONDNS DB, 1/21 08:10:00, -36.20000, 1.25811E-004, 1875.00000, 374.98773, 2.95275, 0.00000
 Zone Sizing Information, ALL_ST=CONVENTION CENTRE - AUDIENCE_FL=STORY 3_SCH=C, Cooling, 63955.82855, 70351.41141, 4.94452, 7.71525, FORT MCMURRAY AP ANN CLG .4% CONDNS DB=>MWB, 7/21 17:30:00, 26.54400, 8.76969E-003, 1875.00000, 374.98773, 7.71525, 0.00000
 Zone Sizing Information, ALL_ST=CONVENTION CENTRE - AUDIENCE_FL=STORY 3_SCH=C, Heating, 17381.23965, 22595.61154, 0.67428, 7.71525, FORT MCMURRAY AP ANN HTG 99.6% CONDNS DB, 1/21 09:00:00, -36.20000, 1.25811E-004, 1875.00000, 374.98773, 7.71525, 0.00000
 Zone Sizing Information, ALL_ST=CONVENTION CENTRE - EXHIBIT_FL=STORY 2_SCH=C, Cooling, 45153.00483, 49668.30531, 3.49082, 3.83990, FORT MCMURRAY AP ANN CLG .4% CONDNS DB=>MWB, 7/21 17:00:00, 27.16400, 8.76969E-003, 1875.00000, 374.98773, 1.61925, 0.00000
 Zone Sizing Information, ALL_ST=CONVENTION CENTRE - EXHIBIT_FL=STORY 2_SCH=C, Heating, 6104.66720, 7936.06736, 0.23135, 1.61925, FORT MCMURRAY AP ANN HTG 99.6% CONDNS DB, 1/21 08:10:00, -36.20000, 1.25811E-004, 1875.00000, 374.98773, 1.61925, 0.00000
 Zone Sizing Information, ALL_ST=WHOLEBUILDING_FL=STORY 1_SCH=C, Cooling, 28565.19517, 31421.71469, 2.20773, 2.42851, FORT MCMURRAY AP ANN CLG .4% CONDNS DB=>MWB, 7/21 18:00:00, 25.92400, 8.76969E-003, 1875.00000, 62.56523, 0.79058, 0.00000
 Zone Sizing Information, ALL_ST=WHOLEBUILDING_FL=STORY 1_SCH=C, Heating, 0.00000, 0.00000, 0.00000, 0.79058, FORT MCMURRAY AP ANN HTG 99.6% CONDNS DB, , -36.20000, 1.25811E-004, 1875.00000, 62.56523, 0.79058, 0.00000
 Zone Sizing Information, ALL_ST=WHOLEBUILDING_FL=STORY 3_SCH=A, Cooling, 52474.41306, 57721.85436, 4.05563, 4.46120, FORT MCMURRAY AP ANN CLG .4% CONDNS DB=>MWB, 7/21 10:00:00, 24.18800, 8.76969E-003, 1875.00000, 75.07828, 1.40970, 0.00000
 Zone Sizing Information, ALL_ST=WHOLEBUILDING_FL=STORY 3_SCH=A, Heating, 19733.62328, 25653.71027, 0.76987, 1.40970, FORT MCMURRAY AP ANN HTG 99.6% CONDNS DB, 1/21 08:00:00, -36.20000, 1.25811E-004, 1875.00000, 75.07828, 1.40970, 0.00000
 Zone Sizing Information, ALL_ST=WHOLEBUILDING_FL=STORY 3_SCH=H, Cooling, 51495.62909, 56645.19200, 3.97997, 4.37797, FORT MCMURRAY AP ANN CLG .4% CONDNS DB=>MWB, 7/21 14:20:00, 28.90000, 8.76969E-003, 1875.00000, 75.07828, 0.75248, 0.00000
 Zone Sizing Information, ALL_ST=WHOLEBUILDING_FL=STORY 3_SCH=H, Heating, 0.00000, 0.00000, 0.00000, 0.75248, FORT MCMURRAY AP ANN HTG 99.6% CONDNS DB, , -36.20000, 1.25811E-004, 1875.00000, 75.07828, 0.75248, 0.00000
 Zone Sizing Information, ALL_ST=WHOLEBUILDING_FL=STORY 3_SCH=I, Cooling, 45318.66435, 49850.53078, 3.50317, 3.85349, FORT MCMURRAY AP ANN CLG .4% CONDNS DB=>MWB, 7/21 20:10:00, 22.51400, 8.76969E-003, 1875.00000, 374.98773, 1.45733, 0.00000
 Zone Sizing Information, ALL_ST=WHOLEBUILDING_FL=STORY 3_SCH=I, Heating, 21784.02124, 28319.22761, 0.85219, 1.45733, FORT MCMURRAY AP ANN HTG 99.6% CONDNS DB, 1/21 16:00:00, -36.20000, 1.25811E-004, 1875.00000, 374.98773, 1.45733, 0.00000
 Zone Sizing Information, ALL_ST=WHOLEBUILDING_FL=STORY 4_SCH=C, Cooling, 89272.01995, 98199.22194, 6.90053, 7.59059, FORT MCMURRAY AP ANN CLG .4% CONDNS DB=>MWB, 7/21 16:20:00, 27.82533, 8.76969E-003, 1875.00000, 234.31687, 1.12395, 0.00000
 Zone Sizing Information, ALL_ST=WHOLEBUILDING_FL=STORY 4_SCH=C, Heating, 45537.91147, 59199.28492, 1.69748, 2.20672, FORT MCMURRAY AP ANN HTG 99.6% CONDNS DB, 1/21 08:10:00, -36.20000, 1.25811E-004, 1875.00000, 234.31687, 1.12395, 0.00000
 Zone Sizing Information, ALL_ST=WHOLEBUILDING_FL=STORY 4_SCH=D, Cooling, 86308.78745, 94939.66619, 6.67161, 7.33877, FORT MCMURRAY AP ANN CLG .4% CONDNS DB=>MWB, 7/21 10:30:00, 25.11800, 8.76969E-003, 1875.00000, 234.31687, 1.40018, 0.00000
 Zone Sizing Information, ALL_ST=WHOLEBUILDING_FL=STORY 4_SCH=D, Heating, 45614.97724, 59299.47041, 1.72561, 2.24329, FORT MCMURRAY AP ANN HTG 99.6% CONDNS DB, 1/21 08:20:00, -36.20000, 1.25811E-004, 1875.00000, 234.31687, 1.40018, 0.00000
 Zone Sizing Information, ALL_ST=WHOLEBUILDING_FL=STORY 4_SCH=H, Cooling, 58893.98296, 64783.38126, 4.55150, 5.00665, FORT MCMURRAY AP ANN CLG .4% CONDNS DB=>MWB, 7/21 13:40:00, 28.69333, 8.76969E-003, 2500.00000, 2.42188, 0.77470, 0.00000
 Zone Sizing Information, ALL_ST=WHOLEBUILDING_FL=STORY 4_SCH=H, Heating, 39901.01336, 51871.31737, 1.57509, 2.04762, FORT MCMURRAY AP ANN HTG 99.6% CONDNS DB, 1/21 09:00:00, -36.20000, 1.25811E-004, 2500.00000, 2.42188, 0.77470, 0.00000
 Zone Sizing Information, DU_BT=PENITENTIARY_ST=WHOLEBUILDING_FL=STORY 3_SCHH, Cooling, 39083.36076, 42991.69683, 3.02069, 3.32276, FORT MCMURRAY AP ANN CLG .4% CONDNS DB=>MWB, 7/21 17:40:00, 26.33733, 8.76969E-003, 2500.00000, 83.42031, 0.95250, 0.00000
 Zone Sizing Information, DU_BT=PENITENTIARY_ST=WHOLEBUILDING_FL=STORY 3_SCHH, Heating, 0.00000, 0.00000, 0.00000, 0.95250, FORT MCMURRAY AP ANN HTG 99.6% CONDNS DB, , -36.20000, 1.25811E-004, 2500.00000, 83.42031, 0.95250, 0.00000
 Zone Sizing Information, WILD_ST=CORR. < 2.4M WIDE-SCH-A_FL=STORY 2_SCH=C, Cooling, 32487.61636, 35736.37800, 2.51077, 2.76185, FORT MCMURRAY AP ANN CLG .4% CONDNS DB=>MWB, 7/21 13:50:00, 28.79667, 8.76969E-003, 1875.00000, 18.76957, 0.57150, 0.00000
 Zone Sizing Information, WILD_ST=CORR. < 2.4M WIDE-SCH-A_FL=STORY 2_SCH=C, Heating, 17705.05910, 23016.57683, 0.68687, 0.89293, FORT MCMURRAY AP ANN HTG 99.6% CONDNS DB, 1/21 09:00:00, -36.20000, 1.25811E-004, 1875.00000, 18.76957, 0.57150, 0.00000
! <System Sizing Information>, System Name, Load Type, Peak Load Kind, User Design Capacity, Calc Des Air Flow Rate [m3/s], User Des Air Flow Rate [m3/s], Design Day Name, Date/Time of Peak
 System Sizing Information, SYS_3_PSZ ALL_ST=AUDIENCE - AUDITORIUM_FL=STORY 1_SCH=C, Cooling, Sensible, 168745.72, 10.28700, 10.28700, FORT MCMURRAY AP ANN CLG .4% CONDNS DB=>MWB, 7/21 05:00:00
 System Sizing Information, SYS_3_PSZ ALL_ST=AUDIENCE - AUDITORIUM_FL=STORY 1_SCH=C, Heating, Sensible, 943565.47, 10.28700, 10.28700, FORT MCMURRAY AP ANN HTG 99.6% CONDNS DB, 1/21 00:10:00
 System Sizing Information, SYS_3_PSZ ALL_ST=AUDIENCE - MOTION PICTURE_FL=STORY 2_SCH=C, Cooling, Sensible, 126559.29, 7.71525, 7.71525, FORT MCMURRAY AP ANN CLG .4% CONDNS DB=>MWB, 7/21 05:00:00
 System Sizing Information, SYS_3_PSZ ALL_ST=AUDIENCE - MOTION PICTURE_FL=STORY 2_SCH=C, Heating, Sensible, 707674.10, 7.71525, 7.71525, FORT MCMURRAY AP ANN HTG 99.6% CONDNS DB, 1/21 00:10:00
 System Sizing Information, SYS_3_PSZ ALL_ST=AUDIENCE - PERFORMANCE ARTS_FL=STORY 1_SCH=C, Cooling, Sensible, 126559.29, 7.71525, 7.71525, FORT MCMURRAY AP ANN CLG .4% CONDNS DB=>MWB, 7/21 05:00:00
 System Sizing Information, SYS_3_PSZ ALL_ST=AUDIENCE - PERFORMANCE ARTS_FL=STORY 1_SCH=C, Heating, Sensible, 707674.10, 7.71525, 7.71525, FORT MCMURRAY AP ANN HTG 99.6% CONDNS DB, 1/21 00:10:00
 System Sizing Information, SYS_3_PSZ ALL_ST=CLASSROOM/LECTURE/TRAINING_FL=STORY 4_SCH=D, Cooling, Sensible, 133374.57, 8.29212, 8.29212, FORT MCMURRAY AP ANN CLG .4% CONDNS DB=>MWB, 7/21 05:00:00
 System Sizing Information, SYS_3_PSZ ALL_ST=CLASSROOM/LECTURE/TRAINING_FL=STORY 4_SCH=D, Heating, Sensible, 478772.11, 5.21970, 5.21970, FORT MCMURRAY AP ANN HTG 99.6% CONDNS DB, 1/21 00:10:00
 System Sizing Information, SYS_3_PSZ ALL_ST=CONF./MEET./MULTI-PURPOSE_FL=STORY 2_SCH=C, Cooling, Sensible, 71336.72, 4.86203, 4.86203, FORT MCMURRAY AP ANN CLG .4% CONDNS DB=>MWB, 7/21 05:00:00
 System Sizing Information, SYS_3_PSZ ALL_ST=CONF./MEET./MULTI-PURPOSE_FL=STORY 2_SCH=C, Heating, Sensible, 270838.24, 2.95275, 2.95275, FORT MCMURRAY AP ANN HTG 99.6% CONDNS DB, 1/21 00:10:00
 System Sizing Information, SYS_3_PSZ ALL_ST=CONVENTION CENTRE - AUDIENCE_FL=STORY 3_SCH=C, Cooling, Sensible, 121019.42, 7.71525, 7.71525, FORT MCMURRAY AP ANN CLG .4% CONDNS DB=>MWB, 7/21 05:00:00
 System Sizing Information, SYS_3_PSZ ALL_ST=CONVENTION CENTRE - AUDIENCE_FL=STORY 3_SCH=C, Heating, Sensible, 707674.10, 7.71525, 7.71525, FORT MCMURRAY AP ANN HTG 99.6% CONDNS DB, 1/21 00:10:00
 System Sizing Information, SYS_3_PSZ ALL_ST=CONVENTION CENTRE - EXHIBIT_FL=STORY 2_SCH=C, Cooling, Sensible, 54841.32, 3.83990, 3.83990, FORT MCMURRAY AP ANN CLG .4% CONDNS DB=>MWB, 7/21 05:00:00
 System Sizing Information, SYS_3_PSZ ALL_ST=CONVENTION CENTRE - EXHIBIT_FL=STORY 2_SCH=C, Heating, Sensible, 148524.19, 1.61925, 1.61925, FORT MCMURRAY AP ANN HTG 99.6% CONDNS DB, 1/21 00:10:00
 System Sizing Information, SYS_3_PSZ ALL_ST=WHOLEBUILDING_FL=STORY 3_SCH=H, Cooling, Sensible, 60040.09, 4.37797, 4.37797, FORT MCMURRAY AP ANN CLG .4% CONDNS DB=>MWB, 7/21 05:00:00
 System Sizing Information, SYS_3_PSZ ALL_ST=WHOLEBUILDING_FL=STORY 3_SCH=H, Heating, Sensible, 69020.07, 0.75248, 0.75248, FORT MCMURRAY AP ANN HTG 99.6% CONDNS DB, 1/21 00:10:00
 System Sizing Information, SYS_3_PSZ ALL_ST=WHOLEBUILDING_FL=STORY 3_SCH=I, Cooling, Sensible, 46576.05, 3.85349, 3.85349, FORT MCMURRAY AP ANN CLG .4% CONDNS DB=>MWB, 7/21 05:00:00
 System Sizing Information, SYS_3_PSZ ALL_ST=WHOLEBUILDING_FL=STORY 3_SCH=I, Heating, Sensible, 133671.78, 1.45733, 1.45733, FORT MCMURRAY AP ANN HTG 99.6% CONDNS DB, 1/21 00:10:00
 System Sizing Information, SYS_3_PSZ ALL_ST=WHOLEBUILDING_FL=STORY 4_SCH=C, Cooling, Sensible, 101662.95, 7.59059, 7.59059, FORT MCMURRAY AP ANN CLG .4% CONDNS DB=>MWB, 7/21 05:00:00
 System Sizing Information, SYS_3_PSZ ALL_ST=WHOLEBUILDING_FL=STORY 4_SCH=C, Heating, Sensible, 131732.23, 2.20672, 2.20672, FORT MCMURRAY AP ANN HTG 99.6% CONDNS DB, 1/21 08:20:00
 System Sizing Information, SYS_3_PSZ ALL_ST=WHOLEBUILDING_FL=STORY 4_SCH=D, Cooling, Sensible, 95288.39, 7.33877, 7.33877, FORT MCMURRAY AP ANN CLG .4% CONDNS DB=>MWB, 7/21 05:00:00
 System Sizing Information, SYS_3_PSZ ALL_ST=WHOLEBUILDING_FL=STORY 4_SCH=D, Heating, Sensible, 150410.91, 2.24329, 2.24329, FORT MCMURRAY AP ANN HTG 99.6% CONDNS DB, 1/21 09:00:00
 System Sizing Information, SYS_3_PSZ DU_BT=PENITENTIARY_ST=WHOLEBUILDING_FL=STORY 3_SCHH, Cooling, Sensible, 44906.20, 3.32276, 3.32276, FORT MCMURRAY AP ANN CLG .4% CONDNS DB=>MWB, 7/21 05:00:00
 System Sizing Information, SYS_3_PSZ DU_BT=PENITENTIARY_ST=WHOLEBUILDING_FL=STORY 3_SCHH, Heating, Sensible, 87367.17, 0.95250, 0.95250, FORT MCMURRAY AP ANN HTG 99.6% CONDNS DB, 1/21 00:10:00
 System Sizing Information, SYS_4_PSZ_ALL_ST=AUTOMOTIVE - REPAIR_FL=STORY 2_SCH=E, Cooling, Sensible, 55729.67, 3.17500, 3.17500, FORT MCMURRAY AP ANN CLG .4% CONDNS DB=>MWB, 7/21 05:00:00
 System Sizing Information, SYS_4_PSZ_ALL_ST=AUTOMOTIVE - REPAIR_FL=STORY 2_SCH=E, Heating, Sensible, 291223.91, 3.17500, 3.17500, FORT MCMURRAY AP ANN HTG 99.6% CONDNS DB, 1/21 00:10:00
 System Sizing Information, SYS_4_PSZ_ALL_ST=WHOLEBUILDING_FL=STORY 4_SCH=H, Cooling, Sensible, 67992.56, 5.00665, 5.00665, FORT MCMURRAY AP ANN CLG .4% CONDNS DB=>MWB, 7/21 05:00:00
 System Sizing Information, SYS_4_PSZ_ALL_ST=WHOLEBUILDING_FL=STORY 4_SCH=H, Heating, Sensible, 102339.53, 2.04762, 2.04762, FORT MCMURRAY AP ANN HTG 99.6% CONDNS DB, 1/21 09:00:00
 System Sizing Information, SYS_4_PSZ_WILD_ST=CORR. < 2.4M WIDE-SCH-A_FL=STORY 2_SCH=C, Cooling, Sensible, 38358.69, 2.76185, 2.76185, FORT MCMURRAY AP ANN CLG .4% CONDNS DB=>MWB, 7/21 05:00:00
 System Sizing Information, SYS_4_PSZ_WILD_ST=CORR. < 2.4M WIDE-SCH-A_FL=STORY 2_SCH=C, Heating, Sensible, 60422.42, 0.89293, 0.89293, FORT MCMURRAY AP ANN HTG 99.6% CONDNS DB, 1/21 09:00:00
 System Sizing Information, SYS_6_VAV WITH REHEAT, Cooling, Sensible, 93271.56, 6.58128, 6.58128, FORT MCMURRAY AP ANN CLG .4% CONDNS DB=>MWB, 7/21 00:00:00
 System Sizing Information, SYS_6_VAV WITH REHEAT, Heating, Sensible, 171852.99, 3.00990, 3.00990, FORT MCMURRAY AP ANN HTG 99.6% CONDNS DB, 1/21 00:10:00
 System Sizing Information, SYS_6_VAV WITH REHEAT 1, Cooling, Sensible, 57137.45, 4.46120, 4.46120, FORT MCMURRAY AP ANN CLG .4% CONDNS DB=>MWB, 7/21 00:00:00
 System Sizing Information, SYS_6_VAV WITH REHEAT 1, Heating, Sensible, 80488.11, 1.40970, 1.40970, FORT MCMURRAY AP ANN HTG 99.6% CONDNS DB, 1/21 00:10:00
 System Sizing Information, SYS_6_VAV WITH REHEAT 2, Cooling, Sensible, 64812.33, 4.83898, 4.83898, FORT MCMURRAY AP ANN CLG .4% CONDNS DB=>MWB, 7/21 00:00:00
 System Sizing Information, SYS_6_VAV WITH REHEAT 2, Heating, Sensible, 10937.10, 2.72042, 2.72042, FORT MCMURRAY AP ANN HTG 99.6% CONDNS DB, 1/21 21:50:00
! <Component Sizing Information>, Component Type, Component Name, Input Field Description, Value
 Component Sizing Information, AirTerminal:SingleDuct:VAV:Reheat, AIR TERMINAL SINGLE DUCT VAV REHEAT 5, Design Size Maximum Air Flow Rate [m3/s], 4.83898
 Component Sizing Information, AirTerminal:SingleDuct:VAV:Reheat, AIR TERMINAL SINGLE DUCT VAV REHEAT 5, Design Size Constant Minimum Air Flow Fraction, 0.29526
 Component Sizing Information, AirTerminal:SingleDuct:VAV:Reheat, AIR TERMINAL SINGLE DUCT VAV REHEAT 5, User-Specified Constant Minimum Air Flow Fraction, 0.30000
 Component Sizing Information, AirTerminal:SingleDuct:VAV:Reheat, AIR TERMINAL SINGLE DUCT VAV REHEAT 5, Design Size Minimum Air Flow Rate [m3/s], 1.45169
 Component Sizing Information, AirTerminal:SingleDuct:VAV:Reheat, AIR TERMINAL SINGLE DUCT VAV REHEAT 5, Design Size Maximum Flow per Zone Floor Area during Reheat [m3/s-m2], 7.74237E-004
 Component Sizing Information, AirTerminal:SingleDuct:VAV:Reheat, AIR TERMINAL SINGLE DUCT VAV REHEAT 5, Design Size Maximum Flow Fraction during Reheat [], 0.30000
 Component Sizing Information, AirTerminal:SingleDuct:VAV:Reheat, AIR TERMINAL SINGLE DUCT VAV REHEAT 5, Design Size Maximum Reheat Water Flow Rate [m3/s], 1.46765E-003
 Component Sizing Information, AirTerminal:SingleDuct:VAV:Reheat, AIR TERMINAL SINGLE DUCT VAV REHEAT 5, Design Size Reheat Coil Sizing Air Volume Flow Rate [m3/s], 2.72042
 Component Sizing Information, AirTerminal:SingleDuct:VAV:Reheat, AIR TERMINAL SINGLE DUCT VAV REHEAT 5, Design Size Reheat Coil Sizing Inlet Air Temperature [C], 13.10000
 Component Sizing Information, AirTerminal:SingleDuct:VAV:Reheat, AIR TERMINAL SINGLE DUCT VAV REHEAT 5, Design Size Reheat Coil Sizing Inlet Air Humidity Ratio [kgWater/kgDryAir], 8.00000E-003
 Component Sizing Information, Coil:Heating:Water, COIL HEATING WATER 8, Design Size Rated Capacity [W], 98263.48900
 Component Sizing Information, Coil:Heating:Water, COIL HEATING WATER 8, Design Size Maximum Water Flow Rate [m3/s], 1.46765E-003
 Component Sizing Information, Coil:Heating:Water, COIL HEATING WATER 8, Design Size U-Factor Times Area Value [W/K], 2239.31007
! <Water Heating Coil Capacity Information>,Component Type,Name,Nominal Total Capacity {W}
Water Heating Coil Capacity Information,Coil:Heating:Water,COIL HEATING WATER 8,74981.42
 Component Sizing Information, ZoneHVAC:Baseboard:Convective:Water, ZONE HVAC BASEBOARD CONVECTIVE WATER 20, Design Size Maximum Water Flow Rate [m3/s], 1.01861E-003
 Component Sizing Information, ZoneHVAC:Baseboard:Convective:Water, ZONE HVAC BASEBOARD CONVECTIVE WATER 20, Design Size U-Factor Times Area Value [W/K], 2078.90794
 Component Sizing Information, AirTerminal:SingleDuct:VAV:Reheat, AIR TERMINAL SINGLE DUCT VAV REHEAT 1, Design Size Maximum Air Flow Rate [m3/s], 1.43168
 Component Sizing Information, AirTerminal:SingleDuct:VAV:Reheat, AIR TERMINAL SINGLE DUCT VAV REHEAT 1, Design Size Constant Minimum Air Flow Fraction, 0.99796
 Component Sizing Information, AirTerminal:SingleDuct:VAV:Reheat, AIR TERMINAL SINGLE DUCT VAV REHEAT 1, User-Specified Constant Minimum Air Flow Fraction, 0.30000
 Component Sizing Information, AirTerminal:SingleDuct:VAV:Reheat, AIR TERMINAL SINGLE DUCT VAV REHEAT 1, Design Size Minimum Air Flow Rate [m3/s], 0.42950
 Component Sizing Information, AirTerminal:SingleDuct:VAV:Reheat, AIR TERMINAL SINGLE DUCT VAV REHEAT 1, Design Size Maximum Flow per Zone Floor Area during Reheat [m3/s-m2], 2.29068E-004
 Component Sizing Information, AirTerminal:SingleDuct:VAV:Reheat, AIR TERMINAL SINGLE DUCT VAV REHEAT 1, Design Size Maximum Flow Fraction during Reheat [], 0.30000
 Component Sizing Information, AirTerminal:SingleDuct:VAV:Reheat, AIR TERMINAL SINGLE DUCT VAV REHEAT 1, Design Size Maximum Reheat Water Flow Rate [m3/s], 6.82385E-005
 Component Sizing Information, AirTerminal:SingleDuct:VAV:Reheat, AIR TERMINAL SINGLE DUCT VAV REHEAT 1, Design Size Reheat Coil Sizing Air Volume Flow Rate [m3/s], 0.42950
 Component Sizing Information, AirTerminal:SingleDuct:VAV:Reheat, AIR TERMINAL SINGLE DUCT VAV REHEAT 1, Design Size Reheat Coil Sizing Inlet Air Temperature [C], 13.10000
 Component Sizing Information, AirTerminal:SingleDuct:VAV:Reheat, AIR TERMINAL SINGLE DUCT VAV REHEAT 1, Design Size Reheat Coil Sizing Inlet Air Humidity Ratio [kgWater/kgDryAir], 8.00000E-003
 Component Sizing Information, Coil:Heating:Water, COIL HEATING WATER 2, Design Size Rated Capacity [W], 4568.78175
 Component Sizing Information, Coil:Heating:Water, COIL HEATING WATER 2, Design Size Maximum Water Flow Rate [m3/s], 6.82385E-005
 Component Sizing Information, Coil:Heating:Water, COIL HEATING WATER 2, Design Size U-Factor Times Area Value [W/K], 82.37665
Water Heating Coil Capacity Information,Coil:Heating:Water,COIL HEATING WATER 2,4283.87
 Component Sizing Information, ZoneHVAC:Baseboard:Convective:Water, ZONE HVAC BASEBOARD CONVECTIVE WATER 16, Design Size Maximum Water Flow Rate [m3/s], 0.00000
 Component Sizing Information, ZoneHVAC:Baseboard:Convective:Water, ZONE HVAC BASEBOARD CONVECTIVE WATER 16, Design Size U-Factor Times Area Value [W/K], 0.00000
 Component Sizing Information, AirTerminal:SingleDuct:Uncontrolled, AIR TERMINAL SINGLE DUCT UNCONTROLLED 9, Design Size Maximum Air Flow Rate [m3/s], 10.28700
 Component Sizing Information, ZoneHVAC:Baseboard:Convective:Water, ZONE HVAC BASEBOARD CONVECTIVE WATER 9, Design Size Maximum Water Flow Rate [m3/s], 0.00000
 Component Sizing Information, ZoneHVAC:Baseboard:Convective:Water, ZONE HVAC BASEBOARD CONVECTIVE WATER 9, Design Size U-Factor Times Area Value [W/K], 0.00000
 Component Sizing Information, AirTerminal:SingleDuct:Uncontrolled, AIR TERMINAL SINGLE DUCT UNCONTROLLED 10, Design Size Maximum Air Flow Rate [m3/s], 7.71525
 Component Sizing Information, ZoneHVAC:Baseboard:Convective:Water, ZONE HVAC BASEBOARD CONVECTIVE WATER 10, Design Size Maximum Water Flow Rate [m3/s], 4.45274E-005
 Component Sizing Information, ZoneHVAC:Baseboard:Convective:Water, ZONE HVAC BASEBOARD CONVECTIVE WATER 10, Design Size U-Factor Times Area Value [W/K], 57.83669
 Component Sizing Information, AirTerminal:SingleDuct:Uncontrolled, AIR TERMINAL SINGLE DUCT UNCONTROLLED 11, Design Size Maximum Air Flow Rate [m3/s], 7.71525
 Component Sizing Information, ZoneHVAC:Baseboard:Convective:Water, ZONE HVAC BASEBOARD CONVECTIVE WATER 11, Design Size Maximum Water Flow Rate [m3/s], 0.00000
 Component Sizing Information, ZoneHVAC:Baseboard:Convective:Water, ZONE HVAC BASEBOARD CONVECTIVE WATER 11, Design Size U-Factor Times Area Value [W/K], 0.00000
 Component Sizing Information, AirTerminal:SingleDuct:Uncontrolled, AIR TERMINAL SINGLE DUCT UNCONTROLLED 4, Design Size Maximum Air Flow Rate [m3/s], 3.17500
 Component Sizing Information, ZoneHVAC:Baseboard:Convective:Water, ZONE HVAC BASEBOARD CONVECTIVE WATER 4, Design Size Maximum Water Flow Rate [m3/s], 0.00000
 Component Sizing Information, ZoneHVAC:Baseboard:Convective:Water, ZONE HVAC BASEBOARD CONVECTIVE WATER 4, Design Size U-Factor Times Area Value [W/K], 0.00000
 Component Sizing Information, AirTerminal:SingleDuct:VAV:Reheat, AIR TERMINAL SINGLE DUCT VAV REHEAT 2, Design Size Maximum Air Flow Rate [m3/s], 2.72110
 Component Sizing Information, AirTerminal:SingleDuct:VAV:Reheat, AIR TERMINAL SINGLE DUCT VAV REHEAT 2, Design Size Constant Minimum Air Flow Fraction, 0.52506
 Component Sizing Information, AirTerminal:SingleDuct:VAV:Reheat, AIR TERMINAL SINGLE DUCT VAV REHEAT 2, User-Specified Constant Minimum Air Flow Fraction, 0.30000
 Component Sizing Information, AirTerminal:SingleDuct:VAV:Reheat, AIR TERMINAL SINGLE DUCT VAV REHEAT 2, Design Size Minimum Air Flow Rate [m3/s], 0.81633
 Component Sizing Information, AirTerminal:SingleDuct:VAV:Reheat, AIR TERMINAL SINGLE DUCT VAV REHEAT 2, Design Size Maximum Flow per Zone Floor Area during Reheat [m3/s-m2], 4.35376E-004
 Component Sizing Information, AirTerminal:SingleDuct:VAV:Reheat, AIR TERMINAL SINGLE DUCT VAV REHEAT 2, Design Size Maximum Flow Fraction during Reheat [], 0.30000
 Component Sizing Information, AirTerminal:SingleDuct:VAV:Reheat, AIR TERMINAL SINGLE DUCT VAV REHEAT 2, Design Size Maximum Reheat Water Flow Rate [m3/s], 1.29697E-004
 Component Sizing Information, AirTerminal:SingleDuct:VAV:Reheat, AIR TERMINAL SINGLE DUCT VAV REHEAT 2, Design Size Reheat Coil Sizing Air Volume Flow Rate [m3/s], 0.81633
 Component Sizing Information, AirTerminal:SingleDuct:VAV:Reheat, AIR TERMINAL SINGLE DUCT VAV REHEAT 2, Design Size Reheat Coil Sizing Inlet Air Temperature [C], 13.10000
 Component Sizing Information, AirTerminal:SingleDuct:VAV:Reheat, AIR TERMINAL SINGLE DUCT VAV REHEAT 2, Design Size Reheat Coil Sizing Inlet Air Humidity Ratio [kgWater/kgDryAir], 8.00000E-003
 Component Sizing Information, Coil:Heating:Water, COIL HEATING WATER 3, Design Size Rated Capacity [W], 8683.61591
 Component Sizing Information, Coil:Heating:Water, COIL HEATING WATER 3, Design Size Maximum Water Flow Rate [m3/s], 1.29697E-004
 Component Sizing Information, Coil:Heating:Water, COIL HEATING WATER 3, Design Size U-Factor Times Area Value [W/K], 156.56848
Water Heating Coil Capacity Information,Coil:Heating:Water,COIL HEATING WATER 3,8142.09
 Component Sizing Information, ZoneHVAC:Baseboard:Convective:Water, ZONE HVAC BASEBOARD CONVECTIVE WATER 17, Design Size Maximum Water Flow Rate [m3/s], 0.00000
 Component Sizing Information, ZoneHVAC:Baseboard:Convective:Water, ZONE HVAC BASEBOARD CONVECTIVE WATER 17, Design Size U-Factor Times Area Value [W/K], 0.00000
 Component Sizing Information, AirTerminal:SingleDuct:Uncontrolled, AIR TERMINAL SINGLE DUCT UNCONTROLLED 12, Design Size Maximum Air Flow Rate [m3/s], 8.29212
 Component Sizing Information, ZoneHVAC:Baseboard:Convective:Water, ZONE HVAC BASEBOARD CONVECTIVE WATER 12, Design Size Maximum Water Flow Rate [m3/s], 7.79573E-004
 Component Sizing Information, ZoneHVAC:Baseboard:Convective:Water, ZONE HVAC BASEBOARD CONVECTIVE WATER 12, Design Size U-Factor Times Area Value [W/K], 1594.56178
 Component Sizing Information, AirTerminal:SingleDuct:Uncontrolled, AIR TERMINAL SINGLE DUCT UNCONTROLLED 13, Design Size Maximum Air Flow Rate [m3/s], 4.86203
 Component Sizing Information, ZoneHVAC:Baseboard:Convective:Water, ZONE HVAC BASEBOARD CONVECTIVE WATER 13, Design Size Maximum Water Flow Rate [m3/s], 8.40276E-005
 Component Sizing Information, ZoneHVAC:Baseboard:Convective:Water, ZONE HVAC BASEBOARD CONVECTIVE WATER 13, Design Size U-Factor Times Area Value [W/K], 108.97716
 Component Sizing Information, AirTerminal:SingleDuct:Uncontrolled, AIR TERMINAL SINGLE DUCT UNCONTROLLED 14, Design Size Maximum Air Flow Rate [m3/s], 7.71525
 Component Sizing Information, ZoneHVAC:Baseboard:Convective:Water, ZONE HVAC BASEBOARD CONVECTIVE WATER 14, Design Size Maximum Water Flow Rate [m3/s], 3.37484E-004
 Component Sizing Information, ZoneHVAC:Baseboard:Convective:Water, ZONE HVAC BASEBOARD CONVECTIVE WATER 14, Design Size U-Factor Times Area Value [W/K], 684.76463
 Component Sizing Information, AirTerminal:SingleDuct:Uncontrolled, AIR TERMINAL SINGLE DUCT UNCONTROLLED 15, Design Size Maximum Air Flow Rate [m3/s], 3.83990
 Component Sizing Information, ZoneHVAC:Baseboard:Convective:Water, ZONE HVAC BASEBOARD CONVECTIVE WATER 15, Design Size Maximum Water Flow Rate [m3/s], 1.18532E-004
 Component Sizing Information, ZoneHVAC:Baseboard:Convective:Water, ZONE HVAC BASEBOARD CONVECTIVE WATER 15, Design Size U-Factor Times Area Value [W/K], 153.53880
 Component Sizing Information, AirTerminal:SingleDuct:VAV:Reheat, AIR TERMINAL SINGLE DUCT VAV REHEAT 3, Design Size Maximum Air Flow Rate [m3/s], 2.42851
 Component Sizing Information, AirTerminal:SingleDuct:VAV:Reheat, AIR TERMINAL SINGLE DUCT VAV REHEAT 3, Design Size Constant Minimum Air Flow Fraction, 0.58832
 Component Sizing Information, AirTerminal:SingleDuct:VAV:Reheat, AIR TERMINAL SINGLE DUCT VAV REHEAT 3, User-Specified Constant Minimum Air Flow Fraction, 0.30000
 Component Sizing Information, AirTerminal:SingleDuct:VAV:Reheat, AIR TERMINAL SINGLE DUCT VAV REHEAT 3, Design Size Minimum Air Flow Rate [m3/s], 0.72855
 Component Sizing Information, AirTerminal:SingleDuct:VAV:Reheat, AIR TERMINAL SINGLE DUCT VAV REHEAT 3, Design Size Maximum Flow per Zone Floor Area during Reheat [m3/s-m2], 3.88561E-004
 Component Sizing Information, AirTerminal:SingleDuct:VAV:Reheat, AIR TERMINAL SINGLE DUCT VAV REHEAT 3, Design Size Maximum Flow Fraction during Reheat [], 0.30000
 Component Sizing Information, AirTerminal:SingleDuct:VAV:Reheat, AIR TERMINAL SINGLE DUCT VAV REHEAT 3, Design Size Maximum Reheat Water Flow Rate [m3/s], 1.15751E-004
 Component Sizing Information, AirTerminal:SingleDuct:VAV:Reheat, AIR TERMINAL SINGLE DUCT VAV REHEAT 3, Design Size Reheat Coil Sizing Air Volume Flow Rate [m3/s], 0.72855
 Component Sizing Information, AirTerminal:SingleDuct:VAV:Reheat, AIR TERMINAL SINGLE DUCT VAV REHEAT 3, Design Size Reheat Coil Sizing Inlet Air Temperature [C], 13.10000
 Component Sizing Information, AirTerminal:SingleDuct:VAV:Reheat, AIR TERMINAL SINGLE DUCT VAV REHEAT 3, Design Size Reheat Coil Sizing Inlet Air Humidity Ratio [kgWater/kgDryAir], 8.00000E-003
 Component Sizing Information, Coil:Heating:Water, COIL HEATING WATER 4, Design Size Rated Capacity [W], 7749.87367
 Component Sizing Information, Coil:Heating:Water, COIL HEATING WATER 4, Design Size Maximum Water Flow Rate [m3/s], 1.15751E-004
 Component Sizing Information, Coil:Heating:Water, COIL HEATING WATER 4, Design Size U-Factor Times Area Value [W/K], 139.73280
Water Heating Coil Capacity Information,Coil:Heating:Water,COIL HEATING WATER 4,7266.58
 Component Sizing Information, ZoneHVAC:Baseboard:Convective:Water, ZONE HVAC BASEBOARD CONVECTIVE WATER 18, Design Size Maximum Water Flow Rate [m3/s], 0.00000
 Component Sizing Information, ZoneHVAC:Baseboard:Convective:Water, ZONE HVAC BASEBOARD CONVECTIVE WATER 18, Design Size U-Factor Times Area Value [W/K], 0.00000
 Component Sizing Information, AirTerminal:SingleDuct:VAV:Reheat, AIR TERMINAL SINGLE DUCT VAV REHEAT 4, Design Size Maximum Air Flow Rate [m3/s], 4.46120
 Component Sizing Information, AirTerminal:SingleDuct:VAV:Reheat, AIR TERMINAL SINGLE DUCT VAV REHEAT 4, Design Size Constant Minimum Air Flow Fraction, 0.32026
 Component Sizing Information, AirTerminal:SingleDuct:VAV:Reheat, AIR TERMINAL SINGLE DUCT VAV REHEAT 4, User-Specified Constant Minimum Air Flow Fraction, 0.30000
 Component Sizing Information, AirTerminal:SingleDuct:VAV:Reheat, AIR TERMINAL SINGLE DUCT VAV REHEAT 4, Design Size Minimum Air Flow Rate [m3/s], 1.33836
 Component Sizing Information, AirTerminal:SingleDuct:VAV:Reheat, AIR TERMINAL SINGLE DUCT VAV REHEAT 4, Design Size Maximum Flow per Zone Floor Area during Reheat [m3/s-m2], 7.13791E-004
 Component Sizing Information, AirTerminal:SingleDuct:VAV:Reheat, AIR TERMINAL SINGLE DUCT VAV REHEAT 4, Design Size Maximum Flow Fraction during Reheat [], 0.30000
 Component Sizing Information, AirTerminal:SingleDuct:VAV:Reheat, AIR TERMINAL SINGLE DUCT VAV REHEAT 4, Design Size Maximum Reheat Water Flow Rate [m3/s], 6.04679E-004
 Component Sizing Information, AirTerminal:SingleDuct:VAV:Reheat, AIR TERMINAL SINGLE DUCT VAV REHEAT 4, Design Size Reheat Coil Sizing Air Volume Flow Rate [m3/s], 1.33836
 Component Sizing Information, AirTerminal:SingleDuct:VAV:Reheat, AIR TERMINAL SINGLE DUCT VAV REHEAT 4, Design Size Reheat Coil Sizing Inlet Air Temperature [C], 13.10000
 Component Sizing Information, AirTerminal:SingleDuct:VAV:Reheat, AIR TERMINAL SINGLE DUCT VAV REHEAT 4, Design Size Reheat Coil Sizing Inlet Air Humidity Ratio [kgWater/kgDryAir], 8.00000E-003
 Component Sizing Information, Coil:Heating:Water, COIL HEATING WATER 6, Design Size Rated Capacity [W], 40485.15033
 Component Sizing Information, Coil:Heating:Water, COIL HEATING WATER 6, Design Size Maximum Water Flow Rate [m3/s], 6.04679E-004
 Component Sizing Information, Coil:Heating:Water, COIL HEATING WATER 6, Design Size U-Factor Times Area Value [W/K], 872.82598
Water Heating Coil Capacity Information,Coil:Heating:Water,COIL HEATING WATER 6,37973.06
 Component Sizing Information, ZoneHVAC:Baseboard:Convective:Water, ZONE HVAC BASEBOARD CONVECTIVE WATER 19, Design Size Maximum Water Flow Rate [m3/s], 3.83159E-004
 Component Sizing Information, ZoneHVAC:Baseboard:Convective:Water, ZONE HVAC BASEBOARD CONVECTIVE WATER 19, Design Size U-Factor Times Area Value [W/K], 776.90121
 Component Sizing Information, AirTerminal:SingleDuct:Uncontrolled, AIR TERMINAL SINGLE DUCT UNCONTROLLED 6, Design Size Maximum Air Flow Rate [m3/s], 4.37797
 Component Sizing Information, ZoneHVAC:Baseboard:Convective:Water, ZONE HVAC BASEBOARD CONVECTIVE WATER 6, Design Size Maximum Water Flow Rate [m3/s], 0.00000
 Component Sizing Information, ZoneHVAC:Baseboard:Convective:Water, ZONE HVAC BASEBOARD CONVECTIVE WATER 6, Design Size U-Factor Times Area Value [W/K], 0.00000
 Component Sizing Information, AirTerminal:SingleDuct:Uncontrolled, AIR TERMINAL SINGLE DUCT UNCONTROLLED 7, Design Size Maximum Air Flow Rate [m3/s], 3.85349
 Component Sizing Information, ZoneHVAC:Baseboard:Convective:Water, ZONE HVAC BASEBOARD CONVECTIVE WATER 7, Design Size Maximum Water Flow Rate [m3/s], 4.22971E-004
 Component Sizing Information, ZoneHVAC:Baseboard:Convective:Water, ZONE HVAC BASEBOARD CONVECTIVE WATER 7, Design Size U-Factor Times Area Value [W/K], 859.31428
 Component Sizing Information, AirTerminal:SingleDuct:Uncontrolled, AIR TERMINAL SINGLE DUCT UNCONTROLLED 5, Design Size Maximum Air Flow Rate [m3/s], 7.59059
 Component Sizing Information, ZoneHVAC:Baseboard:Convective:Water, ZONE HVAC BASEBOARD CONVECTIVE WATER 5, Design Size Maximum Water Flow Rate [m3/s], 8.84189E-004
 Component Sizing Information, ZoneHVAC:Baseboard:Convective:Water, ZONE HVAC BASEBOARD CONVECTIVE WATER 5, Design Size U-Factor Times Area Value [W/K], 1395.92699
 Component Sizing Information, AirTerminal:SingleDuct:Uncontrolled, AIR TERMINAL SINGLE DUCT UNCONTROLLED 8, Design Size Maximum Air Flow Rate [m3/s], 7.33877
 Component Sizing Information, ZoneHVAC:Baseboard:Convective:Water, ZONE HVAC BASEBOARD CONVECTIVE WATER 8, Design Size Maximum Water Flow Rate [m3/s], 8.85686E-004
 Component Sizing Information, ZoneHVAC:Baseboard:Convective:Water, ZONE HVAC BASEBOARD CONVECTIVE WATER 8, Design Size U-Factor Times Area Value [W/K], 1810.79157
 Component Sizing Information, AirTerminal:SingleDuct:Uncontrolled, AIR TERMINAL SINGLE DUCT UNCONTROLLED 3, Design Size Maximum Air Flow Rate [m3/s], 5.00665
 Component Sizing Information, ZoneHVAC:Baseboard:Convective:Water, ZONE HVAC BASEBOARD CONVECTIVE WATER 3, Design Size Maximum Water Flow Rate [m3/s], 7.74740E-004
 Component Sizing Information, ZoneHVAC:Baseboard:Convective:Water, ZONE HVAC BASEBOARD CONVECTIVE WATER 3, Design Size U-Factor Times Area Value [W/K], 1582.44960
 Component Sizing Information, AirTerminal:SingleDuct:Uncontrolled, AIR TERMINAL SINGLE DUCT UNCONTROLLED 1, Design Size Maximum Air Flow Rate [m3/s], 3.32276
 Component Sizing Information, ZoneHVAC:Baseboard:Convective:Water, ZONE HVAC BASEBOARD CONVECTIVE WATER 1, Design Size Maximum Water Flow Rate [m3/s], 0.00000
 Component Sizing Information, ZoneHVAC:Baseboard:Convective:Water, ZONE HVAC BASEBOARD CONVECTIVE WATER 1, Design Size U-Factor Times Area Value [W/K], 0.00000
 Component Sizing Information, AirTerminal:SingleDuct:Uncontrolled, AIR TERMINAL SINGLE DUCT UNCONTROLLED 2, Design Size Maximum Air Flow Rate [m3/s], 2.76185
 Component Sizing Information, ZoneHVAC:Baseboard:Convective:Water, ZONE HVAC BASEBOARD CONVECTIVE WATER 2, Design Size Maximum Water Flow Rate [m3/s], 3.43771E-004
 Component Sizing Information, ZoneHVAC:Baseboard:Convective:Water, ZONE HVAC BASEBOARD CONVECTIVE WATER 2, Design Size U-Factor Times Area Value [W/K], 704.40826
 Component Sizing Information, AirLoopHVAC, SYS_3_PSZ ALL_ST=AUDIENCE - AUDITORIUM_FL=STORY 1_SCH=C, Sum of Air Terminal Maximum Heating Flow Rates [m3/s], 10.28700
 Component Sizing Information, AirLoopHVAC, SYS_3_PSZ ALL_ST=AUDIENCE - AUDITORIUM_FL=STORY 1_SCH=C, Sum of Air Terminal Minimum Heating Flow Rates [m3/s], 10.28700
 Component Sizing Information, AirLoopHVAC, SYS_3_PSZ ALL_ST=AUDIENCE - AUDITORIUM_FL=STORY 1_SCH=C, Sum of Air Terminal Maximum Flow Rates [m3/s], 10.28700
 Component Sizing Information, AirLoopHVAC, SYS_3_PSZ ALL_ST=AUDIENCE - AUDITORIUM_FL=STORY 1_SCH=C, Adjusted Heating Design Air Flow Rate [m3/s], 10.28700
 Component Sizing Information, AirLoopHVAC, SYS_3_PSZ ALL_ST=AUDIENCE - AUDITORIUM_FL=STORY 1_SCH=C, Adjusted Cooling Design Air Flow Rate [m3/s], 10.28700
[...]
 Component Sizing Information, Coil:Cooling:DX:SingleSpeed, COIL COOLING DX SINGLE SPEED 3 283KBTU/HR 8.21EER, Design Size Gross Rated Sensible Heat Ratio, 0.80066
 DX Cooling Coil Standard Rating Information, Coil:Cooling:DX:SingleSpeed, COIL COOLING DX SINGLE SPEED 3 283KBTU/HR 8.21EER, 78986.1, 2.48, 8.45, 8.93, 8.53
 Component Sizing Information, Coil:Heating:Fuel, COIL HEATING GAS 3, Design Size Nominal Capacity [W], 175055.40333
 Component Sizing Information, Fan:ConstantVolume, FAN CONSTANT VOLUME 3, Design Size Maximum Flow Rate [m3/s], 5.00665
 Component Sizing Information, Controller:OutdoorAir, CONTROLLER OUTDOOR AIR 2, Maximum Outdoor Air Flow Rate [m3/s], 2.76185
 Component Sizing Information, Controller:OutdoorAir, CONTROLLER OUTDOOR AIR 2, Minimum Outdoor Air Flow Rate [m3/s], 0.57150
 Component Sizing Information, Coil:Cooling:DX:SingleSpeed, COIL COOLING DX SINGLE SPEED 2 156KBTU/HR 9.7EER, Design Size Rated Air Flow Rate [m3/s], 2.76185
 Component Sizing Information, Coil:Cooling:DX:SingleSpeed, COIL COOLING DX SINGLE SPEED 2 156KBTU/HR 9.7EER, Design Size Gross Rated Total Cooling Capacity [W], 45718.34494
 Component Sizing Information, Coil:Cooling:DX:SingleSpeed, COIL COOLING DX SINGLE SPEED 2 156KBTU/HR 9.7EER, Design Size Gross Rated Sensible Heat Ratio, 0.80066
 DX Cooling Coil Standard Rating Information, Coil:Cooling:DX:SingleSpeed, COIL COOLING DX SINGLE SPEED 2 156KBTU/HR 9.7EER, 43571.5, 2.79, 9.54, 10.06, 9.50
 Component Sizing Information, Coil:Heating:Fuel, COIL HEATING GAS 2, Design Size Nominal Capacity [W], 106950.41364
 Component Sizing Information, Fan:ConstantVolume, FAN CONSTANT VOLUME 2, Design Size Maximum Flow Rate [m3/s], 2.76185
 Component Sizing Information, Fan:VariableVolume, SYS6 RETURN FAN, Design Size Maximum Flow Rate [m3/s], 6.58128
 Component Sizing Information, Controller:OutdoorAir, CONTROLLER OUTDOOR AIR 16, Maximum Outdoor Air Flow Rate [m3/s], 6.58128
 Component Sizing Information, Controller:OutdoorAir, CONTROLLER OUTDOOR AIR 16, Minimum Outdoor Air Flow Rate [m3/s], 3.00990
 Component Sizing Information, HeatExchanger:AirToAir:SensibleAndLatent, SYS_6_VAV WITH REHEAT ERV, Design Size Nominal Supply Air Flow Rate [m3/s], 3.00990
 Component Sizing Information, Coil:Cooling:Water, COIL COOLING WATER 1, Design Size Design Coil Load [W], 121092.00695
 Component Sizing Information, Coil:Cooling:Water, COIL COOLING WATER 1, Design Size Design Water Flow Rate [m3/s], 4.80802E-003
 Component Sizing Information, Coil:Cooling:Water, COIL COOLING WATER 1, Design Size Design Air Flow Rate [m3/s], 6.58128
 Component Sizing Information, Coil:Cooling:Water, COIL COOLING WATER 1, Design Size Design Inlet Air Temperature [C], 25.23716
 Component Sizing Information, Coil:Cooling:Water, COIL COOLING WATER 1, Design Size Design Inlet Water Temperature [C], 7.00000
 Component Sizing Information, Coil:Cooling:Water, COIL COOLING WATER 1, Design Size Design Outlet Air Temperature [C], 13.00000
 Component Sizing Information, Coil:Cooling:Water, COIL COOLING WATER 1, Design Size Design Inlet Air Humidity Ratio, 9.09052E-003
 Component Sizing Information, Coil:Cooling:Water, COIL COOLING WATER 1, Design Size Design Outlet Air Humidity Ratio, 8.76847E-003
! <Water Cooling Coil Capacity Information>,Component Type,Name,Nominal Total Capacity {W},Nominal Sensible Capacity {W},Nominal Latent Capacity {W},Nominal Sensible Heat Ratio, Nominal Coil UA Value {W/C}, Nominal Coil Surface Area {m2}
Water Cooling Coil Capacity Information,Coil:Cooling:Water,COIL COOLING WATER 1,153008.52,106274.80,46733.72,0.69,16906.47,171.47
 Component Sizing Information, Coil:Heating:Water, COIL HEATING WATER 1, Design Size Rated Capacity [W], 112729.33294
 Component Sizing Information, Coil:Heating:Water, COIL HEATING WATER 1, Design Size Maximum Water Flow Rate [m3/s], 1.68370E-003
 Component Sizing Information, Coil:Heating:Water, COIL HEATING WATER 1, Design Size U-Factor Times Area Value [W/K], 1375.62840
Water Heating Coil Capacity Information,Coil:Heating:Water,COIL HEATING WATER 1,62807.68
 Component Sizing Information, Fan:VariableVolume, SYS6 SUPPLY FAN, Design Size Maximum Flow Rate [m3/s], 6.58128
 Component Sizing Information, Controller:WaterCoil, CONTROLLER WATER COIL 2, Maximum Actuated Flow [m3/s], 4.80802E-003
 Component Sizing Information, Controller:WaterCoil, CONTROLLER WATER COIL 2, Controller Convergence Tolerance, 9.90409E-005
 Component Sizing Information, Controller:WaterCoil, CONTROLLER WATER COIL 1, Maximum Actuated Flow [m3/s], 1.68370E-003
 Component Sizing Information, Fan:VariableVolume, SYS6 RETURN FAN 1, Design Size Maximum Flow Rate [m3/s], 4.46120
 Component Sizing Information, Controller:OutdoorAir, CONTROLLER OUTDOOR AIR 17, Maximum Outdoor Air Flow Rate [m3/s], 4.46120
 Component Sizing Information, Controller:OutdoorAir, CONTROLLER OUTDOOR AIR 17, Minimum Outdoor Air Flow Rate [m3/s], 1.40970
 Component Sizing Information, Coil:Cooling:Water, COIL COOLING WATER 2, Design Size Design Coil Load [W], 72647.72851
 Component Sizing Information, Coil:Cooling:Water, COIL COOLING WATER 2, Design Size Design Water Flow Rate [m3/s], 2.88451E-003
 Component Sizing Information, Coil:Cooling:Water, COIL COOLING WATER 2, Design Size Design Air Flow Rate [m3/s], 4.46120
 Component Sizing Information, Coil:Cooling:Water, COIL COOLING WATER 2, Design Size Design Inlet Air Temperature [C], 24.05889
 Component Sizing Information, Coil:Cooling:Water, COIL COOLING WATER 2, Design Size Design Inlet Water Temperature [C], 7.00000
 Component Sizing Information, Coil:Cooling:Water, COIL COOLING WATER 2, Design Size Design Outlet Air Temperature [C], 13.00000
 Component Sizing Information, Coil:Cooling:Water, COIL COOLING WATER 2, Design Size Design Inlet Air Humidity Ratio, 8.80239E-003
 Component Sizing Information, Coil:Cooling:Water, COIL COOLING WATER 2, Design Size Design Outlet Air Humidity Ratio, 8.76847E-003
Water Cooling Coil Capacity Information,Coil:Cooling:Water,COIL COOLING WATER 2,98603.17,69834.89,28768.28,0.71,11099.31,112.58
 Component Sizing Information, Coil:Heating:Water, COIL HEATING WATER 5, Design Size Rated Capacity [W], 76414.81129
 Component Sizing Information, Coil:Heating:Water, COIL HEATING WATER 5, Design Size Maximum Water Flow Rate [m3/s], 1.14132E-003
 Component Sizing Information, Coil:Heating:Water, COIL HEATING WATER 5, Design Size U-Factor Times Area Value [W/K], 932.48476
Water Heating Coil Capacity Information,Coil:Heating:Water,COIL HEATING WATER 5,42574.87
 Component Sizing Information, Fan:VariableVolume, SYS6 SUPPLY FAN 1, Design Size Maximum Flow Rate [m3/s], 4.46120
 Component Sizing Information, Controller:WaterCoil, CONTROLLER WATER COIL 7, Maximum Actuated Flow [m3/s], 2.88451E-003
 Component Sizing Information, Controller:WaterCoil, CONTROLLER WATER COIL 7, Controller Convergence Tolerance, 1.65085E-004
 Component Sizing Information, Controller:WaterCoil, CONTROLLER WATER COIL 6, Maximum Actuated Flow [m3/s], 1.14132E-003
 Component Sizing Information, Fan:VariableVolume, SYS6 RETURN FAN 2, Design Size Maximum Flow Rate [m3/s], 4.83898
 Component Sizing Information, Controller:OutdoorAir, CONTROLLER OUTDOOR AIR 18, Maximum Outdoor Air Flow Rate [m3/s], 4.83898
 Component Sizing Information, Controller:OutdoorAir, CONTROLLER OUTDOOR AIR 18, Minimum Outdoor Air Flow Rate [m3/s], 0.57150
 Component Sizing Information, Coil:Cooling:Water, COIL COOLING WATER 3, Design Size Design Coil Load [W], 85850.51953
 Component Sizing Information, Coil:Cooling:Water, COIL COOLING WATER 3, Design Size Design Water Flow Rate [m3/s], 3.40874E-003
 Component Sizing Information, Coil:Cooling:Water, COIL COOLING WATER 3, Design Size Design Air Flow Rate [m3/s], 4.83898
 Component Sizing Information, Coil:Cooling:Water, COIL COOLING WATER 3, Design Size Design Inlet Air Temperature [C], 24.56500
 Component Sizing Information, Coil:Cooling:Water, COIL COOLING WATER 3, Design Size Design Inlet Water Temperature [C], 7.00000
 Component Sizing Information, Coil:Cooling:Water, COIL COOLING WATER 3, Design Size Design Outlet Air Temperature [C], 13.00000
 Component Sizing Information, Coil:Cooling:Water, COIL COOLING WATER 3, Design Size Design Inlet Air Humidity Ratio, 9.03969E-003
 Component Sizing Information, Coil:Cooling:Water, COIL COOLING WATER 3, Design Size Design Outlet Air Humidity Ratio, 8.76847E-003
Water Cooling Coil Capacity Information,Coil:Cooling:Water,COIL COOLING WATER 3,111735.89,77928.31,33807.59,0.70,12629.28,128.09
 Component Sizing Information, Coil:Heating:Water, COIL HEATING WATER 7, Design Size Rated Capacity [W], 23744.80583
 Component Sizing Information, Coil:Heating:Water, COIL HEATING WATER 7, Design Size Maximum Water Flow Rate [m3/s], 3.54648E-004
 Component Sizing Information, Coil:Heating:Water, COIL HEATING WATER 7, Design Size U-Factor Times Area Value [W/K], 367.22037
Water Heating Coil Capacity Information,Coil:Heating:Water,COIL HEATING WATER 7,18794.05
 Component Sizing Information, Fan:VariableVolume, SYS6 SUPPLY FAN 2, Design Size Maximum Flow Rate [m3/s], 4.83898
 Component Sizing Information, Controller:WaterCoil, CONTROLLER WATER COIL 10, Maximum Actuated Flow [m3/s], 3.40874E-003
 Component Sizing Information, Controller:WaterCoil, CONTROLLER WATER COIL 10, Controller Convergence Tolerance, 1.39697E-004
 Component Sizing Information, Controller:WaterCoil, CONTROLLER WATER COIL 9, Maximum Actuated Flow [m3/s], 3.54648E-004
Water Heater Information,WaterHeater:Mixed,991GAL NATURALGAS WATER HEATER - 669KBTU/HR 0.805 THERM EFF,3.7520,196045.5,0.188,0.3384
 Component Sizing Information, PlantLoop, CHILLED WATER LOOP, Maximum Loop Flow Rate [m3/s], 1.11013E-002
 Component Sizing Information, PlantLoop, CHILLED WATER LOOP, Plant Loop Volume [m3], 1.33215
 Component Sizing Information, Pump:ConstantSpeed, PUMP CONSTANT SPEED 1, Design Flow Rate [m3/s], 1.11013E-002
 Component Sizing Information, Pump:ConstantSpeed, PUMP CONSTANT SPEED 1, Design Power Consumption [W], 2852.07690
 Component Sizing Information, Chiller:Electric:EIR, PRIMARY CHILLER WATERCOOLED SCROLL 82TONS 0.8KW/TON, Design Size Reference Chilled Water Flow Rate [m3/s], 1.11013E-002
 Component Sizing Information, Chiller:Electric:EIR, PRIMARY CHILLER WATERCOOLED SCROLL 82TONS 0.8KW/TON, Design Size Reference Capacity [W], 279585.59293
 Component Sizing Information, Chiller:Electric:EIR, PRIMARY CHILLER WATERCOOLED SCROLL 82TONS 0.8KW/TON, User-Specified Reference Capacity [W], 286698.84971
 Component Sizing Information, Chiller:Electric:EIR, PRIMARY CHILLER WATERCOOLED SCROLL 82TONS 0.8KW/TON, Design Size Reference Condenser Fluid Flow Rate [m3/s], 1.39489E-002
! <Chiller Standard Rating Information>, Component Type, Component Name, IPLV in SI Units {W/W}, IPLV in IP Units {Btu/W-h}
 Chiller Standard Rating Information, Chiller:Electric:EIR, PRIMARY CHILLER WATERCOOLED SCROLL 82TONS 0.8KW/TON, 5.66, 19.31
 Component Sizing Information, Chiller:Electric:EIR, SECONDARY CHILLER WATERCOOLED SCROLL 0TONS 0.8KW/TON, Design Size Reference Chilled Water Flow Rate [m3/s], 1.11013E-002
 Component Sizing Information, Chiller:Electric:EIR, SECONDARY CHILLER WATERCOOLED SCROLL 0TONS 0.8KW/TON, Design Size Reference Capacity [W], 279585.59293
 Component Sizing Information, Chiller:Electric:EIR, SECONDARY CHILLER WATERCOOLED SCROLL 0TONS 0.8KW/TON, User-Specified Reference Capacity [W], 1.00000E-003
 Component Sizing Information, Chiller:Electric:EIR, SECONDARY CHILLER WATERCOOLED SCROLL 0TONS 0.8KW/TON, Design Size Reference Condenser Fluid Flow Rate [m3/s], 4.87330E-011
 Chiller Standard Rating Information, Chiller:Electric:EIR, SECONDARY CHILLER WATERCOOLED SCROLL 0TONS 0.8KW/TON, 5.61, 19.14
 Component Sizing Information, PlantLoop, CONDENSER WATER LOOP, Maximum Loop Flow Rate [m3/s], 1.39489E-002
 Component Sizing Information, PlantLoop, CONDENSER WATER LOOP, Plant Loop Volume [m3], 1.67387
 Component Sizing Information, Pump:ConstantSpeed, PUMP CONSTANT SPEED 2, Design Flow Rate [m3/s], 1.39489E-002
 Component Sizing Information, Pump:ConstantSpeed, PUMP CONSTANT SPEED 2, Design Power Consumption [W], 3497.70856
 Component Sizing Information, CoolingTower:SingleSpeed, COOLING TOWER SINGLE SPEED 1, Design Water Flow Rate [m3/s], 1.39489E-002
 Component Sizing Information, CoolingTower:SingleSpeed, COOLING TOWER SINGLE SPEED 1, Design Air Flow Rate [m3/s], 14.42794
 Component Sizing Information, CoolingTower:SingleSpeed, COOLING TOWER SINGLE SPEED 1, U-Factor Times Area Value at Design Air Flow Rate [W/C], 12204.99800
 Component Sizing Information, CoolingTower:SingleSpeed, COOLING TOWER SINGLE SPEED 1, Free Convection Regime Air Flow Rate [m3/s], 1.44279
 Component Sizing Information, CoolingTower:SingleSpeed, COOLING TOWER SINGLE SPEED 1, Free Convection U-Factor Times Area Value [W/K], 1220.49980
 Component Sizing Information, PlantLoop, HOT WATER LOOP, Maximum Loop Flow Rate [m3/s], 1.16429E-002
 Component Sizing Information, PlantLoop, HOT WATER LOOP, Plant Loop Volume [m3], 1.39715
 Component Sizing Information, Pump:VariableSpeed, PUMP VARIABLE SPEED 1, Design Flow Rate [m3/s], 1.16429E-002
 Component Sizing Information, Pump:VariableSpeed, PUMP VARIABLE SPEED 1, Design Power Consumption [W], 2991.24240
 Component Sizing Information, Boiler:HotWater, PRIMARY BOILER 2670KBTU/HR 0.833 COMBUSTION EFF, Design Size Nominal Capacity [W], 782549.93842
 Component Sizing Information, Boiler:HotWater, PRIMARY BOILER 2670KBTU/HR 0.833 COMBUSTION EFF, User-Specified Nominal Capacity [W], 782549.93842
 Component Sizing Information, Boiler:HotWater, PRIMARY BOILER 2670KBTU/HR 0.833 COMBUSTION EFF, Design Size Design Water Flow Rate [m3/s], 1.16429E-002
 Component Sizing Information, Boiler:HotWater, SECONDARY BOILER 0KBTU/HR 0.85 AFUE, Design Size Nominal Capacity [W], 782549.93842
 Component Sizing Information, Boiler:HotWater, SECONDARY BOILER 0KBTU/HR 0.85 AFUE, User-Specified Nominal Capacity [W], 1.00000E-003
 Component Sizing Information, Boiler:HotWater, SECONDARY BOILER 0KBTU/HR 0.85 AFUE, Design Size Design Water Flow Rate [m3/s], 1.16429E-002
 Component Sizing Information, PlantLoop, MAIN SERVICE WATER LOOP, Maximum Loop Flow Rate [m3/s], 9.73284E-004
 Component Sizing Information, PlantLoop, MAIN SERVICE WATER LOOP, Plant Loop Volume [m3], 0.11679
 Component Sizing Information, Pump:ConstantSpeed, SERVICE WATER LOOP PUMP, Design Flow Rate [m3/s], 9.73284E-004
 Component Sizing Information, Pump:ConstantSpeed, SERVICE WATER LOOP PUMP, Design Power Consumption [W], 446.20576
 Component Sizing Information, WaterHeater:Mixed, 991GAL NATURALGAS WATER HEATER - 669KBTU/HR 0.805 THERM EFF, Use Side Design Flow Rate [m3/s], 9.73284E-004
! <Environment>,Environment Name,Environment Type, Start Date, End Date, Start DayOfWeek, Duration {#days}, Source:Start DayOfWeek,  Use Daylight Saving, Use Holidays, Apply Weekend Holiday Rule,  Use Rain Values, Use Snow Values
! <Environment:Special Days>, Special Day Name, Special Day Type, Source, Start Date, Duration {#days}
! <Environment:Daylight Saving>, Daylight Saving Indicator, Source, Start Date, End Date
! <Environment:WarmupDays>, NumberofWarmupDays
Environment,RUN PERIOD 1,WeatherFileRunPeriod,01/01,12/31,Sunday,365,Use RunPeriod Specified Day,No,No,No,Yes,Yes
Environment:Daylight Saving,No,RunPeriod Object
Environment:WarmupDays, 25
! <Tabular Report>,Style,Unit Conversion
Tabular Report,HTML,None
! <Warmup Convergence Information>,Zone Name,Environment Type/Name,Average Warmup Temperature Difference {deltaC},Std Dev Warmup Temperature Difference {deltaC},Max Temperature Pass/Fail Convergence,Min Temperature Pass/Fail Convergence,Average Warmup Load Difference {W},Std Dev Warmup Load Difference {W},Heating Load Pass/Fail Convergence,Cooling Load Pass/Fail Convergence
 Warmup Convergence Information,ALL_ST=ATRIUM - H < 13M_FL=STORY 4_SCH=C,RunPeriod: RUN PERIOD 1,5.5864008983E-002,0.2112856214,Pass,Pass,7.5736793153E-002,0.2075496797,Pass,Pass
 Warmup Convergence Information,ALL_ST=ATRIUM - H > 13M_FL=STORY 1_SCH=C,RunPeriod: RUN PERIOD 1,4.0942536531E-002,6.1935791545E-002,Pass,Pass,0.2112942840,0.7965674840,Pass,Fail
 Warmup Convergence Information,ALL_ST=AUDIENCE - AUDITORIUM_FL=STORY 1_SCH=C,RunPeriod: RUN PERIOD 1,2.2756563244E-002,0.1076883481,Pass,Pass,5.0711976469E-002,0.4085006857,Pass,Pass
 Warmup Convergence Information,ALL_ST=AUDIENCE - MOTION PICTURE_FL=STORY 2_SCH=C,RunPeriod: RUN PERIOD 1,2.7327398902E-002,0.1379841125,Pass,Pass,0.6663869437,7.1106654056,Pass,Pass
 Warmup Convergence Information,ALL_ST=AUDIENCE - PERFORMANCE ARTS_FL=STORY 1_SCH=C,RunPeriod: RUN PERIOD 1,3.5163862048E-002,0.1299388589,Pass,Pass,3.6328538382E-002,0.2867273585,Pass,Pass
 Warmup Convergence Information,ALL_ST=AUTOMOTIVE - REPAIR_FL=STORY 2_SCH=E,RunPeriod: RUN PERIOD 1,4.4006286248E-003,2.4136154198E-003,Pass,Pass,0.0000000000,0.0000000000,Pass,Pass
 Warmup Convergence Information,ALL_ST=BANK - BANKING AND OFFICES_FL=STORY 1_SCH=A,RunPeriod: RUN PERIOD 1,5.6401633676E-002,0.1102810977,Pass,Pass,8.8496380070E-002,0.2981509021,Pass,Fail
 Warmup Convergence Information,ALL_ST=CLASSROOM/LECTURE/TRAINING_FL=STORY 4_SCH=D,RunPeriod: RUN PERIOD 1,8.4222752211E-002,0.1373791775,Pass,Pass,4.8202504016E-002,0.1672846119,Pass,Pass
 Warmup Convergence Information,ALL_ST=CONF./MEET./MULTI-PURPOSE_FL=STORY 2_SCH=C,RunPeriod: RUN PERIOD 1,2.3333239927E-002,0.1174994051,Pass,Pass,8.0908891730E-002,0.3638932450,Pass,Pass
 Warmup Convergence Information,ALL_ST=CONVENTION CENTRE - AUDIENCE_FL=STORY 3_SCH=C,RunPeriod: RUN PERIOD 1,3.7862540537E-002,0.1985535178,Pass,Pass,4.8758552863E-002,0.1898023496,Pass,Pass
 Warmup Convergence Information,ALL_ST=CONVENTION CENTRE - EXHIBIT_FL=STORY 2_SCH=C,RunPeriod: RUN PERIOD 1,3.0781217921E-002,0.1444598361,Pass,Pass,3.9480268951E-002,0.1741739401,Pass,Pass
 Warmup Convergence Information,ALL_ST=WHOLEBUILDING_FL=STORY 1_SCH=C,RunPeriod: RUN PERIOD 1,2.9046571542E-002,5.1922561353E-002,Pass,Pass,7.1196862106E-002,0.2194176810,Pass,Fail
 Warmup Convergence Information,ALL_ST=WHOLEBUILDING_FL=STORY 3_SCH=A,RunPeriod: RUN PERIOD 1,9.6345759726E-003,1.1081816434E-002,Pass,Pass,0.0000000000,0.0000000000,Pass,Pass
 Warmup Convergence Information,ALL_ST=WHOLEBUILDING_FL=STORY 3_SCH=H,RunPeriod: RUN PERIOD 1,4.0624408679E-002,4.4373477227E-002,Pass,Pass,1.1905602275E-002,1.6890010227E-002,Pass,Pass
 Warmup Convergence Information,ALL_ST=WHOLEBUILDING_FL=STORY 3_SCH=I,RunPeriod: RUN PERIOD 1,4.3036943780E-002,0.1631870222,Pass,Pass,0.2335610702,1.8387977262,Pass,Pass
 Warmup Convergence Information,ALL_ST=WHOLEBUILDING_FL=STORY 4_SCH=C,RunPeriod: RUN PERIOD 1,6.2351864225E-002,0.2162586372,Pass,Pass,0.3239879764,1.2508284304,Fail,Pass
 Warmup Convergence Information,ALL_ST=WHOLEBUILDING_FL=STORY 4_SCH=D,RunPeriod: RUN PERIOD 1,1.8600182170E-003,7.3990323335E-003,Pass,Pass,8.2766521120E-002,0.3368302657,Pass,Pass
 Warmup Convergence Information,ALL_ST=WHOLEBUILDING_FL=STORY 4_SCH=H,RunPeriod: RUN PERIOD 1,5.6211225718E-002,0.2657985676,Pass,Pass,20.6176708415,244.8671889897,Fail,Pass
 Warmup Convergence Information,DU_BT=PENITENTIARY_ST=WHOLEBUILDING_FL=STORY 3_SCHH,RunPeriod: RUN PERIOD 1,2.6271916085E-002,3.8202446061E-002,Pass,Pass,1.0591020821E-002,2.1375631023E-002,Pass,Pass
 Warmup Convergence Information,WILD_ST=CORR. < 2.4M WIDE-SCH-A_FL=STORY 2_SCH=C,RunPeriod: RUN PERIOD 1,3.2194765172E-002,9.2112464759E-002,Pass,Pass,5.0141665447E-002,0.2548864459,Pass,Pass
! <Program Control Information:Threads/Parallel Sims>, Threading Supported,Maximum Number of Threads, Env Set Threads (OMP_NUM_THREADS), EP Env Set Threads (EP_OMP_NUM_THREADS), IDF Set Threads, Number of Threads Used (Interior Radiant Exchange), Number Nominal Surfaces, Number Parallel Sims
Program Control:Threads/Parallel Sims, No,1, N/A, N/A, N/A, N/A, N/A, N/A
End of Data
