Program Version,EnergyPlus, Version 8.9.0-eba93e8e1b, YMD=2019.04.04 17:58
! This file shows details about the branches, nodes, and other
! elements of the flow connections.
! This file is intended for use in "debugging" potential problems
! that may also be detected by the program, but may be more easily
! identified by "eye".
! This file is also intended to support software which draws a
! schematic diagram of the HVAC system.
! ===============================================================
! #Nodes,<Number of Unique Nodes>
 #Nodes,111
! <Node>,<NodeNumber>,<Node Name>,<Node Fluid Type>,<# Times Node Referenced After Definition>
 Node,1,NODE 23,Air,4
 Node,2,NODE 35,Air,4
 Node,3,NODE 48,Air,4
 Node,4,NODE 61,Air,4
 Node,5,NODE 74,Air,4
 Node,6,NODE 20,Air,10
 Node,7,NODE 21,Air,3
 Node,8,NODE 32,Air,10
 Node,9,NODE 33,Air,3
 Node,10,NODE 45,Air,10
 Node,11,NODE 46,Air,3
 Node,12,NODE 58,Air,10
 Node,13,NODE 59,Air,3
 Node,14,NODE 71,Air,10
 Node,15,NODE 72,Air,3
 Node,16,NODE 19,Air,3
 Node,17,NODE 28,Air,6
 Node,18,NODE 27,Air,6
 Node,19,NODE 26,Air,8
 Node,20,NODE 31,Air,3
 Node,21,NODE 40,Air,6
 Node,22,NODE 39,Air,6
 Node,23,NODE 38,Air,8
 Node,24,NODE 44,Air,3
 Node,25,NODE 53,Air,6
 Node,26,NODE 52,Air,6
 Node,27,NODE 51,Air,8
 Node,28,NODE 57,Air,3
 Node,29,NODE 66,Air,6
 Node,30,NODE 65,Air,6
 Node,31,NODE 64,Air,8
 Node,32,NODE 70,Air,3
 Node,33,NODE 79,Air,6
 Node,34,NODE 78,Air,6
 Node,35,NODE 77,Air,8
 Node,36,NODE 2,Water,2
 Node,37,NODE 11,Water,1
 Node,38,NODE 5,Water,1
 Node,39,NODE 12,Water,1
 Node,40,NODE 14,Water,1
 Node,41,NODE 15,Water,1
 Node,42,NODE 16,Water,1
 Node,43,NODE 17,Water,1
 Node,44,NODE 18,Water,1
 Node,45,NODE 3,Water,4
 Node,46,NODE 6,Water,2
 Node,47,HOT WATER LOOP DEMAND INLET PIPE NODE,Water,1
 Node,48,NODE 9,Water,1
 Node,49,NODE 30,Water,1
 Node,50,NODE 42,Water,1
 Node,51,NODE 43,Water,1
 Node,52,NODE 55,Water,1
 Node,53,NODE 56,Water,1
 Node,54,NODE 68,Water,1
 Node,55,NODE 69,Water,1
 Node,56,NODE 81,Water,1
 Node,57,NODE 82,Water,1
 Node,58,HOT WATER LOOP DEMAND BYPASS PIPE INLET NODE,Water,1
 Node,59,HOT WATER LOOP DEMAND BYPASS PIPE OUTLET NODE,Water,1
 Node,60,HOT WATER LOOP DEMAND OUTLET PIPE NODE,Water,1
 Node,61,NODE 8,Water,2
 Node,62,NODE 83,Water,2
 Node,63,NODE 89,Water,1
 Node,64,NODE 85,Water,1
 Node,65,NODE 90,Water,1
 Node,66,NODE 91,Water,1
 Node,67,NODE 92,Water,1
 Node,68,NODE 94,Water,1
 Node,69,NODE 84,Water,4
 Node,70,NODE 86,Water,2
 Node,71,NODE 95,Water,1
 Node,72,NODE 88,Water,1
 Node,73,NODE 93,Water,1
 Node,74,NODE 97,Water,1
 Node,75,NODE 98,Water,1
 Node,76,NODE 99,Water,1
 Node,77,NODE 100,Water,1
 Node,78,NODE 101,Water,1
 Node,79,NODE 102,Water,1
 Node,80,NODE 103,Water,1
 Node,81,NODE 104,Water,1
 Node,82,MAIN SERVICE WATER LOOP DEMAND BYPASS PIPE INLET NODE,Water,1
 Node,83,MAIN SERVICE WATER LOOP DEMAND BYPASS PIPE OUTLET NODE,Water,1
 Node,84,NODE 96,Water,1
 Node,85,NODE 87,Water,2
 Node,86,NODE 1,Air,1
 Node,87,NODE 29,Air,1
 Node,88,NODE 4,Air,1
 Node,89,NODE 41,Air,1
 Node,90,NODE 7,Air,1
 Node,91,NODE 54,Air,1
 Node,92,NODE 10,Air,1
 Node,93,NODE 67,Air,1
 Node,94,NODE 13,Air,1
 Node,95,NODE 80,Air,1
 Node,96,NODE 22,Air,2
 Node,97,NODE 34,Air,2
 Node,98,NODE 47,Air,2
 Node,99,NODE 60,Air,2
 Node,100,NODE 73,Air,2
 Node,101,NODE 24,Air,2
 Node,102,NODE 36,Air,2
 Node,103,NODE 49,Air,2
 Node,104,NODE 62,Air,2
 Node,105,NODE 75,Air,2
 Node,106,MODEL OUTDOOR AIR NODE,Air,0
 Node,107,NODE 25,Air,1
 Node,108,NODE 37,Air,1
 Node,109,NODE 50,Air,1
 Node,110,NODE 63,Air,1
 Node,111,NODE 76,Air,1
! ===============================================================
! Suspicious nodes have 0 references.  It is normal for some nodes, however.
! Listing nodes with 0 references (culled from previous list):
! <Suspicious Node>,<NodeNumber>,<Node Name>,<Node Fluid Type>,<# Times Node Referenced After Definition>
 Suspicious Node,106,MODEL OUTDOOR AIR NODE,Air,0
! ===============================================================
! <#Branch Lists>,<Number of Branch Lists>
 #Branch Lists,9
! <Branch List>,<Branch List Count>,<Branch List Name>,<Loop Name>,<Loop Type>,<Number of Branches>
! <Branch>,<Branch Count>,<Branch Name>,<Loop Name>,<Loop Type>,<Branch Inlet Node Name>,<Branch Outlet Node Name>
 Branch List,1,SYS_3_PSZ ALL_ST=LAB - RESEARCH_FL=STORY 1_SCH=A SUPPLY BRANCHES,SYS_3_PSZ ALL_ST=LAB - RESEARCH_FL=STORY 1_SCH=A,Air,1
   Branch,1,SYS_3_PSZ ALL_ST=LAB - RESEARCH_FL=STORY 1_SCH=A MAIN BRANCH,SYS_3_PSZ ALL_ST=LAB - RESEARCH_FL=STORY 1_SCH=A,Air,NODE 19,NODE 20
 Branch List,2,SYS_3_PSZ ALL_ST=LIBRARY - CATALOGING_FL=STORY 1_SCH=C SUPPLY BRANCHES,SYS_3_PSZ ALL_ST=LIBRARY - CATALOGING_FL=STORY 1_SCH=C,Air,1
   Branch,1,SYS_3_PSZ ALL_ST=LIBRARY - CATALOGING_FL=STORY 1_SCH=C MAIN BRANCH,SYS_3_PSZ ALL_ST=LIBRARY - CATALOGING_FL=STORY 1_SCH=C,Air,NODE 31,NODE 32
 Branch List,3,SYS_3_PSZ ALL_ST=LIBRARY - READING_FL=STORY 1_SCH=C SUPPLY BRANCHES,SYS_3_PSZ ALL_ST=LIBRARY - READING_FL=STORY 1_SCH=C,Air,1
   Branch,1,SYS_3_PSZ ALL_ST=LIBRARY - READING_FL=STORY 1_SCH=C MAIN BRANCH,SYS_3_PSZ ALL_ST=LIBRARY - READING_FL=STORY 1_SCH=C,Air,NODE 44,NODE 45
 Branch List,4,SYS_3_PSZ ALL_ST=LIBRARY - STACKS_FL=STORY 1_SCH=C SUPPLY BRANCHES,SYS_3_PSZ ALL_ST=LIBRARY - STACKS_FL=STORY 1_SCH=C,Air,1
   Branch,1,SYS_3_PSZ ALL_ST=LIBRARY - STACKS_FL=STORY 1_SCH=C MAIN BRANCH,SYS_3_PSZ ALL_ST=LIBRARY - STACKS_FL=STORY 1_SCH=C,Air,NODE 57,NODE 58
 Branch List,5,SYS_3_PSZ ALL_ST=LOBBY - ELEVATOR_FL=STORY 1_SCH=C SUPPLY BRANCHES,SYS_3_PSZ ALL_ST=LOBBY - ELEVATOR_FL=STORY 1_SCH=C,Air,1
   Branch,1,SYS_3_PSZ ALL_ST=LOBBY - ELEVATOR_FL=STORY 1_SCH=C MAIN BRANCH,SYS_3_PSZ ALL_ST=LOBBY - ELEVATOR_FL=STORY 1_SCH=C,Air,NODE 70,NODE 71
 Branch List,6,HOT WATER LOOP SUPPLY BRANCHES,HOT WATER LOOP,Plant Supply,5
   Branch,1,HOT WATER LOOP SUPPLY INLET BRANCH,HOT WATER LOOP,Plant Supply,NODE 2,NODE 11
   Branch,2,HOT WATER LOOP SUPPLY BRANCH 1,HOT WATER LOOP,Plant Supply,NODE 5,NODE 12
   Branch,3,HOT WATER LOOP SUPPLY BRANCH 2,HOT WATER LOOP,Plant Supply,NODE 14,NODE 15
   Branch,4,HOT WATER LOOP SUPPLY BRANCH 3,HOT WATER LOOP,Plant Supply,NODE 16,NODE 17
   Branch,5,HOT WATER LOOP SUPPLY OUTLET BRANCH,HOT WATER LOOP,Plant Supply,NODE 18,NODE 3
 Branch List,7,HOT WATER LOOP DEMAND BRANCHES,HOT WATER LOOP,Plant Demand,8
   Branch,1,HOT WATER LOOP DEMAND INLET BRANCH,HOT WATER LOOP,Plant Demand,NODE 6,HOT WATER LOOP DEMAND INLET PIPE NODE
   Branch,2,HOT WATER LOOP DEMAND BRANCH 1,HOT WATER LOOP,Plant Demand,NODE 9,NODE 30
   Branch,3,HOT WATER LOOP DEMAND BRANCH 2,HOT WATER LOOP,Plant Demand,NODE 42,NODE 43
   Branch,4,HOT WATER LOOP DEMAND BRANCH 3,HOT WATER LOOP,Plant Demand,NODE 55,NODE 56
   Branch,5,HOT WATER LOOP DEMAND BRANCH 4,HOT WATER LOOP,Plant Demand,NODE 68,NODE 69
   Branch,6,HOT WATER LOOP DEMAND BRANCH 5,HOT WATER LOOP,Plant Demand,NODE 81,NODE 82
   Branch,7,HOT WATER LOOP DEMAND BYPASS BRANCH,HOT WATER LOOP,Plant Demand,HOT WATER LOOP DEMAND BYPASS PIPE INLET NODE,HOT WATER LOOP DEMAND BYPASS PIPE OUTLET NODE
   Branch,8,HOT WATER LOOP DEMAND OUTLET BRANCH,HOT WATER LOOP,Plant Demand,HOT WATER LOOP DEMAND OUTLET PIPE NODE,NODE 8
 Branch List,8,MAIN SERVICE WATER LOOP SUPPLY BRANCHES,MAIN SERVICE WATER LOOP,Plant Supply,4
   Branch,1,MAIN SERVICE WATER LOOP SUPPLY INLET BRANCH,MAIN SERVICE WATER LOOP,Plant Supply,NODE 83,NODE 89
   Branch,2,MAIN SERVICE WATER LOOP SUPPLY BRANCH 1,MAIN SERVICE WATER LOOP,Plant Supply,NODE 85,NODE 90
   Branch,3,MAIN SERVICE WATER LOOP SUPPLY BRANCH 2,MAIN SERVICE WATER LOOP,Plant Supply,NODE 91,NODE 92
   Branch,4,MAIN SERVICE WATER LOOP SUPPLY OUTLET BRANCH,MAIN SERVICE WATER LOOP,Plant Supply,NODE 94,NODE 84
 Branch List,9,MAIN SERVICE WATER LOOP DEMAND BRANCHES,MAIN SERVICE WATER LOOP,Plant Demand,8
   Branch,1,MAIN SERVICE WATER LOOP DEMAND INLET BRANCH,MAIN SERVICE WATER LOOP,Plant Demand,NODE 86,NODE 95
   Branch,2,MAIN SERVICE WATER LOOP DEMAND BRANCH 1,MAIN SERVICE WATER LOOP,Plant Demand,NODE 88,NODE 93
   Branch,3,MAIN SERVICE WATER LOOP DEMAND BRANCH 2,MAIN SERVICE WATER LOOP,Plant Demand,NODE 97,NODE 98
   Branch,4,MAIN SERVICE WATER LOOP DEMAND BRANCH 3,MAIN SERVICE WATER LOOP,Plant Demand,NODE 99,NODE 100
   Branch,5,MAIN SERVICE WATER LOOP DEMAND BRANCH 4,MAIN SERVICE WATER LOOP,Plant Demand,NODE 101,NODE 102
   Branch,6,MAIN SERVICE WATER LOOP DEMAND BRANCH 5,MAIN SERVICE WATER LOOP,Plant Demand,NODE 103,NODE 104
   Branch,7,MAIN SERVICE WATER LOOP DEMAND BYPASS BRANCH,MAIN SERVICE WATER LOOP,Plant Demand,MAIN SERVICE WATER LOOP DEMAND BYPASS PIPE INLET NODE,MAIN SERVICE WATER LOOP DEMAND BYPASS PIPE OUTLET NODE
   Branch,8,MAIN SERVICE WATER LOOP DEMAND OUTLET BRANCH,MAIN SERVICE WATER LOOP,Plant Demand,NODE 96,NODE 87
! ===============================================================
! <#Supply Air Paths>,<Number of Supply Air Paths>
 #Supply Air Paths,5
! <Supply Air Path>,<Supply Air Path Count>,<Supply Air Path Name>,<AirLoopHVAC Name>
! <#Components on Supply Air Path>,<Number of Components>
! <Supply Air Path Component>,<Component Count>,<Component Type>,<Component Name>,<AirLoopHVAC Name>
! <#Outlet Nodes on Supply Air Path Component>,<Number of Nodes>
! <Supply Air Path Component Nodes>,<Node Count>,<Component Type>,<Component Name>,<Inlet Node Name>,<Outlet Node Name>,<AirLoopHVAC Name>
 Supply Air Path,1,SYS_3_PSZ ALL_ST=LAB - RESEARCH_FL=STORY 1_SCH=A NODE 21 SUPPLY PATH,SYS_3_PSZ ALL_ST=LAB - RESEARCH_FL=STORY 1_SCH=A
   #Components on Supply Air Path,1
   Supply Air Path Component,1,AIRLOOPHVAC:ZONESPLITTER,AIR LOOP HVAC ZONE SPLITTER 1,SYS_3_PSZ ALL_ST=LAB - RESEARCH_FL=STORY 1_SCH=A
     #Outlet Nodes on Supply Air Path Component,1
     Supply Air Path Component Nodes,1,AIRLOOPHVAC:ZONESPLITTER,AIR LOOP HVAC ZONE SPLITTER 1,NODE 21,NODE 23,SYS_3_PSZ ALL_ST=LAB - RESEARCH_FL=STORY 1_SCH=A
! <#Nodes on Supply Air Path>,<Number of Nodes>
! <Supply Air Path Node>,<Node Type>,<Node Count>,<Node Name>,<AirLoopHVAC Name>
#Nodes on Supply Air Path,2
   Supply Air Path Node,Inlet Node,1,NODE 21,SYS_3_PSZ ALL_ST=LAB - RESEARCH_FL=STORY 1_SCH=A
   Supply Air Path Node,Outlet Node,2,NODE 23,SYS_3_PSZ ALL_ST=LAB - RESEARCH_FL=STORY 1_SCH=A
 Supply Air Path,2,SYS_3_PSZ ALL_ST=LIBRARY - CATALOGING_FL=STORY 1_SCH=C NODE 33 SUPPLY PATH,SYS_3_PSZ ALL_ST=LIBRARY - CATALOGING_FL=STORY 1_SCH=C
   #Components on Supply Air Path,1
   Supply Air Path Component,1,AIRLOOPHVAC:ZONESPLITTER,AIR LOOP HVAC ZONE SPLITTER 2,SYS_3_PSZ ALL_ST=LIBRARY - CATALOGING_FL=STORY 1_SCH=C
     #Outlet Nodes on Supply Air Path Component,1
     Supply Air Path Component Nodes,1,AIRLOOPHVAC:ZONESPLITTER,AIR LOOP HVAC ZONE SPLITTER 2,NODE 33,NODE 35,SYS_3_PSZ ALL_ST=LIBRARY - CATALOGING_FL=STORY 1_SCH=C
! <#Nodes on Supply Air Path>,<Number of Nodes>
! <Supply Air Path Node>,<Node Type>,<Node Count>,<Node Name>,<AirLoopHVAC Name>
#Nodes on Supply Air Path,2
   Supply Air Path Node,Inlet Node,1,NODE 33,SYS_3_PSZ ALL_ST=LIBRARY - CATALOGING_FL=STORY 1_SCH=C
   Supply Air Path Node,Outlet Node,2,NODE 35,SYS_3_PSZ ALL_ST=LIBRARY - CATALOGING_FL=STORY 1_SCH=C
 Supply Air Path,3,SYS_3_PSZ ALL_ST=LIBRARY - READING_FL=STORY 1_SCH=C NODE 46 SUPPLY PATH,SYS_3_PSZ ALL_ST=LIBRARY - READING_FL=STORY 1_SCH=C
   #Components on Supply Air Path,1
   Supply Air Path Component,1,AIRLOOPHVAC:ZONESPLITTER,AIR LOOP HVAC ZONE SPLITTER 3,SYS_3_PSZ ALL_ST=LIBRARY - READING_FL=STORY 1_SCH=C
     #Outlet Nodes on Supply Air Path Component,1
     Supply Air Path Component Nodes,1,AIRLOOPHVAC:ZONESPLITTER,AIR LOOP HVAC ZONE SPLITTER 3,NODE 46,NODE 48,SYS_3_PSZ ALL_ST=LIBRARY - READING_FL=STORY 1_SCH=C
! <#Nodes on Supply Air Path>,<Number of Nodes>
! <Supply Air Path Node>,<Node Type>,<Node Count>,<Node Name>,<AirLoopHVAC Name>
#Nodes on Supply Air Path,2
   Supply Air Path Node,Inlet Node,1,NODE 46,SYS_3_PSZ ALL_ST=LIBRARY - READING_FL=STORY 1_SCH=C
   Supply Air Path Node,Outlet Node,2,NODE 48,SYS_3_PSZ ALL_ST=LIBRARY - READING_FL=STORY 1_SCH=C
 Supply Air Path,4,SYS_3_PSZ ALL_ST=LIBRARY - STACKS_FL=STORY 1_SCH=C NODE 59 SUPPLY PATH,SYS_3_PSZ ALL_ST=LIBRARY - STACKS_FL=STORY 1_SCH=C
   #Components on Supply Air Path,1
   Supply Air Path Component,1,AIRLOOPHVAC:ZONESPLITTER,AIR LOOP HVAC ZONE SPLITTER 4,SYS_3_PSZ ALL_ST=LIBRARY - STACKS_FL=STORY 1_SCH=C
     #Outlet Nodes on Supply Air Path Component,1
     Supply Air Path Component Nodes,1,AIRLOOPHVAC:ZONESPLITTER,AIR LOOP HVAC ZONE SPLITTER 4,NODE 59,NODE 61,SYS_3_PSZ ALL_ST=LIBRARY - STACKS_FL=STORY 1_SCH=C
! <#Nodes on Supply Air Path>,<Number of Nodes>
! <Supply Air Path Node>,<Node Type>,<Node Count>,<Node Name>,<AirLoopHVAC Name>
#Nodes on Supply Air Path,2
   Supply Air Path Node,Inlet Node,1,NODE 59,SYS_3_PSZ ALL_ST=LIBRARY - STACKS_FL=STORY 1_SCH=C
   Supply Air Path Node,Outlet Node,2,NODE 61,SYS_3_PSZ ALL_ST=LIBRARY - STACKS_FL=STORY 1_SCH=C
 Supply Air Path,5,SYS_3_PSZ ALL_ST=LOBBY - ELEVATOR_FL=STORY 1_SCH=C NODE 72 SUPPLY PATH,SYS_3_PSZ ALL_ST=LOBBY - ELEVATOR_FL=STORY 1_SCH=C
   #Components on Supply Air Path,1
   Supply Air Path Component,1,AIRLOOPHVAC:ZONESPLITTER,AIR LOOP HVAC ZONE SPLITTER 5,SYS_3_PSZ ALL_ST=LOBBY - ELEVATOR_FL=STORY 1_SCH=C
     #Outlet Nodes on Supply Air Path Component,1
     Supply Air Path Component Nodes,1,AIRLOOPHVAC:ZONESPLITTER,AIR LOOP HVAC ZONE SPLITTER 5,NODE 72,NODE 74,SYS_3_PSZ ALL_ST=LOBBY - ELEVATOR_FL=STORY 1_SCH=C
! <#Nodes on Supply Air Path>,<Number of Nodes>
! <Supply Air Path Node>,<Node Type>,<Node Count>,<Node Name>,<AirLoopHVAC Name>
#Nodes on Supply Air Path,2
   Supply Air Path Node,Inlet Node,1,NODE 72,SYS_3_PSZ ALL_ST=LOBBY - ELEVATOR_FL=STORY 1_SCH=C
   Supply Air Path Node,Outlet Node,2,NODE 74,SYS_3_PSZ ALL_ST=LOBBY - ELEVATOR_FL=STORY 1_SCH=C
! ===============================================================
! <#Return Air Paths>,<Number of Return Air Paths>
 #Return Air Paths,5
! <Return Air Path>,<Return Air Path Count>,<Return Air Path Name>,<AirLoopHVAC Name>
! <#Components on Return Air Path>,<Number of Components>
! <Return Air Path Component>,<Component Count>,<Component Type>,<Component Name>,<AirLoopHVAC Name>
! <#Inlet Nodes on Return Air Path Component>,<Number of Nodes>
! <Return Air Path Component Nodes>,<Node Count>,<Component Type>,<Component Name>,<Inlet Node Name>,<Outlet Node Name>,<AirLoopHVAC Name>
 Return Air Path,1,SYS_3_PSZ ALL_ST=LAB - RESEARCH_FL=STORY 1_SCH=A RETURN PATH,SYS_3_PSZ ALL_ST=LAB - RESEARCH_FL=STORY 1_SCH=A
   #Components on Return Air Path,1
   Return Air Path Component,1,AIRLOOPHVAC:ZONEMIXER,AIR LOOP HVAC ZONE MIXER 1,SYS_3_PSZ ALL_ST=LAB - RESEARCH_FL=STORY 1_SCH=A
     #Inlet Nodes on Return Air Path Component,1
     Return Air Path Component Nodes,1,AIRLOOPHVAC:ZONEMIXER,AIR LOOP HVAC ZONE MIXER 1,NODE 29,NODE 22,SYS_3_PSZ ALL_ST=LAB - RESEARCH_FL=STORY 1_SCH=A
! <#Nodes on Return Air Path>,<Number of Nodes>
! <Return Air Path Node>,<Node Type>,<Node Count>,<Node Name>,<AirLoopHVAC Name>
   #Nodes on Return Air Path,2
   Return Air Path Node,Outlet Node,1,NODE 22,SYS_3_PSZ ALL_ST=LAB - RESEARCH_FL=STORY 1_SCH=A
   Return Air Path Node,Inlet Node,2,NODE 29,SYS_3_PSZ ALL_ST=LAB - RESEARCH_FL=STORY 1_SCH=A
 Return Air Path,2,SYS_3_PSZ ALL_ST=LIBRARY - CATALOGING_FL=STORY 1_SCH=C RETURN PATH,SYS_3_PSZ ALL_ST=LIBRARY - CATALOGING_FL=STORY 1_SCH=C
   #Components on Return Air Path,1
   Return Air Path Component,1,AIRLOOPHVAC:ZONEMIXER,AIR LOOP HVAC ZONE MIXER 2,SYS_3_PSZ ALL_ST=LIBRARY - CATALOGING_FL=STORY 1_SCH=C
     #Inlet Nodes on Return Air Path Component,1
     Return Air Path Component Nodes,1,AIRLOOPHVAC:ZONEMIXER,AIR LOOP HVAC ZONE MIXER 2,NODE 41,NODE 34,SYS_3_PSZ ALL_ST=LIBRARY - CATALOGING_FL=STORY 1_SCH=C
! <#Nodes on Return Air Path>,<Number of Nodes>
! <Return Air Path Node>,<Node Type>,<Node Count>,<Node Name>,<AirLoopHVAC Name>
   #Nodes on Return Air Path,2
   Return Air Path Node,Outlet Node,1,NODE 34,SYS_3_PSZ ALL_ST=LIBRARY - CATALOGING_FL=STORY 1_SCH=C
   Return Air Path Node,Inlet Node,2,NODE 41,SYS_3_PSZ ALL_ST=LIBRARY - CATALOGING_FL=STORY 1_SCH=C
 Return Air Path,3,SYS_3_PSZ ALL_ST=LIBRARY - READING_FL=STORY 1_SCH=C RETURN PATH,SYS_3_PSZ ALL_ST=LIBRARY - READING_FL=STORY 1_SCH=C
   #Components on Return Air Path,1
   Return Air Path Component,1,AIRLOOPHVAC:ZONEMIXER,AIR LOOP HVAC ZONE MIXER 3,SYS_3_PSZ ALL_ST=LIBRARY - READING_FL=STORY 1_SCH=C
     #Inlet Nodes on Return Air Path Component,1
     Return Air Path Component Nodes,1,AIRLOOPHVAC:ZONEMIXER,AIR LOOP HVAC ZONE MIXER 3,NODE 54,NODE 47,SYS_3_PSZ ALL_ST=LIBRARY - READING_FL=STORY 1_SCH=C
! <#Nodes on Return Air Path>,<Number of Nodes>
! <Return Air Path Node>,<Node Type>,<Node Count>,<Node Name>,<AirLoopHVAC Name>
   #Nodes on Return Air Path,2
   Return Air Path Node,Outlet Node,1,NODE 47,SYS_3_PSZ ALL_ST=LIBRARY - READING_FL=STORY 1_SCH=C
   Return Air Path Node,Inlet Node,2,NODE 54,SYS_3_PSZ ALL_ST=LIBRARY - READING_FL=STORY 1_SCH=C
 Return Air Path,4,SYS_3_PSZ ALL_ST=LIBRARY - STACKS_FL=STORY 1_SCH=C RETURN PATH,SYS_3_PSZ ALL_ST=LIBRARY - STACKS_FL=STORY 1_SCH=C
   #Components on Return Air Path,1
   Return Air Path Component,1,AIRLOOPHVAC:ZONEMIXER,AIR LOOP HVAC ZONE MIXER 4,SYS_3_PSZ ALL_ST=LIBRARY - STACKS_FL=STORY 1_SCH=C
     #Inlet Nodes on Return Air Path Component,1
     Return Air Path Component Nodes,1,AIRLOOPHVAC:ZONEMIXER,AIR LOOP HVAC ZONE MIXER 4,NODE 67,NODE 60,SYS_3_PSZ ALL_ST=LIBRARY - STACKS_FL=STORY 1_SCH=C
! <#Nodes on Return Air Path>,<Number of Nodes>
! <Return Air Path Node>,<Node Type>,<Node Count>,<Node Name>,<AirLoopHVAC Name>
   #Nodes on Return Air Path,2
   Return Air Path Node,Outlet Node,1,NODE 60,SYS_3_PSZ ALL_ST=LIBRARY - STACKS_FL=STORY 1_SCH=C
   Return Air Path Node,Inlet Node,2,NODE 67,SYS_3_PSZ ALL_ST=LIBRARY - STACKS_FL=STORY 1_SCH=C
 Return Air Path,5,SYS_3_PSZ ALL_ST=LOBBY - ELEVATOR_FL=STORY 1_SCH=C RETURN PATH,SYS_3_PSZ ALL_ST=LOBBY - ELEVATOR_FL=STORY 1_SCH=C
   #Components on Return Air Path,1
   Return Air Path Component,1,AIRLOOPHVAC:ZONEMIXER,AIR LOOP HVAC ZONE MIXER 5,SYS_3_PSZ ALL_ST=LOBBY - ELEVATOR_FL=STORY 1_SCH=C
     #Inlet Nodes on Return Air Path Component,1
     Return Air Path Component Nodes,1,AIRLOOPHVAC:ZONEMIXER,AIR LOOP HVAC ZONE MIXER 5,NODE 80,NODE 73,SYS_3_PSZ ALL_ST=LOBBY - ELEVATOR_FL=STORY 1_SCH=C
! <#Nodes on Return Air Path>,<Number of Nodes>
! <Return Air Path Node>,<Node Type>,<Node Count>,<Node Name>,<AirLoopHVAC Name>
   #Nodes on Return Air Path,2
   Return Air Path Node,Outlet Node,1,NODE 73,SYS_3_PSZ ALL_ST=LOBBY - ELEVATOR_FL=STORY 1_SCH=C
   Return Air Path Node,Inlet Node,2,NODE 80,SYS_3_PSZ ALL_ST=LOBBY - ELEVATOR_FL=STORY 1_SCH=C
! ===============================================================
! #Outdoor Air Nodes,<Number of Outdoor Air Nodes>
 #Outdoor Air Nodes,6
! <Outdoor Air Node>,<NodeNumber>,<Node Name>
 Outdoor Air Node,101,NODE 24
 Outdoor Air Node,102,NODE 36
 Outdoor Air Node,103,NODE 49
 Outdoor Air Node,104,NODE 62
 Outdoor Air Node,105,NODE 75
 Outdoor Air Node,106,MODEL OUTDOOR AIR NODE
! ===============================================================
! <#Component Sets>,<Number of Component Sets>
 #Component Sets,55
! <Component Set>,<Component Set Count>,<Parent Object Type>,<Parent Object Name>,<Component Type>,<Component Name>,<Inlet Node ID>,<Outlet Node ID>,<Description>
 Component Set,1,BRANCH,SYS_3_PSZ ALL_ST=LAB - RESEARCH_FL=STORY 1_SCH=A MAIN BRANCH,AIRLOOPHVAC:OUTDOORAIRSYSTEM,AIR LOOP HVAC OUTDOOR AIR SYSTEM 1,NODE 19,NODE 28,Air Nodes
 Component Set,2,BRANCH,SYS_3_PSZ ALL_ST=LAB - RESEARCH_FL=STORY 1_SCH=A MAIN BRANCH,COILSYSTEM:COOLING:DX,COIL COOLING DX SINGLE SPEED 1 COILSYSTEM,NODE 28,NODE 27,Air Nodes
 Component Set,3,BRANCH,SYS_3_PSZ ALL_ST=LAB - RESEARCH_FL=STORY 1_SCH=A MAIN BRANCH,COIL:HEATING:FUEL,COIL HEATING GAS 1,NODE 27,NODE 26,Air Nodes
 Component Set,4,BRANCH,SYS_3_PSZ ALL_ST=LAB - RESEARCH_FL=STORY 1_SCH=A MAIN BRANCH,FAN:CONSTANTVOLUME,FAN CONSTANT VOLUME 1,NODE 26,NODE 20,Air Nodes
 Component Set,5,BRANCH,SYS_3_PSZ ALL_ST=LIBRARY - CATALOGING_FL=STORY 1_SCH=C MAIN BRANCH,AIRLOOPHVAC:OUTDOORAIRSYSTEM,AIR LOOP HVAC OUTDOOR AIR SYSTEM 2,NODE 31,NODE 40,Air Nodes
 Component Set,6,BRANCH,SYS_3_PSZ ALL_ST=LIBRARY - CATALOGING_FL=STORY 1_SCH=C MAIN BRANCH,COILSYSTEM:COOLING:DX,COIL COOLING DX SINGLE SPEED 2 COILSYSTEM,NODE 40,NODE 39,Air Nodes
 Component Set,7,BRANCH,SYS_3_PSZ ALL_ST=LIBRARY - CATALOGING_FL=STORY 1_SCH=C MAIN BRANCH,COIL:HEATING:FUEL,COIL HEATING GAS 2,NODE 39,NODE 38,Air Nodes
 Component Set,8,BRANCH,SYS_3_PSZ ALL_ST=LIBRARY - CATALOGING_FL=STORY 1_SCH=C MAIN BRANCH,FAN:CONSTANTVOLUME,FAN CONSTANT VOLUME 2,NODE 38,NODE 32,Air Nodes
 Component Set,9,BRANCH,SYS_3_PSZ ALL_ST=LIBRARY - READING_FL=STORY 1_SCH=C MAIN BRANCH,AIRLOOPHVAC:OUTDOORAIRSYSTEM,AIR LOOP HVAC OUTDOOR AIR SYSTEM 3,NODE 44,NODE 53,Air Nodes
 Component Set,10,BRANCH,SYS_3_PSZ ALL_ST=LIBRARY - READING_FL=STORY 1_SCH=C MAIN BRANCH,COILSYSTEM:COOLING:DX,COIL COOLING DX SINGLE SPEED 3 COILSYSTEM,NODE 53,NODE 52,Air Nodes
 Component Set,11,BRANCH,SYS_3_PSZ ALL_ST=LIBRARY - READING_FL=STORY 1_SCH=C MAIN BRANCH,COIL:HEATING:FUEL,COIL HEATING GAS 3,NODE 52,NODE 51,Air Nodes
 Component Set,12,BRANCH,SYS_3_PSZ ALL_ST=LIBRARY - READING_FL=STORY 1_SCH=C MAIN BRANCH,FAN:CONSTANTVOLUME,FAN CONSTANT VOLUME 3,NODE 51,NODE 45,Air Nodes
 Component Set,13,BRANCH,SYS_3_PSZ ALL_ST=LIBRARY - STACKS_FL=STORY 1_SCH=C MAIN BRANCH,AIRLOOPHVAC:OUTDOORAIRSYSTEM,AIR LOOP HVAC OUTDOOR AIR SYSTEM 4,NODE 57,NODE 66,Air Nodes
 Component Set,14,BRANCH,SYS_3_PSZ ALL_ST=LIBRARY - STACKS_FL=STORY 1_SCH=C MAIN BRANCH,COILSYSTEM:COOLING:DX,COIL COOLING DX SINGLE SPEED 4 COILSYSTEM,NODE 66,NODE 65,Air Nodes
 Component Set,15,BRANCH,SYS_3_PSZ ALL_ST=LIBRARY - STACKS_FL=STORY 1_SCH=C MAIN BRANCH,COIL:HEATING:FUEL,COIL HEATING GAS 4,NODE 65,NODE 64,Air Nodes
 Component Set,16,BRANCH,SYS_3_PSZ ALL_ST=LIBRARY - STACKS_FL=STORY 1_SCH=C MAIN BRANCH,FAN:CONSTANTVOLUME,FAN CONSTANT VOLUME 4,NODE 64,NODE 58,Air Nodes
 Component Set,17,BRANCH,SYS_3_PSZ ALL_ST=LOBBY - ELEVATOR_FL=STORY 1_SCH=C MAIN BRANCH,AIRLOOPHVAC:OUTDOORAIRSYSTEM,AIR LOOP HVAC OUTDOOR AIR SYSTEM 5,NODE 70,NODE 79,Air Nodes
 Component Set,18,BRANCH,SYS_3_PSZ ALL_ST=LOBBY - ELEVATOR_FL=STORY 1_SCH=C MAIN BRANCH,COILSYSTEM:COOLING:DX,COIL COOLING DX SINGLE SPEED 5 COILSYSTEM,NODE 79,NODE 78,Air Nodes
 Component Set,19,BRANCH,SYS_3_PSZ ALL_ST=LOBBY - ELEVATOR_FL=STORY 1_SCH=C MAIN BRANCH,COIL:HEATING:FUEL,COIL HEATING GAS 5,NODE 78,NODE 77,Air Nodes
 Component Set,20,BRANCH,SYS_3_PSZ ALL_ST=LOBBY - ELEVATOR_FL=STORY 1_SCH=C MAIN BRANCH,FAN:CONSTANTVOLUME,FAN CONSTANT VOLUME 5,NODE 77,NODE 71,Air Nodes
 Component Set,21,BRANCH,HOT WATER LOOP SUPPLY INLET BRANCH,PUMP:VARIABLESPEED,PUMP VARIABLE SPEED 1,NODE 2,NODE 11,Water Nodes
 Component Set,22,BRANCH,HOT WATER LOOP SUPPLY BRANCH 1,BOILER:HOTWATER,PRIMARY BOILER,NODE 5,NODE 12,Hot Water Nodes
 Component Set,23,BRANCH,HOT WATER LOOP SUPPLY BRANCH 2,BOILER:HOTWATER,SECONDARY BOILER,NODE 14,NODE 15,Hot Water Nodes
 Component Set,24,BRANCH,HOT WATER LOOP SUPPLY BRANCH 3,PIPE:ADIABATIC,PIPE ADIABATIC 1,NODE 16,NODE 17,Pipe Nodes
 Component Set,25,BRANCH,HOT WATER LOOP SUPPLY OUTLET BRANCH,PIPE:ADIABATIC,PIPE ADIABATIC 2,NODE 18,NODE 3,Pipe Nodes
 Component Set,26,BRANCH,HOT WATER LOOP DEMAND INLET BRANCH,PIPE:ADIABATIC,HOT WATER LOOP DEMAND INLET PIPE,NODE 6,HOT WATER LOOP DEMAND INLET PIPE NODE,Pipe Nodes
 Component Set,27,BRANCH,HOT WATER LOOP DEMAND BRANCH 1,ZONEHVAC:BASEBOARD:CONVECTIVE:WATER,ZONE HVAC BASEBOARD CONVECTIVE WATER 1,NODE 9,NODE 30,Hot Water Nodes
 Component Set,28,BRANCH,HOT WATER LOOP DEMAND BRANCH 2,ZONEHVAC:BASEBOARD:CONVECTIVE:WATER,ZONE HVAC BASEBOARD CONVECTIVE WATER 2,NODE 42,NODE 43,Hot Water Nodes
 Component Set,29,BRANCH,HOT WATER LOOP DEMAND BRANCH 3,ZONEHVAC:BASEBOARD:CONVECTIVE:WATER,ZONE HVAC BASEBOARD CONVECTIVE WATER 3,NODE 55,NODE 56,Hot Water Nodes
 Component Set,30,BRANCH,HOT WATER LOOP DEMAND BRANCH 4,ZONEHVAC:BASEBOARD:CONVECTIVE:WATER,ZONE HVAC BASEBOARD CONVECTIVE WATER 4,NODE 68,NODE 69,Hot Water Nodes
 Component Set,31,BRANCH,HOT WATER LOOP DEMAND BRANCH 5,ZONEHVAC:BASEBOARD:CONVECTIVE:WATER,ZONE HVAC BASEBOARD CONVECTIVE WATER 5,NODE 81,NODE 82,Hot Water Nodes
 Component Set,32,BRANCH,HOT WATER LOOP DEMAND BYPASS BRANCH,PIPE:ADIABATIC,HOT WATER LOOP DEMAND BYPASS PIPE,HOT WATER LOOP DEMAND BYPASS PIPE INLET NODE,HOT WATER LOOP DEMAND BYPASS PIPE OUTLET NODE,Pipe Nodes
 Component Set,33,BRANCH,HOT WATER LOOP DEMAND OUTLET BRANCH,PIPE:ADIABATIC,HOT WATER LOOP DEMAND OUTLET PIPE,HOT WATER LOOP DEMAND OUTLET PIPE NODE,NODE 8,Pipe Nodes
 Component Set,34,BRANCH,MAIN SERVICE WATER LOOP SUPPLY INLET BRANCH,PUMP:CONSTANTSPEED,SERVICE WATER LOOP PUMP,NODE 83,NODE 89,Water Nodes
 Component Set,35,BRANCH,MAIN SERVICE WATER LOOP SUPPLY BRANCH 1,WATERHEATER:MIXED,237GAL NATURALGAS WATER HEATER - 160KBTU/HR,NODE 85,NODE 90,Use Side Water Nodes
 Component Set,36,BRANCH,MAIN SERVICE WATER LOOP SUPPLY BRANCH 2,PIPE:ADIABATIC,PIPE ADIABATIC 3,NODE 91,NODE 92,Pipe Nodes
 Component Set,37,BRANCH,MAIN SERVICE WATER LOOP SUPPLY OUTLET BRANCH,PIPE:ADIABATIC,PIPE ADIABATIC 5,NODE 94,NODE 84,Pipe Nodes
 Component Set,38,BRANCH,MAIN SERVICE WATER LOOP DEMAND INLET BRANCH,PIPE:ADIABATIC,PIPE ADIABATIC 6,NODE 86,NODE 95,Pipe Nodes
 Component Set,39,BRANCH,MAIN SERVICE WATER LOOP DEMAND BRANCH 1,PIPE:ADIABATIC,PIPE ADIABATIC 4,NODE 88,NODE 93,Pipe Nodes
 Component Set,40,BRANCH,MAIN SERVICE WATER LOOP DEMAND BRANCH 2,WATERUSE:CONNECTIONS,WATER USE CONNECTIONS 1,NODE 97,NODE 98,DHW Nodes
 Component Set,41,BRANCH,MAIN SERVICE WATER LOOP DEMAND BRANCH 3,WATERUSE:CONNECTIONS,WATER USE CONNECTIONS 2,NODE 99,NODE 100,DHW Nodes
 Component Set,42,BRANCH,MAIN SERVICE WATER LOOP DEMAND BRANCH 4,WATERUSE:CONNECTIONS,WATER USE CONNECTIONS 3,NODE 101,NODE 102,DHW Nodes
 Component Set,43,BRANCH,MAIN SERVICE WATER LOOP DEMAND BRANCH 5,WATERUSE:CONNECTIONS,WATER USE CONNECTIONS 4,NODE 103,NODE 104,DHW Nodes
 Component Set,44,BRANCH,MAIN SERVICE WATER LOOP DEMAND BYPASS BRANCH,PIPE:ADIABATIC,MAIN SERVICE WATER LOOP DEMAND BYPASS PIPE,MAIN SERVICE WATER LOOP DEMAND BYPASS PIPE INLET NODE,MAIN SERVICE WATER LOOP DEMAND BYPASS PIPE OUTLET NODE,Pipe Nodes
 Component Set,45,BRANCH,MAIN SERVICE WATER LOOP DEMAND OUTLET BRANCH,PIPE:ADIABATIC,PIPE ADIABATIC 7,NODE 96,NODE 87,Pipe Nodes
 Component Set,46,AIRLOOPHVAC:OUTDOORAIRSYSTEM,AIR LOOP HVAC OUTDOOR AIR SYSTEM 1,OUTDOORAIR:MIXER,AIR LOOP HVAC OUTDOOR AIR SYSTEM 1 OUTDOOR AIR MIXER,NODE 24,NODE 28,Air Nodes
 Component Set,47,AIRLOOPHVAC:OUTDOORAIRSYSTEM,AIR LOOP HVAC OUTDOOR AIR SYSTEM 2,OUTDOORAIR:MIXER,AIR LOOP HVAC OUTDOOR AIR SYSTEM 2 OUTDOOR AIR MIXER,NODE 36,NODE 40,Air Nodes
 Component Set,48,AIRLOOPHVAC:OUTDOORAIRSYSTEM,AIR LOOP HVAC OUTDOOR AIR SYSTEM 3,OUTDOORAIR:MIXER,AIR LOOP HVAC OUTDOOR AIR SYSTEM 3 OUTDOOR AIR MIXER,NODE 49,NODE 53,Air Nodes
 Component Set,49,AIRLOOPHVAC:OUTDOORAIRSYSTEM,AIR LOOP HVAC OUTDOOR AIR SYSTEM 4,OUTDOORAIR:MIXER,AIR LOOP HVAC OUTDOOR AIR SYSTEM 4 OUTDOOR AIR MIXER,NODE 62,NODE 66,Air Nodes
 Component Set,50,AIRLOOPHVAC:OUTDOORAIRSYSTEM,AIR LOOP HVAC OUTDOOR AIR SYSTEM 5,OUTDOORAIR:MIXER,AIR LOOP HVAC OUTDOOR AIR SYSTEM 5 OUTDOOR AIR MIXER,NODE 75,NODE 79,Air Nodes
 Component Set,51,COILSYSTEM:COOLING:DX,COIL COOLING DX SINGLE SPEED 1 COILSYSTEM,COIL:COOLING:DX:SINGLESPEED,COIL COOLING DX SINGLE SPEED 1,NODE 28,NODE 27,Air Nodes
 Component Set,52,COILSYSTEM:COOLING:DX,COIL COOLING DX SINGLE SPEED 2 COILSYSTEM,COIL:COOLING:DX:SINGLESPEED,COIL COOLING DX SINGLE SPEED 2,NODE 40,NODE 39,Air Nodes
 Component Set,53,COILSYSTEM:COOLING:DX,COIL COOLING DX SINGLE SPEED 3 COILSYSTEM,COIL:COOLING:DX:SINGLESPEED,COIL COOLING DX SINGLE SPEED 3,NODE 53,NODE 52,Air Nodes
 Component Set,54,COILSYSTEM:COOLING:DX,COIL COOLING DX SINGLE SPEED 4 COILSYSTEM,COIL:COOLING:DX:SINGLESPEED,COIL COOLING DX SINGLE SPEED 4,NODE 66,NODE 65,Air Nodes
 Component Set,55,COILSYSTEM:COOLING:DX,COIL COOLING DX SINGLE SPEED 5 COILSYSTEM,COIL:COOLING:DX:SINGLESPEED,COIL COOLING DX SINGLE SPEED 5,NODE 79,NODE 78,Air Nodes
! ===============================================================
! <# Plant Loops>,<Number of Plant Loops>
 #Plant Loops,2
! <Plant Loop>,<Plant Loop Name>,<Loop Type>,<Inlet Node Name>,<Outlet Node Name>,<Branch List>,<Connector List>
! <Plant Loop Connector>,<Connector Type>,<Connector Name>,<Loop Name>,<Loop Type>,<Number of Inlets/Outlets>
! <Plant Loop Connector Branches>,<Connector Node Count>,<Connector Type>,<Connector Name>,<Inlet Branch>,<Outlet Branch>,<Loop Name>,<Loop Type>
! <Plant Loop Connector Nodes>,<Connector Node Count>,<Connector Type>,<Connector Name>,<Inlet Node>,<Outlet Node>,<Loop Name>,<Loop Type>
! <Plant Loop Supply Connection>,<Plant Loop Name>,<Supply Side Outlet Node Name>,<Demand Side Inlet Node Name>
! <Plant Loop Return Connection>,<Plant Loop Name>,<Demand Side Outlet Node Name>,<Supply Side Inlet Node Name>
 Plant Loop,HOT WATER LOOP,Demand,NODE 6,NODE 8,HOT WATER LOOP DEMAND BRANCHES,HOT WATER LOOP DEMAND CONNECTOR LIST
   Plant Loop Connector,Splitter,HOT WATER LOOP DEMAND SPLITTER,HOT WATER LOOP,Demand,6
     Plant Loop Connector Branches,1,Splitter,HOT WATER LOOP DEMAND SPLITTER,HOT WATER LOOP DEMAND INLET BRANCH,HOT WATER LOOP DEMAND BRANCH 1,HOT WATER LOOP,Demand
     Plant Loop Connector Nodes,   1,Splitter,HOT WATER LOOP DEMAND SPLITTER,HOT WATER LOOP DEMAND INLET PIPE NODE,NODE 9,HOT WATER LOOP,Demand
     Plant Loop Connector Branches,2,Splitter,HOT WATER LOOP DEMAND SPLITTER,HOT WATER LOOP DEMAND INLET BRANCH,HOT WATER LOOP DEMAND BRANCH 2,HOT WATER LOOP,Demand
     Plant Loop Connector Nodes,   2,Splitter,HOT WATER LOOP DEMAND SPLITTER,HOT WATER LOOP DEMAND INLET PIPE NODE,NODE 42,HOT WATER LOOP,Demand
     Plant Loop Connector Branches,3,Splitter,HOT WATER LOOP DEMAND SPLITTER,HOT WATER LOOP DEMAND INLET BRANCH,HOT WATER LOOP DEMAND BRANCH 3,HOT WATER LOOP,Demand
     Plant Loop Connector Nodes,   3,Splitter,HOT WATER LOOP DEMAND SPLITTER,HOT WATER LOOP DEMAND INLET PIPE NODE,NODE 55,HOT WATER LOOP,Demand
     Plant Loop Connector Branches,4,Splitter,HOT WATER LOOP DEMAND SPLITTER,HOT WATER LOOP DEMAND INLET BRANCH,HOT WATER LOOP DEMAND BRANCH 4,HOT WATER LOOP,Demand
     Plant Loop Connector Nodes,   4,Splitter,HOT WATER LOOP DEMAND SPLITTER,HOT WATER LOOP DEMAND INLET PIPE NODE,NODE 68,HOT WATER LOOP,Demand
     Plant Loop Connector Branches,5,Splitter,HOT WATER LOOP DEMAND SPLITTER,HOT WATER LOOP DEMAND INLET BRANCH,HOT WATER LOOP DEMAND BRANCH 5,HOT WATER LOOP,Demand
     Plant Loop Connector Nodes,   5,Splitter,HOT WATER LOOP DEMAND SPLITTER,HOT WATER LOOP DEMAND INLET PIPE NODE,NODE 81,HOT WATER LOOP,Demand
     Plant Loop Connector Branches,6,Splitter,HOT WATER LOOP DEMAND SPLITTER,HOT WATER LOOP DEMAND INLET BRANCH,HOT WATER LOOP DEMAND BYPASS BRANCH,HOT WATER LOOP,Demand
     Plant Loop Connector Nodes,   6,Splitter,HOT WATER LOOP DEMAND SPLITTER,HOT WATER LOOP DEMAND INLET PIPE NODE,HOT WATER LOOP DEMAND BYPASS PIPE INLET NODE,HOT WATER LOOP,Demand
   Plant Loop Connector,Mixer,HOT WATER LOOP DEMAND MIXER,HOT WATER LOOP,Demand,6
     Plant Loop Connector Branches,1,Mixer,HOT WATER LOOP DEMAND MIXER,HOT WATER LOOP DEMAND BRANCH 1,HOT WATER LOOP DEMAND OUTLET BRANCH,HOT WATER LOOP,Demand
     Plant Loop Connector Nodes,   1,Mixer,HOT WATER LOOP DEMAND MIXER,NODE 30,HOT WATER LOOP DEMAND OUTLET PIPE NODE,HOT WATER LOOP,Demand
     Plant Loop Connector Branches,2,Mixer,HOT WATER LOOP DEMAND MIXER,HOT WATER LOOP DEMAND BRANCH 2,HOT WATER LOOP DEMAND OUTLET BRANCH,HOT WATER LOOP,Demand
     Plant Loop Connector Nodes,   2,Mixer,HOT WATER LOOP DEMAND MIXER,NODE 43,HOT WATER LOOP DEMAND OUTLET PIPE NODE,HOT WATER LOOP,Demand
     Plant Loop Connector Branches,3,Mixer,HOT WATER LOOP DEMAND MIXER,HOT WATER LOOP DEMAND BRANCH 3,HOT WATER LOOP DEMAND OUTLET BRANCH,HOT WATER LOOP,Demand
     Plant Loop Connector Nodes,   3,Mixer,HOT WATER LOOP DEMAND MIXER,NODE 56,HOT WATER LOOP DEMAND OUTLET PIPE NODE,HOT WATER LOOP,Demand
     Plant Loop Connector Branches,4,Mixer,HOT WATER LOOP DEMAND MIXER,HOT WATER LOOP DEMAND BRANCH 4,HOT WATER LOOP DEMAND OUTLET BRANCH,HOT WATER LOOP,Demand
     Plant Loop Connector Nodes,   4,Mixer,HOT WATER LOOP DEMAND MIXER,NODE 69,HOT WATER LOOP DEMAND OUTLET PIPE NODE,HOT WATER LOOP,Demand
     Plant Loop Connector Branches,5,Mixer,HOT WATER LOOP DEMAND MIXER,HOT WATER LOOP DEMAND BRANCH 5,HOT WATER LOOP DEMAND OUTLET BRANCH,HOT WATER LOOP,Demand
     Plant Loop Connector Nodes,   5,Mixer,HOT WATER LOOP DEMAND MIXER,NODE 82,HOT WATER LOOP DEMAND OUTLET PIPE NODE,HOT WATER LOOP,Demand
     Plant Loop Connector Branches,6,Mixer,HOT WATER LOOP DEMAND MIXER,HOT WATER LOOP DEMAND BYPASS BRANCH,HOT WATER LOOP DEMAND OUTLET BRANCH,HOT WATER LOOP,Demand
     Plant Loop Connector Nodes,   6,Mixer,HOT WATER LOOP DEMAND MIXER,HOT WATER LOOP DEMAND BYPASS PIPE OUTLET NODE,HOT WATER LOOP DEMAND OUTLET PIPE NODE,HOT WATER LOOP,Demand
 Plant Loop,HOT WATER LOOP,Supply,NODE 2,NODE 3,HOT WATER LOOP SUPPLY BRANCHES,HOT WATER LOOP SUPPLY CONNECTOR LIST
   Plant Loop Connector,Splitter,HOT WATER LOOP SUPPLY SPLITTER,HOT WATER LOOP,Supply,3
     Plant Loop Connector Branches,1,Splitter,HOT WATER LOOP SUPPLY SPLITTER,HOT WATER LOOP SUPPLY INLET BRANCH,HOT WATER LOOP SUPPLY BRANCH 1,HOT WATER LOOP,Supply
     Plant Loop Connector Nodes,   1,Splitter,HOT WATER LOOP SUPPLY SPLITTER,NODE 11,NODE 5,HOT WATER LOOP,Supply
     Plant Loop Connector Branches,2,Splitter,HOT WATER LOOP SUPPLY SPLITTER,HOT WATER LOOP SUPPLY INLET BRANCH,HOT WATER LOOP SUPPLY BRANCH 2,HOT WATER LOOP,Supply
     Plant Loop Connector Nodes,   2,Splitter,HOT WATER LOOP SUPPLY SPLITTER,NODE 11,NODE 14,HOT WATER LOOP,Supply
     Plant Loop Connector Branches,3,Splitter,HOT WATER LOOP SUPPLY SPLITTER,HOT WATER LOOP SUPPLY INLET BRANCH,HOT WATER LOOP SUPPLY BRANCH 3,HOT WATER LOOP,Supply
     Plant Loop Connector Nodes,   3,Splitter,HOT WATER LOOP SUPPLY SPLITTER,NODE 11,NODE 16,HOT WATER LOOP,Supply
   Plant Loop Connector,Mixer,HOT WATER LOOP SUPPLY MIXER,HOT WATER LOOP,Supply,3
     Plant Loop Connector Branches,1,Mixer,HOT WATER LOOP SUPPLY MIXER,HOT WATER LOOP SUPPLY BRANCH 1,HOT WATER LOOP SUPPLY OUTLET BRANCH,HOT WATER LOOP,Supply
     Plant Loop Connector Nodes,   1,Mixer,HOT WATER LOOP SUPPLY MIXER,NODE 12,NODE 18,HOT WATER LOOP,Supply
     Plant Loop Connector Branches,2,Mixer,HOT WATER LOOP SUPPLY MIXER,HOT WATER LOOP SUPPLY BRANCH 2,HOT WATER LOOP SUPPLY OUTLET BRANCH,HOT WATER LOOP,Supply
     Plant Loop Connector Nodes,   2,Mixer,HOT WATER LOOP SUPPLY MIXER,NODE 15,NODE 18,HOT WATER LOOP,Supply
     Plant Loop Connector Branches,3,Mixer,HOT WATER LOOP SUPPLY MIXER,HOT WATER LOOP SUPPLY BRANCH 3,HOT WATER LOOP SUPPLY OUTLET BRANCH,HOT WATER LOOP,Supply
     Plant Loop Connector Nodes,   3,Mixer,HOT WATER LOOP SUPPLY MIXER,NODE 17,NODE 18,HOT WATER LOOP,Supply
 Plant Loop Supply Connection,HOT WATER LOOP,NODE 3,NODE 6
 Plant Loop Return Connection,HOT WATER LOOP,NODE 8,NODE 2
 Plant Loop,MAIN SERVICE WATER LOOP,Demand,NODE 86,NODE 87,MAIN SERVICE WATER LOOP DEMAND BRANCHES,MAIN SERVICE WATER LOOP DEMAND CONNECTOR LIST
   Plant Loop Connector,Splitter,MAIN SERVICE WATER LOOP DEMAND SPLITTER,MAIN SERVICE WATER LOOP,Demand,6
     Plant Loop Connector Branches,1,Splitter,MAIN SERVICE WATER LOOP DEMAND SPLITTER,MAIN SERVICE WATER LOOP DEMAND INLET BRANCH,MAIN SERVICE WATER LOOP DEMAND BRANCH 1,MAIN SERVICE WATER LOOP,Demand
     Plant Loop Connector Nodes,   1,Splitter,MAIN SERVICE WATER LOOP DEMAND SPLITTER,NODE 95,NODE 88,MAIN SERVICE WATER LOOP,Demand
     Plant Loop Connector Branches,2,Splitter,MAIN SERVICE WATER LOOP DEMAND SPLITTER,MAIN SERVICE WATER LOOP DEMAND INLET BRANCH,MAIN SERVICE WATER LOOP DEMAND BRANCH 2,MAIN SERVICE WATER LOOP,Demand
     Plant Loop Connector Nodes,   2,Splitter,MAIN SERVICE WATER LOOP DEMAND SPLITTER,NODE 95,NODE 97,MAIN SERVICE WATER LOOP,Demand
     Plant Loop Connector Branches,3,Splitter,MAIN SERVICE WATER LOOP DEMAND SPLITTER,MAIN SERVICE WATER LOOP DEMAND INLET BRANCH,MAIN SERVICE WATER LOOP DEMAND BRANCH 3,MAIN SERVICE WATER LOOP,Demand
     Plant Loop Connector Nodes,   3,Splitter,MAIN SERVICE WATER LOOP DEMAND SPLITTER,NODE 95,NODE 99,MAIN SERVICE WATER LOOP,Demand
     Plant Loop Connector Branches,4,Splitter,MAIN SERVICE WATER LOOP DEMAND SPLITTER,MAIN SERVICE WATER LOOP DEMAND INLET BRANCH,MAIN SERVICE WATER LOOP DEMAND BRANCH 4,MAIN SERVICE WATER LOOP,Demand
     Plant Loop Connector Nodes,   4,Splitter,MAIN SERVICE WATER LOOP DEMAND SPLITTER,NODE 95,NODE 101,MAIN SERVICE WATER LOOP,Demand
     Plant Loop Connector Branches,5,Splitter,MAIN SERVICE WATER LOOP DEMAND SPLITTER,MAIN SERVICE WATER LOOP DEMAND INLET BRANCH,MAIN SERVICE WATER LOOP DEMAND BRANCH 5,MAIN SERVICE WATER LOOP,Demand
     Plant Loop Connector Nodes,   5,Splitter,MAIN SERVICE WATER LOOP DEMAND SPLITTER,NODE 95,NODE 103,MAIN SERVICE WATER LOOP,Demand
     Plant Loop Connector Branches,6,Splitter,MAIN SERVICE WATER LOOP DEMAND SPLITTER,MAIN SERVICE WATER LOOP DEMAND INLET BRANCH,MAIN SERVICE WATER LOOP DEMAND BYPASS BRANCH,MAIN SERVICE WATER LOOP,Demand
     Plant Loop Connector Nodes,   6,Splitter,MAIN SERVICE WATER LOOP DEMAND SPLITTER,NODE 95,MAIN SERVICE WATER LOOP DEMAND BYPASS PIPE INLET NODE,MAIN SERVICE WATER LOOP,Demand
   Plant Loop Connector,Mixer,MAIN SERVICE WATER LOOP DEMAND MIXER,MAIN SERVICE WATER LOOP,Demand,6
     Plant Loop Connector Branches,1,Mixer,MAIN SERVICE WATER LOOP DEMAND MIXER,MAIN SERVICE WATER LOOP DEMAND BRANCH 1,MAIN SERVICE WATER LOOP DEMAND OUTLET BRANCH,MAIN SERVICE WATER LOOP,Demand
     Plant Loop Connector Nodes,   1,Mixer,MAIN SERVICE WATER LOOP DEMAND MIXER,NODE 93,NODE 96,MAIN SERVICE WATER LOOP,Demand
     Plant Loop Connector Branches,2,Mixer,MAIN SERVICE WATER LOOP DEMAND MIXER,MAIN SERVICE WATER LOOP DEMAND BRANCH 2,MAIN SERVICE WATER LOOP DEMAND OUTLET BRANCH,MAIN SERVICE WATER LOOP,Demand
     Plant Loop Connector Nodes,   2,Mixer,MAIN SERVICE WATER LOOP DEMAND MIXER,NODE 98,NODE 96,MAIN SERVICE WATER LOOP,Demand
     Plant Loop Connector Branches,3,Mixer,MAIN SERVICE WATER LOOP DEMAND MIXER,MAIN SERVICE WATER LOOP DEMAND BRANCH 3,MAIN SERVICE WATER LOOP DEMAND OUTLET BRANCH,MAIN SERVICE WATER LOOP,Demand
     Plant Loop Connector Nodes,   3,Mixer,MAIN SERVICE WATER LOOP DEMAND MIXER,NODE 100,NODE 96,MAIN SERVICE WATER LOOP,Demand
     Plant Loop Connector Branches,4,Mixer,MAIN SERVICE WATER LOOP DEMAND MIXER,MAIN SERVICE WATER LOOP DEMAND BRANCH 4,MAIN SERVICE WATER LOOP DEMAND OUTLET BRANCH,MAIN SERVICE WATER LOOP,Demand
     Plant Loop Connector Nodes,   4,Mixer,MAIN SERVICE WATER LOOP DEMAND MIXER,NODE 102,NODE 96,MAIN SERVICE WATER LOOP,Demand
     Plant Loop Connector Branches,5,Mixer,MAIN SERVICE WATER LOOP DEMAND MIXER,MAIN SERVICE WATER LOOP DEMAND BRANCH 5,MAIN SERVICE WATER LOOP DEMAND OUTLET BRANCH,MAIN SERVICE WATER LOOP,Demand
     Plant Loop Connector Nodes,   5,Mixer,MAIN SERVICE WATER LOOP DEMAND MIXER,NODE 104,NODE 96,MAIN SERVICE WATER LOOP,Demand
     Plant Loop Connector Branches,6,Mixer,MAIN SERVICE WATER LOOP DEMAND MIXER,MAIN SERVICE WATER LOOP DEMAND BYPASS BRANCH,MAIN SERVICE WATER LOOP DEMAND OUTLET BRANCH,MAIN SERVICE WATER LOOP,Demand
     Plant Loop Connector Nodes,   6,Mixer,MAIN SERVICE WATER LOOP DEMAND MIXER,MAIN SERVICE WATER LOOP DEMAND BYPASS PIPE OUTLET NODE,NODE 96,MAIN SERVICE WATER LOOP,Demand
 Plant Loop,MAIN SERVICE WATER LOOP,Supply,NODE 83,NODE 84,MAIN SERVICE WATER LOOP SUPPLY BRANCHES,MAIN SERVICE WATER LOOP SUPPLY CONNECTOR LIST
   Plant Loop Connector,Splitter,MAIN SERVICE WATER LOOP SUPPLY SPLITTER,MAIN SERVICE WATER LOOP,Supply,2
     Plant Loop Connector Branches,1,Splitter,MAIN SERVICE WATER LOOP SUPPLY SPLITTER,MAIN SERVICE WATER LOOP SUPPLY INLET BRANCH,MAIN SERVICE WATER LOOP SUPPLY BRANCH 1,MAIN SERVICE WATER LOOP,Supply
     Plant Loop Connector Nodes,   1,Splitter,MAIN SERVICE WATER LOOP SUPPLY SPLITTER,NODE 89,NODE 85,MAIN SERVICE WATER LOOP,Supply
     Plant Loop Connector Branches,2,Splitter,MAIN SERVICE WATER LOOP SUPPLY SPLITTER,MAIN SERVICE WATER LOOP SUPPLY INLET BRANCH,MAIN SERVICE WATER LOOP SUPPLY BRANCH 2,MAIN SERVICE WATER LOOP,Supply
     Plant Loop Connector Nodes,   2,Splitter,MAIN SERVICE WATER LOOP SUPPLY SPLITTER,NODE 89,NODE 91,MAIN SERVICE WATER LOOP,Supply
   Plant Loop Connector,Mixer,MAIN SERVICE WATER LOOP SUPPLY MIXER,MAIN SERVICE WATER LOOP,Supply,2
     Plant Loop Connector Branches,1,Mixer,MAIN SERVICE WATER LOOP SUPPLY MIXER,MAIN SERVICE WATER LOOP SUPPLY BRANCH 1,MAIN SERVICE WATER LOOP SUPPLY OUTLET BRANCH,MAIN SERVICE WATER LOOP,Supply
     Plant Loop Connector Nodes,   1,Mixer,MAIN SERVICE WATER LOOP SUPPLY MIXER,NODE 90,NODE 94,MAIN SERVICE WATER LOOP,Supply
     Plant Loop Connector Branches,2,Mixer,MAIN SERVICE WATER LOOP SUPPLY MIXER,MAIN SERVICE WATER LOOP SUPPLY BRANCH 2,MAIN SERVICE WATER LOOP SUPPLY OUTLET BRANCH,MAIN SERVICE WATER LOOP,Supply
     Plant Loop Connector Nodes,   2,Mixer,MAIN SERVICE WATER LOOP SUPPLY MIXER,NODE 92,NODE 94,MAIN SERVICE WATER LOOP,Supply
 Plant Loop Supply Connection,MAIN SERVICE WATER LOOP,NODE 84,NODE 86
 Plant Loop Return Connection,MAIN SERVICE WATER LOOP,NODE 87,NODE 83
! ===============================================================
! <# Condenser Loops>,<Number of Condenser Loops>
 #Condenser Loops,0
! <Condenser Loop>,<Condenser Loop Name>,<Loop Type>,<Inlet Node Name>,<Outlet Node Name>,<Branch List>,<Connector List>
! <Condenser Loop Connector>,<Connector Type>,<Connector Name>,<Loop Name>,<Loop Type>,<Number of Inlets/Outlets>
! <Condenser Loop Connector Branches>,<Connector Node Count>,<Connector Type>,<Connector Name>,<Inlet Branch>,<Outlet Branch>,<Loop Name>,<Loop Type>
! <Condenser Loop Connector Nodes>,<Connector Node Count>,<Connector Type>,<Connector Name>,<Inlet Node>,<Outlet Node>,<Loop Name>,<Loop Type>
! <Condenser Loop Supply Connection>,<Condenser Loop Name>,<Supply Side Outlet Node Name>,<Demand Side Inlet Node Name>
! <Condenser Loop Return Connection>,<Condenser Loop Name>,<Demand Side Outlet Node Name>,<Supply Side Inlet Node Name>
! ===============================================================
! <# Controlled Zones>,<Number of Controlled Zones>
 #Controlled Zones,5
! <Controlled Zone>,<Controlled Zone Name>,<Equip List Name>,<Control List Name>,<Zone Node Name>,<# Inlet Nodes>,<# Exhaust Nodes>,<# Return Nodes>
! <Controlled Zone Inlet>,<Inlet Node Count>,<Controlled Zone Name>,<Supply Air Inlet Node Name>,<SD Sys:Cooling/Heating [DD:Cooling] Inlet Node Name>,<DD Sys:Heating Inlet Node Name>
! <Controlled Zone Exhaust>,<Exhaust Node Count>,<Controlled Zone Name>,<Exhaust Air Node Name>
 Controlled Zone,ALL_ST=LAB - RESEARCH_FL=STORY 1_SCH=A,ALL_ST=LAB - RESEARCH_FL=STORY 1_SCH=A EQUIPMENT LIST,,NODE 1,1,0,1
   Controlled Zone Inlet,1,ALL_ST=LAB - RESEARCH_FL=STORY 1_SCH=A,NODE 23,NODE 23,N/A
   Controlled Zone Return,1,ALL_ST=LAB - RESEARCH_FL=STORY 1_SCH=A,NODE 29
 Controlled Zone,ALL_ST=LIBRARY - CATALOGING_FL=STORY 1_SCH=C,ALL_ST=LIBRARY - CATALOGING_FL=STORY 1_SCH=C EQUIPMENT LIST,,NODE 4,1,0,1
   Controlled Zone Inlet,1,ALL_ST=LIBRARY - CATALOGING_FL=STORY 1_SCH=C,NODE 35,NODE 35,N/A
   Controlled Zone Return,1,ALL_ST=LIBRARY - CATALOGING_FL=STORY 1_SCH=C,NODE 41
 Controlled Zone,ALL_ST=LIBRARY - READING_FL=STORY 1_SCH=C,ALL_ST=LIBRARY - READING_FL=STORY 1_SCH=C EQUIPMENT LIST,,NODE 7,1,0,1
   Controlled Zone Inlet,1,ALL_ST=LIBRARY - READING_FL=STORY 1_SCH=C,NODE 48,NODE 48,N/A
   Controlled Zone Return,1,ALL_ST=LIBRARY - READING_FL=STORY 1_SCH=C,NODE 54
 Controlled Zone,ALL_ST=LIBRARY - STACKS_FL=STORY 1_SCH=C,ALL_ST=LIBRARY - STACKS_FL=STORY 1_SCH=C EQUIPMENT LIST,,NODE 10,1,0,1
   Controlled Zone Inlet,1,ALL_ST=LIBRARY - STACKS_FL=STORY 1_SCH=C,NODE 61,NODE 61,N/A
   Controlled Zone Return,1,ALL_ST=LIBRARY - STACKS_FL=STORY 1_SCH=C,NODE 67
 Controlled Zone,ALL_ST=LOBBY - ELEVATOR_FL=STORY 1_SCH=C,ALL_ST=LOBBY - ELEVATOR_FL=STORY 1_SCH=C EQUIPMENT LIST,,NODE 13,1,0,1
   Controlled Zone Inlet,1,ALL_ST=LOBBY - ELEVATOR_FL=STORY 1_SCH=C,NODE 74,NODE 74,N/A
   Controlled Zone Return,1,ALL_ST=LOBBY - ELEVATOR_FL=STORY 1_SCH=C,NODE 80
! ===============================================================
! <#Zone Equipment Lists>,<Number of Zone Equipment Lists>
 #Zone Equipment Lists,5
! <Zone Equipment List>,<Zone Equipment List Count>,<Zone Equipment List Name>,<Zone Name>,<Number of Components>
! <Zone Equipment Component>,<Component Count>,<Component Type>,<Component Name>,<Zone Name>,<Heating Priority>,<Cooling Priority>
 Zone Equipment List,1,ALL_ST=LAB - RESEARCH_FL=STORY 1_SCH=A EQUIPMENT LIST,ALL_ST=LAB - RESEARCH_FL=STORY 1_SCH=A,2
   Zone Equipment Component,1,AIRTERMINAL:SINGLEDUCT:UNCONTROLLED,AIR TERMINAL SINGLE DUCT UNCONTROLLED 1,ALL_ST=LAB - RESEARCH_FL=STORY 1_SCH=A,1,1
   Zone Equipment Component,2,ZONEHVAC:BASEBOARD:CONVECTIVE:WATER,ZONE HVAC BASEBOARD CONVECTIVE WATER 1,ALL_ST=LAB - RESEARCH_FL=STORY 1_SCH=A,2,2
 Zone Equipment List,2,ALL_ST=LIBRARY - CATALOGING_FL=STORY 1_SCH=C EQUIPMENT LIST,ALL_ST=LIBRARY - CATALOGING_FL=STORY 1_SCH=C,2
   Zone Equipment Component,1,AIRTERMINAL:SINGLEDUCT:UNCONTROLLED,AIR TERMINAL SINGLE DUCT UNCONTROLLED 2,ALL_ST=LIBRARY - CATALOGING_FL=STORY 1_SCH=C,1,1
   Zone Equipment Component,2,ZONEHVAC:BASEBOARD:CONVECTIVE:WATER,ZONE HVAC BASEBOARD CONVECTIVE WATER 2,ALL_ST=LIBRARY - CATALOGING_FL=STORY 1_SCH=C,2,2
 Zone Equipment List,3,ALL_ST=LIBRARY - READING_FL=STORY 1_SCH=C EQUIPMENT LIST,ALL_ST=LIBRARY - READING_FL=STORY 1_SCH=C,2
   Zone Equipment Component,1,AIRTERMINAL:SINGLEDUCT:UNCONTROLLED,AIR TERMINAL SINGLE DUCT UNCONTROLLED 3,ALL_ST=LIBRARY - READING_FL=STORY 1_SCH=C,1,1
   Zone Equipment Component,2,ZONEHVAC:BASEBOARD:CONVECTIVE:WATER,ZONE HVAC BASEBOARD CONVECTIVE WATER 3,ALL_ST=LIBRARY - READING_FL=STORY 1_SCH=C,2,2
 Zone Equipment List,4,ALL_ST=LIBRARY - STACKS_FL=STORY 1_SCH=C EQUIPMENT LIST,ALL_ST=LIBRARY - STACKS_FL=STORY 1_SCH=C,2
   Zone Equipment Component,1,AIRTERMINAL:SINGLEDUCT:UNCONTROLLED,AIR TERMINAL SINGLE DUCT UNCONTROLLED 4,ALL_ST=LIBRARY - STACKS_FL=STORY 1_SCH=C,1,1
   Zone Equipment Component,2,ZONEHVAC:BASEBOARD:CONVECTIVE:WATER,ZONE HVAC BASEBOARD CONVECTIVE WATER 4,ALL_ST=LIBRARY - STACKS_FL=STORY 1_SCH=C,2,2
 Zone Equipment List,5,ALL_ST=LOBBY - ELEVATOR_FL=STORY 1_SCH=C EQUIPMENT LIST,ALL_ST=LOBBY - ELEVATOR_FL=STORY 1_SCH=C,2
   Zone Equipment Component,1,AIRTERMINAL:SINGLEDUCT:UNCONTROLLED,AIR TERMINAL SINGLE DUCT UNCONTROLLED 5,ALL_ST=LOBBY - ELEVATOR_FL=STORY 1_SCH=C,1,1
   Zone Equipment Component,2,ZONEHVAC:BASEBOARD:CONVECTIVE:WATER,ZONE HVAC BASEBOARD CONVECTIVE WATER 5,ALL_ST=LOBBY - ELEVATOR_FL=STORY 1_SCH=C,2,2
! ===============================================================
! <#AirLoopHVACs>,<Number of AirLoopHVACs>
 #AirLoopHVACs,5
! <AirLoopHVAC>,<Air Loop Name>,<# Return Nodes>,<# Supply Nodes>,<# Zones Cooled>,<# Zones Heated>,<Outdoor Air Used>
! <AirLoop Return Connections>,<Connection Count>,<AirLoopHVAC Name>,<Zn Eqp Return Node #>,<Zn Eqp Return Node Name>,<AirLoop Return Node #>,<Air Loop Return Node Name>
! <AirLoop Supply Connections>,<Connection Count>,<AirLoopHVAC Name>,<Zn Eqp Supply Node #>,<Zn Eqp Supply Node Name>,<AirLoop Supply Node #>,<Air Loop Supply Node Name>
! <Cooled Zone Info>,<Cooled Zone Count>,<Cooled Zone Name>,<Cooled Zone Inlet Node #>,<Cooled Zone Inlet Node Name>,<AirLoopHVAC Name>
! <Heated Zone Info>,<Heated Zone Count>,<Heated Zone Name>,<Heated Zone Inlet Node #>,<Heated Zone Inlet Node Name>,<AirLoopHVAC Name>
! <Outdoor Air Connections>,<OA Inlet Node #>,<OA Return Air Inlet Node Name>,<OA Outlet Node #>,<OA Mixed Air Outlet Node Name>,<AirLoopHVAC Name>
! <AirLoopHVAC Connector>,<Connector Type>,<Connector Name>,<Loop Name>,<Loop Type>,<Number of Inlets/Outlets>
! <AirLoopHVAC Connector Branches>,<Connector Node Count>,<Connector Type>,<Connector Name>,<Inlet Branch>,<Outlet Branch>,<Loop Name>,<Loop Type>
! <AirLoopHVAC Connector Nodes>,<Connector Node Count>,<Connector Type>,<Connector Name>,<Inlet Node>,<Outlet Node>,<Loop Name>,<Loop Type>
 AirLoopHVAC,SYS_3_PSZ ALL_ST=LAB - RESEARCH_FL=STORY 1_SCH=A,1,1,1,0,Yes
   AirLoop Return Connections,1,SYS_3_PSZ ALL_ST=LAB - RESEARCH_FL=STORY 1_SCH=A,96,NODE 22,16,NODE 19
   AirLoop Supply Connections,1,SYS_3_PSZ ALL_ST=LAB - RESEARCH_FL=STORY 1_SCH=A,7,NODE 21,6,NODE 20
   Cooled Zone Info,1,ALL_ST=LAB - RESEARCH_FL=STORY 1_SCH=A,1,NODE 23,SYS_3_PSZ ALL_ST=LAB - RESEARCH_FL=STORY 1_SCH=A
   Outdoor Air Connections,16,NODE 19,17,NODE 28,SYS_3_PSZ ALL_ST=LAB - RESEARCH_FL=STORY 1_SCH=A
 AirLoopHVAC,SYS_3_PSZ ALL_ST=LIBRARY - CATALOGING_FL=STORY 1_SCH=C,1,1,1,0,Yes
   AirLoop Return Connections,1,SYS_3_PSZ ALL_ST=LIBRARY - CATALOGING_FL=STORY 1_SCH=C,97,NODE 34,20,NODE 31
   AirLoop Supply Connections,1,SYS_3_PSZ ALL_ST=LIBRARY - CATALOGING_FL=STORY 1_SCH=C,9,NODE 33,8,NODE 32
   Cooled Zone Info,1,ALL_ST=LIBRARY - CATALOGING_FL=STORY 1_SCH=C,2,NODE 35,SYS_3_PSZ ALL_ST=LIBRARY - CATALOGING_FL=STORY 1_SCH=C
   Outdoor Air Connections,20,NODE 31,21,NODE 40,SYS_3_PSZ ALL_ST=LIBRARY - CATALOGING_FL=STORY 1_SCH=C
 AirLoopHVAC,SYS_3_PSZ ALL_ST=LIBRARY - READING_FL=STORY 1_SCH=C,1,1,1,0,Yes
   AirLoop Return Connections,1,SYS_3_PSZ ALL_ST=LIBRARY - READING_FL=STORY 1_SCH=C,98,NODE 47,24,NODE 44
   AirLoop Supply Connections,1,SYS_3_PSZ ALL_ST=LIBRARY - READING_FL=STORY 1_SCH=C,11,NODE 46,10,NODE 45
   Cooled Zone Info,1,ALL_ST=LIBRARY - READING_FL=STORY 1_SCH=C,3,NODE 48,SYS_3_PSZ ALL_ST=LIBRARY - READING_FL=STORY 1_SCH=C
   Outdoor Air Connections,24,NODE 44,25,NODE 53,SYS_3_PSZ ALL_ST=LIBRARY - READING_FL=STORY 1_SCH=C
 AirLoopHVAC,SYS_3_PSZ ALL_ST=LIBRARY - STACKS_FL=STORY 1_SCH=C,1,1,1,0,Yes
   AirLoop Return Connections,1,SYS_3_PSZ ALL_ST=LIBRARY - STACKS_FL=STORY 1_SCH=C,99,NODE 60,28,NODE 57
   AirLoop Supply Connections,1,SYS_3_PSZ ALL_ST=LIBRARY - STACKS_FL=STORY 1_SCH=C,13,NODE 59,12,NODE 58
   Cooled Zone Info,1,ALL_ST=LIBRARY - STACKS_FL=STORY 1_SCH=C,4,NODE 61,SYS_3_PSZ ALL_ST=LIBRARY - STACKS_FL=STORY 1_SCH=C
   Outdoor Air Connections,28,NODE 57,29,NODE 66,SYS_3_PSZ ALL_ST=LIBRARY - STACKS_FL=STORY 1_SCH=C
 AirLoopHVAC,SYS_3_PSZ ALL_ST=LOBBY - ELEVATOR_FL=STORY 1_SCH=C,1,1,1,0,Yes
   AirLoop Return Connections,1,SYS_3_PSZ ALL_ST=LOBBY - ELEVATOR_FL=STORY 1_SCH=C,100,NODE 73,32,NODE 70
   AirLoop Supply Connections,1,SYS_3_PSZ ALL_ST=LOBBY - ELEVATOR_FL=STORY 1_SCH=C,15,NODE 72,14,NODE 71
   Cooled Zone Info,1,ALL_ST=LOBBY - ELEVATOR_FL=STORY 1_SCH=C,5,NODE 74,SYS_3_PSZ ALL_ST=LOBBY - ELEVATOR_FL=STORY 1_SCH=C
   Outdoor Air Connections,32,NODE 70,33,NODE 79,SYS_3_PSZ ALL_ST=LOBBY - ELEVATOR_FL=STORY 1_SCH=C
! ===============================================================
! <#Parent Node Connections>,<Number of Parent Node Connections>
 #Parent Node Connections,130
! <Parent Node Connection>,<Node Name>,<Node ObjectType>,<Node ObjectName>,<Node ConnectionType>,<Node FluidStream>
 Parent Node Connection,NODE 19,BRANCH,SYS_3_PSZ ALL_ST=LAB - RESEARCH_FL=STORY 1_SCH=A MAIN BRANCH,Inlet,1
 Parent Node Connection,NODE 28,BRANCH,SYS_3_PSZ ALL_ST=LAB - RESEARCH_FL=STORY 1_SCH=A MAIN BRANCH,Internal,1
 Parent Node Connection,NODE 27,BRANCH,SYS_3_PSZ ALL_ST=LAB - RESEARCH_FL=STORY 1_SCH=A MAIN BRANCH,Internal,1
 Parent Node Connection,NODE 26,BRANCH,SYS_3_PSZ ALL_ST=LAB - RESEARCH_FL=STORY 1_SCH=A MAIN BRANCH,Internal,1
 Parent Node Connection,NODE 20,BRANCH,SYS_3_PSZ ALL_ST=LAB - RESEARCH_FL=STORY 1_SCH=A MAIN BRANCH,Outlet,1
 Parent Node Connection,NODE 31,BRANCH,SYS_3_PSZ ALL_ST=LIBRARY - CATALOGING_FL=STORY 1_SCH=C MAIN BRANCH,Inlet,1
 Parent Node Connection,NODE 40,BRANCH,SYS_3_PSZ ALL_ST=LIBRARY - CATALOGING_FL=STORY 1_SCH=C MAIN BRANCH,Internal,1
 Parent Node Connection,NODE 39,BRANCH,SYS_3_PSZ ALL_ST=LIBRARY - CATALOGING_FL=STORY 1_SCH=C MAIN BRANCH,Internal,1
 Parent Node Connection,NODE 38,BRANCH,SYS_3_PSZ ALL_ST=LIBRARY - CATALOGING_FL=STORY 1_SCH=C MAIN BRANCH,Internal,1
 Parent Node Connection,NODE 32,BRANCH,SYS_3_PSZ ALL_ST=LIBRARY - CATALOGING_FL=STORY 1_SCH=C MAIN BRANCH,Outlet,1
 Parent Node Connection,NODE 44,BRANCH,SYS_3_PSZ ALL_ST=LIBRARY - READING_FL=STORY 1_SCH=C MAIN BRANCH,Inlet,1
 Parent Node Connection,NODE 53,BRANCH,SYS_3_PSZ ALL_ST=LIBRARY - READING_FL=STORY 1_SCH=C MAIN BRANCH,Internal,1
 Parent Node Connection,NODE 52,BRANCH,SYS_3_PSZ ALL_ST=LIBRARY - READING_FL=STORY 1_SCH=C MAIN BRANCH,Internal,1
 Parent Node Connection,NODE 51,BRANCH,SYS_3_PSZ ALL_ST=LIBRARY - READING_FL=STORY 1_SCH=C MAIN BRANCH,Internal,1
 Parent Node Connection,NODE 45,BRANCH,SYS_3_PSZ ALL_ST=LIBRARY - READING_FL=STORY 1_SCH=C MAIN BRANCH,Outlet,1
 Parent Node Connection,NODE 57,BRANCH,SYS_3_PSZ ALL_ST=LIBRARY - STACKS_FL=STORY 1_SCH=C MAIN BRANCH,Inlet,1
 Parent Node Connection,NODE 66,BRANCH,SYS_3_PSZ ALL_ST=LIBRARY - STACKS_FL=STORY 1_SCH=C MAIN BRANCH,Internal,1
 Parent Node Connection,NODE 65,BRANCH,SYS_3_PSZ ALL_ST=LIBRARY - STACKS_FL=STORY 1_SCH=C MAIN BRANCH,Internal,1
 Parent Node Connection,NODE 64,BRANCH,SYS_3_PSZ ALL_ST=LIBRARY - STACKS_FL=STORY 1_SCH=C MAIN BRANCH,Internal,1
 Parent Node Connection,NODE 58,BRANCH,SYS_3_PSZ ALL_ST=LIBRARY - STACKS_FL=STORY 1_SCH=C MAIN BRANCH,Outlet,1
 Parent Node Connection,NODE 70,BRANCH,SYS_3_PSZ ALL_ST=LOBBY - ELEVATOR_FL=STORY 1_SCH=C MAIN BRANCH,Inlet,1
 Parent Node Connection,NODE 79,BRANCH,SYS_3_PSZ ALL_ST=LOBBY - ELEVATOR_FL=STORY 1_SCH=C MAIN BRANCH,Internal,1
 Parent Node Connection,NODE 78,BRANCH,SYS_3_PSZ ALL_ST=LOBBY - ELEVATOR_FL=STORY 1_SCH=C MAIN BRANCH,Internal,1
 Parent Node Connection,NODE 77,BRANCH,SYS_3_PSZ ALL_ST=LOBBY - ELEVATOR_FL=STORY 1_SCH=C MAIN BRANCH,Internal,1
 Parent Node Connection,NODE 71,BRANCH,SYS_3_PSZ ALL_ST=LOBBY - ELEVATOR_FL=STORY 1_SCH=C MAIN BRANCH,Outlet,1
 Parent Node Connection,NODE 2,BRANCH,HOT WATER LOOP SUPPLY INLET BRANCH,Inlet,1
 Parent Node Connection,NODE 11,BRANCH,HOT WATER LOOP SUPPLY INLET BRANCH,Outlet,1
 Parent Node Connection,NODE 5,BRANCH,HOT WATER LOOP SUPPLY BRANCH 1,Inlet,1
 Parent Node Connection,NODE 12,BRANCH,HOT WATER LOOP SUPPLY BRANCH 1,Outlet,1
 Parent Node Connection,NODE 14,BRANCH,HOT WATER LOOP SUPPLY BRANCH 2,Inlet,1
 Parent Node Connection,NODE 15,BRANCH,HOT WATER LOOP SUPPLY BRANCH 2,Outlet,1
 Parent Node Connection,NODE 16,BRANCH,HOT WATER LOOP SUPPLY BRANCH 3,Inlet,1
 Parent Node Connection,NODE 17,BRANCH,HOT WATER LOOP SUPPLY BRANCH 3,Outlet,1
 Parent Node Connection,NODE 18,BRANCH,HOT WATER LOOP SUPPLY OUTLET BRANCH,Inlet,1
 Parent Node Connection,NODE 3,BRANCH,HOT WATER LOOP SUPPLY OUTLET BRANCH,Outlet,1
 Parent Node Connection,NODE 6,BRANCH,HOT WATER LOOP DEMAND INLET BRANCH,Inlet,1
 Parent Node Connection,HOT WATER LOOP DEMAND INLET PIPE NODE,BRANCH,HOT WATER LOOP DEMAND INLET BRANCH,Outlet,1
 Parent Node Connection,NODE 9,BRANCH,HOT WATER LOOP DEMAND BRANCH 1,Inlet,1
 Parent Node Connection,NODE 30,BRANCH,HOT WATER LOOP DEMAND BRANCH 1,Outlet,1
 Parent Node Connection,NODE 42,BRANCH,HOT WATER LOOP DEMAND BRANCH 2,Inlet,1
 Parent Node Connection,NODE 43,BRANCH,HOT WATER LOOP DEMAND BRANCH 2,Outlet,1
 Parent Node Connection,NODE 55,BRANCH,HOT WATER LOOP DEMAND BRANCH 3,Inlet,1
 Parent Node Connection,NODE 56,BRANCH,HOT WATER LOOP DEMAND BRANCH 3,Outlet,1
 Parent Node Connection,NODE 68,BRANCH,HOT WATER LOOP DEMAND BRANCH 4,Inlet,1
 Parent Node Connection,NODE 69,BRANCH,HOT WATER LOOP DEMAND BRANCH 4,Outlet,1
 Parent Node Connection,NODE 81,BRANCH,HOT WATER LOOP DEMAND BRANCH 5,Inlet,1
 Parent Node Connection,NODE 82,BRANCH,HOT WATER LOOP DEMAND BRANCH 5,Outlet,1
 Parent Node Connection,HOT WATER LOOP DEMAND BYPASS PIPE INLET NODE,BRANCH,HOT WATER LOOP DEMAND BYPASS BRANCH,Inlet,1
 Parent Node Connection,HOT WATER LOOP DEMAND BYPASS PIPE OUTLET NODE,BRANCH,HOT WATER LOOP DEMAND BYPASS BRANCH,Outlet,1
 Parent Node Connection,HOT WATER LOOP DEMAND OUTLET PIPE NODE,BRANCH,HOT WATER LOOP DEMAND OUTLET BRANCH,Inlet,1
 Parent Node Connection,NODE 8,BRANCH,HOT WATER LOOP DEMAND OUTLET BRANCH,Outlet,1
 Parent Node Connection,NODE 83,BRANCH,MAIN SERVICE WATER LOOP SUPPLY INLET BRANCH,Inlet,1
 Parent Node Connection,NODE 89,BRANCH,MAIN SERVICE WATER LOOP SUPPLY INLET BRANCH,Outlet,1
 Parent Node Connection,NODE 85,BRANCH,MAIN SERVICE WATER LOOP SUPPLY BRANCH 1,Inlet,1
 Parent Node Connection,NODE 90,BRANCH,MAIN SERVICE WATER LOOP SUPPLY BRANCH 1,Outlet,1
 Parent Node Connection,NODE 91,BRANCH,MAIN SERVICE WATER LOOP SUPPLY BRANCH 2,Inlet,1
 Parent Node Connection,NODE 92,BRANCH,MAIN SERVICE WATER LOOP SUPPLY BRANCH 2,Outlet,1
 Parent Node Connection,NODE 94,BRANCH,MAIN SERVICE WATER LOOP SUPPLY OUTLET BRANCH,Inlet,1
 Parent Node Connection,NODE 84,BRANCH,MAIN SERVICE WATER LOOP SUPPLY OUTLET BRANCH,Outlet,1
 Parent Node Connection,NODE 86,BRANCH,MAIN SERVICE WATER LOOP DEMAND INLET BRANCH,Inlet,1
 Parent Node Connection,NODE 95,BRANCH,MAIN SERVICE WATER LOOP DEMAND INLET BRANCH,Outlet,1
 Parent Node Connection,NODE 88,BRANCH,MAIN SERVICE WATER LOOP DEMAND BRANCH 1,Inlet,1
 Parent Node Connection,NODE 93,BRANCH,MAIN SERVICE WATER LOOP DEMAND BRANCH 1,Outlet,1
 Parent Node Connection,NODE 97,BRANCH,MAIN SERVICE WATER LOOP DEMAND BRANCH 2,Inlet,1
 Parent Node Connection,NODE 98,BRANCH,MAIN SERVICE WATER LOOP DEMAND BRANCH 2,Outlet,1
 Parent Node Connection,NODE 99,BRANCH,MAIN SERVICE WATER LOOP DEMAND BRANCH 3,Inlet,1
 Parent Node Connection,NODE 100,BRANCH,MAIN SERVICE WATER LOOP DEMAND BRANCH 3,Outlet,1
 Parent Node Connection,NODE 101,BRANCH,MAIN SERVICE WATER LOOP DEMAND BRANCH 4,Inlet,1
 Parent Node Connection,NODE 102,BRANCH,MAIN SERVICE WATER LOOP DEMAND BRANCH 4,Outlet,1
 Parent Node Connection,NODE 103,BRANCH,MAIN SERVICE WATER LOOP DEMAND BRANCH 5,Inlet,1
 Parent Node Connection,NODE 104,BRANCH,MAIN SERVICE WATER LOOP DEMAND BRANCH 5,Outlet,1
 Parent Node Connection,MAIN SERVICE WATER LOOP DEMAND BYPASS PIPE INLET NODE,BRANCH,MAIN SERVICE WATER LOOP DEMAND BYPASS BRANCH,Inlet,1
 Parent Node Connection,MAIN SERVICE WATER LOOP DEMAND BYPASS PIPE OUTLET NODE,BRANCH,MAIN SERVICE WATER LOOP DEMAND BYPASS BRANCH,Outlet,1
 Parent Node Connection,NODE 96,BRANCH,MAIN SERVICE WATER LOOP DEMAND OUTLET BRANCH,Inlet,1
 Parent Node Connection,NODE 87,BRANCH,MAIN SERVICE WATER LOOP DEMAND OUTLET BRANCH,Outlet,1
 Parent Node Connection,NODE 21,AIRLOOPHVAC:SUPPLYPATH,SYS_3_PSZ ALL_ST=LAB - RESEARCH_FL=STORY 1_SCH=A NODE 21 SUPPLY PATH,Inlet,1
 Parent Node Connection,NODE 33,AIRLOOPHVAC:SUPPLYPATH,SYS_3_PSZ ALL_ST=LIBRARY - CATALOGING_FL=STORY 1_SCH=C NODE 33 SUPPLY PATH,Inlet,1
 Parent Node Connection,NODE 46,AIRLOOPHVAC:SUPPLYPATH,SYS_3_PSZ ALL_ST=LIBRARY - READING_FL=STORY 1_SCH=C NODE 46 SUPPLY PATH,Inlet,1
 Parent Node Connection,NODE 59,AIRLOOPHVAC:SUPPLYPATH,SYS_3_PSZ ALL_ST=LIBRARY - STACKS_FL=STORY 1_SCH=C NODE 59 SUPPLY PATH,Inlet,1
 Parent Node Connection,NODE 72,AIRLOOPHVAC:SUPPLYPATH,SYS_3_PSZ ALL_ST=LOBBY - ELEVATOR_FL=STORY 1_SCH=C NODE 72 SUPPLY PATH,Inlet,1
 Parent Node Connection,NODE 22,AIRLOOPHVAC:RETURNPATH,SYS_3_PSZ ALL_ST=LAB - RESEARCH_FL=STORY 1_SCH=A RETURN PATH,Outlet,1
 Parent Node Connection,NODE 34,AIRLOOPHVAC:RETURNPATH,SYS_3_PSZ ALL_ST=LIBRARY - CATALOGING_FL=STORY 1_SCH=C RETURN PATH,Outlet,1
 Parent Node Connection,NODE 47,AIRLOOPHVAC:RETURNPATH,SYS_3_PSZ ALL_ST=LIBRARY - READING_FL=STORY 1_SCH=C RETURN PATH,Outlet,1
 Parent Node Connection,NODE 60,AIRLOOPHVAC:RETURNPATH,SYS_3_PSZ ALL_ST=LIBRARY - STACKS_FL=STORY 1_SCH=C RETURN PATH,Outlet,1
 Parent Node Connection,NODE 73,AIRLOOPHVAC:RETURNPATH,SYS_3_PSZ ALL_ST=LOBBY - ELEVATOR_FL=STORY 1_SCH=C RETURN PATH,Outlet,1
 Parent Node Connection,NODE 2,PLANTLOOP,HOT WATER LOOP,Inlet,1
 Parent Node Connection,NODE 3,PLANTLOOP,HOT WATER LOOP,Outlet,1
 Parent Node Connection,NODE 6,PLANTLOOP,HOT WATER LOOP,Inlet,1
 Parent Node Connection,NODE 8,PLANTLOOP,HOT WATER LOOP,Outlet,1
 Parent Node Connection,NODE 3,PLANTLOOP,HOT WATER LOOP,Sensor,1
 Parent Node Connection,NODE 83,PLANTLOOP,MAIN SERVICE WATER LOOP,Inlet,1
 Parent Node Connection,NODE 84,PLANTLOOP,MAIN SERVICE WATER LOOP,Outlet,1
 Parent Node Connection,NODE 86,PLANTLOOP,MAIN SERVICE WATER LOOP,Inlet,1
 Parent Node Connection,NODE 87,PLANTLOOP,MAIN SERVICE WATER LOOP,Outlet,1
 Parent Node Connection,NODE 84,PLANTLOOP,MAIN SERVICE WATER LOOP,Sensor,1
 Parent Node Connection,NODE 19,AIRLOOPHVAC,SYS_3_PSZ ALL_ST=LAB - RESEARCH_FL=STORY 1_SCH=A,Inlet,1
 Parent Node Connection,NODE 22,AIRLOOPHVAC,SYS_3_PSZ ALL_ST=LAB - RESEARCH_FL=STORY 1_SCH=A,Outlet,1
 Parent Node Connection,NODE 21,AIRLOOPHVAC,SYS_3_PSZ ALL_ST=LAB - RESEARCH_FL=STORY 1_SCH=A,Inlet,1
 Parent Node Connection,NODE 20,AIRLOOPHVAC,SYS_3_PSZ ALL_ST=LAB - RESEARCH_FL=STORY 1_SCH=A,Outlet,1
 Parent Node Connection,NODE 31,AIRLOOPHVAC,SYS_3_PSZ ALL_ST=LIBRARY - CATALOGING_FL=STORY 1_SCH=C,Inlet,1
 Parent Node Connection,NODE 34,AIRLOOPHVAC,SYS_3_PSZ ALL_ST=LIBRARY - CATALOGING_FL=STORY 1_SCH=C,Outlet,1
 Parent Node Connection,NODE 33,AIRLOOPHVAC,SYS_3_PSZ ALL_ST=LIBRARY - CATALOGING_FL=STORY 1_SCH=C,Inlet,1
 Parent Node Connection,NODE 32,AIRLOOPHVAC,SYS_3_PSZ ALL_ST=LIBRARY - CATALOGING_FL=STORY 1_SCH=C,Outlet,1
 Parent Node Connection,NODE 44,AIRLOOPHVAC,SYS_3_PSZ ALL_ST=LIBRARY - READING_FL=STORY 1_SCH=C,Inlet,1
 Parent Node Connection,NODE 47,AIRLOOPHVAC,SYS_3_PSZ ALL_ST=LIBRARY - READING_FL=STORY 1_SCH=C,Outlet,1
 Parent Node Connection,NODE 46,AIRLOOPHVAC,SYS_3_PSZ ALL_ST=LIBRARY - READING_FL=STORY 1_SCH=C,Inlet,1
 Parent Node Connection,NODE 45,AIRLOOPHVAC,SYS_3_PSZ ALL_ST=LIBRARY - READING_FL=STORY 1_SCH=C,Outlet,1
 Parent Node Connection,NODE 57,AIRLOOPHVAC,SYS_3_PSZ ALL_ST=LIBRARY - STACKS_FL=STORY 1_SCH=C,Inlet,1
 Parent Node Connection,NODE 60,AIRLOOPHVAC,SYS_3_PSZ ALL_ST=LIBRARY - STACKS_FL=STORY 1_SCH=C,Outlet,1
 Parent Node Connection,NODE 59,AIRLOOPHVAC,SYS_3_PSZ ALL_ST=LIBRARY - STACKS_FL=STORY 1_SCH=C,Inlet,1
 Parent Node Connection,NODE 58,AIRLOOPHVAC,SYS_3_PSZ ALL_ST=LIBRARY - STACKS_FL=STORY 1_SCH=C,Outlet,1
 Parent Node Connection,NODE 70,AIRLOOPHVAC,SYS_3_PSZ ALL_ST=LOBBY - ELEVATOR_FL=STORY 1_SCH=C,Inlet,1
 Parent Node Connection,NODE 73,AIRLOOPHVAC,SYS_3_PSZ ALL_ST=LOBBY - ELEVATOR_FL=STORY 1_SCH=C,Outlet,1
 Parent Node Connection,NODE 72,AIRLOOPHVAC,SYS_3_PSZ ALL_ST=LOBBY - ELEVATOR_FL=STORY 1_SCH=C,Inlet,1
 Parent Node Connection,NODE 71,AIRLOOPHVAC,SYS_3_PSZ ALL_ST=LOBBY - ELEVATOR_FL=STORY 1_SCH=C,Outlet,1
 Parent Node Connection,NODE 28,COILSYSTEM:COOLING:DX,COIL COOLING DX SINGLE SPEED 1 COILSYSTEM,Inlet,1
 Parent Node Connection,NODE 27,COILSYSTEM:COOLING:DX,COIL COOLING DX SINGLE SPEED 1 COILSYSTEM,Outlet,1
 Parent Node Connection,NODE 27,COILSYSTEM:COOLING:DX,COIL COOLING DX SINGLE SPEED 1 COILSYSTEM,Sensor,1
 Parent Node Connection,NODE 40,COILSYSTEM:COOLING:DX,COIL COOLING DX SINGLE SPEED 2 COILSYSTEM,Inlet,1
 Parent Node Connection,NODE 39,COILSYSTEM:COOLING:DX,COIL COOLING DX SINGLE SPEED 2 COILSYSTEM,Outlet,1
 Parent Node Connection,NODE 39,COILSYSTEM:COOLING:DX,COIL COOLING DX SINGLE SPEED 2 COILSYSTEM,Sensor,1
 Parent Node Connection,NODE 53,COILSYSTEM:COOLING:DX,COIL COOLING DX SINGLE SPEED 3 COILSYSTEM,Inlet,1
 Parent Node Connection,NODE 52,COILSYSTEM:COOLING:DX,COIL COOLING DX SINGLE SPEED 3 COILSYSTEM,Outlet,1
 Parent Node Connection,NODE 52,COILSYSTEM:COOLING:DX,COIL COOLING DX SINGLE SPEED 3 COILSYSTEM,Sensor,1
 Parent Node Connection,NODE 66,COILSYSTEM:COOLING:DX,COIL COOLING DX SINGLE SPEED 4 COILSYSTEM,Inlet,1
 Parent Node Connection,NODE 65,COILSYSTEM:COOLING:DX,COIL COOLING DX SINGLE SPEED 4 COILSYSTEM,Outlet,1
 Parent Node Connection,NODE 65,COILSYSTEM:COOLING:DX,COIL COOLING DX SINGLE SPEED 4 COILSYSTEM,Sensor,1
 Parent Node Connection,NODE 79,COILSYSTEM:COOLING:DX,COIL COOLING DX SINGLE SPEED 5 COILSYSTEM,Inlet,1
 Parent Node Connection,NODE 78,COILSYSTEM:COOLING:DX,COIL COOLING DX SINGLE SPEED 5 COILSYSTEM,Outlet,1
 Parent Node Connection,NODE 78,COILSYSTEM:COOLING:DX,COIL COOLING DX SINGLE SPEED 5 COILSYSTEM,Sensor,1
! ===============================================================
! <#Non-Parent Node Connections>,<Number of Non-Parent Node Connections>
 #Non-Parent Node Connections,275
! <Non-Parent Node Connection>,<Node Name>,<Node ObjectType>,<Node ObjectName>,<Node ConnectionType>,<Node FluidStream>
 Non-Parent Node Connection,NODE 1,ZONEHVAC:EQUIPMENTCONNECTIONS,ALL_ST=LAB - RESEARCH_FL=STORY 1_SCH=A,ZoneNode,1
 Non-Parent Node Connection,NODE 23,ZONEHVAC:EQUIPMENTCONNECTIONS,ALL_ST=LAB - RESEARCH_FL=STORY 1_SCH=A,ZoneInlet,1
 Non-Parent Node Connection,NODE 29,ZONEHVAC:EQUIPMENTCONNECTIONS,ALL_ST=LAB - RESEARCH_FL=STORY 1_SCH=A,ZoneReturn,1
 Non-Parent Node Connection,NODE 4,ZONEHVAC:EQUIPMENTCONNECTIONS,ALL_ST=LIBRARY - CATALOGING_FL=STORY 1_SCH=C,ZoneNode,1
 Non-Parent Node Connection,NODE 35,ZONEHVAC:EQUIPMENTCONNECTIONS,ALL_ST=LIBRARY - CATALOGING_FL=STORY 1_SCH=C,ZoneInlet,1
 Non-Parent Node Connection,NODE 41,ZONEHVAC:EQUIPMENTCONNECTIONS,ALL_ST=LIBRARY - CATALOGING_FL=STORY 1_SCH=C,ZoneReturn,1
 Non-Parent Node Connection,NODE 7,ZONEHVAC:EQUIPMENTCONNECTIONS,ALL_ST=LIBRARY - READING_FL=STORY 1_SCH=C,ZoneNode,1
 Non-Parent Node Connection,NODE 48,ZONEHVAC:EQUIPMENTCONNECTIONS,ALL_ST=LIBRARY - READING_FL=STORY 1_SCH=C,ZoneInlet,1
 Non-Parent Node Connection,NODE 54,ZONEHVAC:EQUIPMENTCONNECTIONS,ALL_ST=LIBRARY - READING_FL=STORY 1_SCH=C,ZoneReturn,1
 Non-Parent Node Connection,NODE 10,ZONEHVAC:EQUIPMENTCONNECTIONS,ALL_ST=LIBRARY - STACKS_FL=STORY 1_SCH=C,ZoneNode,1
 Non-Parent Node Connection,NODE 61,ZONEHVAC:EQUIPMENTCONNECTIONS,ALL_ST=LIBRARY - STACKS_FL=STORY 1_SCH=C,ZoneInlet,1
 Non-Parent Node Connection,NODE 67,ZONEHVAC:EQUIPMENTCONNECTIONS,ALL_ST=LIBRARY - STACKS_FL=STORY 1_SCH=C,ZoneReturn,1
 Non-Parent Node Connection,NODE 13,ZONEHVAC:EQUIPMENTCONNECTIONS,ALL_ST=LOBBY - ELEVATOR_FL=STORY 1_SCH=C,ZoneNode,1
 Non-Parent Node Connection,NODE 74,ZONEHVAC:EQUIPMENTCONNECTIONS,ALL_ST=LOBBY - ELEVATOR_FL=STORY 1_SCH=C,ZoneInlet,1
 Non-Parent Node Connection,NODE 80,ZONEHVAC:EQUIPMENTCONNECTIONS,ALL_ST=LOBBY - ELEVATOR_FL=STORY 1_SCH=C,ZoneReturn,1
 Non-Parent Node Connection,NODE 85,WATERHEATER:MIXED,237GAL NATURALGAS WATER HEATER - 160KBTU/HR,Inlet,1
 Non-Parent Node Connection,NODE 90,WATERHEATER:MIXED,237GAL NATURALGAS WATER HEATER - 160KBTU/HR,Outlet,1
 Non-Parent Node Connection,NODE 24,OUTDOORAIR:NODELIST,OutdoorAir:NodeList,OutdoorAir,1
 Non-Parent Node Connection,NODE 36,OUTDOORAIR:NODELIST,OutdoorAir:NodeList,OutdoorAir,2
 Non-Parent Node Connection,NODE 49,OUTDOORAIR:NODELIST,OutdoorAir:NodeList,OutdoorAir,3
 Non-Parent Node Connection,NODE 62,OUTDOORAIR:NODELIST,OutdoorAir:NodeList,OutdoorAir,4
 Non-Parent Node Connection,NODE 75,OUTDOORAIR:NODELIST,OutdoorAir:NodeList,OutdoorAir,5
 Non-Parent Node Connection,MODEL OUTDOOR AIR NODE,OUTDOORAIR:NODE,OutdoorAir:Node,OutdoorAir,6
 Non-Parent Node Connection,NODE 84,SETPOINTMANAGER:SCHEDULED,SERVICE HOT WATER SETPOINT MANAGER,Setpoint,1
 Non-Parent Node Connection,NODE 3,SETPOINTMANAGER:OUTDOORAIRRESET,SETPOINT MANAGER OUTDOOR AIR RESET 1,Setpoint,1
 Non-Parent Node Connection,NODE 1,SETPOINTMANAGER:SINGLEZONE:REHEAT,SETPOINT MANAGER SINGLE ZONE REHEAT 1,Sensor,1
 Non-Parent Node Connection,NODE 23,SETPOINTMANAGER:SINGLEZONE:REHEAT,SETPOINT MANAGER SINGLE ZONE REHEAT 1,Sensor,1
 Non-Parent Node Connection,NODE 20,SETPOINTMANAGER:SINGLEZONE:REHEAT,SETPOINT MANAGER SINGLE ZONE REHEAT 1,Setpoint,1
 Non-Parent Node Connection,NODE 4,SETPOINTMANAGER:SINGLEZONE:REHEAT,SETPOINT MANAGER SINGLE ZONE REHEAT 2,Sensor,1
 Non-Parent Node Connection,NODE 35,SETPOINTMANAGER:SINGLEZONE:REHEAT,SETPOINT MANAGER SINGLE ZONE REHEAT 2,Sensor,1
 Non-Parent Node Connection,NODE 32,SETPOINTMANAGER:SINGLEZONE:REHEAT,SETPOINT MANAGER SINGLE ZONE REHEAT 2,Setpoint,1
 Non-Parent Node Connection,NODE 7,SETPOINTMANAGER:SINGLEZONE:REHEAT,SETPOINT MANAGER SINGLE ZONE REHEAT 3,Sensor,1
 Non-Parent Node Connection,NODE 48,SETPOINTMANAGER:SINGLEZONE:REHEAT,SETPOINT MANAGER SINGLE ZONE REHEAT 3,Sensor,1
 Non-Parent Node Connection,NODE 45,SETPOINTMANAGER:SINGLEZONE:REHEAT,SETPOINT MANAGER SINGLE ZONE REHEAT 3,Setpoint,1
 Non-Parent Node Connection,NODE 10,SETPOINTMANAGER:SINGLEZONE:REHEAT,SETPOINT MANAGER SINGLE ZONE REHEAT 4,Sensor,1
 Non-Parent Node Connection,NODE 61,SETPOINTMANAGER:SINGLEZONE:REHEAT,SETPOINT MANAGER SINGLE ZONE REHEAT 4,Sensor,1
 Non-Parent Node Connection,NODE 58,SETPOINTMANAGER:SINGLEZONE:REHEAT,SETPOINT MANAGER SINGLE ZONE REHEAT 4,Setpoint,1
 Non-Parent Node Connection,NODE 13,SETPOINTMANAGER:SINGLEZONE:REHEAT,SETPOINT MANAGER SINGLE ZONE REHEAT 5,Sensor,1
 Non-Parent Node Connection,NODE 74,SETPOINTMANAGER:SINGLEZONE:REHEAT,SETPOINT MANAGER SINGLE ZONE REHEAT 5,Sensor,1
 Non-Parent Node Connection,NODE 71,SETPOINTMANAGER:SINGLEZONE:REHEAT,SETPOINT MANAGER SINGLE ZONE REHEAT 5,Setpoint,1
 Non-Parent Node Connection,NODE 20,SETPOINTMANAGER:MIXEDAIR,NODE 28 OS DEFAULT SPM,Sensor,1
 Non-Parent Node Connection,NODE 26,SETPOINTMANAGER:MIXEDAIR,NODE 28 OS DEFAULT SPM,Sensor,1
 Non-Parent Node Connection,NODE 28,SETPOINTMANAGER:MIXEDAIR,NODE 28 OS DEFAULT SPM,Setpoint,1
 Non-Parent Node Connection,NODE 20,SETPOINTMANAGER:MIXEDAIR,NODE 27 OS DEFAULT SPM,Sensor,1
 Non-Parent Node Connection,NODE 26,SETPOINTMANAGER:MIXEDAIR,NODE 27 OS DEFAULT SPM,Sensor,1
 Non-Parent Node Connection,NODE 27,SETPOINTMANAGER:MIXEDAIR,NODE 27 OS DEFAULT SPM,Setpoint,1
 Non-Parent Node Connection,NODE 20,SETPOINTMANAGER:MIXEDAIR,NODE 26 OS DEFAULT SPM,Sensor,1
 Non-Parent Node Connection,NODE 26,SETPOINTMANAGER:MIXEDAIR,NODE 26 OS DEFAULT SPM,Sensor,1
 Non-Parent Node Connection,NODE 26,SETPOINTMANAGER:MIXEDAIR,NODE 26 OS DEFAULT SPM,Setpoint,1
 Non-Parent Node Connection,NODE 32,SETPOINTMANAGER:MIXEDAIR,NODE 40 OS DEFAULT SPM,Sensor,1
 Non-Parent Node Connection,NODE 38,SETPOINTMANAGER:MIXEDAIR,NODE 40 OS DEFAULT SPM,Sensor,1
 Non-Parent Node Connection,NODE 40,SETPOINTMANAGER:MIXEDAIR,NODE 40 OS DEFAULT SPM,Setpoint,1
 Non-Parent Node Connection,NODE 32,SETPOINTMANAGER:MIXEDAIR,NODE 39 OS DEFAULT SPM,Sensor,1
 Non-Parent Node Connection,NODE 38,SETPOINTMANAGER:MIXEDAIR,NODE 39 OS DEFAULT SPM,Sensor,1
 Non-Parent Node Connection,NODE 39,SETPOINTMANAGER:MIXEDAIR,NODE 39 OS DEFAULT SPM,Setpoint,1
 Non-Parent Node Connection,NODE 32,SETPOINTMANAGER:MIXEDAIR,NODE 38 OS DEFAULT SPM,Sensor,1
 Non-Parent Node Connection,NODE 38,SETPOINTMANAGER:MIXEDAIR,NODE 38 OS DEFAULT SPM,Sensor,1
 Non-Parent Node Connection,NODE 38,SETPOINTMANAGER:MIXEDAIR,NODE 38 OS DEFAULT SPM,Setpoint,1
 Non-Parent Node Connection,NODE 45,SETPOINTMANAGER:MIXEDAIR,NODE 53 OS DEFAULT SPM,Sensor,1
 Non-Parent Node Connection,NODE 51,SETPOINTMANAGER:MIXEDAIR,NODE 53 OS DEFAULT SPM,Sensor,1
 Non-Parent Node Connection,NODE 53,SETPOINTMANAGER:MIXEDAIR,NODE 53 OS DEFAULT SPM,Setpoint,1
 Non-Parent Node Connection,NODE 45,SETPOINTMANAGER:MIXEDAIR,NODE 52 OS DEFAULT SPM,Sensor,1
 Non-Parent Node Connection,NODE 51,SETPOINTMANAGER:MIXEDAIR,NODE 52 OS DEFAULT SPM,Sensor,1
 Non-Parent Node Connection,NODE 52,SETPOINTMANAGER:MIXEDAIR,NODE 52 OS DEFAULT SPM,Setpoint,1
 Non-Parent Node Connection,NODE 45,SETPOINTMANAGER:MIXEDAIR,NODE 51 OS DEFAULT SPM,Sensor,1
 Non-Parent Node Connection,NODE 51,SETPOINTMANAGER:MIXEDAIR,NODE 51 OS DEFAULT SPM,Sensor,1
 Non-Parent Node Connection,NODE 51,SETPOINTMANAGER:MIXEDAIR,NODE 51 OS DEFAULT SPM,Setpoint,1
 Non-Parent Node Connection,NODE 58,SETPOINTMANAGER:MIXEDAIR,NODE 66 OS DEFAULT SPM,Sensor,1
 Non-Parent Node Connection,NODE 64,SETPOINTMANAGER:MIXEDAIR,NODE 66 OS DEFAULT SPM,Sensor,1
 Non-Parent Node Connection,NODE 66,SETPOINTMANAGER:MIXEDAIR,NODE 66 OS DEFAULT SPM,Setpoint,1
 Non-Parent Node Connection,NODE 58,SETPOINTMANAGER:MIXEDAIR,NODE 65 OS DEFAULT SPM,Sensor,1
 Non-Parent Node Connection,NODE 64,SETPOINTMANAGER:MIXEDAIR,NODE 65 OS DEFAULT SPM,Sensor,1
 Non-Parent Node Connection,NODE 65,SETPOINTMANAGER:MIXEDAIR,NODE 65 OS DEFAULT SPM,Setpoint,1
 Non-Parent Node Connection,NODE 58,SETPOINTMANAGER:MIXEDAIR,NODE 64 OS DEFAULT SPM,Sensor,1
 Non-Parent Node Connection,NODE 64,SETPOINTMANAGER:MIXEDAIR,NODE 64 OS DEFAULT SPM,Sensor,1
 Non-Parent Node Connection,NODE 64,SETPOINTMANAGER:MIXEDAIR,NODE 64 OS DEFAULT SPM,Setpoint,1
 Non-Parent Node Connection,NODE 71,SETPOINTMANAGER:MIXEDAIR,NODE 79 OS DEFAULT SPM,Sensor,1
 Non-Parent Node Connection,NODE 77,SETPOINTMANAGER:MIXEDAIR,NODE 79 OS DEFAULT SPM,Sensor,1
 Non-Parent Node Connection,NODE 79,SETPOINTMANAGER:MIXEDAIR,NODE 79 OS DEFAULT SPM,Setpoint,1
 Non-Parent Node Connection,NODE 71,SETPOINTMANAGER:MIXEDAIR,NODE 78 OS DEFAULT SPM,Sensor,1
 Non-Parent Node Connection,NODE 77,SETPOINTMANAGER:MIXEDAIR,NODE 78 OS DEFAULT SPM,Sensor,1
 Non-Parent Node Connection,NODE 78,SETPOINTMANAGER:MIXEDAIR,NODE 78 OS DEFAULT SPM,Setpoint,1
 Non-Parent Node Connection,NODE 71,SETPOINTMANAGER:MIXEDAIR,NODE 77 OS DEFAULT SPM,Sensor,1
 Non-Parent Node Connection,NODE 77,SETPOINTMANAGER:MIXEDAIR,NODE 77 OS DEFAULT SPM,Sensor,1
 Non-Parent Node Connection,NODE 77,SETPOINTMANAGER:MIXEDAIR,NODE 77 OS DEFAULT SPM,Setpoint,1
 Non-Parent Node Connection,NODE 16,PIPE:ADIABATIC,PIPE ADIABATIC 1,Inlet,1
 Non-Parent Node Connection,NODE 17,PIPE:ADIABATIC,PIPE ADIABATIC 1,Outlet,1
 Non-Parent Node Connection,NODE 18,PIPE:ADIABATIC,PIPE ADIABATIC 2,Inlet,1
 Non-Parent Node Connection,NODE 3,PIPE:ADIABATIC,PIPE ADIABATIC 2,Outlet,1
 Non-Parent Node Connection,NODE 6,PIPE:ADIABATIC,HOT WATER LOOP DEMAND INLET PIPE,Inlet,1
 Non-Parent Node Connection,HOT WATER LOOP DEMAND INLET PIPE NODE,PIPE:ADIABATIC,HOT WATER LOOP DEMAND INLET PIPE,Outlet,1
 Non-Parent Node Connection,HOT WATER LOOP DEMAND BYPASS PIPE INLET NODE,PIPE:ADIABATIC,HOT WATER LOOP DEMAND BYPASS PIPE,Inlet,1
 Non-Parent Node Connection,HOT WATER LOOP DEMAND BYPASS PIPE OUTLET NODE,PIPE:ADIABATIC,HOT WATER LOOP DEMAND BYPASS PIPE,Outlet,1
 Non-Parent Node Connection,HOT WATER LOOP DEMAND OUTLET PIPE NODE,PIPE:ADIABATIC,HOT WATER LOOP DEMAND OUTLET PIPE,Inlet,1
 Non-Parent Node Connection,NODE 8,PIPE:ADIABATIC,HOT WATER LOOP DEMAND OUTLET PIPE,Outlet,1
 Non-Parent Node Connection,NODE 91,PIPE:ADIABATIC,PIPE ADIABATIC 3,Inlet,1
 Non-Parent Node Connection,NODE 92,PIPE:ADIABATIC,PIPE ADIABATIC 3,Outlet,1
 Non-Parent Node Connection,NODE 94,PIPE:ADIABATIC,PIPE ADIABATIC 5,Inlet,1
 Non-Parent Node Connection,NODE 84,PIPE:ADIABATIC,PIPE ADIABATIC 5,Outlet,1
 Non-Parent Node Connection,NODE 86,PIPE:ADIABATIC,PIPE ADIABATIC 6,Inlet,1
 Non-Parent Node Connection,NODE 95,PIPE:ADIABATIC,PIPE ADIABATIC 6,Outlet,1
 Non-Parent Node Connection,NODE 88,PIPE:ADIABATIC,PIPE ADIABATIC 4,Inlet,1
 Non-Parent Node Connection,NODE 93,PIPE:ADIABATIC,PIPE ADIABATIC 4,Outlet,1
 Non-Parent Node Connection,MAIN SERVICE WATER LOOP DEMAND BYPASS PIPE INLET NODE,PIPE:ADIABATIC,MAIN SERVICE WATER LOOP DEMAND BYPASS PIPE,Inlet,1
 Non-Parent Node Connection,MAIN SERVICE WATER LOOP DEMAND BYPASS PIPE OUTLET NODE,PIPE:ADIABATIC,MAIN SERVICE WATER LOOP DEMAND BYPASS PIPE,Outlet,1
 Non-Parent Node Connection,NODE 96,PIPE:ADIABATIC,PIPE ADIABATIC 7,Inlet,1
 Non-Parent Node Connection,NODE 87,PIPE:ADIABATIC,PIPE ADIABATIC 7,Outlet,1
 Non-Parent Node Connection,HOT WATER LOOP DEMAND INLET PIPE NODE,CONNECTOR:SPLITTER,HOT WATER LOOP DEMAND SPLITTER,Inlet,1
 Non-Parent Node Connection,NODE 9,CONNECTOR:SPLITTER,HOT WATER LOOP DEMAND SPLITTER,Outlet,1
 Non-Parent Node Connection,NODE 42,CONNECTOR:SPLITTER,HOT WATER LOOP DEMAND SPLITTER,Outlet,1
 Non-Parent Node Connection,NODE 55,CONNECTOR:SPLITTER,HOT WATER LOOP DEMAND SPLITTER,Outlet,1
 Non-Parent Node Connection,NODE 68,CONNECTOR:SPLITTER,HOT WATER LOOP DEMAND SPLITTER,Outlet,1
 Non-Parent Node Connection,NODE 81,CONNECTOR:SPLITTER,HOT WATER LOOP DEMAND SPLITTER,Outlet,1
 Non-Parent Node Connection,HOT WATER LOOP DEMAND BYPASS PIPE INLET NODE,CONNECTOR:SPLITTER,HOT WATER LOOP DEMAND SPLITTER,Outlet,1
 Non-Parent Node Connection,HOT WATER LOOP DEMAND OUTLET PIPE NODE,CONNECTOR:MIXER,HOT WATER LOOP DEMAND MIXER,Outlet,1
 Non-Parent Node Connection,NODE 30,CONNECTOR:MIXER,HOT WATER LOOP DEMAND MIXER,Inlet,1
 Non-Parent Node Connection,NODE 43,CONNECTOR:MIXER,HOT WATER LOOP DEMAND MIXER,Inlet,1
 Non-Parent Node Connection,NODE 56,CONNECTOR:MIXER,HOT WATER LOOP DEMAND MIXER,Inlet,1
 Non-Parent Node Connection,NODE 69,CONNECTOR:MIXER,HOT WATER LOOP DEMAND MIXER,Inlet,1
 Non-Parent Node Connection,NODE 82,CONNECTOR:MIXER,HOT WATER LOOP DEMAND MIXER,Inlet,1
 Non-Parent Node Connection,HOT WATER LOOP DEMAND BYPASS PIPE OUTLET NODE,CONNECTOR:MIXER,HOT WATER LOOP DEMAND MIXER,Inlet,1
 Non-Parent Node Connection,NODE 11,CONNECTOR:SPLITTER,HOT WATER LOOP SUPPLY SPLITTER,Inlet,1
 Non-Parent Node Connection,NODE 5,CONNECTOR:SPLITTER,HOT WATER LOOP SUPPLY SPLITTER,Outlet,1
 Non-Parent Node Connection,NODE 14,CONNECTOR:SPLITTER,HOT WATER LOOP SUPPLY SPLITTER,Outlet,1
 Non-Parent Node Connection,NODE 16,CONNECTOR:SPLITTER,HOT WATER LOOP SUPPLY SPLITTER,Outlet,1
 Non-Parent Node Connection,NODE 18,CONNECTOR:MIXER,HOT WATER LOOP SUPPLY MIXER,Outlet,1
 Non-Parent Node Connection,NODE 12,CONNECTOR:MIXER,HOT WATER LOOP SUPPLY MIXER,Inlet,1
 Non-Parent Node Connection,NODE 15,CONNECTOR:MIXER,HOT WATER LOOP SUPPLY MIXER,Inlet,1
 Non-Parent Node Connection,NODE 17,CONNECTOR:MIXER,HOT WATER LOOP SUPPLY MIXER,Inlet,1
 Non-Parent Node Connection,NODE 95,CONNECTOR:SPLITTER,MAIN SERVICE WATER LOOP DEMAND SPLITTER,Inlet,1
 Non-Parent Node Connection,NODE 88,CONNECTOR:SPLITTER,MAIN SERVICE WATER LOOP DEMAND SPLITTER,Outlet,1
 Non-Parent Node Connection,NODE 97,CONNECTOR:SPLITTER,MAIN SERVICE WATER LOOP DEMAND SPLITTER,Outlet,1
 Non-Parent Node Connection,NODE 99,CONNECTOR:SPLITTER,MAIN SERVICE WATER LOOP DEMAND SPLITTER,Outlet,1
 Non-Parent Node Connection,NODE 101,CONNECTOR:SPLITTER,MAIN SERVICE WATER LOOP DEMAND SPLITTER,Outlet,1
 Non-Parent Node Connection,NODE 103,CONNECTOR:SPLITTER,MAIN SERVICE WATER LOOP DEMAND SPLITTER,Outlet,1
 Non-Parent Node Connection,MAIN SERVICE WATER LOOP DEMAND BYPASS PIPE INLET NODE,CONNECTOR:SPLITTER,MAIN SERVICE WATER LOOP DEMAND SPLITTER,Outlet,1
 Non-Parent Node Connection,NODE 96,CONNECTOR:MIXER,MAIN SERVICE WATER LOOP DEMAND MIXER,Outlet,1
 Non-Parent Node Connection,NODE 93,CONNECTOR:MIXER,MAIN SERVICE WATER LOOP DEMAND MIXER,Inlet,1
 Non-Parent Node Connection,NODE 98,CONNECTOR:MIXER,MAIN SERVICE WATER LOOP DEMAND MIXER,Inlet,1
 Non-Parent Node Connection,NODE 100,CONNECTOR:MIXER,MAIN SERVICE WATER LOOP DEMAND MIXER,Inlet,1
 Non-Parent Node Connection,NODE 102,CONNECTOR:MIXER,MAIN SERVICE WATER LOOP DEMAND MIXER,Inlet,1
 Non-Parent Node Connection,NODE 104,CONNECTOR:MIXER,MAIN SERVICE WATER LOOP DEMAND MIXER,Inlet,1
 Non-Parent Node Connection,MAIN SERVICE WATER LOOP DEMAND BYPASS PIPE OUTLET NODE,CONNECTOR:MIXER,MAIN SERVICE WATER LOOP DEMAND MIXER,Inlet,1
 Non-Parent Node Connection,NODE 89,CONNECTOR:SPLITTER,MAIN SERVICE WATER LOOP SUPPLY SPLITTER,Inlet,1
 Non-Parent Node Connection,NODE 85,CONNECTOR:SPLITTER,MAIN SERVICE WATER LOOP SUPPLY SPLITTER,Outlet,1
 Non-Parent Node Connection,NODE 91,CONNECTOR:SPLITTER,MAIN SERVICE WATER LOOP SUPPLY SPLITTER,Outlet,1
 Non-Parent Node Connection,NODE 94,CONNECTOR:MIXER,MAIN SERVICE WATER LOOP SUPPLY MIXER,Outlet,1
 Non-Parent Node Connection,NODE 90,CONNECTOR:MIXER,MAIN SERVICE WATER LOOP SUPPLY MIXER,Inlet,1
 Non-Parent Node Connection,NODE 92,CONNECTOR:MIXER,MAIN SERVICE WATER LOOP SUPPLY MIXER,Inlet,1
 Non-Parent Node Connection,NODE 97,WATERUSE:CONNECTIONS,WATER USE CONNECTIONS 1,Inlet,1
 Non-Parent Node Connection,NODE 98,WATERUSE:CONNECTIONS,WATER USE CONNECTIONS 1,Outlet,1
 Non-Parent Node Connection,NODE 99,WATERUSE:CONNECTIONS,WATER USE CONNECTIONS 2,Inlet,1
 Non-Parent Node Connection,NODE 100,WATERUSE:CONNECTIONS,WATER USE CONNECTIONS 2,Outlet,1
 Non-Parent Node Connection,NODE 101,WATERUSE:CONNECTIONS,WATER USE CONNECTIONS 3,Inlet,1
 Non-Parent Node Connection,NODE 102,WATERUSE:CONNECTIONS,WATER USE CONNECTIONS 3,Outlet,1
 Non-Parent Node Connection,NODE 103,WATERUSE:CONNECTIONS,WATER USE CONNECTIONS 4,Inlet,1
 Non-Parent Node Connection,NODE 104,WATERUSE:CONNECTIONS,WATER USE CONNECTIONS 4,Outlet,1
 Non-Parent Node Connection,NODE 21,AIRLOOPHVAC:ZONESPLITTER,AIR LOOP HVAC ZONE SPLITTER 1,Inlet,1
 Non-Parent Node Connection,NODE 23,AIRLOOPHVAC:ZONESPLITTER,AIR LOOP HVAC ZONE SPLITTER 1,Outlet,1
 Non-Parent Node Connection,NODE 33,AIRLOOPHVAC:ZONESPLITTER,AIR LOOP HVAC ZONE SPLITTER 2,Inlet,1
 Non-Parent Node Connection,NODE 35,AIRLOOPHVAC:ZONESPLITTER,AIR LOOP HVAC ZONE SPLITTER 2,Outlet,1
 Non-Parent Node Connection,NODE 46,AIRLOOPHVAC:ZONESPLITTER,AIR LOOP HVAC ZONE SPLITTER 3,Inlet,1
 Non-Parent Node Connection,NODE 48,AIRLOOPHVAC:ZONESPLITTER,AIR LOOP HVAC ZONE SPLITTER 3,Outlet,1
 Non-Parent Node Connection,NODE 59,AIRLOOPHVAC:ZONESPLITTER,AIR LOOP HVAC ZONE SPLITTER 4,Inlet,1
 Non-Parent Node Connection,NODE 61,AIRLOOPHVAC:ZONESPLITTER,AIR LOOP HVAC ZONE SPLITTER 4,Outlet,1
 Non-Parent Node Connection,NODE 72,AIRLOOPHVAC:ZONESPLITTER,AIR LOOP HVAC ZONE SPLITTER 5,Inlet,1
 Non-Parent Node Connection,NODE 74,AIRLOOPHVAC:ZONESPLITTER,AIR LOOP HVAC ZONE SPLITTER 5,Outlet,1
 Non-Parent Node Connection,NODE 23,AIRTERMINAL:SINGLEDUCT:UNCONTROLLED,AIR TERMINAL SINGLE DUCT UNCONTROLLED 1,Outlet,1
 Non-Parent Node Connection,NODE 35,AIRTERMINAL:SINGLEDUCT:UNCONTROLLED,AIR TERMINAL SINGLE DUCT UNCONTROLLED 2,Outlet,1
 Non-Parent Node Connection,NODE 48,AIRTERMINAL:SINGLEDUCT:UNCONTROLLED,AIR TERMINAL SINGLE DUCT UNCONTROLLED 3,Outlet,1
 Non-Parent Node Connection,NODE 61,AIRTERMINAL:SINGLEDUCT:UNCONTROLLED,AIR TERMINAL SINGLE DUCT UNCONTROLLED 4,Outlet,1
 Non-Parent Node Connection,NODE 74,AIRTERMINAL:SINGLEDUCT:UNCONTROLLED,AIR TERMINAL SINGLE DUCT UNCONTROLLED 5,Outlet,1
 Non-Parent Node Connection,NODE 9,ZONEHVAC:BASEBOARD:CONVECTIVE:WATER,ZONE HVAC BASEBOARD CONVECTIVE WATER 1,Inlet,1
 Non-Parent Node Connection,NODE 30,ZONEHVAC:BASEBOARD:CONVECTIVE:WATER,ZONE HVAC BASEBOARD CONVECTIVE WATER 1,Outlet,1
 Non-Parent Node Connection,NODE 42,ZONEHVAC:BASEBOARD:CONVECTIVE:WATER,ZONE HVAC BASEBOARD CONVECTIVE WATER 2,Inlet,1
 Non-Parent Node Connection,NODE 43,ZONEHVAC:BASEBOARD:CONVECTIVE:WATER,ZONE HVAC BASEBOARD CONVECTIVE WATER 2,Outlet,1
 Non-Parent Node Connection,NODE 55,ZONEHVAC:BASEBOARD:CONVECTIVE:WATER,ZONE HVAC BASEBOARD CONVECTIVE WATER 3,Inlet,1
 Non-Parent Node Connection,NODE 56,ZONEHVAC:BASEBOARD:CONVECTIVE:WATER,ZONE HVAC BASEBOARD CONVECTIVE WATER 3,Outlet,1
 Non-Parent Node Connection,NODE 68,ZONEHVAC:BASEBOARD:CONVECTIVE:WATER,ZONE HVAC BASEBOARD CONVECTIVE WATER 4,Inlet,1
 Non-Parent Node Connection,NODE 69,ZONEHVAC:BASEBOARD:CONVECTIVE:WATER,ZONE HVAC BASEBOARD CONVECTIVE WATER 4,Outlet,1
 Non-Parent Node Connection,NODE 81,ZONEHVAC:BASEBOARD:CONVECTIVE:WATER,ZONE HVAC BASEBOARD CONVECTIVE WATER 5,Inlet,1
 Non-Parent Node Connection,NODE 82,ZONEHVAC:BASEBOARD:CONVECTIVE:WATER,ZONE HVAC BASEBOARD CONVECTIVE WATER 5,Outlet,1
 Non-Parent Node Connection,NODE 22,AIRLOOPHVAC:ZONEMIXER,AIR LOOP HVAC ZONE MIXER 1,Outlet,1
 Non-Parent Node Connection,NODE 29,AIRLOOPHVAC:ZONEMIXER,AIR LOOP HVAC ZONE MIXER 1,Inlet,1
 Non-Parent Node Connection,NODE 34,AIRLOOPHVAC:ZONEMIXER,AIR LOOP HVAC ZONE MIXER 2,Outlet,1
 Non-Parent Node Connection,NODE 41,AIRLOOPHVAC:ZONEMIXER,AIR LOOP HVAC ZONE MIXER 2,Inlet,1
 Non-Parent Node Connection,NODE 47,AIRLOOPHVAC:ZONEMIXER,AIR LOOP HVAC ZONE MIXER 3,Outlet,1
 Non-Parent Node Connection,NODE 54,AIRLOOPHVAC:ZONEMIXER,AIR LOOP HVAC ZONE MIXER 3,Inlet,1
 Non-Parent Node Connection,NODE 60,AIRLOOPHVAC:ZONEMIXER,AIR LOOP HVAC ZONE MIXER 4,Outlet,1
 Non-Parent Node Connection,NODE 67,AIRLOOPHVAC:ZONEMIXER,AIR LOOP HVAC ZONE MIXER 4,Inlet,1
 Non-Parent Node Connection,NODE 73,AIRLOOPHVAC:ZONEMIXER,AIR LOOP HVAC ZONE MIXER 5,Outlet,1
 Non-Parent Node Connection,NODE 80,AIRLOOPHVAC:ZONEMIXER,AIR LOOP HVAC ZONE MIXER 5,Inlet,1
 Non-Parent Node Connection,NODE 28,OUTDOORAIR:MIXER,AIR LOOP HVAC OUTDOOR AIR SYSTEM 1 OUTDOOR AIR MIXER,Outlet,1
 Non-Parent Node Connection,NODE 24,OUTDOORAIR:MIXER,AIR LOOP HVAC OUTDOOR AIR SYSTEM 1 OUTDOOR AIR MIXER,Inlet,1
 Non-Parent Node Connection,NODE 25,OUTDOORAIR:MIXER,AIR LOOP HVAC OUTDOOR AIR SYSTEM 1 OUTDOOR AIR MIXER,ReliefAir,1
 Non-Parent Node Connection,NODE 19,OUTDOORAIR:MIXER,AIR LOOP HVAC OUTDOOR AIR SYSTEM 1 OUTDOOR AIR MIXER,Inlet,1
 Non-Parent Node Connection,NODE 40,OUTDOORAIR:MIXER,AIR LOOP HVAC OUTDOOR AIR SYSTEM 2 OUTDOOR AIR MIXER,Outlet,1
 Non-Parent Node Connection,NODE 36,OUTDOORAIR:MIXER,AIR LOOP HVAC OUTDOOR AIR SYSTEM 2 OUTDOOR AIR MIXER,Inlet,1
 Non-Parent Node Connection,NODE 37,OUTDOORAIR:MIXER,AIR LOOP HVAC OUTDOOR AIR SYSTEM 2 OUTDOOR AIR MIXER,ReliefAir,1
 Non-Parent Node Connection,NODE 31,OUTDOORAIR:MIXER,AIR LOOP HVAC OUTDOOR AIR SYSTEM 2 OUTDOOR AIR MIXER,Inlet,1
 Non-Parent Node Connection,NODE 53,OUTDOORAIR:MIXER,AIR LOOP HVAC OUTDOOR AIR SYSTEM 3 OUTDOOR AIR MIXER,Outlet,1
 Non-Parent Node Connection,NODE 49,OUTDOORAIR:MIXER,AIR LOOP HVAC OUTDOOR AIR SYSTEM 3 OUTDOOR AIR MIXER,Inlet,1
 Non-Parent Node Connection,NODE 50,OUTDOORAIR:MIXER,AIR LOOP HVAC OUTDOOR AIR SYSTEM 3 OUTDOOR AIR MIXER,ReliefAir,1
 Non-Parent Node Connection,NODE 44,OUTDOORAIR:MIXER,AIR LOOP HVAC OUTDOOR AIR SYSTEM 3 OUTDOOR AIR MIXER,Inlet,1
 Non-Parent Node Connection,NODE 66,OUTDOORAIR:MIXER,AIR LOOP HVAC OUTDOOR AIR SYSTEM 4 OUTDOOR AIR MIXER,Outlet,1
 Non-Parent Node Connection,NODE 62,OUTDOORAIR:MIXER,AIR LOOP HVAC OUTDOOR AIR SYSTEM 4 OUTDOOR AIR MIXER,Inlet,1
 Non-Parent Node Connection,NODE 63,OUTDOORAIR:MIXER,AIR LOOP HVAC OUTDOOR AIR SYSTEM 4 OUTDOOR AIR MIXER,ReliefAir,1
 Non-Parent Node Connection,NODE 57,OUTDOORAIR:MIXER,AIR LOOP HVAC OUTDOOR AIR SYSTEM 4 OUTDOOR AIR MIXER,Inlet,1
 Non-Parent Node Connection,NODE 79,OUTDOORAIR:MIXER,AIR LOOP HVAC OUTDOOR AIR SYSTEM 5 OUTDOOR AIR MIXER,Outlet,1
 Non-Parent Node Connection,NODE 75,OUTDOORAIR:MIXER,AIR LOOP HVAC OUTDOOR AIR SYSTEM 5 OUTDOOR AIR MIXER,Inlet,1
 Non-Parent Node Connection,NODE 76,OUTDOORAIR:MIXER,AIR LOOP HVAC OUTDOOR AIR SYSTEM 5 OUTDOOR AIR MIXER,ReliefAir,1
 Non-Parent Node Connection,NODE 70,OUTDOORAIR:MIXER,AIR LOOP HVAC OUTDOOR AIR SYSTEM 5 OUTDOOR AIR MIXER,Inlet,1
 Non-Parent Node Connection,NODE 26,FAN:CONSTANTVOLUME,FAN CONSTANT VOLUME 1,Inlet,1
 Non-Parent Node Connection,NODE 20,FAN:CONSTANTVOLUME,FAN CONSTANT VOLUME 1,Outlet,1
 Non-Parent Node Connection,NODE 38,FAN:CONSTANTVOLUME,FAN CONSTANT VOLUME 2,Inlet,1
 Non-Parent Node Connection,NODE 32,FAN:CONSTANTVOLUME,FAN CONSTANT VOLUME 2,Outlet,1
 Non-Parent Node Connection,NODE 51,FAN:CONSTANTVOLUME,FAN CONSTANT VOLUME 3,Inlet,1
 Non-Parent Node Connection,NODE 45,FAN:CONSTANTVOLUME,FAN CONSTANT VOLUME 3,Outlet,1
 Non-Parent Node Connection,NODE 64,FAN:CONSTANTVOLUME,FAN CONSTANT VOLUME 4,Inlet,1
 Non-Parent Node Connection,NODE 58,FAN:CONSTANTVOLUME,FAN CONSTANT VOLUME 4,Outlet,1
 Non-Parent Node Connection,NODE 77,FAN:CONSTANTVOLUME,FAN CONSTANT VOLUME 5,Inlet,1
 Non-Parent Node Connection,NODE 71,FAN:CONSTANTVOLUME,FAN CONSTANT VOLUME 5,Outlet,1
 Non-Parent Node Connection,NODE 28,CONTROLLER:OUTDOORAIR,CONTROLLER OUTDOOR AIR 1,Sensor,1
 Non-Parent Node Connection,NODE 24,CONTROLLER:OUTDOORAIR,CONTROLLER OUTDOOR AIR 1,Actuator,1
 Non-Parent Node Connection,NODE 25,CONTROLLER:OUTDOORAIR,CONTROLLER OUTDOOR AIR 1,Actuator,1
 Non-Parent Node Connection,NODE 19,CONTROLLER:OUTDOORAIR,CONTROLLER OUTDOOR AIR 1,Sensor,1
 Non-Parent Node Connection,NODE 40,CONTROLLER:OUTDOORAIR,CONTROLLER OUTDOOR AIR 2,Sensor,1
 Non-Parent Node Connection,NODE 36,CONTROLLER:OUTDOORAIR,CONTROLLER OUTDOOR AIR 2,Actuator,1
 Non-Parent Node Connection,NODE 37,CONTROLLER:OUTDOORAIR,CONTROLLER OUTDOOR AIR 2,Actuator,1
 Non-Parent Node Connection,NODE 31,CONTROLLER:OUTDOORAIR,CONTROLLER OUTDOOR AIR 2,Sensor,1
 Non-Parent Node Connection,NODE 53,CONTROLLER:OUTDOORAIR,CONTROLLER OUTDOOR AIR 3,Sensor,1
 Non-Parent Node Connection,NODE 49,CONTROLLER:OUTDOORAIR,CONTROLLER OUTDOOR AIR 3,Actuator,1
 Non-Parent Node Connection,NODE 50,CONTROLLER:OUTDOORAIR,CONTROLLER OUTDOOR AIR 3,Actuator,1
 Non-Parent Node Connection,NODE 44,CONTROLLER:OUTDOORAIR,CONTROLLER OUTDOOR AIR 3,Sensor,1
 Non-Parent Node Connection,NODE 66,CONTROLLER:OUTDOORAIR,CONTROLLER OUTDOOR AIR 4,Sensor,1
 Non-Parent Node Connection,NODE 62,CONTROLLER:OUTDOORAIR,CONTROLLER OUTDOOR AIR 4,Actuator,1
 Non-Parent Node Connection,NODE 63,CONTROLLER:OUTDOORAIR,CONTROLLER OUTDOOR AIR 4,Actuator,1
 Non-Parent Node Connection,NODE 57,CONTROLLER:OUTDOORAIR,CONTROLLER OUTDOOR AIR 4,Sensor,1
 Non-Parent Node Connection,NODE 79,CONTROLLER:OUTDOORAIR,CONTROLLER OUTDOOR AIR 5,Sensor,1
 Non-Parent Node Connection,NODE 75,CONTROLLER:OUTDOORAIR,CONTROLLER OUTDOOR AIR 5,Actuator,1
 Non-Parent Node Connection,NODE 76,CONTROLLER:OUTDOORAIR,CONTROLLER OUTDOOR AIR 5,Actuator,1
 Non-Parent Node Connection,NODE 70,CONTROLLER:OUTDOORAIR,CONTROLLER OUTDOOR AIR 5,Sensor,1
 Non-Parent Node Connection,NODE 28,COIL:COOLING:DX:SINGLESPEED,COIL COOLING DX SINGLE SPEED 1,Inlet,1
 Non-Parent Node Connection,NODE 27,COIL:COOLING:DX:SINGLESPEED,COIL COOLING DX SINGLE SPEED 1,Outlet,1
 Non-Parent Node Connection,NODE 40,COIL:COOLING:DX:SINGLESPEED,COIL COOLING DX SINGLE SPEED 2,Inlet,1
 Non-Parent Node Connection,NODE 39,COIL:COOLING:DX:SINGLESPEED,COIL COOLING DX SINGLE SPEED 2,Outlet,1
 Non-Parent Node Connection,NODE 53,COIL:COOLING:DX:SINGLESPEED,COIL COOLING DX SINGLE SPEED 3,Inlet,1
 Non-Parent Node Connection,NODE 52,COIL:COOLING:DX:SINGLESPEED,COIL COOLING DX SINGLE SPEED 3,Outlet,1
 Non-Parent Node Connection,NODE 66,COIL:COOLING:DX:SINGLESPEED,COIL COOLING DX SINGLE SPEED 4,Inlet,1
 Non-Parent Node Connection,NODE 65,COIL:COOLING:DX:SINGLESPEED,COIL COOLING DX SINGLE SPEED 4,Outlet,1
 Non-Parent Node Connection,NODE 79,COIL:COOLING:DX:SINGLESPEED,COIL COOLING DX SINGLE SPEED 5,Inlet,1
 Non-Parent Node Connection,NODE 78,COIL:COOLING:DX:SINGLESPEED,COIL COOLING DX SINGLE SPEED 5,Outlet,1
 Non-Parent Node Connection,NODE 27,COIL:HEATING:FUEL,COIL HEATING GAS 1,Inlet,1
 Non-Parent Node Connection,NODE 26,COIL:HEATING:FUEL,COIL HEATING GAS 1,Outlet,1
 Non-Parent Node Connection,NODE 26,COIL:HEATING:FUEL,COIL HEATING GAS 1,Sensor,1
 Non-Parent Node Connection,NODE 39,COIL:HEATING:FUEL,COIL HEATING GAS 2,Inlet,1
 Non-Parent Node Connection,NODE 38,COIL:HEATING:FUEL,COIL HEATING GAS 2,Outlet,1
 Non-Parent Node Connection,NODE 38,COIL:HEATING:FUEL,COIL HEATING GAS 2,Sensor,1
 Non-Parent Node Connection,NODE 52,COIL:HEATING:FUEL,COIL HEATING GAS 3,Inlet,1
 Non-Parent Node Connection,NODE 51,COIL:HEATING:FUEL,COIL HEATING GAS 3,Outlet,1
 Non-Parent Node Connection,NODE 51,COIL:HEATING:FUEL,COIL HEATING GAS 3,Sensor,1
 Non-Parent Node Connection,NODE 65,COIL:HEATING:FUEL,COIL HEATING GAS 4,Inlet,1
 Non-Parent Node Connection,NODE 64,COIL:HEATING:FUEL,COIL HEATING GAS 4,Outlet,1
 Non-Parent Node Connection,NODE 64,COIL:HEATING:FUEL,COIL HEATING GAS 4,Sensor,1
 Non-Parent Node Connection,NODE 78,COIL:HEATING:FUEL,COIL HEATING GAS 5,Inlet,1
 Non-Parent Node Connection,NODE 77,COIL:HEATING:FUEL,COIL HEATING GAS 5,Outlet,1
 Non-Parent Node Connection,NODE 77,COIL:HEATING:FUEL,COIL HEATING GAS 5,Sensor,1
 Non-Parent Node Connection,NODE 5,BOILER:HOTWATER,PRIMARY BOILER,Inlet,1
 Non-Parent Node Connection,NODE 12,BOILER:HOTWATER,PRIMARY BOILER,Outlet,1
 Non-Parent Node Connection,NODE 14,BOILER:HOTWATER,SECONDARY BOILER,Inlet,1
 Non-Parent Node Connection,NODE 15,BOILER:HOTWATER,SECONDARY BOILER,Outlet,1
 Non-Parent Node Connection,NODE 2,PUMP:VARIABLESPEED,PUMP VARIABLE SPEED 1,Inlet,1
 Non-Parent Node Connection,NODE 11,PUMP:VARIABLESPEED,PUMP VARIABLE SPEED 1,Outlet,1
 Non-Parent Node Connection,NODE 83,PUMP:CONSTANTSPEED,SERVICE WATER LOOP PUMP,Inlet,1
 Non-Parent Node Connection,NODE 89,PUMP:CONSTANTSPEED,SERVICE WATER LOOP PUMP,Outlet,1
