Program Version,EnergyPlus, Version 8.9.0-eba93e8e1b, YMD=2019.04.04 17:58
! <Version>, Version ID
 Version, 8.9
! <Timesteps per Hour>, #TimeSteps, Minutes per TimeStep {minutes}
 Timesteps per Hour,  6, 10
! <System Convergence Limits>, Minimum System TimeStep {minutes}, Max HVAC Iterations, Minimum Plant Iterations, Maximum Plant Iterations
 System Convergence Limits, 1, 20, 2, 8
! <Simulation Control>, Do Zone Sizing, Do System Sizing, Do Plant Sizing, Do Design Days, Do Weather Simulation, Do HVAC Sizing Simulation
 Simulation Control, Yes, Yes, Yes, Yes, No, No
! <Output Reporting Tolerances>, Tolerance for Time Heating Setpoint Not Met, Tolerance for Zone Cooling Setpoint Not Met Time
 Output Reporting Tolerances, 1.000, 1.000, 
! <Site:GroundTemperature:BuildingSurface>,Jan{C},Feb{C},Mar{C},Apr{C},May{C},Jun{C},Jul{C},Aug{C},Sep{C},Oct{C},Nov{C},Dec{C}
 Site:GroundTemperature:BuildingSurface,  19.53,  19.50,  19.54,  19.60,  20.00,  21.64,  22.23,  22.38,  21.45,  20.12,  19.80,  19.63
! <Site:GroundTemperature:FCfactorMethod>,Jan{C},Feb{C},Mar{C},Apr{C},May{C},Jun{C},Jul{C},Aug{C},Sep{C},Oct{C},Nov{C},Dec{C}
 Site:GroundTemperature:FCfactorMethod, -12.27, -13.66, -11.19,  -7.33,   2.77,  10.57,  15.83,  17.43,  14.70,   8.65,   0.56,  -6.95
! <Site:GroundTemperature:Shallow>,Jan{C},Feb{C},Mar{C},Apr{C},May{C},Jun{C},Jul{C},Aug{C},Sep{C},Oct{C},Nov{C},Dec{C}
 Site:GroundTemperature:Shallow,  13.00,  13.00,  13.00,  13.00,  13.00,  13.00,  13.00,  13.00,  13.00,  13.00,  13.00,  13.00
! <Site:GroundTemperature:Deep>,Jan{C},Feb{C},Mar{C},Apr{C},May{C},Jun{C},Jul{C},Aug{C},Sep{C},Oct{C},Nov{C},Dec{C}
 Site:GroundTemperature:Deep,  16.00,  16.00,  16.00,  16.00,  16.00,  16.00,  16.00,  16.00,  16.00,  16.00,  16.00,  16.00
! <Site:GroundReflectance>,Jan{dimensionless},Feb{dimensionless},Mar{dimensionless},Apr{dimensionless},May{dimensionless},Jun{dimensionless},Jul{dimensionless},Aug{dimensionless},Sep{dimensionless},Oct{dimensionless},Nov{dimensionless},Dec{dimensionless}
 Site:GroundReflectance,  0.20,  0.20,  0.20,  0.20,  0.20,  0.20,  0.20,  0.20,  0.20,  0.20,  0.20,  0.20
! <Site:GroundReflectance:SnowModifier>, Normal, Daylighting {dimensionless}
 Site:GroundReflectance:SnowModifier,   1.000,   1.000
! <Site:GroundReflectance:Snow>,Jan{dimensionless},Feb{dimensionless},Mar{dimensionless},Apr{dimensionless},May{dimensionless},Jun{dimensionless},Jul{dimensionless},Aug{dimensionless},Sep{dimensionless},Oct{dimensionless},Nov{dimensionless},Dec{dimensionless}
 Site:GroundReflectance:Snow,  0.20,  0.20,  0.20,  0.20,  0.20,  0.20,  0.20,  0.20,  0.20,  0.20,  0.20,  0.20
! <Site:GroundReflectance:Snow:Daylighting>,Jan{dimensionless},Feb{dimensionless},Mar{dimensionless},Apr{dimensionless},May{dimensionless},Jun{dimensionless},Jul{dimensionless},Aug{dimensionless},Sep{dimensionless},Oct{dimensionless},Nov{dimensionless},Dec{dimensionless}
 Site:GroundReflectance:Snow:Daylighting,  0.20,  0.20,  0.20,  0.20,  0.20,  0.20,  0.20,  0.20,  0.20,  0.20,  0.20,  0.20
! <Environment:Weather Station>,Wind Sensor Height Above Ground {m},Wind Speed Profile Exponent {},Wind Speed Profile Boundary Layer Thickness {m},Air Temperature Sensor Height Above Ground {m},Wind Speed Modifier Coefficient-Internal,Temperature Modifier Coefficient-Internal
Environment:Weather Station,10.000,0.140,270.000,1.500,1.586,9.750E-003
! <Site:Location>, Location Name, Latitude {N+/S- Deg}, Longitude {E+/W- Deg},  Time Zone Number {GMT+/-}, Elevation {m},  Standard Pressure at Elevation {Pa}, Standard RhoAir at Elevation
Site:Location,Fort McMurray AP AB CAN CWEC2016 WMO#=716890,56.65,-111.22,-7.00,369.10,96969,1.1525
! <Building Information>, Building Name,North Axis {deg},Terrain,  Loads Convergence Tolerance Value,Temperature Convergence Tolerance Value,  Solar Distribution,Maximum Number of Warmup Days,Minimum Number of Warmup Days
 Building Information,Building 1,0.000,Suburbs,4.00000E-002,0.40000,FullExterior,25,6
! <Inside Convection Algorithm>, Algorithm {Simple | TARP | CeilingDiffuser | AdaptiveConvectionAlgorithm}
Inside Convection Algorithm,TARP
! <Outside Convection Algorithm>, Algorithm {SimpleCombined | TARP | MoWitt | DOE-2 | AdaptiveConvectionAlgorithm}
Outside Convection Algorithm,TARP
! <Sky Radiance Distribution>, Value {Anisotropic}
Sky Radiance Distribution,Anisotropic
! <Zone Air Solution Algorithm>, Value {ThirdOrderBackwardDifference | AnalyticalSolution | EulerMethod}
 Zone Air Solution Algorithm, ThirdOrderBackwardDifference
! <Zone Air Carbon Dioxide Balance Simulation>, Simulation {Yes/No}, Carbon Dioxide Concentration
 Zone Air Carbon Dioxide Balance Simulation, No,N/A
! <Zone Air Generic Contaminant Balance Simulation>, Simulation {Yes/No}, Generic Contaminant Concentration
 Zone Air Generic Contaminant Balance Simulation, No,N/A
! <Zone Air Mass Flow Balance Simulation>, Enforce Mass Balance, Adjust Zone Mixing, Adjust Zone Infiltration {AddInfiltration | AdjustInfiltration | None}, Infiltration Zones {MixingSourceZonesOnly | AllZones}
 Zone Air Mass Flow Balance Simulation, No,N/A,N/A,N/A
! <HVACSystemRootFindingAlgorithm>, Value {RegulaFalsi | Bisection | BisectionThenRegulaFalsi | RegulaFalsiThenBisection}
 HVACSystemRootFindingAlgorithm, RegulaFalsi
! <Environment:Site Atmospheric Variation>,Wind Speed Profile Exponent {},Wind Speed Profile Boundary Layer Thickness {m},Air Temperature Gradient Coefficient {K/m}
Environment:Site Atmospheric Variation,0.220,370.000,6.500000E-003
! <Surface Geometry>,Starting Corner,Vertex Input Direction,Coordinate System,Daylight Reference Point Coordinate System,Rectangular (Simple) Surface Coordinate System
 Surface Geometry,UpperLeftCorner,Counterclockwise,RelativeCoordinateSystem,RelativeCoordinateSystem,RelativeToZoneOrigin
! <Surface Heat Transfer Algorithm>, Value {CTF - ConductionTransferFunction | EMPD - MoisturePenetrationDepthConductionTransferFunction | CondFD - ConductionFiniteDifference | HAMT - CombinedHeatAndMoistureFiniteElement} - Description,Inside Surface Max Temperature Limit{C}, Surface Convection Coefficient Lower Limit {W/m2-K}, Surface Convection Coefficient Upper Limit {W/m2-K}
Surface Heat Transfer Algorithm, CTF - ConductionTransferFunction,200,0.10,1000.0
! <Shading Summary>, Number of Fixed Detached Shades, Number of Building Detached Shades, Number of Attached Shades
 Shading Summary,0,0,0
! <Zone Summary>, Number of Zones, Number of Zone Surfaces, Number of SubSurfaces
 Zone Summary,5,30,0
! <Zone Information>,Zone Name,North Axis {deg},Origin X-Coordinate {m},Origin Y-Coordinate {m},Origin Z-Coordinate {m},Centroid X-Coordinate {m},Centroid Y-Coordinate {m},Centroid Z-Coordinate {m},Type,Zone Multiplier,Zone List Multiplier,Minimum X {m},Maximum X {m},Minimum Y {m},Maximum Y {m},Minimum Z {m},Maximum Z {m},Ceiling Height {m},Volume {m3},Zone Inside Convection Algorithm {Simple-Detailed-CeilingDiffuser-TrombeWall},Zone Outside Convection Algorithm {Simple-Detailed-Tarp-MoWitt-DOE-2-BLAST}, Floor Area {m2},Exterior Gross Wall Area {m2},Exterior Net Wall Area {m2},Exterior Window Area {m2}, Number of Surfaces, Number of SubSurfaces, Number of Shading SubSurfaces,  Part of Total Building Area
 Zone Information, ALL_ST=LAB - RESEARCH_FL=STORY 1_SCH=A,0.0,25.00,25.00,0.00,50.00,50.00,1.90,1,1,1,25.00,75.00,25.00,75.00,0.00,3.80,3.80,9500.00,TARP,TARP,2500.00,0.00,0.00,0.00,6,0,0,Yes
 Zone Information, ALL_ST=LIBRARY - CATALOGING_FL=STORY 1_SCH=C,0.0,0.00,0.00,0.00,50.00,10.85,1.90,1,1,1,0.00,100.00,0.00,25.00,0.00,3.80,3.80,7125.00,TARP,TARP,1875.00,0.00,0.00,0.00,6,0,0,Yes
 Zone Information, ALL_ST=LIBRARY - READING_FL=STORY 1_SCH=C,0.0,75.00,25.00,0.00,89.15,50.00,1.90,1,1,1,75.00,100.00,0.00,100.00,0.00,3.80,3.80,7125.00,TARP,TARP,1875.00,0.00,0.00,0.00,6,0,0,Yes
 Zone Information, ALL_ST=LIBRARY - STACKS_FL=STORY 1_SCH=C,0.0,25.00,75.00,0.00,50.00,89.15,1.90,1,1,1,0.00,100.00,75.00,100.00,0.00,3.80,3.80,7125.00,TARP,TARP,1875.00,0.00,0.00,0.00,6,0,0,Yes
 Zone Information, ALL_ST=LOBBY - ELEVATOR_FL=STORY 1_SCH=C,0.0,0.00,0.00,0.00,10.85,50.00,1.90,1,1,1,0.00,25.00,0.00,100.00,0.00,3.80,3.80,7125.00,TARP,TARP,1875.00,0.00,0.00,0.00,6,0,0,Yes
! <Zone Internal Gains Nominal>,Zone Name, Floor Area {m2},# Occupants,Area per Occupant {m2/person},Occupant per Area {person/m2},Interior Lighting {W/m2},Electric Load {W/m2},Gas Load {W/m2},Other Load {W/m2},Hot Water Eq {W/m2},Steam Equipment {W/m2},Sum Loads per Area {W/m2},Outdoor Controlled Baseboard Heat
 Zone Internal Gains Nominal, ALL_ST=LAB - RESEARCH_FL=STORY 1_SCH=A,2500.00,125.1,19.979,5.005E-002,23.600,10.000,0.000,0.000,0.000,0.000,33.600,No
 Zone Internal Gains Nominal, ALL_ST=LIBRARY - CATALOGING_FL=STORY 1_SCH=C,1875.00,93.8,19.979,5.005E-002,7.800,2.500,0.000,0.000,0.000,0.000,10.300,No
 Zone Internal Gains Nominal, ALL_ST=LIBRARY - READING_FL=STORY 1_SCH=C,1875.00,93.8,19.979,5.005E-002,10.000,1.000,0.000,0.000,0.000,0.000,11.000,No
 Zone Internal Gains Nominal, ALL_ST=LIBRARY - STACKS_FL=STORY 1_SCH=C,1875.00,93.8,19.979,5.005E-002,22.900,0.000,0.000,0.000,0.000,0.000,22.900,No
 Zone Internal Gains Nominal, ALL_ST=LOBBY - ELEVATOR_FL=STORY 1_SCH=C,1875.00,187.5,10.000,10.000E-002,6.900,1.000,0.000,0.000,0.000,0.000,7.900,No
! <People Internal Gains Nominal>,Name,Schedule Name,Zone Name,Zone Floor Area {m2},# Zone Occupants,Number of People {},People/Floor Area {person/m2},Floor Area per person {m2/person},Fraction Radiant,Fraction Convected,Sensible Fraction Calculation,Activity level,ASHRAE 55 Warnings,Carbon Dioxide Generation Rate,Nominal Minimum Number of People,Nominal Maximum Number of People
 People Internal Gains Nominal, ALL_ST=LAB - RESEARCH_FL=STORY 1_SCH=A SPACE FUNCTION LAB - RESEARCH PEOPLE,NECB-A-OCCUPANCY,ALL_ST=LAB - RESEARCH_FL=STORY 1_SCH=A,2500.00,125.1,125.1,5.005E-002,19.979,0.300,0.700,AutoCalculate,NECB-ACTIVITY,No,3.8200E-008,0,113
 People Internal Gains Nominal, ALL_ST=LIBRARY - CATALOGING_FL=STORY 1_SCH=C SPACE FUNCTION LIBRARY - CATALOGING PEOPLE,NECB-C-OCCUPANCY,ALL_ST=LIBRARY - CATALOGING_FL=STORY 1_SCH=C,1875.00,93.8,93.8,5.005E-002,19.979,0.300,0.700,AutoCalculate,NECB-ACTIVITY,No,3.8200E-008,0,84
 People Internal Gains Nominal, ALL_ST=LIBRARY - READING_FL=STORY 1_SCH=C SPACE FUNCTION LIBRARY - READING PEOPLE,NECB-C-OCCUPANCY,ALL_ST=LIBRARY - READING_FL=STORY 1_SCH=C,1875.00,93.8,93.8,5.005E-002,19.979,0.300,0.700,AutoCalculate,NECB-ACTIVITY,No,3.8200E-008,0,84
 People Internal Gains Nominal, ALL_ST=LIBRARY - STACKS_FL=STORY 1_SCH=C SPACE FUNCTION LIBRARY - STACKS PEOPLE,NECB-C-OCCUPANCY,ALL_ST=LIBRARY - STACKS_FL=STORY 1_SCH=C,1875.00,93.8,93.8,5.005E-002,19.979,0.300,0.700,AutoCalculate,NECB-ACTIVITY,No,3.8200E-008,0,84
 People Internal Gains Nominal, ALL_ST=LOBBY - ELEVATOR_FL=STORY 1_SCH=C SPACE FUNCTION LOBBY - ELEVATOR PEOPLE,NECB-C-OCCUPANCY,ALL_ST=LOBBY - ELEVATOR_FL=STORY 1_SCH=C,1875.00,187.5,187.5,10.000E-002,10.000,0.300,0.700,AutoCalculate,NECB-ACTIVITY,No,3.8200E-008,0,169
! <Lights Internal Gains Nominal>,Name,Schedule Name,Zone Name,Zone Floor Area {m2},# Zone Occupants,Lighting Level {W},Lights/Floor Area {W/m2},Lights per person {W/person},Fraction Return Air,Fraction Radiant,Fraction Short Wave,Fraction Convected,Fraction Replaceable,End-Use Category,Nominal Minimum Lighting Level {W},Nominal Maximum Lighting Level {W}
 Lights Internal Gains Nominal, ALL_ST=LAB - RESEARCH_FL=STORY 1_SCH=A SPACE FUNCTION LAB - RESEARCH LIGHTS,NECB-A-LIGHTING,ALL_ST=LAB - RESEARCH_FL=STORY 1_SCH=A,2500.00,125.1,58999.509,23.600,471.504,0.000,0.500,0.200,0.300,1.000,General,2949.975,53099.558
 Lights Internal Gains Nominal, ALL_ST=LIBRARY - CATALOGING_FL=STORY 1_SCH=C SPACE FUNCTION LIBRARY - CATALOGING LIGHTS,NECB-C-LIGHTING,ALL_ST=LIBRARY - CATALOGING_FL=STORY 1_SCH=C,1875.00,93.8,14624.878,7.800,155.836,0.000,0.500,0.200,0.300,1.000,General,731.244,13162.390
 Lights Internal Gains Nominal, ALL_ST=LIBRARY - READING_FL=STORY 1_SCH=C SPACE FUNCTION LIBRARY - READING LIGHTS,NECB-C-LIGHTING,ALL_ST=LIBRARY - READING_FL=STORY 1_SCH=C,1875.00,93.8,18749.844,10.000,199.790,0.000,0.500,0.200,0.300,1.000,General,937.492,16874.860
 Lights Internal Gains Nominal, ALL_ST=LIBRARY - STACKS_FL=STORY 1_SCH=C SPACE FUNCTION LIBRARY - STACKS LIGHTS,NECB-C-LIGHTING,ALL_ST=LIBRARY - STACKS_FL=STORY 1_SCH=C,1875.00,93.8,42937.143,22.900,457.519,0.000,0.500,0.200,0.300,1.000,General,2146.857,38643.428
 Lights Internal Gains Nominal, ALL_ST=LOBBY - ELEVATOR_FL=STORY 1_SCH=C SPACE FUNCTION LOBBY - ELEVATOR LIGHTS,NECB-C-LIGHTING,ALL_ST=LOBBY - ELEVATOR_FL=STORY 1_SCH=C,1875.00,187.5,12937.392,6.900,69.002,0.000,0.500,0.200,0.300,1.000,General,646.870,11643.653
! <ElectricEquipment Internal Gains Nominal>,Name,Schedule Name,Zone Name,Zone Floor Area {m2},# Zone Occupants,Equipment Level {W},Equipment/Floor Area {W/m2},Equipment per person {W/person},Fraction Latent,Fraction Radiant,Fraction Lost,Fraction Convected,End-Use SubCategory,Nominal Minimum Equipment Level {W},Nominal Maximum Equipment Level {W}
 ElectricEquipment Internal Gains Nominal, ALL_ST=LAB - RESEARCH_FL=STORY 1_SCH=A SPACE FUNCTION LAB - RESEARCH ELEC EQUIP,NECB-A-ELECTRIC-EQUIPMENT,ALL_ST=LAB - RESEARCH_FL=STORY 1_SCH=A,2500.00,125.1,24999.792,10.000,199.790,0.000,0.500,0.000,0.500,General,4999.958,22499.813
 ElectricEquipment Internal Gains Nominal, ALL_ST=LIBRARY - CATALOGING_FL=STORY 1_SCH=C SPACE FUNCTION LIBRARY - CATALOGING ELEC EQUIP,NECB-C-ELECTRIC-EQUIPMENT,ALL_ST=LIBRARY - CATALOGING_FL=STORY 1_SCH=C,1875.00,93.8,4687.461,2.500,49.947,0.000,0.500,0.000,0.500,General,234.373,4218.715
 ElectricEquipment Internal Gains Nominal, ALL_ST=LIBRARY - READING_FL=STORY 1_SCH=C SPACE FUNCTION LIBRARY - READING ELEC EQUIP,NECB-C-ELECTRIC-EQUIPMENT,ALL_ST=LIBRARY - READING_FL=STORY 1_SCH=C,1875.00,93.8,1874.984,1.000,19.979,0.000,0.500,0.000,0.500,General,93.749,1687.486
 ElectricEquipment Internal Gains Nominal, ALL_ST=LOBBY - ELEVATOR_FL=STORY 1_SCH=C SPACE FUNCTION LOBBY - ELEVATOR ELEC EQUIP,NECB-C-ELECTRIC-EQUIPMENT,ALL_ST=LOBBY - ELEVATOR_FL=STORY 1_SCH=C,1875.00,187.5,1874.984,1.000,10.000,0.000,0.500,0.000,0.500,General,93.749,1687.486
! <Shadowing/Sun Position Calculations Annual Simulations>, Calculation Method, Value {days}, Allowable Number Figures in Shadow Overlap {}, Polygon Clipping Algorithm, Sky Diffuse Modeling Algorithm, External Shading Calculation Method, Output External Shading Calculation Results, Disable Self-Shading Within Shading Zone Groups, Disable Self-Shading From Shading Zone Groups to Other Zones
Shadowing/Sun Position Calculations Annual Simulations,AverageOverDaysInFrequency,20,15000,SutherlandHodgman,SimpleSkyDiffuseModeling,InternalCalculation,No,No,No
! <Water Heater Information>,Type,Name,Volume {m3},Maximum Capacity {W},Standard Rated Recovery Efficiency, Standard Rated Energy Factor
! <RoomAir Model>, Zone Name, Mixing/Mundt/UCSDDV/UCSDCV/UCSDUFI/UCSDUFE/User Defined
RoomAir Model,ALL_ST=LAB - RESEARCH_FL=STORY 1_SCH=A,Mixing/Well-Stirred
RoomAir Model,ALL_ST=LIBRARY - CATALOGING_FL=STORY 1_SCH=C,Mixing/Well-Stirred
RoomAir Model,ALL_ST=LIBRARY - READING_FL=STORY 1_SCH=C,Mixing/Well-Stirred
RoomAir Model,ALL_ST=LIBRARY - STACKS_FL=STORY 1_SCH=C,Mixing/Well-Stirred
RoomAir Model,ALL_ST=LOBBY - ELEVATOR_FL=STORY 1_SCH=C,Mixing/Well-Stirred
! <AirflowNetwork Model:Control>, No Multizone or Distribution/Multizone with Distribution/Multizone without Distribution/Multizone with Distribution only during Fan Operation
AirflowNetwork Model:Control,NoMultizoneOrDistribution
! <Zone Volume Capacitance Multiplier>, Sensible Heat Capacity Multiplier, Moisture Capacity Multiplier, Carbon Dioxide Capacity Multiplier, Generic Contaminant Capacity Multiplier
Zone Volume Capacitance Multiplier,   1.000 ,   1.000,   1.000,   1.000
! <Load Timesteps in Zone Design Calculation Averaging Window>, Value
 Load Timesteps in Zone Design Calculation Averaging Window,    6
! <Heating Sizing Factor Information>, Sizing Factor ID, Value
 Heating Sizing Factor Information, Global,   1.3000    
 Heating Sizing Factor Information, Zone ALL_ST=LAB - RESEARCH_FL=STORY 1_SCH=A,   1.3000    
 Heating Sizing Factor Information, Zone ALL_ST=LIBRARY - CATALOGING_FL=STORY 1_SCH=C,   1.3000    
 Heating Sizing Factor Information, Zone ALL_ST=LIBRARY - READING_FL=STORY 1_SCH=C,   1.3000    
 Heating Sizing Factor Information, Zone ALL_ST=LIBRARY - STACKS_FL=STORY 1_SCH=C,   1.3000    
 Heating Sizing Factor Information, Zone ALL_ST=LOBBY - ELEVATOR_FL=STORY 1_SCH=C,   1.3000    
! <Cooling Sizing Factor Information>, Sizing Factor ID, Value
 Cooling Sizing Factor Information, Global,   1.1000    
 Cooling Sizing Factor Information, Zone ALL_ST=LAB - RESEARCH_FL=STORY 1_SCH=A,   1.1000    
 Cooling Sizing Factor Information, Zone ALL_ST=LIBRARY - CATALOGING_FL=STORY 1_SCH=C,   1.1000    
 Cooling Sizing Factor Information, Zone ALL_ST=LIBRARY - READING_FL=STORY 1_SCH=C,   1.1000    
 Cooling Sizing Factor Information, Zone ALL_ST=LIBRARY - STACKS_FL=STORY 1_SCH=C,   1.1000    
 Cooling Sizing Factor Information, Zone ALL_ST=LOBBY - ELEVATOR_FL=STORY 1_SCH=C,   1.1000    
! <Zone Sizing Information>, Zone Name, Load Type, Calc Des Load {W}, User Des Load {W}, Calc Des Air Flow Rate {m3/s}, User Des Air Flow Rate {m3/s}, Design Day Name, Date/Time of Peak, Temperature at Peak {C}, Humidity Ratio at Peak {kgWater/kgDryAir}, Floor Area {m2}, # Occupants, Calc Outdoor Air Flow Rate {m3/s}, Calc DOAS Heat Addition Rate {W}
 Zone Sizing Information, ALL_ST=LAB - RESEARCH_FL=STORY 1_SCH=A, Cooling, 66540.03935, 73194.04328, 5.14296, 5.65725, FORT MCMURRAY AP ANN CLG .4% CONDNS DB=>MWB, 7/21 17:00:00, 27.16400, 8.76969E-003, 2500.00000, 125.13046, 5.46100, 0.00000
 Zone Sizing Information, ALL_ST=LAB - RESEARCH_FL=STORY 1_SCH=A, Heating, 0.00000, 0.00000, 0.00000, 5.46100, FORT MCMURRAY AP ANN HTG 99.6% CONDNS DB, , -36.20000, 1.25811E-004, 2500.00000, 125.13046, 5.46100, 0.00000
 Zone Sizing Information, ALL_ST=LIBRARY - CATALOGING_FL=STORY 1_SCH=C, Cooling, 17498.06088, 19247.86697, 1.35242, 1.61925, FORT MCMURRAY AP ANN CLG .4% CONDNS DB=>MWB, 7/21 17:00:00, 27.16400, 8.76969E-003, 1875.00000, 93.84784, 1.61925, 0.00000
 Zone Sizing Information, ALL_ST=LIBRARY - CATALOGING_FL=STORY 1_SCH=C, Heating, 5727.47087, 7445.71213, 0.21778, 1.61925, FORT MCMURRAY AP ANN HTG 99.6% CONDNS DB, 1/21 08:10:00, -36.20000, 1.25811E-004, 1875.00000, 93.84784, 1.61925, 0.00000
 Zone Sizing Information, ALL_ST=LIBRARY - READING_FL=STORY 1_SCH=C, Cooling, 18622.44846, 20484.69330, 1.43932, 1.61925, FORT MCMURRAY AP ANN CLG .4% CONDNS DB=>MWB, 7/21 17:00:00, 27.16400, 8.76969E-003, 1875.00000, 93.84784, 1.61925, 0.00000
 Zone Sizing Information, ALL_ST=LIBRARY - READING_FL=STORY 1_SCH=C, Heating, 5479.20158, 7122.96206, 0.20886, 1.61925, FORT MCMURRAY AP ANN HTG 99.6% CONDNS DB, 1/21 08:10:00, -36.20000, 1.25811E-004, 1875.00000, 93.84784, 1.61925, 0.00000
 Zone Sizing Information, ALL_ST=LIBRARY - STACKS_FL=STORY 1_SCH=C, Cooling, 34505.30839, 37955.83923, 2.66690, 2.93359, FORT MCMURRAY AP ANN CLG .4% CONDNS DB=>MWB, 7/21 17:00:00, 27.16400, 8.76969E-003, 1875.00000, 93.84784, 1.61925, 0.00000
 Zone Sizing Information, ALL_ST=LIBRARY - STACKS_FL=STORY 1_SCH=C, Heating, 3615.16950, 4699.72035, 0.14025, 1.61925, FORT MCMURRAY AP ANN HTG 99.6% CONDNS DB, 1/21 08:10:00, -36.20000, 1.25811E-004, 1875.00000, 93.84784, 1.61925, 0.00000
 Zone Sizing Information, ALL_ST=LOBBY - ELEVATOR_FL=STORY 1_SCH=C, Cooling, 19257.39251, 21183.13176, 1.48855, 7.71525, FORT MCMURRAY AP ANN CLG .4% CONDNS DB=>MWB, 7/21 17:00:00, 27.16400, 8.76969E-003, 1875.00000, 187.49386, 7.71525, 0.00000
 Zone Sizing Information, ALL_ST=LOBBY - ELEVATOR_FL=STORY 1_SCH=C, Heating, 5995.48294, 7794.12782, 0.22738, 7.71525, FORT MCMURRAY AP ANN HTG 99.6% CONDNS DB, 1/21 08:10:00, -36.20000, 1.25811E-004, 1875.00000, 187.49386, 7.71525, 0.00000
! <System Sizing Information>, System Name, Load Type, Peak Load Kind, User Design Capacity, Calc Des Air Flow Rate [m3/s], User Des Air Flow Rate [m3/s], Design Day Name, Date/Time of Peak
 System Sizing Information, SYS_3_PSZ ALL_ST=LAB - RESEARCH_FL=STORY 1_SCH=A, Cooling, Sensible, 92080.91, 5.65725, 5.65725, FORT MCMURRAY AP ANN CLG .4% CONDNS DB=>MWB, 7/21 05:00:00
 System Sizing Information, SYS_3_PSZ ALL_ST=LAB - RESEARCH_FL=STORY 1_SCH=A, Heating, Sensible, 500905.13, 5.46100, 5.46100, FORT MCMURRAY AP ANN HTG 99.6% CONDNS DB, 1/21 00:10:00
 System Sizing Information, SYS_3_PSZ ALL_ST=LIBRARY - CATALOGING_FL=STORY 1_SCH=C, Cooling, Sensible, 26561.83, 1.61925, 1.61925, FORT MCMURRAY AP ANN CLG .4% CONDNS DB=>MWB, 7/21 05:00:00
 System Sizing Information, SYS_3_PSZ ALL_ST=LIBRARY - CATALOGING_FL=STORY 1_SCH=C, Heating, Sensible, 148524.19, 1.61925, 1.61925, FORT MCMURRAY AP ANN HTG 99.6% CONDNS DB, 1/21 00:10:00
 System Sizing Information, SYS_3_PSZ ALL_ST=LIBRARY - READING_FL=STORY 1_SCH=C, Cooling, Sensible, 26561.83, 1.61925, 1.61925, FORT MCMURRAY AP ANN CLG .4% CONDNS DB=>MWB, 7/21 05:00:00
 System Sizing Information, SYS_3_PSZ ALL_ST=LIBRARY - READING_FL=STORY 1_SCH=C, Heating, Sensible, 148524.19, 1.61925, 1.61925, FORT MCMURRAY AP ANN HTG 99.6% CONDNS DB, 1/21 00:10:00
 System Sizing Information, SYS_3_PSZ ALL_ST=LIBRARY - STACKS_FL=STORY 1_SCH=C, Cooling, Sensible, 43304.27, 2.93359, 2.93359, FORT MCMURRAY AP ANN CLG .4% CONDNS DB=>MWB, 7/21 05:00:00
 System Sizing Information, SYS_3_PSZ ALL_ST=LIBRARY - STACKS_FL=STORY 1_SCH=C, Heating, Sensible, 148524.19, 1.61925, 1.61925, FORT MCMURRAY AP ANN HTG 99.6% CONDNS DB, 1/21 00:10:00
 System Sizing Information, SYS_3_PSZ ALL_ST=LOBBY - ELEVATOR_FL=STORY 1_SCH=C, Cooling, Sensible, 126559.29, 7.71525, 7.71525, FORT MCMURRAY AP ANN CLG .4% CONDNS DB=>MWB, 7/21 05:00:00
 System Sizing Information, SYS_3_PSZ ALL_ST=LOBBY - ELEVATOR_FL=STORY 1_SCH=C, Heating, Sensible, 707674.10, 7.71525, 7.71525, FORT MCMURRAY AP ANN HTG 99.6% CONDNS DB, 1/21 00:10:00
! <Component Sizing Information>, Component Type, Component Name, Input Field Description, Value
 Component Sizing Information, AirTerminal:SingleDuct:Uncontrolled, AIR TERMINAL SINGLE DUCT UNCONTROLLED 1, Design Size Maximum Air Flow Rate [m3/s], 5.65725
 Component Sizing Information, ZoneHVAC:Baseboard:Convective:Water, ZONE HVAC BASEBOARD CONVECTIVE WATER 1, Design Size Maximum Water Flow Rate [m3/s], 0.00000
 Component Sizing Information, ZoneHVAC:Baseboard:Convective:Water, ZONE HVAC BASEBOARD CONVECTIVE WATER 1, Design Size U-Factor Times Area Value [W/K], 0.00000
 Component Sizing Information, AirTerminal:SingleDuct:Uncontrolled, AIR TERMINAL SINGLE DUCT UNCONTROLLED 2, Design Size Maximum Air Flow Rate [m3/s], 1.61925
 Component Sizing Information, ZoneHVAC:Baseboard:Convective:Water, ZONE HVAC BASEBOARD CONVECTIVE WATER 2, Design Size Maximum Water Flow Rate [m3/s], 1.11208E-004
 Component Sizing Information, ZoneHVAC:Baseboard:Convective:Water, ZONE HVAC BASEBOARD CONVECTIVE WATER 2, Design Size U-Factor Times Area Value [W/K], 147.44838
 Component Sizing Information, AirTerminal:SingleDuct:Uncontrolled, AIR TERMINAL SINGLE DUCT UNCONTROLLED 3, Design Size Maximum Air Flow Rate [m3/s], 1.61925
 Component Sizing Information, ZoneHVAC:Baseboard:Convective:Water, ZONE HVAC BASEBOARD CONVECTIVE WATER 3, Design Size Maximum Water Flow Rate [m3/s], 1.06387E-004
 Component Sizing Information, ZoneHVAC:Baseboard:Convective:Water, ZONE HVAC BASEBOARD CONVECTIVE WATER 3, Design Size U-Factor Times Area Value [W/K], 141.09004
 Component Sizing Information, AirTerminal:SingleDuct:Uncontrolled, AIR TERMINAL SINGLE DUCT UNCONTROLLED 4, Design Size Maximum Air Flow Rate [m3/s], 2.93359
 Component Sizing Information, ZoneHVAC:Baseboard:Convective:Water, ZONE HVAC BASEBOARD CONVECTIVE WATER 4, Design Size Maximum Water Flow Rate [m3/s], 7.01941E-005
 Component Sizing Information, ZoneHVAC:Baseboard:Convective:Water, ZONE HVAC BASEBOARD CONVECTIVE WATER 4, Design Size U-Factor Times Area Value [W/K], 93.24264
 Component Sizing Information, AirTerminal:SingleDuct:Uncontrolled, AIR TERMINAL SINGLE DUCT UNCONTROLLED 5, Design Size Maximum Air Flow Rate [m3/s], 7.71525
 Component Sizing Information, ZoneHVAC:Baseboard:Convective:Water, ZONE HVAC BASEBOARD CONVECTIVE WATER 5, Design Size Maximum Water Flow Rate [m3/s], 1.16412E-004
 Component Sizing Information, ZoneHVAC:Baseboard:Convective:Water, ZONE HVAC BASEBOARD CONVECTIVE WATER 5, Design Size U-Factor Times Area Value [W/K], 154.28885
 Component Sizing Information, AirLoopHVAC, SYS_3_PSZ ALL_ST=LAB - RESEARCH_FL=STORY 1_SCH=A, Sum of Air Terminal Maximum Heating Flow Rates [m3/s], 5.65725
 Component Sizing Information, AirLoopHVAC, SYS_3_PSZ ALL_ST=LAB - RESEARCH_FL=STORY 1_SCH=A, Sum of Air Terminal Minimum Heating Flow Rates [m3/s], 5.65725
 Component Sizing Information, AirLoopHVAC, SYS_3_PSZ ALL_ST=LAB - RESEARCH_FL=STORY 1_SCH=A, Sum of Air Terminal Maximum Flow Rates [m3/s], 5.65725
 Component Sizing Information, AirLoopHVAC, SYS_3_PSZ ALL_ST=LAB - RESEARCH_FL=STORY 1_SCH=A, Adjusted Heating Design Air Flow Rate [m3/s], 5.65725
 Component Sizing Information, AirLoopHVAC, SYS_3_PSZ ALL_ST=LAB - RESEARCH_FL=STORY 1_SCH=A, Adjusted Cooling Design Air Flow Rate [m3/s], 5.65725
 Component Sizing Information, AirLoopHVAC, SYS_3_PSZ ALL_ST=LAB - RESEARCH_FL=STORY 1_SCH=A, Adjusted Main Design Air Flow Rate [m3/s], 5.65725
 Component Sizing Information, AirLoopHVAC, SYS_3_PSZ ALL_ST=LAB - RESEARCH_FL=STORY 1_SCH=A, User Heating Air Flow Ratio [], 1.00000
 Component Sizing Information, AirLoopHVAC, SYS_3_PSZ ALL_ST=LAB - RESEARCH_FL=STORY 1_SCH=A, Calculated Heating Air Flow Ratio [], 1.00000
 Component Sizing Information, AirLoopHVAC, SYS_3_PSZ ALL_ST=LIBRARY - CATALOGING_FL=STORY 1_SCH=C, Sum of Air Terminal Maximum Heating Flow Rates [m3/s], 1.61925
 Component Sizing Information, AirLoopHVAC, SYS_3_PSZ ALL_ST=LIBRARY - CATALOGING_FL=STORY 1_SCH=C, Sum of Air Terminal Minimum Heating Flow Rates [m3/s], 1.61925
 Component Sizing Information, AirLoopHVAC, SYS_3_PSZ ALL_ST=LIBRARY - CATALOGING_FL=STORY 1_SCH=C, Sum of Air Terminal Maximum Flow Rates [m3/s], 1.61925
 Component Sizing Information, AirLoopHVAC, SYS_3_PSZ ALL_ST=LIBRARY - CATALOGING_FL=STORY 1_SCH=C, Adjusted Heating Design Air Flow Rate [m3/s], 1.61925
 Component Sizing Information, AirLoopHVAC, SYS_3_PSZ ALL_ST=LIBRARY - CATALOGING_FL=STORY 1_SCH=C, Adjusted Cooling Design Air Flow Rate [m3/s], 1.61925
 Component Sizing Information, AirLoopHVAC, SYS_3_PSZ ALL_ST=LIBRARY - CATALOGING_FL=STORY 1_SCH=C, Adjusted Main Design Air Flow Rate [m3/s], 1.61925
 Component Sizing Information, AirLoopHVAC, SYS_3_PSZ ALL_ST=LIBRARY - CATALOGING_FL=STORY 1_SCH=C, User Heating Air Flow Ratio [], 1.00000
 Component Sizing Information, AirLoopHVAC, SYS_3_PSZ ALL_ST=LIBRARY - CATALOGING_FL=STORY 1_SCH=C, Calculated Heating Air Flow Ratio [], 1.00000
 Component Sizing Information, AirLoopHVAC, SYS_3_PSZ ALL_ST=LIBRARY - READING_FL=STORY 1_SCH=C, Sum of Air Terminal Maximum Heating Flow Rates [m3/s], 1.61925
 Component Sizing Information, AirLoopHVAC, SYS_3_PSZ ALL_ST=LIBRARY - READING_FL=STORY 1_SCH=C, Sum of Air Terminal Minimum Heating Flow Rates [m3/s], 1.61925
 Component Sizing Information, AirLoopHVAC, SYS_3_PSZ ALL_ST=LIBRARY - READING_FL=STORY 1_SCH=C, Sum of Air Terminal Maximum Flow Rates [m3/s], 1.61925
 Component Sizing Information, AirLoopHVAC, SYS_3_PSZ ALL_ST=LIBRARY - READING_FL=STORY 1_SCH=C, Adjusted Heating Design Air Flow Rate [m3/s], 1.61925
 Component Sizing Information, AirLoopHVAC, SYS_3_PSZ ALL_ST=LIBRARY - READING_FL=STORY 1_SCH=C, Adjusted Cooling Design Air Flow Rate [m3/s], 1.61925
 Component Sizing Information, AirLoopHVAC, SYS_3_PSZ ALL_ST=LIBRARY - READING_FL=STORY 1_SCH=C, Adjusted Main Design Air Flow Rate [m3/s], 1.61925
 Component Sizing Information, AirLoopHVAC, SYS_3_PSZ ALL_ST=LIBRARY - READING_FL=STORY 1_SCH=C, User Heating Air Flow Ratio [], 1.00000
 Component Sizing Information, AirLoopHVAC, SYS_3_PSZ ALL_ST=LIBRARY - READING_FL=STORY 1_SCH=C, Calculated Heating Air Flow Ratio [], 1.00000
 Component Sizing Information, AirLoopHVAC, SYS_3_PSZ ALL_ST=LIBRARY - STACKS_FL=STORY 1_SCH=C, Sum of Air Terminal Maximum Heating Flow Rates [m3/s], 2.93359
 Component Sizing Information, AirLoopHVAC, SYS_3_PSZ ALL_ST=LIBRARY - STACKS_FL=STORY 1_SCH=C, Sum of Air Terminal Minimum Heating Flow Rates [m3/s], 2.93359
 Component Sizing Information, AirLoopHVAC, SYS_3_PSZ ALL_ST=LIBRARY - STACKS_FL=STORY 1_SCH=C, Sum of Air Terminal Maximum Flow Rates [m3/s], 2.93359
 Component Sizing Information, AirLoopHVAC, SYS_3_PSZ ALL_ST=LIBRARY - STACKS_FL=STORY 1_SCH=C, Adjusted Heating Design Air Flow Rate [m3/s], 2.93359
 Component Sizing Information, AirLoopHVAC, SYS_3_PSZ ALL_ST=LIBRARY - STACKS_FL=STORY 1_SCH=C, Adjusted Cooling Design Air Flow Rate [m3/s], 2.93359
 Component Sizing Information, AirLoopHVAC, SYS_3_PSZ ALL_ST=LIBRARY - STACKS_FL=STORY 1_SCH=C, Adjusted Main Design Air Flow Rate [m3/s], 2.93359
 Component Sizing Information, AirLoopHVAC, SYS_3_PSZ ALL_ST=LIBRARY - STACKS_FL=STORY 1_SCH=C, User Heating Air Flow Ratio [], 1.00000
 Component Sizing Information, AirLoopHVAC, SYS_3_PSZ ALL_ST=LIBRARY - STACKS_FL=STORY 1_SCH=C, Calculated Heating Air Flow Ratio [], 1.00000
 Component Sizing Information, AirLoopHVAC, SYS_3_PSZ ALL_ST=LOBBY - ELEVATOR_FL=STORY 1_SCH=C, Sum of Air Terminal Maximum Heating Flow Rates [m3/s], 7.71525
 Component Sizing Information, AirLoopHVAC, SYS_3_PSZ ALL_ST=LOBBY - ELEVATOR_FL=STORY 1_SCH=C, Sum of Air Terminal Minimum Heating Flow Rates [m3/s], 7.71525
 Component Sizing Information, AirLoopHVAC, SYS_3_PSZ ALL_ST=LOBBY - ELEVATOR_FL=STORY 1_SCH=C, Sum of Air Terminal Maximum Flow Rates [m3/s], 7.71525
 Component Sizing Information, AirLoopHVAC, SYS_3_PSZ ALL_ST=LOBBY - ELEVATOR_FL=STORY 1_SCH=C, Adjusted Heating Design Air Flow Rate [m3/s], 7.71525
 Component Sizing Information, AirLoopHVAC, SYS_3_PSZ ALL_ST=LOBBY - ELEVATOR_FL=STORY 1_SCH=C, Adjusted Cooling Design Air Flow Rate [m3/s], 7.71525
 Component Sizing Information, AirLoopHVAC, SYS_3_PSZ ALL_ST=LOBBY - ELEVATOR_FL=STORY 1_SCH=C, Adjusted Main Design Air Flow Rate [m3/s], 7.71525
 Component Sizing Information, AirLoopHVAC, SYS_3_PSZ ALL_ST=LOBBY - ELEVATOR_FL=STORY 1_SCH=C, User Heating Air Flow Ratio [], 1.00000
 Component Sizing Information, AirLoopHVAC, SYS_3_PSZ ALL_ST=LOBBY - ELEVATOR_FL=STORY 1_SCH=C, Calculated Heating Air Flow Ratio [], 1.00000
 Component Sizing Information, AirLoopHVAC, SYS_3_PSZ ALL_ST=LAB - RESEARCH_FL=STORY 1_SCH=A, Design Supply Air Flow Rate [m3/s], 5.65725
 Component Sizing Information, AirLoopHVAC, SYS_3_PSZ ALL_ST=LIBRARY - CATALOGING_FL=STORY 1_SCH=C, Design Supply Air Flow Rate [m3/s], 1.61925
 Component Sizing Information, AirLoopHVAC, SYS_3_PSZ ALL_ST=LIBRARY - READING_FL=STORY 1_SCH=C, Design Supply Air Flow Rate [m3/s], 1.61925
 Component Sizing Information, AirLoopHVAC, SYS_3_PSZ ALL_ST=LIBRARY - STACKS_FL=STORY 1_SCH=C, Design Supply Air Flow Rate [m3/s], 2.93359
 Component Sizing Information, AirLoopHVAC, SYS_3_PSZ ALL_ST=LOBBY - ELEVATOR_FL=STORY 1_SCH=C, Design Supply Air Flow Rate [m3/s], 7.71525
!<Controller:MechanicalVentilation>,Name,Availability Schedule Name,Demand Controlled Ventilation {Yes/No},System Outdoor Air Method,Zone Maximum Outdoor Air Fraction,Number of Zones,Zone Name,DSOA Name,DSZAD Name
 Controller:MechanicalVentilation,CONTROLLER MECHANICAL VENTILATION 1,ALWAYS ON DISCRETE,No,ZoneSum,1.00,1,ALL_ST=LAB - RESEARCH_FL=STORY 1_SCH=A,SPACE FUNCTION LAB - RESEARCH VENTILATION,ALL_ST=LAB - RESEARCH_FL=STORY 1_SCH=A DESIGN SPEC ZONE AIR DIST
 Controller:MechanicalVentilation,CONTROLLER MECHANICAL VENTILATION 2,ALWAYS ON DISCRETE,No,ZoneSum,1.00,1,ALL_ST=LIBRARY - CATALOGING_FL=STORY 1_SCH=C,SPACE FUNCTION LIBRARY - CATALOGING VENTILATION,ALL_ST=LIBRARY - CATALOGING_FL=STORY 1_SCH=C DESIGN SPEC ZONE AIR DIST
 Controller:MechanicalVentilation,CONTROLLER MECHANICAL VENTILATION 3,ALWAYS ON DISCRETE,No,ZoneSum,1.00,1,ALL_ST=LIBRARY - READING_FL=STORY 1_SCH=C,SPACE FUNCTION LIBRARY - READING VENTILATION,ALL_ST=LIBRARY - READING_FL=STORY 1_SCH=C DESIGN SPEC ZONE AIR DIST
 Controller:MechanicalVentilation,CONTROLLER MECHANICAL VENTILATION 4,ALWAYS ON DISCRETE,No,ZoneSum,1.00,1,ALL_ST=LIBRARY - STACKS_FL=STORY 1_SCH=C,SPACE FUNCTION LIBRARY - STACKS VENTILATION,ALL_ST=LIBRARY - STACKS_FL=STORY 1_SCH=C DESIGN SPEC ZONE AIR DIST
 Controller:MechanicalVentilation,CONTROLLER MECHANICAL VENTILATION 5,ALWAYS ON DISCRETE,No,ZoneSum,1.00,1,ALL_ST=LOBBY - ELEVATOR_FL=STORY 1_SCH=C,SPACE FUNCTION LOBBY - ELEVATOR VENTILATION,ALL_ST=LOBBY - ELEVATOR_FL=STORY 1_SCH=C DESIGN SPEC ZONE AIR DIST
 Component Sizing Information, Controller:OutdoorAir, CONTROLLER OUTDOOR AIR 1, Maximum Outdoor Air Flow Rate [m3/s], 5.65725
 Component Sizing Information, Controller:OutdoorAir, CONTROLLER OUTDOOR AIR 1, Minimum Outdoor Air Flow Rate [m3/s], 5.46100
 Component Sizing Information, Coil:Cooling:DX:SingleSpeed, COIL COOLING DX SINGLE SPEED 1, Design Size Rated Air Flow Rate [m3/s], 5.65725
 Component Sizing Information, Coil:Cooling:DX:SingleSpeed, COIL COOLING DX SINGLE SPEED 1, Design Size Gross Rated Total Cooling Capacity [W], 95703.72109
 Component Sizing Information, Coil:Cooling:DX:SingleSpeed, COIL COOLING DX SINGLE SPEED 1, Design Size Gross Rated Sensible Heat Ratio, 0.80076
! <DX Cooling Coil Standard Rating Information>, Component Type, Component Name, Standard Rating (Net) Cooling Capacity {W}, Standard Rated Net COP {W/W}, EER {Btu/W-h}, SEER {Btu/W-h}, IEER {Btu/W-h}
 DX Cooling Coil Standard Rating Information, Coil:Cooling:DX:SingleSpeed, COIL COOLING DX SINGLE SPEED 1, 91313.6, 2.52, 8.59, 9.11, 8.75
 Component Sizing Information, Coil:Heating:Fuel, COIL HEATING GAS 1, Design Size Nominal Capacity [W], 505678.10012
 Component Sizing Information, Fan:ConstantVolume, FAN CONSTANT VOLUME 1, Design Size Maximum Flow Rate [m3/s], 5.65725
 Component Sizing Information, Controller:OutdoorAir, CONTROLLER OUTDOOR AIR 2, Maximum Outdoor Air Flow Rate [m3/s], 1.61925
 Component Sizing Information, Controller:OutdoorAir, CONTROLLER OUTDOOR AIR 2, Minimum Outdoor Air Flow Rate [m3/s], 1.61925
 Component Sizing Information, Coil:Cooling:DX:SingleSpeed, COIL COOLING DX SINGLE SPEED 2, Design Size Rated Air Flow Rate [m3/s], 1.61925
 Component Sizing Information, Coil:Cooling:DX:SingleSpeed, COIL COOLING DX SINGLE SPEED 2, Design Size Gross Rated Total Cooling Capacity [W], 27527.59141
 Component Sizing Information, Coil:Cooling:DX:SingleSpeed, COIL COOLING DX SINGLE SPEED 2, Design Size Gross Rated Sensible Heat Ratio, 0.80100
 DX Cooling Coil Standard Rating Information, Coil:Cooling:DX:SingleSpeed, COIL COOLING DX SINGLE SPEED 2, 26271.0, 2.52, 8.60, 9.12, 8.76
 Component Sizing Information, Coil:Heating:Fuel, COIL HEATING GAS 2, Design Size Nominal Capacity [W], 148524.19458
 Component Sizing Information, Fan:ConstantVolume, FAN CONSTANT VOLUME 2, Design Size Maximum Flow Rate [m3/s], 1.61925
 Component Sizing Information, Controller:OutdoorAir, CONTROLLER OUTDOOR AIR 3, Maximum Outdoor Air Flow Rate [m3/s], 1.61925
 Component Sizing Information, Controller:OutdoorAir, CONTROLLER OUTDOOR AIR 3, Minimum Outdoor Air Flow Rate [m3/s], 1.61925
 Component Sizing Information, Coil:Cooling:DX:SingleSpeed, COIL COOLING DX SINGLE SPEED 3, Design Size Rated Air Flow Rate [m3/s], 1.61925
 Component Sizing Information, Coil:Cooling:DX:SingleSpeed, COIL COOLING DX SINGLE SPEED 3, Design Size Gross Rated Total Cooling Capacity [W], 27527.59141
 Component Sizing Information, Coil:Cooling:DX:SingleSpeed, COIL COOLING DX SINGLE SPEED 3, Design Size Gross Rated Sensible Heat Ratio, 0.80100
 DX Cooling Coil Standard Rating Information, Coil:Cooling:DX:SingleSpeed, COIL COOLING DX SINGLE SPEED 3, 26271.0, 2.52, 8.60, 9.12, 8.76
 Component Sizing Information, Coil:Heating:Fuel, COIL HEATING GAS 3, Design Size Nominal Capacity [W], 148524.19458
 Component Sizing Information, Fan:ConstantVolume, FAN CONSTANT VOLUME 3, Design Size Maximum Flow Rate [m3/s], 1.61925
 Component Sizing Information, Controller:OutdoorAir, CONTROLLER OUTDOOR AIR 4, Maximum Outdoor Air Flow Rate [m3/s], 2.93359
 Component Sizing Information, Controller:OutdoorAir, CONTROLLER OUTDOOR AIR 4, Minimum Outdoor Air Flow Rate [m3/s], 1.61925
 Component Sizing Information, Coil:Cooling:DX:SingleSpeed, COIL COOLING DX SINGLE SPEED 4, Design Size Rated Air Flow Rate [m3/s], 2.93359
 Component Sizing Information, Coil:Cooling:DX:SingleSpeed, COIL COOLING DX SINGLE SPEED 4, Design Size Gross Rated Total Cooling Capacity [W], 48561.33842
 Component Sizing Information, Coil:Cooling:DX:SingleSpeed, COIL COOLING DX SINGLE SPEED 4, Design Size Gross Rated Sensible Heat Ratio, 0.80066
 DX Cooling Coil Standard Rating Information, Coil:Cooling:DX:SingleSpeed, COIL COOLING DX SINGLE SPEED 4, 46285.0, 2.51, 8.56, 9.08, 8.70
 Component Sizing Information, Coil:Heating:Fuel, COIL HEATING GAS 4, Design Size Nominal Capacity [W], 181910.06930
 Component Sizing Information, Fan:ConstantVolume, FAN CONSTANT VOLUME 4, Design Size Maximum Flow Rate [m3/s], 2.93359
 Component Sizing Information, Controller:OutdoorAir, CONTROLLER OUTDOOR AIR 5, Maximum Outdoor Air Flow Rate [m3/s], 7.71525
 Component Sizing Information, Controller:OutdoorAir, CONTROLLER OUTDOOR AIR 5, Minimum Outdoor Air Flow Rate [m3/s], 7.71525
 Component Sizing Information, Coil:Cooling:DX:SingleSpeed, COIL COOLING DX SINGLE SPEED 5, Design Size Rated Air Flow Rate [m3/s], 7.71525
 Component Sizing Information, Coil:Cooling:DX:SingleSpeed, COIL COOLING DX SINGLE SPEED 5, Design Size Gross Rated Total Cooling Capacity [W], 131160.87670
 Component Sizing Information, Coil:Cooling:DX:SingleSpeed, COIL COOLING DX SINGLE SPEED 5, Design Size Gross Rated Sensible Heat Ratio, 0.80100
 DX Cooling Coil Standard Rating Information, Coil:Cooling:DX:SingleSpeed, COIL COOLING DX SINGLE SPEED 5, 125173.6, 2.52, 8.60, 9.12, 8.76
 Component Sizing Information, Coil:Heating:Fuel, COIL HEATING GAS 5, Design Size Nominal Capacity [W], 707674.10357
 Component Sizing Information, Fan:ConstantVolume, FAN CONSTANT VOLUME 5, Design Size Maximum Flow Rate [m3/s], 7.71525
Water Heater Information,WaterHeater:Mixed,237GAL NATURALGAS WATER HEATER - 160KBTU/HR,0.8959,46813.5,0.781,0.6314
 Component Sizing Information, PlantLoop, HOT WATER LOOP, Maximum Loop Flow Rate [m3/s], 4.04201E-004
 Component Sizing Information, PlantLoop, HOT WATER LOOP, Plant Loop Volume [m3], 4.85041E-002
 Component Sizing Information, Pump:VariableSpeed, PUMP VARIABLE SPEED 1, Design Flow Rate [m3/s], 4.04201E-004
 Component Sizing Information, Pump:VariableSpeed, PUMP VARIABLE SPEED 1, Design Power Consumption [W], 103.26811
 Component Sizing Information, Boiler:HotWater, PRIMARY BOILER, Design Size Nominal Capacity [W], 27167.28051
 Component Sizing Information, Boiler:HotWater, PRIMARY BOILER, Design Size Design Water Flow Rate [m3/s], 4.04201E-004
 Component Sizing Information, Boiler:HotWater, SECONDARY BOILER, Design Size Nominal Capacity [W], 27167.28051
 Component Sizing Information, Boiler:HotWater, SECONDARY BOILER, Design Size Design Water Flow Rate [m3/s], 4.04201E-004
 Component Sizing Information, PlantLoop, MAIN SERVICE WATER LOOP, Maximum Loop Flow Rate [m3/s], 2.57197E-004
 Component Sizing Information, PlantLoop, MAIN SERVICE WATER LOOP, Plant Loop Volume [m3], 3.08637E-002
 Component Sizing Information, Pump:ConstantSpeed, SERVICE WATER LOOP PUMP, Design Flow Rate [m3/s], 2.57197E-004
 Component Sizing Information, Pump:ConstantSpeed, SERVICE WATER LOOP PUMP, Design Power Consumption [W], 13.59012
 Component Sizing Information, WaterHeater:Mixed, 237GAL NATURALGAS WATER HEATER - 160KBTU/HR, Use Side Design Flow Rate [m3/s], 2.57197E-004
! <Environment>,Environment Name,Environment Type, Start Date, End Date, Start DayOfWeek, Duration {#days}, Source:Start DayOfWeek,  Use Daylight Saving, Use Holidays, Apply Weekend Holiday Rule,  Use Rain Values, Use Snow Values
! <Environment:Special Days>, Special Day Name, Special Day Type, Source, Start Date, Duration {#days}
! <Environment:Daylight Saving>, Daylight Saving Indicator, Source, Start Date, End Date
! <Environment:WarmupDays>, NumberofWarmupDays
Environment,FORT MCMURRAY AP ANN CLG .4% CONDNS DB=>MWB,SizingPeriod:DesignDay,07/21,07/21,SummerDesignDay,1,N/A,N/A,N/A,N/A,N/A,N/A
Environment:Daylight Saving,No,SizingPeriod:DesignDay
! <Environment:Design Day Data>, Max Dry-Bulb Temp {C}, Temp Range {dC}, Temp Range Ind Type, Hum Ind Value at Max Temp, Hum Ind Type,Pressure {Pa}, Wind Direction {deg CW from N}, Wind Speed {m/s}, Clearness, Rain, Snow
! <Environment:Design Day Misc>,DayOfYear,ASHRAE A Coeff,ASHRAE B Coeff,ASHRAE C Coeff,Solar Constant-Annual Variation,Eq of Time {minutes}, Solar Declination Angle {deg}, Solar Model
Environment:Design Day Data,28.90,12.40,DefaultMultipliers,96969,250,3.7,0.00,No,No
Environment:Design Day Misc,202,1084.4,0.2082,0.1365,1.0,-6.23,20.6,ASHRAETau
Environment:WarmupDays,  6
! <Tabular Report>,Style,Unit Conversion
Tabular Report,HTML,None
! <Warmup Convergence Information>,Zone Name,Environment Type/Name,Average Warmup Temperature Difference {deltaC},Std Dev Warmup Temperature Difference {deltaC},Max Temperature Pass/Fail Convergence,Min Temperature Pass/Fail Convergence,Average Warmup Load Difference {W},Std Dev Warmup Load Difference {W},Heating Load Pass/Fail Convergence,Cooling Load Pass/Fail Convergence
 Warmup Convergence Information,ALL_ST=LAB - RESEARCH_FL=STORY 1_SCH=A,SizingPeriod: FORT MCMURRAY AP ANN CLG .4% CONDNS DB=>MWB,8.0049366587E-002,0.2116459645,Pass,Pass,8.4040211937E-002,0.3048671350,Pass,Pass
 Warmup Convergence Information,ALL_ST=LIBRARY - CATALOGING_FL=STORY 1_SCH=C,SizingPeriod: FORT MCMURRAY AP ANN CLG .4% CONDNS DB=>MWB,6.4902633843E-002,0.1454127498,Pass,Pass,6.3179743503E-002,0.1685692357,Pass,Pass
 Warmup Convergence Information,ALL_ST=LIBRARY - READING_FL=STORY 1_SCH=C,SizingPeriod: FORT MCMURRAY AP ANN CLG .4% CONDNS DB=>MWB,6.4226711344E-002,0.1388292381,Pass,Pass,6.2397435562E-002,0.1717398369,Pass,Pass
 Warmup Convergence Information,ALL_ST=LIBRARY - STACKS_FL=STORY 1_SCH=C,SizingPeriod: FORT MCMURRAY AP ANN CLG .4% CONDNS DB=>MWB,5.7842204230E-002,0.1393504972,Pass,Pass,6.3672590306E-002,0.3099058826,Pass,Pass
 Warmup Convergence Information,ALL_ST=LOBBY - ELEVATOR_FL=STORY 1_SCH=C,SizingPeriod: FORT MCMURRAY AP ANN CLG .4% CONDNS DB=>MWB,9.0327879760E-002,0.2420711885,Pass,Pass,0.1984711756,0.7836832337,Pass,Pass
Environment,FORT MCMURRAY AP ANN HTG 99.6% CONDNS DB,SizingPeriod:DesignDay,01/21,01/21,WinterDesignDay,1,N/A,N/A,N/A,N/A,N/A,N/A
Environment:Daylight Saving,No,SizingPeriod:DesignDay
Environment:Design Day Data,-36.20,0.00,DefaultMultipliers,96969,90,1.0,0.00,No,No
Environment:Design Day Misc, 21,1229.0,0.1415,5.7310E-002,1.0,-11.15,-20.1,ASHRAEClearSky
Environment:WarmupDays,  6
 Warmup Convergence Information,ALL_ST=LAB - RESEARCH_FL=STORY 1_SCH=A,SizingPeriod: FORT MCMURRAY AP ANN HTG 99.6% CONDNS DB,7.2895688391E-002,0.2586595845,Pass,Pass,0.4297033040,2.4965755062,Pass,Pass
 Warmup Convergence Information,ALL_ST=LIBRARY - CATALOGING_FL=STORY 1_SCH=C,SizingPeriod: FORT MCMURRAY AP ANN HTG 99.6% CONDNS DB,6.3069917633E-002,0.2122481507,Pass,Pass,0.3503608112,2.0283741311,Pass,Pass
 Warmup Convergence Information,ALL_ST=LIBRARY - READING_FL=STORY 1_SCH=C,SizingPeriod: FORT MCMURRAY AP ANN HTG 99.6% CONDNS DB,6.6734248940E-002,0.2111413839,Pass,Pass,0.3261232842,1.7539173705,Pass,Pass
 Warmup Convergence Information,ALL_ST=LIBRARY - STACKS_FL=STORY 1_SCH=C,SizingPeriod: FORT MCMURRAY AP ANN HTG 99.6% CONDNS DB,6.6395059274E-002,0.2386979999,Pass,Pass,0.2935560569,1.8436089543,Pass,Pass
 Warmup Convergence Information,ALL_ST=LOBBY - ELEVATOR_FL=STORY 1_SCH=C,SizingPeriod: FORT MCMURRAY AP ANN HTG 99.6% CONDNS DB,5.5556278355E-002,0.3054547998,Pass,Pass,0.4907870378,2.3477888897,Pass,Pass
! <Program Control Information:Threads/Parallel Sims>, Threading Supported,Maximum Number of Threads, Env Set Threads (OMP_NUM_THREADS), EP Env Set Threads (EP_OMP_NUM_THREADS), IDF Set Threads, Number of Threads Used (Interior Radiant Exchange), Number Nominal Surfaces, Number Parallel Sims
Program Control:Threads/Parallel Sims, No,1, N/A, N/A, N/A, N/A, N/A, N/A
End of Data
