Program Version,EnergyPlus, Version 8.9.0-eba93e8e1b, YMD=2019.03.19 18:40
! <Version>, Version ID
 Version, 8.9
! <Timesteps per Hour>, #TimeSteps, Minutes per TimeStep {minutes}
 Timesteps per Hour,  6, 10
! <System Convergence Limits>, Minimum System TimeStep {minutes}, Max HVAC Iterations, Minimum Plant Iterations, Maximum Plant Iterations
 System Convergence Limits, 1, 20, 2, 8
! <Simulation Control>, Do Zone Sizing, Do System Sizing, Do Plant Sizing, Do Design Days, Do Weather Simulation, Do HVAC Sizing Simulation
 Simulation Control, Yes, Yes, Yes, No, Yes, No
! <Output Reporting Tolerances>, Tolerance for Time Heating Setpoint Not Met, Tolerance for Zone Cooling Setpoint Not Met Time
 Output Reporting Tolerances, 1.000, 1.000, 
! <Site:GroundTemperature:BuildingSurface>,Jan{C},Feb{C},Mar{C},Apr{C},May{C},Jun{C},Jul{C},Aug{C},Sep{C},Oct{C},Nov{C},Dec{C}
 Site:GroundTemperature:BuildingSurface,  19.53,  19.50,  19.54,  19.60,  20.00,  21.64,  22.23,  22.38,  21.45,  20.12,  19.80,  19.63
! <Site:GroundTemperature:FCfactorMethod>,Jan{C},Feb{C},Mar{C},Apr{C},May{C},Jun{C},Jul{C},Aug{C},Sep{C},Oct{C},Nov{C},Dec{C}
 Site:GroundTemperature:FCfactorMethod, -12.27, -13.66, -11.19,  -7.33,   2.77,  10.57,  15.83,  17.43,  14.70,   8.65,   0.56,  -6.95
! <Site:GroundTemperature:Shallow>,Jan{C},Feb{C},Mar{C},Apr{C},May{C},Jun{C},Jul{C},Aug{C},Sep{C},Oct{C},Nov{C},Dec{C}
 Site:GroundTemperature:Shallow,  13.00,  13.00,  13.00,  13.00,  13.00,  13.00,  13.00,  13.00,  13.00,  13.00,  13.00,  13.00
! <Site:GroundTemperature:Deep>,Jan{C},Feb{C},Mar{C},Apr{C},May{C},Jun{C},Jul{C},Aug{C},Sep{C},Oct{C},Nov{C},Dec{C}
 Site:GroundTemperature:Deep,  16.00,  16.00,  16.00,  16.00,  16.00,  16.00,  16.00,  16.00,  16.00,  16.00,  16.00,  16.00
! <Site:GroundReflectance>,Jan{dimensionless},Feb{dimensionless},Mar{dimensionless},Apr{dimensionless},May{dimensionless},Jun{dimensionless},Jul{dimensionless},Aug{dimensionless},Sep{dimensionless},Oct{dimensionless},Nov{dimensionless},Dec{dimensionless}
 Site:GroundReflectance,  0.20,  0.20,  0.20,  0.20,  0.20,  0.20,  0.20,  0.20,  0.20,  0.20,  0.20,  0.20
! <Site:GroundReflectance:SnowModifier>, Normal, Daylighting {dimensionless}
 Site:GroundReflectance:SnowModifier,   1.000,   1.000
! <Site:GroundReflectance:Snow>,Jan{dimensionless},Feb{dimensionless},Mar{dimensionless},Apr{dimensionless},May{dimensionless},Jun{dimensionless},Jul{dimensionless},Aug{dimensionless},Sep{dimensionless},Oct{dimensionless},Nov{dimensionless},Dec{dimensionless}
 Site:GroundReflectance:Snow,  0.20,  0.20,  0.20,  0.20,  0.20,  0.20,  0.20,  0.20,  0.20,  0.20,  0.20,  0.20
! <Site:GroundReflectance:Snow:Daylighting>,Jan{dimensionless},Feb{dimensionless},Mar{dimensionless},Apr{dimensionless},May{dimensionless},Jun{dimensionless},Jul{dimensionless},Aug{dimensionless},Sep{dimensionless},Oct{dimensionless},Nov{dimensionless},Dec{dimensionless}
 Site:GroundReflectance:Snow:Daylighting,  0.20,  0.20,  0.20,  0.20,  0.20,  0.20,  0.20,  0.20,  0.20,  0.20,  0.20,  0.20
! <Environment:Weather Station>,Wind Sensor Height Above Ground {m},Wind Speed Profile Exponent {},Wind Speed Profile Boundary Layer Thickness {m},Air Temperature Sensor Height Above Ground {m},Wind Speed Modifier Coefficient-Internal,Temperature Modifier Coefficient-Internal
Environment:Weather Station,10.000,0.140,270.000,1.500,1.586,9.750E-003
! <Site:Location>, Location Name, Latitude {N+/S- Deg}, Longitude {E+/W- Deg},  Time Zone Number {GMT+/-}, Elevation {m},  Standard Pressure at Elevation {Pa}, Standard RhoAir at Elevation
Site:Location,Fort McMurray AP AB CAN CWEC2016 WMO#=716890,56.65,-111.22,-7.00,369.10,96969,1.1525
! <Building Information>, Building Name,North Axis {deg},Terrain,  Loads Convergence Tolerance Value,Temperature Convergence Tolerance Value,  Solar Distribution,Maximum Number of Warmup Days,Minimum Number of Warmup Days
 Building Information,Building 1,0.000,Suburbs,4.00000E-002,0.40000,FullExterior,25,6
! <Inside Convection Algorithm>, Algorithm {Simple | TARP | CeilingDiffuser | AdaptiveConvectionAlgorithm}
Inside Convection Algorithm,TARP
! <Outside Convection Algorithm>, Algorithm {SimpleCombined | TARP | MoWitt | DOE-2 | AdaptiveConvectionAlgorithm}
Outside Convection Algorithm,TARP
! <Sky Radiance Distribution>, Value {Anisotropic}
Sky Radiance Distribution,Anisotropic
! <Zone Air Solution Algorithm>, Value {ThirdOrderBackwardDifference | AnalyticalSolution | EulerMethod}
 Zone Air Solution Algorithm, ThirdOrderBackwardDifference
! <Zone Air Carbon Dioxide Balance Simulation>, Simulation {Yes/No}, Carbon Dioxide Concentration
 Zone Air Carbon Dioxide Balance Simulation, No,N/A
! <Zone Air Generic Contaminant Balance Simulation>, Simulation {Yes/No}, Generic Contaminant Concentration
 Zone Air Generic Contaminant Balance Simulation, No,N/A
! <Zone Air Mass Flow Balance Simulation>, Enforce Mass Balance, Adjust Zone Mixing, Adjust Zone Infiltration {AddInfiltration | AdjustInfiltration | None}, Infiltration Zones {MixingSourceZonesOnly | AllZones}
 Zone Air Mass Flow Balance Simulation, No,N/A,N/A,N/A
! <HVACSystemRootFindingAlgorithm>, Value {RegulaFalsi | Bisection | BisectionThenRegulaFalsi | RegulaFalsiThenBisection}
 HVACSystemRootFindingAlgorithm, RegulaFalsi
! <Environment:Site Atmospheric Variation>,Wind Speed Profile Exponent {},Wind Speed Profile Boundary Layer Thickness {m},Air Temperature Gradient Coefficient {K/m}
Environment:Site Atmospheric Variation,0.220,370.000,6.500000E-003
! <Surface Geometry>,Starting Corner,Vertex Input Direction,Coordinate System,Daylight Reference Point Coordinate System,Rectangular (Simple) Surface Coordinate System
 Surface Geometry,UpperLeftCorner,Counterclockwise,RelativeCoordinateSystem,RelativeCoordinateSystem,RelativeToZoneOrigin
! <Surface Heat Transfer Algorithm>, Value {CTF - ConductionTransferFunction | EMPD - MoisturePenetrationDepthConductionTransferFunction | CondFD - ConductionFiniteDifference | HAMT - CombinedHeatAndMoistureFiniteElement} - Description,Inside Surface Max Temperature Limit{C}, Surface Convection Coefficient Lower Limit {W/m2-K}, Surface Convection Coefficient Upper Limit {W/m2-K}
Surface Heat Transfer Algorithm, CTF - ConductionTransferFunction,200,0.10,1000.0
! <Shading Summary>, Number of Fixed Detached Shades, Number of Building Detached Shades, Number of Attached Shades
 Shading Summary,0,0,0
! <Zone Summary>, Number of Zones, Number of Zone Surfaces, Number of SubSurfaces
 Zone Summary,20,137,17
! <Zone Information>,Zone Name,North Axis {deg},Origin X-Coordinate {m},Origin Y-Coordinate {m},Origin Z-Coordinate {m},Centroid X-Coordinate {m},Centroid Y-Coordinate {m},Centroid Z-Coordinate {m},Type,Zone Multiplier,Zone List Multiplier,Minimum X {m},Maximum X {m},Minimum Y {m},Maximum Y {m},Minimum Z {m},Maximum Z {m},Ceiling Height {m},Volume {m3},Zone Inside Convection Algorithm {Simple-Detailed-CeilingDiffuser-TrombeWall},Zone Outside Convection Algorithm {Simple-Detailed-Tarp-MoWitt-DOE-2-BLAST}, Floor Area {m2},Exterior Gross Wall Area {m2},Exterior Net Wall Area {m2},Exterior Window Area {m2}, Number of Surfaces, Number of SubSurfaces, Number of Shading SubSurfaces,  Part of Total Building Area
 Zone Information, ALL_ST=HOTEL/MOTEL - DINING_FL=STORY 4_SCH=B,0.0,0.00,0.00,11.40,10.85,50.00,13.30,1,1,1,0.00,25.00,0.00,100.00,11.40,15.20,3.80,7125.00,TARP,TARP,1875.00,380.00,285.00,188.75,6,2,0,Yes
 Zone Information, ALL_ST=HOTEL/MOTEL - LOBBY_FL=STORY 1_SCH=H,0.0,0.00,0.00,0.00,10.85,50.00,1.90,1,1,1,0.00,25.00,0.00,100.00,0.00,3.80,3.80,7125.00,TARP,TARP,1875.00,0.00,0.00,0.00,6,0,0,Yes
 Zone Information, ALL_ST=HWAY LODGING - DINING_FL=STORY 3_SCH=B,0.0,25.00,75.00,7.60,50.00,89.15,9.50,1,1,1,0.00,100.00,75.00,100.00,7.60,11.40,3.80,7125.00,TARP,TARP,1875.00,380.00,285.00,95.00,6,1,0,Yes
 Zone Information, ALL_ST=LAB - CLASSROOMS_FL=STORY 2_SCH=D,0.0,25.00,25.00,3.80,50.00,50.00,5.70,1,1,1,25.00,75.00,25.00,75.00,3.80,7.60,3.80,9500.00,TARP,TARP,2500.00,0.00,0.00,0.00,6,0,0,Yes
 Zone Information, DU_BT=SPACE FUNCTION_ST=HOTEL/MOTEL - ROOMS_FL=STORY 2_SCHF,0.0,75.00,25.00,3.80,89.15,50.00,5.70,1,1,1,75.00,100.00,0.00,100.00,3.80,7.60,3.80,7125.00,TARP,TARP,1875.00,380.00,285.00,95.00,6,1,0,Yes
 Zone Information, DU_BT=SPACE FUNCTION_ST=HWAY LODGING - ROOMS_FL=STORY 2_SCHF,0.0,0.00,0.00,3.80,50.00,10.85,5.70,1,1,1,0.00,100.00,0.00,25.00,3.80,7.60,3.80,7125.00,TARP,TARP,1875.00,380.00,285.00,95.00,6,1,0,Yes
 Zone Information, WILD_ST=HOSPITAL CORR. < 2.4M-SCH-E_FL=STORY 4_SCH=B,0.0,25.00,25.00,11.40,50.00,50.00,13.30,1,1,1,25.00,75.00,25.00,75.00,11.40,15.20,3.80,9500.00,TARP,TARP,2500.00,0.00,0.00,125.00,6,1,0,Yes
 Zone Information, WILD_ST=HOSPITAL CORR. < 2.4M-SCH-F_FL=STORY 4_SCH=B,0.0,0.00,0.00,11.40,50.00,10.85,13.30,1,1,1,0.00,100.00,0.00,25.00,11.40,15.20,3.80,7125.00,TARP,TARP,1875.00,380.00,285.00,188.75,6,2,0,Yes
 Zone Information, WILD_ST=HOSPITAL CORR. < 2.4M-SCH-G_FL=STORY 4_SCH=B,0.0,75.00,25.00,11.40,89.15,50.00,13.30,1,1,1,75.00,100.00,0.00,100.00,11.40,15.20,3.80,7125.00,TARP,TARP,1875.00,380.00,285.00,188.75,6,2,0,Yes
 Zone Information, WILD_ST=HOSPITAL CORR. < 2.4M-SCH-H_FL=STORY 4_SCH=B,0.0,25.00,75.00,11.40,50.00,89.15,13.30,1,1,1,0.00,100.00,75.00,100.00,11.40,15.20,3.80,7125.00,TARP,TARP,1875.00,380.00,285.00,188.75,6,2,0,Yes
 Zone Information, WILD_ST=HOSPITAL CORR. < 2.4M-SCH-I_FL=STORY 3_SCH=B,0.0,0.00,0.00,7.60,50.00,10.85,9.50,1,1,1,0.00,100.00,0.00,25.00,7.60,11.40,3.80,7125.00,TARP,TARP,1875.00,380.00,285.00,95.00,6,1,0,Yes
 Zone Information, WILD_ST=HOSPITAL CORR. >= 2.4M-SCH-A_FL=STORY 3_SCH=B,0.0,75.00,25.00,7.60,89.15,50.00,9.50,1,1,1,75.00,100.00,0.00,100.00,7.60,11.40,3.80,7125.00,TARP,TARP,1875.00,380.00,285.00,95.00,6,1,0,Yes
 Zone Information, WILD_ST=HOSPITAL CORR. >= 2.4M-SCH-B_FL=STORY 1_SCH=B,0.0,25.00,75.00,0.00,50.00,89.15,1.90,1,1,1,0.00,100.00,75.00,100.00,0.00,3.80,3.80,7125.00,TARP,TARP,1875.00,0.00,0.00,0.00,6,0,0,Yes
 Zone Information, WILD_ST=HOSPITAL CORR. >= 2.4M-SCH-C_FL=STORY 3_SCH=B,0.0,25.00,25.00,7.60,50.00,50.00,9.50,1,1,1,25.00,75.00,25.00,75.00,7.60,11.40,3.80,9500.00,TARP,TARP,2500.00,0.00,0.00,0.00,6,0,0,Yes
 Zone Information, WILD_ST=HOSPITAL CORR. >= 2.4M-SCH-D_FL=STORY 3_SCH=B,0.0,0.00,0.00,7.60,10.85,50.00,9.50,1,1,1,0.00,25.00,0.00,100.00,7.60,11.40,3.80,7125.00,TARP,TARP,1875.00,380.00,285.00,95.00,6,1,0,Yes
 Zone Information, WILD_ST=HOSPITAL CORR. >= 2.4M-SCH-E_FL=STORY 2_SCH=B,0.0,25.00,75.00,3.80,50.00,89.15,5.70,1,1,1,0.00,100.00,75.00,100.00,3.80,7.60,3.80,7125.00,TARP,TARP,1875.00,380.00,285.00,95.00,6,1,0,Yes
 Zone Information, WILD_ST=HOSPITAL CORR. >= 2.4M-SCH-F_FL=STORY 1_SCH=B,0.0,75.00,25.00,0.00,89.15,50.00,1.90,1,1,1,75.00,100.00,0.00,100.00,0.00,3.80,3.80,7125.00,TARP,TARP,1875.00,0.00,0.00,0.00,6,0,0,Yes
 Zone Information, WILD_ST=HOSPITAL CORR. >= 2.4M-SCH-G_FL=STORY 1_SCH=B,0.0,0.00,0.00,0.00,50.00,10.85,1.90,1,1,1,0.00,100.00,0.00,25.00,0.00,3.80,3.80,7125.00,TARP,TARP,1875.00,0.00,0.00,0.00,6,0,0,Yes
 Zone Information, WILD_ST=HOSPITAL CORR. >= 2.4M-SCH-H_FL=STORY 1_SCH=B,0.0,25.00,25.00,0.00,50.00,50.00,1.90,1,1,1,25.00,75.00,25.00,75.00,0.00,3.80,3.80,9500.00,TARP,TARP,2500.00,0.00,0.00,0.00,6,0,0,Yes
 Zone Information, WILD_ST=HOSPITAL CORR. >= 2.4M-SCH-I_FL=STORY 2_SCH=B,0.0,0.00,0.00,3.80,10.85,50.00,5.70,1,1,1,0.00,25.00,0.00,100.00,3.80,7.60,3.80,7125.00,TARP,TARP,1875.00,380.00,285.00,95.00,6,1,0,Yes
! <Zone Internal Gains Nominal>,Zone Name, Floor Area {m2},# Occupants,Area per Occupant {m2/person},Occupant per Area {person/m2},Interior Lighting {W/m2},Electric Load {W/m2},Gas Load {W/m2},Other Load {W/m2},Hot Water Eq {W/m2},Steam Equipment {W/m2},Sum Loads per Area {W/m2},Outdoor Controlled Baseboard Heat
 Zone Internal Gains Nominal, ALL_ST=HOTEL/MOTEL - DINING_FL=STORY 4_SCH=B,1875.00,187.5,10.000,10.000E-002,8.800,1.000,0.000,0.000,0.000,0.000,9.800,No
 Zone Internal Gains Nominal, ALL_ST=HOTEL/MOTEL - LOBBY_FL=STORY 1_SCH=H,1875.00,187.5,10.000,10.000E-002,11.400,2.500,0.000,0.000,0.000,0.000,13.900,No
 Zone Internal Gains Nominal, ALL_ST=HWAY LODGING - DINING_FL=STORY 3_SCH=B,1875.00,187.5,10.000,10.000E-002,9.500,1.000,0.000,0.000,0.000,0.000,10.500,No
 Zone Internal Gains Nominal, ALL_ST=LAB - CLASSROOMS_FL=STORY 2_SCH=D,2500.00,125.1,19.979,5.005E-002,17.200,10.000,0.000,0.000,0.000,0.000,27.200,No
 Zone Internal Gains Nominal, DU_BT=SPACE FUNCTION_ST=HOTEL/MOTEL - ROOMS_FL=STORY 2_SCHF,1875.00,75.1,24.974,4.004E-002,11.900,2.500,0.000,0.000,0.000,0.000,14.400,No
 Zone Internal Gains Nominal, DU_BT=SPACE FUNCTION_ST=HWAY LODGING - ROOMS_FL=STORY 2_SCHF,1875.00,75.1,24.974,4.004E-002,8.100,2.500,0.000,0.000,0.000,0.000,10.600,No
 Zone Internal Gains Nominal, WILD_ST=HOSPITAL CORR. < 2.4M-SCH-E_FL=STORY 4_SCH=B,2500.00,25.0,99.896,1.001E-002,11.700,0.000,0.000,0.000,0.000,0.000,11.700,No
 Zone Internal Gains Nominal, WILD_ST=HOSPITAL CORR. < 2.4M-SCH-F_FL=STORY 4_SCH=B,1875.00,18.8,99.896,1.001E-002,11.700,0.000,0.000,0.000,0.000,0.000,11.700,No
 Zone Internal Gains Nominal, WILD_ST=HOSPITAL CORR. < 2.4M-SCH-G_FL=STORY 4_SCH=B,1875.00,18.8,99.896,1.001E-002,11.700,0.000,0.000,0.000,0.000,0.000,11.700,No
 Zone Internal Gains Nominal, WILD_ST=HOSPITAL CORR. < 2.4M-SCH-H_FL=STORY 4_SCH=B,1875.00,18.8,99.896,1.001E-002,11.700,0.000,0.000,0.000,0.000,0.000,11.700,No
 Zone Internal Gains Nominal, WILD_ST=HOSPITAL CORR. < 2.4M-SCH-I_FL=STORY 3_SCH=B,1875.00,18.8,99.896,1.001E-002,11.700,0.000,0.000,0.000,0.000,0.000,11.700,No
 Zone Internal Gains Nominal, WILD_ST=HOSPITAL CORR. >= 2.4M-SCH-A_FL=STORY 3_SCH=B,1875.00,18.8,99.896,1.001E-002,9.600,0.000,0.000,0.000,0.000,0.000,9.600,No
 Zone Internal Gains Nominal, WILD_ST=HOSPITAL CORR. >= 2.4M-SCH-B_FL=STORY 1_SCH=B,1875.00,18.8,99.896,1.001E-002,9.600,0.000,0.000,0.000,0.000,0.000,9.600,No
 Zone Internal Gains Nominal, WILD_ST=HOSPITAL CORR. >= 2.4M-SCH-C_FL=STORY 3_SCH=B,2500.00,25.0,99.896,1.001E-002,9.600,0.000,0.000,0.000,0.000,0.000,9.600,No
 Zone Internal Gains Nominal, WILD_ST=HOSPITAL CORR. >= 2.4M-SCH-D_FL=STORY 3_SCH=B,1875.00,18.8,99.896,1.001E-002,9.600,0.000,0.000,0.000,0.000,0.000,9.600,No
 Zone Internal Gains Nominal, WILD_ST=HOSPITAL CORR. >= 2.4M-SCH-E_FL=STORY 2_SCH=B,1875.00,18.8,99.896,1.001E-002,9.600,0.000,0.000,0.000,0.000,0.000,9.600,No
 Zone Internal Gains Nominal, WILD_ST=HOSPITAL CORR. >= 2.4M-SCH-F_FL=STORY 1_SCH=B,1875.00,18.8,99.896,1.001E-002,9.600,0.000,0.000,0.000,0.000,0.000,9.600,No
 Zone Internal Gains Nominal, WILD_ST=HOSPITAL CORR. >= 2.4M-SCH-G_FL=STORY 1_SCH=B,1875.00,18.8,99.896,1.001E-002,9.600,0.000,0.000,0.000,0.000,0.000,9.600,No
 Zone Internal Gains Nominal, WILD_ST=HOSPITAL CORR. >= 2.4M-SCH-H_FL=STORY 1_SCH=B,2500.00,25.0,99.896,1.001E-002,9.600,0.000,0.000,0.000,0.000,0.000,9.600,No
 Zone Internal Gains Nominal, WILD_ST=HOSPITAL CORR. >= 2.4M-SCH-I_FL=STORY 2_SCH=B,1875.00,18.8,99.896,1.001E-002,9.600,0.000,0.000,0.000,0.000,0.000,9.600,No
! <People Internal Gains Nominal>,Name,Schedule Name,Zone Name,Zone Floor Area {m2},# Zone Occupants,Number of People {},People/Floor Area {person/m2},Floor Area per person {m2/person},Fraction Radiant,Fraction Convected,Sensible Fraction Calculation,Activity level,ASHRAE 55 Warnings,Carbon Dioxide Generation Rate,Nominal Minimum Number of People,Nominal Maximum Number of People
 People Internal Gains Nominal, WILD_ST=HOSPITAL CORR. < 2.4M-SCH-E_FL=STORY 4_SCH=B SPACE FUNCTION HOSPITAL CORR. < 2.4M-SCH-B PEOPLE,NECB-B-OCCUPANCY,WILD_ST=HOSPITAL CORR. < 2.4M-SCH-E_FL=STORY 4_SCH=B,2500.00,25.0,25.0,1.001E-002,99.896,0.300,0.700,AutoCalculate,NECB-ACTIVITY,No,3.8200E-008,0,23
 People Internal Gains Nominal, WILD_ST=HOSPITAL CORR. < 2.4M-SCH-F_FL=STORY 4_SCH=B SPACE FUNCTION HOSPITAL CORR. < 2.4M-SCH-B PEOPLE,NECB-B-OCCUPANCY,WILD_ST=HOSPITAL CORR. < 2.4M-SCH-F_FL=STORY 4_SCH=B,1875.00,18.8,18.8,1.001E-002,99.896,0.300,0.700,AutoCalculate,NECB-ACTIVITY,No,3.8200E-008,0,17
 People Internal Gains Nominal, WILD_ST=HOSPITAL CORR. < 2.4M-SCH-G_FL=STORY 4_SCH=B SPACE FUNCTION HOSPITAL CORR. < 2.4M-SCH-B PEOPLE,NECB-B-OCCUPANCY,WILD_ST=HOSPITAL CORR. < 2.4M-SCH-G_FL=STORY 4_SCH=B,1875.00,18.8,18.8,1.001E-002,99.896,0.300,0.700,AutoCalculate,NECB-ACTIVITY,No,3.8200E-008,0,17
 People Internal Gains Nominal, WILD_ST=HOSPITAL CORR. < 2.4M-SCH-H_FL=STORY 4_SCH=B SPACE FUNCTION HOSPITAL CORR. < 2.4M-SCH-B PEOPLE,NECB-B-OCCUPANCY,WILD_ST=HOSPITAL CORR. < 2.4M-SCH-H_FL=STORY 4_SCH=B,1875.00,18.8,18.8,1.001E-002,99.896,0.300,0.700,AutoCalculate,NECB-ACTIVITY,No,3.8200E-008,0,17
 People Internal Gains Nominal, WILD_ST=HOSPITAL CORR. < 2.4M-SCH-I_FL=STORY 3_SCH=B SPACE FUNCTION HOSPITAL CORR. < 2.4M-SCH-B PEOPLE,NECB-B-OCCUPANCY,WILD_ST=HOSPITAL CORR. < 2.4M-SCH-I_FL=STORY 3_SCH=B,1875.00,18.8,18.8,1.001E-002,99.896,0.300,0.700,AutoCalculate,NECB-ACTIVITY,No,3.8200E-008,0,17
 People Internal Gains Nominal, WILD_ST=HOSPITAL CORR. >= 2.4M-SCH-A_FL=STORY 3_SCH=B SPACE FUNCTION HOSPITAL CORR. >= 2.4M-SCH-B PEOPLE,NECB-B-OCCUPANCY,WILD_ST=HOSPITAL CORR. >= 2.4M-SCH-A_FL=STORY 3_SCH=B,1875.00,18.8,18.8,1.001E-002,99.896,0.300,0.700,AutoCalculate,NECB-ACTIVITY,No,3.8200E-008,0,17
 People Internal Gains Nominal, WILD_ST=HOSPITAL CORR. >= 2.4M-SCH-B_FL=STORY 1_SCH=B SPACE FUNCTION HOSPITAL CORR. >= 2.4M-SCH-B PEOPLE,NECB-B-OCCUPANCY,WILD_ST=HOSPITAL CORR. >= 2.4M-SCH-B_FL=STORY 1_SCH=B,1875.00,18.8,18.8,1.001E-002,99.896,0.300,0.700,AutoCalculate,NECB-ACTIVITY,No,3.8200E-008,0,17
 People Internal Gains Nominal, WILD_ST=HOSPITAL CORR. >= 2.4M-SCH-C_FL=STORY 3_SCH=B SPACE FUNCTION HOSPITAL CORR. >= 2.4M-SCH-B PEOPLE,NECB-B-OCCUPANCY,WILD_ST=HOSPITAL CORR. >= 2.4M-SCH-C_FL=STORY 3_SCH=B,2500.00,25.0,25.0,1.001E-002,99.896,0.300,0.700,AutoCalculate,NECB-ACTIVITY,No,3.8200E-008,0,23
 People Internal Gains Nominal, WILD_ST=HOSPITAL CORR. >= 2.4M-SCH-D_FL=STORY 3_SCH=B SPACE FUNCTION HOSPITAL CORR. >= 2.4M-SCH-B PEOPLE,NECB-B-OCCUPANCY,WILD_ST=HOSPITAL CORR. >= 2.4M-SCH-D_FL=STORY 3_SCH=B,1875.00,18.8,18.8,1.001E-002,99.896,0.300,0.700,AutoCalculate,NECB-ACTIVITY,No,3.8200E-008,0,17
 People Internal Gains Nominal, WILD_ST=HOSPITAL CORR. >= 2.4M-SCH-E_FL=STORY 2_SCH=B SPACE FUNCTION HOSPITAL CORR. >= 2.4M-SCH-B PEOPLE,NECB-B-OCCUPANCY,WILD_ST=HOSPITAL CORR. >= 2.4M-SCH-E_FL=STORY 2_SCH=B,1875.00,18.8,18.8,1.001E-002,99.896,0.300,0.700,AutoCalculate,NECB-ACTIVITY,No,3.8200E-008,0,17
 People Internal Gains Nominal, WILD_ST=HOSPITAL CORR. >= 2.4M-SCH-F_FL=STORY 1_SCH=B SPACE FUNCTION HOSPITAL CORR. >= 2.4M-SCH-B PEOPLE,NECB-B-OCCUPANCY,WILD_ST=HOSPITAL CORR. >= 2.4M-SCH-F_FL=STORY 1_SCH=B,1875.00,18.8,18.8,1.001E-002,99.896,0.300,0.700,AutoCalculate,NECB-ACTIVITY,No,3.8200E-008,0,17
 People Internal Gains Nominal, WILD_ST=HOSPITAL CORR. >= 2.4M-SCH-G_FL=STORY 1_SCH=B SPACE FUNCTION HOSPITAL CORR. >= 2.4M-SCH-B PEOPLE,NECB-B-OCCUPANCY,WILD_ST=HOSPITAL CORR. >= 2.4M-SCH-G_FL=STORY 1_SCH=B,1875.00,18.8,18.8,1.001E-002,99.896,0.300,0.700,AutoCalculate,NECB-ACTIVITY,No,3.8200E-008,0,17
 People Internal Gains Nominal, WILD_ST=HOSPITAL CORR. >= 2.4M-SCH-H_FL=STORY 1_SCH=B SPACE FUNCTION HOSPITAL CORR. >= 2.4M-SCH-B PEOPLE,NECB-B-OCCUPANCY,WILD_ST=HOSPITAL CORR. >= 2.4M-SCH-H_FL=STORY 1_SCH=B,2500.00,25.0,25.0,1.001E-002,99.896,0.300,0.700,AutoCalculate,NECB-ACTIVITY,No,3.8200E-008,0,23
 People Internal Gains Nominal, WILD_ST=HOSPITAL CORR. >= 2.4M-SCH-I_FL=STORY 2_SCH=B SPACE FUNCTION HOSPITAL CORR. >= 2.4M-SCH-B PEOPLE,NECB-B-OCCUPANCY,WILD_ST=HOSPITAL CORR. >= 2.4M-SCH-I_FL=STORY 2_SCH=B,1875.00,18.8,18.8,1.001E-002,99.896,0.300,0.700,AutoCalculate,NECB-ACTIVITY,No,3.8200E-008,0,17
 People Internal Gains Nominal, ALL_ST=HOTEL/MOTEL - DINING_FL=STORY 4_SCH=B SPACE FUNCTION HOTEL/MOTEL - DINING PEOPLE,NECB-B-OCCUPANCY,ALL_ST=HOTEL/MOTEL - DINING_FL=STORY 4_SCH=B,1875.00,187.5,187.5,10.000E-002,10.000,0.300,0.700,AutoCalculate,NECB-ACTIVITY,No,3.8200E-008,0,169
 People Internal Gains Nominal, ALL_ST=HOTEL/MOTEL - LOBBY_FL=STORY 1_SCH=H SPACE FUNCTION HOTEL/MOTEL - LOBBY PEOPLE,NECB-H-OCCUPANCY,ALL_ST=HOTEL/MOTEL - LOBBY_FL=STORY 1_SCH=H,1875.00,187.5,187.5,10.000E-002,10.000,0.300,0.700,AutoCalculate,NECB-ACTIVITY,No,3.8200E-008,169,169
 People Internal Gains Nominal, DU_BT=SPACE FUNCTION_ST=HOTEL/MOTEL - ROOMS_FL=STORY 2_SCHF SPACE FUNCTION HOTEL/MOTEL - ROOMS PEOPLE,NECB-F-OCCUPANCY,DU_BT=SPACE FUNCTION_ST=HOTEL/MOTEL - ROOMS_FL=STORY 2_SCHF,1875.00,75.1,75.1,4.004E-002,24.974,0.300,0.700,AutoCalculate,NECB-ACTIVITY,No,3.8200E-008,15,68
 People Internal Gains Nominal, ALL_ST=HWAY LODGING - DINING_FL=STORY 3_SCH=B SPACE FUNCTION HWAY LODGING - DINING PEOPLE,NECB-B-OCCUPANCY,ALL_ST=HWAY LODGING - DINING_FL=STORY 3_SCH=B,1875.00,187.5,187.5,10.000E-002,10.000,0.300,0.700,AutoCalculate,NECB-ACTIVITY,No,3.8200E-008,0,169
 People Internal Gains Nominal, DU_BT=SPACE FUNCTION_ST=HWAY LODGING - ROOMS_FL=STORY 2_SCHF SPACE FUNCTION HWAY LODGING - ROOMS PEOPLE,NECB-F-OCCUPANCY,DU_BT=SPACE FUNCTION_ST=HWAY LODGING - ROOMS_FL=STORY 2_SCHF,1875.00,75.1,75.1,4.004E-002,24.974,0.300,0.700,AutoCalculate,NECB-ACTIVITY,No,3.8200E-008,15,68
 People Internal Gains Nominal, ALL_ST=LAB - CLASSROOMS_FL=STORY 2_SCH=D SPACE FUNCTION LAB - CLASSROOMS PEOPLE,NECB-D-OCCUPANCY,ALL_ST=LAB - CLASSROOMS_FL=STORY 2_SCH=D,2500.00,125.1,125.1,5.005E-002,19.979,0.300,0.700,AutoCalculate,NECB-ACTIVITY,No,3.8200E-008,0,113
! <Lights Internal Gains Nominal>,Name,Schedule Name,Zone Name,Zone Floor Area {m2},# Zone Occupants,Lighting Level {W},Lights/Floor Area {W/m2},Lights per person {W/person},Fraction Return Air,Fraction Radiant,Fraction Short Wave,Fraction Convected,Fraction Replaceable,End-Use Category,Nominal Minimum Lighting Level {W},Nominal Maximum Lighting Level {W}
 Lights Internal Gains Nominal, WILD_ST=HOSPITAL CORR. < 2.4M-SCH-E_FL=STORY 4_SCH=B SPACE FUNCTION HOSPITAL CORR. < 2.4M-SCH-B LIGHTS,NECB-B-LIGHTING,WILD_ST=HOSPITAL CORR. < 2.4M-SCH-E_FL=STORY 4_SCH=B,2500.00,25.0,29249.757,11.700,1168.770,0.000,0.500,0.200,0.300,1.000,General,2924.976,26324.781
 Lights Internal Gains Nominal, WILD_ST=HOSPITAL CORR. < 2.4M-SCH-F_FL=STORY 4_SCH=B SPACE FUNCTION HOSPITAL CORR. < 2.4M-SCH-B LIGHTS,NECB-B-LIGHTING,WILD_ST=HOSPITAL CORR. < 2.4M-SCH-F_FL=STORY 4_SCH=B,1875.00,18.8,21937.317,11.700,1168.770,0.000,0.500,0.200,0.300,1.000,General,2193.732,19743.586
 Lights Internal Gains Nominal, WILD_ST=HOSPITAL CORR. < 2.4M-SCH-G_FL=STORY 4_SCH=B SPACE FUNCTION HOSPITAL CORR. < 2.4M-SCH-B LIGHTS,NECB-B-LIGHTING,WILD_ST=HOSPITAL CORR. < 2.4M-SCH-G_FL=STORY 4_SCH=B,1875.00,18.8,21937.317,11.700,1168.770,0.000,0.500,0.200,0.300,1.000,General,2193.732,19743.586
 Lights Internal Gains Nominal, WILD_ST=HOSPITAL CORR. < 2.4M-SCH-H_FL=STORY 4_SCH=B SPACE FUNCTION HOSPITAL CORR. < 2.4M-SCH-B LIGHTS,NECB-B-LIGHTING,WILD_ST=HOSPITAL CORR. < 2.4M-SCH-H_FL=STORY 4_SCH=B,1875.00,18.8,21937.317,11.700,1168.770,0.000,0.500,0.200,0.300,1.000,General,2193.732,19743.586
 Lights Internal Gains Nominal, WILD_ST=HOSPITAL CORR. < 2.4M-SCH-I_FL=STORY 3_SCH=B SPACE FUNCTION HOSPITAL CORR. < 2.4M-SCH-B LIGHTS,NECB-B-LIGHTING,WILD_ST=HOSPITAL CORR. < 2.4M-SCH-I_FL=STORY 3_SCH=B,1875.00,18.8,21937.317,11.700,1168.770,0.000,0.500,0.200,0.300,1.000,General,2193.732,19743.586
 Lights Internal Gains Nominal, WILD_ST=HOSPITAL CORR. >= 2.4M-SCH-A_FL=STORY 3_SCH=B SPACE FUNCTION HOSPITAL CORR. >= 2.4M-SCH-B LIGHTS,NECB-B-LIGHTING,WILD_ST=HOSPITAL CORR. >= 2.4M-SCH-A_FL=STORY 3_SCH=B,1875.00,18.8,17999.850,9.600,958.991,0.000,0.500,0.200,0.300,1.000,General,1799.985,16199.865
 Lights Internal Gains Nominal, WILD_ST=HOSPITAL CORR. >= 2.4M-SCH-B_FL=STORY 1_SCH=B SPACE FUNCTION HOSPITAL CORR. >= 2.4M-SCH-B LIGHTS,NECB-B-LIGHTING,WILD_ST=HOSPITAL CORR. >= 2.4M-SCH-B_FL=STORY 1_SCH=B,1875.00,18.8,17999.850,9.600,958.991,0.000,0.500,0.200,0.300,1.000,General,1799.985,16199.865
 Lights Internal Gains Nominal, WILD_ST=HOSPITAL CORR. >= 2.4M-SCH-C_FL=STORY 3_SCH=B SPACE FUNCTION HOSPITAL CORR. >= 2.4M-SCH-B LIGHTS,NECB-B-LIGHTING,WILD_ST=HOSPITAL CORR. >= 2.4M-SCH-C_FL=STORY 3_SCH=B,2500.00,25.0,23999.800,9.600,958.991,0.000,0.500,0.200,0.300,1.000,General,2399.980,21599.820
 Lights Internal Gains Nominal, WILD_ST=HOSPITAL CORR. >= 2.4M-SCH-D_FL=STORY 3_SCH=B SPACE FUNCTION HOSPITAL CORR. >= 2.4M-SCH-B LIGHTS,NECB-B-LIGHTING,WILD_ST=HOSPITAL CORR. >= 2.4M-SCH-D_FL=STORY 3_SCH=B,1875.00,18.8,17999.850,9.600,958.991,0.000,0.500,0.200,0.300,1.000,General,1799.985,16199.865
 Lights Internal Gains Nominal, WILD_ST=HOSPITAL CORR. >= 2.4M-SCH-E_FL=STORY 2_SCH=B SPACE FUNCTION HOSPITAL CORR. >= 2.4M-SCH-B LIGHTS,NECB-B-LIGHTING,WILD_ST=HOSPITAL CORR. >= 2.4M-SCH-E_FL=STORY 2_SCH=B,1875.00,18.8,17999.850,9.600,958.991,0.000,0.500,0.200,0.300,1.000,General,1799.985,16199.865
 Lights Internal Gains Nominal, WILD_ST=HOSPITAL CORR. >= 2.4M-SCH-F_FL=STORY 1_SCH=B SPACE FUNCTION HOSPITAL CORR. >= 2.4M-SCH-B LIGHTS,NECB-B-LIGHTING,WILD_ST=HOSPITAL CORR. >= 2.4M-SCH-F_FL=STORY 1_SCH=B,1875.00,18.8,17999.850,9.600,958.991,0.000,0.500,0.200,0.300,1.000,General,1799.985,16199.865
 Lights Internal Gains Nominal, WILD_ST=HOSPITAL CORR. >= 2.4M-SCH-G_FL=STORY 1_SCH=B SPACE FUNCTION HOSPITAL CORR. >= 2.4M-SCH-B LIGHTS,NECB-B-LIGHTING,WILD_ST=HOSPITAL CORR. >= 2.4M-SCH-G_FL=STORY 1_SCH=B,1875.00,18.8,17999.850,9.600,958.991,0.000,0.500,0.200,0.300,1.000,General,1799.985,16199.865
 Lights Internal Gains Nominal, WILD_ST=HOSPITAL CORR. >= 2.4M-SCH-H_FL=STORY 1_SCH=B SPACE FUNCTION HOSPITAL CORR. >= 2.4M-SCH-B LIGHTS,NECB-B-LIGHTING,WILD_ST=HOSPITAL CORR. >= 2.4M-SCH-H_FL=STORY 1_SCH=B,2500.00,25.0,23999.800,9.600,958.991,0.000,0.500,0.200,0.300,1.000,General,2399.980,21599.820
 Lights Internal Gains Nominal, WILD_ST=HOSPITAL CORR. >= 2.4M-SCH-I_FL=STORY 2_SCH=B SPACE FUNCTION HOSPITAL CORR. >= 2.4M-SCH-B LIGHTS,NECB-B-LIGHTING,WILD_ST=HOSPITAL CORR. >= 2.4M-SCH-I_FL=STORY 2_SCH=B,1875.00,18.8,17999.850,9.600,958.991,0.000,0.500,0.200,0.300,1.000,General,1799.985,16199.865
 Lights Internal Gains Nominal, ALL_ST=HOTEL/MOTEL - DINING_FL=STORY 4_SCH=B SPACE FUNCTION HOTEL/MOTEL - DINING LIGHTS,NECB-B-LIGHTING,ALL_ST=HOTEL/MOTEL - DINING_FL=STORY 4_SCH=B,1875.00,187.5,16499.863,8.800,88.002,0.000,0.500,0.200,0.300,1.000,General,1649.986,14849.876
 Lights Internal Gains Nominal, ALL_ST=HOTEL/MOTEL - LOBBY_FL=STORY 1_SCH=H SPACE FUNCTION HOTEL/MOTEL - LOBBY LIGHTS,NECB-H-LIGHTING,ALL_ST=HOTEL/MOTEL - LOBBY_FL=STORY 1_SCH=H,1875.00,187.5,21374.822,11.400,114.003,0.000,0.500,0.200,0.300,1.000,General,19237.340,19237.340
 Lights Internal Gains Nominal, DU_BT=SPACE FUNCTION_ST=HOTEL/MOTEL - ROOMS_FL=STORY 2_SCHF SPACE FUNCTION HOTEL/MOTEL - ROOMS LIGHTS,NECB-F-LIGHTING,DU_BT=SPACE FUNCTION_ST=HOTEL/MOTEL - ROOMS_FL=STORY 2_SCHF,1875.00,75.1,22312.314,11.900,297.187,0.000,0.500,0.200,0.300,1.000,General,2231.231,20081.083
 Lights Internal Gains Nominal, ALL_ST=HWAY LODGING - DINING_FL=STORY 3_SCH=B SPACE FUNCTION HWAY LODGING - DINING LIGHTS,NECB-B-LIGHTING,ALL_ST=HWAY LODGING - DINING_FL=STORY 3_SCH=B,1875.00,187.5,17812.352,9.500,95.002,0.000,0.500,0.200,0.300,1.000,General,1781.235,16031.117
 Lights Internal Gains Nominal, DU_BT=SPACE FUNCTION_ST=HWAY LODGING - ROOMS_FL=STORY 2_SCHF SPACE FUNCTION HWAY LODGING - ROOMS LIGHTS,NECB-F-LIGHTING,DU_BT=SPACE FUNCTION_ST=HWAY LODGING - ROOMS_FL=STORY 2_SCHF,1875.00,75.1,15187.374,8.100,202.287,0.000,0.500,0.200,0.300,1.000,General,1518.737,13668.636
 Lights Internal Gains Nominal, ALL_ST=LAB - CLASSROOMS_FL=STORY 2_SCH=D SPACE FUNCTION LAB - CLASSROOMS LIGHTS,NECB-D-LIGHTING,ALL_ST=LAB - CLASSROOMS_FL=STORY 2_SCH=D,2500.00,125.1,42999.642,17.200,343.638,0.000,0.500,0.200,0.300,1.000,General,2149.982,38699.678
! <ElectricEquipment Internal Gains Nominal>,Name,Schedule Name,Zone Name,Zone Floor Area {m2},# Zone Occupants,Equipment Level {W},Equipment/Floor Area {W/m2},Equipment per person {W/person},Fraction Latent,Fraction Radiant,Fraction Lost,Fraction Convected,End-Use SubCategory,Nominal Minimum Equipment Level {W},Nominal Maximum Equipment Level {W}
 ElectricEquipment Internal Gains Nominal, ALL_ST=HOTEL/MOTEL - DINING_FL=STORY 4_SCH=B SPACE FUNCTION HOTEL/MOTEL - DINING ELEC EQUIP,NECB-B-ELECTRIC-EQUIPMENT,ALL_ST=HOTEL/MOTEL - DINING_FL=STORY 4_SCH=B,1875.00,187.5,1874.984,1.000,10.000,0.000,0.500,0.000,0.500,General,187.498,1687.486
 ElectricEquipment Internal Gains Nominal, ALL_ST=HOTEL/MOTEL - LOBBY_FL=STORY 1_SCH=H SPACE FUNCTION HOTEL/MOTEL - LOBBY ELEC EQUIP,NECB-H-ELECTRIC-EQUIPMENT,ALL_ST=HOTEL/MOTEL - LOBBY_FL=STORY 1_SCH=H,1875.00,187.5,4687.461,2.500,25.001,0.000,0.500,0.000,0.500,General,4218.715,4218.715
 ElectricEquipment Internal Gains Nominal, DU_BT=SPACE FUNCTION_ST=HOTEL/MOTEL - ROOMS_FL=STORY 2_SCHF SPACE FUNCTION HOTEL/MOTEL - ROOMS ELEC EQUIP,NECB-F-ELECTRIC-EQUIPMENT,DU_BT=SPACE FUNCTION_ST=HOTEL/MOTEL - ROOMS_FL=STORY 2_SCHF,1875.00,75.1,4687.461,2.500,62.434,0.000,0.500,0.000,0.500,General,468.746,4218.715
 ElectricEquipment Internal Gains Nominal, ALL_ST=HWAY LODGING - DINING_FL=STORY 3_SCH=B SPACE FUNCTION HWAY LODGING - DINING ELEC EQUIP,NECB-B-ELECTRIC-EQUIPMENT,ALL_ST=HWAY LODGING - DINING_FL=STORY 3_SCH=B,1875.00,187.5,1874.984,1.000,10.000,0.000,0.500,0.000,0.500,General,187.498,1687.486
 ElectricEquipment Internal Gains Nominal, DU_BT=SPACE FUNCTION_ST=HWAY LODGING - ROOMS_FL=STORY 2_SCHF SPACE FUNCTION HWAY LODGING - ROOMS ELEC EQUIP,NECB-F-ELECTRIC-EQUIPMENT,DU_BT=SPACE FUNCTION_ST=HWAY LODGING - ROOMS_FL=STORY 2_SCHF,1875.00,75.1,4687.461,2.500,62.434,0.000,0.500,0.000,0.500,General,468.746,4218.715
 ElectricEquipment Internal Gains Nominal, ALL_ST=LAB - CLASSROOMS_FL=STORY 2_SCH=D SPACE FUNCTION LAB - CLASSROOMS ELEC EQUIP,NECB-D-ELECTRIC-EQUIPMENT,ALL_ST=LAB - CLASSROOMS_FL=STORY 2_SCH=D,2500.00,125.1,24999.792,10.000,199.790,0.000,0.500,0.000,0.500,General,1249.990,22499.813
! <Shadowing/Sun Position Calculations Annual Simulations>, Calculation Method, Value {days}, Allowable Number Figures in Shadow Overlap {}, Polygon Clipping Algorithm, Sky Diffuse Modeling Algorithm, External Shading Calculation Method, Output External Shading Calculation Results, Disable Self-Shading Within Shading Zone Groups, Disable Self-Shading From Shading Zone Groups to Other Zones
Shadowing/Sun Position Calculations Annual Simulations,AverageOverDaysInFrequency,20,15000,SutherlandHodgman,SimpleSkyDiffuseModeling,InternalCalculation,No,No,No
! <Water Heater Information>,Type,Name,Volume {m3},Maximum Capacity {W},Standard Rated Recovery Efficiency, Standard Rated Energy Factor
! <ZoneInfiltration Airflow Stats Nominal>,Name,Schedule Name,Zone Name, Zone Floor Area {m2}, # Zone Occupants,Design Volume Flow Rate {m3/s},Volume Flow Rate/Floor Area {m3/s/m2},Volume Flow Rate/Exterior Surface Area {m3/s/m2},ACH - Air Changes per Hour,Equation A - Constant Term Coefficient {},Equation B - Temperature Term Coefficient {1/C},Equation C - Velocity Term Coefficient {s/m}, Equation D - Velocity Squared Term Coefficient {s2/m2}
 ZoneInfiltration Airflow Stats Nominal, HOTEL/MOTEL - DINING-SPACE FUNCTION INFILTRATION,ALWAYS ON DISCRETE,ALL_ST=HOTEL/MOTEL - DINING_FL=STORY 4_SCH=B,1875.00,187.5,0.564,3.007E-004,2.500E-004,0.285,0.000,0.000,0.224,0.000
 ZoneInfiltration Airflow Stats Nominal, HWAY LODGING - DINING-SPACE FUNCTION INFILTRATION,ALWAYS ON DISCRETE,ALL_ST=HWAY LODGING - DINING_FL=STORY 3_SCH=B,1875.00,187.5,9.500E-002,5.067E-005,2.500E-004,4.800E-002,0.000,0.000,0.224,0.000
 ZoneInfiltration Airflow Stats Nominal, HOTEL/MOTEL - ROOMS-SPACE FUNCTION INFILTRATION,ALWAYS ON DISCRETE,DU_BT=SPACE FUNCTION_ST=HOTEL/MOTEL - ROOMS_FL=STORY 2_SCHF,1875.00,75.1,9.500E-002,5.067E-005,2.500E-004,4.800E-002,0.000,0.000,0.224,0.000
 ZoneInfiltration Airflow Stats Nominal, HWAY LODGING - ROOMS-SPACE FUNCTION INFILTRATION,ALWAYS ON DISCRETE,DU_BT=SPACE FUNCTION_ST=HWAY LODGING - ROOMS_FL=STORY 2_SCHF,1875.00,75.1,9.500E-002,5.067E-005,2.500E-004,4.800E-002,0.000,0.000,0.224,0.000
 ZoneInfiltration Airflow Stats Nominal, HOSPITAL CORR. < 2.4M-SCH-E-SPACE FUNCTION INFILTRATION,ALWAYS ON DISCRETE,WILD_ST=HOSPITAL CORR. < 2.4M-SCH-E_FL=STORY 4_SCH=B,2500.00,25.0,0.625,2.500E-004,2.500E-004,0.237,0.000,0.000,0.224,0.000
 ZoneInfiltration Airflow Stats Nominal, HOSPITAL CORR. < 2.4M-SCH-F-SPACE FUNCTION INFILTRATION,ALWAYS ON DISCRETE,WILD_ST=HOSPITAL CORR. < 2.4M-SCH-F_FL=STORY 4_SCH=B,1875.00,18.8,0.564,3.007E-004,2.500E-004,0.285,0.000,0.000,0.224,0.000
 ZoneInfiltration Airflow Stats Nominal, HOSPITAL CORR. < 2.4M-SCH-G-SPACE FUNCTION INFILTRATION,ALWAYS ON DISCRETE,WILD_ST=HOSPITAL CORR. < 2.4M-SCH-G_FL=STORY 4_SCH=B,1875.00,18.8,0.564,3.007E-004,2.500E-004,0.285,0.000,0.000,0.224,0.000
 ZoneInfiltration Airflow Stats Nominal, HOSPITAL CORR. < 2.4M-SCH-H-SPACE FUNCTION INFILTRATION,ALWAYS ON DISCRETE,WILD_ST=HOSPITAL CORR. < 2.4M-SCH-H_FL=STORY 4_SCH=B,1875.00,18.8,0.564,3.007E-004,2.500E-004,0.285,0.000,0.000,0.224,0.000
 ZoneInfiltration Airflow Stats Nominal, HOSPITAL CORR. < 2.4M-SCH-I-SPACE FUNCTION INFILTRATION,ALWAYS ON DISCRETE,WILD_ST=HOSPITAL CORR. < 2.4M-SCH-I_FL=STORY 3_SCH=B,1875.00,18.8,9.500E-002,5.067E-005,2.500E-004,4.800E-002,0.000,0.000,0.224,0.000
 ZoneInfiltration Airflow Stats Nominal, HOSPITAL CORR. >= 2.4M-SCH-A-SPACE FUNCTION INFILTRATION,ALWAYS ON DISCRETE,WILD_ST=HOSPITAL CORR. >= 2.4M-SCH-A_FL=STORY 3_SCH=B,1875.00,18.8,9.500E-002,5.067E-005,2.500E-004,4.800E-002,0.000,0.000,0.224,0.000
 ZoneInfiltration Airflow Stats Nominal, HOSPITAL CORR. >= 2.4M-SCH-D-SPACE FUNCTION INFILTRATION,ALWAYS ON DISCRETE,WILD_ST=HOSPITAL CORR. >= 2.4M-SCH-D_FL=STORY 3_SCH=B,1875.00,18.8,9.500E-002,5.067E-005,2.500E-004,4.800E-002,0.000,0.000,0.224,0.000
 ZoneInfiltration Airflow Stats Nominal, HOSPITAL CORR. >= 2.4M-SCH-E-SPACE FUNCTION INFILTRATION,ALWAYS ON DISCRETE,WILD_ST=HOSPITAL CORR. >= 2.4M-SCH-E_FL=STORY 2_SCH=B,1875.00,18.8,9.500E-002,5.067E-005,2.500E-004,4.800E-002,0.000,0.000,0.224,0.000
 ZoneInfiltration Airflow Stats Nominal, HOSPITAL CORR. >= 2.4M-SCH-I-SPACE FUNCTION INFILTRATION,ALWAYS ON DISCRETE,WILD_ST=HOSPITAL CORR. >= 2.4M-SCH-I_FL=STORY 2_SCH=B,1875.00,18.8,9.500E-002,5.067E-005,2.500E-004,4.800E-002,0.000,0.000,0.224,0.000
 ZoneInfiltration Airflow Stats Nominal, WILD_ST=HOSPITAL CORR. < 2.4M-SCH-E_FL=STORY 4_SCH=B SPACE FUNCTION HOSPITAL CORR. < 2.4M-SCH-B INFILTRATION,ALWAYS ON,WILD_ST=HOSPITAL CORR. < 2.4M-SCH-E_FL=STORY 4_SCH=B,2500.00,25.0,0.625,2.501E-004,2.501E-004,0.237,1.000,0.000,0.000,0.000
 ZoneInfiltration Airflow Stats Nominal, WILD_ST=HOSPITAL CORR. < 2.4M-SCH-F_FL=STORY 4_SCH=B SPACE FUNCTION HOSPITAL CORR. < 2.4M-SCH-B INFILTRATION,ALWAYS ON,WILD_ST=HOSPITAL CORR. < 2.4M-SCH-F_FL=STORY 4_SCH=B,1875.00,18.8,0.564,3.007E-004,2.501E-004,0.285,1.000,0.000,0.000,0.000
 ZoneInfiltration Airflow Stats Nominal, WILD_ST=HOSPITAL CORR. < 2.4M-SCH-G_FL=STORY 4_SCH=B SPACE FUNCTION HOSPITAL CORR. < 2.4M-SCH-B INFILTRATION,ALWAYS ON,WILD_ST=HOSPITAL CORR. < 2.4M-SCH-G_FL=STORY 4_SCH=B,1875.00,18.8,0.564,3.007E-004,2.501E-004,0.285,1.000,0.000,0.000,0.000
 ZoneInfiltration Airflow Stats Nominal, WILD_ST=HOSPITAL CORR. < 2.4M-SCH-H_FL=STORY 4_SCH=B SPACE FUNCTION HOSPITAL CORR. < 2.4M-SCH-B INFILTRATION,ALWAYS ON,WILD_ST=HOSPITAL CORR. < 2.4M-SCH-H_FL=STORY 4_SCH=B,1875.00,18.8,0.564,3.007E-004,2.501E-004,0.285,1.000,0.000,0.000,0.000
 ZoneInfiltration Airflow Stats Nominal, WILD_ST=HOSPITAL CORR. < 2.4M-SCH-I_FL=STORY 3_SCH=B SPACE FUNCTION HOSPITAL CORR. < 2.4M-SCH-B INFILTRATION,ALWAYS ON,WILD_ST=HOSPITAL CORR. < 2.4M-SCH-I_FL=STORY 3_SCH=B,1875.00,18.8,9.502E-002,5.068E-005,2.501E-004,4.801E-002,1.000,0.000,0.000,0.000
! <AirFlow Model>, Simple
 AirFlow Model, Simple
! <RoomAir Model>, Zone Name, Mixing/Mundt/UCSDDV/UCSDCV/UCSDUFI/UCSDUFE/User Defined
RoomAir Model,ALL_ST=HOTEL/MOTEL - DINING_FL=STORY 4_SCH=B,Mixing/Well-Stirred
RoomAir Model,ALL_ST=HOTEL/MOTEL - LOBBY_FL=STORY 1_SCH=H,Mixing/Well-Stirred
RoomAir Model,ALL_ST=HWAY LODGING - DINING_FL=STORY 3_SCH=B,Mixing/Well-Stirred
RoomAir Model,ALL_ST=LAB - CLASSROOMS_FL=STORY 2_SCH=D,Mixing/Well-Stirred
RoomAir Model,DU_BT=SPACE FUNCTION_ST=HOTEL/MOTEL - ROOMS_FL=STORY 2_SCHF,Mixing/Well-Stirred
RoomAir Model,DU_BT=SPACE FUNCTION_ST=HWAY LODGING - ROOMS_FL=STORY 2_SCHF,Mixing/Well-Stirred
RoomAir Model,WILD_ST=HOSPITAL CORR. < 2.4M-SCH-E_FL=STORY 4_SCH=B,Mixing/Well-Stirred
RoomAir Model,WILD_ST=HOSPITAL CORR. < 2.4M-SCH-F_FL=STORY 4_SCH=B,Mixing/Well-Stirred
RoomAir Model,WILD_ST=HOSPITAL CORR. < 2.4M-SCH-G_FL=STORY 4_SCH=B,Mixing/Well-Stirred
RoomAir Model,WILD_ST=HOSPITAL CORR. < 2.4M-SCH-H_FL=STORY 4_SCH=B,Mixing/Well-Stirred
RoomAir Model,WILD_ST=HOSPITAL CORR. < 2.4M-SCH-I_FL=STORY 3_SCH=B,Mixing/Well-Stirred
RoomAir Model,WILD_ST=HOSPITAL CORR. >= 2.4M-SCH-A_FL=STORY 3_SCH=B,Mixing/Well-Stirred
RoomAir Model,WILD_ST=HOSPITAL CORR. >= 2.4M-SCH-B_FL=STORY 1_SCH=B,Mixing/Well-Stirred
RoomAir Model,WILD_ST=HOSPITAL CORR. >= 2.4M-SCH-C_FL=STORY 3_SCH=B,Mixing/Well-Stirred
RoomAir Model,WILD_ST=HOSPITAL CORR. >= 2.4M-SCH-D_FL=STORY 3_SCH=B,Mixing/Well-Stirred
RoomAir Model,WILD_ST=HOSPITAL CORR. >= 2.4M-SCH-E_FL=STORY 2_SCH=B,Mixing/Well-Stirred
RoomAir Model,WILD_ST=HOSPITAL CORR. >= 2.4M-SCH-F_FL=STORY 1_SCH=B,Mixing/Well-Stirred
RoomAir Model,WILD_ST=HOSPITAL CORR. >= 2.4M-SCH-G_FL=STORY 1_SCH=B,Mixing/Well-Stirred
RoomAir Model,WILD_ST=HOSPITAL CORR. >= 2.4M-SCH-H_FL=STORY 1_SCH=B,Mixing/Well-Stirred
RoomAir Model,WILD_ST=HOSPITAL CORR. >= 2.4M-SCH-I_FL=STORY 2_SCH=B,Mixing/Well-Stirred
! <AirflowNetwork Model:Control>, No Multizone or Distribution/Multizone with Distribution/Multizone without Distribution/Multizone with Distribution only during Fan Operation
AirflowNetwork Model:Control,NoMultizoneOrDistribution
! <Zone Volume Capacitance Multiplier>, Sensible Heat Capacity Multiplier, Moisture Capacity Multiplier, Carbon Dioxide Capacity Multiplier, Generic Contaminant Capacity Multiplier
Zone Volume Capacitance Multiplier,   1.000 ,   1.000,   1.000,   1.000
! <Load Timesteps in Zone Design Calculation Averaging Window>, Value
 Load Timesteps in Zone Design Calculation Averaging Window,    6
! <Heating Sizing Factor Information>, Sizing Factor ID, Value
 Heating Sizing Factor Information, Global,   1.3000    
 Heating Sizing Factor Information, Zone ALL_ST=HOTEL/MOTEL - DINING_FL=STORY 4_SCH=B,   1.3000    
 Heating Sizing Factor Information, Zone ALL_ST=HOTEL/MOTEL - LOBBY_FL=STORY 1_SCH=H,   1.3000    
 Heating Sizing Factor Information, Zone ALL_ST=HWAY LODGING - DINING_FL=STORY 3_SCH=B,   1.3000    
 Heating Sizing Factor Information, Zone ALL_ST=LAB - CLASSROOMS_FL=STORY 2_SCH=D,   1.3000    
 Heating Sizing Factor Information, Zone DU_BT=SPACE FUNCTION_ST=HOTEL/MOTEL - ROOMS_FL=STORY 2_SCHF,   1.3000    
 Heating Sizing Factor Information, Zone DU_BT=SPACE FUNCTION_ST=HWAY LODGING - ROOMS_FL=STORY 2_SCHF,   1.3000    
 Heating Sizing Factor Information, Zone WILD_ST=HOSPITAL CORR. < 2.4M-SCH-E_FL=STORY 4_SCH=B,   1.3000    
 Heating Sizing Factor Information, Zone WILD_ST=HOSPITAL CORR. < 2.4M-SCH-F_FL=STORY 4_SCH=B,   1.3000    
 Heating Sizing Factor Information, Zone WILD_ST=HOSPITAL CORR. < 2.4M-SCH-G_FL=STORY 4_SCH=B,   1.3000    
 Heating Sizing Factor Information, Zone WILD_ST=HOSPITAL CORR. < 2.4M-SCH-H_FL=STORY 4_SCH=B,   1.3000    
 Heating Sizing Factor Information, Zone WILD_ST=HOSPITAL CORR. < 2.4M-SCH-I_FL=STORY 3_SCH=B,   1.3000    
 Heating Sizing Factor Information, Zone WILD_ST=HOSPITAL CORR. >= 2.4M-SCH-A_FL=STORY 3_SCH=B,   1.3000    
 Heating Sizing Factor Information, Zone WILD_ST=HOSPITAL CORR. >= 2.4M-SCH-B_FL=STORY 1_SCH=B,   1.3000    
 Heating Sizing Factor Information, Zone WILD_ST=HOSPITAL CORR. >= 2.4M-SCH-C_FL=STORY 3_SCH=B,   1.3000    
 Heating Sizing Factor Information, Zone WILD_ST=HOSPITAL CORR. >= 2.4M-SCH-D_FL=STORY 3_SCH=B,   1.3000    
 Heating Sizing Factor Information, Zone WILD_ST=HOSPITAL CORR. >= 2.4M-SCH-E_FL=STORY 2_SCH=B,   1.3000    
 Heating Sizing Factor Information, Zone WILD_ST=HOSPITAL CORR. >= 2.4M-SCH-F_FL=STORY 1_SCH=B,   1.3000    
 Heating Sizing Factor Information, Zone WILD_ST=HOSPITAL CORR. >= 2.4M-SCH-G_FL=STORY 1_SCH=B,   1.3000    
 Heating Sizing Factor Information, Zone WILD_ST=HOSPITAL CORR. >= 2.4M-SCH-H_FL=STORY 1_SCH=B,   1.3000    
 Heating Sizing Factor Information, Zone WILD_ST=HOSPITAL CORR. >= 2.4M-SCH-I_FL=STORY 2_SCH=B,   1.3000    
! <Cooling Sizing Factor Information>, Sizing Factor ID, Value
 Cooling Sizing Factor Information, Global,   1.1000    
 Cooling Sizing Factor Information, Zone ALL_ST=HOTEL/MOTEL - DINING_FL=STORY 4_SCH=B,   1.1000    
 Cooling Sizing Factor Information, Zone ALL_ST=HOTEL/MOTEL - LOBBY_FL=STORY 1_SCH=H,   1.1000    
 Cooling Sizing Factor Information, Zone ALL_ST=HWAY LODGING - DINING_FL=STORY 3_SCH=B,   1.1000    
 Cooling Sizing Factor Information, Zone ALL_ST=LAB - CLASSROOMS_FL=STORY 2_SCH=D,   1.1000    
 Cooling Sizing Factor Information, Zone DU_BT=SPACE FUNCTION_ST=HOTEL/MOTEL - ROOMS_FL=STORY 2_SCHF,   1.1000    
 Cooling Sizing Factor Information, Zone DU_BT=SPACE FUNCTION_ST=HWAY LODGING - ROOMS_FL=STORY 2_SCHF,   1.1000    
 Cooling Sizing Factor Information, Zone WILD_ST=HOSPITAL CORR. < 2.4M-SCH-E_FL=STORY 4_SCH=B,   1.1000    
 Cooling Sizing Factor Information, Zone WILD_ST=HOSPITAL CORR. < 2.4M-SCH-F_FL=STORY 4_SCH=B,   1.1000    
 Cooling Sizing Factor Information, Zone WILD_ST=HOSPITAL CORR. < 2.4M-SCH-G_FL=STORY 4_SCH=B,   1.1000    
 Cooling Sizing Factor Information, Zone WILD_ST=HOSPITAL CORR. < 2.4M-SCH-H_FL=STORY 4_SCH=B,   1.1000    
 Cooling Sizing Factor Information, Zone WILD_ST=HOSPITAL CORR. < 2.4M-SCH-I_FL=STORY 3_SCH=B,   1.1000    
 Cooling Sizing Factor Information, Zone WILD_ST=HOSPITAL CORR. >= 2.4M-SCH-A_FL=STORY 3_SCH=B,   1.1000    
 Cooling Sizing Factor Information, Zone WILD_ST=HOSPITAL CORR. >= 2.4M-SCH-B_FL=STORY 1_SCH=B,   1.1000    
 Cooling Sizing Factor Information, Zone WILD_ST=HOSPITAL CORR. >= 2.4M-SCH-C_FL=STORY 3_SCH=B,   1.1000    
 Cooling Sizing Factor Information, Zone WILD_ST=HOSPITAL CORR. >= 2.4M-SCH-D_FL=STORY 3_SCH=B,   1.1000    
 Cooling Sizing Factor Information, Zone WILD_ST=HOSPITAL CORR. >= 2.4M-SCH-E_FL=STORY 2_SCH=B,   1.1000    
 Cooling Sizing Factor Information, Zone WILD_ST=HOSPITAL CORR. >= 2.4M-SCH-F_FL=STORY 1_SCH=B,   1.1000    
 Cooling Sizing Factor Information, Zone WILD_ST=HOSPITAL CORR. >= 2.4M-SCH-G_FL=STORY 1_SCH=B,   1.1000    
 Cooling Sizing Factor Information, Zone WILD_ST=HOSPITAL CORR. >= 2.4M-SCH-H_FL=STORY 1_SCH=B,   1.1000    
 Cooling Sizing Factor Information, Zone WILD_ST=HOSPITAL CORR. >= 2.4M-SCH-I_FL=STORY 2_SCH=B,   1.1000    
! <Zone Sizing Information>, Zone Name, Load Type, Calc Des Load {W}, User Des Load {W}, Calc Des Air Flow Rate {m3/s}, User Des Air Flow Rate {m3/s}, Design Day Name, Date/Time of Peak, Temperature at Peak {C}, Humidity Ratio at Peak {kgWater/kgDryAir}, Floor Area {m2}, # Occupants, Calc Outdoor Air Flow Rate {m3/s}, Calc DOAS Heat Addition Rate {W}
 Zone Sizing Information, ALL_ST=HOTEL/MOTEL - DINING_FL=STORY 4_SCH=B, Cooling, 72460.56841, 79706.62525, 5.60059, 6.71513, FORT MCMURRAY AP ANN CLG .4% CONDNS DB=>MWB, 7/21 15:40:00, 28.40400, 8.76969E-003, 1875.00000, 187.49386, 6.71513, 0.00000
 Zone Sizing Information, ALL_ST=HOTEL/MOTEL - DINING_FL=STORY 4_SCH=B, Heating, 47746.05931, 62069.87710, 1.90282, 6.71513, FORT MCMURRAY AP ANN HTG 99.6% CONDNS DB, 1/21 10:00:00, -36.20000, 1.25811E-004, 1875.00000, 187.49386, 6.71513, 0.00000
 Zone Sizing Information, ALL_ST=HOTEL/MOTEL - LOBBY_FL=STORY 1_SCH=H, Cooling, 32217.59253, 35439.35179, 2.49043, 2.73947, FORT MCMURRAY AP ANN CLG .4% CONDNS DB=>MWB, 7/21 20:50:00, 21.77000, 8.76969E-003, 1875.00000, 187.49386, 2.71463, 0.00000
 Zone Sizing Information, ALL_ST=HOTEL/MOTEL - LOBBY_FL=STORY 1_SCH=H, Heating, 0.00000, 0.00000, 0.00000, 2.71463, FORT MCMURRAY AP ANN HTG 99.6% CONDNS DB, , -36.20000, 1.25811E-004, 1875.00000, 187.49386, 2.71463, 0.00000
 Zone Sizing Information, ALL_ST=HWAY LODGING - DINING_FL=STORY 3_SCH=B, Cooling, 36131.50175, 39744.65193, 2.79280, 6.71513, FORT MCMURRAY AP ANN CLG .4% CONDNS DB=>MWB, 7/21 20:10:00, 22.51400, 8.76969E-003, 1875.00000, 187.49386, 6.71513, 0.00000
 Zone Sizing Information, ALL_ST=HWAY LODGING - DINING_FL=STORY 3_SCH=B, Heating, 21393.50989, 27811.56286, 0.83670, 6.71513, FORT MCMURRAY AP ANN HTG 99.6% CONDNS DB, 1/21 10:00:00, -36.20000, 1.25811E-004, 1875.00000, 187.49386, 6.71513, 0.00000
 Zone Sizing Information, ALL_ST=LAB - CLASSROOMS_FL=STORY 2_SCH=D, Cooling, 52426.92157, 57669.61373, 4.05210, 5.46100, FORT MCMURRAY AP ANN CLG .4% CONDNS DB=>MWB, 7/21 16:00:00, 28.15600, 8.76969E-003, 2500.00000, 125.13046, 5.46100, 0.00000
 Zone Sizing Information, ALL_ST=LAB - CLASSROOMS_FL=STORY 2_SCH=D, Heating, 0.00000, 0.00000, 0.00000, 5.46100, FORT MCMURRAY AP ANN HTG 99.6% CONDNS DB, , -36.20000, 1.25811E-004, 2500.00000, 125.13046, 5.46100, 0.00000
 Zone Sizing Information, DU_BT=SPACE FUNCTION_ST=HOTEL/MOTEL - ROOMS_FL=STORY 2_SCHF, Cooling, 32468.49476, 35715.34424, 2.50937, 2.76030, FORT MCMURRAY AP ANN CLG .4% CONDNS DB=>MWB, 7/21 09:00:00, 22.08000, 8.76969E-003, 1875.00000, 75.07828, 1.04775, 0.00000
 Zone Sizing Information, DU_BT=SPACE FUNCTION_ST=HOTEL/MOTEL - ROOMS_FL=STORY 2_SCHF, Heating, 3025.70055, 3933.41072, 0.12260, 1.04775, FORT MCMURRAY AP ANN HTG 99.6% CONDNS DB, 1/21 13:50:00, -36.20000, 1.25811E-004, 1875.00000, 75.07828, 1.04775, 0.00000
 Zone Sizing Information, DU_BT=SPACE FUNCTION_ST=HWAY LODGING - ROOMS_FL=STORY 2_SCHF, Cooling, 23381.29501, 25719.42451, 1.80708, 1.98779, FORT MCMURRAY AP ANN CLG .4% CONDNS DB=>MWB, 7/21 22:00:00, 20.46800, 8.76969E-003, 1875.00000, 75.07828, 1.04775, 0.00000
 Zone Sizing Information, DU_BT=SPACE FUNCTION_ST=HWAY LODGING - ROOMS_FL=STORY 2_SCHF, Heating, 4434.24188, 5764.51444, 0.17969, 1.04775, FORT MCMURRAY AP ANN HTG 99.6% CONDNS DB, 1/21 13:10:00, -36.20000, 1.25811E-004, 1875.00000, 75.07828, 1.04775, 0.00000
 Zone Sizing Information, WILD_ST=HOSPITAL CORR. < 2.4M-SCH-E_FL=STORY 4_SCH=B, Cooling, 76754.61157, 84430.07273, 5.93195, 6.52515, FORT MCMURRAY AP ANN CLG .4% CONDNS DB=>MWB, 7/21 13:50:00, 28.79667, 8.76969E-003, 2500.00000, 25.02609, 1.90500, 0.00000
 Zone Sizing Information, WILD_ST=HOSPITAL CORR. < 2.4M-SCH-E_FL=STORY 4_SCH=B, Heating, 90766.49148, 117996.43892, 3.63269, 4.72250, FORT MCMURRAY AP ANN HTG 99.6% CONDNS DB, 1/21 10:00:00, -36.20000, 1.25811E-004, 2500.00000, 25.02609, 1.90500, 0.00000
 Zone Sizing Information, WILD_ST=HOSPITAL CORR. < 2.4M-SCH-F_FL=STORY 4_SCH=B, Cooling, 79183.24964, 87101.57460, 6.11966, 6.73162, FORT MCMURRAY AP ANN CLG .4% CONDNS DB=>MWB, 7/21 13:30:00, 28.59000, 8.76969E-003, 1875.00000, 18.76957, 1.42875, 0.00000
 Zone Sizing Information, WILD_ST=HOSPITAL CORR. < 2.4M-SCH-F_FL=STORY 4_SCH=B, Heating, 96244.92533, 125118.40294, 3.86181, 5.02035, FORT MCMURRAY AP ANN HTG 99.6% CONDNS DB, 1/21 10:00:00, -36.20000, 1.25811E-004, 1875.00000, 18.76957, 1.42875, 0.00000
 Zone Sizing Information, WILD_ST=HOSPITAL CORR. < 2.4M-SCH-G_FL=STORY 4_SCH=B, Cooling, 73928.96741, 81321.86415, 5.17093, 5.68802, FORT MCMURRAY AP ANN CLG .4% CONDNS DB=>MWB, 7/21 09:00:00, 22.08000, 8.76969E-003, 1875.00000, 18.76957, 1.42875, 0.00000
 Zone Sizing Information, WILD_ST=HOSPITAL CORR. < 2.4M-SCH-G_FL=STORY 4_SCH=B, Heating, 95612.93173, 124296.81125, 3.83623, 4.98711, FORT MCMURRAY AP ANN HTG 99.6% CONDNS DB, 1/21 10:00:00, -36.20000, 1.25811E-004, 1875.00000, 18.76957, 1.42875, 0.00000
 Zone Sizing Information, WILD_ST=HOSPITAL CORR. < 2.4M-SCH-H_FL=STORY 4_SCH=B, Cooling, 62514.74986, 68766.22484, 4.83144, 5.31458, FORT MCMURRAY AP ANN CLG .4% CONDNS DB=>MWB, 7/21 13:50:00, 28.79667, 8.76969E-003, 1875.00000, 18.76957, 1.42875, 0.00000
 Zone Sizing Information, WILD_ST=HOSPITAL CORR. < 2.4M-SCH-H_FL=STORY 4_SCH=B, Heating, 94927.96320, 123406.35216, 3.80852, 4.95108, FORT MCMURRAY AP ANN HTG 99.6% CONDNS DB, 1/21 10:00:00, -36.20000, 1.25811E-004, 1875.00000, 18.76957, 1.42875, 0.00000
 Zone Sizing Information, WILD_ST=HOSPITAL CORR. < 2.4M-SCH-I_FL=STORY 3_SCH=B, Cooling, 37709.80075, 41480.78082, 2.91437, 3.20581, FORT MCMURRAY AP ANN CLG .4% CONDNS DB=>MWB, 7/21 14:10:00, 28.90000, 8.76969E-003, 1875.00000, 18.76957, 1.42875, 0.00000
 Zone Sizing Information, WILD_ST=HOSPITAL CORR. < 2.4M-SCH-I_FL=STORY 3_SCH=B, Heating, 30683.17484, 39888.12730, 1.21288, 1.57674, FORT MCMURRAY AP ANN HTG 99.6% CONDNS DB, 1/21 10:00:00, -36.20000, 1.25811E-004, 1875.00000, 18.76957, 1.42875, 0.00000
 Zone Sizing Information, WILD_ST=HOSPITAL CORR. >= 2.4M-SCH-A_FL=STORY 3_SCH=B, Cooling, 49339.04607, 54272.95068, 3.45486, 3.80035, FORT MCMURRAY AP ANN CLG .4% CONDNS DB=>MWB, 7/21 09:00:00, 22.08000, 8.76969E-003, 1875.00000, 18.76957, 1.42875, 0.00000
 Zone Sizing Information, WILD_ST=HOSPITAL CORR. >= 2.4M-SCH-A_FL=STORY 3_SCH=B, Heating, 23509.06921, 30561.78997, 0.92193, 1.42875, FORT MCMURRAY AP ANN HTG 99.6% CONDNS DB, 1/21 10:00:00, -36.20000, 1.25811E-004, 1875.00000, 18.76957, 1.42875, 0.00000
 Zone Sizing Information, WILD_ST=HOSPITAL CORR. >= 2.4M-SCH-B_FL=STORY 1_SCH=B, Cooling, 15175.74045, 16693.31449, 1.09701, 1.42875, FORT MCMURRAY AP ANN CLG .4% CONDNS DB=>MWB, 7/21 09:00:00, 22.08000, 8.76969E-003, 1875.00000, 18.76957, 1.42875, 0.00000
 Zone Sizing Information, WILD_ST=HOSPITAL CORR. >= 2.4M-SCH-B_FL=STORY 1_SCH=B, Heating, 0.00000, 0.00000, 0.00000, 1.42875, FORT MCMURRAY AP ANN HTG 99.6% CONDNS DB, , -36.20000, 1.25811E-004, 1875.00000, 18.76957, 1.42875, 0.00000
 Zone Sizing Information, WILD_ST=HOSPITAL CORR. >= 2.4M-SCH-C_FL=STORY 3_SCH=B, Cooling, 34103.23004, 37513.55305, 2.42495, 2.66745, FORT MCMURRAY AP ANN CLG .4% CONDNS DB=>MWB, 7/21 09:00:00, 22.08000, 8.76969E-003, 2500.00000, 25.02609, 1.90500, 0.00000
 Zone Sizing Information, WILD_ST=HOSPITAL CORR. >= 2.4M-SCH-C_FL=STORY 3_SCH=B, Heating, 0.00000, 0.00000, 0.00000, 1.90500, FORT MCMURRAY AP ANN HTG 99.6% CONDNS DB, , -36.20000, 1.25811E-004, 2500.00000, 25.02609, 1.90500, 0.00000
 Zone Sizing Information, WILD_ST=HOSPITAL CORR. >= 2.4M-SCH-D_FL=STORY 3_SCH=B, Cooling, 44221.66166, 48643.82782, 3.41759, 3.75934, FORT MCMURRAY AP ANN CLG .4% CONDNS DB=>MWB, 7/21 18:30:00, 24.99400, 8.76969E-003, 1875.00000, 18.76957, 1.42875, 0.00000
 Zone Sizing Information, WILD_ST=HOSPITAL CORR. >= 2.4M-SCH-D_FL=STORY 3_SCH=B, Heating, 22474.96370, 29217.45281, 0.88024, 1.42875, FORT MCMURRAY AP ANN HTG 99.6% CONDNS DB, 1/21 10:00:00, -36.20000, 1.25811E-004, 1875.00000, 18.76957, 1.42875, 0.00000
 Zone Sizing Information, WILD_ST=HOSPITAL CORR. >= 2.4M-SCH-E_FL=STORY 2_SCH=B, Cooling, 22474.80486, 24722.28534, 1.62498, 1.78748, FORT MCMURRAY AP ANN CLG .4% CONDNS DB=>MWB, 7/21 09:00:00, 22.08000, 8.76969E-003, 1875.00000, 18.76957, 1.42875, 0.00000
 Zone Sizing Information, WILD_ST=HOSPITAL CORR. >= 2.4M-SCH-E_FL=STORY 2_SCH=B, Heating, 9033.10610, 11743.03793, 0.35588, 1.42875, FORT MCMURRAY AP ANN HTG 99.6% CONDNS DB, 1/21 10:00:00, -36.20000, 1.25811E-004, 1875.00000, 18.76957, 1.42875, 0.00000
 Zone Sizing Information, WILD_ST=HOSPITAL CORR. >= 2.4M-SCH-F_FL=STORY 1_SCH=B, Cooling, 15804.26860, 17384.69546, 1.14496, 1.42875, FORT MCMURRAY AP ANN CLG .4% CONDNS DB=>MWB, 7/21 09:00:00, 22.08000, 8.76969E-003, 1875.00000, 18.76957, 1.42875, 0.00000
 Zone Sizing Information, WILD_ST=HOSPITAL CORR. >= 2.4M-SCH-F_FL=STORY 1_SCH=B, Heating, 0.00000, 0.00000, 0.00000, 1.42875, FORT MCMURRAY AP ANN HTG 99.6% CONDNS DB, , -36.20000, 1.25811E-004, 1875.00000, 18.76957, 1.42875, 0.00000
 Zone Sizing Information, WILD_ST=HOSPITAL CORR. >= 2.4M-SCH-G_FL=STORY 1_SCH=B, Cooling, 15029.99751, 16532.99726, 1.16157, 1.42875, FORT MCMURRAY AP ANN CLG .4% CONDNS DB=>MWB, 7/21 20:00:00, 22.70000, 8.76969E-003, 1875.00000, 18.76957, 1.42875, 0.00000
 Zone Sizing Information, WILD_ST=HOSPITAL CORR. >= 2.4M-SCH-G_FL=STORY 1_SCH=B, Heating, 0.00000, 0.00000, 0.00000, 1.42875, FORT MCMURRAY AP ANN HTG 99.6% CONDNS DB, , -36.20000, 1.25811E-004, 1875.00000, 18.76957, 1.42875, 0.00000
 Zone Sizing Information, WILD_ST=HOSPITAL CORR. >= 2.4M-SCH-H_FL=STORY 1_SCH=B, Cooling, 22548.52938, 24803.38232, 1.61817, 1.90500, FORT MCMURRAY AP ANN CLG .4% CONDNS DB=>MWB, 7/21 09:00:00, 22.08000, 8.76969E-003, 2500.00000, 25.02609, 1.90500, 0.00000
 Zone Sizing Information, WILD_ST=HOSPITAL CORR. >= 2.4M-SCH-H_FL=STORY 1_SCH=B, Heating, 0.00000, 0.00000, 0.00000, 1.90500, FORT MCMURRAY AP ANN HTG 99.6% CONDNS DB, , -36.20000, 1.25811E-004, 2500.00000, 25.02609, 1.90500, 0.00000
 Zone Sizing Information, WILD_ST=HOSPITAL CORR. >= 2.4M-SCH-I_FL=STORY 2_SCH=B, Cooling, 37319.20752, 41051.12827, 2.88414, 3.17256, FORT MCMURRAY AP ANN CLG .4% CONDNS DB=>MWB, 7/21 18:20:00, 25.30400, 8.76968E-003, 1875.00000, 18.76957, 1.42875, 0.00000
 Zone Sizing Information, WILD_ST=HOSPITAL CORR. >= 2.4M-SCH-I_FL=STORY 2_SCH=B, Heating, 3002.99520, 3903.89376, 0.11961, 1.42875, FORT MCMURRAY AP ANN HTG 99.6% CONDNS DB, 1/21 09:40:00, -36.20000, 1.25811E-004, 1875.00000, 18.76957, 1.42875, 0.00000
! <System Sizing Information>, System Name, Load Type, Peak Load Kind, User Design Capacity, Calc Des Air Flow Rate [m3/s], User Des Air Flow Rate [m3/s], Design Day Name, Date/Time of Peak
 System Sizing Information, SYS_1_MAKE-UP AIR UNIT, Cooling, Sensible, 11017.97, 2.76030, 1.04775, FORT MCMURRAY AP ANN CLG .4% CONDNS DB=>MWB, 7/21 05:00:00
 System Sizing Information, SYS_1_MAKE-UP AIR UNIT, Heating, Sensible, 96103.89, 1.04775, 1.04775, FORT MCMURRAY AP ANN HTG 99.6% CONDNS DB, 1/21 00:10:00
 System Sizing Information, SYS_1_MAKE-UP AIR UNIT 1, Cooling, Sensible, 9061.92, 1.98779, 1.04775, FORT MCMURRAY AP ANN CLG .4% CONDNS DB=>MWB, 7/21 05:00:00
 System Sizing Information, SYS_1_MAKE-UP AIR UNIT 1, Heating, Sensible, 96103.89, 1.04775, 1.04775, FORT MCMURRAY AP ANN HTG 99.6% CONDNS DB, 1/21 00:10:00
 System Sizing Information, SYS_3_PSZ ALL_ST=HOTEL/MOTEL - DINING_FL=STORY 4_SCH=B, Cooling, Sensible, 119796.94, 6.71513, 6.71513, FORT MCMURRAY AP ANN CLG .4% CONDNS DB=>MWB, 7/21 05:00:00
 System Sizing Information, SYS_3_PSZ ALL_ST=HOTEL/MOTEL - DINING_FL=STORY 4_SCH=B, Heating, Sensible, 615938.57, 6.71513, 6.71513, FORT MCMURRAY AP ANN HTG 99.6% CONDNS DB, 1/21 00:10:00
 System Sizing Information, SYS_3_PSZ ALL_ST=HOTEL/MOTEL - LOBBY_FL=STORY 1_SCH=H, Cooling, Sensible, 27888.40, 2.73947, 2.73947, FORT MCMURRAY AP ANN CLG .4% CONDNS DB=>MWB, 7/21 05:00:00
 System Sizing Information, SYS_3_PSZ ALL_ST=HOTEL/MOTEL - LOBBY_FL=STORY 1_SCH=H, Heating, Sensible, 248996.44, 2.71463, 2.71463, FORT MCMURRAY AP ANN HTG 99.6% CONDNS DB, 1/21 00:10:00
 System Sizing Information, SYS_3_PSZ ALL_ST=HWAY LODGING - DINING_FL=STORY 3_SCH=B, Cooling, Sensible, 73990.40, 6.71513, 6.71513, FORT MCMURRAY AP ANN CLG .4% CONDNS DB=>MWB, 7/21 05:00:00
 System Sizing Information, SYS_3_PSZ ALL_ST=HWAY LODGING - DINING_FL=STORY 3_SCH=B, Heating, Sensible, 615938.57, 6.71513, 6.71513, FORT MCMURRAY AP ANN HTG 99.6% CONDNS DB, 1/21 00:10:00
 System Sizing Information, SYS_3_PSZ ALL_ST=LAB - CLASSROOMS_FL=STORY 2_SCH=D, Cooling, Sensible, 95855.03, 5.46100, 5.46100, FORT MCMURRAY AP ANN CLG .4% CONDNS DB=>MWB, 7/21 05:00:00
 System Sizing Information, SYS_3_PSZ ALL_ST=LAB - CLASSROOMS_FL=STORY 2_SCH=D, Heating, Sensible, 500905.13, 5.46100, 5.46100, FORT MCMURRAY AP ANN HTG 99.6% CONDNS DB, 1/21 00:10:00
 System Sizing Information, SYS_4_PSZ_WILD_ST=HOSPITAL CORR. < 2.4M-SCH-E_FL=STORY 4_SCH=B, Cooling, Sensible, 658679.21, 48.84361, 48.84361, FORT MCMURRAY AP ANN CLG .4% CONDNS DB=>MWB, 7/21 05:00:00
 System Sizing Information, SYS_4_PSZ_WILD_ST=HOSPITAL CORR. < 2.4M-SCH-E_FL=STORY 4_SCH=B, Heating, Sensible, 2299277.98, 35.06902, 35.06902, FORT MCMURRAY AP ANN HTG 99.6% CONDNS DB, 1/21 10:00:00
! <Component Sizing Information>, Component Type, Component Name, Input Field Description, Value
 Component Sizing Information, AirTerminal:SingleDuct:Uncontrolled, AIR TERMINAL SINGLE DUCT UNCONTROLLED 17, Design Size Maximum Air Flow Rate [m3/s], 6.71513
 Component Sizing Information, ZoneHVAC:Baseboard:Convective:Water, ZONE HVAC BASEBOARD CONVECTIVE WATER 17, Design Size Maximum Water Flow Rate [m3/s], 9.27064E-004
 Component Sizing Information, ZoneHVAC:Baseboard:Convective:Water, ZONE HVAC BASEBOARD CONVECTIVE WATER 17, Design Size U-Factor Times Area Value [W/K], 1892.12992
 Component Sizing Information, AirTerminal:SingleDuct:Uncontrolled, AIR TERMINAL SINGLE DUCT UNCONTROLLED 18, Design Size Maximum Air Flow Rate [m3/s], 2.73947
 Component Sizing Information, ZoneHVAC:Baseboard:Convective:Water, ZONE HVAC BASEBOARD CONVECTIVE WATER 18, Design Size Maximum Water Flow Rate [m3/s], 0.00000
 Component Sizing Information, ZoneHVAC:Baseboard:Convective:Water, ZONE HVAC BASEBOARD CONVECTIVE WATER 18, Design Size U-Factor Times Area Value [W/K], 0.00000
 Component Sizing Information, AirTerminal:SingleDuct:Uncontrolled, AIR TERMINAL SINGLE DUCT UNCONTROLLED 19, Design Size Maximum Air Flow Rate [m3/s], 6.71513
 Component Sizing Information, ZoneHVAC:Baseboard:Convective:Water, ZONE HVAC BASEBOARD CONVECTIVE WATER 19, Design Size Maximum Water Flow Rate [m3/s], 4.15388E-004
 Component Sizing Information, ZoneHVAC:Baseboard:Convective:Water, ZONE HVAC BASEBOARD CONVECTIVE WATER 19, Design Size U-Factor Times Area Value [W/K], 843.01339
 Component Sizing Information, AirTerminal:SingleDuct:Uncontrolled, AIR TERMINAL SINGLE DUCT UNCONTROLLED 20, Design Size Maximum Air Flow Rate [m3/s], 5.46100
 Component Sizing Information, ZoneHVAC:Baseboard:Convective:Water, ZONE HVAC BASEBOARD CONVECTIVE WATER 20, Design Size Maximum Water Flow Rate [m3/s], 0.00000
 Component Sizing Information, ZoneHVAC:Baseboard:Convective:Water, ZONE HVAC BASEBOARD CONVECTIVE WATER 20, Design Size U-Factor Times Area Value [W/K], 0.00000
 Component Sizing Information, ZoneHVAC:PackagedTerminalAirConditioner, DU_BT=SPACE FUNCTION_ST=HOTEL/MOTEL - ROOMS_FL=STORY 2_SCHF PTAC, Design Size Cooling Supply Air Flow Rate [m3/s], 2.76030
 Component Sizing Information, ZoneHVAC:PackagedTerminalAirConditioner, DU_BT=SPACE FUNCTION_ST=HOTEL/MOTEL - ROOMS_FL=STORY 2_SCHF PTAC, Design Size Heating Supply Air Flow Rate [m3/s], 2.76030
 Component Sizing Information, ZoneHVAC:PackagedTerminalAirConditioner, DU_BT=SPACE FUNCTION_ST=HOTEL/MOTEL - ROOMS_FL=STORY 2_SCHF PTAC, Design Size No Load Supply Air Flow Rate [m3/s], 2.76030
 Component Sizing Information, ZoneHVAC:PackagedTerminalAirConditioner, DU_BT=SPACE FUNCTION_ST=HOTEL/MOTEL - ROOMS_FL=STORY 2_SCHF PTAC, Design Size Outdoor Air Flow Rate During Cooling Operation [m3/s], 1.04775
 Component Sizing Information, ZoneHVAC:PackagedTerminalAirConditioner, DU_BT=SPACE FUNCTION_ST=HOTEL/MOTEL - ROOMS_FL=STORY 2_SCHF PTAC, Design Size Outdoor Air Flow Rate During Heating Operation [m3/s], 1.04775
 Component Sizing Information, ZoneHVAC:PackagedTerminalAirConditioner, DU_BT=SPACE FUNCTION_ST=HOTEL/MOTEL - ROOMS_FL=STORY 2_SCHF PTAC, Design Size Outdoor Air Flow Rate When No Cooling or Heating is Needed [m3/s], 1.04775
 Component Sizing Information, Coil:Cooling:DX:SingleSpeed, COIL COOLING DX SINGLE SPEED 2 156KBTU/HR 9.3EER, Design Size Rated Air Flow Rate [m3/s], 2.76030
 Component Sizing Information, Coil:Cooling:DX:SingleSpeed, COIL COOLING DX SINGLE SPEED 2 156KBTU/HR 9.3EER, Design Size Gross Rated Total Cooling Capacity [W], 45692.83801
 Component Sizing Information, Coil:Cooling:DX:SingleSpeed, COIL COOLING DX SINGLE SPEED 2 156KBTU/HR 9.3EER, Design Size Gross Rated Sensible Heat Ratio, 0.80066
! <DX Cooling Coil Standard Rating Information>, Component Type, Component Name, Standard Rating (Net) Cooling Capacity {W}, Standard Rated Net COP {W/W}, EER {Btu/W-h}, SEER {Btu/W-h}, IEER {Btu/W-h}
 DX Cooling Coil Standard Rating Information, Coil:Cooling:DX:SingleSpeed, COIL COOLING DX SINGLE SPEED 2 156KBTU/HR 9.3EER, 43547.2, 2.70, 9.20, 9.71, 9.20
 Component Sizing Information, Coil:Heating:Electric, COIL HEATING ELECTRIC 1, Design Size Nominal Capacity [W], 97524.42093
 Component Sizing Information, Fan:ConstantVolume, FAN CONSTANT VOLUME 2, Design Size Maximum Flow Rate [m3/s], 2.76030
 Component Sizing Information, ZoneHVAC:Baseboard:Convective:Water, ZONE HVAC BASEBOARD CONVECTIVE WATER 1, Design Size Maximum Water Flow Rate [m3/s], 5.87487E-005
 Component Sizing Information, ZoneHVAC:Baseboard:Convective:Water, ZONE HVAC BASEBOARD CONVECTIVE WATER 1, Design Size U-Factor Times Area Value [W/K], 118.85808
 Component Sizing Information, AirTerminal:SingleDuct:Uncontrolled, AIR TERMINAL SINGLE DUCT UNCONTROLLED 1, Design Size Maximum Air Flow Rate [m3/s], 1.04775
 Component Sizing Information, ZoneHVAC:PackagedTerminalAirConditioner, DU_BT=SPACE FUNCTION_ST=HWAY LODGING - ROOMS_FL=STORY 2_SCHF PTAC, Design Size Cooling Supply Air Flow Rate [m3/s], 1.98779
 Component Sizing Information, ZoneHVAC:PackagedTerminalAirConditioner, DU_BT=SPACE FUNCTION_ST=HWAY LODGING - ROOMS_FL=STORY 2_SCHF PTAC, Design Size Heating Supply Air Flow Rate [m3/s], 1.98779
 Component Sizing Information, ZoneHVAC:PackagedTerminalAirConditioner, DU_BT=SPACE FUNCTION_ST=HWAY LODGING - ROOMS_FL=STORY 2_SCHF PTAC, Design Size No Load Supply Air Flow Rate [m3/s], 1.98779
 Component Sizing Information, ZoneHVAC:PackagedTerminalAirConditioner, DU_BT=SPACE FUNCTION_ST=HWAY LODGING - ROOMS_FL=STORY 2_SCHF PTAC, Design Size Outdoor Air Flow Rate During Cooling Operation [m3/s], 1.04775
 Component Sizing Information, ZoneHVAC:PackagedTerminalAirConditioner, DU_BT=SPACE FUNCTION_ST=HWAY LODGING - ROOMS_FL=STORY 2_SCHF PTAC, Design Size Outdoor Air Flow Rate During Heating Operation [m3/s], 1.04775
 Component Sizing Information, ZoneHVAC:PackagedTerminalAirConditioner, DU_BT=SPACE FUNCTION_ST=HWAY LODGING - ROOMS_FL=STORY 2_SCHF PTAC, Design Size Outdoor Air Flow Rate When No Cooling or Heating is Needed [m3/s], 1.04775
 Component Sizing Information, Coil:Cooling:DX:SingleSpeed, COIL COOLING DX SINGLE SPEED 4 112KBTU/HR 9.3EER, Design Size Rated Air Flow Rate [m3/s], 1.98779
 Component Sizing Information, Coil:Cooling:DX:SingleSpeed, COIL COOLING DX SINGLE SPEED 4 112KBTU/HR 9.3EER, Design Size Gross Rated Total Cooling Capacity [W], 32905.03364
 Component Sizing Information, Coil:Cooling:DX:SingleSpeed, COIL COOLING DX SINGLE SPEED 4 112KBTU/HR 9.3EER, Design Size Gross Rated Sensible Heat Ratio, 0.80066
 DX Cooling Coil Standard Rating Information, Coil:Cooling:DX:SingleSpeed, COIL COOLING DX SINGLE SPEED 4 112KBTU/HR 9.3EER, 31359.9, 2.67, 9.12, 9.63, 9.13
 Component Sizing Information, Coil:Heating:Electric, COIL HEATING ELECTRIC 2, Design Size Nominal Capacity [W], 97524.42093
 Component Sizing Information, Fan:ConstantVolume, FAN CONSTANT VOLUME 4, Design Size Maximum Flow Rate [m3/s], 1.98779
 Component Sizing Information, ZoneHVAC:Baseboard:Convective:Water, ZONE HVAC BASEBOARD CONVECTIVE WATER 2, Design Size Maximum Water Flow Rate [m3/s], 8.60977E-005
 Component Sizing Information, ZoneHVAC:Baseboard:Convective:Water, ZONE HVAC BASEBOARD CONVECTIVE WATER 2, Design Size U-Factor Times Area Value [W/K], 174.33950
 Component Sizing Information, AirTerminal:SingleDuct:Uncontrolled, AIR TERMINAL SINGLE DUCT UNCONTROLLED 2, Design Size Maximum Air Flow Rate [m3/s], 1.04775
 Component Sizing Information, AirTerminal:SingleDuct:Uncontrolled, AIR TERMINAL SINGLE DUCT UNCONTROLLED 3, Design Size Maximum Air Flow Rate [m3/s], 6.52515
 Component Sizing Information, ZoneHVAC:Baseboard:Convective:Water, ZONE HVAC BASEBOARD CONVECTIVE WATER 3, Design Size Maximum Water Flow Rate [m3/s], 1.76237E-003
 Component Sizing Information, ZoneHVAC:Baseboard:Convective:Water, ZONE HVAC BASEBOARD CONVECTIVE WATER 3, Design Size U-Factor Times Area Value [W/K], 3601.10533
 Component Sizing Information, AirTerminal:SingleDuct:Uncontrolled, AIR TERMINAL SINGLE DUCT UNCONTROLLED 4, Design Size Maximum Air Flow Rate [m3/s], 6.73162
 Component Sizing Information, ZoneHVAC:Baseboard:Convective:Water, ZONE HVAC BASEBOARD CONVECTIVE WATER 4, Design Size Maximum Water Flow Rate [m3/s], 1.86875E-003
 Component Sizing Information, ZoneHVAC:Baseboard:Convective:Water, ZONE HVAC BASEBOARD CONVECTIVE WATER 4, Design Size U-Factor Times Area Value [W/K], 3817.22604
 Component Sizing Information, AirTerminal:SingleDuct:Uncontrolled, AIR TERMINAL SINGLE DUCT UNCONTROLLED 5, Design Size Maximum Air Flow Rate [m3/s], 5.68802
 Component Sizing Information, ZoneHVAC:Baseboard:Convective:Water, ZONE HVAC BASEBOARD CONVECTIVE WATER 5, Design Size Maximum Water Flow Rate [m3/s], 1.85647E-003
 Component Sizing Information, ZoneHVAC:Baseboard:Convective:Water, ZONE HVAC BASEBOARD CONVECTIVE WATER 5, Design Size U-Factor Times Area Value [W/K], 3792.19529
 Component Sizing Information, AirTerminal:SingleDuct:Uncontrolled, AIR TERMINAL SINGLE DUCT UNCONTROLLED 6, Design Size Maximum Air Flow Rate [m3/s], 5.31458
 Component Sizing Information, ZoneHVAC:Baseboard:Convective:Water, ZONE HVAC BASEBOARD CONVECTIVE WATER 6, Design Size Maximum Water Flow Rate [m3/s], 1.84317E-003
 Component Sizing Information, ZoneHVAC:Baseboard:Convective:Water, ZONE HVAC BASEBOARD CONVECTIVE WATER 6, Design Size U-Factor Times Area Value [W/K], 3765.06746
 Component Sizing Information, AirTerminal:SingleDuct:Uncontrolled, AIR TERMINAL SINGLE DUCT UNCONTROLLED 7, Design Size Maximum Air Flow Rate [m3/s], 3.20581
 Component Sizing Information, ZoneHVAC:Baseboard:Convective:Water, ZONE HVAC BASEBOARD CONVECTIVE WATER 7, Design Size Maximum Water Flow Rate [m3/s], 5.95762E-004
 Component Sizing Information, ZoneHVAC:Baseboard:Convective:Water, ZONE HVAC BASEBOARD CONVECTIVE WATER 7, Design Size U-Factor Times Area Value [W/K], 1217.99945
 Component Sizing Information, AirTerminal:SingleDuct:Uncontrolled, AIR TERMINAL SINGLE DUCT UNCONTROLLED 8, Design Size Maximum Air Flow Rate [m3/s], 3.80035
 Component Sizing Information, ZoneHVAC:Baseboard:Convective:Water, ZONE HVAC BASEBOARD CONVECTIVE WATER 8, Design Size Maximum Water Flow Rate [m3/s], 4.56465E-004
 Component Sizing Information, ZoneHVAC:Baseboard:Convective:Water, ZONE HVAC BASEBOARD CONVECTIVE WATER 8, Design Size U-Factor Times Area Value [W/K], 931.44151
 Component Sizing Information, AirTerminal:SingleDuct:Uncontrolled, AIR TERMINAL SINGLE DUCT UNCONTROLLED 9, Design Size Maximum Air Flow Rate [m3/s], 1.42875
 Component Sizing Information, ZoneHVAC:Baseboard:Convective:Water, ZONE HVAC BASEBOARD CONVECTIVE WATER 9, Design Size Maximum Water Flow Rate [m3/s], 0.00000
 Component Sizing Information, ZoneHVAC:Baseboard:Convective:Water, ZONE HVAC BASEBOARD CONVECTIVE WATER 9, Design Size U-Factor Times Area Value [W/K], 0.00000
 Component Sizing Information, AirTerminal:SingleDuct:Uncontrolled, AIR TERMINAL SINGLE DUCT UNCONTROLLED 10, Design Size Maximum Air Flow Rate [m3/s], 2.66745
 Component Sizing Information, ZoneHVAC:Baseboard:Convective:Water, ZONE HVAC BASEBOARD CONVECTIVE WATER 10, Design Size Maximum Water Flow Rate [m3/s], 0.00000
 Component Sizing Information, ZoneHVAC:Baseboard:Convective:Water, ZONE HVAC BASEBOARD CONVECTIVE WATER 10, Design Size U-Factor Times Area Value [W/K], 0.00000
 Component Sizing Information, AirTerminal:SingleDuct:Uncontrolled, AIR TERMINAL SINGLE DUCT UNCONTROLLED 11, Design Size Maximum Air Flow Rate [m3/s], 3.75934
 Component Sizing Information, ZoneHVAC:Baseboard:Convective:Water, ZONE HVAC BASEBOARD CONVECTIVE WATER 11, Design Size Maximum Water Flow Rate [m3/s], 4.36386E-004
 Component Sizing Information, ZoneHVAC:Baseboard:Convective:Water, ZONE HVAC BASEBOARD CONVECTIVE WATER 11, Design Size U-Factor Times Area Value [W/K], 890.48255
 Component Sizing Information, AirTerminal:SingleDuct:Uncontrolled, AIR TERMINAL SINGLE DUCT UNCONTROLLED 12, Design Size Maximum Air Flow Rate [m3/s], 1.78748
 Component Sizing Information, ZoneHVAC:Baseboard:Convective:Water, ZONE HVAC BASEBOARD CONVECTIVE WATER 12, Design Size Maximum Water Flow Rate [m3/s], 1.75392E-004
 Component Sizing Information, ZoneHVAC:Baseboard:Convective:Water, ZONE HVAC BASEBOARD CONVECTIVE WATER 12, Design Size U-Factor Times Area Value [W/K], 358.28615
 Component Sizing Information, AirTerminal:SingleDuct:Uncontrolled, AIR TERMINAL SINGLE DUCT UNCONTROLLED 13, Design Size Maximum Air Flow Rate [m3/s], 1.42875
 Component Sizing Information, ZoneHVAC:Baseboard:Convective:Water, ZONE HVAC BASEBOARD CONVECTIVE WATER 13, Design Size Maximum Water Flow Rate [m3/s], 0.00000
 Component Sizing Information, ZoneHVAC:Baseboard:Convective:Water, ZONE HVAC BASEBOARD CONVECTIVE WATER 13, Design Size U-Factor Times Area Value [W/K], 0.00000
 Component Sizing Information, AirTerminal:SingleDuct:Uncontrolled, AIR TERMINAL SINGLE DUCT UNCONTROLLED 14, Design Size Maximum Air Flow Rate [m3/s], 1.42875
 Component Sizing Information, ZoneHVAC:Baseboard:Convective:Water, ZONE HVAC BASEBOARD CONVECTIVE WATER 14, Design Size Maximum Water Flow Rate [m3/s], 0.00000
 Component Sizing Information, ZoneHVAC:Baseboard:Convective:Water, ZONE HVAC BASEBOARD CONVECTIVE WATER 14, Design Size U-Factor Times Area Value [W/K], 0.00000
 Component Sizing Information, AirTerminal:SingleDuct:Uncontrolled, AIR TERMINAL SINGLE DUCT UNCONTROLLED 15, Design Size Maximum Air Flow Rate [m3/s], 1.90500
 Component Sizing Information, ZoneHVAC:Baseboard:Convective:Water, ZONE HVAC BASEBOARD CONVECTIVE WATER 15, Design Size Maximum Water Flow Rate [m3/s], 0.00000
 Component Sizing Information, ZoneHVAC:Baseboard:Convective:Water, ZONE HVAC BASEBOARD CONVECTIVE WATER 15, Design Size U-Factor Times Area Value [W/K], 0.00000
 Component Sizing Information, AirTerminal:SingleDuct:Uncontrolled, AIR TERMINAL SINGLE DUCT UNCONTROLLED 16, Design Size Maximum Air Flow Rate [m3/s], 3.17256
 Component Sizing Information, ZoneHVAC:Baseboard:Convective:Water, ZONE HVAC BASEBOARD CONVECTIVE WATER 16, Design Size Maximum Water Flow Rate [m3/s], 5.83078E-005
 Component Sizing Information, ZoneHVAC:Baseboard:Convective:Water, ZONE HVAC BASEBOARD CONVECTIVE WATER 16, Design Size U-Factor Times Area Value [W/K], 119.22465
 Component Sizing Information, AirLoopHVAC, SYS_1_MAKE-UP AIR UNIT, Sum of Air Terminal Maximum Heating Flow Rates [m3/s], 1.04775
 Component Sizing Information, AirLoopHVAC, SYS_1_MAKE-UP AIR UNIT, Sum of Air Terminal Minimum Heating Flow Rates [m3/s], 1.04775
 Component Sizing Information, AirLoopHVAC, SYS_1_MAKE-UP AIR UNIT, Sum of Air Terminal Maximum Flow Rates [m3/s], 1.04775
 Component Sizing Information, AirLoopHVAC, SYS_1_MAKE-UP AIR UNIT, Adjusted Heating Design Air Flow Rate [m3/s], 1.04775
 Component Sizing Information, AirLoopHVAC, SYS_1_MAKE-UP AIR UNIT, Adjusted Cooling Design Air Flow Rate [m3/s], 1.04775
 Component Sizing Information, AirLoopHVAC, SYS_1_MAKE-UP AIR UNIT, Adjusted Main Design Air Flow Rate [m3/s], 1.04775
 Component Sizing Information, AirLoopHVAC, SYS_1_MAKE-UP AIR UNIT, User Heating Air Flow Ratio [], 1.00000
 Component Sizing Information, AirLoopHVAC, SYS_1_MAKE-UP AIR UNIT, Calculated Heating Air Flow Ratio [], 1.00000
 Component Sizing Information, AirLoopHVAC, SYS_1_MAKE-UP AIR UNIT 1, Sum of Air Terminal Maximum Heating Flow Rates [m3/s], 1.04775
 Component Sizing Information, AirLoopHVAC, SYS_1_MAKE-UP AIR UNIT 1, Sum of Air Terminal Minimum Heating Flow Rates [m3/s], 1.04775
 Component Sizing Information, AirLoopHVAC, SYS_1_MAKE-UP AIR UNIT 1, Sum of Air Terminal Maximum Flow Rates [m3/s], 1.04775
 Component Sizing Information, AirLoopHVAC, SYS_1_MAKE-UP AIR UNIT 1, Adjusted Heating Design Air Flow Rate [m3/s], 1.04775
 Component Sizing Information, AirLoopHVAC, SYS_1_MAKE-UP AIR UNIT 1, Adjusted Cooling Design Air Flow Rate [m3/s], 1.04775
 Component Sizing Information, AirLoopHVAC, SYS_1_MAKE-UP AIR UNIT 1, Adjusted Main Design Air Flow Rate [m3/s], 1.04775
 Component Sizing Information, AirLoopHVAC, SYS_1_MAKE-UP AIR UNIT 1, User Heating Air Flow Ratio [], 1.00000
 Component Sizing Information, AirLoopHVAC, SYS_1_MAKE-UP AIR UNIT 1, Calculated Heating Air Flow Ratio [], 1.00000
 Component Sizing Information, AirLoopHVAC, SYS_3_PSZ ALL_ST=HOTEL/MOTEL - DINING_FL=STORY 4_SCH=B, Sum of Air Terminal Maximum Heating Flow Rates [m3/s], 6.71513
 Component Sizing Information, AirLoopHVAC, SYS_3_PSZ ALL_ST=HOTEL/MOTEL - DINING_FL=STORY 4_SCH=B, Sum of Air Terminal Minimum Heating Flow Rates [m3/s], 6.71513
 Component Sizing Information, AirLoopHVAC, SYS_3_PSZ ALL_ST=HOTEL/MOTEL - DINING_FL=STORY 4_SCH=B, Sum of Air Terminal Maximum Flow Rates [m3/s], 6.71513
 Component Sizing Information, AirLoopHVAC, SYS_3_PSZ ALL_ST=HOTEL/MOTEL - DINING_FL=STORY 4_SCH=B, Adjusted Heating Design Air Flow Rate [m3/s], 6.71513
 Component Sizing Information, AirLoopHVAC, SYS_3_PSZ ALL_ST=HOTEL/MOTEL - DINING_FL=STORY 4_SCH=B, Adjusted Cooling Design Air Flow Rate [m3/s], 6.71513
 Component Sizing Information, AirLoopHVAC, SYS_3_PSZ ALL_ST=HOTEL/MOTEL - DINING_FL=STORY 4_SCH=B, Adjusted Main Design Air Flow Rate [m3/s], 6.71513
 Component Sizing Information, AirLoopHVAC, SYS_3_PSZ ALL_ST=HOTEL/MOTEL - DINING_FL=STORY 4_SCH=B, User Heating Air Flow Ratio [], 1.00000
 Component Sizing Information, AirLoopHVAC, SYS_3_PSZ ALL_ST=HOTEL/MOTEL - DINING_FL=STORY 4_SCH=B, Calculated Heating Air Flow Ratio [], 1.00000
 Component Sizing Information, AirLoopHVAC, SYS_3_PSZ ALL_ST=HOTEL/MOTEL - LOBBY_FL=STORY 1_SCH=H, Sum of Air Terminal Maximum Heating Flow Rates [m3/s], 2.73947
 Component Sizing Information, AirLoopHVAC, SYS_3_PSZ ALL_ST=HOTEL/MOTEL - LOBBY_FL=STORY 1_SCH=H, Sum of Air Terminal Minimum Heating Flow Rates [m3/s], 2.73947
 Component Sizing Information, AirLoopHVAC, SYS_3_PSZ ALL_ST=HOTEL/MOTEL - LOBBY_FL=STORY 1_SCH=H, Sum of Air Terminal Maximum Flow Rates [m3/s], 2.73947
 Component Sizing Information, AirLoopHVAC, SYS_3_PSZ ALL_ST=HOTEL/MOTEL - LOBBY_FL=STORY 1_SCH=H, Adjusted Heating Design Air Flow Rate [m3/s], 2.73947
 Component Sizing Information, AirLoopHVAC, SYS_3_PSZ ALL_ST=HOTEL/MOTEL - LOBBY_FL=STORY 1_SCH=H, Adjusted Cooling Design Air Flow Rate [m3/s], 2.73947
 Component Sizing Information, AirLoopHVAC, SYS_3_PSZ ALL_ST=HOTEL/MOTEL - LOBBY_FL=STORY 1_SCH=H, Adjusted Main Design Air Flow Rate [m3/s], 2.73947
 Component Sizing Information, AirLoopHVAC, SYS_3_PSZ ALL_ST=HOTEL/MOTEL - LOBBY_FL=STORY 1_SCH=H, User Heating Air Flow Ratio [], 1.00000
 Component Sizing Information, AirLoopHVAC, SYS_3_PSZ ALL_ST=HOTEL/MOTEL - LOBBY_FL=STORY 1_SCH=H, Calculated Heating Air Flow Ratio [], 1.00000
 Component Sizing Information, AirLoopHVAC, SYS_3_PSZ ALL_ST=HWAY LODGING - DINING_FL=STORY 3_SCH=B, Sum of Air Terminal Maximum Heating Flow Rates [m3/s], 6.71513
 Component Sizing Information, AirLoopHVAC, SYS_3_PSZ ALL_ST=HWAY LODGING - DINING_FL=STORY 3_SCH=B, Sum of Air Terminal Minimum Heating Flow Rates [m3/s], 6.71513
 Component Sizing Information, AirLoopHVAC, SYS_3_PSZ ALL_ST=HWAY LODGING - DINING_FL=STORY 3_SCH=B, Sum of Air Terminal Maximum Flow Rates [m3/s], 6.71513
 Component Sizing Information, AirLoopHVAC, SYS_3_PSZ ALL_ST=HWAY LODGING - DINING_FL=STORY 3_SCH=B, Adjusted Heating Design Air Flow Rate [m3/s], 6.71513
 Component Sizing Information, AirLoopHVAC, SYS_3_PSZ ALL_ST=HWAY LODGING - DINING_FL=STORY 3_SCH=B, Adjusted Cooling Design Air Flow Rate [m3/s], 6.71513
 Component Sizing Information, AirLoopHVAC, SYS_3_PSZ ALL_ST=HWAY LODGING - DINING_FL=STORY 3_SCH=B, Adjusted Main Design Air Flow Rate [m3/s], 6.71513
 Component Sizing Information, AirLoopHVAC, SYS_3_PSZ ALL_ST=HWAY LODGING - DINING_FL=STORY 3_SCH=B, User Heating Air Flow Ratio [], 1.00000
 Component Sizing Information, AirLoopHVAC, SYS_3_PSZ ALL_ST=HWAY LODGING - DINING_FL=STORY 3_SCH=B, Calculated Heating Air Flow Ratio [], 1.00000
 Component Sizing Information, AirLoopHVAC, SYS_3_PSZ ALL_ST=LAB - CLASSROOMS_FL=STORY 2_SCH=D, Sum of Air Terminal Maximum Heating Flow Rates [m3/s], 5.46100
 Component Sizing Information, AirLoopHVAC, SYS_3_PSZ ALL_ST=LAB - CLASSROOMS_FL=STORY 2_SCH=D, Sum of Air Terminal Minimum Heating Flow Rates [m3/s], 5.46100
 Component Sizing Information, AirLoopHVAC, SYS_3_PSZ ALL_ST=LAB - CLASSROOMS_FL=STORY 2_SCH=D, Sum of Air Terminal Maximum Flow Rates [m3/s], 5.46100
 Component Sizing Information, AirLoopHVAC, SYS_3_PSZ ALL_ST=LAB - CLASSROOMS_FL=STORY 2_SCH=D, Adjusted Heating Design Air Flow Rate [m3/s], 5.46100
 Component Sizing Information, AirLoopHVAC, SYS_3_PSZ ALL_ST=LAB - CLASSROOMS_FL=STORY 2_SCH=D, Adjusted Cooling Design Air Flow Rate [m3/s], 5.46100
 Component Sizing Information, AirLoopHVAC, SYS_3_PSZ ALL_ST=LAB - CLASSROOMS_FL=STORY 2_SCH=D, Adjusted Main Design Air Flow Rate [m3/s], 5.46100
 Component Sizing Information, AirLoopHVAC, SYS_3_PSZ ALL_ST=LAB - CLASSROOMS_FL=STORY 2_SCH=D, User Heating Air Flow Ratio [], 1.00000
 Component Sizing Information, AirLoopHVAC, SYS_3_PSZ ALL_ST=LAB - CLASSROOMS_FL=STORY 2_SCH=D, Calculated Heating Air Flow Ratio [], 1.00000
 Component Sizing Information, AirLoopHVAC, SYS_4_PSZ_WILD_ST=HOSPITAL CORR. < 2.4M-SCH-E_FL=STORY 4_SCH=B, Sum of Air Terminal Maximum Heating Flow Rates [m3/s], 48.84361
 Component Sizing Information, AirLoopHVAC, SYS_4_PSZ_WILD_ST=HOSPITAL CORR. < 2.4M-SCH-E_FL=STORY 4_SCH=B, Sum of Air Terminal Minimum Heating Flow Rates [m3/s], 48.84361
 Component Sizing Information, AirLoopHVAC, SYS_4_PSZ_WILD_ST=HOSPITAL CORR. < 2.4M-SCH-E_FL=STORY 4_SCH=B, Sum of Air Terminal Maximum Flow Rates [m3/s], 48.84361
 Component Sizing Information, AirLoopHVAC, SYS_4_PSZ_WILD_ST=HOSPITAL CORR. < 2.4M-SCH-E_FL=STORY 4_SCH=B, Adjusted Heating Design Air Flow Rate [m3/s], 48.84361
 Component Sizing Information, AirLoopHVAC, SYS_4_PSZ_WILD_ST=HOSPITAL CORR. < 2.4M-SCH-E_FL=STORY 4_SCH=B, Adjusted Cooling Design Air Flow Rate [m3/s], 48.84361
 Component Sizing Information, AirLoopHVAC, SYS_4_PSZ_WILD_ST=HOSPITAL CORR. < 2.4M-SCH-E_FL=STORY 4_SCH=B, Adjusted Main Design Air Flow Rate [m3/s], 48.84361
 Component Sizing Information, AirLoopHVAC, SYS_4_PSZ_WILD_ST=HOSPITAL CORR. < 2.4M-SCH-E_FL=STORY 4_SCH=B, User Heating Air Flow Ratio [], 1.00000
 Component Sizing Information, AirLoopHVAC, SYS_4_PSZ_WILD_ST=HOSPITAL CORR. < 2.4M-SCH-E_FL=STORY 4_SCH=B, Calculated Heating Air Flow Ratio [], 1.00000
 Component Sizing Information, AirLoopHVAC, SYS_1_MAKE-UP AIR UNIT, Design Supply Air Flow Rate [m3/s], 1.04775
 Component Sizing Information, AirLoopHVAC, SYS_1_MAKE-UP AIR UNIT 1, Design Supply Air Flow Rate [m3/s], 1.04775
 Component Sizing Information, AirLoopHVAC, SYS_3_PSZ ALL_ST=HOTEL/MOTEL - DINING_FL=STORY 4_SCH=B, Design Supply Air Flow Rate [m3/s], 6.71513
 Component Sizing Information, AirLoopHVAC, SYS_3_PSZ ALL_ST=HOTEL/MOTEL - LOBBY_FL=STORY 1_SCH=H, Design Supply Air Flow Rate [m3/s], 2.73947
 Component Sizing Information, AirLoopHVAC, SYS_3_PSZ ALL_ST=HWAY LODGING - DINING_FL=STORY 3_SCH=B, Design Supply Air Flow Rate [m3/s], 6.71513
 Component Sizing Information, AirLoopHVAC, SYS_3_PSZ ALL_ST=LAB - CLASSROOMS_FL=STORY 2_SCH=D, Design Supply Air Flow Rate [m3/s], 5.46100
 Component Sizing Information, AirLoopHVAC, SYS_4_PSZ_WILD_ST=HOSPITAL CORR. < 2.4M-SCH-E_FL=STORY 4_SCH=B, Design Supply Air Flow Rate [m3/s], 48.84361
!<Controller:MechanicalVentilation>,Name,Availability Schedule Name,Demand Controlled Ventilation {Yes/No},System Outdoor Air Method,Zone Maximum Outdoor Air Fraction,Number of Zones,Zone Name,DSOA Name,DSZAD Name
 Controller:MechanicalVentilation,CONTROLLER MECHANICAL VENTILATION 4,SYS_3_PSZ ALL_ST=HOTEL/MOTEL - DINING_FL=STORY 4_SCH=B OCC SCH,No,ZoneSum,1.00,1,ALL_ST=HOTEL/MOTEL - DINING_FL=STORY 4_SCH=B,SPACE FUNCTION HOTEL/MOTEL - DINING VENTILATION,ALL_ST=HOTEL/MOTEL - DINING_FL=STORY 4_SCH=B DESIGN SPEC ZONE AIR DIST
 Controller:MechanicalVentilation,CONTROLLER MECHANICAL VENTILATION 5,SYS_3_PSZ ALL_ST=HOTEL/MOTEL - LOBBY_FL=STORY 1_SCH=H OCC SCH,No,ZoneSum,1.00,1,ALL_ST=HOTEL/MOTEL - LOBBY_FL=STORY 1_SCH=H,SPACE FUNCTION HOTEL/MOTEL - LOBBY VENTILATION,ALL_ST=HOTEL/MOTEL - LOBBY_FL=STORY 1_SCH=H DESIGN SPEC ZONE AIR DIST
[...]
 Component Sizing Information, Controller:OutdoorAir, CONTROLLER OUTDOOR AIR 1, Maximum Outdoor Air Flow Rate [m3/s], 1.04775
 Component Sizing Information, Controller:OutdoorAir, CONTROLLER OUTDOOR AIR 1, Minimum Outdoor Air Flow Rate [m3/s], 1.04775
 Component Sizing Information, Coil:Cooling:DX:SingleSpeed, COIL COOLING DX SINGLE SPEED 1 59KBTU/HR 14.0SEER, Design Size Rated Air Flow Rate [m3/s], 1.04775
 Component Sizing Information, Coil:Cooling:DX:SingleSpeed, COIL COOLING DX SINGLE SPEED 1 59KBTU/HR 14.0SEER, Design Size Gross Rated Total Cooling Capacity [W], 17343.98278
 Component Sizing Information, Coil:Cooling:DX:SingleSpeed, COIL COOLING DX SINGLE SPEED 1 59KBTU/HR 14.0SEER, Design Size Gross Rated Sensible Heat Ratio, 0.80066
 DX Cooling Coil Standard Rating Information, Coil:Cooling:DX:SingleSpeed, COIL COOLING DX SINGLE SPEED 1 59KBTU/HR 14.0SEER, 16529.5, 3.09, 10.55, 11.12, 10.40
 Component Sizing Information, Coil:Heating:Water, COIL HEATING WATER 1, Design Size Rated Capacity [W], 96103.89061
 Component Sizing Information, Coil:Heating:Water, COIL HEATING WATER 1, Design Size Maximum Water Flow Rate [m3/s], 1.43539E-003
 Component Sizing Information, Coil:Heating:Water, COIL HEATING WATER 1, Design Size U-Factor Times Area Value [W/K], 1515.87533
! <Water Heating Coil Capacity Information>,Component Type,Name,Nominal Total Capacity {W}
Water Heating Coil Capacity Information,Coil:Heating:Water,COIL HEATING WATER 1,53657.33
 Component Sizing Information, Fan:ConstantVolume, FAN CONSTANT VOLUME 1, Design Size Maximum Flow Rate [m3/s], 1.04775
 Component Sizing Information, Controller:WaterCoil, CONTROLLER WATER COIL 1, Maximum Actuated Flow [m3/s], 1.43539E-003
 Component Sizing Information, Controller:OutdoorAir, CONTROLLER OUTDOOR AIR 2, Maximum Outdoor Air Flow Rate [m3/s], 1.04775
 Component Sizing Information, Controller:OutdoorAir, CONTROLLER OUTDOOR AIR 2, Minimum Outdoor Air Flow Rate [m3/s], 1.04775
 Component Sizing Information, Coil:Cooling:DX:SingleSpeed, COIL COOLING DX SINGLE SPEED 3 59KBTU/HR 14.0SEER, Design Size Rated Air Flow Rate [m3/s], 1.04775
 Component Sizing Information, Coil:Cooling:DX:SingleSpeed, COIL COOLING DX SINGLE SPEED 3 59KBTU/HR 14.0SEER, Design Size Gross Rated Total Cooling Capacity [W], 17343.98278
 Component Sizing Information, Coil:Cooling:DX:SingleSpeed, COIL COOLING DX SINGLE SPEED 3 59KBTU/HR 14.0SEER, Design Size Gross Rated Sensible Heat Ratio, 0.80066
 DX Cooling Coil Standard Rating Information, Coil:Cooling:DX:SingleSpeed, COIL COOLING DX SINGLE SPEED 3 59KBTU/HR 14.0SEER, 16529.5, 3.09, 10.55, 11.12, 10.40
 Component Sizing Information, Coil:Heating:Water, COIL HEATING WATER 2, Design Size Rated Capacity [W], 96103.89061
 Component Sizing Information, Coil:Heating:Water, COIL HEATING WATER 2, Design Size Maximum Water Flow Rate [m3/s], 1.43539E-003
 Component Sizing Information, Coil:Heating:Water, COIL HEATING WATER 2, Design Size U-Factor Times Area Value [W/K], 1515.87533
Water Heating Coil Capacity Information,Coil:Heating:Water,COIL HEATING WATER 2,53657.33
 Component Sizing Information, Fan:ConstantVolume, FAN CONSTANT VOLUME 3, Design Size Maximum Flow Rate [m3/s], 1.04775
 Component Sizing Information, Controller:WaterCoil, CONTROLLER WATER COIL 2, Maximum Actuated Flow [m3/s], 1.43539E-003
 Component Sizing Information, Controller:OutdoorAir, CONTROLLER OUTDOOR AIR 4, Maximum Outdoor Air Flow Rate [m3/s], 6.71513
 Component Sizing Information, Controller:OutdoorAir, CONTROLLER OUTDOOR AIR 4, Minimum Outdoor Air Flow Rate [m3/s], 6.71513
 Component Sizing Information, HeatExchanger:AirToAir:SensibleAndLatent, SYS_3_PSZ ALL_ST=HOTEL/MOTEL - DINING_FL=STORY 4_SCH=B ERV, Design Size Nominal Supply Air Flow Rate [m3/s], 6.71513
 Component Sizing Information, Coil:Cooling:DX:SingleSpeed, COIL COOLING DX SINGLE SPEED 6 420KBTU/HR 8.21EER, Design Size Rated Air Flow Rate [m3/s], 6.71513
 Component Sizing Information, Coil:Cooling:DX:SingleSpeed, COIL COOLING DX SINGLE SPEED 6 420KBTU/HR 8.21EER, Design Size Gross Rated Total Cooling Capacity [W], 131518.55776
 Component Sizing Information, Coil:Cooling:DX:SingleSpeed, COIL COOLING DX SINGLE SPEED 6 420KBTU/HR 8.21EER, Design Size Gross Rated Sensible Heat Ratio, 0.78074
 DX Cooling Coil Standard Rating Information, Coil:Cooling:DX:SingleSpeed, COIL COOLING DX SINGLE SPEED 6 420KBTU/HR 8.21EER, 126293.8, 2.61, 8.91, 9.42, 9.09
 Component Sizing Information, Coil:Heating:Fuel, COIL HEATING GAS 2, Design Size Nominal Capacity [W], 615938.57163
 Component Sizing Information, Fan:ConstantVolume, FAN CONSTANT VOLUME 6, Design Size Maximum Flow Rate [m3/s], 6.71513
 Component Sizing Information, Controller:OutdoorAir, CONTROLLER OUTDOOR AIR 5, Maximum Outdoor Air Flow Rate [m3/s], 2.73947
 Component Sizing Information, Controller:OutdoorAir, CONTROLLER OUTDOOR AIR 5, Minimum Outdoor Air Flow Rate [m3/s], 2.71463
 Component Sizing Information, HeatExchanger:AirToAir:SensibleAndLatent, SYS_3_PSZ ALL_ST=HOTEL/MOTEL - LOBBY_FL=STORY 1_SCH=H ERV, Design Size Nominal Supply Air Flow Rate [m3/s], 2.71463
 Component Sizing Information, Coil:Cooling:DX:SingleSpeed, COIL COOLING DX SINGLE SPEED 7 155KBTU/HR 9.7EER, Design Size Rated Air Flow Rate [m3/s], 2.73947
 Component Sizing Information, Coil:Cooling:DX:SingleSpeed, COIL COOLING DX SINGLE SPEED 7 155KBTU/HR 9.7EER, Design Size Gross Rated Total Cooling Capacity [W], 45347.96368
 Component Sizing Information, Coil:Cooling:DX:SingleSpeed, COIL COOLING DX SINGLE SPEED 7 155KBTU/HR 9.7EER, Design Size Gross Rated Sensible Heat Ratio, 0.80066
 DX Cooling Coil Standard Rating Information, Coil:Cooling:DX:SingleSpeed, COIL COOLING DX SINGLE SPEED 7 155KBTU/HR 9.7EER, 43218.5, 2.79, 9.53, 10.06, 9.50
 Component Sizing Information, Coil:Heating:Fuel, COIL HEATING GAS 3, Design Size Nominal Capacity [W], 249600.70533
 Component Sizing Information, Fan:ConstantVolume, FAN CONSTANT VOLUME 7, Design Size Maximum Flow Rate [m3/s], 2.73947
 Component Sizing Information, Controller:OutdoorAir, CONTROLLER OUTDOOR AIR 6, Maximum Outdoor Air Flow Rate [m3/s], 6.71513
 Component Sizing Information, Controller:OutdoorAir, CONTROLLER OUTDOOR AIR 6, Minimum Outdoor Air Flow Rate [m3/s], 6.71513
 Component Sizing Information, HeatExchanger:AirToAir:SensibleAndLatent, SYS_3_PSZ ALL_ST=HWAY LODGING - DINING_FL=STORY 3_SCH=B ERV, Design Size Nominal Supply Air Flow Rate [m3/s], 6.71513
 Component Sizing Information, Coil:Cooling:DX:SingleSpeed, COIL COOLING DX SINGLE SPEED 8 379KBTU/HR 8.21EER, Design Size Rated Air Flow Rate [m3/s], 6.71513
 Component Sizing Information, Coil:Cooling:DX:SingleSpeed, COIL COOLING DX SINGLE SPEED 8 379KBTU/HR 8.21EER, Design Size Gross Rated Total Cooling Capacity [W], 111159.16239
 Component Sizing Information, Coil:Cooling:DX:SingleSpeed, COIL COOLING DX SINGLE SPEED 8 379KBTU/HR 8.21EER, Design Size Gross Rated Sensible Heat Ratio, 0.80066
 DX Cooling Coil Standard Rating Information, Coil:Cooling:DX:SingleSpeed, COIL COOLING DX SINGLE SPEED 8 379KBTU/HR 8.21EER, 105939.4, 2.52, 8.61, 9.09, 8.67
 Component Sizing Information, Coil:Heating:Fuel, COIL HEATING GAS 4, Design Size Nominal Capacity [W], 615938.57163
 Component Sizing Information, Fan:ConstantVolume, FAN CONSTANT VOLUME 8, Design Size Maximum Flow Rate [m3/s], 6.71513
 Component Sizing Information, Controller:OutdoorAir, CONTROLLER OUTDOOR AIR 7, Maximum Outdoor Air Flow Rate [m3/s], 5.46100
 Component Sizing Information, Controller:OutdoorAir, CONTROLLER OUTDOOR AIR 7, Minimum Outdoor Air Flow Rate [m3/s], 5.46100
 Component Sizing Information, HeatExchanger:AirToAir:SensibleAndLatent, SYS_3_PSZ ALL_ST=LAB - CLASSROOMS_FL=STORY 2_SCH=D ERV, Design Size Nominal Supply Air Flow Rate [m3/s], 5.46100
 Component Sizing Information, Coil:Cooling:DX:SingleSpeed, COIL COOLING DX SINGLE SPEED 9 336KBTU/HR 8.21EER, Design Size Rated Air Flow Rate [m3/s], 5.46100
 Component Sizing Information, Coil:Cooling:DX:SingleSpeed, COIL COOLING DX SINGLE SPEED 9 336KBTU/HR 8.21EER, Design Size Gross Rated Total Cooling Capacity [W], 105525.11995
 Component Sizing Information, Coil:Cooling:DX:SingleSpeed, COIL COOLING DX SINGLE SPEED 9 336KBTU/HR 8.21EER, Design Size Gross Rated Sensible Heat Ratio, 0.78595
 DX Cooling Coil Standard Rating Information, Coil:Cooling:DX:SingleSpeed, COIL COOLING DX SINGLE SPEED 9 336KBTU/HR 8.21EER, 101276.5, 2.56, 8.75, 9.25, 8.93
 Component Sizing Information, Coil:Heating:Fuel, COIL HEATING GAS 5, Design Size Nominal Capacity [W], 500905.12681
 Component Sizing Information, Fan:ConstantVolume, FAN CONSTANT VOLUME 9, Design Size Maximum Flow Rate [m3/s], 5.46100
 Component Sizing Information, Controller:OutdoorAir, CONTROLLER OUTDOOR AIR 3, Maximum Outdoor Air Flow Rate [m3/s], 48.84361
 Component Sizing Information, Controller:OutdoorAir, CONTROLLER OUTDOOR AIR 3, Minimum Outdoor Air Flow Rate [m3/s], 21.43125
 Component Sizing Information, HeatExchanger:AirToAir:SensibleAndLatent, SYS_4_PSZ_WILD_ST=HOSPITAL CORR. < 2.4M-SCH-E_FL=STORY 4_SCH=B ERV, Design Size Nominal Supply Air Flow Rate [m3/s], 21.43125
 Component Sizing Information, Coil:Cooling:DX:SingleSpeed, COIL COOLING DX SINGLE SPEED 5 2759KBTU/HR 7.94EER, Design Size Rated Air Flow Rate [m3/s], 48.84361
 Component Sizing Information, Coil:Cooling:DX:SingleSpeed, COIL COOLING DX SINGLE SPEED 5 2759KBTU/HR 7.94EER, Design Size Gross Rated Total Cooling Capacity [W], 808535.10205
 Component Sizing Information, Coil:Cooling:DX:SingleSpeed, COIL COOLING DX SINGLE SPEED 5 2759KBTU/HR 7.94EER, Design Size Gross Rated Sensible Heat Ratio, 0.80066
 DX Cooling Coil Standard Rating Information, Coil:Cooling:DX:SingleSpeed, COIL COOLING DX SINGLE SPEED 5 2759KBTU/HR 7.94EER, 770568.1, 3.48, 11.87, 12.49, 11.53
 Component Sizing Information, Coil:Heating:Fuel, COIL HEATING GAS 1, Design Size Nominal Capacity [W], 2636140.31602
 Component Sizing Information, Fan:ConstantVolume, FAN CONSTANT VOLUME 5, Design Size Maximum Flow Rate [m3/s], 48.84361
Water Heater Information,WaterHeater:Mixed,600GAL NATURALGAS WATER HEATER - 1489KBTU/HR 0.802 THERM EFF,2.2718,436259.4,0.311,0.2503
 Component Sizing Information, PlantLoop, HOT WATER LOOP, Maximum Loop Flow Rate [m3/s], 1.34112E-002
 Component Sizing Information, PlantLoop, HOT WATER LOOP, Plant Loop Volume [m3], 1.60934
 Component Sizing Information, Pump:VariableSpeed, PUMP VARIABLE SPEED 1, Design Flow Rate [m3/s], 1.34112E-002
 Component Sizing Information, Pump:VariableSpeed, PUMP VARIABLE SPEED 1, Design Power Consumption [W], 3445.52037
 Component Sizing Information, Boiler:HotWater, PRIMARY BOILER 3076KBTU/HR 0.833 COMBUSTION EFF, Design Size Nominal Capacity [W], 901395.27062
 Component Sizing Information, Boiler:HotWater, PRIMARY BOILER 3076KBTU/HR 0.833 COMBUSTION EFF, User-Specified Nominal Capacity [W], 901395.27062
 Component Sizing Information, Boiler:HotWater, PRIMARY BOILER 3076KBTU/HR 0.833 COMBUSTION EFF, Design Size Design Water Flow Rate [m3/s], 1.34112E-002
 Component Sizing Information, Boiler:HotWater, SECONDARY BOILER 0KBTU/HR 0.85 AFUE, Design Size Nominal Capacity [W], 901395.27062
 Component Sizing Information, Boiler:HotWater, SECONDARY BOILER 0KBTU/HR 0.85 AFUE, User-Specified Nominal Capacity [W], 1.00000E-003
 Component Sizing Information, Boiler:HotWater, SECONDARY BOILER 0KBTU/HR 0.85 AFUE, Design Size Design Water Flow Rate [m3/s], 1.34112E-002
 Component Sizing Information, PlantLoop, MAIN SERVICE WATER LOOP, Maximum Loop Flow Rate [m3/s], 8.66944E-004
 Component Sizing Information, PlantLoop, MAIN SERVICE WATER LOOP, Plant Loop Volume [m3], 0.10403
 Component Sizing Information, Pump:ConstantSpeed, SERVICE WATER LOOP PUMP, Design Flow Rate [m3/s], 8.66944E-004
 Component Sizing Information, Pump:ConstantSpeed, SERVICE WATER LOOP PUMP, Design Power Consumption [W], 695.96290
 Component Sizing Information, WaterHeater:Mixed, 600GAL NATURALGAS WATER HEATER - 1489KBTU/HR 0.802 THERM EFF, Use Side Design Flow Rate [m3/s], 8.66944E-004
! <Environment>,Environment Name,Environment Type, Start Date, End Date, Start DayOfWeek, Duration {#days}, Source:Start DayOfWeek,  Use Daylight Saving, Use Holidays, Apply Weekend Holiday Rule,  Use Rain Values, Use Snow Values
! <Environment:Special Days>, Special Day Name, Special Day Type, Source, Start Date, Duration {#days}
! <Environment:Daylight Saving>, Daylight Saving Indicator, Source, Start Date, End Date
! <Environment:WarmupDays>, NumberofWarmupDays
Environment,RUN PERIOD 1,WeatherFileRunPeriod,01/01,12/31,Sunday,365,Use RunPeriod Specified Day,No,No,No,Yes,Yes
Environment:Daylight Saving,No,RunPeriod Object
Environment:WarmupDays,  7
! <Tabular Report>,Style,Unit Conversion
Tabular Report,HTML,None
! <Warmup Convergence Information>,Zone Name,Environment Type/Name,Average Warmup Temperature Difference {deltaC},Std Dev Warmup Temperature Difference {deltaC},Max Temperature Pass/Fail Convergence,Min Temperature Pass/Fail Convergence,Average Warmup Load Difference {W},Std Dev Warmup Load Difference {W},Heating Load Pass/Fail Convergence,Cooling Load Pass/Fail Convergence
 Warmup Convergence Information,ALL_ST=HOTEL/MOTEL - DINING_FL=STORY 4_SCH=B,RunPeriod: RUN PERIOD 1,8.7810749885E-002,0.2630705653,Pass,Pass,0.2664287528,0.6193202717,Pass,Pass
 Warmup Convergence Information,ALL_ST=HOTEL/MOTEL - LOBBY_FL=STORY 1_SCH=H,RunPeriod: RUN PERIOD 1,2.1995563957E-003,1.2077775765E-003,Pass,Pass,2.8363743176E-004,4.7691133520E-004,Pass,Pass
 Warmup Convergence Information,ALL_ST=HWAY LODGING - DINING_FL=STORY 3_SCH=B,RunPeriod: RUN PERIOD 1,3.6590291965E-002,0.1226129680,Pass,Pass,7.5560816555E-002,0.4884636073,Pass,Pass
 Warmup Convergence Information,ALL_ST=LAB - CLASSROOMS_FL=STORY 2_SCH=D,RunPeriod: RUN PERIOD 1,4.0054846524E-003,2.2366090785E-003,Pass,Pass,0.0000000000,0.0000000000,Pass,Pass
 Warmup Convergence Information,DU_BT=SPACE FUNCTION_ST=HOTEL/MOTEL - ROOMS_FL=STORY 2_SCHF,RunPeriod: RUN PERIOD 1,1.5333334883E-002,2.5333195221E-002,Pass,Pass,6.3644674577E-002,0.1111149539,Pass,Pass
 Warmup Convergence Information,DU_BT=SPACE FUNCTION_ST=HWAY LODGING - ROOMS_FL=STORY 2_SCHF,RunPeriod: RUN PERIOD 1,9.2756493992E-003,2.5085073425E-002,Pass,Pass,5.1086365597E-002,7.0443276443E-002,Pass,Pass
 Warmup Convergence Information,WILD_ST=HOSPITAL CORR. < 2.4M-SCH-E_FL=STORY 4_SCH=B,RunPeriod: RUN PERIOD 1,0.1167033721,0.3797779996,Pass,Pass,0.1095098930,0.2746704219,Pass,Pass
 Warmup Convergence Information,WILD_ST=HOSPITAL CORR. < 2.4M-SCH-F_FL=STORY 4_SCH=B,RunPeriod: RUN PERIOD 1,0.1467717639,0.4399135826,Pass,Pass,0.1472894170,0.4286361946,Pass,Pass
 Warmup Convergence Information,WILD_ST=HOSPITAL CORR. < 2.4M-SCH-G_FL=STORY 4_SCH=B,RunPeriod: RUN PERIOD 1,0.1156419832,0.4242875232,Pass,Pass,9.9818978321E-002,0.2807993327,Pass,Pass
 Warmup Convergence Information,WILD_ST=HOSPITAL CORR. < 2.4M-SCH-H_FL=STORY 4_SCH=B,RunPeriod: RUN PERIOD 1,0.1130299509,0.4226207892,Pass,Pass,0.1251260736,0.4887214960,Pass,Pass
 Warmup Convergence Information,WILD_ST=HOSPITAL CORR. < 2.4M-SCH-I_FL=STORY 3_SCH=B,RunPeriod: RUN PERIOD 1,7.3781747727E-002,0.1346599040,Pass,Pass,0.2873609046,1.0644970114,Pass,Pass
 Warmup Convergence Information,WILD_ST=HOSPITAL CORR. >= 2.4M-SCH-A_FL=STORY 3_SCH=B,RunPeriod: RUN PERIOD 1,7.1830027849E-002,0.1574830091,Pass,Pass,0.3770632996,1.8583479858,Pass,Pass
 Warmup Convergence Information,WILD_ST=HOSPITAL CORR. >= 2.4M-SCH-B_FL=STORY 1_SCH=B,RunPeriod: RUN PERIOD 1,3.6899376710E-002,5.9738114353E-002,Pass,Pass,0.1228893166,0.4459296340,Pass,Pass
 Warmup Convergence Information,WILD_ST=HOSPITAL CORR. >= 2.4M-SCH-C_FL=STORY 3_SCH=B,RunPeriod: RUN PERIOD 1,4.5370991450E-002,7.7131482959E-002,Pass,Pass,0.4268505062,3.6777994433,Pass,Pass
 Warmup Convergence Information,WILD_ST=HOSPITAL CORR. >= 2.4M-SCH-D_FL=STORY 3_SCH=B,RunPeriod: RUN PERIOD 1,7.0272381841E-002,0.1526759150,Pass,Pass,0.3511788298,1.4758209102,Pass,Pass
 Warmup Convergence Information,WILD_ST=HOSPITAL CORR. >= 2.4M-SCH-E_FL=STORY 2_SCH=B,RunPeriod: RUN PERIOD 1,4.1298563336E-002,8.0610641923E-002,Pass,Pass,0.4616422639,2.9706935841,Pass,Pass
 Warmup Convergence Information,WILD_ST=HOSPITAL CORR. >= 2.4M-SCH-F_FL=STORY 1_SCH=B,RunPeriod: RUN PERIOD 1,3.6423252734E-002,5.9461949132E-002,Pass,Pass,0.1182463921,0.4699464391,Pass,Pass
 Warmup Convergence Information,WILD_ST=HOSPITAL CORR. >= 2.4M-SCH-G_FL=STORY 1_SCH=B,RunPeriod: RUN PERIOD 1,3.6914193754E-002,5.7284630203E-002,Pass,Pass,0.1558624072,0.8506343409,Pass,Pass
 Warmup Convergence Information,WILD_ST=HOSPITAL CORR. >= 2.4M-SCH-H_FL=STORY 1_SCH=B,RunPeriod: RUN PERIOD 1,3.5012450168E-002,5.8105488171E-002,Pass,Pass,0.1438992346,0.7492812721,Pass,Pass
 Warmup Convergence Information,WILD_ST=HOSPITAL CORR. >= 2.4M-SCH-I_FL=STORY 2_SCH=B,RunPeriod: RUN PERIOD 1,5.6702335339E-002,0.1250610559,Pass,Pass,0.2124400969,0.7083396155,Pass,Pass
! <Program Control Information:Threads/Parallel Sims>, Threading Supported,Maximum Number of Threads, Env Set Threads (OMP_NUM_THREADS), EP Env Set Threads (EP_OMP_NUM_THREADS), IDF Set Threads, Number of Threads Used (Interior Radiant Exchange), Number Nominal Surfaces, Number Parallel Sims
Program Control:Threads/Parallel Sims, No,1, N/A, N/A, N/A, N/A, N/A, N/A
End of Data
