Program Version,EnergyPlus, Version 8.9.0-eba93e8e1b, YMD=2019.04.04 17:59
! This file shows details about the branches, nodes, and other
! elements of the flow connections.
! This file is intended for use in "debugging" potential problems
! that may also be detected by the program, but may be more easily
! identified by "eye".
! This file is also intended to support software which draws a
! schematic diagram of the HVAC system.
! ===============================================================
! #Nodes,<Number of Unique Nodes>
 #Nodes,137
! <Node>,<NodeNumber>,<Node Name>,<Node Fluid Type>,<# Times Node Referenced After Definition>
 Node,1,NODE 56,Air,4
 Node,2,NODE 69,Air,4
 Node,3,NODE 82,Air,4
 Node,4,NODE 31,Air,3
 Node,5,NODE 23,Air,3
 Node,6,NODE 30,Air,3
 Node,7,NODE 48,Air,3
 Node,8,NODE 39,Air,3
 Node,9,NODE 47,Air,3
 Node,10,NODE 20,Air,10
 Node,11,NODE 21,Air,3
 Node,12,NODE 36,Air,10
 Node,13,NODE 37,Air,3
 Node,14,NODE 53,Air,10
 Node,15,NODE 54,Air,3
 Node,16,NODE 66,Air,10
 Node,17,NODE 67,Air,3
 Node,18,NODE 79,Air,10
 Node,19,NODE 80,Air,3
 Node,20,NODE 19,Air,3
 Node,21,NODE 29,Air,6
 Node,22,NODE 28,Air,6
 Node,23,NODE 27,Air,8
 Node,24,NODE 35,Air,3
 Node,25,NODE 46,Air,6
 Node,26,NODE 45,Air,6
 Node,27,NODE 44,Air,8
 Node,28,NODE 52,Air,4
 Node,29,NODE 61,Air,8
 Node,30,NODE 60,Air,6
 Node,31,NODE 59,Air,8
 Node,32,NODE 65,Air,4
 Node,33,NODE 74,Air,8
 Node,34,NODE 73,Air,6
 Node,35,NODE 72,Air,8
 Node,36,NODE 78,Air,4
 Node,37,NODE 87,Air,8
 Node,38,NODE 86,Air,6
 Node,39,NODE 85,Air,8
 Node,40,NODE 2,Water,2
 Node,41,NODE 11,Water,1
 Node,42,NODE 5,Water,1
 Node,43,NODE 12,Water,1
 Node,44,NODE 14,Water,1
 Node,45,NODE 15,Water,1
 Node,46,NODE 16,Water,1
 Node,47,NODE 17,Water,1
 Node,48,NODE 18,Water,1
 Node,49,NODE 3,Water,4
 Node,50,NODE 6,Water,2
 Node,51,HOT WATER LOOP DEMAND INLET PIPE NODE,Water,1
 Node,52,NODE 9,Water,2
 Node,53,NODE 24,Water,1
 Node,54,NODE 32,Water,1
 Node,55,NODE 33,Water,1
 Node,56,NODE 40,Water,2
 Node,57,NODE 41,Water,1
 Node,58,NODE 49,Water,1
 Node,59,NODE 50,Water,1
 Node,60,NODE 63,Water,1
 Node,61,NODE 64,Water,1
 Node,62,NODE 76,Water,1
 Node,63,NODE 77,Water,1
 Node,64,NODE 89,Water,1
 Node,65,NODE 90,Water,1
 Node,66,HOT WATER LOOP DEMAND BYPASS PIPE INLET NODE,Water,1
 Node,67,HOT WATER LOOP DEMAND BYPASS PIPE OUTLET NODE,Water,1
 Node,68,HOT WATER LOOP DEMAND OUTLET PIPE NODE,Water,1
 Node,69,NODE 8,Water,2
 Node,70,NODE 91,Water,2
 Node,71,NODE 97,Water,1
 Node,72,NODE 93,Water,1
 Node,73,NODE 98,Water,1
 Node,74,NODE 99,Water,1
 Node,75,NODE 100,Water,1
 Node,76,NODE 102,Water,1
 Node,77,NODE 92,Water,4
 Node,78,NODE 94,Water,2
 Node,79,NODE 103,Water,1
 Node,80,NODE 96,Water,1
 Node,81,NODE 101,Water,1
 Node,82,NODE 105,Water,1
 Node,83,NODE 106,Water,1
 Node,84,NODE 107,Water,1
 Node,85,NODE 108,Water,1
 Node,86,NODE 109,Water,1
 Node,87,NODE 110,Water,1
 Node,88,NODE 111,Water,1
 Node,89,NODE 112,Water,1
 Node,90,NODE 113,Water,1
 Node,91,NODE 114,Water,1
 Node,92,MAIN SERVICE WATER LOOP DEMAND BYPASS PIPE INLET NODE,Water,1
 Node,93,MAIN SERVICE WATER LOOP DEMAND BYPASS PIPE OUTLET NODE,Water,1
 Node,94,NODE 104,Water,1
 Node,95,NODE 95,Water,2
 Node,96,NODE 7,Air,1
 Node,97,NODE 62,Air,1
 Node,98,NODE 10,Air,1
 Node,99,NODE 75,Air,1
 Node,100,NODE 13,Air,1
 Node,101,NODE 88,Air,1
 Node,102,NODE 1,Air,0
 Node,103,NODE 34,Air,1
 Node,104,NODE 4,Air,0
 Node,105,NODE 51,Air,1
 Node,106,NODE 22,Air,2
 Node,107,NODE 38,Air,2
 Node,108,NODE 55,Air,2
 Node,109,NODE 68,Air,2
 Node,110,NODE 81,Air,2
 Node,111,DU_BT=SPACE FUNCTION_ST=HOTEL/MOTEL - ROOMS_FL=STORY 1_SCHF PTAC OA NODE,Air,1
 Node,112,DU_BT=SPACE FUNCTION_ST=HWAY LODGING - ROOMS_FL=STORY 1_SCHF PTAC OA NODE,Air,1
 Node,113,NODE 25,Air,2
 Node,114,NODE 42,Air,2
 Node,115,NODE 57,Air,3
 Node,116,NODE 70,Air,3
 Node,117,NODE 83,Air,3
 Node,118,MODEL OUTDOOR AIR NODE,Air,0
 Node,119,NODE 116,Air,2
 Node,120,NODE 118,Air,2
 Node,121,NODE 120,Air,2
 Node,122,DU_BT=SPACE FUNCTION_ST=HOTEL/MOTEL - ROOMS_FL=STORY 1_SCHF PTAC MIXED AIR NODE,Air,1
 Node,123,DU_BT=SPACE FUNCTION_ST=HOTEL/MOTEL - ROOMS_FL=STORY 1_SCHF PTAC RELIEF AIR NODE,Air,0
 Node,124,DU_BT=SPACE FUNCTION_ST=HWAY LODGING - ROOMS_FL=STORY 1_SCHF PTAC MIXED AIR NODE,Air,1
 Node,125,DU_BT=SPACE FUNCTION_ST=HWAY LODGING - ROOMS_FL=STORY 1_SCHF PTAC RELIEF AIR NODE,Air,0
 Node,126,NODE 26,Air,1
 Node,127,NODE 43,Air,1
 Node,128,NODE 117,Air,2
 Node,129,NODE 119,Air,2
 Node,130,NODE 121,Air,2
 Node,131,DU_BT=SPACE FUNCTION_ST=HOTEL/MOTEL - ROOMS_FL=STORY 1_SCHF PTAC HEATING COIL OUTLET NODE,Air,1
 Node,132,DU_BT=SPACE FUNCTION_ST=HWAY LODGING - ROOMS_FL=STORY 1_SCHF PTAC HEATING COIL OUTLET NODE,Air,1
 Node,133,DU_BT=SPACE FUNCTION_ST=HOTEL/MOTEL - ROOMS_FL=STORY 1_SCHF PTAC COOLING COIL OUTLET NODE,Air,1
 Node,134,DU_BT=SPACE FUNCTION_ST=HWAY LODGING - ROOMS_FL=STORY 1_SCHF PTAC COOLING COIL OUTLET NODE,Air,1
 Node,135,NODE 58,Air,0
 Node,136,NODE 71,Air,0
 Node,137,NODE 84,Air,0
! ===============================================================
! Suspicious nodes have 0 references.  It is normal for some nodes, however.
! Listing nodes with 0 references (culled from previous list):
! <Suspicious Node>,<NodeNumber>,<Node Name>,<Node Fluid Type>,<# Times Node Referenced After Definition>
 Suspicious Node,102,NODE 1,Air,0
 Suspicious Node,104,NODE 4,Air,0
 Suspicious Node,118,MODEL OUTDOOR AIR NODE,Air,0
 Suspicious Node,123,DU_BT=SPACE FUNCTION_ST=HOTEL/MOTEL - ROOMS_FL=STORY 1_SCHF PTAC RELIEF AIR NODE,Air,0
 Suspicious Node,125,DU_BT=SPACE FUNCTION_ST=HWAY LODGING - ROOMS_FL=STORY 1_SCHF PTAC RELIEF AIR NODE,Air,0
 Suspicious Node,135,NODE 58,Air,0
 Suspicious Node,136,NODE 71,Air,0
 Suspicious Node,137,NODE 84,Air,0
! ===============================================================
! <#Branch Lists>,<Number of Branch Lists>
 #Branch Lists,9
! <Branch List>,<Branch List Count>,<Branch List Name>,<Loop Name>,<Loop Type>,<Number of Branches>
! <Branch>,<Branch Count>,<Branch Name>,<Loop Name>,<Loop Type>,<Branch Inlet Node Name>,<Branch Outlet Node Name>
 Branch List,1,SYS_1_MAKE-UP AIR UNIT SUPPLY BRANCHES,SYS_1_MAKE-UP AIR UNIT,Air,1
   Branch,1,SYS_1_MAKE-UP AIR UNIT MAIN BRANCH,SYS_1_MAKE-UP AIR UNIT,Air,NODE 19,NODE 20
 Branch List,2,SYS_1_MAKE-UP AIR UNIT 1 SUPPLY BRANCHES,SYS_1_MAKE-UP AIR UNIT 1,Air,1
   Branch,1,SYS_1_MAKE-UP AIR UNIT 1 MAIN BRANCH,SYS_1_MAKE-UP AIR UNIT 1,Air,NODE 35,NODE 36
 Branch List,3,SYS_3_PSZ ALL_ST=HOTEL/MOTEL - LOBBY_FL=STORY 1_SCH=H SUPPLY BRANCHES,SYS_3_PSZ ALL_ST=HOTEL/MOTEL - LOBBY_FL=STORY 1_SCH=H,Air,1
   Branch,1,SYS_3_PSZ ALL_ST=HOTEL/MOTEL - LOBBY_FL=STORY 1_SCH=H MAIN BRANCH,SYS_3_PSZ ALL_ST=HOTEL/MOTEL - LOBBY_FL=STORY 1_SCH=H,Air,NODE 52,NODE 53
 Branch List,4,SYS_3_PSZ ALL_ST=HWAY LODGING - DINING_FL=STORY 1_SCH=B SUPPLY BRANCHES,SYS_3_PSZ ALL_ST=HWAY LODGING - DINING_FL=STORY 1_SCH=B,Air,1
   Branch,1,SYS_3_PSZ ALL_ST=HWAY LODGING - DINING_FL=STORY 1_SCH=B MAIN BRANCH,SYS_3_PSZ ALL_ST=HWAY LODGING - DINING_FL=STORY 1_SCH=B,Air,NODE 65,NODE 66
 Branch List,5,SYS_3_PSZ ALL_ST=LAB - CLASSROOMS_FL=STORY 1_SCH=D SUPPLY BRANCHES,SYS_3_PSZ ALL_ST=LAB - CLASSROOMS_FL=STORY 1_SCH=D,Air,1
   Branch,1,SYS_3_PSZ ALL_ST=LAB - CLASSROOMS_FL=STORY 1_SCH=D MAIN BRANCH,SYS_3_PSZ ALL_ST=LAB - CLASSROOMS_FL=STORY 1_SCH=D,Air,NODE 78,NODE 79
 Branch List,6,HOT WATER LOOP SUPPLY BRANCHES,HOT WATER LOOP,Plant Supply,5
   Branch,1,HOT WATER LOOP SUPPLY INLET BRANCH,HOT WATER LOOP,Plant Supply,NODE 2,NODE 11
   Branch,2,HOT WATER LOOP SUPPLY BRANCH 1,HOT WATER LOOP,Plant Supply,NODE 5,NODE 12
   Branch,3,HOT WATER LOOP SUPPLY BRANCH 2,HOT WATER LOOP,Plant Supply,NODE 14,NODE 15
   Branch,4,HOT WATER LOOP SUPPLY BRANCH 3,HOT WATER LOOP,Plant Supply,NODE 16,NODE 17
   Branch,5,HOT WATER LOOP SUPPLY OUTLET BRANCH,HOT WATER LOOP,Plant Supply,NODE 18,NODE 3
 Branch List,7,HOT WATER LOOP DEMAND BRANCHES,HOT WATER LOOP,Plant Demand,10
   Branch,1,HOT WATER LOOP DEMAND INLET BRANCH,HOT WATER LOOP,Plant Demand,NODE 6,HOT WATER LOOP DEMAND INLET PIPE NODE
   Branch,2,HOT WATER LOOP DEMAND BRANCH 1,HOT WATER LOOP,Plant Demand,NODE 9,NODE 24
   Branch,3,HOT WATER LOOP DEMAND BRANCH 2,HOT WATER LOOP,Plant Demand,NODE 32,NODE 33
   Branch,4,HOT WATER LOOP DEMAND BRANCH 3,HOT WATER LOOP,Plant Demand,NODE 40,NODE 41
   Branch,5,HOT WATER LOOP DEMAND BRANCH 4,HOT WATER LOOP,Plant Demand,NODE 49,NODE 50
   Branch,6,HOT WATER LOOP DEMAND BRANCH 5,HOT WATER LOOP,Plant Demand,NODE 63,NODE 64
   Branch,7,HOT WATER LOOP DEMAND BRANCH 6,HOT WATER LOOP,Plant Demand,NODE 76,NODE 77
   Branch,8,HOT WATER LOOP DEMAND BRANCH 7,HOT WATER LOOP,Plant Demand,NODE 89,NODE 90
   Branch,9,HOT WATER LOOP DEMAND BYPASS BRANCH,HOT WATER LOOP,Plant Demand,HOT WATER LOOP DEMAND BYPASS PIPE INLET NODE,HOT WATER LOOP DEMAND BYPASS PIPE OUTLET NODE
   Branch,10,HOT WATER LOOP DEMAND OUTLET BRANCH,HOT WATER LOOP,Plant Demand,HOT WATER LOOP DEMAND OUTLET PIPE NODE,NODE 8
 Branch List,8,MAIN SERVICE WATER LOOP SUPPLY BRANCHES,MAIN SERVICE WATER LOOP,Plant Supply,4
   Branch,1,MAIN SERVICE WATER LOOP SUPPLY INLET BRANCH,MAIN SERVICE WATER LOOP,Plant Supply,NODE 91,NODE 97
   Branch,2,MAIN SERVICE WATER LOOP SUPPLY BRANCH 1,MAIN SERVICE WATER LOOP,Plant Supply,NODE 93,NODE 98
   Branch,3,MAIN SERVICE WATER LOOP SUPPLY BRANCH 2,MAIN SERVICE WATER LOOP,Plant Supply,NODE 99,NODE 100
   Branch,4,MAIN SERVICE WATER LOOP SUPPLY OUTLET BRANCH,MAIN SERVICE WATER LOOP,Plant Supply,NODE 102,NODE 92
 Branch List,9,MAIN SERVICE WATER LOOP DEMAND BRANCHES,MAIN SERVICE WATER LOOP,Plant Demand,9
   Branch,1,MAIN SERVICE WATER LOOP DEMAND INLET BRANCH,MAIN SERVICE WATER LOOP,Plant Demand,NODE 94,NODE 103
   Branch,2,MAIN SERVICE WATER LOOP DEMAND BRANCH 1,MAIN SERVICE WATER LOOP,Plant Demand,NODE 96,NODE 101
   Branch,3,MAIN SERVICE WATER LOOP DEMAND BRANCH 2,MAIN SERVICE WATER LOOP,Plant Demand,NODE 105,NODE 106
   Branch,4,MAIN SERVICE WATER LOOP DEMAND BRANCH 3,MAIN SERVICE WATER LOOP,Plant Demand,NODE 107,NODE 108
   Branch,5,MAIN SERVICE WATER LOOP DEMAND BRANCH 4,MAIN SERVICE WATER LOOP,Plant Demand,NODE 109,NODE 110
   Branch,6,MAIN SERVICE WATER LOOP DEMAND BRANCH 5,MAIN SERVICE WATER LOOP,Plant Demand,NODE 111,NODE 112
   Branch,7,MAIN SERVICE WATER LOOP DEMAND BRANCH 6,MAIN SERVICE WATER LOOP,Plant Demand,NODE 113,NODE 114
   Branch,8,MAIN SERVICE WATER LOOP DEMAND BYPASS BRANCH,MAIN SERVICE WATER LOOP,Plant Demand,MAIN SERVICE WATER LOOP DEMAND BYPASS PIPE INLET NODE,MAIN SERVICE WATER LOOP DEMAND BYPASS PIPE OUTLET NODE
   Branch,9,MAIN SERVICE WATER LOOP DEMAND OUTLET BRANCH,MAIN SERVICE WATER LOOP,Plant Demand,NODE 104,NODE 95
! ===============================================================
! <#Supply Air Paths>,<Number of Supply Air Paths>
 #Supply Air Paths,5
! <Supply Air Path>,<Supply Air Path Count>,<Supply Air Path Name>,<AirLoopHVAC Name>
! <#Components on Supply Air Path>,<Number of Components>
! <Supply Air Path Component>,<Component Count>,<Component Type>,<Component Name>,<AirLoopHVAC Name>
! <#Outlet Nodes on Supply Air Path Component>,<Number of Nodes>
! <Supply Air Path Component Nodes>,<Node Count>,<Component Type>,<Component Name>,<Inlet Node Name>,<Outlet Node Name>,<AirLoopHVAC Name>
 Supply Air Path,1,SYS_1_MAKE-UP AIR UNIT NODE 21 SUPPLY PATH,SYS_1_MAKE-UP AIR UNIT
   #Components on Supply Air Path,1
   Supply Air Path Component,1,AIRLOOPHVAC:ZONESPLITTER,AIR LOOP HVAC ZONE SPLITTER 1,SYS_1_MAKE-UP AIR UNIT
     #Outlet Nodes on Supply Air Path Component,1
     Supply Air Path Component Nodes,1,AIRLOOPHVAC:ZONESPLITTER,AIR LOOP HVAC ZONE SPLITTER 1,NODE 21,NODE 23,SYS_1_MAKE-UP AIR UNIT
! <#Nodes on Supply Air Path>,<Number of Nodes>
! <Supply Air Path Node>,<Node Type>,<Node Count>,<Node Name>,<AirLoopHVAC Name>
#Nodes on Supply Air Path,2
   Supply Air Path Node,Inlet Node,1,NODE 21,SYS_1_MAKE-UP AIR UNIT
   Supply Air Path Node,Outlet Node,2,NODE 23,SYS_1_MAKE-UP AIR UNIT
 Supply Air Path,2,SYS_1_MAKE-UP AIR UNIT 1 NODE 37 SUPPLY PATH,SYS_1_MAKE-UP AIR UNIT 1
   #Components on Supply Air Path,1
   Supply Air Path Component,1,AIRLOOPHVAC:ZONESPLITTER,AIR LOOP HVAC ZONE SPLITTER 2,SYS_1_MAKE-UP AIR UNIT 1
     #Outlet Nodes on Supply Air Path Component,1
     Supply Air Path Component Nodes,1,AIRLOOPHVAC:ZONESPLITTER,AIR LOOP HVAC ZONE SPLITTER 2,NODE 37,NODE 39,SYS_1_MAKE-UP AIR UNIT 1
! <#Nodes on Supply Air Path>,<Number of Nodes>
! <Supply Air Path Node>,<Node Type>,<Node Count>,<Node Name>,<AirLoopHVAC Name>
#Nodes on Supply Air Path,2
   Supply Air Path Node,Inlet Node,1,NODE 37,SYS_1_MAKE-UP AIR UNIT 1
   Supply Air Path Node,Outlet Node,2,NODE 39,SYS_1_MAKE-UP AIR UNIT 1
 Supply Air Path,3,SYS_3_PSZ ALL_ST=HOTEL/MOTEL - LOBBY_FL=STORY 1_SCH=H NODE 54 SUPPLY PATH,SYS_3_PSZ ALL_ST=HOTEL/MOTEL - LOBBY_FL=STORY 1_SCH=H
   #Components on Supply Air Path,1
   Supply Air Path Component,1,AIRLOOPHVAC:ZONESPLITTER,AIR LOOP HVAC ZONE SPLITTER 3,SYS_3_PSZ ALL_ST=HOTEL/MOTEL - LOBBY_FL=STORY 1_SCH=H
     #Outlet Nodes on Supply Air Path Component,1
     Supply Air Path Component Nodes,1,AIRLOOPHVAC:ZONESPLITTER,AIR LOOP HVAC ZONE SPLITTER 3,NODE 54,NODE 56,SYS_3_PSZ ALL_ST=HOTEL/MOTEL - LOBBY_FL=STORY 1_SCH=H
! <#Nodes on Supply Air Path>,<Number of Nodes>
! <Supply Air Path Node>,<Node Type>,<Node Count>,<Node Name>,<AirLoopHVAC Name>
#Nodes on Supply Air Path,2
   Supply Air Path Node,Inlet Node,1,NODE 54,SYS_3_PSZ ALL_ST=HOTEL/MOTEL - LOBBY_FL=STORY 1_SCH=H
   Supply Air Path Node,Outlet Node,2,NODE 56,SYS_3_PSZ ALL_ST=HOTEL/MOTEL - LOBBY_FL=STORY 1_SCH=H
 Supply Air Path,4,SYS_3_PSZ ALL_ST=HWAY LODGING - DINING_FL=STORY 1_SCH=B NODE 67 SUPPLY PATH,SYS_3_PSZ ALL_ST=HWAY LODGING - DINING_FL=STORY 1_SCH=B
   #Components on Supply Air Path,1
   Supply Air Path Component,1,AIRLOOPHVAC:ZONESPLITTER,AIR LOOP HVAC ZONE SPLITTER 4,SYS_3_PSZ ALL_ST=HWAY LODGING - DINING_FL=STORY 1_SCH=B
     #Outlet Nodes on Supply Air Path Component,1
     Supply Air Path Component Nodes,1,AIRLOOPHVAC:ZONESPLITTER,AIR LOOP HVAC ZONE SPLITTER 4,NODE 67,NODE 69,SYS_3_PSZ ALL_ST=HWAY LODGING - DINING_FL=STORY 1_SCH=B
! <#Nodes on Supply Air Path>,<Number of Nodes>
! <Supply Air Path Node>,<Node Type>,<Node Count>,<Node Name>,<AirLoopHVAC Name>
#Nodes on Supply Air Path,2
   Supply Air Path Node,Inlet Node,1,NODE 67,SYS_3_PSZ ALL_ST=HWAY LODGING - DINING_FL=STORY 1_SCH=B
   Supply Air Path Node,Outlet Node,2,NODE 69,SYS_3_PSZ ALL_ST=HWAY LODGING - DINING_FL=STORY 1_SCH=B
 Supply Air Path,5,SYS_3_PSZ ALL_ST=LAB - CLASSROOMS_FL=STORY 1_SCH=D NODE 80 SUPPLY PATH,SYS_3_PSZ ALL_ST=LAB - CLASSROOMS_FL=STORY 1_SCH=D
   #Components on Supply Air Path,1
   Supply Air Path Component,1,AIRLOOPHVAC:ZONESPLITTER,AIR LOOP HVAC ZONE SPLITTER 5,SYS_3_PSZ ALL_ST=LAB - CLASSROOMS_FL=STORY 1_SCH=D
     #Outlet Nodes on Supply Air Path Component,1
     Supply Air Path Component Nodes,1,AIRLOOPHVAC:ZONESPLITTER,AIR LOOP HVAC ZONE SPLITTER 5,NODE 80,NODE 82,SYS_3_PSZ ALL_ST=LAB - CLASSROOMS_FL=STORY 1_SCH=D
! <#Nodes on Supply Air Path>,<Number of Nodes>
! <Supply Air Path Node>,<Node Type>,<Node Count>,<Node Name>,<AirLoopHVAC Name>
#Nodes on Supply Air Path,2
   Supply Air Path Node,Inlet Node,1,NODE 80,SYS_3_PSZ ALL_ST=LAB - CLASSROOMS_FL=STORY 1_SCH=D
   Supply Air Path Node,Outlet Node,2,NODE 82,SYS_3_PSZ ALL_ST=LAB - CLASSROOMS_FL=STORY 1_SCH=D
! ===============================================================
! <#Return Air Paths>,<Number of Return Air Paths>
 #Return Air Paths,5
! <Return Air Path>,<Return Air Path Count>,<Return Air Path Name>,<AirLoopHVAC Name>
! <#Components on Return Air Path>,<Number of Components>
! <Return Air Path Component>,<Component Count>,<Component Type>,<Component Name>,<AirLoopHVAC Name>
! <#Inlet Nodes on Return Air Path Component>,<Number of Nodes>
! <Return Air Path Component Nodes>,<Node Count>,<Component Type>,<Component Name>,<Inlet Node Name>,<Outlet Node Name>,<AirLoopHVAC Name>
 Return Air Path,1,SYS_1_MAKE-UP AIR UNIT RETURN PATH,SYS_1_MAKE-UP AIR UNIT
   #Components on Return Air Path,1
   Return Air Path Component,1,AIRLOOPHVAC:ZONEMIXER,AIR LOOP HVAC ZONE MIXER 1,SYS_1_MAKE-UP AIR UNIT
     #Inlet Nodes on Return Air Path Component,1
     Return Air Path Component Nodes,1,AIRLOOPHVAC:ZONEMIXER,AIR LOOP HVAC ZONE MIXER 1,NODE 34,NODE 22,SYS_1_MAKE-UP AIR UNIT
! <#Nodes on Return Air Path>,<Number of Nodes>
! <Return Air Path Node>,<Node Type>,<Node Count>,<Node Name>,<AirLoopHVAC Name>
   #Nodes on Return Air Path,2
   Return Air Path Node,Outlet Node,1,NODE 22,SYS_1_MAKE-UP AIR UNIT
   Return Air Path Node,Inlet Node,2,NODE 34,SYS_1_MAKE-UP AIR UNIT
 Return Air Path,2,SYS_1_MAKE-UP AIR UNIT 1 RETURN PATH,SYS_1_MAKE-UP AIR UNIT 1
   #Components on Return Air Path,1
   Return Air Path Component,1,AIRLOOPHVAC:ZONEMIXER,AIR LOOP HVAC ZONE MIXER 2,SYS_1_MAKE-UP AIR UNIT 1
     #Inlet Nodes on Return Air Path Component,1
     Return Air Path Component Nodes,1,AIRLOOPHVAC:ZONEMIXER,AIR LOOP HVAC ZONE MIXER 2,NODE 51,NODE 38,SYS_1_MAKE-UP AIR UNIT 1
! <#Nodes on Return Air Path>,<Number of Nodes>
! <Return Air Path Node>,<Node Type>,<Node Count>,<Node Name>,<AirLoopHVAC Name>
   #Nodes on Return Air Path,2
   Return Air Path Node,Outlet Node,1,NODE 38,SYS_1_MAKE-UP AIR UNIT 1
   Return Air Path Node,Inlet Node,2,NODE 51,SYS_1_MAKE-UP AIR UNIT 1
 Return Air Path,3,SYS_3_PSZ ALL_ST=HOTEL/MOTEL - LOBBY_FL=STORY 1_SCH=H RETURN PATH,SYS_3_PSZ ALL_ST=HOTEL/MOTEL - LOBBY_FL=STORY 1_SCH=H
   #Components on Return Air Path,1
   Return Air Path Component,1,AIRLOOPHVAC:ZONEMIXER,AIR LOOP HVAC ZONE MIXER 3,SYS_3_PSZ ALL_ST=HOTEL/MOTEL - LOBBY_FL=STORY 1_SCH=H
     #Inlet Nodes on Return Air Path Component,1
     Return Air Path Component Nodes,1,AIRLOOPHVAC:ZONEMIXER,AIR LOOP HVAC ZONE MIXER 3,NODE 62,NODE 55,SYS_3_PSZ ALL_ST=HOTEL/MOTEL - LOBBY_FL=STORY 1_SCH=H
! <#Nodes on Return Air Path>,<Number of Nodes>
! <Return Air Path Node>,<Node Type>,<Node Count>,<Node Name>,<AirLoopHVAC Name>
   #Nodes on Return Air Path,2
   Return Air Path Node,Outlet Node,1,NODE 55,SYS_3_PSZ ALL_ST=HOTEL/MOTEL - LOBBY_FL=STORY 1_SCH=H
   Return Air Path Node,Inlet Node,2,NODE 62,SYS_3_PSZ ALL_ST=HOTEL/MOTEL - LOBBY_FL=STORY 1_SCH=H
 Return Air Path,4,SYS_3_PSZ ALL_ST=HWAY LODGING - DINING_FL=STORY 1_SCH=B RETURN PATH,SYS_3_PSZ ALL_ST=HWAY LODGING - DINING_FL=STORY 1_SCH=B
   #Components on Return Air Path,1
   Return Air Path Component,1,AIRLOOPHVAC:ZONEMIXER,AIR LOOP HVAC ZONE MIXER 4,SYS_3_PSZ ALL_ST=HWAY LODGING - DINING_FL=STORY 1_SCH=B
     #Inlet Nodes on Return Air Path Component,1
     Return Air Path Component Nodes,1,AIRLOOPHVAC:ZONEMIXER,AIR LOOP HVAC ZONE MIXER 4,NODE 75,NODE 68,SYS_3_PSZ ALL_ST=HWAY LODGING - DINING_FL=STORY 1_SCH=B
! <#Nodes on Return Air Path>,<Number of Nodes>
! <Return Air Path Node>,<Node Type>,<Node Count>,<Node Name>,<AirLoopHVAC Name>
   #Nodes on Return Air Path,2
   Return Air Path Node,Outlet Node,1,NODE 68,SYS_3_PSZ ALL_ST=HWAY LODGING - DINING_FL=STORY 1_SCH=B
   Return Air Path Node,Inlet Node,2,NODE 75,SYS_3_PSZ ALL_ST=HWAY LODGING - DINING_FL=STORY 1_SCH=B
 Return Air Path,5,SYS_3_PSZ ALL_ST=LAB - CLASSROOMS_FL=STORY 1_SCH=D RETURN PATH,SYS_3_PSZ ALL_ST=LAB - CLASSROOMS_FL=STORY 1_SCH=D
   #Components on Return Air Path,1
   Return Air Path Component,1,AIRLOOPHVAC:ZONEMIXER,AIR LOOP HVAC ZONE MIXER 5,SYS_3_PSZ ALL_ST=LAB - CLASSROOMS_FL=STORY 1_SCH=D
     #Inlet Nodes on Return Air Path Component,1
     Return Air Path Component Nodes,1,AIRLOOPHVAC:ZONEMIXER,AIR LOOP HVAC ZONE MIXER 5,NODE 88,NODE 81,SYS_3_PSZ ALL_ST=LAB - CLASSROOMS_FL=STORY 1_SCH=D
! <#Nodes on Return Air Path>,<Number of Nodes>
! <Return Air Path Node>,<Node Type>,<Node Count>,<Node Name>,<AirLoopHVAC Name>
   #Nodes on Return Air Path,2
   Return Air Path Node,Outlet Node,1,NODE 81,SYS_3_PSZ ALL_ST=LAB - CLASSROOMS_FL=STORY 1_SCH=D
   Return Air Path Node,Inlet Node,2,NODE 88,SYS_3_PSZ ALL_ST=LAB - CLASSROOMS_FL=STORY 1_SCH=D
! ===============================================================
! #Outdoor Air Nodes,<Number of Outdoor Air Nodes>
 #Outdoor Air Nodes,8
! <Outdoor Air Node>,<NodeNumber>,<Node Name>
 Outdoor Air Node,111,DU_BT=SPACE FUNCTION_ST=HOTEL/MOTEL - ROOMS_FL=STORY 1_SCHF PTAC OA NODE
 Outdoor Air Node,112,DU_BT=SPACE FUNCTION_ST=HWAY LODGING - ROOMS_FL=STORY 1_SCHF PTAC OA NODE
 Outdoor Air Node,113,NODE 25
 Outdoor Air Node,114,NODE 42
 Outdoor Air Node,115,NODE 57
 Outdoor Air Node,116,NODE 70
 Outdoor Air Node,117,NODE 83
 Outdoor Air Node,118,MODEL OUTDOOR AIR NODE
! ===============================================================
! <#Component Sets>,<Number of Component Sets>
 #Component Sets,69
! <Component Set>,<Component Set Count>,<Parent Object Type>,<Parent Object Name>,<Component Type>,<Component Name>,<Inlet Node ID>,<Outlet Node ID>,<Description>
 Component Set,1,BRANCH,SYS_1_MAKE-UP AIR UNIT MAIN BRANCH,AIRLOOPHVAC:OUTDOORAIRSYSTEM,AIR LOOP HVAC OUTDOOR AIR SYSTEM 1,NODE 19,NODE 29,Air Nodes
 Component Set,2,BRANCH,SYS_1_MAKE-UP AIR UNIT MAIN BRANCH,COILSYSTEM:COOLING:DX,COIL COOLING DX SINGLE SPEED 1 59KBTU/HR 14.0SEER COILSYSTEM,NODE 29,NODE 28,Air Nodes
 Component Set,3,BRANCH,SYS_1_MAKE-UP AIR UNIT MAIN BRANCH,COIL:HEATING:WATER,COIL HEATING WATER 1,NODE 28,NODE 27,Air Nodes
 Component Set,4,BRANCH,SYS_1_MAKE-UP AIR UNIT MAIN BRANCH,FAN:CONSTANTVOLUME,FAN CONSTANT VOLUME 1,NODE 27,NODE 20,Air Nodes
 Component Set,5,BRANCH,SYS_1_MAKE-UP AIR UNIT 1 MAIN BRANCH,AIRLOOPHVAC:OUTDOORAIRSYSTEM,AIR LOOP HVAC OUTDOOR AIR SYSTEM 2,NODE 35,NODE 46,Air Nodes
 Component Set,6,BRANCH,SYS_1_MAKE-UP AIR UNIT 1 MAIN BRANCH,COILSYSTEM:COOLING:DX,COIL COOLING DX SINGLE SPEED 3 59KBTU/HR 14.0SEER COILSYSTEM,NODE 46,NODE 45,Air Nodes
 Component Set,7,BRANCH,SYS_1_MAKE-UP AIR UNIT 1 MAIN BRANCH,COIL:HEATING:WATER,COIL HEATING WATER 2,NODE 45,NODE 44,Air Nodes
 Component Set,8,BRANCH,SYS_1_MAKE-UP AIR UNIT 1 MAIN BRANCH,FAN:CONSTANTVOLUME,FAN CONSTANT VOLUME 3,NODE 44,NODE 36,Air Nodes
 Component Set,9,BRANCH,SYS_3_PSZ ALL_ST=HOTEL/MOTEL - LOBBY_FL=STORY 1_SCH=H MAIN BRANCH,AIRLOOPHVAC:OUTDOORAIRSYSTEM,AIR LOOP HVAC OUTDOOR AIR SYSTEM 3,NODE 52,NODE 61,Air Nodes
 Component Set,10,BRANCH,SYS_3_PSZ ALL_ST=HOTEL/MOTEL - LOBBY_FL=STORY 1_SCH=H MAIN BRANCH,COILSYSTEM:COOLING:DX,COIL COOLING DX SINGLE SPEED 5 204KBTU/HR 9.7EER COILSYSTEM,NODE 61,NODE 60,Air Nodes
 Component Set,11,BRANCH,SYS_3_PSZ ALL_ST=HOTEL/MOTEL - LOBBY_FL=STORY 1_SCH=H MAIN BRANCH,COIL:HEATING:FUEL,COIL HEATING GAS 1,NODE 60,NODE 59,Air Nodes
 Component Set,12,BRANCH,SYS_3_PSZ ALL_ST=HOTEL/MOTEL - LOBBY_FL=STORY 1_SCH=H MAIN BRANCH,FAN:CONSTANTVOLUME,FAN CONSTANT VOLUME 5,NODE 59,NODE 53,Air Nodes
 Component Set,13,BRANCH,SYS_3_PSZ ALL_ST=HWAY LODGING - DINING_FL=STORY 1_SCH=B MAIN BRANCH,AIRLOOPHVAC:OUTDOORAIRSYSTEM,AIR LOOP HVAC OUTDOOR AIR SYSTEM 4,NODE 65,NODE 74,Air Nodes
 Component Set,14,BRANCH,SYS_3_PSZ ALL_ST=HWAY LODGING - DINING_FL=STORY 1_SCH=B MAIN BRANCH,COILSYSTEM:COOLING:DX,COIL COOLING DX SINGLE SPEED 6 379KBTU/HR 8.21EER COILSYSTEM,NODE 74,NODE 73,Air Nodes
 Component Set,15,BRANCH,SYS_3_PSZ ALL_ST=HWAY LODGING - DINING_FL=STORY 1_SCH=B MAIN BRANCH,COIL:HEATING:FUEL,COIL HEATING GAS 2,NODE 73,NODE 72,Air Nodes
 Component Set,16,BRANCH,SYS_3_PSZ ALL_ST=HWAY LODGING - DINING_FL=STORY 1_SCH=B MAIN BRANCH,FAN:CONSTANTVOLUME,FAN CONSTANT VOLUME 6,NODE 72,NODE 66,Air Nodes
 Component Set,17,BRANCH,SYS_3_PSZ ALL_ST=LAB - CLASSROOMS_FL=STORY 1_SCH=D MAIN BRANCH,AIRLOOPHVAC:OUTDOORAIRSYSTEM,AIR LOOP HVAC OUTDOOR AIR SYSTEM 5,NODE 78,NODE 87,Air Nodes
 Component Set,18,BRANCH,SYS_3_PSZ ALL_ST=LAB - CLASSROOMS_FL=STORY 1_SCH=D MAIN BRANCH,COILSYSTEM:COOLING:DX,COIL COOLING DX SINGLE SPEED 7 239KBTU/HR 9.7EER COILSYSTEM,NODE 87,NODE 86,Air Nodes
 Component Set,19,BRANCH,SYS_3_PSZ ALL_ST=LAB - CLASSROOMS_FL=STORY 1_SCH=D MAIN BRANCH,COIL:HEATING:FUEL,COIL HEATING GAS 3,NODE 86,NODE 85,Air Nodes
 Component Set,20,BRANCH,SYS_3_PSZ ALL_ST=LAB - CLASSROOMS_FL=STORY 1_SCH=D MAIN BRANCH,FAN:CONSTANTVOLUME,FAN CONSTANT VOLUME 7,NODE 85,NODE 79,Air Nodes
 Component Set,21,BRANCH,HOT WATER LOOP SUPPLY INLET BRANCH,PUMP:VARIABLESPEED,PUMP VARIABLE SPEED 1,NODE 2,NODE 11,Water Nodes
 Component Set,22,BRANCH,HOT WATER LOOP SUPPLY BRANCH 1,BOILER:HOTWATER,PRIMARY BOILER 329KBTU/HR 0.83 THERMAL EFF,NODE 5,NODE 12,Hot Water Nodes
 Component Set,23,BRANCH,HOT WATER LOOP SUPPLY BRANCH 2,BOILER:HOTWATER,SECONDARY BOILER 329KBTU/HR 0.83 THERMAL EFF,NODE 14,NODE 15,Hot Water Nodes
 Component Set,24,BRANCH,HOT WATER LOOP SUPPLY BRANCH 3,PIPE:ADIABATIC,PIPE ADIABATIC 1,NODE 16,NODE 17,Pipe Nodes
 Component Set,25,BRANCH,HOT WATER LOOP SUPPLY OUTLET BRANCH,PIPE:ADIABATIC,PIPE ADIABATIC 2,NODE 18,NODE 3,Pipe Nodes
 Component Set,26,BRANCH,HOT WATER LOOP DEMAND INLET BRANCH,PIPE:ADIABATIC,HOT WATER LOOP DEMAND INLET PIPE,NODE 6,HOT WATER LOOP DEMAND INLET PIPE NODE,Pipe Nodes
 Component Set,27,BRANCH,HOT WATER LOOP DEMAND BRANCH 1,COIL:HEATING:WATER,COIL HEATING WATER 1,NODE 9,NODE 24,Water Nodes
 Component Set,28,BRANCH,HOT WATER LOOP DEMAND BRANCH 2,ZONEHVAC:BASEBOARD:CONVECTIVE:WATER,ZONE HVAC BASEBOARD CONVECTIVE WATER 1,NODE 32,NODE 33,Hot Water Nodes
 Component Set,29,BRANCH,HOT WATER LOOP DEMAND BRANCH 3,COIL:HEATING:WATER,COIL HEATING WATER 2,NODE 40,NODE 41,Water Nodes
 Component Set,30,BRANCH,HOT WATER LOOP DEMAND BRANCH 4,ZONEHVAC:BASEBOARD:CONVECTIVE:WATER,ZONE HVAC BASEBOARD CONVECTIVE WATER 2,NODE 49,NODE 50,Hot Water Nodes
 Component Set,31,BRANCH,HOT WATER LOOP DEMAND BRANCH 5,ZONEHVAC:BASEBOARD:CONVECTIVE:WATER,ZONE HVAC BASEBOARD CONVECTIVE WATER 3,NODE 63,NODE 64,Hot Water Nodes
 Component Set,32,BRANCH,HOT WATER LOOP DEMAND BRANCH 6,ZONEHVAC:BASEBOARD:CONVECTIVE:WATER,ZONE HVAC BASEBOARD CONVECTIVE WATER 4,NODE 76,NODE 77,Hot Water Nodes
 Component Set,33,BRANCH,HOT WATER LOOP DEMAND BRANCH 7,ZONEHVAC:BASEBOARD:CONVECTIVE:WATER,ZONE HVAC BASEBOARD CONVECTIVE WATER 5,NODE 89,NODE 90,Hot Water Nodes
 Component Set,34,BRANCH,HOT WATER LOOP DEMAND BYPASS BRANCH,PIPE:ADIABATIC,HOT WATER LOOP DEMAND BYPASS PIPE,HOT WATER LOOP DEMAND BYPASS PIPE INLET NODE,HOT WATER LOOP DEMAND BYPASS PIPE OUTLET NODE,Pipe Nodes
 Component Set,35,BRANCH,HOT WATER LOOP DEMAND OUTLET BRANCH,PIPE:ADIABATIC,HOT WATER LOOP DEMAND OUTLET PIPE,HOT WATER LOOP DEMAND OUTLET PIPE NODE,NODE 8,Pipe Nodes
 Component Set,36,BRANCH,MAIN SERVICE WATER LOOP SUPPLY INLET BRANCH,PUMP:CONSTANTSPEED,SERVICE WATER LOOP PUMP,NODE 91,NODE 97,Water Nodes
 Component Set,37,BRANCH,MAIN SERVICE WATER LOOP SUPPLY BRANCH 1,WATERHEATER:MIXED,530GAL NATURALGAS WATER HEATER - 1508KBTU/HR 0.802 THERM EFF,NODE 93,NODE 98,Use Side Water Nodes
 Component Set,38,BRANCH,MAIN SERVICE WATER LOOP SUPPLY BRANCH 2,PIPE:ADIABATIC,PIPE ADIABATIC 3,NODE 99,NODE 100,Pipe Nodes
 Component Set,39,BRANCH,MAIN SERVICE WATER LOOP SUPPLY OUTLET BRANCH,PIPE:ADIABATIC,PIPE ADIABATIC 5,NODE 102,NODE 92,Pipe Nodes
 Component Set,40,BRANCH,MAIN SERVICE WATER LOOP DEMAND INLET BRANCH,PIPE:ADIABATIC,PIPE ADIABATIC 6,NODE 94,NODE 103,Pipe Nodes
 Component Set,41,BRANCH,MAIN SERVICE WATER LOOP DEMAND BRANCH 1,PIPE:ADIABATIC,PIPE ADIABATIC 4,NODE 96,NODE 101,Pipe Nodes
 Component Set,42,BRANCH,MAIN SERVICE WATER LOOP DEMAND BRANCH 2,WATERUSE:CONNECTIONS,WATER USE CONNECTIONS 1,NODE 105,NODE 106,DHW Nodes
 Component Set,43,BRANCH,MAIN SERVICE WATER LOOP DEMAND BRANCH 3,WATERUSE:CONNECTIONS,WATER USE CONNECTIONS 2,NODE 107,NODE 108,DHW Nodes
 Component Set,44,BRANCH,MAIN SERVICE WATER LOOP DEMAND BRANCH 4,WATERUSE:CONNECTIONS,WATER USE CONNECTIONS 3,NODE 109,NODE 110,DHW Nodes
 Component Set,45,BRANCH,MAIN SERVICE WATER LOOP DEMAND BRANCH 5,WATERUSE:CONNECTIONS,WATER USE CONNECTIONS 4,NODE 111,NODE 112,DHW Nodes
 Component Set,46,BRANCH,MAIN SERVICE WATER LOOP DEMAND BRANCH 6,WATERUSE:CONNECTIONS,WATER USE CONNECTIONS 5,NODE 113,NODE 114,DHW Nodes
 Component Set,47,BRANCH,MAIN SERVICE WATER LOOP DEMAND BYPASS BRANCH,PIPE:ADIABATIC,MAIN SERVICE WATER LOOP DEMAND BYPASS PIPE,MAIN SERVICE WATER LOOP DEMAND BYPASS PIPE INLET NODE,MAIN SERVICE WATER LOOP DEMAND BYPASS PIPE OUTLET NODE,Pipe Nodes
 Component Set,48,BRANCH,MAIN SERVICE WATER LOOP DEMAND OUTLET BRANCH,PIPE:ADIABATIC,PIPE ADIABATIC 7,NODE 104,NODE 95,Pipe Nodes
 Component Set,49,ZONEHVAC:PACKAGEDTERMINALAIRCONDITIONER,DU_BT=SPACE FUNCTION_ST=HOTEL/MOTEL - ROOMS_FL=STORY 1_SCHF PTAC,OUTDOORAIR:MIXER,DU_BT=SPACE FUNCTION_ST=HOTEL/MOTEL - ROOMS_FL=STORY 1_SCHF PTAC OA MIXER,DU_BT=SPACE FUNCTION_ST=HOTEL/MOTEL - ROOMS_FL=STORY 1_SCHF PTAC OA NODE,DU_BT=SPACE FUNCTION_ST=HOTEL/MOTEL - ROOMS_FL=STORY 1_SCHF PTAC MIXED AIR NODE,Air Nodes
 Component Set,50,ZONEHVAC:PACKAGEDTERMINALAIRCONDITIONER,DU_BT=SPACE FUNCTION_ST=HWAY LODGING - ROOMS_FL=STORY 1_SCHF PTAC,OUTDOORAIR:MIXER,DU_BT=SPACE FUNCTION_ST=HWAY LODGING - ROOMS_FL=STORY 1_SCHF PTAC OA MIXER,DU_BT=SPACE FUNCTION_ST=HWAY LODGING - ROOMS_FL=STORY 1_SCHF PTAC OA NODE,DU_BT=SPACE FUNCTION_ST=HWAY LODGING - ROOMS_FL=STORY 1_SCHF PTAC MIXED AIR NODE,Air Nodes
 Component Set,51,AIRLOOPHVAC:OUTDOORAIRSYSTEM,AIR LOOP HVAC OUTDOOR AIR SYSTEM 1,OUTDOORAIR:MIXER,AIR LOOP HVAC OUTDOOR AIR SYSTEM 1 OUTDOOR AIR MIXER,NODE 25,NODE 29,Air Nodes
 Component Set,52,AIRLOOPHVAC:OUTDOORAIRSYSTEM,AIR LOOP HVAC OUTDOOR AIR SYSTEM 2,OUTDOORAIR:MIXER,AIR LOOP HVAC OUTDOOR AIR SYSTEM 2 OUTDOOR AIR MIXER,NODE 42,NODE 46,Air Nodes
 Component Set,53,AIRLOOPHVAC:OUTDOORAIRSYSTEM,AIR LOOP HVAC OUTDOOR AIR SYSTEM 3,OUTDOORAIR:MIXER,AIR LOOP HVAC OUTDOOR AIR SYSTEM 3 OUTDOOR AIR MIXER,NODE 116,NODE 61,Air Nodes
 Component Set,54,AIRLOOPHVAC:OUTDOORAIRSYSTEM,AIR LOOP HVAC OUTDOOR AIR SYSTEM 4,OUTDOORAIR:MIXER,AIR LOOP HVAC OUTDOOR AIR SYSTEM 4 OUTDOOR AIR MIXER,NODE 118,NODE 74,Air Nodes
 Component Set,55,AIRLOOPHVAC:OUTDOORAIRSYSTEM,AIR LOOP HVAC OUTDOOR AIR SYSTEM 5,OUTDOORAIR:MIXER,AIR LOOP HVAC OUTDOOR AIR SYSTEM 5 OUTDOOR AIR MIXER,NODE 120,NODE 87,Air Nodes
 Component Set,56,ZONEHVAC:PACKAGEDTERMINALAIRCONDITIONER,DU_BT=SPACE FUNCTION_ST=HOTEL/MOTEL - ROOMS_FL=STORY 1_SCHF PTAC,FAN:CONSTANTVOLUME,FAN CONSTANT VOLUME 2,DU_BT=SPACE FUNCTION_ST=HOTEL/MOTEL - ROOMS_FL=STORY 1_SCHF PTAC HEATING COIL OUTLET NODE,NODE 31,Air Nodes
 Component Set,57,ZONEHVAC:PACKAGEDTERMINALAIRCONDITIONER,DU_BT=SPACE FUNCTION_ST=HWAY LODGING - ROOMS_FL=STORY 1_SCHF PTAC,FAN:CONSTANTVOLUME,FAN CONSTANT VOLUME 4,DU_BT=SPACE FUNCTION_ST=HWAY LODGING - ROOMS_FL=STORY 1_SCHF PTAC HEATING COIL OUTLET NODE,NODE 48,Air Nodes
 Component Set,58,ZONEHVAC:PACKAGEDTERMINALAIRCONDITIONER,DU_BT=SPACE FUNCTION_ST=HOTEL/MOTEL - ROOMS_FL=STORY 1_SCHF PTAC,COIL:HEATING:ELECTRIC,COIL HEATING ELECTRIC 1,DU_BT=SPACE FUNCTION_ST=HOTEL/MOTEL - ROOMS_FL=STORY 1_SCHF PTAC COOLING COIL OUTLET NODE,DU_BT=SPACE FUNCTION_ST=HOTEL/MOTEL - ROOMS_FL=STORY 1_SCHF PTAC HEATING COIL OUTLET NODE,Air Nodes
 Component Set,59,ZONEHVAC:PACKAGEDTERMINALAIRCONDITIONER,DU_BT=SPACE FUNCTION_ST=HWAY LODGING - ROOMS_FL=STORY 1_SCHF PTAC,COIL:HEATING:ELECTRIC,COIL HEATING ELECTRIC 2,DU_BT=SPACE FUNCTION_ST=HWAY LODGING - ROOMS_FL=STORY 1_SCHF PTAC COOLING COIL OUTLET NODE,DU_BT=SPACE FUNCTION_ST=HWAY LODGING - ROOMS_FL=STORY 1_SCHF PTAC HEATING COIL OUTLET NODE,Air Nodes
 Component Set,60,ZONEHVAC:PACKAGEDTERMINALAIRCONDITIONER,DU_BT=SPACE FUNCTION_ST=HOTEL/MOTEL - ROOMS_FL=STORY 1_SCHF PTAC,COIL:COOLING:DX:SINGLESPEED,COIL COOLING DX SINGLE SPEED 2 101KBTU/HR 9.3EER,DU_BT=SPACE FUNCTION_ST=HOTEL/MOTEL - ROOMS_FL=STORY 1_SCHF PTAC MIXED AIR NODE,DU_BT=SPACE FUNCTION_ST=HOTEL/MOTEL - ROOMS_FL=STORY 1_SCHF PTAC COOLING COIL OUTLET NODE,Air Nodes
 Component Set,61,ZONEHVAC:PACKAGEDTERMINALAIRCONDITIONER,DU_BT=SPACE FUNCTION_ST=HWAY LODGING - ROOMS_FL=STORY 1_SCHF PTAC,COIL:COOLING:DX:SINGLESPEED,COIL COOLING DX SINGLE SPEED 4 77KBTU/HR 9.3EER,DU_BT=SPACE FUNCTION_ST=HWAY LODGING - ROOMS_FL=STORY 1_SCHF PTAC MIXED AIR NODE,DU_BT=SPACE FUNCTION_ST=HWAY LODGING - ROOMS_FL=STORY 1_SCHF PTAC COOLING COIL OUTLET NODE,Air Nodes
 Component Set,62,COILSYSTEM:COOLING:DX,COIL COOLING DX SINGLE SPEED 1 59KBTU/HR 14.0SEER COILSYSTEM,COIL:COOLING:DX:SINGLESPEED,COIL COOLING DX SINGLE SPEED 1 59KBTU/HR 14.0SEER,NODE 29,NODE 28,Air Nodes
 Component Set,63,COILSYSTEM:COOLING:DX,COIL COOLING DX SINGLE SPEED 3 59KBTU/HR 14.0SEER COILSYSTEM,COIL:COOLING:DX:SINGLESPEED,COIL COOLING DX SINGLE SPEED 3 59KBTU/HR 14.0SEER,NODE 46,NODE 45,Air Nodes
 Component Set,64,COILSYSTEM:COOLING:DX,COIL COOLING DX SINGLE SPEED 5 204KBTU/HR 9.7EER COILSYSTEM,COIL:COOLING:DX:SINGLESPEED,COIL COOLING DX SINGLE SPEED 5 204KBTU/HR 9.7EER,NODE 61,NODE 60,Air Nodes
 Component Set,65,COILSYSTEM:COOLING:DX,COIL COOLING DX SINGLE SPEED 6 379KBTU/HR 8.21EER COILSYSTEM,COIL:COOLING:DX:SINGLESPEED,COIL COOLING DX SINGLE SPEED 6 379KBTU/HR 8.21EER,NODE 74,NODE 73,Air Nodes
 Component Set,66,COILSYSTEM:COOLING:DX,COIL COOLING DX SINGLE SPEED 7 239KBTU/HR 9.7EER COILSYSTEM,COIL:COOLING:DX:SINGLESPEED,COIL COOLING DX SINGLE SPEED 7 239KBTU/HR 9.7EER,NODE 87,NODE 86,Air Nodes
 Component Set,67,AIRLOOPHVAC:OUTDOORAIRSYSTEM,AIR LOOP HVAC OUTDOOR AIR SYSTEM 3,HEATEXCHANGER:AIRTOAIR:SENSIBLEANDLATENT,SYS_3_PSZ ALL_ST=HOTEL/MOTEL - LOBBY_FL=STORY 1_SCH=H ERV,NODE 57,NODE 116,Process Air Nodes
 Component Set,68,AIRLOOPHVAC:OUTDOORAIRSYSTEM,AIR LOOP HVAC OUTDOOR AIR SYSTEM 4,HEATEXCHANGER:AIRTOAIR:SENSIBLEANDLATENT,SYS_3_PSZ ALL_ST=HWAY LODGING - DINING_FL=STORY 1_SCH=B ERV,NODE 70,NODE 118,Process Air Nodes
 Component Set,69,AIRLOOPHVAC:OUTDOORAIRSYSTEM,AIR LOOP HVAC OUTDOOR AIR SYSTEM 5,HEATEXCHANGER:AIRTOAIR:SENSIBLEANDLATENT,SYS_3_PSZ ALL_ST=LAB - CLASSROOMS_FL=STORY 1_SCH=D ERV,NODE 83,NODE 120,Process Air Nodes
! ===============================================================
! <# Plant Loops>,<Number of Plant Loops>
 #Plant Loops,2
! <Plant Loop>,<Plant Loop Name>,<Loop Type>,<Inlet Node Name>,<Outlet Node Name>,<Branch List>,<Connector List>
! <Plant Loop Connector>,<Connector Type>,<Connector Name>,<Loop Name>,<Loop Type>,<Number of Inlets/Outlets>
! <Plant Loop Connector Branches>,<Connector Node Count>,<Connector Type>,<Connector Name>,<Inlet Branch>,<Outlet Branch>,<Loop Name>,<Loop Type>
! <Plant Loop Connector Nodes>,<Connector Node Count>,<Connector Type>,<Connector Name>,<Inlet Node>,<Outlet Node>,<Loop Name>,<Loop Type>
! <Plant Loop Supply Connection>,<Plant Loop Name>,<Supply Side Outlet Node Name>,<Demand Side Inlet Node Name>
! <Plant Loop Return Connection>,<Plant Loop Name>,<Demand Side Outlet Node Name>,<Supply Side Inlet Node Name>
 Plant Loop,HOT WATER LOOP,Demand,NODE 6,NODE 8,HOT WATER LOOP DEMAND BRANCHES,HOT WATER LOOP DEMAND CONNECTOR LIST
   Plant Loop Connector,Splitter,HOT WATER LOOP DEMAND SPLITTER,HOT WATER LOOP,Demand,8
     Plant Loop Connector Branches,1,Splitter,HOT WATER LOOP DEMAND SPLITTER,HOT WATER LOOP DEMAND INLET BRANCH,HOT WATER LOOP DEMAND BRANCH 1,HOT WATER LOOP,Demand
     Plant Loop Connector Nodes,   1,Splitter,HOT WATER LOOP DEMAND SPLITTER,HOT WATER LOOP DEMAND INLET PIPE NODE,NODE 9,HOT WATER LOOP,Demand
     Plant Loop Connector Branches,2,Splitter,HOT WATER LOOP DEMAND SPLITTER,HOT WATER LOOP DEMAND INLET BRANCH,HOT WATER LOOP DEMAND BRANCH 2,HOT WATER LOOP,Demand
     Plant Loop Connector Nodes,   2,Splitter,HOT WATER LOOP DEMAND SPLITTER,HOT WATER LOOP DEMAND INLET PIPE NODE,NODE 32,HOT WATER LOOP,Demand
     Plant Loop Connector Branches,3,Splitter,HOT WATER LOOP DEMAND SPLITTER,HOT WATER LOOP DEMAND INLET BRANCH,HOT WATER LOOP DEMAND BRANCH 3,HOT WATER LOOP,Demand
     Plant Loop Connector Nodes,   3,Splitter,HOT WATER LOOP DEMAND SPLITTER,HOT WATER LOOP DEMAND INLET PIPE NODE,NODE 40,HOT WATER LOOP,Demand
     Plant Loop Connector Branches,4,Splitter,HOT WATER LOOP DEMAND SPLITTER,HOT WATER LOOP DEMAND INLET BRANCH,HOT WATER LOOP DEMAND BRANCH 4,HOT WATER LOOP,Demand
     Plant Loop Connector Nodes,   4,Splitter,HOT WATER LOOP DEMAND SPLITTER,HOT WATER LOOP DEMAND INLET PIPE NODE,NODE 49,HOT WATER LOOP,Demand
     Plant Loop Connector Branches,5,Splitter,HOT WATER LOOP DEMAND SPLITTER,HOT WATER LOOP DEMAND INLET BRANCH,HOT WATER LOOP DEMAND BRANCH 5,HOT WATER LOOP,Demand
     Plant Loop Connector Nodes,   5,Splitter,HOT WATER LOOP DEMAND SPLITTER,HOT WATER LOOP DEMAND INLET PIPE NODE,NODE 63,HOT WATER LOOP,Demand
     Plant Loop Connector Branches,6,Splitter,HOT WATER LOOP DEMAND SPLITTER,HOT WATER LOOP DEMAND INLET BRANCH,HOT WATER LOOP DEMAND BRANCH 6,HOT WATER LOOP,Demand
     Plant Loop Connector Nodes,   6,Splitter,HOT WATER LOOP DEMAND SPLITTER,HOT WATER LOOP DEMAND INLET PIPE NODE,NODE 76,HOT WATER LOOP,Demand
     Plant Loop Connector Branches,7,Splitter,HOT WATER LOOP DEMAND SPLITTER,HOT WATER LOOP DEMAND INLET BRANCH,HOT WATER LOOP DEMAND BRANCH 7,HOT WATER LOOP,Demand
     Plant Loop Connector Nodes,   7,Splitter,HOT WATER LOOP DEMAND SPLITTER,HOT WATER LOOP DEMAND INLET PIPE NODE,NODE 89,HOT WATER LOOP,Demand
     Plant Loop Connector Branches,8,Splitter,HOT WATER LOOP DEMAND SPLITTER,HOT WATER LOOP DEMAND INLET BRANCH,HOT WATER LOOP DEMAND BYPASS BRANCH,HOT WATER LOOP,Demand
     Plant Loop Connector Nodes,   8,Splitter,HOT WATER LOOP DEMAND SPLITTER,HOT WATER LOOP DEMAND INLET PIPE NODE,HOT WATER LOOP DEMAND BYPASS PIPE INLET NODE,HOT WATER LOOP,Demand
   Plant Loop Connector,Mixer,HOT WATER LOOP DEMAND MIXER,HOT WATER LOOP,Demand,8
     Plant Loop Connector Branches,1,Mixer,HOT WATER LOOP DEMAND MIXER,HOT WATER LOOP DEMAND BRANCH 1,HOT WATER LOOP DEMAND OUTLET BRANCH,HOT WATER LOOP,Demand
     Plant Loop Connector Nodes,   1,Mixer,HOT WATER LOOP DEMAND MIXER,NODE 24,HOT WATER LOOP DEMAND OUTLET PIPE NODE,HOT WATER LOOP,Demand
     Plant Loop Connector Branches,2,Mixer,HOT WATER LOOP DEMAND MIXER,HOT WATER LOOP DEMAND BRANCH 2,HOT WATER LOOP DEMAND OUTLET BRANCH,HOT WATER LOOP,Demand
     Plant Loop Connector Nodes,   2,Mixer,HOT WATER LOOP DEMAND MIXER,NODE 33,HOT WATER LOOP DEMAND OUTLET PIPE NODE,HOT WATER LOOP,Demand
     Plant Loop Connector Branches,3,Mixer,HOT WATER LOOP DEMAND MIXER,HOT WATER LOOP DEMAND BRANCH 3,HOT WATER LOOP DEMAND OUTLET BRANCH,HOT WATER LOOP,Demand
     Plant Loop Connector Nodes,   3,Mixer,HOT WATER LOOP DEMAND MIXER,NODE 41,HOT WATER LOOP DEMAND OUTLET PIPE NODE,HOT WATER LOOP,Demand
     Plant Loop Connector Branches,4,Mixer,HOT WATER LOOP DEMAND MIXER,HOT WATER LOOP DEMAND BRANCH 4,HOT WATER LOOP DEMAND OUTLET BRANCH,HOT WATER LOOP,Demand
     Plant Loop Connector Nodes,   4,Mixer,HOT WATER LOOP DEMAND MIXER,NODE 50,HOT WATER LOOP DEMAND OUTLET PIPE NODE,HOT WATER LOOP,Demand
     Plant Loop Connector Branches,5,Mixer,HOT WATER LOOP DEMAND MIXER,HOT WATER LOOP DEMAND BRANCH 5,HOT WATER LOOP DEMAND OUTLET BRANCH,HOT WATER LOOP,Demand
     Plant Loop Connector Nodes,   5,Mixer,HOT WATER LOOP DEMAND MIXER,NODE 64,HOT WATER LOOP DEMAND OUTLET PIPE NODE,HOT WATER LOOP,Demand
     Plant Loop Connector Branches,6,Mixer,HOT WATER LOOP DEMAND MIXER,HOT WATER LOOP DEMAND BRANCH 6,HOT WATER LOOP DEMAND OUTLET BRANCH,HOT WATER LOOP,Demand
     Plant Loop Connector Nodes,   6,Mixer,HOT WATER LOOP DEMAND MIXER,NODE 77,HOT WATER LOOP DEMAND OUTLET PIPE NODE,HOT WATER LOOP,Demand
     Plant Loop Connector Branches,7,Mixer,HOT WATER LOOP DEMAND MIXER,HOT WATER LOOP DEMAND BRANCH 7,HOT WATER LOOP DEMAND OUTLET BRANCH,HOT WATER LOOP,Demand
     Plant Loop Connector Nodes,   7,Mixer,HOT WATER LOOP DEMAND MIXER,NODE 90,HOT WATER LOOP DEMAND OUTLET PIPE NODE,HOT WATER LOOP,Demand
     Plant Loop Connector Branches,8,Mixer,HOT WATER LOOP DEMAND MIXER,HOT WATER LOOP DEMAND BYPASS BRANCH,HOT WATER LOOP DEMAND OUTLET BRANCH,HOT WATER LOOP,Demand
     Plant Loop Connector Nodes,   8,Mixer,HOT WATER LOOP DEMAND MIXER,HOT WATER LOOP DEMAND BYPASS PIPE OUTLET NODE,HOT WATER LOOP DEMAND OUTLET PIPE NODE,HOT WATER LOOP,Demand
 Plant Loop,HOT WATER LOOP,Supply,NODE 2,NODE 3,HOT WATER LOOP SUPPLY BRANCHES,HOT WATER LOOP SUPPLY CONNECTOR LIST
   Plant Loop Connector,Splitter,HOT WATER LOOP SUPPLY SPLITTER,HOT WATER LOOP,Supply,3
     Plant Loop Connector Branches,1,Splitter,HOT WATER LOOP SUPPLY SPLITTER,HOT WATER LOOP SUPPLY INLET BRANCH,HOT WATER LOOP SUPPLY BRANCH 1,HOT WATER LOOP,Supply
     Plant Loop Connector Nodes,   1,Splitter,HOT WATER LOOP SUPPLY SPLITTER,NODE 11,NODE 5,HOT WATER LOOP,Supply
     Plant Loop Connector Branches,2,Splitter,HOT WATER LOOP SUPPLY SPLITTER,HOT WATER LOOP SUPPLY INLET BRANCH,HOT WATER LOOP SUPPLY BRANCH 2,HOT WATER LOOP,Supply
     Plant Loop Connector Nodes,   2,Splitter,HOT WATER LOOP SUPPLY SPLITTER,NODE 11,NODE 14,HOT WATER LOOP,Supply
     Plant Loop Connector Branches,3,Splitter,HOT WATER LOOP SUPPLY SPLITTER,HOT WATER LOOP SUPPLY INLET BRANCH,HOT WATER LOOP SUPPLY BRANCH 3,HOT WATER LOOP,Supply
     Plant Loop Connector Nodes,   3,Splitter,HOT WATER LOOP SUPPLY SPLITTER,NODE 11,NODE 16,HOT WATER LOOP,Supply
   Plant Loop Connector,Mixer,HOT WATER LOOP SUPPLY MIXER,HOT WATER LOOP,Supply,3
     Plant Loop Connector Branches,1,Mixer,HOT WATER LOOP SUPPLY MIXER,HOT WATER LOOP SUPPLY BRANCH 1,HOT WATER LOOP SUPPLY OUTLET BRANCH,HOT WATER LOOP,Supply
     Plant Loop Connector Nodes,   1,Mixer,HOT WATER LOOP SUPPLY MIXER,NODE 12,NODE 18,HOT WATER LOOP,Supply
     Plant Loop Connector Branches,2,Mixer,HOT WATER LOOP SUPPLY MIXER,HOT WATER LOOP SUPPLY BRANCH 2,HOT WATER LOOP SUPPLY OUTLET BRANCH,HOT WATER LOOP,Supply
     Plant Loop Connector Nodes,   2,Mixer,HOT WATER LOOP SUPPLY MIXER,NODE 15,NODE 18,HOT WATER LOOP,Supply
     Plant Loop Connector Branches,3,Mixer,HOT WATER LOOP SUPPLY MIXER,HOT WATER LOOP SUPPLY BRANCH 3,HOT WATER LOOP SUPPLY OUTLET BRANCH,HOT WATER LOOP,Supply
     Plant Loop Connector Nodes,   3,Mixer,HOT WATER LOOP SUPPLY MIXER,NODE 17,NODE 18,HOT WATER LOOP,Supply
 Plant Loop Supply Connection,HOT WATER LOOP,NODE 3,NODE 6
 Plant Loop Return Connection,HOT WATER LOOP,NODE 8,NODE 2
 Plant Loop,MAIN SERVICE WATER LOOP,Demand,NODE 94,NODE 95,MAIN SERVICE WATER LOOP DEMAND BRANCHES,MAIN SERVICE WATER LOOP DEMAND CONNECTOR LIST
   Plant Loop Connector,Splitter,MAIN SERVICE WATER LOOP DEMAND SPLITTER,MAIN SERVICE WATER LOOP,Demand,7
     Plant Loop Connector Branches,1,Splitter,MAIN SERVICE WATER LOOP DEMAND SPLITTER,MAIN SERVICE WATER LOOP DEMAND INLET BRANCH,MAIN SERVICE WATER LOOP DEMAND BRANCH 1,MAIN SERVICE WATER LOOP,Demand
     Plant Loop Connector Nodes,   1,Splitter,MAIN SERVICE WATER LOOP DEMAND SPLITTER,NODE 103,NODE 96,MAIN SERVICE WATER LOOP,Demand
     Plant Loop Connector Branches,2,Splitter,MAIN SERVICE WATER LOOP DEMAND SPLITTER,MAIN SERVICE WATER LOOP DEMAND INLET BRANCH,MAIN SERVICE WATER LOOP DEMAND BRANCH 2,MAIN SERVICE WATER LOOP,Demand
     Plant Loop Connector Nodes,   2,Splitter,MAIN SERVICE WATER LOOP DEMAND SPLITTER,NODE 103,NODE 105,MAIN SERVICE WATER LOOP,Demand
     Plant Loop Connector Branches,3,Splitter,MAIN SERVICE WATER LOOP DEMAND SPLITTER,MAIN SERVICE WATER LOOP DEMAND INLET BRANCH,MAIN SERVICE WATER LOOP DEMAND BRANCH 3,MAIN SERVICE WATER LOOP,Demand
     Plant Loop Connector Nodes,   3,Splitter,MAIN SERVICE WATER LOOP DEMAND SPLITTER,NODE 103,NODE 107,MAIN SERVICE WATER LOOP,Demand
     Plant Loop Connector Branches,4,Splitter,MAIN SERVICE WATER LOOP DEMAND SPLITTER,MAIN SERVICE WATER LOOP DEMAND INLET BRANCH,MAIN SERVICE WATER LOOP DEMAND BRANCH 4,MAIN SERVICE WATER LOOP,Demand
     Plant Loop Connector Nodes,   4,Splitter,MAIN SERVICE WATER LOOP DEMAND SPLITTER,NODE 103,NODE 109,MAIN SERVICE WATER LOOP,Demand
     Plant Loop Connector Branches,5,Splitter,MAIN SERVICE WATER LOOP DEMAND SPLITTER,MAIN SERVICE WATER LOOP DEMAND INLET BRANCH,MAIN SERVICE WATER LOOP DEMAND BRANCH 5,MAIN SERVICE WATER LOOP,Demand
     Plant Loop Connector Nodes,   5,Splitter,MAIN SERVICE WATER LOOP DEMAND SPLITTER,NODE 103,NODE 111,MAIN SERVICE WATER LOOP,Demand
     Plant Loop Connector Branches,6,Splitter,MAIN SERVICE WATER LOOP DEMAND SPLITTER,MAIN SERVICE WATER LOOP DEMAND INLET BRANCH,MAIN SERVICE WATER LOOP DEMAND BRANCH 6,MAIN SERVICE WATER LOOP,Demand
     Plant Loop Connector Nodes,   6,Splitter,MAIN SERVICE WATER LOOP DEMAND SPLITTER,NODE 103,NODE 113,MAIN SERVICE WATER LOOP,Demand
     Plant Loop Connector Branches,7,Splitter,MAIN SERVICE WATER LOOP DEMAND SPLITTER,MAIN SERVICE WATER LOOP DEMAND INLET BRANCH,MAIN SERVICE WATER LOOP DEMAND BYPASS BRANCH,MAIN SERVICE WATER LOOP,Demand
     Plant Loop Connector Nodes,   7,Splitter,MAIN SERVICE WATER LOOP DEMAND SPLITTER,NODE 103,MAIN SERVICE WATER LOOP DEMAND BYPASS PIPE INLET NODE,MAIN SERVICE WATER LOOP,Demand
   Plant Loop Connector,Mixer,MAIN SERVICE WATER LOOP DEMAND MIXER,MAIN SERVICE WATER LOOP,Demand,7
     Plant Loop Connector Branches,1,Mixer,MAIN SERVICE WATER LOOP DEMAND MIXER,MAIN SERVICE WATER LOOP DEMAND BRANCH 1,MAIN SERVICE WATER LOOP DEMAND OUTLET BRANCH,MAIN SERVICE WATER LOOP,Demand
     Plant Loop Connector Nodes,   1,Mixer,MAIN SERVICE WATER LOOP DEMAND MIXER,NODE 101,NODE 104,MAIN SERVICE WATER LOOP,Demand
     Plant Loop Connector Branches,2,Mixer,MAIN SERVICE WATER LOOP DEMAND MIXER,MAIN SERVICE WATER LOOP DEMAND BRANCH 2,MAIN SERVICE WATER LOOP DEMAND OUTLET BRANCH,MAIN SERVICE WATER LOOP,Demand
     Plant Loop Connector Nodes,   2,Mixer,MAIN SERVICE WATER LOOP DEMAND MIXER,NODE 106,NODE 104,MAIN SERVICE WATER LOOP,Demand
     Plant Loop Connector Branches,3,Mixer,MAIN SERVICE WATER LOOP DEMAND MIXER,MAIN SERVICE WATER LOOP DEMAND BRANCH 3,MAIN SERVICE WATER LOOP DEMAND OUTLET BRANCH,MAIN SERVICE WATER LOOP,Demand
     Plant Loop Connector Nodes,   3,Mixer,MAIN SERVICE WATER LOOP DEMAND MIXER,NODE 108,NODE 104,MAIN SERVICE WATER LOOP,Demand
     Plant Loop Connector Branches,4,Mixer,MAIN SERVICE WATER LOOP DEMAND MIXER,MAIN SERVICE WATER LOOP DEMAND BRANCH 4,MAIN SERVICE WATER LOOP DEMAND OUTLET BRANCH,MAIN SERVICE WATER LOOP,Demand
     Plant Loop Connector Nodes,   4,Mixer,MAIN SERVICE WATER LOOP DEMAND MIXER,NODE 110,NODE 104,MAIN SERVICE WATER LOOP,Demand
     Plant Loop Connector Branches,5,Mixer,MAIN SERVICE WATER LOOP DEMAND MIXER,MAIN SERVICE WATER LOOP DEMAND BRANCH 5,MAIN SERVICE WATER LOOP DEMAND OUTLET BRANCH,MAIN SERVICE WATER LOOP,Demand
     Plant Loop Connector Nodes,   5,Mixer,MAIN SERVICE WATER LOOP DEMAND MIXER,NODE 112,NODE 104,MAIN SERVICE WATER LOOP,Demand
     Plant Loop Connector Branches,6,Mixer,MAIN SERVICE WATER LOOP DEMAND MIXER,MAIN SERVICE WATER LOOP DEMAND BRANCH 6,MAIN SERVICE WATER LOOP DEMAND OUTLET BRANCH,MAIN SERVICE WATER LOOP,Demand
     Plant Loop Connector Nodes,   6,Mixer,MAIN SERVICE WATER LOOP DEMAND MIXER,NODE 114,NODE 104,MAIN SERVICE WATER LOOP,Demand
     Plant Loop Connector Branches,7,Mixer,MAIN SERVICE WATER LOOP DEMAND MIXER,MAIN SERVICE WATER LOOP DEMAND BYPASS BRANCH,MAIN SERVICE WATER LOOP DEMAND OUTLET BRANCH,MAIN SERVICE WATER LOOP,Demand
     Plant Loop Connector Nodes,   7,Mixer,MAIN SERVICE WATER LOOP DEMAND MIXER,MAIN SERVICE WATER LOOP DEMAND BYPASS PIPE OUTLET NODE,NODE 104,MAIN SERVICE WATER LOOP,Demand
 Plant Loop,MAIN SERVICE WATER LOOP,Supply,NODE 91,NODE 92,MAIN SERVICE WATER LOOP SUPPLY BRANCHES,MAIN SERVICE WATER LOOP SUPPLY CONNECTOR LIST
   Plant Loop Connector,Splitter,MAIN SERVICE WATER LOOP SUPPLY SPLITTER,MAIN SERVICE WATER LOOP,Supply,2
     Plant Loop Connector Branches,1,Splitter,MAIN SERVICE WATER LOOP SUPPLY SPLITTER,MAIN SERVICE WATER LOOP SUPPLY INLET BRANCH,MAIN SERVICE WATER LOOP SUPPLY BRANCH 1,MAIN SERVICE WATER LOOP,Supply
     Plant Loop Connector Nodes,   1,Splitter,MAIN SERVICE WATER LOOP SUPPLY SPLITTER,NODE 97,NODE 93,MAIN SERVICE WATER LOOP,Supply
     Plant Loop Connector Branches,2,Splitter,MAIN SERVICE WATER LOOP SUPPLY SPLITTER,MAIN SERVICE WATER LOOP SUPPLY INLET BRANCH,MAIN SERVICE WATER LOOP SUPPLY BRANCH 2,MAIN SERVICE WATER LOOP,Supply
     Plant Loop Connector Nodes,   2,Splitter,MAIN SERVICE WATER LOOP SUPPLY SPLITTER,NODE 97,NODE 99,MAIN SERVICE WATER LOOP,Supply
   Plant Loop Connector,Mixer,MAIN SERVICE WATER LOOP SUPPLY MIXER,MAIN SERVICE WATER LOOP,Supply,2
     Plant Loop Connector Branches,1,Mixer,MAIN SERVICE WATER LOOP SUPPLY MIXER,MAIN SERVICE WATER LOOP SUPPLY BRANCH 1,MAIN SERVICE WATER LOOP SUPPLY OUTLET BRANCH,MAIN SERVICE WATER LOOP,Supply
     Plant Loop Connector Nodes,   1,Mixer,MAIN SERVICE WATER LOOP SUPPLY MIXER,NODE 98,NODE 102,MAIN SERVICE WATER LOOP,Supply
     Plant Loop Connector Branches,2,Mixer,MAIN SERVICE WATER LOOP SUPPLY MIXER,MAIN SERVICE WATER LOOP SUPPLY BRANCH 2,MAIN SERVICE WATER LOOP SUPPLY OUTLET BRANCH,MAIN SERVICE WATER LOOP,Supply
     Plant Loop Connector Nodes,   2,Mixer,MAIN SERVICE WATER LOOP SUPPLY MIXER,NODE 100,NODE 102,MAIN SERVICE WATER LOOP,Supply
 Plant Loop Supply Connection,MAIN SERVICE WATER LOOP,NODE 92,NODE 94
 Plant Loop Return Connection,MAIN SERVICE WATER LOOP,NODE 95,NODE 91
! ===============================================================
! <# Condenser Loops>,<Number of Condenser Loops>
 #Condenser Loops,0
! <Condenser Loop>,<Condenser Loop Name>,<Loop Type>,<Inlet Node Name>,<Outlet Node Name>,<Branch List>,<Connector List>
! <Condenser Loop Connector>,<Connector Type>,<Connector Name>,<Loop Name>,<Loop Type>,<Number of Inlets/Outlets>
! <Condenser Loop Connector Branches>,<Connector Node Count>,<Connector Type>,<Connector Name>,<Inlet Branch>,<Outlet Branch>,<Loop Name>,<Loop Type>
! <Condenser Loop Connector Nodes>,<Connector Node Count>,<Connector Type>,<Connector Name>,<Inlet Node>,<Outlet Node>,<Loop Name>,<Loop Type>
! <Condenser Loop Supply Connection>,<Condenser Loop Name>,<Supply Side Outlet Node Name>,<Demand Side Inlet Node Name>
! <Condenser Loop Return Connection>,<Condenser Loop Name>,<Demand Side Outlet Node Name>,<Supply Side Inlet Node Name>
! ===============================================================
! <# Controlled Zones>,<Number of Controlled Zones>
 #Controlled Zones,5
! <Controlled Zone>,<Controlled Zone Name>,<Equip List Name>,<Control List Name>,<Zone Node Name>,<# Inlet Nodes>,<# Exhaust Nodes>,<# Return Nodes>
! <Controlled Zone Inlet>,<Inlet Node Count>,<Controlled Zone Name>,<Supply Air Inlet Node Name>,<SD Sys:Cooling/Heating [DD:Cooling] Inlet Node Name>,<DD Sys:Heating Inlet Node Name>
! <Controlled Zone Exhaust>,<Exhaust Node Count>,<Controlled Zone Name>,<Exhaust Air Node Name>
 Controlled Zone,ALL_ST=HOTEL/MOTEL - LOBBY_FL=STORY 1_SCH=H,ALL_ST=HOTEL/MOTEL - LOBBY_FL=STORY 1_SCH=H EQUIPMENT LIST,,NODE 7,1,0,1
   Controlled Zone Inlet,1,ALL_ST=HOTEL/MOTEL - LOBBY_FL=STORY 1_SCH=H,NODE 56,NODE 56,N/A
   Controlled Zone Return,1,ALL_ST=HOTEL/MOTEL - LOBBY_FL=STORY 1_SCH=H,NODE 62
 Controlled Zone,ALL_ST=HWAY LODGING - DINING_FL=STORY 1_SCH=B,ALL_ST=HWAY LODGING - DINING_FL=STORY 1_SCH=B EQUIPMENT LIST,,NODE 10,1,0,1
   Controlled Zone Inlet,1,ALL_ST=HWAY LODGING - DINING_FL=STORY 1_SCH=B,NODE 69,NODE 69,N/A
   Controlled Zone Return,1,ALL_ST=HWAY LODGING - DINING_FL=STORY 1_SCH=B,NODE 75
 Controlled Zone,ALL_ST=LAB - CLASSROOMS_FL=STORY 1_SCH=D,ALL_ST=LAB - CLASSROOMS_FL=STORY 1_SCH=D EQUIPMENT LIST,,NODE 13,1,0,1
   Controlled Zone Inlet,1,ALL_ST=LAB - CLASSROOMS_FL=STORY 1_SCH=D,NODE 82,NODE 82,N/A
   Controlled Zone Return,1,ALL_ST=LAB - CLASSROOMS_FL=STORY 1_SCH=D,NODE 88
 Controlled Zone,DU_BT=SPACE FUNCTION_ST=HOTEL/MOTEL - ROOMS_FL=STORY 1_SCHF,DU_BT=SPACE FUNCTION_ST=HOTEL/MOTEL - ROOMS_FL=STORY 1_SCHF EQUIPMENT LIST,,NODE 1,2,1,1
   Controlled Zone Inlet,1,DU_BT=SPACE FUNCTION_ST=HOTEL/MOTEL - ROOMS_FL=STORY 1_SCHF,NODE 31,Undefined,N/A
   Controlled Zone Inlet,2,DU_BT=SPACE FUNCTION_ST=HOTEL/MOTEL - ROOMS_FL=STORY 1_SCHF,NODE 23,NODE 23,N/A
   Controlled Zone Exhaust,1,DU_BT=SPACE FUNCTION_ST=HOTEL/MOTEL - ROOMS_FL=STORY 1_SCHF,NODE 30
   Controlled Zone Return,1,DU_BT=SPACE FUNCTION_ST=HOTEL/MOTEL - ROOMS_FL=STORY 1_SCHF,NODE 34
 Controlled Zone,DU_BT=SPACE FUNCTION_ST=HWAY LODGING - ROOMS_FL=STORY 1_SCHF,DU_BT=SPACE FUNCTION_ST=HWAY LODGING - ROOMS_FL=STORY 1_SCHF EQUIPMENT LIST,,NODE 4,2,1,1
   Controlled Zone Inlet,1,DU_BT=SPACE FUNCTION_ST=HWAY LODGING - ROOMS_FL=STORY 1_SCHF,NODE 48,Undefined,N/A
   Controlled Zone Inlet,2,DU_BT=SPACE FUNCTION_ST=HWAY LODGING - ROOMS_FL=STORY 1_SCHF,NODE 39,NODE 39,N/A
   Controlled Zone Exhaust,1,DU_BT=SPACE FUNCTION_ST=HWAY LODGING - ROOMS_FL=STORY 1_SCHF,NODE 47
   Controlled Zone Return,1,DU_BT=SPACE FUNCTION_ST=HWAY LODGING - ROOMS_FL=STORY 1_SCHF,NODE 51
! ===============================================================
! <#Zone Equipment Lists>,<Number of Zone Equipment Lists>
 #Zone Equipment Lists,5
! <Zone Equipment List>,<Zone Equipment List Count>,<Zone Equipment List Name>,<Zone Name>,<Number of Components>
! <Zone Equipment Component>,<Component Count>,<Component Type>,<Component Name>,<Zone Name>,<Heating Priority>,<Cooling Priority>
 Zone Equipment List,1,ALL_ST=HOTEL/MOTEL - LOBBY_FL=STORY 1_SCH=H EQUIPMENT LIST,ALL_ST=HOTEL/MOTEL - LOBBY_FL=STORY 1_SCH=H,2
   Zone Equipment Component,1,AIRTERMINAL:SINGLEDUCT:UNCONTROLLED,AIR TERMINAL SINGLE DUCT UNCONTROLLED 3,ALL_ST=HOTEL/MOTEL - LOBBY_FL=STORY 1_SCH=H,1,1
   Zone Equipment Component,2,ZONEHVAC:BASEBOARD:CONVECTIVE:WATER,ZONE HVAC BASEBOARD CONVECTIVE WATER 3,ALL_ST=HOTEL/MOTEL - LOBBY_FL=STORY 1_SCH=H,2,2
 Zone Equipment List,2,ALL_ST=HWAY LODGING - DINING_FL=STORY 1_SCH=B EQUIPMENT LIST,ALL_ST=HWAY LODGING - DINING_FL=STORY 1_SCH=B,2
   Zone Equipment Component,1,AIRTERMINAL:SINGLEDUCT:UNCONTROLLED,AIR TERMINAL SINGLE DUCT UNCONTROLLED 4,ALL_ST=HWAY LODGING - DINING_FL=STORY 1_SCH=B,1,1
   Zone Equipment Component,2,ZONEHVAC:BASEBOARD:CONVECTIVE:WATER,ZONE HVAC BASEBOARD CONVECTIVE WATER 4,ALL_ST=HWAY LODGING - DINING_FL=STORY 1_SCH=B,2,2
 Zone Equipment List,3,ALL_ST=LAB - CLASSROOMS_FL=STORY 1_SCH=D EQUIPMENT LIST,ALL_ST=LAB - CLASSROOMS_FL=STORY 1_SCH=D,2
   Zone Equipment Component,1,AIRTERMINAL:SINGLEDUCT:UNCONTROLLED,AIR TERMINAL SINGLE DUCT UNCONTROLLED 5,ALL_ST=LAB - CLASSROOMS_FL=STORY 1_SCH=D,1,1
   Zone Equipment Component,2,ZONEHVAC:BASEBOARD:CONVECTIVE:WATER,ZONE HVAC BASEBOARD CONVECTIVE WATER 5,ALL_ST=LAB - CLASSROOMS_FL=STORY 1_SCH=D,2,2
 Zone Equipment List,4,DU_BT=SPACE FUNCTION_ST=HOTEL/MOTEL - ROOMS_FL=STORY 1_SCHF EQUIPMENT LIST,DU_BT=SPACE FUNCTION_ST=HOTEL/MOTEL - ROOMS_FL=STORY 1_SCHF,3
   Zone Equipment Component,1,ZONEHVAC:PACKAGEDTERMINALAIRCONDITIONER,DU_BT=SPACE FUNCTION_ST=HOTEL/MOTEL - ROOMS_FL=STORY 1_SCHF PTAC,DU_BT=SPACE FUNCTION_ST=HOTEL/MOTEL - ROOMS_FL=STORY 1_SCHF,1,1
   Zone Equipment Component,2,ZONEHVAC:BASEBOARD:CONVECTIVE:WATER,ZONE HVAC BASEBOARD CONVECTIVE WATER 1,DU_BT=SPACE FUNCTION_ST=HOTEL/MOTEL - ROOMS_FL=STORY 1_SCHF,2,2
   Zone Equipment Component,3,AIRTERMINAL:SINGLEDUCT:UNCONTROLLED,AIR TERMINAL SINGLE DUCT UNCONTROLLED 1,DU_BT=SPACE FUNCTION_ST=HOTEL/MOTEL - ROOMS_FL=STORY 1_SCHF,3,3
 Zone Equipment List,5,DU_BT=SPACE FUNCTION_ST=HWAY LODGING - ROOMS_FL=STORY 1_SCHF EQUIPMENT LIST,DU_BT=SPACE FUNCTION_ST=HWAY LODGING - ROOMS_FL=STORY 1_SCHF,3
   Zone Equipment Component,1,ZONEHVAC:PACKAGEDTERMINALAIRCONDITIONER,DU_BT=SPACE FUNCTION_ST=HWAY LODGING - ROOMS_FL=STORY 1_SCHF PTAC,DU_BT=SPACE FUNCTION_ST=HWAY LODGING - ROOMS_FL=STORY 1_SCHF,1,1
   Zone Equipment Component,2,ZONEHVAC:BASEBOARD:CONVECTIVE:WATER,ZONE HVAC BASEBOARD CONVECTIVE WATER 2,DU_BT=SPACE FUNCTION_ST=HWAY LODGING - ROOMS_FL=STORY 1_SCHF,2,2
   Zone Equipment Component,3,AIRTERMINAL:SINGLEDUCT:UNCONTROLLED,AIR TERMINAL SINGLE DUCT UNCONTROLLED 2,DU_BT=SPACE FUNCTION_ST=HWAY LODGING - ROOMS_FL=STORY 1_SCHF,3,3
! ===============================================================
! <#AirLoopHVACs>,<Number of AirLoopHVACs>
 #AirLoopHVACs,5
! <AirLoopHVAC>,<Air Loop Name>,<# Return Nodes>,<# Supply Nodes>,<# Zones Cooled>,<# Zones Heated>,<Outdoor Air Used>
! <AirLoop Return Connections>,<Connection Count>,<AirLoopHVAC Name>,<Zn Eqp Return Node #>,<Zn Eqp Return Node Name>,<AirLoop Return Node #>,<Air Loop Return Node Name>
! <AirLoop Supply Connections>,<Connection Count>,<AirLoopHVAC Name>,<Zn Eqp Supply Node #>,<Zn Eqp Supply Node Name>,<AirLoop Supply Node #>,<Air Loop Supply Node Name>
! <Cooled Zone Info>,<Cooled Zone Count>,<Cooled Zone Name>,<Cooled Zone Inlet Node #>,<Cooled Zone Inlet Node Name>,<AirLoopHVAC Name>
! <Heated Zone Info>,<Heated Zone Count>,<Heated Zone Name>,<Heated Zone Inlet Node #>,<Heated Zone Inlet Node Name>,<AirLoopHVAC Name>
! <Outdoor Air Connections>,<OA Inlet Node #>,<OA Return Air Inlet Node Name>,<OA Outlet Node #>,<OA Mixed Air Outlet Node Name>,<AirLoopHVAC Name>
! <AirLoopHVAC Connector>,<Connector Type>,<Connector Name>,<Loop Name>,<Loop Type>,<Number of Inlets/Outlets>
! <AirLoopHVAC Connector Branches>,<Connector Node Count>,<Connector Type>,<Connector Name>,<Inlet Branch>,<Outlet Branch>,<Loop Name>,<Loop Type>
! <AirLoopHVAC Connector Nodes>,<Connector Node Count>,<Connector Type>,<Connector Name>,<Inlet Node>,<Outlet Node>,<Loop Name>,<Loop Type>
 AirLoopHVAC,SYS_1_MAKE-UP AIR UNIT,1,1,1,0,Yes
   AirLoop Return Connections,1,SYS_1_MAKE-UP AIR UNIT,106,NODE 22,20,NODE 19
   AirLoop Supply Connections,1,SYS_1_MAKE-UP AIR UNIT,11,NODE 21,10,NODE 20
   Cooled Zone Info,1,DU_BT=SPACE FUNCTION_ST=HOTEL/MOTEL - ROOMS_FL=STORY 1_SCHF,5,NODE 23,SYS_1_MAKE-UP AIR UNIT
   Outdoor Air Connections,20,NODE 19,21,NODE 29,SYS_1_MAKE-UP AIR UNIT
 AirLoopHVAC,SYS_1_MAKE-UP AIR UNIT 1,1,1,1,0,Yes
   AirLoop Return Connections,1,SYS_1_MAKE-UP AIR UNIT 1,107,NODE 38,24,NODE 35
   AirLoop Supply Connections,1,SYS_1_MAKE-UP AIR UNIT 1,13,NODE 37,12,NODE 36
   Cooled Zone Info,1,DU_BT=SPACE FUNCTION_ST=HWAY LODGING - ROOMS_FL=STORY 1_SCHF,8,NODE 39,SYS_1_MAKE-UP AIR UNIT 1
   Outdoor Air Connections,24,NODE 35,25,NODE 46,SYS_1_MAKE-UP AIR UNIT 1
 AirLoopHVAC,SYS_3_PSZ ALL_ST=HOTEL/MOTEL - LOBBY_FL=STORY 1_SCH=H,1,1,1,0,Yes
   AirLoop Return Connections,1,SYS_3_PSZ ALL_ST=HOTEL/MOTEL - LOBBY_FL=STORY 1_SCH=H,108,NODE 55,28,NODE 52
   AirLoop Supply Connections,1,SYS_3_PSZ ALL_ST=HOTEL/MOTEL - LOBBY_FL=STORY 1_SCH=H,15,NODE 54,14,NODE 53
   Cooled Zone Info,1,ALL_ST=HOTEL/MOTEL - LOBBY_FL=STORY 1_SCH=H,1,NODE 56,SYS_3_PSZ ALL_ST=HOTEL/MOTEL - LOBBY_FL=STORY 1_SCH=H
   Outdoor Air Connections,28,NODE 52,29,NODE 61,SYS_3_PSZ ALL_ST=HOTEL/MOTEL - LOBBY_FL=STORY 1_SCH=H
 AirLoopHVAC,SYS_3_PSZ ALL_ST=HWAY LODGING - DINING_FL=STORY 1_SCH=B,1,1,1,0,Yes
   AirLoop Return Connections,1,SYS_3_PSZ ALL_ST=HWAY LODGING - DINING_FL=STORY 1_SCH=B,109,NODE 68,32,NODE 65
   AirLoop Supply Connections,1,SYS_3_PSZ ALL_ST=HWAY LODGING - DINING_FL=STORY 1_SCH=B,17,NODE 67,16,NODE 66
   Cooled Zone Info,1,ALL_ST=HWAY LODGING - DINING_FL=STORY 1_SCH=B,2,NODE 69,SYS_3_PSZ ALL_ST=HWAY LODGING - DINING_FL=STORY 1_SCH=B
   Outdoor Air Connections,32,NODE 65,33,NODE 74,SYS_3_PSZ ALL_ST=HWAY LODGING - DINING_FL=STORY 1_SCH=B
 AirLoopHVAC,SYS_3_PSZ ALL_ST=LAB - CLASSROOMS_FL=STORY 1_SCH=D,1,1,1,0,Yes
   AirLoop Return Connections,1,SYS_3_PSZ ALL_ST=LAB - CLASSROOMS_FL=STORY 1_SCH=D,110,NODE 81,36,NODE 78
   AirLoop Supply Connections,1,SYS_3_PSZ ALL_ST=LAB - CLASSROOMS_FL=STORY 1_SCH=D,19,NODE 80,18,NODE 79
   Cooled Zone Info,1,ALL_ST=LAB - CLASSROOMS_FL=STORY 1_SCH=D,3,NODE 82,SYS_3_PSZ ALL_ST=LAB - CLASSROOMS_FL=STORY 1_SCH=D
   Outdoor Air Connections,36,NODE 78,37,NODE 87,SYS_3_PSZ ALL_ST=LAB - CLASSROOMS_FL=STORY 1_SCH=D
! ===============================================================
! <#Parent Node Connections>,<Number of Parent Node Connections>
 #Parent Node Connections,140
! <Parent Node Connection>,<Node Name>,<Node ObjectType>,<Node ObjectName>,<Node ConnectionType>,<Node FluidStream>
 Parent Node Connection,NODE 19,BRANCH,SYS_1_MAKE-UP AIR UNIT MAIN BRANCH,Inlet,1
 Parent Node Connection,NODE 29,BRANCH,SYS_1_MAKE-UP AIR UNIT MAIN BRANCH,Internal,1
 Parent Node Connection,NODE 28,BRANCH,SYS_1_MAKE-UP AIR UNIT MAIN BRANCH,Internal,1
 Parent Node Connection,NODE 27,BRANCH,SYS_1_MAKE-UP AIR UNIT MAIN BRANCH,Internal,1
 Parent Node Connection,NODE 20,BRANCH,SYS_1_MAKE-UP AIR UNIT MAIN BRANCH,Outlet,1
 Parent Node Connection,NODE 35,BRANCH,SYS_1_MAKE-UP AIR UNIT 1 MAIN BRANCH,Inlet,1
 Parent Node Connection,NODE 46,BRANCH,SYS_1_MAKE-UP AIR UNIT 1 MAIN BRANCH,Internal,1
 Parent Node Connection,NODE 45,BRANCH,SYS_1_MAKE-UP AIR UNIT 1 MAIN BRANCH,Internal,1
 Parent Node Connection,NODE 44,BRANCH,SYS_1_MAKE-UP AIR UNIT 1 MAIN BRANCH,Internal,1
 Parent Node Connection,NODE 36,BRANCH,SYS_1_MAKE-UP AIR UNIT 1 MAIN BRANCH,Outlet,1
 Parent Node Connection,NODE 52,BRANCH,SYS_3_PSZ ALL_ST=HOTEL/MOTEL - LOBBY_FL=STORY 1_SCH=H MAIN BRANCH,Inlet,1
 Parent Node Connection,NODE 61,BRANCH,SYS_3_PSZ ALL_ST=HOTEL/MOTEL - LOBBY_FL=STORY 1_SCH=H MAIN BRANCH,Internal,1
 Parent Node Connection,NODE 60,BRANCH,SYS_3_PSZ ALL_ST=HOTEL/MOTEL - LOBBY_FL=STORY 1_SCH=H MAIN BRANCH,Internal,1
 Parent Node Connection,NODE 59,BRANCH,SYS_3_PSZ ALL_ST=HOTEL/MOTEL - LOBBY_FL=STORY 1_SCH=H MAIN BRANCH,Internal,1
 Parent Node Connection,NODE 53,BRANCH,SYS_3_PSZ ALL_ST=HOTEL/MOTEL - LOBBY_FL=STORY 1_SCH=H MAIN BRANCH,Outlet,1
 Parent Node Connection,NODE 65,BRANCH,SYS_3_PSZ ALL_ST=HWAY LODGING - DINING_FL=STORY 1_SCH=B MAIN BRANCH,Inlet,1
 Parent Node Connection,NODE 74,BRANCH,SYS_3_PSZ ALL_ST=HWAY LODGING - DINING_FL=STORY 1_SCH=B MAIN BRANCH,Internal,1
 Parent Node Connection,NODE 73,BRANCH,SYS_3_PSZ ALL_ST=HWAY LODGING - DINING_FL=STORY 1_SCH=B MAIN BRANCH,Internal,1
 Parent Node Connection,NODE 72,BRANCH,SYS_3_PSZ ALL_ST=HWAY LODGING - DINING_FL=STORY 1_SCH=B MAIN BRANCH,Internal,1
 Parent Node Connection,NODE 66,BRANCH,SYS_3_PSZ ALL_ST=HWAY LODGING - DINING_FL=STORY 1_SCH=B MAIN BRANCH,Outlet,1
 Parent Node Connection,NODE 78,BRANCH,SYS_3_PSZ ALL_ST=LAB - CLASSROOMS_FL=STORY 1_SCH=D MAIN BRANCH,Inlet,1
 Parent Node Connection,NODE 87,BRANCH,SYS_3_PSZ ALL_ST=LAB - CLASSROOMS_FL=STORY 1_SCH=D MAIN BRANCH,Internal,1
 Parent Node Connection,NODE 86,BRANCH,SYS_3_PSZ ALL_ST=LAB - CLASSROOMS_FL=STORY 1_SCH=D MAIN BRANCH,Internal,1
 Parent Node Connection,NODE 85,BRANCH,SYS_3_PSZ ALL_ST=LAB - CLASSROOMS_FL=STORY 1_SCH=D MAIN BRANCH,Internal,1
 Parent Node Connection,NODE 79,BRANCH,SYS_3_PSZ ALL_ST=LAB - CLASSROOMS_FL=STORY 1_SCH=D MAIN BRANCH,Outlet,1
 Parent Node Connection,NODE 2,BRANCH,HOT WATER LOOP SUPPLY INLET BRANCH,Inlet,1
 Parent Node Connection,NODE 11,BRANCH,HOT WATER LOOP SUPPLY INLET BRANCH,Outlet,1
 Parent Node Connection,NODE 5,BRANCH,HOT WATER LOOP SUPPLY BRANCH 1,Inlet,1
 Parent Node Connection,NODE 12,BRANCH,HOT WATER LOOP SUPPLY BRANCH 1,Outlet,1
 Parent Node Connection,NODE 14,BRANCH,HOT WATER LOOP SUPPLY BRANCH 2,Inlet,1
 Parent Node Connection,NODE 15,BRANCH,HOT WATER LOOP SUPPLY BRANCH 2,Outlet,1
 Parent Node Connection,NODE 16,BRANCH,HOT WATER LOOP SUPPLY BRANCH 3,Inlet,1
 Parent Node Connection,NODE 17,BRANCH,HOT WATER LOOP SUPPLY BRANCH 3,Outlet,1
 Parent Node Connection,NODE 18,BRANCH,HOT WATER LOOP SUPPLY OUTLET BRANCH,Inlet,1
 Parent Node Connection,NODE 3,BRANCH,HOT WATER LOOP SUPPLY OUTLET BRANCH,Outlet,1
 Parent Node Connection,NODE 6,BRANCH,HOT WATER LOOP DEMAND INLET BRANCH,Inlet,1
 Parent Node Connection,HOT WATER LOOP DEMAND INLET PIPE NODE,BRANCH,HOT WATER LOOP DEMAND INLET BRANCH,Outlet,1
 Parent Node Connection,NODE 9,BRANCH,HOT WATER LOOP DEMAND BRANCH 1,Inlet,1
 Parent Node Connection,NODE 24,BRANCH,HOT WATER LOOP DEMAND BRANCH 1,Outlet,1
 Parent Node Connection,NODE 32,BRANCH,HOT WATER LOOP DEMAND BRANCH 2,Inlet,1
 Parent Node Connection,NODE 33,BRANCH,HOT WATER LOOP DEMAND BRANCH 2,Outlet,1
 Parent Node Connection,NODE 40,BRANCH,HOT WATER LOOP DEMAND BRANCH 3,Inlet,1
 Parent Node Connection,NODE 41,BRANCH,HOT WATER LOOP DEMAND BRANCH 3,Outlet,1
 Parent Node Connection,NODE 49,BRANCH,HOT WATER LOOP DEMAND BRANCH 4,Inlet,1
 Parent Node Connection,NODE 50,BRANCH,HOT WATER LOOP DEMAND BRANCH 4,Outlet,1
 Parent Node Connection,NODE 63,BRANCH,HOT WATER LOOP DEMAND BRANCH 5,Inlet,1
 Parent Node Connection,NODE 64,BRANCH,HOT WATER LOOP DEMAND BRANCH 5,Outlet,1
 Parent Node Connection,NODE 76,BRANCH,HOT WATER LOOP DEMAND BRANCH 6,Inlet,1
 Parent Node Connection,NODE 77,BRANCH,HOT WATER LOOP DEMAND BRANCH 6,Outlet,1
 Parent Node Connection,NODE 89,BRANCH,HOT WATER LOOP DEMAND BRANCH 7,Inlet,1
 Parent Node Connection,NODE 90,BRANCH,HOT WATER LOOP DEMAND BRANCH 7,Outlet,1
 Parent Node Connection,HOT WATER LOOP DEMAND BYPASS PIPE INLET NODE,BRANCH,HOT WATER LOOP DEMAND BYPASS BRANCH,Inlet,1
 Parent Node Connection,HOT WATER LOOP DEMAND BYPASS PIPE OUTLET NODE,BRANCH,HOT WATER LOOP DEMAND BYPASS BRANCH,Outlet,1
 Parent Node Connection,HOT WATER LOOP DEMAND OUTLET PIPE NODE,BRANCH,HOT WATER LOOP DEMAND OUTLET BRANCH,Inlet,1
 Parent Node Connection,NODE 8,BRANCH,HOT WATER LOOP DEMAND OUTLET BRANCH,Outlet,1
 Parent Node Connection,NODE 91,BRANCH,MAIN SERVICE WATER LOOP SUPPLY INLET BRANCH,Inlet,1
 Parent Node Connection,NODE 97,BRANCH,MAIN SERVICE WATER LOOP SUPPLY INLET BRANCH,Outlet,1
 Parent Node Connection,NODE 93,BRANCH,MAIN SERVICE WATER LOOP SUPPLY BRANCH 1,Inlet,1
 Parent Node Connection,NODE 98,BRANCH,MAIN SERVICE WATER LOOP SUPPLY BRANCH 1,Outlet,1
 Parent Node Connection,NODE 99,BRANCH,MAIN SERVICE WATER LOOP SUPPLY BRANCH 2,Inlet,1
 Parent Node Connection,NODE 100,BRANCH,MAIN SERVICE WATER LOOP SUPPLY BRANCH 2,Outlet,1
 Parent Node Connection,NODE 102,BRANCH,MAIN SERVICE WATER LOOP SUPPLY OUTLET BRANCH,Inlet,1
 Parent Node Connection,NODE 92,BRANCH,MAIN SERVICE WATER LOOP SUPPLY OUTLET BRANCH,Outlet,1
 Parent Node Connection,NODE 94,BRANCH,MAIN SERVICE WATER LOOP DEMAND INLET BRANCH,Inlet,1
 Parent Node Connection,NODE 103,BRANCH,MAIN SERVICE WATER LOOP DEMAND INLET BRANCH,Outlet,1
 Parent Node Connection,NODE 96,BRANCH,MAIN SERVICE WATER LOOP DEMAND BRANCH 1,Inlet,1
 Parent Node Connection,NODE 101,BRANCH,MAIN SERVICE WATER LOOP DEMAND BRANCH 1,Outlet,1
 Parent Node Connection,NODE 105,BRANCH,MAIN SERVICE WATER LOOP DEMAND BRANCH 2,Inlet,1
 Parent Node Connection,NODE 106,BRANCH,MAIN SERVICE WATER LOOP DEMAND BRANCH 2,Outlet,1
 Parent Node Connection,NODE 107,BRANCH,MAIN SERVICE WATER LOOP DEMAND BRANCH 3,Inlet,1
 Parent Node Connection,NODE 108,BRANCH,MAIN SERVICE WATER LOOP DEMAND BRANCH 3,Outlet,1
 Parent Node Connection,NODE 109,BRANCH,MAIN SERVICE WATER LOOP DEMAND BRANCH 4,Inlet,1
 Parent Node Connection,NODE 110,BRANCH,MAIN SERVICE WATER LOOP DEMAND BRANCH 4,Outlet,1
 Parent Node Connection,NODE 111,BRANCH,MAIN SERVICE WATER LOOP DEMAND BRANCH 5,Inlet,1
 Parent Node Connection,NODE 112,BRANCH,MAIN SERVICE WATER LOOP DEMAND BRANCH 5,Outlet,1
 Parent Node Connection,NODE 113,BRANCH,MAIN SERVICE WATER LOOP DEMAND BRANCH 6,Inlet,1
 Parent Node Connection,NODE 114,BRANCH,MAIN SERVICE WATER LOOP DEMAND BRANCH 6,Outlet,1
 Parent Node Connection,MAIN SERVICE WATER LOOP DEMAND BYPASS PIPE INLET NODE,BRANCH,MAIN SERVICE WATER LOOP DEMAND BYPASS BRANCH,Inlet,1
 Parent Node Connection,MAIN SERVICE WATER LOOP DEMAND BYPASS PIPE OUTLET NODE,BRANCH,MAIN SERVICE WATER LOOP DEMAND BYPASS BRANCH,Outlet,1
 Parent Node Connection,NODE 104,BRANCH,MAIN SERVICE WATER LOOP DEMAND OUTLET BRANCH,Inlet,1
 Parent Node Connection,NODE 95,BRANCH,MAIN SERVICE WATER LOOP DEMAND OUTLET BRANCH,Outlet,1
 Parent Node Connection,NODE 21,AIRLOOPHVAC:SUPPLYPATH,SYS_1_MAKE-UP AIR UNIT NODE 21 SUPPLY PATH,Inlet,1
 Parent Node Connection,NODE 37,AIRLOOPHVAC:SUPPLYPATH,SYS_1_MAKE-UP AIR UNIT 1 NODE 37 SUPPLY PATH,Inlet,1
 Parent Node Connection,NODE 54,AIRLOOPHVAC:SUPPLYPATH,SYS_3_PSZ ALL_ST=HOTEL/MOTEL - LOBBY_FL=STORY 1_SCH=H NODE 54 SUPPLY PATH,Inlet,1
 Parent Node Connection,NODE 67,AIRLOOPHVAC:SUPPLYPATH,SYS_3_PSZ ALL_ST=HWAY LODGING - DINING_FL=STORY 1_SCH=B NODE 67 SUPPLY PATH,Inlet,1
 Parent Node Connection,NODE 80,AIRLOOPHVAC:SUPPLYPATH,SYS_3_PSZ ALL_ST=LAB - CLASSROOMS_FL=STORY 1_SCH=D NODE 80 SUPPLY PATH,Inlet,1
 Parent Node Connection,NODE 22,AIRLOOPHVAC:RETURNPATH,SYS_1_MAKE-UP AIR UNIT RETURN PATH,Outlet,1
 Parent Node Connection,NODE 38,AIRLOOPHVAC:RETURNPATH,SYS_1_MAKE-UP AIR UNIT 1 RETURN PATH,Outlet,1
 Parent Node Connection,NODE 55,AIRLOOPHVAC:RETURNPATH,SYS_3_PSZ ALL_ST=HOTEL/MOTEL - LOBBY_FL=STORY 1_SCH=H RETURN PATH,Outlet,1
 Parent Node Connection,NODE 68,AIRLOOPHVAC:RETURNPATH,SYS_3_PSZ ALL_ST=HWAY LODGING - DINING_FL=STORY 1_SCH=B RETURN PATH,Outlet,1
 Parent Node Connection,NODE 81,AIRLOOPHVAC:RETURNPATH,SYS_3_PSZ ALL_ST=LAB - CLASSROOMS_FL=STORY 1_SCH=D RETURN PATH,Outlet,1
 Parent Node Connection,NODE 2,PLANTLOOP,HOT WATER LOOP,Inlet,1
 Parent Node Connection,NODE 3,PLANTLOOP,HOT WATER LOOP,Outlet,1
 Parent Node Connection,NODE 6,PLANTLOOP,HOT WATER LOOP,Inlet,1
 Parent Node Connection,NODE 8,PLANTLOOP,HOT WATER LOOP,Outlet,1
 Parent Node Connection,NODE 3,PLANTLOOP,HOT WATER LOOP,Sensor,1
 Parent Node Connection,NODE 91,PLANTLOOP,MAIN SERVICE WATER LOOP,Inlet,1
 Parent Node Connection,NODE 92,PLANTLOOP,MAIN SERVICE WATER LOOP,Outlet,1
 Parent Node Connection,NODE 94,PLANTLOOP,MAIN SERVICE WATER LOOP,Inlet,1
 Parent Node Connection,NODE 95,PLANTLOOP,MAIN SERVICE WATER LOOP,Outlet,1
 Parent Node Connection,NODE 92,PLANTLOOP,MAIN SERVICE WATER LOOP,Sensor,1
 Parent Node Connection,NODE 30,ZONEHVAC:PACKAGEDTERMINALAIRCONDITIONER,DU_BT=SPACE FUNCTION_ST=HOTEL/MOTEL - ROOMS_FL=STORY 1_SCHF PTAC,Inlet,1
 Parent Node Connection,NODE 31,ZONEHVAC:PACKAGEDTERMINALAIRCONDITIONER,DU_BT=SPACE FUNCTION_ST=HOTEL/MOTEL - ROOMS_FL=STORY 1_SCHF PTAC,Outlet,1
 Parent Node Connection,NODE 47,ZONEHVAC:PACKAGEDTERMINALAIRCONDITIONER,DU_BT=SPACE FUNCTION_ST=HWAY LODGING - ROOMS_FL=STORY 1_SCHF PTAC,Inlet,1
 Parent Node Connection,NODE 48,ZONEHVAC:PACKAGEDTERMINALAIRCONDITIONER,DU_BT=SPACE FUNCTION_ST=HWAY LODGING - ROOMS_FL=STORY 1_SCHF PTAC,Outlet,1
 Parent Node Connection,NODE 19,AIRLOOPHVAC,SYS_1_MAKE-UP AIR UNIT,Inlet,1
 Parent Node Connection,NODE 22,AIRLOOPHVAC,SYS_1_MAKE-UP AIR UNIT,Outlet,1
 Parent Node Connection,NODE 21,AIRLOOPHVAC,SYS_1_MAKE-UP AIR UNIT,Inlet,1
 Parent Node Connection,NODE 20,AIRLOOPHVAC,SYS_1_MAKE-UP AIR UNIT,Outlet,1
 Parent Node Connection,NODE 35,AIRLOOPHVAC,SYS_1_MAKE-UP AIR UNIT 1,Inlet,1
 Parent Node Connection,NODE 38,AIRLOOPHVAC,SYS_1_MAKE-UP AIR UNIT 1,Outlet,1
 Parent Node Connection,NODE 37,AIRLOOPHVAC,SYS_1_MAKE-UP AIR UNIT 1,Inlet,1
 Parent Node Connection,NODE 36,AIRLOOPHVAC,SYS_1_MAKE-UP AIR UNIT 1,Outlet,1
 Parent Node Connection,NODE 52,AIRLOOPHVAC,SYS_3_PSZ ALL_ST=HOTEL/MOTEL - LOBBY_FL=STORY 1_SCH=H,Inlet,1
 Parent Node Connection,NODE 55,AIRLOOPHVAC,SYS_3_PSZ ALL_ST=HOTEL/MOTEL - LOBBY_FL=STORY 1_SCH=H,Outlet,1
 Parent Node Connection,NODE 54,AIRLOOPHVAC,SYS_3_PSZ ALL_ST=HOTEL/MOTEL - LOBBY_FL=STORY 1_SCH=H,Inlet,1
 Parent Node Connection,NODE 53,AIRLOOPHVAC,SYS_3_PSZ ALL_ST=HOTEL/MOTEL - LOBBY_FL=STORY 1_SCH=H,Outlet,1
 Parent Node Connection,NODE 65,AIRLOOPHVAC,SYS_3_PSZ ALL_ST=HWAY LODGING - DINING_FL=STORY 1_SCH=B,Inlet,1
 Parent Node Connection,NODE 68,AIRLOOPHVAC,SYS_3_PSZ ALL_ST=HWAY LODGING - DINING_FL=STORY 1_SCH=B,Outlet,1
 Parent Node Connection,NODE 67,AIRLOOPHVAC,SYS_3_PSZ ALL_ST=HWAY LODGING - DINING_FL=STORY 1_SCH=B,Inlet,1
 Parent Node Connection,NODE 66,AIRLOOPHVAC,SYS_3_PSZ ALL_ST=HWAY LODGING - DINING_FL=STORY 1_SCH=B,Outlet,1
 Parent Node Connection,NODE 78,AIRLOOPHVAC,SYS_3_PSZ ALL_ST=LAB - CLASSROOMS_FL=STORY 1_SCH=D,Inlet,1
 Parent Node Connection,NODE 81,AIRLOOPHVAC,SYS_3_PSZ ALL_ST=LAB - CLASSROOMS_FL=STORY 1_SCH=D,Outlet,1
 Parent Node Connection,NODE 80,AIRLOOPHVAC,SYS_3_PSZ ALL_ST=LAB - CLASSROOMS_FL=STORY 1_SCH=D,Inlet,1
 Parent Node Connection,NODE 79,AIRLOOPHVAC,SYS_3_PSZ ALL_ST=LAB - CLASSROOMS_FL=STORY 1_SCH=D,Outlet,1
 Parent Node Connection,NODE 29,COILSYSTEM:COOLING:DX,COIL COOLING DX SINGLE SPEED 1 59KBTU/HR 14.0SEER COILSYSTEM,Inlet,1
 Parent Node Connection,NODE 28,COILSYSTEM:COOLING:DX,COIL COOLING DX SINGLE SPEED 1 59KBTU/HR 14.0SEER COILSYSTEM,Outlet,1
 Parent Node Connection,NODE 28,COILSYSTEM:COOLING:DX,COIL COOLING DX SINGLE SPEED 1 59KBTU/HR 14.0SEER COILSYSTEM,Sensor,1
 Parent Node Connection,NODE 46,COILSYSTEM:COOLING:DX,COIL COOLING DX SINGLE SPEED 3 59KBTU/HR 14.0SEER COILSYSTEM,Inlet,1
 Parent Node Connection,NODE 45,COILSYSTEM:COOLING:DX,COIL COOLING DX SINGLE SPEED 3 59KBTU/HR 14.0SEER COILSYSTEM,Outlet,1
 Parent Node Connection,NODE 45,COILSYSTEM:COOLING:DX,COIL COOLING DX SINGLE SPEED 3 59KBTU/HR 14.0SEER COILSYSTEM,Sensor,1
 Parent Node Connection,NODE 61,COILSYSTEM:COOLING:DX,COIL COOLING DX SINGLE SPEED 5 204KBTU/HR 9.7EER COILSYSTEM,Inlet,1
 Parent Node Connection,NODE 60,COILSYSTEM:COOLING:DX,COIL COOLING DX SINGLE SPEED 5 204KBTU/HR 9.7EER COILSYSTEM,Outlet,1
 Parent Node Connection,NODE 60,COILSYSTEM:COOLING:DX,COIL COOLING DX SINGLE SPEED 5 204KBTU/HR 9.7EER COILSYSTEM,Sensor,1
 Parent Node Connection,NODE 74,COILSYSTEM:COOLING:DX,COIL COOLING DX SINGLE SPEED 6 379KBTU/HR 8.21EER COILSYSTEM,Inlet,1
 Parent Node Connection,NODE 73,COILSYSTEM:COOLING:DX,COIL COOLING DX SINGLE SPEED 6 379KBTU/HR 8.21EER COILSYSTEM,Outlet,1
 Parent Node Connection,NODE 73,COILSYSTEM:COOLING:DX,COIL COOLING DX SINGLE SPEED 6 379KBTU/HR 8.21EER COILSYSTEM,Sensor,1
 Parent Node Connection,NODE 87,COILSYSTEM:COOLING:DX,COIL COOLING DX SINGLE SPEED 7 239KBTU/HR 9.7EER COILSYSTEM,Inlet,1
 Parent Node Connection,NODE 86,COILSYSTEM:COOLING:DX,COIL COOLING DX SINGLE SPEED 7 239KBTU/HR 9.7EER COILSYSTEM,Outlet,1
 Parent Node Connection,NODE 86,COILSYSTEM:COOLING:DX,COIL COOLING DX SINGLE SPEED 7 239KBTU/HR 9.7EER COILSYSTEM,Sensor,1
! ===============================================================
! <#Non-Parent Node Connections>,<Number of Non-Parent Node Connections>
 #Non-Parent Node Connections,335
! <Non-Parent Node Connection>,<Node Name>,<Node ObjectType>,<Node ObjectName>,<Node ConnectionType>,<Node FluidStream>
 Non-Parent Node Connection,NODE 7,ZONEHVAC:EQUIPMENTCONNECTIONS,ALL_ST=HOTEL/MOTEL - LOBBY_FL=STORY 1_SCH=H,ZoneNode,1
 Non-Parent Node Connection,NODE 56,ZONEHVAC:EQUIPMENTCONNECTIONS,ALL_ST=HOTEL/MOTEL - LOBBY_FL=STORY 1_SCH=H,ZoneInlet,1
 Non-Parent Node Connection,NODE 62,ZONEHVAC:EQUIPMENTCONNECTIONS,ALL_ST=HOTEL/MOTEL - LOBBY_FL=STORY 1_SCH=H,ZoneReturn,1
 Non-Parent Node Connection,NODE 10,ZONEHVAC:EQUIPMENTCONNECTIONS,ALL_ST=HWAY LODGING - DINING_FL=STORY 1_SCH=B,ZoneNode,1
 Non-Parent Node Connection,NODE 69,ZONEHVAC:EQUIPMENTCONNECTIONS,ALL_ST=HWAY LODGING - DINING_FL=STORY 1_SCH=B,ZoneInlet,1
 Non-Parent Node Connection,NODE 75,ZONEHVAC:EQUIPMENTCONNECTIONS,ALL_ST=HWAY LODGING - DINING_FL=STORY 1_SCH=B,ZoneReturn,1
 Non-Parent Node Connection,NODE 13,ZONEHVAC:EQUIPMENTCONNECTIONS,ALL_ST=LAB - CLASSROOMS_FL=STORY 1_SCH=D,ZoneNode,1
 Non-Parent Node Connection,NODE 82,ZONEHVAC:EQUIPMENTCONNECTIONS,ALL_ST=LAB - CLASSROOMS_FL=STORY 1_SCH=D,ZoneInlet,1
 Non-Parent Node Connection,NODE 88,ZONEHVAC:EQUIPMENTCONNECTIONS,ALL_ST=LAB - CLASSROOMS_FL=STORY 1_SCH=D,ZoneReturn,1
 Non-Parent Node Connection,NODE 1,ZONEHVAC:EQUIPMENTCONNECTIONS,DU_BT=SPACE FUNCTION_ST=HOTEL/MOTEL - ROOMS_FL=STORY 1_SCHF,ZoneNode,1
 Non-Parent Node Connection,NODE 31,ZONEHVAC:EQUIPMENTCONNECTIONS,DU_BT=SPACE FUNCTION_ST=HOTEL/MOTEL - ROOMS_FL=STORY 1_SCHF,ZoneInlet,1
 Non-Parent Node Connection,NODE 23,ZONEHVAC:EQUIPMENTCONNECTIONS,DU_BT=SPACE FUNCTION_ST=HOTEL/MOTEL - ROOMS_FL=STORY 1_SCHF,ZoneInlet,1
 Non-Parent Node Connection,NODE 30,ZONEHVAC:EQUIPMENTCONNECTIONS,DU_BT=SPACE FUNCTION_ST=HOTEL/MOTEL - ROOMS_FL=STORY 1_SCHF,ZoneExhaust,1
 Non-Parent Node Connection,NODE 34,ZONEHVAC:EQUIPMENTCONNECTIONS,DU_BT=SPACE FUNCTION_ST=HOTEL/MOTEL - ROOMS_FL=STORY 1_SCHF,ZoneReturn,1
 Non-Parent Node Connection,NODE 4,ZONEHVAC:EQUIPMENTCONNECTIONS,DU_BT=SPACE FUNCTION_ST=HWAY LODGING - ROOMS_FL=STORY 1_SCHF,ZoneNode,1
 Non-Parent Node Connection,NODE 48,ZONEHVAC:EQUIPMENTCONNECTIONS,DU_BT=SPACE FUNCTION_ST=HWAY LODGING - ROOMS_FL=STORY 1_SCHF,ZoneInlet,1
 Non-Parent Node Connection,NODE 39,ZONEHVAC:EQUIPMENTCONNECTIONS,DU_BT=SPACE FUNCTION_ST=HWAY LODGING - ROOMS_FL=STORY 1_SCHF,ZoneInlet,1
 Non-Parent Node Connection,NODE 47,ZONEHVAC:EQUIPMENTCONNECTIONS,DU_BT=SPACE FUNCTION_ST=HWAY LODGING - ROOMS_FL=STORY 1_SCHF,ZoneExhaust,1
 Non-Parent Node Connection,NODE 51,ZONEHVAC:EQUIPMENTCONNECTIONS,DU_BT=SPACE FUNCTION_ST=HWAY LODGING - ROOMS_FL=STORY 1_SCHF,ZoneReturn,1
 Non-Parent Node Connection,NODE 93,WATERHEATER:MIXED,530GAL NATURALGAS WATER HEATER - 1508KBTU/HR 0.802 THERM EFF,Inlet,1
 Non-Parent Node Connection,NODE 98,WATERHEATER:MIXED,530GAL NATURALGAS WATER HEATER - 1508KBTU/HR 0.802 THERM EFF,Outlet,1
 Non-Parent Node Connection,DU_BT=SPACE FUNCTION_ST=HOTEL/MOTEL - ROOMS_FL=STORY 1_SCHF PTAC OA NODE,OUTDOORAIR:NODELIST,OutdoorAir:NodeList,OutdoorAir,1
 Non-Parent Node Connection,DU_BT=SPACE FUNCTION_ST=HWAY LODGING - ROOMS_FL=STORY 1_SCHF PTAC OA NODE,OUTDOORAIR:NODELIST,OutdoorAir:NodeList,OutdoorAir,2
 Non-Parent Node Connection,NODE 25,OUTDOORAIR:NODELIST,OutdoorAir:NodeList,OutdoorAir,3
 Non-Parent Node Connection,NODE 42,OUTDOORAIR:NODELIST,OutdoorAir:NodeList,OutdoorAir,4
 Non-Parent Node Connection,NODE 57,OUTDOORAIR:NODELIST,OutdoorAir:NodeList,OutdoorAir,5
 Non-Parent Node Connection,NODE 70,OUTDOORAIR:NODELIST,OutdoorAir:NodeList,OutdoorAir,6
 Non-Parent Node Connection,NODE 83,OUTDOORAIR:NODELIST,OutdoorAir:NodeList,OutdoorAir,7
 Non-Parent Node Connection,MODEL OUTDOOR AIR NODE,OUTDOORAIR:NODE,OutdoorAir:Node,OutdoorAir,8
 Non-Parent Node Connection,NODE 20,SETPOINTMANAGER:SCHEDULED,SETPOINT MANAGER SCHEDULED 1,Setpoint,1
 Non-Parent Node Connection,NODE 36,SETPOINTMANAGER:SCHEDULED,SETPOINT MANAGER SCHEDULED 2,Setpoint,1
 Non-Parent Node Connection,NODE 92,SETPOINTMANAGER:SCHEDULED,SERVICE HOT WATER SETPOINT MANAGER,Setpoint,1
 Non-Parent Node Connection,NODE 3,SETPOINTMANAGER:OUTDOORAIRRESET,SETPOINT MANAGER OUTDOOR AIR RESET 1,Setpoint,1
 Non-Parent Node Connection,NODE 7,SETPOINTMANAGER:SINGLEZONE:REHEAT,SETPOINT MANAGER SINGLE ZONE REHEAT 1,Sensor,1
 Non-Parent Node Connection,NODE 56,SETPOINTMANAGER:SINGLEZONE:REHEAT,SETPOINT MANAGER SINGLE ZONE REHEAT 1,Sensor,1
 Non-Parent Node Connection,NODE 53,SETPOINTMANAGER:SINGLEZONE:REHEAT,SETPOINT MANAGER SINGLE ZONE REHEAT 1,Setpoint,1
 Non-Parent Node Connection,NODE 10,SETPOINTMANAGER:SINGLEZONE:REHEAT,SETPOINT MANAGER SINGLE ZONE REHEAT 2,Sensor,1
 Non-Parent Node Connection,NODE 69,SETPOINTMANAGER:SINGLEZONE:REHEAT,SETPOINT MANAGER SINGLE ZONE REHEAT 2,Sensor,1
 Non-Parent Node Connection,NODE 66,SETPOINTMANAGER:SINGLEZONE:REHEAT,SETPOINT MANAGER SINGLE ZONE REHEAT 2,Setpoint,1
 Non-Parent Node Connection,NODE 13,SETPOINTMANAGER:SINGLEZONE:REHEAT,SETPOINT MANAGER SINGLE ZONE REHEAT 3,Sensor,1
 Non-Parent Node Connection,NODE 82,SETPOINTMANAGER:SINGLEZONE:REHEAT,SETPOINT MANAGER SINGLE ZONE REHEAT 3,Sensor,1
 Non-Parent Node Connection,NODE 79,SETPOINTMANAGER:SINGLEZONE:REHEAT,SETPOINT MANAGER SINGLE ZONE REHEAT 3,Setpoint,1
 Non-Parent Node Connection,NODE 20,SETPOINTMANAGER:MIXEDAIR,NODE 29 OS DEFAULT SPM,Sensor,1
 Non-Parent Node Connection,NODE 27,SETPOINTMANAGER:MIXEDAIR,NODE 29 OS DEFAULT SPM,Sensor,1
 Non-Parent Node Connection,NODE 29,SETPOINTMANAGER:MIXEDAIR,NODE 29 OS DEFAULT SPM,Setpoint,1
 Non-Parent Node Connection,NODE 20,SETPOINTMANAGER:MIXEDAIR,NODE 28 OS DEFAULT SPM,Sensor,1
 Non-Parent Node Connection,NODE 27,SETPOINTMANAGER:MIXEDAIR,NODE 28 OS DEFAULT SPM,Sensor,1
 Non-Parent Node Connection,NODE 28,SETPOINTMANAGER:MIXEDAIR,NODE 28 OS DEFAULT SPM,Setpoint,1
 Non-Parent Node Connection,NODE 20,SETPOINTMANAGER:MIXEDAIR,NODE 27 OS DEFAULT SPM,Sensor,1
 Non-Parent Node Connection,NODE 27,SETPOINTMANAGER:MIXEDAIR,NODE 27 OS DEFAULT SPM,Sensor,1
 Non-Parent Node Connection,NODE 27,SETPOINTMANAGER:MIXEDAIR,NODE 27 OS DEFAULT SPM,Setpoint,1
 Non-Parent Node Connection,NODE 36,SETPOINTMANAGER:MIXEDAIR,NODE 46 OS DEFAULT SPM,Sensor,1
 Non-Parent Node Connection,NODE 44,SETPOINTMANAGER:MIXEDAIR,NODE 46 OS DEFAULT SPM,Sensor,1
 Non-Parent Node Connection,NODE 46,SETPOINTMANAGER:MIXEDAIR,NODE 46 OS DEFAULT SPM,Setpoint,1
 Non-Parent Node Connection,NODE 36,SETPOINTMANAGER:MIXEDAIR,NODE 45 OS DEFAULT SPM,Sensor,1
 Non-Parent Node Connection,NODE 44,SETPOINTMANAGER:MIXEDAIR,NODE 45 OS DEFAULT SPM,Sensor,1
 Non-Parent Node Connection,NODE 45,SETPOINTMANAGER:MIXEDAIR,NODE 45 OS DEFAULT SPM,Setpoint,1
 Non-Parent Node Connection,NODE 36,SETPOINTMANAGER:MIXEDAIR,NODE 44 OS DEFAULT SPM,Sensor,1
 Non-Parent Node Connection,NODE 44,SETPOINTMANAGER:MIXEDAIR,NODE 44 OS DEFAULT SPM,Sensor,1
 Non-Parent Node Connection,NODE 44,SETPOINTMANAGER:MIXEDAIR,NODE 44 OS DEFAULT SPM,Setpoint,1
[...]
 Non-Parent Node Connection,NODE 101,CONNECTOR:MIXER,MAIN SERVICE WATER LOOP DEMAND MIXER,Inlet,1
 Non-Parent Node Connection,NODE 106,CONNECTOR:MIXER,MAIN SERVICE WATER LOOP DEMAND MIXER,Inlet,1
 Non-Parent Node Connection,NODE 108,CONNECTOR:MIXER,MAIN SERVICE WATER LOOP DEMAND MIXER,Inlet,1
 Non-Parent Node Connection,NODE 110,CONNECTOR:MIXER,MAIN SERVICE WATER LOOP DEMAND MIXER,Inlet,1
 Non-Parent Node Connection,NODE 112,CONNECTOR:MIXER,MAIN SERVICE WATER LOOP DEMAND MIXER,Inlet,1
 Non-Parent Node Connection,NODE 114,CONNECTOR:MIXER,MAIN SERVICE WATER LOOP DEMAND MIXER,Inlet,1
 Non-Parent Node Connection,MAIN SERVICE WATER LOOP DEMAND BYPASS PIPE OUTLET NODE,CONNECTOR:MIXER,MAIN SERVICE WATER LOOP DEMAND MIXER,Inlet,1
 Non-Parent Node Connection,NODE 97,CONNECTOR:SPLITTER,MAIN SERVICE WATER LOOP SUPPLY SPLITTER,Inlet,1
 Non-Parent Node Connection,NODE 93,CONNECTOR:SPLITTER,MAIN SERVICE WATER LOOP SUPPLY SPLITTER,Outlet,1
 Non-Parent Node Connection,NODE 99,CONNECTOR:SPLITTER,MAIN SERVICE WATER LOOP SUPPLY SPLITTER,Outlet,1
 Non-Parent Node Connection,NODE 102,CONNECTOR:MIXER,MAIN SERVICE WATER LOOP SUPPLY MIXER,Outlet,1
 Non-Parent Node Connection,NODE 98,CONNECTOR:MIXER,MAIN SERVICE WATER LOOP SUPPLY MIXER,Inlet,1
 Non-Parent Node Connection,NODE 100,CONNECTOR:MIXER,MAIN SERVICE WATER LOOP SUPPLY MIXER,Inlet,1
 Non-Parent Node Connection,NODE 105,WATERUSE:CONNECTIONS,WATER USE CONNECTIONS 1,Inlet,1
 Non-Parent Node Connection,NODE 106,WATERUSE:CONNECTIONS,WATER USE CONNECTIONS 1,Outlet,1
 Non-Parent Node Connection,NODE 107,WATERUSE:CONNECTIONS,WATER USE CONNECTIONS 2,Inlet,1
 Non-Parent Node Connection,NODE 108,WATERUSE:CONNECTIONS,WATER USE CONNECTIONS 2,Outlet,1
 Non-Parent Node Connection,NODE 109,WATERUSE:CONNECTIONS,WATER USE CONNECTIONS 3,Inlet,1
 Non-Parent Node Connection,NODE 110,WATERUSE:CONNECTIONS,WATER USE CONNECTIONS 3,Outlet,1
 Non-Parent Node Connection,NODE 111,WATERUSE:CONNECTIONS,WATER USE CONNECTIONS 4,Inlet,1
 Non-Parent Node Connection,NODE 112,WATERUSE:CONNECTIONS,WATER USE CONNECTIONS 4,Outlet,1
 Non-Parent Node Connection,NODE 113,WATERUSE:CONNECTIONS,WATER USE CONNECTIONS 5,Inlet,1
 Non-Parent Node Connection,NODE 114,WATERUSE:CONNECTIONS,WATER USE CONNECTIONS 5,Outlet,1
 Non-Parent Node Connection,NODE 21,AIRLOOPHVAC:ZONESPLITTER,AIR LOOP HVAC ZONE SPLITTER 1,Inlet,1
 Non-Parent Node Connection,NODE 23,AIRLOOPHVAC:ZONESPLITTER,AIR LOOP HVAC ZONE SPLITTER 1,Outlet,1
 Non-Parent Node Connection,NODE 37,AIRLOOPHVAC:ZONESPLITTER,AIR LOOP HVAC ZONE SPLITTER 2,Inlet,1
 Non-Parent Node Connection,NODE 39,AIRLOOPHVAC:ZONESPLITTER,AIR LOOP HVAC ZONE SPLITTER 2,Outlet,1
 Non-Parent Node Connection,NODE 54,AIRLOOPHVAC:ZONESPLITTER,AIR LOOP HVAC ZONE SPLITTER 3,Inlet,1
 Non-Parent Node Connection,NODE 56,AIRLOOPHVAC:ZONESPLITTER,AIR LOOP HVAC ZONE SPLITTER 3,Outlet,1
 Non-Parent Node Connection,NODE 67,AIRLOOPHVAC:ZONESPLITTER,AIR LOOP HVAC ZONE SPLITTER 4,Inlet,1
 Non-Parent Node Connection,NODE 69,AIRLOOPHVAC:ZONESPLITTER,AIR LOOP HVAC ZONE SPLITTER 4,Outlet,1
 Non-Parent Node Connection,NODE 80,AIRLOOPHVAC:ZONESPLITTER,AIR LOOP HVAC ZONE SPLITTER 5,Inlet,1
 Non-Parent Node Connection,NODE 82,AIRLOOPHVAC:ZONESPLITTER,AIR LOOP HVAC ZONE SPLITTER 5,Outlet,1
 Non-Parent Node Connection,NODE 56,AIRTERMINAL:SINGLEDUCT:UNCONTROLLED,AIR TERMINAL SINGLE DUCT UNCONTROLLED 3,Outlet,1
 Non-Parent Node Connection,NODE 69,AIRTERMINAL:SINGLEDUCT:UNCONTROLLED,AIR TERMINAL SINGLE DUCT UNCONTROLLED 4,Outlet,1
 Non-Parent Node Connection,NODE 82,AIRTERMINAL:SINGLEDUCT:UNCONTROLLED,AIR TERMINAL SINGLE DUCT UNCONTROLLED 5,Outlet,1
 Non-Parent Node Connection,NODE 23,AIRTERMINAL:SINGLEDUCT:UNCONTROLLED,AIR TERMINAL SINGLE DUCT UNCONTROLLED 1,Outlet,1
 Non-Parent Node Connection,NODE 39,AIRTERMINAL:SINGLEDUCT:UNCONTROLLED,AIR TERMINAL SINGLE DUCT UNCONTROLLED 2,Outlet,1
 Non-Parent Node Connection,NODE 63,ZONEHVAC:BASEBOARD:CONVECTIVE:WATER,ZONE HVAC BASEBOARD CONVECTIVE WATER 3,Inlet,1
 Non-Parent Node Connection,NODE 64,ZONEHVAC:BASEBOARD:CONVECTIVE:WATER,ZONE HVAC BASEBOARD CONVECTIVE WATER 3,Outlet,1
 Non-Parent Node Connection,NODE 76,ZONEHVAC:BASEBOARD:CONVECTIVE:WATER,ZONE HVAC BASEBOARD CONVECTIVE WATER 4,Inlet,1
 Non-Parent Node Connection,NODE 77,ZONEHVAC:BASEBOARD:CONVECTIVE:WATER,ZONE HVAC BASEBOARD CONVECTIVE WATER 4,Outlet,1
 Non-Parent Node Connection,NODE 89,ZONEHVAC:BASEBOARD:CONVECTIVE:WATER,ZONE HVAC BASEBOARD CONVECTIVE WATER 5,Inlet,1
 Non-Parent Node Connection,NODE 90,ZONEHVAC:BASEBOARD:CONVECTIVE:WATER,ZONE HVAC BASEBOARD CONVECTIVE WATER 5,Outlet,1
 Non-Parent Node Connection,NODE 32,ZONEHVAC:BASEBOARD:CONVECTIVE:WATER,ZONE HVAC BASEBOARD CONVECTIVE WATER 1,Inlet,1
 Non-Parent Node Connection,NODE 33,ZONEHVAC:BASEBOARD:CONVECTIVE:WATER,ZONE HVAC BASEBOARD CONVECTIVE WATER 1,Outlet,1
 Non-Parent Node Connection,NODE 49,ZONEHVAC:BASEBOARD:CONVECTIVE:WATER,ZONE HVAC BASEBOARD CONVECTIVE WATER 2,Inlet,1
 Non-Parent Node Connection,NODE 50,ZONEHVAC:BASEBOARD:CONVECTIVE:WATER,ZONE HVAC BASEBOARD CONVECTIVE WATER 2,Outlet,1
 Non-Parent Node Connection,DU_BT=SPACE FUNCTION_ST=HOTEL/MOTEL - ROOMS_FL=STORY 1_SCHF PTAC MIXED AIR NODE,OUTDOORAIR:MIXER,DU_BT=SPACE FUNCTION_ST=HOTEL/MOTEL - ROOMS_FL=STORY 1_SCHF PTAC OA MIXER,Outlet,1
 Non-Parent Node Connection,DU_BT=SPACE FUNCTION_ST=HOTEL/MOTEL - ROOMS_FL=STORY 1_SCHF PTAC OA NODE,OUTDOORAIR:MIXER,DU_BT=SPACE FUNCTION_ST=HOTEL/MOTEL - ROOMS_FL=STORY 1_SCHF PTAC OA MIXER,Inlet,1
 Non-Parent Node Connection,DU_BT=SPACE FUNCTION_ST=HOTEL/MOTEL - ROOMS_FL=STORY 1_SCHF PTAC RELIEF AIR NODE,OUTDOORAIR:MIXER,DU_BT=SPACE FUNCTION_ST=HOTEL/MOTEL - ROOMS_FL=STORY 1_SCHF PTAC OA MIXER,ReliefAir,1
 Non-Parent Node Connection,NODE 30,OUTDOORAIR:MIXER,DU_BT=SPACE FUNCTION_ST=HOTEL/MOTEL - ROOMS_FL=STORY 1_SCHF PTAC OA MIXER,Inlet,1
 Non-Parent Node Connection,DU_BT=SPACE FUNCTION_ST=HWAY LODGING - ROOMS_FL=STORY 1_SCHF PTAC MIXED AIR NODE,OUTDOORAIR:MIXER,DU_BT=SPACE FUNCTION_ST=HWAY LODGING - ROOMS_FL=STORY 1_SCHF PTAC OA MIXER,Outlet,1
 Non-Parent Node Connection,DU_BT=SPACE FUNCTION_ST=HWAY LODGING - ROOMS_FL=STORY 1_SCHF PTAC OA NODE,OUTDOORAIR:MIXER,DU_BT=SPACE FUNCTION_ST=HWAY LODGING - ROOMS_FL=STORY 1_SCHF PTAC OA MIXER,Inlet,1
 Non-Parent Node Connection,DU_BT=SPACE FUNCTION_ST=HWAY LODGING - ROOMS_FL=STORY 1_SCHF PTAC RELIEF AIR NODE,OUTDOORAIR:MIXER,DU_BT=SPACE FUNCTION_ST=HWAY LODGING - ROOMS_FL=STORY 1_SCHF PTAC OA MIXER,ReliefAir,1
 Non-Parent Node Connection,NODE 47,OUTDOORAIR:MIXER,DU_BT=SPACE FUNCTION_ST=HWAY LODGING - ROOMS_FL=STORY 1_SCHF PTAC OA MIXER,Inlet,1
 Non-Parent Node Connection,NODE 29,OUTDOORAIR:MIXER,AIR LOOP HVAC OUTDOOR AIR SYSTEM 1 OUTDOOR AIR MIXER,Outlet,1
 Non-Parent Node Connection,NODE 25,OUTDOORAIR:MIXER,AIR LOOP HVAC OUTDOOR AIR SYSTEM 1 OUTDOOR AIR MIXER,Inlet,1
 Non-Parent Node Connection,NODE 26,OUTDOORAIR:MIXER,AIR LOOP HVAC OUTDOOR AIR SYSTEM 1 OUTDOOR AIR MIXER,ReliefAir,1
 Non-Parent Node Connection,NODE 19,OUTDOORAIR:MIXER,AIR LOOP HVAC OUTDOOR AIR SYSTEM 1 OUTDOOR AIR MIXER,Inlet,1
 Non-Parent Node Connection,NODE 46,OUTDOORAIR:MIXER,AIR LOOP HVAC OUTDOOR AIR SYSTEM 2 OUTDOOR AIR MIXER,Outlet,1
 Non-Parent Node Connection,NODE 42,OUTDOORAIR:MIXER,AIR LOOP HVAC OUTDOOR AIR SYSTEM 2 OUTDOOR AIR MIXER,Inlet,1
 Non-Parent Node Connection,NODE 43,OUTDOORAIR:MIXER,AIR LOOP HVAC OUTDOOR AIR SYSTEM 2 OUTDOOR AIR MIXER,ReliefAir,1
 Non-Parent Node Connection,NODE 35,OUTDOORAIR:MIXER,AIR LOOP HVAC OUTDOOR AIR SYSTEM 2 OUTDOOR AIR MIXER,Inlet,1
 Non-Parent Node Connection,NODE 61,OUTDOORAIR:MIXER,AIR LOOP HVAC OUTDOOR AIR SYSTEM 3 OUTDOOR AIR MIXER,Outlet,1
 Non-Parent Node Connection,NODE 116,OUTDOORAIR:MIXER,AIR LOOP HVAC OUTDOOR AIR SYSTEM 3 OUTDOOR AIR MIXER,Inlet,1
 Non-Parent Node Connection,NODE 117,OUTDOORAIR:MIXER,AIR LOOP HVAC OUTDOOR AIR SYSTEM 3 OUTDOOR AIR MIXER,ReliefAir,1
 Non-Parent Node Connection,NODE 52,OUTDOORAIR:MIXER,AIR LOOP HVAC OUTDOOR AIR SYSTEM 3 OUTDOOR AIR MIXER,Inlet,1
 Non-Parent Node Connection,NODE 74,OUTDOORAIR:MIXER,AIR LOOP HVAC OUTDOOR AIR SYSTEM 4 OUTDOOR AIR MIXER,Outlet,1
 Non-Parent Node Connection,NODE 118,OUTDOORAIR:MIXER,AIR LOOP HVAC OUTDOOR AIR SYSTEM 4 OUTDOOR AIR MIXER,Inlet,1
 Non-Parent Node Connection,NODE 119,OUTDOORAIR:MIXER,AIR LOOP HVAC OUTDOOR AIR SYSTEM 4 OUTDOOR AIR MIXER,ReliefAir,1
 Non-Parent Node Connection,NODE 65,OUTDOORAIR:MIXER,AIR LOOP HVAC OUTDOOR AIR SYSTEM 4 OUTDOOR AIR MIXER,Inlet,1
 Non-Parent Node Connection,NODE 87,OUTDOORAIR:MIXER,AIR LOOP HVAC OUTDOOR AIR SYSTEM 5 OUTDOOR AIR MIXER,Outlet,1
 Non-Parent Node Connection,NODE 120,OUTDOORAIR:MIXER,AIR LOOP HVAC OUTDOOR AIR SYSTEM 5 OUTDOOR AIR MIXER,Inlet,1
 Non-Parent Node Connection,NODE 121,OUTDOORAIR:MIXER,AIR LOOP HVAC OUTDOOR AIR SYSTEM 5 OUTDOOR AIR MIXER,ReliefAir,1
 Non-Parent Node Connection,NODE 78,OUTDOORAIR:MIXER,AIR LOOP HVAC OUTDOOR AIR SYSTEM 5 OUTDOOR AIR MIXER,Inlet,1
 Non-Parent Node Connection,DU_BT=SPACE FUNCTION_ST=HOTEL/MOTEL - ROOMS_FL=STORY 1_SCHF PTAC HEATING COIL OUTLET NODE,FAN:CONSTANTVOLUME,FAN CONSTANT VOLUME 2,Inlet,1
 Non-Parent Node Connection,NODE 31,FAN:CONSTANTVOLUME,FAN CONSTANT VOLUME 2,Outlet,1
 Non-Parent Node Connection,DU_BT=SPACE FUNCTION_ST=HWAY LODGING - ROOMS_FL=STORY 1_SCHF PTAC HEATING COIL OUTLET NODE,FAN:CONSTANTVOLUME,FAN CONSTANT VOLUME 4,Inlet,1
 Non-Parent Node Connection,NODE 48,FAN:CONSTANTVOLUME,FAN CONSTANT VOLUME 4,Outlet,1
 Non-Parent Node Connection,NODE 27,FAN:CONSTANTVOLUME,FAN CONSTANT VOLUME 1,Inlet,1
 Non-Parent Node Connection,NODE 20,FAN:CONSTANTVOLUME,FAN CONSTANT VOLUME 1,Outlet,1
 Non-Parent Node Connection,NODE 44,FAN:CONSTANTVOLUME,FAN CONSTANT VOLUME 3,Inlet,1
 Non-Parent Node Connection,NODE 36,FAN:CONSTANTVOLUME,FAN CONSTANT VOLUME 3,Outlet,1
 Non-Parent Node Connection,NODE 59,FAN:CONSTANTVOLUME,FAN CONSTANT VOLUME 5,Inlet,1
 Non-Parent Node Connection,NODE 53,FAN:CONSTANTVOLUME,FAN CONSTANT VOLUME 5,Outlet,1
 Non-Parent Node Connection,NODE 72,FAN:CONSTANTVOLUME,FAN CONSTANT VOLUME 6,Inlet,1
 Non-Parent Node Connection,NODE 66,FAN:CONSTANTVOLUME,FAN CONSTANT VOLUME 6,Outlet,1
 Non-Parent Node Connection,NODE 85,FAN:CONSTANTVOLUME,FAN CONSTANT VOLUME 7,Inlet,1
 Non-Parent Node Connection,NODE 79,FAN:CONSTANTVOLUME,FAN CONSTANT VOLUME 7,Outlet,1
 Non-Parent Node Connection,DU_BT=SPACE FUNCTION_ST=HOTEL/MOTEL - ROOMS_FL=STORY 1_SCHF PTAC COOLING COIL OUTLET NODE,COIL:HEATING:ELECTRIC,COIL HEATING ELECTRIC 1,Inlet,1
 Non-Parent Node Connection,DU_BT=SPACE FUNCTION_ST=HOTEL/MOTEL - ROOMS_FL=STORY 1_SCHF PTAC HEATING COIL OUTLET NODE,COIL:HEATING:ELECTRIC,COIL HEATING ELECTRIC 1,Outlet,1
 Non-Parent Node Connection,DU_BT=SPACE FUNCTION_ST=HWAY LODGING - ROOMS_FL=STORY 1_SCHF PTAC COOLING COIL OUTLET NODE,COIL:HEATING:ELECTRIC,COIL HEATING ELECTRIC 2,Inlet,1
 Non-Parent Node Connection,DU_BT=SPACE FUNCTION_ST=HWAY LODGING - ROOMS_FL=STORY 1_SCHF PTAC HEATING COIL OUTLET NODE,COIL:HEATING:ELECTRIC,COIL HEATING ELECTRIC 2,Outlet,1
 Non-Parent Node Connection,NODE 60,COIL:HEATING:FUEL,COIL HEATING GAS 1,Inlet,1
 Non-Parent Node Connection,NODE 59,COIL:HEATING:FUEL,COIL HEATING GAS 1,Outlet,1
 Non-Parent Node Connection,NODE 59,COIL:HEATING:FUEL,COIL HEATING GAS 1,Sensor,1
 Non-Parent Node Connection,NODE 73,COIL:HEATING:FUEL,COIL HEATING GAS 2,Inlet,1
 Non-Parent Node Connection,NODE 72,COIL:HEATING:FUEL,COIL HEATING GAS 2,Outlet,1
 Non-Parent Node Connection,NODE 72,COIL:HEATING:FUEL,COIL HEATING GAS 2,Sensor,1
 Non-Parent Node Connection,NODE 86,COIL:HEATING:FUEL,COIL HEATING GAS 3,Inlet,1
 Non-Parent Node Connection,NODE 85,COIL:HEATING:FUEL,COIL HEATING GAS 3,Outlet,1
 Non-Parent Node Connection,NODE 85,COIL:HEATING:FUEL,COIL HEATING GAS 3,Sensor,1
 Non-Parent Node Connection,DU_BT=SPACE FUNCTION_ST=HOTEL/MOTEL - ROOMS_FL=STORY 1_SCHF PTAC MIXED AIR NODE,COIL:COOLING:DX:SINGLESPEED,COIL COOLING DX SINGLE SPEED 2 101KBTU/HR 9.3EER,Inlet,1
 Non-Parent Node Connection,DU_BT=SPACE FUNCTION_ST=HOTEL/MOTEL - ROOMS_FL=STORY 1_SCHF PTAC COOLING COIL OUTLET NODE,COIL:COOLING:DX:SINGLESPEED,COIL COOLING DX SINGLE SPEED 2 101KBTU/HR 9.3EER,Outlet,1
 Non-Parent Node Connection,DU_BT=SPACE FUNCTION_ST=HWAY LODGING - ROOMS_FL=STORY 1_SCHF PTAC MIXED AIR NODE,COIL:COOLING:DX:SINGLESPEED,COIL COOLING DX SINGLE SPEED 4 77KBTU/HR 9.3EER,Inlet,1
 Non-Parent Node Connection,DU_BT=SPACE FUNCTION_ST=HWAY LODGING - ROOMS_FL=STORY 1_SCHF PTAC COOLING COIL OUTLET NODE,COIL:COOLING:DX:SINGLESPEED,COIL COOLING DX SINGLE SPEED 4 77KBTU/HR 9.3EER,Outlet,1
 Non-Parent Node Connection,NODE 29,COIL:COOLING:DX:SINGLESPEED,COIL COOLING DX SINGLE SPEED 1 59KBTU/HR 14.0SEER,Inlet,1
 Non-Parent Node Connection,NODE 28,COIL:COOLING:DX:SINGLESPEED,COIL COOLING DX SINGLE SPEED 1 59KBTU/HR 14.0SEER,Outlet,1
 Non-Parent Node Connection,NODE 46,COIL:COOLING:DX:SINGLESPEED,COIL COOLING DX SINGLE SPEED 3 59KBTU/HR 14.0SEER,Inlet,1
 Non-Parent Node Connection,NODE 45,COIL:COOLING:DX:SINGLESPEED,COIL COOLING DX SINGLE SPEED 3 59KBTU/HR 14.0SEER,Outlet,1
 Non-Parent Node Connection,NODE 61,COIL:COOLING:DX:SINGLESPEED,COIL COOLING DX SINGLE SPEED 5 204KBTU/HR 9.7EER,Inlet,1
 Non-Parent Node Connection,NODE 60,COIL:COOLING:DX:SINGLESPEED,COIL COOLING DX SINGLE SPEED 5 204KBTU/HR 9.7EER,Outlet,1
 Non-Parent Node Connection,NODE 74,COIL:COOLING:DX:SINGLESPEED,COIL COOLING DX SINGLE SPEED 6 379KBTU/HR 8.21EER,Inlet,1
 Non-Parent Node Connection,NODE 73,COIL:COOLING:DX:SINGLESPEED,COIL COOLING DX SINGLE SPEED 6 379KBTU/HR 8.21EER,Outlet,1
 Non-Parent Node Connection,NODE 87,COIL:COOLING:DX:SINGLESPEED,COIL COOLING DX SINGLE SPEED 7 239KBTU/HR 9.7EER,Inlet,1
 Non-Parent Node Connection,NODE 86,COIL:COOLING:DX:SINGLESPEED,COIL COOLING DX SINGLE SPEED 7 239KBTU/HR 9.7EER,Outlet,1
 Non-Parent Node Connection,NODE 22,AIRLOOPHVAC:ZONEMIXER,AIR LOOP HVAC ZONE MIXER 1,Outlet,1
 Non-Parent Node Connection,NODE 34,AIRLOOPHVAC:ZONEMIXER,AIR LOOP HVAC ZONE MIXER 1,Inlet,1
 Non-Parent Node Connection,NODE 38,AIRLOOPHVAC:ZONEMIXER,AIR LOOP HVAC ZONE MIXER 2,Outlet,1
 Non-Parent Node Connection,NODE 51,AIRLOOPHVAC:ZONEMIXER,AIR LOOP HVAC ZONE MIXER 2,Inlet,1
 Non-Parent Node Connection,NODE 55,AIRLOOPHVAC:ZONEMIXER,AIR LOOP HVAC ZONE MIXER 3,Outlet,1
 Non-Parent Node Connection,NODE 62,AIRLOOPHVAC:ZONEMIXER,AIR LOOP HVAC ZONE MIXER 3,Inlet,1
 Non-Parent Node Connection,NODE 68,AIRLOOPHVAC:ZONEMIXER,AIR LOOP HVAC ZONE MIXER 4,Outlet,1
 Non-Parent Node Connection,NODE 75,AIRLOOPHVAC:ZONEMIXER,AIR LOOP HVAC ZONE MIXER 4,Inlet,1
 Non-Parent Node Connection,NODE 81,AIRLOOPHVAC:ZONEMIXER,AIR LOOP HVAC ZONE MIXER 5,Outlet,1
 Non-Parent Node Connection,NODE 88,AIRLOOPHVAC:ZONEMIXER,AIR LOOP HVAC ZONE MIXER 5,Inlet,1
 Non-Parent Node Connection,NODE 9,COIL:HEATING:WATER,COIL HEATING WATER 1,Inlet,2
 Non-Parent Node Connection,NODE 24,COIL:HEATING:WATER,COIL HEATING WATER 1,Outlet,2
 Non-Parent Node Connection,NODE 28,COIL:HEATING:WATER,COIL HEATING WATER 1,Inlet,1
 Non-Parent Node Connection,NODE 27,COIL:HEATING:WATER,COIL HEATING WATER 1,Outlet,1
 Non-Parent Node Connection,NODE 40,COIL:HEATING:WATER,COIL HEATING WATER 2,Inlet,2
 Non-Parent Node Connection,NODE 41,COIL:HEATING:WATER,COIL HEATING WATER 2,Outlet,2
 Non-Parent Node Connection,NODE 45,COIL:HEATING:WATER,COIL HEATING WATER 2,Inlet,1
 Non-Parent Node Connection,NODE 44,COIL:HEATING:WATER,COIL HEATING WATER 2,Outlet,1
 Non-Parent Node Connection,NODE 27,CONTROLLER:WATERCOIL,CONTROLLER WATER COIL 1,Sensor,1
 Non-Parent Node Connection,NODE 9,CONTROLLER:WATERCOIL,CONTROLLER WATER COIL 1,Actuator,1
 Non-Parent Node Connection,NODE 44,CONTROLLER:WATERCOIL,CONTROLLER WATER COIL 2,Sensor,1
 Non-Parent Node Connection,NODE 40,CONTROLLER:WATERCOIL,CONTROLLER WATER COIL 2,Actuator,1
 Non-Parent Node Connection,NODE 29,CONTROLLER:OUTDOORAIR,CONTROLLER OUTDOOR AIR 1,Sensor,1
 Non-Parent Node Connection,NODE 25,CONTROLLER:OUTDOORAIR,CONTROLLER OUTDOOR AIR 1,Actuator,1
 Non-Parent Node Connection,NODE 26,CONTROLLER:OUTDOORAIR,CONTROLLER OUTDOOR AIR 1,Actuator,1
 Non-Parent Node Connection,NODE 19,CONTROLLER:OUTDOORAIR,CONTROLLER OUTDOOR AIR 1,Sensor,1
 Non-Parent Node Connection,NODE 46,CONTROLLER:OUTDOORAIR,CONTROLLER OUTDOOR AIR 2,Sensor,1
 Non-Parent Node Connection,NODE 42,CONTROLLER:OUTDOORAIR,CONTROLLER OUTDOOR AIR 2,Actuator,1
 Non-Parent Node Connection,NODE 43,CONTROLLER:OUTDOORAIR,CONTROLLER OUTDOOR AIR 2,Actuator,1
 Non-Parent Node Connection,NODE 35,CONTROLLER:OUTDOORAIR,CONTROLLER OUTDOOR AIR 2,Sensor,1
 Non-Parent Node Connection,NODE 61,CONTROLLER:OUTDOORAIR,CONTROLLER OUTDOOR AIR 3,Sensor,1
 Non-Parent Node Connection,NODE 57,CONTROLLER:OUTDOORAIR,CONTROLLER OUTDOOR AIR 3,Actuator,1
 Non-Parent Node Connection,NODE 117,CONTROLLER:OUTDOORAIR,CONTROLLER OUTDOOR AIR 3,Actuator,1
 Non-Parent Node Connection,NODE 52,CONTROLLER:OUTDOORAIR,CONTROLLER OUTDOOR AIR 3,Sensor,1
 Non-Parent Node Connection,NODE 74,CONTROLLER:OUTDOORAIR,CONTROLLER OUTDOOR AIR 4,Sensor,1
 Non-Parent Node Connection,NODE 70,CONTROLLER:OUTDOORAIR,CONTROLLER OUTDOOR AIR 4,Actuator,1
 Non-Parent Node Connection,NODE 119,CONTROLLER:OUTDOORAIR,CONTROLLER OUTDOOR AIR 4,Actuator,1
 Non-Parent Node Connection,NODE 65,CONTROLLER:OUTDOORAIR,CONTROLLER OUTDOOR AIR 4,Sensor,1
 Non-Parent Node Connection,NODE 87,CONTROLLER:OUTDOORAIR,CONTROLLER OUTDOOR AIR 5,Sensor,1
 Non-Parent Node Connection,NODE 83,CONTROLLER:OUTDOORAIR,CONTROLLER OUTDOOR AIR 5,Actuator,1
 Non-Parent Node Connection,NODE 121,CONTROLLER:OUTDOORAIR,CONTROLLER OUTDOOR AIR 5,Actuator,1
 Non-Parent Node Connection,NODE 78,CONTROLLER:OUTDOORAIR,CONTROLLER OUTDOOR AIR 5,Sensor,1
 Non-Parent Node Connection,NODE 57,HEATEXCHANGER:AIRTOAIR:SENSIBLEANDLATENT,SYS_3_PSZ ALL_ST=HOTEL/MOTEL - LOBBY_FL=STORY 1_SCH=H ERV,Inlet,1
 Non-Parent Node Connection,NODE 116,HEATEXCHANGER:AIRTOAIR:SENSIBLEANDLATENT,SYS_3_PSZ ALL_ST=HOTEL/MOTEL - LOBBY_FL=STORY 1_SCH=H ERV,Outlet,1
 Non-Parent Node Connection,NODE 117,HEATEXCHANGER:AIRTOAIR:SENSIBLEANDLATENT,SYS_3_PSZ ALL_ST=HOTEL/MOTEL - LOBBY_FL=STORY 1_SCH=H ERV,Inlet,2
 Non-Parent Node Connection,NODE 58,HEATEXCHANGER:AIRTOAIR:SENSIBLEANDLATENT,SYS_3_PSZ ALL_ST=HOTEL/MOTEL - LOBBY_FL=STORY 1_SCH=H ERV,Outlet,2
 Non-Parent Node Connection,NODE 70,HEATEXCHANGER:AIRTOAIR:SENSIBLEANDLATENT,SYS_3_PSZ ALL_ST=HWAY LODGING - DINING_FL=STORY 1_SCH=B ERV,Inlet,1
 Non-Parent Node Connection,NODE 118,HEATEXCHANGER:AIRTOAIR:SENSIBLEANDLATENT,SYS_3_PSZ ALL_ST=HWAY LODGING - DINING_FL=STORY 1_SCH=B ERV,Outlet,1
 Non-Parent Node Connection,NODE 119,HEATEXCHANGER:AIRTOAIR:SENSIBLEANDLATENT,SYS_3_PSZ ALL_ST=HWAY LODGING - DINING_FL=STORY 1_SCH=B ERV,Inlet,2
 Non-Parent Node Connection,NODE 71,HEATEXCHANGER:AIRTOAIR:SENSIBLEANDLATENT,SYS_3_PSZ ALL_ST=HWAY LODGING - DINING_FL=STORY 1_SCH=B ERV,Outlet,2
 Non-Parent Node Connection,NODE 83,HEATEXCHANGER:AIRTOAIR:SENSIBLEANDLATENT,SYS_3_PSZ ALL_ST=LAB - CLASSROOMS_FL=STORY 1_SCH=D ERV,Inlet,1
 Non-Parent Node Connection,NODE 120,HEATEXCHANGER:AIRTOAIR:SENSIBLEANDLATENT,SYS_3_PSZ ALL_ST=LAB - CLASSROOMS_FL=STORY 1_SCH=D ERV,Outlet,1
 Non-Parent Node Connection,NODE 121,HEATEXCHANGER:AIRTOAIR:SENSIBLEANDLATENT,SYS_3_PSZ ALL_ST=LAB - CLASSROOMS_FL=STORY 1_SCH=D ERV,Inlet,2
 Non-Parent Node Connection,NODE 84,HEATEXCHANGER:AIRTOAIR:SENSIBLEANDLATENT,SYS_3_PSZ ALL_ST=LAB - CLASSROOMS_FL=STORY 1_SCH=D ERV,Outlet,2
 Non-Parent Node Connection,NODE 5,BOILER:HOTWATER,PRIMARY BOILER 329KBTU/HR 0.83 THERMAL EFF,Inlet,1
 Non-Parent Node Connection,NODE 12,BOILER:HOTWATER,PRIMARY BOILER 329KBTU/HR 0.83 THERMAL EFF,Outlet,1
 Non-Parent Node Connection,NODE 14,BOILER:HOTWATER,SECONDARY BOILER 329KBTU/HR 0.83 THERMAL EFF,Inlet,1
 Non-Parent Node Connection,NODE 15,BOILER:HOTWATER,SECONDARY BOILER 329KBTU/HR 0.83 THERMAL EFF,Outlet,1
 Non-Parent Node Connection,NODE 2,PUMP:VARIABLESPEED,PUMP VARIABLE SPEED 1,Inlet,1
 Non-Parent Node Connection,NODE 11,PUMP:VARIABLESPEED,PUMP VARIABLE SPEED 1,Outlet,1
 Non-Parent Node Connection,NODE 91,PUMP:CONSTANTSPEED,SERVICE WATER LOOP PUMP,Inlet,1
 Non-Parent Node Connection,NODE 97,PUMP:CONSTANTSPEED,SERVICE WATER LOOP PUMP,Outlet,1
