Program Version,EnergyPlus, Version 8.9.0-eba93e8e1b, YMD=2019.03.07 21:45
! This file shows details about the branches, nodes, and other
! elements of the flow connections.
! This file is intended for use in "debugging" potential problems
! that may also be detected by the program, but may be more easily
! identified by "eye".
! This file is also intended to support software which draws a
! schematic diagram of the HVAC system.
! ===============================================================
! #Nodes,<Number of Unique Nodes>
 #Nodes,430
! <Node>,<NodeNumber>,<Node Name>,<Node Fluid Type>,<# Times Node Referenced After Definition>
 Node,1,NODE 158,Air,3
 Node,2,NODE 148,Air,4
 Node,3,NODE 157,Air,3
 Node,4,NODE 201,Air,3
 Node,5,NODE 191,Air,4
 Node,6,NODE 200,Air,3
 Node,7,NODE 95,Air,4
 Node,8,NODE 82,Air,4
 Node,9,NODE 108,Air,4
 Node,10,NODE 244,Air,3
 Node,11,NODE 234,Air,4
 Node,12,NODE 243,Air,3
 Node,13,NODE 276,Air,4
 Node,14,NODE 316,Air,4
 Node,15,NODE 334,Air,4
 Node,16,NODE 263,Air,4
 Node,17,NODE 250,Air,4
 Node,18,NODE 27,Air,4
 Node,19,NODE 39,Air,3
 Node,20,NODE 45,Air,3
 Node,21,NODE 51,Air,3
 Node,22,NODE 57,Air,3
 Node,23,NODE 62,Air,3
 Node,24,NODE 66,Air,3
 Node,25,NODE 70,Air,3
 Node,26,NODE 74,Air,3
 Node,27,NODE 145,Air,10
 Node,28,NODE 146,Air,3
 Node,29,NODE 188,Air,10
 Node,30,NODE 189,Air,3
 Node,31,NODE 231,Air,10
 Node,32,NODE 232,Air,3
 Node,33,NODE 273,Air,10
 Node,34,NODE 274,Air,3
 Node,35,NODE 260,Air,10
 Node,36,NODE 261,Air,3
 Node,37,NODE 247,Air,10
 Node,38,NODE 248,Air,3
 Node,39,NODE 92,Air,10
 Node,40,NODE 93,Air,3
 Node,41,NODE 79,Air,10
 Node,42,NODE 80,Air,3
 Node,43,NODE 105,Air,10
 Node,44,NODE 106,Air,3
 Node,45,NODE 23,Air,10
 Node,46,NODE 24,Air,3
 Node,47,NODE 313,Air,12
 Node,48,NODE 314,Air,3
 Node,49,NODE 144,Air,3
 Node,50,NODE 153,Air,6
 Node,51,NODE 152,Air,6
 Node,52,NODE 151,Air,8
 Node,53,NODE 187,Air,3
 Node,54,NODE 196,Air,6
 Node,55,NODE 195,Air,6
 Node,56,NODE 194,Air,8
 Node,57,NODE 230,Air,3
 Node,58,NODE 239,Air,6
 Node,59,NODE 238,Air,6
 Node,60,NODE 237,Air,8
 Node,61,NODE 272,Air,3
 Node,62,NODE 281,Air,6
 Node,63,NODE 280,Air,6
 Node,64,NODE 279,Air,8
 Node,65,NODE 259,Air,3
 Node,66,NODE 268,Air,6
 Node,67,NODE 267,Air,6
 Node,68,NODE 266,Air,8
 Node,69,NODE 246,Air,3
 Node,70,NODE 255,Air,6
 Node,71,NODE 254,Air,6
 Node,72,NODE 253,Air,8
 Node,73,NODE 91,Air,3
 Node,74,NODE 100,Air,6
 Node,75,NODE 99,Air,6
 Node,76,NODE 98,Air,8
 Node,77,NODE 78,Air,3
 Node,78,NODE 87,Air,6
 Node,79,NODE 86,Air,6
 Node,80,NODE 85,Air,8
 Node,81,NODE 104,Air,3
 Node,82,NODE 113,Air,6
 Node,83,NODE 112,Air,6
 Node,84,NODE 111,Air,8
 Node,85,NODE 21,Air,3
 Node,86,NODE 35,Air,6
 Node,87,NODE 33,Air,6
 Node,88,NODE 32,Air,8
 Node,89,NODE 312,Air,2
 Node,90,NODE 325,Air,5
 Node,91,NODE 324,Air,5
 Node,92,NODE 323,Air,5
 Node,93,NODE 322,Air,9
 Node,94,NODE 117,Water,2
 Node,95,NODE 123,Water,1
 Node,96,NODE 119,Water,1
 Node,97,NODE 124,Water,1
 Node,98,NODE 125,Water,1
 Node,99,NODE 126,Water,1
 Node,100,NODE 127,Water,1
 Node,101,NODE 128,Water,1
 Node,102,NODE 129,Water,1
 Node,103,NODE 118,Water,4
 Node,104,NODE 120,Water,2
 Node,105,CHILLED WATER LOOP DEMAND INLET PIPE NODE,Water,1
 Node,106,NODE 122,Water,1
 Node,107,NODE 156,Water,1
 Node,108,CHILLED WATER LOOP DEMAND BYPASS PIPE INLET NODE,Water,1
 Node,109,CHILLED WATER LOOP DEMAND BYPASS PIPE OUTLET NODE,Water,1
 Node,110,CHILLED WATER LOOP DEMAND OUTLET PIPE NODE,Water,1
 Node,111,NODE 121,Water,2
 Node,112,NODE 160,Water,2
 Node,113,NODE 166,Water,1
 Node,114,NODE 162,Water,1
 Node,115,NODE 167,Water,1
 Node,116,NODE 168,Water,1
 Node,117,NODE 169,Water,1
 Node,118,NODE 170,Water,1
 Node,119,NODE 171,Water,1
 Node,120,NODE 172,Water,1
 Node,121,NODE 161,Water,4
 Node,122,NODE 163,Water,2
 Node,123,CHILLED WATER LOOP 1 DEMAND INLET PIPE NODE,Water,1
 Node,124,NODE 165,Water,1
 Node,125,NODE 199,Water,1
 Node,126,CHILLED WATER LOOP 1 DEMAND BYPASS PIPE INLET NODE,Water,1
 Node,127,CHILLED WATER LOOP 1 DEMAND BYPASS PIPE OUTLET NODE,Water,1
 Node,128,CHILLED WATER LOOP 1 DEMAND OUTLET PIPE NODE,Water,1
 Node,129,NODE 164,Water,2
 Node,130,NODE 203,Water,2
 Node,131,NODE 209,Water,1
 Node,132,NODE 205,Water,1
 Node,133,NODE 210,Water,1
 Node,134,NODE 211,Water,1
 Node,135,NODE 212,Water,1
 Node,136,NODE 213,Water,1
 Node,137,NODE 214,Water,1
 Node,138,NODE 215,Water,1
 Node,139,NODE 204,Water,4
 Node,140,NODE 206,Water,2
 Node,141,CHILLED WATER LOOP 2 DEMAND INLET PIPE NODE,Water,1
 Node,142,NODE 208,Water,1
 Node,143,NODE 242,Water,1
 Node,144,CHILLED WATER LOOP 2 DEMAND BYPASS PIPE INLET NODE,Water,1
 Node,145,CHILLED WATER LOOP 2 DEMAND BYPASS PIPE OUTLET NODE,Water,1
 Node,146,CHILLED WATER LOOP 2 DEMAND OUTLET PIPE NODE,Water,1
 Node,147,NODE 207,Water,2
 Node,148,NODE 285,Water,2
 Node,149,NODE 291,Water,1
 Node,150,NODE 287,Water,1
 Node,151,NODE 292,Water,1
 Node,152,NODE 293,Water,1
 Node,153,NODE 294,Water,1
 Node,154,NODE 295,Water,1
 Node,155,NODE 296,Water,1
 Node,156,NODE 297,Water,1
 Node,157,NODE 286,Water,4
 Node,158,NODE 288,Water,2
 Node,159,CHILLED WATER LOOP 3 DEMAND INLET PIPE NODE,Water,1
 Node,160,NODE 290,Water,2
 Node,161,NODE 319,Water,1
 Node,162,CHILLED WATER LOOP 3 DEMAND BYPASS PIPE INLET NODE,Water,1
 Node,163,CHILLED WATER LOOP 3 DEMAND BYPASS PIPE OUTLET NODE,Water,1
 Node,164,CHILLED WATER LOOP 3 DEMAND OUTLET PIPE NODE,Water,1
 Node,165,NODE 289,Water,2
 Node,166,NODE 130,Water,2
 Node,167,NODE 136,Water,1
 Node,168,NODE 132,Water,1
 Node,169,NODE 137,Water,1
 Node,170,NODE 138,Water,1
 Node,171,NODE 139,Water,1
 Node,172,NODE 140,Water,1
 Node,173,NODE 131,Water,4
 Node,174,NODE 133,Water,2
 Node,175,CONDENSER WATER LOOP DEMAND INLET PIPE NODE,Water,1
 Node,176,NODE 135,Water,1
 Node,177,NODE 141,Water,1
 Node,178,NODE 142,Water,1
 Node,179,NODE 143,Water,1
 Node,180,CONDENSER WATER LOOP DEMAND BYPASS PIPE INLET NODE,Water,1
 Node,181,CONDENSER WATER LOOP DEMAND BYPASS PIPE OUTLET NODE,Water,1
 Node,182,CONDENSER WATER LOOP DEMAND OUTLET PIPE NODE,Water,1
 Node,183,NODE 134,Water,2
 Node,184,NODE 173,Water,2
 Node,185,NODE 179,Water,1
 Node,186,NODE 175,Water,1
 Node,187,NODE 180,Water,1
 Node,188,NODE 181,Water,1
 Node,189,NODE 182,Water,1
 Node,190,NODE 183,Water,1
 Node,191,NODE 174,Water,4
 Node,192,NODE 176,Water,2
 Node,193,CONDENSER WATER LOOP 1 DEMAND INLET PIPE NODE,Water,1
 Node,194,NODE 178,Water,1
 Node,195,NODE 184,Water,1
 Node,196,NODE 185,Water,1
 Node,197,NODE 186,Water,1
 Node,198,CONDENSER WATER LOOP 1 DEMAND BYPASS PIPE INLET NODE,Water,1
 Node,199,CONDENSER WATER LOOP 1 DEMAND BYPASS PIPE OUTLET NODE,Water,1
 Node,200,CONDENSER WATER LOOP 1 DEMAND OUTLET PIPE NODE,Water,1
 Node,201,NODE 177,Water,2
 Node,202,NODE 216,Water,2
 Node,203,NODE 222,Water,1
 Node,204,NODE 218,Water,1
 Node,205,NODE 223,Water,1
 Node,206,NODE 224,Water,1
 Node,207,NODE 225,Water,1
 Node,208,NODE 226,Water,1
 Node,209,NODE 217,Water,4
 Node,210,NODE 219,Water,2
 Node,211,CONDENSER WATER LOOP 2 DEMAND INLET PIPE NODE,Water,1
 Node,212,NODE 221,Water,1
 Node,213,NODE 227,Water,1
 Node,214,NODE 228,Water,1
 Node,215,NODE 229,Water,1
 Node,216,CONDENSER WATER LOOP 2 DEMAND BYPASS PIPE INLET NODE,Water,1
 Node,217,CONDENSER WATER LOOP 2 DEMAND BYPASS PIPE OUTLET NODE,Water,1
 Node,218,CONDENSER WATER LOOP 2 DEMAND OUTLET PIPE NODE,Water,1
 Node,219,NODE 220,Water,2
 Node,220,NODE 298,Water,2
 Node,221,NODE 304,Water,1
 Node,222,NODE 300,Water,1
 Node,223,NODE 305,Water,1
 Node,224,NODE 306,Water,1
 Node,225,NODE 307,Water,1
 Node,226,NODE 308,Water,1
 Node,227,NODE 299,Water,4
 Node,228,NODE 301,Water,2
 Node,229,CONDENSER WATER LOOP 3 DEMAND INLET PIPE NODE,Water,1
 Node,230,NODE 303,Water,1
 Node,231,NODE 309,Water,1
 Node,232,NODE 310,Water,1
 Node,233,NODE 311,Water,1
 Node,234,CONDENSER WATER LOOP 3 DEMAND BYPASS PIPE INLET NODE,Water,1
 Node,235,CONDENSER WATER LOOP 3 DEMAND BYPASS PIPE OUTLET NODE,Water,1
 Node,236,CONDENSER WATER LOOP 3 DEMAND OUTLET PIPE NODE,Water,1
 Node,237,NODE 302,Water,2
 Node,238,NODE 2,Water,2
 Node,239,NODE 11,Water,1
 Node,240,NODE 5,Water,1
 Node,241,NODE 12,Water,1
 Node,242,NODE 14,Water,1
 Node,243,NODE 15,Water,1
 Node,244,NODE 17,Water,1
 Node,245,NODE 18,Water,1
 Node,246,NODE 20,Water,1
 Node,247,NODE 3,Water,4
 Node,248,NODE 6,Water,2
 Node,249,HOT WATER LOOP DEMAND INLET PIPE NODE,Water,1
 Node,250,NODE 9,Water,1
 Node,251,NODE 38,Water,1
 Node,252,NODE 42,Water,1
 Node,253,NODE 44,Water,1
 Node,254,NODE 48,Water,1
 Node,255,NODE 50,Water,1
 Node,256,NODE 54,Water,1
 Node,257,NODE 56,Water,1
 Node,258,NODE 60,Water,1
 Node,259,NODE 61,Water,1
 Node,260,NODE 64,Water,1
 Node,261,NODE 65,Water,1
 Node,262,NODE 68,Water,1
 Node,263,NODE 69,Water,1
 Node,264,NODE 72,Water,1
 Node,265,NODE 73,Water,1
 Node,266,NODE 76,Water,1
 Node,267,NODE 77,Water,1
 Node,268,NODE 89,Water,1
 Node,269,NODE 90,Water,1
 Node,270,NODE 102,Water,1
 Node,271,NODE 103,Water,1
 Node,272,NODE 115,Water,1
 Node,273,NODE 116,Water,1
 Node,274,NODE 154,Water,1
 Node,275,NODE 155,Water,1
 Node,276,NODE 197,Water,1
 Node,277,NODE 198,Water,1
 Node,278,NODE 240,Water,1
 Node,279,NODE 241,Water,1
 Node,280,NODE 257,Water,1
 Node,281,NODE 258,Water,1
 Node,282,NODE 270,Water,1
 Node,283,NODE 271,Water,1
 Node,284,NODE 283,Water,1
 Node,285,NODE 284,Water,1
 Node,286,NODE 317,Water,2
 Node,287,NODE 318,Water,1
 Node,288,NODE 326,Water,1
 Node,289,NODE 327,Water,1
 Node,290,NODE 330,Water,1
 Node,291,NODE 331,Water,1
 Node,292,NODE 332,Water,1
 Node,293,NODE 333,Water,1
 Node,294,NODE 337,Water,1
 Node,295,NODE 338,Water,1
 Node,296,HOT WATER LOOP DEMAND BYPASS PIPE INLET NODE,Water,1
 Node,297,HOT WATER LOOP DEMAND BYPASS PIPE OUTLET NODE,Water,1
 Node,298,HOT WATER LOOP DEMAND OUTLET PIPE NODE,Water,1
 Node,299,NODE 8,Water,2
 Node,300,NODE 339,Water,2
 Node,301,NODE 345,Water,1
 Node,302,NODE 341,Water,1
 Node,303,NODE 346,Water,1
 Node,304,NODE 347,Water,1
 Node,305,NODE 348,Water,1
 Node,306,NODE 350,Water,1
 Node,307,NODE 340,Water,4
 Node,308,NODE 342,Water,2
 Node,309,NODE 351,Water,1
 Node,310,NODE 344,Water,1
 Node,311,NODE 349,Water,1
 Node,312,NODE 353,Water,1
 Node,313,NODE 354,Water,1
 Node,314,NODE 355,Water,1
 Node,315,NODE 356,Water,1
 Node,316,NODE 357,Water,1
 Node,317,NODE 358,Water,1
 Node,318,NODE 359,Water,1
 Node,319,NODE 360,Water,1
 Node,320,NODE 361,Water,1
 Node,321,NODE 362,Water,1
 Node,322,NODE 363,Water,1
 Node,323,NODE 364,Water,1
 Node,324,NODE 365,Water,1
 Node,325,NODE 366,Water,1
 Node,326,NODE 367,Water,1
 Node,327,NODE 368,Water,1
 Node,328,NODE 369,Water,1
 Node,329,NODE 370,Water,1
 Node,330,NODE 371,Water,1
 Node,331,NODE 372,Water,1
 Node,332,NODE 373,Water,1
 Node,333,NODE 374,Water,1
 Node,334,MAIN SERVICE WATER LOOP DEMAND BYPASS PIPE INLET NODE,Water,1
 Node,335,MAIN SERVICE WATER LOOP DEMAND BYPASS PIPE OUTLET NODE,Water,1
 Node,336,NODE 352,Water,1
 Node,337,NODE 343,Water,2
 Node,338,NODE 31,Air,1
 Node,339,NODE 159,Air,1
 Node,340,NODE 37,Air,1
 Node,341,NODE 202,Air,1
 Node,342,NODE 34,Air,1
 Node,343,NODE 101,Air,1
 Node,344,NODE 28,Air,1
 Node,345,NODE 88,Air,1
 Node,346,NODE 52,Air,1
 Node,347,NODE 114,Air,1
 Node,348,NODE 55,Air,1
 Node,349,NODE 245,Air,1
 Node,350,NODE 58,Air,1
 Node,351,NODE 282,Air,1
 Node,352,NODE 43,Air,0
 Node,353,NODE 328,Air,1
 Node,354,NODE 49,Air,0
 Node,355,NODE 335,Air,1
 Node,356,NODE 46,Air,1
 Node,357,NODE 269,Air,1
 Node,358,NODE 40,Air,1
 Node,359,NODE 256,Air,1
 Node,360,NODE 1,Air,1
 Node,361,NODE 36,Air,1
 Node,362,NODE 4,Air,0
 Node,363,NODE 41,Air,1
 Node,364,NODE 7,Air,0
 Node,365,NODE 47,Air,1
 Node,366,NODE 10,Air,0
 Node,367,NODE 53,Air,1
 Node,368,NODE 13,Air,0
 Node,369,NODE 59,Air,1
 Node,370,NODE 16,Air,0
 Node,371,NODE 63,Air,1
 Node,372,NODE 19,Air,0
 Node,373,NODE 67,Air,1
 Node,374,NODE 22,Air,0
 Node,375,NODE 71,Air,1
 Node,376,NODE 25,Air,0
 Node,377,NODE 75,Air,1
 Node,378,NODE 147,Air,2
 Node,379,NODE 190,Air,2
 Node,380,NODE 233,Air,2
 Node,381,NODE 275,Air,2
 Node,382,NODE 262,Air,2
 Node,383,NODE 249,Air,2
 Node,384,NODE 94,Air,2
 Node,385,NODE 81,Air,2
 Node,386,NODE 107,Air,2
 Node,387,NODE 26,Air,2
 Node,388,NODE 315,Air,2
 Node,389,ZONE HVAC FOUR PIPE FAN COIL 1 OA NODE,Air,1
 Node,390,ZONE HVAC FOUR PIPE FAN COIL 2 OA NODE,Air,1
 Node,391,ZONE HVAC FOUR PIPE FAN COIL 3 OA NODE,Air,1
 Node,392,NODE 149,Air,2
 Node,393,NODE 192,Air,2
 Node,394,NODE 235,Air,2
 Node,395,NODE 277,Air,2
 Node,396,NODE 264,Air,2
 Node,397,NODE 251,Air,2
 Node,398,NODE 96,Air,2
 Node,399,NODE 83,Air,2
 Node,400,NODE 109,Air,2
 Node,401,NODE 29,Air,2
 Node,402,NODE 320,Air,2
 Node,403,MODEL OUTDOOR AIR NODE,Air,0
 Node,404,NODE 329,Air,1
 Node,405,NODE 336,Air,1
 Node,406,ZONE HVAC FOUR PIPE FAN COIL 1 MIXED AIR NODE,Air,1
 Node,407,ZONE HVAC FOUR PIPE FAN COIL 1 RELIEF AIR NODE,Air,0
 Node,408,ZONE HVAC FOUR PIPE FAN COIL 2 MIXED AIR NODE,Air,1
 Node,409,ZONE HVAC FOUR PIPE FAN COIL 2 RELIEF AIR NODE,Air,0
 Node,410,ZONE HVAC FOUR PIPE FAN COIL 3 MIXED AIR NODE,Air,1
 Node,411,ZONE HVAC FOUR PIPE FAN COIL 3 RELIEF AIR NODE,Air,0
 Node,412,NODE 150,Air,1
 Node,413,NODE 193,Air,1
 Node,414,NODE 236,Air,1
 Node,415,NODE 278,Air,1
 Node,416,NODE 265,Air,1
 Node,417,NODE 252,Air,1
 Node,418,NODE 97,Air,1
 Node,419,NODE 84,Air,1
 Node,420,NODE 110,Air,1
 Node,421,NODE 30,Air,1
 Node,422,NODE 321,Air,1
 Node,423,ZONE HVAC FOUR PIPE FAN COIL 1 COOLING COIL OUTLET NODE,Air,1
 Node,424,ZONE HVAC FOUR PIPE FAN COIL 2 COOLING COIL OUTLET NODE,Air,1
 Node,425,ZONE HVAC FOUR PIPE FAN COIL 3 COOLING COIL OUTLET NODE,Air,1
 Node,426,AIR TERMINAL SINGLE DUCT VAV REHEAT 1 DAMPER OUTLET,Air,1
 Node,427,AIR TERMINAL SINGLE DUCT VAV REHEAT 2 DAMPER OUTLET,Air,1
 Node,428,ZONE HVAC FOUR PIPE FAN COIL 1 FAN OUTLET NODE,Air,1
 Node,429,ZONE HVAC FOUR PIPE FAN COIL 2 FAN OUTLET NODE,Air,1
 Node,430,ZONE HVAC FOUR PIPE FAN COIL 3 FAN OUTLET NODE,Air,1
! ===============================================================
! Suspicious nodes have 0 references.  It is normal for some nodes, however.
! Listing nodes with 0 references (culled from previous list):
! <Suspicious Node>,<NodeNumber>,<Node Name>,<Node Fluid Type>,<# Times Node Referenced After Definition>
 Suspicious Node,352,NODE 43,Air,0
 Suspicious Node,354,NODE 49,Air,0
 Suspicious Node,362,NODE 4,Air,0
 Suspicious Node,364,NODE 7,Air,0
 Suspicious Node,366,NODE 10,Air,0
 Suspicious Node,368,NODE 13,Air,0
 Suspicious Node,370,NODE 16,Air,0
 Suspicious Node,372,NODE 19,Air,0
 Suspicious Node,374,NODE 22,Air,0
 Suspicious Node,376,NODE 25,Air,0
 Suspicious Node,403,MODEL OUTDOOR AIR NODE,Air,0
 Suspicious Node,407,ZONE HVAC FOUR PIPE FAN COIL 1 RELIEF AIR NODE,Air,0
 Suspicious Node,409,ZONE HVAC FOUR PIPE FAN COIL 2 RELIEF AIR NODE,Air,0
 Suspicious Node,411,ZONE HVAC FOUR PIPE FAN COIL 3 RELIEF AIR NODE,Air,0
! ===============================================================
! <#Branch Lists>,<Number of Branch Lists>
 #Branch Lists,31
! <Branch List>,<Branch List Count>,<Branch List Name>,<Loop Name>,<Loop Type>,<Number of Branches>
! <Branch>,<Branch Count>,<Branch Name>,<Loop Name>,<Loop Type>,<Branch Inlet Node Name>,<Branch Outlet Node Name>
 Branch List,1,SYS_2_MAKE-UP AIR UNIT SUPPLY BRANCHES,SYS_2_MAKE-UP AIR UNIT,Air,1
   Branch,1,SYS_2_MAKE-UP AIR UNIT MAIN BRANCH,SYS_2_MAKE-UP AIR UNIT,Air,NODE 144,NODE 145
 Branch List,2,SYS_2_MAKE-UP AIR UNIT 1 SUPPLY BRANCHES,SYS_2_MAKE-UP AIR UNIT 1,Air,1
   Branch,1,SYS_2_MAKE-UP AIR UNIT 1 MAIN BRANCH,SYS_2_MAKE-UP AIR UNIT 1,Air,NODE 187,NODE 188
 Branch List,3,SYS_2_MAKE-UP AIR UNIT 2 SUPPLY BRANCHES,SYS_2_MAKE-UP AIR UNIT 2,Air,1
   Branch,1,SYS_2_MAKE-UP AIR UNIT 2 MAIN BRANCH,SYS_2_MAKE-UP AIR UNIT 2,Air,NODE 230,NODE 231
 Branch List,4,SYS_3_PSZ ALL_ST=WHOLEBUILDING_FL=STORY 2_SCH=A 2 SUPPLY BRANCHES,SYS_3_PSZ ALL_ST=WHOLEBUILDING_FL=STORY 2_SCH=A 2,Air,1
   Branch,1,SYS_3_PSZ ALL_ST=WHOLEBUILDING_FL=STORY 2_SCH=A 2 MAIN BRANCH,SYS_3_PSZ ALL_ST=WHOLEBUILDING_FL=STORY 2_SCH=A 2,Air,NODE 272,NODE 273
 Branch List,5,SYS_3_PSZ ALL_ST=WHOLEBUILDING_FL=STORY 4_SCH=D SUPPLY BRANCHES,SYS_3_PSZ ALL_ST=WHOLEBUILDING_FL=STORY 4_SCH=D,Air,1
   Branch,1,SYS_3_PSZ ALL_ST=WHOLEBUILDING_FL=STORY 4_SCH=D MAIN BRANCH,SYS_3_PSZ ALL_ST=WHOLEBUILDING_FL=STORY 4_SCH=D,Air,NODE 259,NODE 260
 Branch List,6,SYS_3_PSZ ALL_ST=WORKSHOP SPACE_FL=STORY 1_SCH=A SUPPLY BRANCHES,SYS_3_PSZ ALL_ST=WORKSHOP SPACE_FL=STORY 1_SCH=A,Air,1
   Branch,1,SYS_3_PSZ ALL_ST=WORKSHOP SPACE_FL=STORY 1_SCH=A MAIN BRANCH,SYS_3_PSZ ALL_ST=WORKSHOP SPACE_FL=STORY 1_SCH=A,Air,NODE 246,NODE 247
 Branch List,7,SYS_4_PSZ_ALL_ST=WAREHOUSE - MED/BLK2_FL=STORY 3_SCH=A SUPPLY BRANCHES,SYS_4_PSZ_ALL_ST=WAREHOUSE - MED/BLK2_FL=STORY 3_SCH=A,Air,1
   Branch,1,SYS_4_PSZ_ALL_ST=WAREHOUSE - MED/BLK2_FL=STORY 3_SCH=A MAIN BRANCH,SYS_4_PSZ_ALL_ST=WAREHOUSE - MED/BLK2_FL=STORY 3_SCH=A,Air,NODE 91,NODE 92
 Branch List,8,SYS_4_PSZ_ALL_ST=WAREHOUSE - MED/BLK_FL=STORY 4_SCH=A SUPPLY BRANCHES,SYS_4_PSZ_ALL_ST=WAREHOUSE - MED/BLK_FL=STORY 4_SCH=A,Air,1
   Branch,1,SYS_4_PSZ_ALL_ST=WAREHOUSE - MED/BLK_FL=STORY 4_SCH=A MAIN BRANCH,SYS_4_PSZ_ALL_ST=WAREHOUSE - MED/BLK_FL=STORY 4_SCH=A,Air,NODE 78,NODE 79
 Branch List,9,SYS_4_PSZ_ALL_ST=WHOLEBUILDING_FL=STORY 2_SCH=A SUPPLY BRANCHES,SYS_4_PSZ_ALL_ST=WHOLEBUILDING_FL=STORY 2_SCH=A,Air,1
   Branch,1,SYS_4_PSZ_ALL_ST=WHOLEBUILDING_FL=STORY 2_SCH=A MAIN BRANCH,SYS_4_PSZ_ALL_ST=WHOLEBUILDING_FL=STORY 2_SCH=A,Air,NODE 104,NODE 105
 Branch List,10,SYS_4_PSZ_WET_ST=WASHROOM-SCH-A_FL=STORY 3_SCHA SUPPLY BRANCHES,SYS_4_PSZ_WET_ST=WASHROOM-SCH-A_FL=STORY 3_SCHA,Air,1
   Branch,1,SYS_4_PSZ_WET_ST=WASHROOM-SCH-A_FL=STORY 3_SCHA MAIN BRANCH,SYS_4_PSZ_WET_ST=WASHROOM-SCH-A_FL=STORY 3_SCHA,Air,NODE 21,NODE 23
 Branch List,11,SYS_6_VAV WITH REHEAT SUPPLY BRANCHES,SYS_6_VAV WITH REHEAT,Air,1
   Branch,1,SYS_6_VAV WITH REHEAT MAIN BRANCH,SYS_6_VAV WITH REHEAT,Air,NODE 312,NODE 313
 Branch List,12,CHILLED WATER LOOP SUPPLY BRANCHES,CHILLED WATER LOOP,Plant Supply,5
   Branch,1,CHILLED WATER LOOP SUPPLY INLET BRANCH,CHILLED WATER LOOP,Plant Supply,NODE 117,NODE 123
   Branch,2,CHILLED WATER LOOP SUPPLY BRANCH 1,CHILLED WATER LOOP,Plant Supply,NODE 119,NODE 124
   Branch,3,CHILLED WATER LOOP SUPPLY BRANCH 2,CHILLED WATER LOOP,Plant Supply,NODE 125,NODE 126
   Branch,4,CHILLED WATER LOOP SUPPLY BRANCH 3,CHILLED WATER LOOP,Plant Supply,NODE 127,NODE 128
   Branch,5,CHILLED WATER LOOP SUPPLY OUTLET BRANCH,CHILLED WATER LOOP,Plant Supply,NODE 129,NODE 118
 Branch List,13,CHILLED WATER LOOP DEMAND BRANCHES,CHILLED WATER LOOP,Plant Demand,4
   Branch,1,CHILLED WATER LOOP DEMAND INLET BRANCH,CHILLED WATER LOOP,Plant Demand,NODE 120,CHILLED WATER LOOP DEMAND INLET PIPE NODE
   Branch,2,CHILLED WATER LOOP DEMAND BRANCH 1,CHILLED WATER LOOP,Plant Demand,NODE 122,NODE 156
   Branch,3,CHILLED WATER LOOP DEMAND BYPASS BRANCH,CHILLED WATER LOOP,Plant Demand,CHILLED WATER LOOP DEMAND BYPASS PIPE INLET NODE,CHILLED WATER LOOP DEMAND BYPASS PIPE OUTLET NODE
   Branch,4,CHILLED WATER LOOP DEMAND OUTLET BRANCH,CHILLED WATER LOOP,Plant Demand,CHILLED WATER LOOP DEMAND OUTLET PIPE NODE,NODE 121
 Branch List,14,CHILLED WATER LOOP 1 SUPPLY BRANCHES,CHILLED WATER LOOP 1,Plant Supply,5
   Branch,1,CHILLED WATER LOOP 1 SUPPLY INLET BRANCH,CHILLED WATER LOOP 1,Plant Supply,NODE 160,NODE 166
   Branch,2,CHILLED WATER LOOP 1 SUPPLY BRANCH 1,CHILLED WATER LOOP 1,Plant Supply,NODE 162,NODE 167
   Branch,3,CHILLED WATER LOOP 1 SUPPLY BRANCH 2,CHILLED WATER LOOP 1,Plant Supply,NODE 168,NODE 169
   Branch,4,CHILLED WATER LOOP 1 SUPPLY BRANCH 3,CHILLED WATER LOOP 1,Plant Supply,NODE 170,NODE 171
   Branch,5,CHILLED WATER LOOP 1 SUPPLY OUTLET BRANCH,CHILLED WATER LOOP 1,Plant Supply,NODE 172,NODE 161
 Branch List,15,CHILLED WATER LOOP 1 DEMAND BRANCHES,CHILLED WATER LOOP 1,Plant Demand,4
   Branch,1,CHILLED WATER LOOP 1 DEMAND INLET BRANCH,CHILLED WATER LOOP 1,Plant Demand,NODE 163,CHILLED WATER LOOP 1 DEMAND INLET PIPE NODE
   Branch,2,CHILLED WATER LOOP 1 DEMAND BRANCH 1,CHILLED WATER LOOP 1,Plant Demand,NODE 165,NODE 199
   Branch,3,CHILLED WATER LOOP 1 DEMAND BYPASS BRANCH,CHILLED WATER LOOP 1,Plant Demand,CHILLED WATER LOOP 1 DEMAND BYPASS PIPE INLET NODE,CHILLED WATER LOOP 1 DEMAND BYPASS PIPE OUTLET NODE
   Branch,4,CHILLED WATER LOOP 1 DEMAND OUTLET BRANCH,CHILLED WATER LOOP 1,Plant Demand,CHILLED WATER LOOP 1 DEMAND OUTLET PIPE NODE,NODE 164
 Branch List,16,CHILLED WATER LOOP 2 SUPPLY BRANCHES,CHILLED WATER LOOP 2,Plant Supply,5
   Branch,1,CHILLED WATER LOOP 2 SUPPLY INLET BRANCH,CHILLED WATER LOOP 2,Plant Supply,NODE 203,NODE 209
   Branch,2,CHILLED WATER LOOP 2 SUPPLY BRANCH 1,CHILLED WATER LOOP 2,Plant Supply,NODE 205,NODE 210
   Branch,3,CHILLED WATER LOOP 2 SUPPLY BRANCH 2,CHILLED WATER LOOP 2,Plant Supply,NODE 211,NODE 212
   Branch,4,CHILLED WATER LOOP 2 SUPPLY BRANCH 3,CHILLED WATER LOOP 2,Plant Supply,NODE 213,NODE 214
   Branch,5,CHILLED WATER LOOP 2 SUPPLY OUTLET BRANCH,CHILLED WATER LOOP 2,Plant Supply,NODE 215,NODE 204
 Branch List,17,CHILLED WATER LOOP 2 DEMAND BRANCHES,CHILLED WATER LOOP 2,Plant Demand,4
   Branch,1,CHILLED WATER LOOP 2 DEMAND INLET BRANCH,CHILLED WATER LOOP 2,Plant Demand,NODE 206,CHILLED WATER LOOP 2 DEMAND INLET PIPE NODE
   Branch,2,CHILLED WATER LOOP 2 DEMAND BRANCH 1,CHILLED WATER LOOP 2,Plant Demand,NODE 208,NODE 242
   Branch,3,CHILLED WATER LOOP 2 DEMAND BYPASS BRANCH,CHILLED WATER LOOP 2,Plant Demand,CHILLED WATER LOOP 2 DEMAND BYPASS PIPE INLET NODE,CHILLED WATER LOOP 2 DEMAND BYPASS PIPE OUTLET NODE
   Branch,4,CHILLED WATER LOOP 2 DEMAND OUTLET BRANCH,CHILLED WATER LOOP 2,Plant Demand,CHILLED WATER LOOP 2 DEMAND OUTLET PIPE NODE,NODE 207
 Branch List,18,CHILLED WATER LOOP 3 SUPPLY BRANCHES,CHILLED WATER LOOP 3,Plant Supply,5
   Branch,1,CHILLED WATER LOOP 3 SUPPLY INLET BRANCH,CHILLED WATER LOOP 3,Plant Supply,NODE 285,NODE 291
   Branch,2,CHILLED WATER LOOP 3 SUPPLY BRANCH 1,CHILLED WATER LOOP 3,Plant Supply,NODE 287,NODE 292
   Branch,3,CHILLED WATER LOOP 3 SUPPLY BRANCH 2,CHILLED WATER LOOP 3,Plant Supply,NODE 293,NODE 294
   Branch,4,CHILLED WATER LOOP 3 SUPPLY BRANCH 3,CHILLED WATER LOOP 3,Plant Supply,NODE 295,NODE 296
   Branch,5,CHILLED WATER LOOP 3 SUPPLY OUTLET BRANCH,CHILLED WATER LOOP 3,Plant Supply,NODE 297,NODE 286
 Branch List,19,CHILLED WATER LOOP 3 DEMAND BRANCHES,CHILLED WATER LOOP 3,Plant Demand,4
   Branch,1,CHILLED WATER LOOP 3 DEMAND INLET BRANCH,CHILLED WATER LOOP 3,Plant Demand,NODE 288,CHILLED WATER LOOP 3 DEMAND INLET PIPE NODE
   Branch,2,CHILLED WATER LOOP 3 DEMAND BRANCH 1,CHILLED WATER LOOP 3,Plant Demand,NODE 290,NODE 319
   Branch,3,CHILLED WATER LOOP 3 DEMAND BYPASS BRANCH,CHILLED WATER LOOP 3,Plant Demand,CHILLED WATER LOOP 3 DEMAND BYPASS PIPE INLET NODE,CHILLED WATER LOOP 3 DEMAND BYPASS PIPE OUTLET NODE
   Branch,4,CHILLED WATER LOOP 3 DEMAND OUTLET BRANCH,CHILLED WATER LOOP 3,Plant Demand,CHILLED WATER LOOP 3 DEMAND OUTLET PIPE NODE,NODE 289
 Branch List,20,CONDENSER WATER LOOP SUPPLY BRANCHES,CONDENSER WATER LOOP,Plant Supply,4
   Branch,1,CONDENSER WATER LOOP SUPPLY INLET BRANCH,CONDENSER WATER LOOP,Plant Supply,NODE 130,NODE 136
   Branch,2,CONDENSER WATER LOOP SUPPLY BRANCH 1,CONDENSER WATER LOOP,Plant Supply,NODE 132,NODE 137
   Branch,3,CONDENSER WATER LOOP SUPPLY BRANCH 2,CONDENSER WATER LOOP,Plant Supply,NODE 138,NODE 139
   Branch,4,CONDENSER WATER LOOP SUPPLY OUTLET BRANCH,CONDENSER WATER LOOP,Plant Supply,NODE 140,NODE 131
 Branch List,21,CONDENSER WATER LOOP DEMAND BRANCHES,CONDENSER WATER LOOP,Plant Demand,5
   Branch,1,CONDENSER WATER LOOP DEMAND INLET BRANCH,CONDENSER WATER LOOP,Plant Demand,NODE 133,CONDENSER WATER LOOP DEMAND INLET PIPE NODE
   Branch,2,CONDENSER WATER LOOP DEMAND BRANCH 1,CONDENSER WATER LOOP,Plant Demand,NODE 135,NODE 141
   Branch,3,CONDENSER WATER LOOP DEMAND BRANCH 2,CONDENSER WATER LOOP,Plant Demand,NODE 142,NODE 143
   Branch,4,CONDENSER WATER LOOP DEMAND BYPASS BRANCH,CONDENSER WATER LOOP,Plant Demand,CONDENSER WATER LOOP DEMAND BYPASS PIPE INLET NODE,CONDENSER WATER LOOP DEMAND BYPASS PIPE OUTLET NODE
   Branch,5,CONDENSER WATER LOOP DEMAND OUTLET BRANCH,CONDENSER WATER LOOP,Plant Demand,CONDENSER WATER LOOP DEMAND OUTLET PIPE NODE,NODE 134
 Branch List,22,CONDENSER WATER LOOP 1 SUPPLY BRANCHES,CONDENSER WATER LOOP 1,Plant Supply,4
   Branch,1,CONDENSER WATER LOOP 1 SUPPLY INLET BRANCH,CONDENSER WATER LOOP 1,Plant Supply,NODE 173,NODE 179
   Branch,2,CONDENSER WATER LOOP 1 SUPPLY BRANCH 1,CONDENSER WATER LOOP 1,Plant Supply,NODE 175,NODE 180
   Branch,3,CONDENSER WATER LOOP 1 SUPPLY BRANCH 2,CONDENSER WATER LOOP 1,Plant Supply,NODE 181,NODE 182
   Branch,4,CONDENSER WATER LOOP 1 SUPPLY OUTLET BRANCH,CONDENSER WATER LOOP 1,Plant Supply,NODE 183,NODE 174
 Branch List,23,CONDENSER WATER LOOP 1 DEMAND BRANCHES,CONDENSER WATER LOOP 1,Plant Demand,5
   Branch,1,CONDENSER WATER LOOP 1 DEMAND INLET BRANCH,CONDENSER WATER LOOP 1,Plant Demand,NODE 176,CONDENSER WATER LOOP 1 DEMAND INLET PIPE NODE
   Branch,2,CONDENSER WATER LOOP 1 DEMAND BRANCH 1,CONDENSER WATER LOOP 1,Plant Demand,NODE 178,NODE 184
   Branch,3,CONDENSER WATER LOOP 1 DEMAND BRANCH 2,CONDENSER WATER LOOP 1,Plant Demand,NODE 185,NODE 186
   Branch,4,CONDENSER WATER LOOP 1 DEMAND BYPASS BRANCH,CONDENSER WATER LOOP 1,Plant Demand,CONDENSER WATER LOOP 1 DEMAND BYPASS PIPE INLET NODE,CONDENSER WATER LOOP 1 DEMAND BYPASS PIPE OUTLET NODE
   Branch,5,CONDENSER WATER LOOP 1 DEMAND OUTLET BRANCH,CONDENSER WATER LOOP 1,Plant Demand,CONDENSER WATER LOOP 1 DEMAND OUTLET PIPE NODE,NODE 177
 Branch List,24,CONDENSER WATER LOOP 2 SUPPLY BRANCHES,CONDENSER WATER LOOP 2,Plant Supply,4
   Branch,1,CONDENSER WATER LOOP 2 SUPPLY INLET BRANCH,CONDENSER WATER LOOP 2,Plant Supply,NODE 216,NODE 222
   Branch,2,CONDENSER WATER LOOP 2 SUPPLY BRANCH 1,CONDENSER WATER LOOP 2,Plant Supply,NODE 218,NODE 223
   Branch,3,CONDENSER WATER LOOP 2 SUPPLY BRANCH 2,CONDENSER WATER LOOP 2,Plant Supply,NODE 224,NODE 225
   Branch,4,CONDENSER WATER LOOP 2 SUPPLY OUTLET BRANCH,CONDENSER WATER LOOP 2,Plant Supply,NODE 226,NODE 217
 Branch List,25,CONDENSER WATER LOOP 2 DEMAND BRANCHES,CONDENSER WATER LOOP 2,Plant Demand,5
   Branch,1,CONDENSER WATER LOOP 2 DEMAND INLET BRANCH,CONDENSER WATER LOOP 2,Plant Demand,NODE 219,CONDENSER WATER LOOP 2 DEMAND INLET PIPE NODE
   Branch,2,CONDENSER WATER LOOP 2 DEMAND BRANCH 1,CONDENSER WATER LOOP 2,Plant Demand,NODE 221,NODE 227
   Branch,3,CONDENSER WATER LOOP 2 DEMAND BRANCH 2,CONDENSER WATER LOOP 2,Plant Demand,NODE 228,NODE 229
   Branch,4,CONDENSER WATER LOOP 2 DEMAND BYPASS BRANCH,CONDENSER WATER LOOP 2,Plant Demand,CONDENSER WATER LOOP 2 DEMAND BYPASS PIPE INLET NODE,CONDENSER WATER LOOP 2 DEMAND BYPASS PIPE OUTLET NODE
   Branch,5,CONDENSER WATER LOOP 2 DEMAND OUTLET BRANCH,CONDENSER WATER LOOP 2,Plant Demand,CONDENSER WATER LOOP 2 DEMAND OUTLET PIPE NODE,NODE 220
 Branch List,26,CONDENSER WATER LOOP 3 SUPPLY BRANCHES,CONDENSER WATER LOOP 3,Plant Supply,4
   Branch,1,CONDENSER WATER LOOP 3 SUPPLY INLET BRANCH,CONDENSER WATER LOOP 3,Plant Supply,NODE 298,NODE 304
   Branch,2,CONDENSER WATER LOOP 3 SUPPLY BRANCH 1,CONDENSER WATER LOOP 3,Plant Supply,NODE 300,NODE 305
   Branch,3,CONDENSER WATER LOOP 3 SUPPLY BRANCH 2,CONDENSER WATER LOOP 3,Plant Supply,NODE 306,NODE 307
   Branch,4,CONDENSER WATER LOOP 3 SUPPLY OUTLET BRANCH,CONDENSER WATER LOOP 3,Plant Supply,NODE 308,NODE 299
 Branch List,27,CONDENSER WATER LOOP 3 DEMAND BRANCHES,CONDENSER WATER LOOP 3,Plant Demand,5
   Branch,1,CONDENSER WATER LOOP 3 DEMAND INLET BRANCH,CONDENSER WATER LOOP 3,Plant Demand,NODE 301,CONDENSER WATER LOOP 3 DEMAND INLET PIPE NODE
   Branch,2,CONDENSER WATER LOOP 3 DEMAND BRANCH 1,CONDENSER WATER LOOP 3,Plant Demand,NODE 303,NODE 309
   Branch,3,CONDENSER WATER LOOP 3 DEMAND BRANCH 2,CONDENSER WATER LOOP 3,Plant Demand,NODE 310,NODE 311
   Branch,4,CONDENSER WATER LOOP 3 DEMAND BYPASS BRANCH,CONDENSER WATER LOOP 3,Plant Demand,CONDENSER WATER LOOP 3 DEMAND BYPASS PIPE INLET NODE,CONDENSER WATER LOOP 3 DEMAND BYPASS PIPE OUTLET NODE
   Branch,5,CONDENSER WATER LOOP 3 DEMAND OUTLET BRANCH,CONDENSER WATER LOOP 3,Plant Demand,CONDENSER WATER LOOP 3 DEMAND OUTLET PIPE NODE,NODE 302
 Branch List,28,HOT WATER LOOP SUPPLY BRANCHES,HOT WATER LOOP,Plant Supply,5
   Branch,1,HOT WATER LOOP SUPPLY INLET BRANCH,HOT WATER LOOP,Plant Supply,NODE 2,NODE 11
   Branch,2,HOT WATER LOOP SUPPLY BRANCH 1,HOT WATER LOOP,Plant Supply,NODE 5,NODE 12
   Branch,3,HOT WATER LOOP SUPPLY BRANCH 2,HOT WATER LOOP,Plant Supply,NODE 14,NODE 15
   Branch,4,HOT WATER LOOP SUPPLY BRANCH 3,HOT WATER LOOP,Plant Supply,NODE 17,NODE 18
   Branch,5,HOT WATER LOOP SUPPLY OUTLET BRANCH,HOT WATER LOOP,Plant Supply,NODE 20,NODE 3
 Branch List,29,HOT WATER LOOP DEMAND BRANCHES,HOT WATER LOOP,Plant Demand,26
   Branch,1,HOT WATER LOOP DEMAND INLET BRANCH,HOT WATER LOOP,Plant Demand,NODE 6,HOT WATER LOOP DEMAND INLET PIPE NODE
   Branch,2,HOT WATER LOOP DEMAND BRANCH 1,HOT WATER LOOP,Plant Demand,NODE 9,NODE 38
   Branch,3,HOT WATER LOOP DEMAND BRANCH 2,HOT WATER LOOP,Plant Demand,NODE 42,NODE 44
   Branch,4,HOT WATER LOOP DEMAND BRANCH 3,HOT WATER LOOP,Plant Demand,NODE 48,NODE 50
   Branch,5,HOT WATER LOOP DEMAND BRANCH 4,HOT WATER LOOP,Plant Demand,NODE 54,NODE 56
   Branch,6,HOT WATER LOOP DEMAND BRANCH 5,HOT WATER LOOP,Plant Demand,NODE 60,NODE 61
   Branch,7,HOT WATER LOOP DEMAND BRANCH 6,HOT WATER LOOP,Plant Demand,NODE 64,NODE 65
   Branch,8,HOT WATER LOOP DEMAND BRANCH 7,HOT WATER LOOP,Plant Demand,NODE 68,NODE 69
   Branch,9,HOT WATER LOOP DEMAND BRANCH 8,HOT WATER LOOP,Plant Demand,NODE 72,NODE 73
   Branch,10,HOT WATER LOOP DEMAND BRANCH 9,HOT WATER LOOP,Plant Demand,NODE 76,NODE 77
   Branch,11,HOT WATER LOOP DEMAND BRANCH 10,HOT WATER LOOP,Plant Demand,NODE 89,NODE 90
   Branch,12,HOT WATER LOOP DEMAND BRANCH 11,HOT WATER LOOP,Plant Demand,NODE 102,NODE 103
   Branch,13,HOT WATER LOOP DEMAND BRANCH 12,HOT WATER LOOP,Plant Demand,NODE 115,NODE 116
   Branch,14,HOT WATER LOOP DEMAND BRANCH 13,HOT WATER LOOP,Plant Demand,NODE 154,NODE 155
   Branch,15,HOT WATER LOOP DEMAND BRANCH 14,HOT WATER LOOP,Plant Demand,NODE 197,NODE 198
   Branch,16,HOT WATER LOOP DEMAND BRANCH 15,HOT WATER LOOP,Plant Demand,NODE 240,NODE 241
   Branch,17,HOT WATER LOOP DEMAND BRANCH 16,HOT WATER LOOP,Plant Demand,NODE 257,NODE 258
   Branch,18,HOT WATER LOOP DEMAND BRANCH 17,HOT WATER LOOP,Plant Demand,NODE 270,NODE 271
   Branch,19,HOT WATER LOOP DEMAND BRANCH 18,HOT WATER LOOP,Plant Demand,NODE 283,NODE 284
   Branch,20,HOT WATER LOOP DEMAND BRANCH 19,HOT WATER LOOP,Plant Demand,NODE 317,NODE 318
   Branch,21,HOT WATER LOOP DEMAND BRANCH 20,HOT WATER LOOP,Plant Demand,NODE 326,NODE 327
   Branch,22,HOT WATER LOOP DEMAND BRANCH 21,HOT WATER LOOP,Plant Demand,NODE 330,NODE 331
   Branch,23,HOT WATER LOOP DEMAND BRANCH 22,HOT WATER LOOP,Plant Demand,NODE 332,NODE 333
   Branch,24,HOT WATER LOOP DEMAND BRANCH 23,HOT WATER LOOP,Plant Demand,NODE 337,NODE 338
   Branch,25,HOT WATER LOOP DEMAND BYPASS BRANCH,HOT WATER LOOP,Plant Demand,HOT WATER LOOP DEMAND BYPASS PIPE INLET NODE,HOT WATER LOOP DEMAND BYPASS PIPE OUTLET NODE
   Branch,26,HOT WATER LOOP DEMAND OUTLET BRANCH,HOT WATER LOOP,Plant Demand,HOT WATER LOOP DEMAND OUTLET PIPE NODE,NODE 8
 Branch List,30,MAIN SERVICE WATER LOOP SUPPLY BRANCHES,MAIN SERVICE WATER LOOP,Plant Supply,4
   Branch,1,MAIN SERVICE WATER LOOP SUPPLY INLET BRANCH,MAIN SERVICE WATER LOOP,Plant Supply,NODE 339,NODE 345
   Branch,2,MAIN SERVICE WATER LOOP SUPPLY BRANCH 1,MAIN SERVICE WATER LOOP,Plant Supply,NODE 341,NODE 346
   Branch,3,MAIN SERVICE WATER LOOP SUPPLY BRANCH 2,MAIN SERVICE WATER LOOP,Plant Supply,NODE 347,NODE 348
   Branch,4,MAIN SERVICE WATER LOOP SUPPLY OUTLET BRANCH,MAIN SERVICE WATER LOOP,Plant Supply,NODE 350,NODE 340
 Branch List,31,MAIN SERVICE WATER LOOP DEMAND BRANCHES,MAIN SERVICE WATER LOOP,Plant Demand,15
   Branch,1,MAIN SERVICE WATER LOOP DEMAND INLET BRANCH,MAIN SERVICE WATER LOOP,Plant Demand,NODE 342,NODE 351
   Branch,2,MAIN SERVICE WATER LOOP DEMAND BRANCH 1,MAIN SERVICE WATER LOOP,Plant Demand,NODE 344,NODE 349
   Branch,3,MAIN SERVICE WATER LOOP DEMAND BRANCH 2,MAIN SERVICE WATER LOOP,Plant Demand,NODE 353,NODE 354
   Branch,4,MAIN SERVICE WATER LOOP DEMAND BRANCH 3,MAIN SERVICE WATER LOOP,Plant Demand,NODE 355,NODE 356
   Branch,5,MAIN SERVICE WATER LOOP DEMAND BRANCH 4,MAIN SERVICE WATER LOOP,Plant Demand,NODE 357,NODE 358
   Branch,6,MAIN SERVICE WATER LOOP DEMAND BRANCH 5,MAIN SERVICE WATER LOOP,Plant Demand,NODE 359,NODE 360
   Branch,7,MAIN SERVICE WATER LOOP DEMAND BRANCH 6,MAIN SERVICE WATER LOOP,Plant Demand,NODE 361,NODE 362
   Branch,8,MAIN SERVICE WATER LOOP DEMAND BRANCH 7,MAIN SERVICE WATER LOOP,Plant Demand,NODE 363,NODE 364
   Branch,9,MAIN SERVICE WATER LOOP DEMAND BRANCH 8,MAIN SERVICE WATER LOOP,Plant Demand,NODE 365,NODE 366
   Branch,10,MAIN SERVICE WATER LOOP DEMAND BRANCH 9,MAIN SERVICE WATER LOOP,Plant Demand,NODE 367,NODE 368
   Branch,11,MAIN SERVICE WATER LOOP DEMAND BRANCH 10,MAIN SERVICE WATER LOOP,Plant Demand,NODE 369,NODE 370
   Branch,12,MAIN SERVICE WATER LOOP DEMAND BRANCH 11,MAIN SERVICE WATER LOOP,Plant Demand,NODE 371,NODE 372
   Branch,13,MAIN SERVICE WATER LOOP DEMAND BRANCH 12,MAIN SERVICE WATER LOOP,Plant Demand,NODE 373,NODE 374
   Branch,14,MAIN SERVICE WATER LOOP DEMAND BYPASS BRANCH,MAIN SERVICE WATER LOOP,Plant Demand,MAIN SERVICE WATER LOOP DEMAND BYPASS PIPE INLET NODE,MAIN SERVICE WATER LOOP DEMAND BYPASS PIPE OUTLET NODE
   Branch,15,MAIN SERVICE WATER LOOP DEMAND OUTLET BRANCH,MAIN SERVICE WATER LOOP,Plant Demand,NODE 352,NODE 343
! ===============================================================
! <#Supply Air Paths>,<Number of Supply Air Paths>
 #Supply Air Paths,11
! <Supply Air Path>,<Supply Air Path Count>,<Supply Air Path Name>,<AirLoopHVAC Name>
! <#Components on Supply Air Path>,<Number of Components>
! <Supply Air Path Component>,<Component Count>,<Component Type>,<Component Name>,<AirLoopHVAC Name>
! <#Outlet Nodes on Supply Air Path Component>,<Number of Nodes>
! <Supply Air Path Component Nodes>,<Node Count>,<Component Type>,<Component Name>,<Inlet Node Name>,<Outlet Node Name>,<AirLoopHVAC Name>
 Supply Air Path,1,SYS_2_MAKE-UP AIR UNIT NODE 146 SUPPLY PATH,SYS_2_MAKE-UP AIR UNIT
   #Components on Supply Air Path,1
   Supply Air Path Component,1,AIRLOOPHVAC:ZONESPLITTER,AIR LOOP HVAC ZONE SPLITTER 5,SYS_2_MAKE-UP AIR UNIT
     #Outlet Nodes on Supply Air Path Component,1
     Supply Air Path Component Nodes,1,AIRLOOPHVAC:ZONESPLITTER,AIR LOOP HVAC ZONE SPLITTER 5,NODE 146,NODE 148,SYS_2_MAKE-UP AIR UNIT
! <#Nodes on Supply Air Path>,<Number of Nodes>
! <Supply Air Path Node>,<Node Type>,<Node Count>,<Node Name>,<AirLoopHVAC Name>
#Nodes on Supply Air Path,2
   Supply Air Path Node,Inlet Node,1,NODE 146,SYS_2_MAKE-UP AIR UNIT
   Supply Air Path Node,Outlet Node,2,NODE 148,SYS_2_MAKE-UP AIR UNIT
 Supply Air Path,2,SYS_2_MAKE-UP AIR UNIT 1 NODE 189 SUPPLY PATH,SYS_2_MAKE-UP AIR UNIT 1
   #Components on Supply Air Path,1
   Supply Air Path Component,1,AIRLOOPHVAC:ZONESPLITTER,AIR LOOP HVAC ZONE SPLITTER 6,SYS_2_MAKE-UP AIR UNIT 1
     #Outlet Nodes on Supply Air Path Component,1
     Supply Air Path Component Nodes,1,AIRLOOPHVAC:ZONESPLITTER,AIR LOOP HVAC ZONE SPLITTER 6,NODE 189,NODE 191,SYS_2_MAKE-UP AIR UNIT 1
! <#Nodes on Supply Air Path>,<Number of Nodes>
! <Supply Air Path Node>,<Node Type>,<Node Count>,<Node Name>,<AirLoopHVAC Name>
#Nodes on Supply Air Path,2
   Supply Air Path Node,Inlet Node,1,NODE 189,SYS_2_MAKE-UP AIR UNIT 1
   Supply Air Path Node,Outlet Node,2,NODE 191,SYS_2_MAKE-UP AIR UNIT 1
 Supply Air Path,3,SYS_2_MAKE-UP AIR UNIT 2 NODE 232 SUPPLY PATH,SYS_2_MAKE-UP AIR UNIT 2
   #Components on Supply Air Path,1
   Supply Air Path Component,1,AIRLOOPHVAC:ZONESPLITTER,AIR LOOP HVAC ZONE SPLITTER 7,SYS_2_MAKE-UP AIR UNIT 2
     #Outlet Nodes on Supply Air Path Component,1
     Supply Air Path Component Nodes,1,AIRLOOPHVAC:ZONESPLITTER,AIR LOOP HVAC ZONE SPLITTER 7,NODE 232,NODE 234,SYS_2_MAKE-UP AIR UNIT 2
! <#Nodes on Supply Air Path>,<Number of Nodes>
! <Supply Air Path Node>,<Node Type>,<Node Count>,<Node Name>,<AirLoopHVAC Name>
#Nodes on Supply Air Path,2
   Supply Air Path Node,Inlet Node,1,NODE 232,SYS_2_MAKE-UP AIR UNIT 2
   Supply Air Path Node,Outlet Node,2,NODE 234,SYS_2_MAKE-UP AIR UNIT 2
 Supply Air Path,4,SYS_3_PSZ ALL_ST=WHOLEBUILDING_FL=STORY 2_SCH=A 2 NODE 274 SUPPLY PATH,SYS_3_PSZ ALL_ST=WHOLEBUILDING_FL=STORY 2_SCH=A 2
   #Components on Supply Air Path,1
   Supply Air Path Component,1,AIRLOOPHVAC:ZONESPLITTER,AIR LOOP HVAC ZONE SPLITTER 10,SYS_3_PSZ ALL_ST=WHOLEBUILDING_FL=STORY 2_SCH=A 2
     #Outlet Nodes on Supply Air Path Component,1
     Supply Air Path Component Nodes,1,AIRLOOPHVAC:ZONESPLITTER,AIR LOOP HVAC ZONE SPLITTER 10,NODE 274,NODE 276,SYS_3_PSZ ALL_ST=WHOLEBUILDING_FL=STORY 2_SCH=A 2
! <#Nodes on Supply Air Path>,<Number of Nodes>
! <Supply Air Path Node>,<Node Type>,<Node Count>,<Node Name>,<AirLoopHVAC Name>
#Nodes on Supply Air Path,2
   Supply Air Path Node,Inlet Node,1,NODE 274,SYS_3_PSZ ALL_ST=WHOLEBUILDING_FL=STORY 2_SCH=A 2
   Supply Air Path Node,Outlet Node,2,NODE 276,SYS_3_PSZ ALL_ST=WHOLEBUILDING_FL=STORY 2_SCH=A 2
 Supply Air Path,5,SYS_3_PSZ ALL_ST=WHOLEBUILDING_FL=STORY 4_SCH=D NODE 261 SUPPLY PATH,SYS_3_PSZ ALL_ST=WHOLEBUILDING_FL=STORY 4_SCH=D
   #Components on Supply Air Path,1
   Supply Air Path Component,1,AIRLOOPHVAC:ZONESPLITTER,AIR LOOP HVAC ZONE SPLITTER 9,SYS_3_PSZ ALL_ST=WHOLEBUILDING_FL=STORY 4_SCH=D
     #Outlet Nodes on Supply Air Path Component,1
     Supply Air Path Component Nodes,1,AIRLOOPHVAC:ZONESPLITTER,AIR LOOP HVAC ZONE SPLITTER 9,NODE 261,NODE 263,SYS_3_PSZ ALL_ST=WHOLEBUILDING_FL=STORY 4_SCH=D
! <#Nodes on Supply Air Path>,<Number of Nodes>
! <Supply Air Path Node>,<Node Type>,<Node Count>,<Node Name>,<AirLoopHVAC Name>
#Nodes on Supply Air Path,2
   Supply Air Path Node,Inlet Node,1,NODE 261,SYS_3_PSZ ALL_ST=WHOLEBUILDING_FL=STORY 4_SCH=D
   Supply Air Path Node,Outlet Node,2,NODE 263,SYS_3_PSZ ALL_ST=WHOLEBUILDING_FL=STORY 4_SCH=D
 Supply Air Path,6,SYS_3_PSZ ALL_ST=WORKSHOP SPACE_FL=STORY 1_SCH=A NODE 248 SUPPLY PATH,SYS_3_PSZ ALL_ST=WORKSHOP SPACE_FL=STORY 1_SCH=A
   #Components on Supply Air Path,1
   Supply Air Path Component,1,AIRLOOPHVAC:ZONESPLITTER,AIR LOOP HVAC ZONE SPLITTER 8,SYS_3_PSZ ALL_ST=WORKSHOP SPACE_FL=STORY 1_SCH=A
     #Outlet Nodes on Supply Air Path Component,1
     Supply Air Path Component Nodes,1,AIRLOOPHVAC:ZONESPLITTER,AIR LOOP HVAC ZONE SPLITTER 8,NODE 248,NODE 250,SYS_3_PSZ ALL_ST=WORKSHOP SPACE_FL=STORY 1_SCH=A
! <#Nodes on Supply Air Path>,<Number of Nodes>
! <Supply Air Path Node>,<Node Type>,<Node Count>,<Node Name>,<AirLoopHVAC Name>
#Nodes on Supply Air Path,2
   Supply Air Path Node,Inlet Node,1,NODE 248,SYS_3_PSZ ALL_ST=WORKSHOP SPACE_FL=STORY 1_SCH=A
   Supply Air Path Node,Outlet Node,2,NODE 250,SYS_3_PSZ ALL_ST=WORKSHOP SPACE_FL=STORY 1_SCH=A
 Supply Air Path,7,SYS_4_PSZ_ALL_ST=WAREHOUSE - MED/BLK2_FL=STORY 3_SCH=A NODE 93 SUPPLY PATH,SYS_4_PSZ_ALL_ST=WAREHOUSE - MED/BLK2_FL=STORY 3_SCH=A
   #Components on Supply Air Path,1
   Supply Air Path Component,1,AIRLOOPHVAC:ZONESPLITTER,AIR LOOP HVAC ZONE SPLITTER 3,SYS_4_PSZ_ALL_ST=WAREHOUSE - MED/BLK2_FL=STORY 3_SCH=A
     #Outlet Nodes on Supply Air Path Component,1
     Supply Air Path Component Nodes,1,AIRLOOPHVAC:ZONESPLITTER,AIR LOOP HVAC ZONE SPLITTER 3,NODE 93,NODE 95,SYS_4_PSZ_ALL_ST=WAREHOUSE - MED/BLK2_FL=STORY 3_SCH=A
! <#Nodes on Supply Air Path>,<Number of Nodes>
! <Supply Air Path Node>,<Node Type>,<Node Count>,<Node Name>,<AirLoopHVAC Name>
#Nodes on Supply Air Path,2
   Supply Air Path Node,Inlet Node,1,NODE 93,SYS_4_PSZ_ALL_ST=WAREHOUSE - MED/BLK2_FL=STORY 3_SCH=A
   Supply Air Path Node,Outlet Node,2,NODE 95,SYS_4_PSZ_ALL_ST=WAREHOUSE - MED/BLK2_FL=STORY 3_SCH=A
 Supply Air Path,8,SYS_4_PSZ_ALL_ST=WAREHOUSE - MED/BLK_FL=STORY 4_SCH=A NODE 80 SUPPLY PATH,SYS_4_PSZ_ALL_ST=WAREHOUSE - MED/BLK_FL=STORY 4_SCH=A
   #Components on Supply Air Path,1
   Supply Air Path Component,1,AIRLOOPHVAC:ZONESPLITTER,AIR LOOP HVAC ZONE SPLITTER 2,SYS_4_PSZ_ALL_ST=WAREHOUSE - MED/BLK_FL=STORY 4_SCH=A
     #Outlet Nodes on Supply Air Path Component,1
     Supply Air Path Component Nodes,1,AIRLOOPHVAC:ZONESPLITTER,AIR LOOP HVAC ZONE SPLITTER 2,NODE 80,NODE 82,SYS_4_PSZ_ALL_ST=WAREHOUSE - MED/BLK_FL=STORY 4_SCH=A
! <#Nodes on Supply Air Path>,<Number of Nodes>
! <Supply Air Path Node>,<Node Type>,<Node Count>,<Node Name>,<AirLoopHVAC Name>
#Nodes on Supply Air Path,2
   Supply Air Path Node,Inlet Node,1,NODE 80,SYS_4_PSZ_ALL_ST=WAREHOUSE - MED/BLK_FL=STORY 4_SCH=A
   Supply Air Path Node,Outlet Node,2,NODE 82,SYS_4_PSZ_ALL_ST=WAREHOUSE - MED/BLK_FL=STORY 4_SCH=A
 Supply Air Path,9,SYS_4_PSZ_ALL_ST=WHOLEBUILDING_FL=STORY 2_SCH=A NODE 106 SUPPLY PATH,SYS_4_PSZ_ALL_ST=WHOLEBUILDING_FL=STORY 2_SCH=A
   #Components on Supply Air Path,1
   Supply Air Path Component,1,AIRLOOPHVAC:ZONESPLITTER,AIR LOOP HVAC ZONE SPLITTER 4,SYS_4_PSZ_ALL_ST=WHOLEBUILDING_FL=STORY 2_SCH=A
     #Outlet Nodes on Supply Air Path Component,1
     Supply Air Path Component Nodes,1,AIRLOOPHVAC:ZONESPLITTER,AIR LOOP HVAC ZONE SPLITTER 4,NODE 106,NODE 108,SYS_4_PSZ_ALL_ST=WHOLEBUILDING_FL=STORY 2_SCH=A
! <#Nodes on Supply Air Path>,<Number of Nodes>
! <Supply Air Path Node>,<Node Type>,<Node Count>,<Node Name>,<AirLoopHVAC Name>
#Nodes on Supply Air Path,2
   Supply Air Path Node,Inlet Node,1,NODE 106,SYS_4_PSZ_ALL_ST=WHOLEBUILDING_FL=STORY 2_SCH=A
   Supply Air Path Node,Outlet Node,2,NODE 108,SYS_4_PSZ_ALL_ST=WHOLEBUILDING_FL=STORY 2_SCH=A
 Supply Air Path,10,SYS_4_PSZ_WET_ST=WASHROOM-SCH-A_FL=STORY 3_SCHA NODE 24 SUPPLY PATH,SYS_4_PSZ_WET_ST=WASHROOM-SCH-A_FL=STORY 3_SCHA
   #Components on Supply Air Path,1
   Supply Air Path Component,1,AIRLOOPHVAC:ZONESPLITTER,AIR LOOP HVAC ZONE SPLITTER 1,SYS_4_PSZ_WET_ST=WASHROOM-SCH-A_FL=STORY 3_SCHA
     #Outlet Nodes on Supply Air Path Component,9
     Supply Air Path Component Nodes,1,AIRLOOPHVAC:ZONESPLITTER,AIR LOOP HVAC ZONE SPLITTER 1,NODE 24,NODE 27,SYS_4_PSZ_WET_ST=WASHROOM-SCH-A_FL=STORY 3_SCHA
     Supply Air Path Component Nodes,2,AIRLOOPHVAC:ZONESPLITTER,AIR LOOP HVAC ZONE SPLITTER 1,NODE 24,NODE 39,SYS_4_PSZ_WET_ST=WASHROOM-SCH-A_FL=STORY 3_SCHA
     Supply Air Path Component Nodes,3,AIRLOOPHVAC:ZONESPLITTER,AIR LOOP HVAC ZONE SPLITTER 1,NODE 24,NODE 45,SYS_4_PSZ_WET_ST=WASHROOM-SCH-A_FL=STORY 3_SCHA
     Supply Air Path Component Nodes,4,AIRLOOPHVAC:ZONESPLITTER,AIR LOOP HVAC ZONE SPLITTER 1,NODE 24,NODE 51,SYS_4_PSZ_WET_ST=WASHROOM-SCH-A_FL=STORY 3_SCHA
     Supply Air Path Component Nodes,5,AIRLOOPHVAC:ZONESPLITTER,AIR LOOP HVAC ZONE SPLITTER 1,NODE 24,NODE 57,SYS_4_PSZ_WET_ST=WASHROOM-SCH-A_FL=STORY 3_SCHA
     Supply Air Path Component Nodes,6,AIRLOOPHVAC:ZONESPLITTER,AIR LOOP HVAC ZONE SPLITTER 1,NODE 24,NODE 62,SYS_4_PSZ_WET_ST=WASHROOM-SCH-A_FL=STORY 3_SCHA
     Supply Air Path Component Nodes,7,AIRLOOPHVAC:ZONESPLITTER,AIR LOOP HVAC ZONE SPLITTER 1,NODE 24,NODE 66,SYS_4_PSZ_WET_ST=WASHROOM-SCH-A_FL=STORY 3_SCHA
     Supply Air Path Component Nodes,8,AIRLOOPHVAC:ZONESPLITTER,AIR LOOP HVAC ZONE SPLITTER 1,NODE 24,NODE 70,SYS_4_PSZ_WET_ST=WASHROOM-SCH-A_FL=STORY 3_SCHA
     Supply Air Path Component Nodes,9,AIRLOOPHVAC:ZONESPLITTER,AIR LOOP HVAC ZONE SPLITTER 1,NODE 24,NODE 74,SYS_4_PSZ_WET_ST=WASHROOM-SCH-A_FL=STORY 3_SCHA
! <#Nodes on Supply Air Path>,<Number of Nodes>
! <Supply Air Path Node>,<Node Type>,<Node Count>,<Node Name>,<AirLoopHVAC Name>
#Nodes on Supply Air Path,10
   Supply Air Path Node,Inlet Node,1,NODE 24,SYS_4_PSZ_WET_ST=WASHROOM-SCH-A_FL=STORY 3_SCHA
   Supply Air Path Node,Outlet Node,2,NODE 27,SYS_4_PSZ_WET_ST=WASHROOM-SCH-A_FL=STORY 3_SCHA
   Supply Air Path Node,Outlet Node,3,NODE 39,SYS_4_PSZ_WET_ST=WASHROOM-SCH-A_FL=STORY 3_SCHA
   Supply Air Path Node,Outlet Node,4,NODE 45,SYS_4_PSZ_WET_ST=WASHROOM-SCH-A_FL=STORY 3_SCHA
   Supply Air Path Node,Outlet Node,5,NODE 51,SYS_4_PSZ_WET_ST=WASHROOM-SCH-A_FL=STORY 3_SCHA
   Supply Air Path Node,Outlet Node,6,NODE 57,SYS_4_PSZ_WET_ST=WASHROOM-SCH-A_FL=STORY 3_SCHA
   Supply Air Path Node,Outlet Node,7,NODE 62,SYS_4_PSZ_WET_ST=WASHROOM-SCH-A_FL=STORY 3_SCHA
   Supply Air Path Node,Outlet Node,8,NODE 66,SYS_4_PSZ_WET_ST=WASHROOM-SCH-A_FL=STORY 3_SCHA
   Supply Air Path Node,Outlet Node,9,NODE 70,SYS_4_PSZ_WET_ST=WASHROOM-SCH-A_FL=STORY 3_SCHA
   Supply Air Path Node,Outlet Node,10,NODE 74,SYS_4_PSZ_WET_ST=WASHROOM-SCH-A_FL=STORY 3_SCHA
 Supply Air Path,11,SYS_6_VAV WITH REHEAT NODE 314 SUPPLY PATH,SYS_6_VAV WITH REHEAT
   #Components on Supply Air Path,1
   Supply Air Path Component,1,AIRLOOPHVAC:ZONESPLITTER,AIR LOOP HVAC ZONE SPLITTER 11,SYS_6_VAV WITH REHEAT
     #Outlet Nodes on Supply Air Path Component,2
     Supply Air Path Component Nodes,1,AIRLOOPHVAC:ZONESPLITTER,AIR LOOP HVAC ZONE SPLITTER 11,NODE 314,NODE 329,SYS_6_VAV WITH REHEAT
     Supply Air Path Component Nodes,2,AIRLOOPHVAC:ZONESPLITTER,AIR LOOP HVAC ZONE SPLITTER 11,NODE 314,NODE 336,SYS_6_VAV WITH REHEAT
! <#Nodes on Supply Air Path>,<Number of Nodes>
! <Supply Air Path Node>,<Node Type>,<Node Count>,<Node Name>,<AirLoopHVAC Name>
#Nodes on Supply Air Path,3
   Supply Air Path Node,Inlet Node,1,NODE 314,SYS_6_VAV WITH REHEAT
   Supply Air Path Node,Outlet Node,2,NODE 329,SYS_6_VAV WITH REHEAT
   Supply Air Path Node,Outlet Node,3,NODE 336,SYS_6_VAV WITH REHEAT
! ===============================================================
! <#Return Air Paths>,<Number of Return Air Paths>
 #Return Air Paths,11
! <Return Air Path>,<Return Air Path Count>,<Return Air Path Name>,<AirLoopHVAC Name>
! <#Components on Return Air Path>,<Number of Components>
! <Return Air Path Component>,<Component Count>,<Component Type>,<Component Name>,<AirLoopHVAC Name>
! <#Inlet Nodes on Return Air Path Component>,<Number of Nodes>
! <Return Air Path Component Nodes>,<Node Count>,<Component Type>,<Component Name>,<Inlet Node Name>,<Outlet Node Name>,<AirLoopHVAC Name>
 Return Air Path,1,SYS_2_MAKE-UP AIR UNIT RETURN PATH,SYS_2_MAKE-UP AIR UNIT
   #Components on Return Air Path,1
   Return Air Path Component,1,AIRLOOPHVAC:ZONEMIXER,AIR LOOP HVAC ZONE MIXER 5,SYS_2_MAKE-UP AIR UNIT
     #Inlet Nodes on Return Air Path Component,1
     Return Air Path Component Nodes,1,AIRLOOPHVAC:ZONEMIXER,AIR LOOP HVAC ZONE MIXER 5,NODE 159,NODE 147,SYS_2_MAKE-UP AIR UNIT
! <#Nodes on Return Air Path>,<Number of Nodes>
! <Return Air Path Node>,<Node Type>,<Node Count>,<Node Name>,<AirLoopHVAC Name>
   #Nodes on Return Air Path,2
   Return Air Path Node,Outlet Node,1,NODE 147,SYS_2_MAKE-UP AIR UNIT
   Return Air Path Node,Inlet Node,2,NODE 159,SYS_2_MAKE-UP AIR UNIT
 Return Air Path,2,SYS_2_MAKE-UP AIR UNIT 1 RETURN PATH,SYS_2_MAKE-UP AIR UNIT 1
   #Components on Return Air Path,1
   Return Air Path Component,1,AIRLOOPHVAC:ZONEMIXER,AIR LOOP HVAC ZONE MIXER 6,SYS_2_MAKE-UP AIR UNIT 1
     #Inlet Nodes on Return Air Path Component,1
     Return Air Path Component Nodes,1,AIRLOOPHVAC:ZONEMIXER,AIR LOOP HVAC ZONE MIXER 6,NODE 202,NODE 190,SYS_2_MAKE-UP AIR UNIT 1
! <#Nodes on Return Air Path>,<Number of Nodes>
! <Return Air Path Node>,<Node Type>,<Node Count>,<Node Name>,<AirLoopHVAC Name>
   #Nodes on Return Air Path,2
   Return Air Path Node,Outlet Node,1,NODE 190,SYS_2_MAKE-UP AIR UNIT 1
   Return Air Path Node,Inlet Node,2,NODE 202,SYS_2_MAKE-UP AIR UNIT 1
 Return Air Path,3,SYS_2_MAKE-UP AIR UNIT 2 RETURN PATH,SYS_2_MAKE-UP AIR UNIT 2
   #Components on Return Air Path,1
   Return Air Path Component,1,AIRLOOPHVAC:ZONEMIXER,AIR LOOP HVAC ZONE MIXER 7,SYS_2_MAKE-UP AIR UNIT 2
     #Inlet Nodes on Return Air Path Component,1
     Return Air Path Component Nodes,1,AIRLOOPHVAC:ZONEMIXER,AIR LOOP HVAC ZONE MIXER 7,NODE 245,NODE 233,SYS_2_MAKE-UP AIR UNIT 2
! <#Nodes on Return Air Path>,<Number of Nodes>
! <Return Air Path Node>,<Node Type>,<Node Count>,<Node Name>,<AirLoopHVAC Name>
   #Nodes on Return Air Path,2
   Return Air Path Node,Outlet Node,1,NODE 233,SYS_2_MAKE-UP AIR UNIT 2
   Return Air Path Node,Inlet Node,2,NODE 245,SYS_2_MAKE-UP AIR UNIT 2
 Return Air Path,4,SYS_3_PSZ ALL_ST=WHOLEBUILDING_FL=STORY 2_SCH=A 2 RETURN PATH,SYS_3_PSZ ALL_ST=WHOLEBUILDING_FL=STORY 2_SCH=A 2
   #Components on Return Air Path,1
   Return Air Path Component,1,AIRLOOPHVAC:ZONEMIXER,AIR LOOP HVAC ZONE MIXER 10,SYS_3_PSZ ALL_ST=WHOLEBUILDING_FL=STORY 2_SCH=A 2
     #Inlet Nodes on Return Air Path Component,1
     Return Air Path Component Nodes,1,AIRLOOPHVAC:ZONEMIXER,AIR LOOP HVAC ZONE MIXER 10,NODE 282,NODE 275,SYS_3_PSZ ALL_ST=WHOLEBUILDING_FL=STORY 2_SCH=A 2
! <#Nodes on Return Air Path>,<Number of Nodes>
! <Return Air Path Node>,<Node Type>,<Node Count>,<Node Name>,<AirLoopHVAC Name>
   #Nodes on Return Air Path,2
   Return Air Path Node,Outlet Node,1,NODE 275,SYS_3_PSZ ALL_ST=WHOLEBUILDING_FL=STORY 2_SCH=A 2
   Return Air Path Node,Inlet Node,2,NODE 282,SYS_3_PSZ ALL_ST=WHOLEBUILDING_FL=STORY 2_SCH=A 2
 Return Air Path,5,SYS_3_PSZ ALL_ST=WHOLEBUILDING_FL=STORY 4_SCH=D RETURN PATH,SYS_3_PSZ ALL_ST=WHOLEBUILDING_FL=STORY 4_SCH=D
   #Components on Return Air Path,1
   Return Air Path Component,1,AIRLOOPHVAC:ZONEMIXER,AIR LOOP HVAC ZONE MIXER 9,SYS_3_PSZ ALL_ST=WHOLEBUILDING_FL=STORY 4_SCH=D
     #Inlet Nodes on Return Air Path Component,1
     Return Air Path Component Nodes,1,AIRLOOPHVAC:ZONEMIXER,AIR LOOP HVAC ZONE MIXER 9,NODE 269,NODE 262,SYS_3_PSZ ALL_ST=WHOLEBUILDING_FL=STORY 4_SCH=D
! <#Nodes on Return Air Path>,<Number of Nodes>
! <Return Air Path Node>,<Node Type>,<Node Count>,<Node Name>,<AirLoopHVAC Name>
   #Nodes on Return Air Path,2
   Return Air Path Node,Outlet Node,1,NODE 262,SYS_3_PSZ ALL_ST=WHOLEBUILDING_FL=STORY 4_SCH=D
   Return Air Path Node,Inlet Node,2,NODE 269,SYS_3_PSZ ALL_ST=WHOLEBUILDING_FL=STORY 4_SCH=D
 Return Air Path,6,SYS_3_PSZ ALL_ST=WORKSHOP SPACE_FL=STORY 1_SCH=A RETURN PATH,SYS_3_PSZ ALL_ST=WORKSHOP SPACE_FL=STORY 1_SCH=A
   #Components on Return Air Path,1
   Return Air Path Component,1,AIRLOOPHVAC:ZONEMIXER,AIR LOOP HVAC ZONE MIXER 8,SYS_3_PSZ ALL_ST=WORKSHOP SPACE_FL=STORY 1_SCH=A
     #Inlet Nodes on Return Air Path Component,1
     Return Air Path Component Nodes,1,AIRLOOPHVAC:ZONEMIXER,AIR LOOP HVAC ZONE MIXER 8,NODE 256,NODE 249,SYS_3_PSZ ALL_ST=WORKSHOP SPACE_FL=STORY 1_SCH=A
! <#Nodes on Return Air Path>,<Number of Nodes>
! <Return Air Path Node>,<Node Type>,<Node Count>,<Node Name>,<AirLoopHVAC Name>
   #Nodes on Return Air Path,2
   Return Air Path Node,Outlet Node,1,NODE 249,SYS_3_PSZ ALL_ST=WORKSHOP SPACE_FL=STORY 1_SCH=A
   Return Air Path Node,Inlet Node,2,NODE 256,SYS_3_PSZ ALL_ST=WORKSHOP SPACE_FL=STORY 1_SCH=A
 Return Air Path,7,SYS_4_PSZ_ALL_ST=WAREHOUSE - MED/BLK2_FL=STORY 3_SCH=A RETURN PATH,SYS_4_PSZ_ALL_ST=WAREHOUSE - MED/BLK2_FL=STORY 3_SCH=A
   #Components on Return Air Path,1
   Return Air Path Component,1,AIRLOOPHVAC:ZONEMIXER,AIR LOOP HVAC ZONE MIXER 3,SYS_4_PSZ_ALL_ST=WAREHOUSE - MED/BLK2_FL=STORY 3_SCH=A
     #Inlet Nodes on Return Air Path Component,1
     Return Air Path Component Nodes,1,AIRLOOPHVAC:ZONEMIXER,AIR LOOP HVAC ZONE MIXER 3,NODE 101,NODE 94,SYS_4_PSZ_ALL_ST=WAREHOUSE - MED/BLK2_FL=STORY 3_SCH=A
! <#Nodes on Return Air Path>,<Number of Nodes>
! <Return Air Path Node>,<Node Type>,<Node Count>,<Node Name>,<AirLoopHVAC Name>
   #Nodes on Return Air Path,2
   Return Air Path Node,Outlet Node,1,NODE 94,SYS_4_PSZ_ALL_ST=WAREHOUSE - MED/BLK2_FL=STORY 3_SCH=A
   Return Air Path Node,Inlet Node,2,NODE 101,SYS_4_PSZ_ALL_ST=WAREHOUSE - MED/BLK2_FL=STORY 3_SCH=A
 Return Air Path,8,SYS_4_PSZ_ALL_ST=WAREHOUSE - MED/BLK_FL=STORY 4_SCH=A RETURN PATH,SYS_4_PSZ_ALL_ST=WAREHOUSE - MED/BLK_FL=STORY 4_SCH=A
   #Components on Return Air Path,1
   Return Air Path Component,1,AIRLOOPHVAC:ZONEMIXER,AIR LOOP HVAC ZONE MIXER 2,SYS_4_PSZ_ALL_ST=WAREHOUSE - MED/BLK_FL=STORY 4_SCH=A
     #Inlet Nodes on Return Air Path Component,1
     Return Air Path Component Nodes,1,AIRLOOPHVAC:ZONEMIXER,AIR LOOP HVAC ZONE MIXER 2,NODE 88,NODE 81,SYS_4_PSZ_ALL_ST=WAREHOUSE - MED/BLK_FL=STORY 4_SCH=A
! <#Nodes on Return Air Path>,<Number of Nodes>
! <Return Air Path Node>,<Node Type>,<Node Count>,<Node Name>,<AirLoopHVAC Name>
   #Nodes on Return Air Path,2
   Return Air Path Node,Outlet Node,1,NODE 81,SYS_4_PSZ_ALL_ST=WAREHOUSE - MED/BLK_FL=STORY 4_SCH=A
   Return Air Path Node,Inlet Node,2,NODE 88,SYS_4_PSZ_ALL_ST=WAREHOUSE - MED/BLK_FL=STORY 4_SCH=A
 Return Air Path,9,SYS_4_PSZ_ALL_ST=WHOLEBUILDING_FL=STORY 2_SCH=A RETURN PATH,SYS_4_PSZ_ALL_ST=WHOLEBUILDING_FL=STORY 2_SCH=A
   #Components on Return Air Path,1
   Return Air Path Component,1,AIRLOOPHVAC:ZONEMIXER,AIR LOOP HVAC ZONE MIXER 4,SYS_4_PSZ_ALL_ST=WHOLEBUILDING_FL=STORY 2_SCH=A
     #Inlet Nodes on Return Air Path Component,1
     Return Air Path Component Nodes,1,AIRLOOPHVAC:ZONEMIXER,AIR LOOP HVAC ZONE MIXER 4,NODE 114,NODE 107,SYS_4_PSZ_ALL_ST=WHOLEBUILDING_FL=STORY 2_SCH=A
! <#Nodes on Return Air Path>,<Number of Nodes>
! <Return Air Path Node>,<Node Type>,<Node Count>,<Node Name>,<AirLoopHVAC Name>
   #Nodes on Return Air Path,2
   Return Air Path Node,Outlet Node,1,NODE 107,SYS_4_PSZ_ALL_ST=WHOLEBUILDING_FL=STORY 2_SCH=A
   Return Air Path Node,Inlet Node,2,NODE 114,SYS_4_PSZ_ALL_ST=WHOLEBUILDING_FL=STORY 2_SCH=A
 Return Air Path,10,SYS_4_PSZ_WET_ST=WASHROOM-SCH-A_FL=STORY 3_SCHA RETURN PATH,SYS_4_PSZ_WET_ST=WASHROOM-SCH-A_FL=STORY 3_SCHA
   #Components on Return Air Path,1
   Return Air Path Component,1,AIRLOOPHVAC:ZONEMIXER,AIR LOOP HVAC ZONE MIXER 1,SYS_4_PSZ_WET_ST=WASHROOM-SCH-A_FL=STORY 3_SCHA
     #Inlet Nodes on Return Air Path Component,9
     Return Air Path Component Nodes,1,AIRLOOPHVAC:ZONEMIXER,AIR LOOP HVAC ZONE MIXER 1,NODE 36,NODE 26,SYS_4_PSZ_WET_ST=WASHROOM-SCH-A_FL=STORY 3_SCHA
     Return Air Path Component Nodes,2,AIRLOOPHVAC:ZONEMIXER,AIR LOOP HVAC ZONE MIXER 1,NODE 41,NODE 26,SYS_4_PSZ_WET_ST=WASHROOM-SCH-A_FL=STORY 3_SCHA
     Return Air Path Component Nodes,3,AIRLOOPHVAC:ZONEMIXER,AIR LOOP HVAC ZONE MIXER 1,NODE 47,NODE 26,SYS_4_PSZ_WET_ST=WASHROOM-SCH-A_FL=STORY 3_SCHA
     Return Air Path Component Nodes,4,AIRLOOPHVAC:ZONEMIXER,AIR LOOP HVAC ZONE MIXER 1,NODE 53,NODE 26,SYS_4_PSZ_WET_ST=WASHROOM-SCH-A_FL=STORY 3_SCHA
     Return Air Path Component Nodes,5,AIRLOOPHVAC:ZONEMIXER,AIR LOOP HVAC ZONE MIXER 1,NODE 59,NODE 26,SYS_4_PSZ_WET_ST=WASHROOM-SCH-A_FL=STORY 3_SCHA
     Return Air Path Component Nodes,6,AIRLOOPHVAC:ZONEMIXER,AIR LOOP HVAC ZONE MIXER 1,NODE 63,NODE 26,SYS_4_PSZ_WET_ST=WASHROOM-SCH-A_FL=STORY 3_SCHA
     Return Air Path Component Nodes,7,AIRLOOPHVAC:ZONEMIXER,AIR LOOP HVAC ZONE MIXER 1,NODE 67,NODE 26,SYS_4_PSZ_WET_ST=WASHROOM-SCH-A_FL=STORY 3_SCHA
     Return Air Path Component Nodes,8,AIRLOOPHVAC:ZONEMIXER,AIR LOOP HVAC ZONE MIXER 1,NODE 71,NODE 26,SYS_4_PSZ_WET_ST=WASHROOM-SCH-A_FL=STORY 3_SCHA
     Return Air Path Component Nodes,9,AIRLOOPHVAC:ZONEMIXER,AIR LOOP HVAC ZONE MIXER 1,NODE 75,NODE 26,SYS_4_PSZ_WET_ST=WASHROOM-SCH-A_FL=STORY 3_SCHA
! <#Nodes on Return Air Path>,<Number of Nodes>
! <Return Air Path Node>,<Node Type>,<Node Count>,<Node Name>,<AirLoopHVAC Name>
   #Nodes on Return Air Path,10
   Return Air Path Node,Outlet Node,1,NODE 26,SYS_4_PSZ_WET_ST=WASHROOM-SCH-A_FL=STORY 3_SCHA
   Return Air Path Node,Inlet Node,2,NODE 36,SYS_4_PSZ_WET_ST=WASHROOM-SCH-A_FL=STORY 3_SCHA
   Return Air Path Node,Inlet Node,3,NODE 41,SYS_4_PSZ_WET_ST=WASHROOM-SCH-A_FL=STORY 3_SCHA
   Return Air Path Node,Inlet Node,4,NODE 47,SYS_4_PSZ_WET_ST=WASHROOM-SCH-A_FL=STORY 3_SCHA
   Return Air Path Node,Inlet Node,5,NODE 53,SYS_4_PSZ_WET_ST=WASHROOM-SCH-A_FL=STORY 3_SCHA
   Return Air Path Node,Inlet Node,6,NODE 59,SYS_4_PSZ_WET_ST=WASHROOM-SCH-A_FL=STORY 3_SCHA
   Return Air Path Node,Inlet Node,7,NODE 63,SYS_4_PSZ_WET_ST=WASHROOM-SCH-A_FL=STORY 3_SCHA
   Return Air Path Node,Inlet Node,8,NODE 67,SYS_4_PSZ_WET_ST=WASHROOM-SCH-A_FL=STORY 3_SCHA
   Return Air Path Node,Inlet Node,9,NODE 71,SYS_4_PSZ_WET_ST=WASHROOM-SCH-A_FL=STORY 3_SCHA
   Return Air Path Node,Inlet Node,10,NODE 75,SYS_4_PSZ_WET_ST=WASHROOM-SCH-A_FL=STORY 3_SCHA
 Return Air Path,11,SYS_6_VAV WITH REHEAT RETURN PATH,SYS_6_VAV WITH REHEAT
   #Components on Return Air Path,1
   Return Air Path Component,1,AIRLOOPHVAC:ZONEMIXER,AIR LOOP HVAC ZONE MIXER 11,SYS_6_VAV WITH REHEAT
     #Inlet Nodes on Return Air Path Component,2
     Return Air Path Component Nodes,1,AIRLOOPHVAC:ZONEMIXER,AIR LOOP HVAC ZONE MIXER 11,NODE 328,NODE 315,SYS_6_VAV WITH REHEAT
     Return Air Path Component Nodes,2,AIRLOOPHVAC:ZONEMIXER,AIR LOOP HVAC ZONE MIXER 11,NODE 335,NODE 315,SYS_6_VAV WITH REHEAT
! <#Nodes on Return Air Path>,<Number of Nodes>
! <Return Air Path Node>,<Node Type>,<Node Count>,<Node Name>,<AirLoopHVAC Name>
   #Nodes on Return Air Path,3
   Return Air Path Node,Outlet Node,1,NODE 315,SYS_6_VAV WITH REHEAT
   Return Air Path Node,Inlet Node,2,NODE 328,SYS_6_VAV WITH REHEAT
   Return Air Path Node,Inlet Node,3,NODE 335,SYS_6_VAV WITH REHEAT
! ===============================================================
! #Outdoor Air Nodes,<Number of Outdoor Air Nodes>
 #Outdoor Air Nodes,15
! <Outdoor Air Node>,<NodeNumber>,<Node Name>
 Outdoor Air Node,389,ZONE HVAC FOUR PIPE FAN COIL 1 OA NODE
 Outdoor Air Node,390,ZONE HVAC FOUR PIPE FAN COIL 2 OA NODE
 Outdoor Air Node,391,ZONE HVAC FOUR PIPE FAN COIL 3 OA NODE
 Outdoor Air Node,392,NODE 149
 Outdoor Air Node,393,NODE 192
 Outdoor Air Node,394,NODE 235
 Outdoor Air Node,395,NODE 277
 Outdoor Air Node,396,NODE 264
 Outdoor Air Node,397,NODE 251
 Outdoor Air Node,398,NODE 96
 Outdoor Air Node,399,NODE 83
 Outdoor Air Node,400,NODE 109
 Outdoor Air Node,401,NODE 29
 Outdoor Air Node,402,NODE 320
 Outdoor Air Node,403,MODEL OUTDOOR AIR NODE
! ===============================================================
! <#Component Sets>,<Number of Component Sets>
 #Component Sets,204
! <Component Set>,<Component Set Count>,<Parent Object Type>,<Parent Object Name>,<Component Type>,<Component Name>,<Inlet Node ID>,<Outlet Node ID>,<Description>
 Component Set,1,BRANCH,SYS_2_MAKE-UP AIR UNIT MAIN BRANCH,AIRLOOPHVAC:OUTDOORAIRSYSTEM,AIR LOOP HVAC OUTDOOR AIR SYSTEM 5,NODE 144,NODE 153,Air Nodes
 Component Set,2,BRANCH,SYS_2_MAKE-UP AIR UNIT MAIN BRANCH,COILSYSTEM:COOLING:DX,COIL COOLING DX SINGLE SPEED 5 COILSYSTEM,NODE 153,NODE 152,Air Nodes
 Component Set,3,BRANCH,SYS_2_MAKE-UP AIR UNIT MAIN BRANCH,COIL:HEATING:FUEL,COIL HEATING GAS 5,NODE 152,NODE 151,Air Nodes
 Component Set,4,BRANCH,SYS_2_MAKE-UP AIR UNIT MAIN BRANCH,FAN:CONSTANTVOLUME,FAN CONSTANT VOLUME 5,NODE 151,NODE 145,Air Nodes
 Component Set,5,BRANCH,SYS_2_MAKE-UP AIR UNIT 1 MAIN BRANCH,AIRLOOPHVAC:OUTDOORAIRSYSTEM,AIR LOOP HVAC OUTDOOR AIR SYSTEM 6,NODE 187,NODE 196,Air Nodes
 Component Set,6,BRANCH,SYS_2_MAKE-UP AIR UNIT 1 MAIN BRANCH,COILSYSTEM:COOLING:DX,COIL COOLING DX SINGLE SPEED 6 COILSYSTEM,NODE 196,NODE 195,Air Nodes
 Component Set,7,BRANCH,SYS_2_MAKE-UP AIR UNIT 1 MAIN BRANCH,COIL:HEATING:FUEL,COIL HEATING GAS 6,NODE 195,NODE 194,Air Nodes
 Component Set,8,BRANCH,SYS_2_MAKE-UP AIR UNIT 1 MAIN BRANCH,FAN:CONSTANTVOLUME,FAN CONSTANT VOLUME 7,NODE 194,NODE 188,Air Nodes
 Component Set,9,BRANCH,SYS_2_MAKE-UP AIR UNIT 2 MAIN BRANCH,AIRLOOPHVAC:OUTDOORAIRSYSTEM,AIR LOOP HVAC OUTDOOR AIR SYSTEM 7,NODE 230,NODE 239,Air Nodes
 Component Set,10,BRANCH,SYS_2_MAKE-UP AIR UNIT 2 MAIN BRANCH,COILSYSTEM:COOLING:DX,COIL COOLING DX SINGLE SPEED 7 COILSYSTEM,NODE 239,NODE 238,Air Nodes
 Component Set,11,BRANCH,SYS_2_MAKE-UP AIR UNIT 2 MAIN BRANCH,COIL:HEATING:FUEL,COIL HEATING GAS 7,NODE 238,NODE 237,Air Nodes
 Component Set,12,BRANCH,SYS_2_MAKE-UP AIR UNIT 2 MAIN BRANCH,FAN:CONSTANTVOLUME,FAN CONSTANT VOLUME 9,NODE 237,NODE 231,Air Nodes
 Component Set,13,BRANCH,SYS_3_PSZ ALL_ST=WHOLEBUILDING_FL=STORY 2_SCH=A 2 MAIN BRANCH,AIRLOOPHVAC:OUTDOORAIRSYSTEM,AIR LOOP HVAC OUTDOOR AIR SYSTEM 10,NODE 272,NODE 281,Air Nodes
 Component Set,14,BRANCH,SYS_3_PSZ ALL_ST=WHOLEBUILDING_FL=STORY 2_SCH=A 2 MAIN BRANCH,COILSYSTEM:COOLING:DX,COIL COOLING DX SINGLE SPEED 10 COILSYSTEM,NODE 281,NODE 280,Air Nodes
 Component Set,15,BRANCH,SYS_3_PSZ ALL_ST=WHOLEBUILDING_FL=STORY 2_SCH=A 2 MAIN BRANCH,COIL:HEATING:FUEL,COIL HEATING GAS 10,NODE 280,NODE 279,Air Nodes
 Component Set,16,BRANCH,SYS_3_PSZ ALL_ST=WHOLEBUILDING_FL=STORY 2_SCH=A 2 MAIN BRANCH,FAN:CONSTANTVOLUME,FAN CONSTANT VOLUME 13,NODE 279,NODE 273,Air Nodes
 Component Set,17,BRANCH,SYS_3_PSZ ALL_ST=WHOLEBUILDING_FL=STORY 4_SCH=D MAIN BRANCH,AIRLOOPHVAC:OUTDOORAIRSYSTEM,AIR LOOP HVAC OUTDOOR AIR SYSTEM 9,NODE 259,NODE 268,Air Nodes
 Component Set,18,BRANCH,SYS_3_PSZ ALL_ST=WHOLEBUILDING_FL=STORY 4_SCH=D MAIN BRANCH,COILSYSTEM:COOLING:DX,COIL COOLING DX SINGLE SPEED 9 COILSYSTEM,NODE 268,NODE 267,Air Nodes
 Component Set,19,BRANCH,SYS_3_PSZ ALL_ST=WHOLEBUILDING_FL=STORY 4_SCH=D MAIN BRANCH,COIL:HEATING:FUEL,COIL HEATING GAS 9,NODE 267,NODE 266,Air Nodes
 Component Set,20,BRANCH,SYS_3_PSZ ALL_ST=WHOLEBUILDING_FL=STORY 4_SCH=D MAIN BRANCH,FAN:CONSTANTVOLUME,FAN CONSTANT VOLUME 12,NODE 266,NODE 260,Air Nodes
 Component Set,21,BRANCH,SYS_3_PSZ ALL_ST=WORKSHOP SPACE_FL=STORY 1_SCH=A MAIN BRANCH,AIRLOOPHVAC:OUTDOORAIRSYSTEM,AIR LOOP HVAC OUTDOOR AIR SYSTEM 8,NODE 246,NODE 255,Air Nodes
 Component Set,22,BRANCH,SYS_3_PSZ ALL_ST=WORKSHOP SPACE_FL=STORY 1_SCH=A MAIN BRANCH,COILSYSTEM:COOLING:DX,COIL COOLING DX SINGLE SPEED 8 COILSYSTEM,NODE 255,NODE 254,Air Nodes
 Component Set,23,BRANCH,SYS_3_PSZ ALL_ST=WORKSHOP SPACE_FL=STORY 1_SCH=A MAIN BRANCH,COIL:HEATING:FUEL,COIL HEATING GAS 8,NODE 254,NODE 253,Air Nodes
 Component Set,24,BRANCH,SYS_3_PSZ ALL_ST=WORKSHOP SPACE_FL=STORY 1_SCH=A MAIN BRANCH,FAN:CONSTANTVOLUME,FAN CONSTANT VOLUME 11,NODE 253,NODE 247,Air Nodes
 Component Set,25,BRANCH,SYS_4_PSZ_ALL_ST=WAREHOUSE - MED/BLK2_FL=STORY 3_SCH=A MAIN BRANCH,AIRLOOPHVAC:OUTDOORAIRSYSTEM,AIR LOOP HVAC OUTDOOR AIR SYSTEM 3,NODE 91,NODE 100,Air Nodes
 Component Set,26,BRANCH,SYS_4_PSZ_ALL_ST=WAREHOUSE - MED/BLK2_FL=STORY 3_SCH=A MAIN BRANCH,COILSYSTEM:COOLING:DX,COIL COOLING DX SINGLE SPEED 3 COILSYSTEM,NODE 100,NODE 99,Air Nodes
 Component Set,27,BRANCH,SYS_4_PSZ_ALL_ST=WAREHOUSE - MED/BLK2_FL=STORY 3_SCH=A MAIN BRANCH,COIL:HEATING:FUEL,COIL HEATING GAS 3,NODE 99,NODE 98,Air Nodes
 Component Set,28,BRANCH,SYS_4_PSZ_ALL_ST=WAREHOUSE - MED/BLK2_FL=STORY 3_SCH=A MAIN BRANCH,FAN:CONSTANTVOLUME,FAN CONSTANT VOLUME 3,NODE 98,NODE 92,Air Nodes
 Component Set,29,BRANCH,SYS_4_PSZ_ALL_ST=WAREHOUSE - MED/BLK_FL=STORY 4_SCH=A MAIN BRANCH,AIRLOOPHVAC:OUTDOORAIRSYSTEM,AIR LOOP HVAC OUTDOOR AIR SYSTEM 2,NODE 78,NODE 87,Air Nodes
 Component Set,30,BRANCH,SYS_4_PSZ_ALL_ST=WAREHOUSE - MED/BLK_FL=STORY 4_SCH=A MAIN BRANCH,COILSYSTEM:COOLING:DX,COIL COOLING DX SINGLE SPEED 2 COILSYSTEM,NODE 87,NODE 86,Air Nodes
 Component Set,31,BRANCH,SYS_4_PSZ_ALL_ST=WAREHOUSE - MED/BLK_FL=STORY 4_SCH=A MAIN BRANCH,COIL:HEATING:FUEL,COIL HEATING GAS 2,NODE 86,NODE 85,Air Nodes
 Component Set,32,BRANCH,SYS_4_PSZ_ALL_ST=WAREHOUSE - MED/BLK_FL=STORY 4_SCH=A MAIN BRANCH,FAN:CONSTANTVOLUME,FAN CONSTANT VOLUME 2,NODE 85,NODE 79,Air Nodes
 Component Set,33,BRANCH,SYS_4_PSZ_ALL_ST=WHOLEBUILDING_FL=STORY 2_SCH=A MAIN BRANCH,AIRLOOPHVAC:OUTDOORAIRSYSTEM,AIR LOOP HVAC OUTDOOR AIR SYSTEM 4,NODE 104,NODE 113,Air Nodes
 Component Set,34,BRANCH,SYS_4_PSZ_ALL_ST=WHOLEBUILDING_FL=STORY 2_SCH=A MAIN BRANCH,COILSYSTEM:COOLING:DX,COIL COOLING DX SINGLE SPEED 4 COILSYSTEM,NODE 113,NODE 112,Air Nodes
 Component Set,35,BRANCH,SYS_4_PSZ_ALL_ST=WHOLEBUILDING_FL=STORY 2_SCH=A MAIN BRANCH,COIL:HEATING:FUEL,COIL HEATING GAS 4,NODE 112,NODE 111,Air Nodes
 Component Set,36,BRANCH,SYS_4_PSZ_ALL_ST=WHOLEBUILDING_FL=STORY 2_SCH=A MAIN BRANCH,FAN:CONSTANTVOLUME,FAN CONSTANT VOLUME 4,NODE 111,NODE 105,Air Nodes
 Component Set,37,BRANCH,SYS_4_PSZ_WET_ST=WASHROOM-SCH-A_FL=STORY 3_SCHA MAIN BRANCH,AIRLOOPHVAC:OUTDOORAIRSYSTEM,AIR LOOP HVAC OUTDOOR AIR SYSTEM 1,NODE 21,NODE 35,Air Nodes
 Component Set,38,BRANCH,SYS_4_PSZ_WET_ST=WASHROOM-SCH-A_FL=STORY 3_SCHA MAIN BRANCH,COILSYSTEM:COOLING:DX,COIL COOLING DX SINGLE SPEED 1 COILSYSTEM,NODE 35,NODE 33,Air Nodes
 Component Set,39,BRANCH,SYS_4_PSZ_WET_ST=WASHROOM-SCH-A_FL=STORY 3_SCHA MAIN BRANCH,COIL:HEATING:FUEL,COIL HEATING GAS 1,NODE 33,NODE 32,Air Nodes
 Component Set,40,BRANCH,SYS_4_PSZ_WET_ST=WASHROOM-SCH-A_FL=STORY 3_SCHA MAIN BRANCH,FAN:CONSTANTVOLUME,FAN CONSTANT VOLUME 1,NODE 32,NODE 23,Air Nodes
 Component Set,41,BRANCH,SYS_6_VAV WITH REHEAT MAIN BRANCH,FAN:VARIABLEVOLUME,SYS6 RETURN FAN,NODE 312,NODE 325,Air Nodes
 Component Set,42,BRANCH,SYS_6_VAV WITH REHEAT MAIN BRANCH,AIRLOOPHVAC:OUTDOORAIRSYSTEM,AIR LOOP HVAC OUTDOOR AIR SYSTEM 11,NODE 325,NODE 324,Air Nodes
 Component Set,43,BRANCH,SYS_6_VAV WITH REHEAT MAIN BRANCH,COIL:COOLING:WATER,COIL COOLING WATER 4,NODE 324,NODE 323,Air Nodes
 Component Set,44,BRANCH,SYS_6_VAV WITH REHEAT MAIN BRANCH,COIL:HEATING:WATER,COIL HEATING WATER 4,NODE 323,NODE 322,Air Nodes
 Component Set,45,BRANCH,SYS_6_VAV WITH REHEAT MAIN BRANCH,FAN:VARIABLEVOLUME,SYS6 SUPPLY FAN,NODE 322,NODE 313,Air Nodes
 Component Set,46,BRANCH,CHILLED WATER LOOP SUPPLY INLET BRANCH,PUMP:CONSTANTSPEED,PUMP CONSTANT SPEED 1,NODE 117,NODE 123,Water Nodes
 Component Set,47,BRANCH,CHILLED WATER LOOP SUPPLY BRANCH 1,CHILLER:ELECTRIC:EIR,PRIMARY CHILLER WATERCOOLED SCROLL,NODE 119,NODE 124,Chilled Water Nodes
 Component Set,48,BRANCH,CHILLED WATER LOOP SUPPLY BRANCH 2,CHILLER:ELECTRIC:EIR,SECONDARY CHILLER WATERCOOLED SCROLL,NODE 125,NODE 126,Chilled Water Nodes
 Component Set,49,BRANCH,CHILLED WATER LOOP SUPPLY BRANCH 3,PIPE:ADIABATIC,PIPE ADIABATIC 3,NODE 127,NODE 128,Pipe Nodes
 Component Set,50,BRANCH,CHILLED WATER LOOP SUPPLY OUTLET BRANCH,PIPE:ADIABATIC,PIPE ADIABATIC 4,NODE 129,NODE 118,Pipe Nodes
 Component Set,51,BRANCH,CHILLED WATER LOOP DEMAND INLET BRANCH,PIPE:ADIABATIC,CHILLED WATER LOOP DEMAND INLET PIPE,NODE 120,CHILLED WATER LOOP DEMAND INLET PIPE NODE,Pipe Nodes
 Component Set,52,BRANCH,CHILLED WATER LOOP DEMAND BRANCH 1,COIL:COOLING:WATER,COIL COOLING WATER 1,NODE 122,NODE 156,Water Nodes
 Component Set,53,BRANCH,CHILLED WATER LOOP DEMAND BYPASS BRANCH,PIPE:ADIABATIC,CHILLED WATER LOOP DEMAND BYPASS PIPE,CHILLED WATER LOOP DEMAND BYPASS PIPE INLET NODE,CHILLED WATER LOOP DEMAND BYPASS PIPE OUTLET NODE,Pipe Nodes
 Component Set,54,BRANCH,CHILLED WATER LOOP DEMAND OUTLET BRANCH,PIPE:ADIABATIC,CHILLED WATER LOOP DEMAND OUTLET PIPE,CHILLED WATER LOOP DEMAND OUTLET PIPE NODE,NODE 121,Pipe Nodes
 Component Set,55,BRANCH,CHILLED WATER LOOP 1 SUPPLY INLET BRANCH,PUMP:CONSTANTSPEED,PUMP CONSTANT SPEED 3,NODE 160,NODE 166,Water Nodes
 Component Set,56,BRANCH,CHILLED WATER LOOP 1 SUPPLY BRANCH 1,CHILLER:ELECTRIC:EIR,PRIMARY CHILLER WATERCOOLED SCROLL 1,NODE 162,NODE 167,Chilled Water Nodes
 Component Set,57,BRANCH,CHILLED WATER LOOP 1 SUPPLY BRANCH 2,CHILLER:ELECTRIC:EIR,SECONDARY CHILLER WATERCOOLED SCROLL 1,NODE 168,NODE 169,Chilled Water Nodes
 Component Set,58,BRANCH,CHILLED WATER LOOP 1 SUPPLY BRANCH 3,PIPE:ADIABATIC,PIPE ADIABATIC 7,NODE 170,NODE 171,Pipe Nodes
 Component Set,59,BRANCH,CHILLED WATER LOOP 1 SUPPLY OUTLET BRANCH,PIPE:ADIABATIC,PIPE ADIABATIC 8,NODE 172,NODE 161,Pipe Nodes
 Component Set,60,BRANCH,CHILLED WATER LOOP 1 DEMAND INLET BRANCH,PIPE:ADIABATIC,CHILLED WATER LOOP 1 DEMAND INLET PIPE,NODE 163,CHILLED WATER LOOP 1 DEMAND INLET PIPE NODE,Pipe Nodes
 Component Set,61,BRANCH,CHILLED WATER LOOP 1 DEMAND BRANCH 1,COIL:COOLING:WATER,COIL COOLING WATER 2,NODE 165,NODE 199,Water Nodes
 Component Set,62,BRANCH,CHILLED WATER LOOP 1 DEMAND BYPASS BRANCH,PIPE:ADIABATIC,CHILLED WATER LOOP 1 DEMAND BYPASS PIPE,CHILLED WATER LOOP 1 DEMAND BYPASS PIPE INLET NODE,CHILLED WATER LOOP 1 DEMAND BYPASS PIPE OUTLET NODE,Pipe Nodes
 Component Set,63,BRANCH,CHILLED WATER LOOP 1 DEMAND OUTLET BRANCH,PIPE:ADIABATIC,CHILLED WATER LOOP 1 DEMAND OUTLET PIPE,CHILLED WATER LOOP 1 DEMAND OUTLET PIPE NODE,NODE 164,Pipe Nodes
 Component Set,64,BRANCH,CHILLED WATER LOOP 2 SUPPLY INLET BRANCH,PUMP:CONSTANTSPEED,PUMP CONSTANT SPEED 5,NODE 203,NODE 209,Water Nodes
 Component Set,65,BRANCH,CHILLED WATER LOOP 2 SUPPLY BRANCH 1,CHILLER:ELECTRIC:EIR,PRIMARY CHILLER WATERCOOLED SCROLL 2,NODE 205,NODE 210,Chilled Water Nodes
 Component Set,66,BRANCH,CHILLED WATER LOOP 2 SUPPLY BRANCH 2,CHILLER:ELECTRIC:EIR,SECONDARY CHILLER WATERCOOLED SCROLL 2,NODE 211,NODE 212,Chilled Water Nodes
 Component Set,67,BRANCH,CHILLED WATER LOOP 2 SUPPLY BRANCH 3,PIPE:ADIABATIC,PIPE ADIABATIC 11,NODE 213,NODE 214,Pipe Nodes
 Component Set,68,BRANCH,CHILLED WATER LOOP 2 SUPPLY OUTLET BRANCH,PIPE:ADIABATIC,PIPE ADIABATIC 12,NODE 215,NODE 204,Pipe Nodes
 Component Set,69,BRANCH,CHILLED WATER LOOP 2 DEMAND INLET BRANCH,PIPE:ADIABATIC,CHILLED WATER LOOP 2 DEMAND INLET PIPE,NODE 206,CHILLED WATER LOOP 2 DEMAND INLET PIPE NODE,Pipe Nodes
 Component Set,70,BRANCH,CHILLED WATER LOOP 2 DEMAND BRANCH 1,COIL:COOLING:WATER,COIL COOLING WATER 3,NODE 208,NODE 242,Water Nodes
 Component Set,71,BRANCH,CHILLED WATER LOOP 2 DEMAND BYPASS BRANCH,PIPE:ADIABATIC,CHILLED WATER LOOP 2 DEMAND BYPASS PIPE,CHILLED WATER LOOP 2 DEMAND BYPASS PIPE INLET NODE,CHILLED WATER LOOP 2 DEMAND BYPASS PIPE OUTLET NODE,Pipe Nodes
 Component Set,72,BRANCH,CHILLED WATER LOOP 2 DEMAND OUTLET BRANCH,PIPE:ADIABATIC,CHILLED WATER LOOP 2 DEMAND OUTLET PIPE,CHILLED WATER LOOP 2 DEMAND OUTLET PIPE NODE,NODE 207,Pipe Nodes
 Component Set,73,BRANCH,CHILLED WATER LOOP 3 SUPPLY INLET BRANCH,PUMP:CONSTANTSPEED,PUMP CONSTANT SPEED 7,NODE 285,NODE 291,Water Nodes
 Component Set,74,BRANCH,CHILLED WATER LOOP 3 SUPPLY BRANCH 1,CHILLER:ELECTRIC:EIR,PRIMARY CHILLER WATERCOOLED SCROLL 3,NODE 287,NODE 292,Chilled Water Nodes
 Component Set,75,BRANCH,CHILLED WATER LOOP 3 SUPPLY BRANCH 2,CHILLER:ELECTRIC:EIR,SECONDARY CHILLER WATERCOOLED SCROLL 3,NODE 293,NODE 294,Chilled Water Nodes
 Component Set,76,BRANCH,CHILLED WATER LOOP 3 SUPPLY BRANCH 3,PIPE:ADIABATIC,PIPE ADIABATIC 15,NODE 295,NODE 296,Pipe Nodes
 Component Set,77,BRANCH,CHILLED WATER LOOP 3 SUPPLY OUTLET BRANCH,PIPE:ADIABATIC,PIPE ADIABATIC 16,NODE 297,NODE 286,Pipe Nodes
 Component Set,78,BRANCH,CHILLED WATER LOOP 3 DEMAND INLET BRANCH,PIPE:ADIABATIC,CHILLED WATER LOOP 3 DEMAND INLET PIPE,NODE 288,CHILLED WATER LOOP 3 DEMAND INLET PIPE NODE,Pipe Nodes
 Component Set,79,BRANCH,CHILLED WATER LOOP 3 DEMAND BRANCH 1,COIL:COOLING:WATER,COIL COOLING WATER 4,NODE 290,NODE 319,Water Nodes
 Component Set,80,BRANCH,CHILLED WATER LOOP 3 DEMAND BYPASS BRANCH,PIPE:ADIABATIC,CHILLED WATER LOOP 3 DEMAND BYPASS PIPE,CHILLED WATER LOOP 3 DEMAND BYPASS PIPE INLET NODE,CHILLED WATER LOOP 3 DEMAND BYPASS PIPE OUTLET NODE,Pipe Nodes
 Component Set,81,BRANCH,CHILLED WATER LOOP 3 DEMAND OUTLET BRANCH,PIPE:ADIABATIC,CHILLED WATER LOOP 3 DEMAND OUTLET PIPE,CHILLED WATER LOOP 3 DEMAND OUTLET PIPE NODE,NODE 289,Pipe Nodes
 Component Set,82,BRANCH,CONDENSER WATER LOOP SUPPLY INLET BRANCH,PUMP:CONSTANTSPEED,PUMP CONSTANT SPEED 2,NODE 130,NODE 136,Water Nodes
 Component Set,83,BRANCH,CONDENSER WATER LOOP SUPPLY BRANCH 1,COOLINGTOWER:SINGLESPEED,COOLING TOWER SINGLE SPEED 1,NODE 132,NODE 137,Chilled Water Nodes
 Component Set,84,BRANCH,CONDENSER WATER LOOP SUPPLY BRANCH 2,PIPE:ADIABATIC,PIPE ADIABATIC 5,NODE 138,NODE 139,Pipe Nodes
 Component Set,85,BRANCH,CONDENSER WATER LOOP SUPPLY OUTLET BRANCH,PIPE:ADIABATIC,PIPE ADIABATIC 6,NODE 140,NODE 131,Pipe Nodes
 Component Set,86,BRANCH,CONDENSER WATER LOOP DEMAND INLET BRANCH,PIPE:ADIABATIC,CONDENSER WATER LOOP DEMAND INLET PIPE,NODE 133,CONDENSER WATER LOOP DEMAND INLET PIPE NODE,Pipe Nodes
 Component Set,87,BRANCH,CONDENSER WATER LOOP DEMAND BRANCH 1,CHILLER:ELECTRIC:EIR,PRIMARY CHILLER WATERCOOLED SCROLL,NODE 135,NODE 141,Condenser Water Nodes
 Component Set,88,BRANCH,CONDENSER WATER LOOP DEMAND BRANCH 2,CHILLER:ELECTRIC:EIR,SECONDARY CHILLER WATERCOOLED SCROLL,NODE 142,NODE 143,Condenser Water Nodes
 Component Set,89,BRANCH,CONDENSER WATER LOOP DEMAND BYPASS BRANCH,PIPE:ADIABATIC,CONDENSER WATER LOOP DEMAND BYPASS PIPE,CONDENSER WATER LOOP DEMAND BYPASS PIPE INLET NODE,CONDENSER WATER LOOP DEMAND BYPASS PIPE OUTLET NODE,Pipe Nodes
 Component Set,90,BRANCH,CONDENSER WATER LOOP DEMAND OUTLET BRANCH,PIPE:ADIABATIC,CONDENSER WATER LOOP DEMAND OUTLET PIPE,CONDENSER WATER LOOP DEMAND OUTLET PIPE NODE,NODE 134,Pipe Nodes
 Component Set,91,BRANCH,CONDENSER WATER LOOP 1 SUPPLY INLET BRANCH,PUMP:CONSTANTSPEED,PUMP CONSTANT SPEED 4,NODE 173,NODE 179,Water Nodes
 Component Set,92,BRANCH,CONDENSER WATER LOOP 1 SUPPLY BRANCH 1,COOLINGTOWER:SINGLESPEED,COOLING TOWER SINGLE SPEED 2,NODE 175,NODE 180,Chilled Water Nodes
 Component Set,93,BRANCH,CONDENSER WATER LOOP 1 SUPPLY BRANCH 2,PIPE:ADIABATIC,PIPE ADIABATIC 9,NODE 181,NODE 182,Pipe Nodes
 Component Set,94,BRANCH,CONDENSER WATER LOOP 1 SUPPLY OUTLET BRANCH,PIPE:ADIABATIC,PIPE ADIABATIC 10,NODE 183,NODE 174,Pipe Nodes
 Component Set,95,BRANCH,CONDENSER WATER LOOP 1 DEMAND INLET BRANCH,PIPE:ADIABATIC,CONDENSER WATER LOOP 1 DEMAND INLET PIPE,NODE 176,CONDENSER WATER LOOP 1 DEMAND INLET PIPE NODE,Pipe Nodes
 Component Set,96,BRANCH,CONDENSER WATER LOOP 1 DEMAND BRANCH 1,CHILLER:ELECTRIC:EIR,PRIMARY CHILLER WATERCOOLED SCROLL 1,NODE 178,NODE 184,Condenser Water Nodes
 Component Set,97,BRANCH,CONDENSER WATER LOOP 1 DEMAND BRANCH 2,CHILLER:ELECTRIC:EIR,SECONDARY CHILLER WATERCOOLED SCROLL 1,NODE 185,NODE 186,Condenser Water Nodes
 Component Set,98,BRANCH,CONDENSER WATER LOOP 1 DEMAND BYPASS BRANCH,PIPE:ADIABATIC,CONDENSER WATER LOOP 1 DEMAND BYPASS PIPE,CONDENSER WATER LOOP 1 DEMAND BYPASS PIPE INLET NODE,CONDENSER WATER LOOP 1 DEMAND BYPASS PIPE OUTLET NODE,Pipe Nodes
 Component Set,99,BRANCH,CONDENSER WATER LOOP 1 DEMAND OUTLET BRANCH,PIPE:ADIABATIC,CONDENSER WATER LOOP 1 DEMAND OUTLET PIPE,CONDENSER WATER LOOP 1 DEMAND OUTLET PIPE NODE,NODE 177,Pipe Nodes
 Component Set,100,BRANCH,CONDENSER WATER LOOP 2 SUPPLY INLET BRANCH,PUMP:CONSTANTSPEED,PUMP CONSTANT SPEED 6,NODE 216,NODE 222,Water Nodes
 Component Set,101,BRANCH,CONDENSER WATER LOOP 2 SUPPLY BRANCH 1,COOLINGTOWER:SINGLESPEED,COOLING TOWER SINGLE SPEED 3,NODE 218,NODE 223,Chilled Water Nodes
 Component Set,102,BRANCH,CONDENSER WATER LOOP 2 SUPPLY BRANCH 2,PIPE:ADIABATIC,PIPE ADIABATIC 13,NODE 224,NODE 225,Pipe Nodes
 Component Set,103,BRANCH,CONDENSER WATER LOOP 2 SUPPLY OUTLET BRANCH,PIPE:ADIABATIC,PIPE ADIABATIC 14,NODE 226,NODE 217,Pipe Nodes
 Component Set,104,BRANCH,CONDENSER WATER LOOP 2 DEMAND INLET BRANCH,PIPE:ADIABATIC,CONDENSER WATER LOOP 2 DEMAND INLET PIPE,NODE 219,CONDENSER WATER LOOP 2 DEMAND INLET PIPE NODE,Pipe Nodes
 Component Set,105,BRANCH,CONDENSER WATER LOOP 2 DEMAND BRANCH 1,CHILLER:ELECTRIC:EIR,PRIMARY CHILLER WATERCOOLED SCROLL 2,NODE 221,NODE 227,Condenser Water Nodes
 Component Set,106,BRANCH,CONDENSER WATER LOOP 2 DEMAND BRANCH 2,CHILLER:ELECTRIC:EIR,SECONDARY CHILLER WATERCOOLED SCROLL 2,NODE 228,NODE 229,Condenser Water Nodes
 Component Set,107,BRANCH,CONDENSER WATER LOOP 2 DEMAND BYPASS BRANCH,PIPE:ADIABATIC,CONDENSER WATER LOOP 2 DEMAND BYPASS PIPE,CONDENSER WATER LOOP 2 DEMAND BYPASS PIPE INLET NODE,CONDENSER WATER LOOP 2 DEMAND BYPASS PIPE OUTLET NODE,Pipe Nodes
 Component Set,108,BRANCH,CONDENSER WATER LOOP 2 DEMAND OUTLET BRANCH,PIPE:ADIABATIC,CONDENSER WATER LOOP 2 DEMAND OUTLET PIPE,CONDENSER WATER LOOP 2 DEMAND OUTLET PIPE NODE,NODE 220,Pipe Nodes
 Component Set,109,BRANCH,CONDENSER WATER LOOP 3 SUPPLY INLET BRANCH,PUMP:CONSTANTSPEED,PUMP CONSTANT SPEED 8,NODE 298,NODE 304,Water Nodes
 Component Set,110,BRANCH,CONDENSER WATER LOOP 3 SUPPLY BRANCH 1,COOLINGTOWER:SINGLESPEED,COOLING TOWER SINGLE SPEED 4,NODE 300,NODE 305,Chilled Water Nodes
 Component Set,111,BRANCH,CONDENSER WATER LOOP 3 SUPPLY BRANCH 2,PIPE:ADIABATIC,PIPE ADIABATIC 17,NODE 306,NODE 307,Pipe Nodes
 Component Set,112,BRANCH,CONDENSER WATER LOOP 3 SUPPLY OUTLET BRANCH,PIPE:ADIABATIC,PIPE ADIABATIC 18,NODE 308,NODE 299,Pipe Nodes
 Component Set,113,BRANCH,CONDENSER WATER LOOP 3 DEMAND INLET BRANCH,PIPE:ADIABATIC,CONDENSER WATER LOOP 3 DEMAND INLET PIPE,NODE 301,CONDENSER WATER LOOP 3 DEMAND INLET PIPE NODE,Pipe Nodes
 Component Set,114,BRANCH,CONDENSER WATER LOOP 3 DEMAND BRANCH 1,CHILLER:ELECTRIC:EIR,PRIMARY CHILLER WATERCOOLED SCROLL 3,NODE 303,NODE 309,Condenser Water Nodes
 Component Set,115,BRANCH,CONDENSER WATER LOOP 3 DEMAND BRANCH 2,CHILLER:ELECTRIC:EIR,SECONDARY CHILLER WATERCOOLED SCROLL 3,NODE 310,NODE 311,Condenser Water Nodes
 Component Set,116,BRANCH,CONDENSER WATER LOOP 3 DEMAND BYPASS BRANCH,PIPE:ADIABATIC,CONDENSER WATER LOOP 3 DEMAND BYPASS PIPE,CONDENSER WATER LOOP 3 DEMAND BYPASS PIPE INLET NODE,CONDENSER WATER LOOP 3 DEMAND BYPASS PIPE OUTLET NODE,Pipe Nodes
 Component Set,117,BRANCH,CONDENSER WATER LOOP 3 DEMAND OUTLET BRANCH,PIPE:ADIABATIC,CONDENSER WATER LOOP 3 DEMAND OUTLET PIPE,CONDENSER WATER LOOP 3 DEMAND OUTLET PIPE NODE,NODE 302,Pipe Nodes
 Component Set,118,BRANCH,HOT WATER LOOP SUPPLY INLET BRANCH,PUMP:VARIABLESPEED,PUMP VARIABLE SPEED 1,NODE 2,NODE 11,Water Nodes
 Component Set,119,BRANCH,HOT WATER LOOP SUPPLY BRANCH 1,BOILER:HOTWATER,PRIMARY BOILER,NODE 5,NODE 12,Hot Water Nodes
 Component Set,120,BRANCH,HOT WATER LOOP SUPPLY BRANCH 2,BOILER:HOTWATER,SECONDARY BOILER,NODE 14,NODE 15,Hot Water Nodes
 Component Set,121,BRANCH,HOT WATER LOOP SUPPLY BRANCH 3,PIPE:ADIABATIC,PIPE ADIABATIC 1,NODE 17,NODE 18,Pipe Nodes
 Component Set,122,BRANCH,HOT WATER LOOP SUPPLY OUTLET BRANCH,PIPE:ADIABATIC,PIPE ADIABATIC 2,NODE 20,NODE 3,Pipe Nodes
 Component Set,123,BRANCH,HOT WATER LOOP DEMAND INLET BRANCH,PIPE:ADIABATIC,HOT WATER LOOP DEMAND INLET PIPE,NODE 6,HOT WATER LOOP DEMAND INLET PIPE NODE,Pipe Nodes
 Component Set,124,BRANCH,HOT WATER LOOP DEMAND BRANCH 1,ZONEHVAC:BASEBOARD:CONVECTIVE:WATER,ZONE HVAC BASEBOARD CONVECTIVE WATER 1,NODE 9,NODE 38,Hot Water Nodes
 Component Set,125,BRANCH,HOT WATER LOOP DEMAND BRANCH 2,ZONEHVAC:BASEBOARD:CONVECTIVE:WATER,ZONE HVAC BASEBOARD CONVECTIVE WATER 2,NODE 42,NODE 44,Hot Water Nodes
 Component Set,126,BRANCH,HOT WATER LOOP DEMAND BRANCH 3,ZONEHVAC:BASEBOARD:CONVECTIVE:WATER,ZONE HVAC BASEBOARD CONVECTIVE WATER 3,NODE 48,NODE 50,Hot Water Nodes
 Component Set,127,BRANCH,HOT WATER LOOP DEMAND BRANCH 4,ZONEHVAC:BASEBOARD:CONVECTIVE:WATER,ZONE HVAC BASEBOARD CONVECTIVE WATER 4,NODE 54,NODE 56,Hot Water Nodes
 Component Set,128,BRANCH,HOT WATER LOOP DEMAND BRANCH 5,ZONEHVAC:BASEBOARD:CONVECTIVE:WATER,ZONE HVAC BASEBOARD CONVECTIVE WATER 5,NODE 60,NODE 61,Hot Water Nodes
 Component Set,129,BRANCH,HOT WATER LOOP DEMAND BRANCH 6,ZONEHVAC:BASEBOARD:CONVECTIVE:WATER,ZONE HVAC BASEBOARD CONVECTIVE WATER 6,NODE 64,NODE 65,Hot Water Nodes
 Component Set,130,BRANCH,HOT WATER LOOP DEMAND BRANCH 7,ZONEHVAC:BASEBOARD:CONVECTIVE:WATER,ZONE HVAC BASEBOARD CONVECTIVE WATER 7,NODE 68,NODE 69,Hot Water Nodes
 Component Set,131,BRANCH,HOT WATER LOOP DEMAND BRANCH 8,ZONEHVAC:BASEBOARD:CONVECTIVE:WATER,ZONE HVAC BASEBOARD CONVECTIVE WATER 8,NODE 72,NODE 73,Hot Water Nodes
 Component Set,132,BRANCH,HOT WATER LOOP DEMAND BRANCH 9,ZONEHVAC:BASEBOARD:CONVECTIVE:WATER,ZONE HVAC BASEBOARD CONVECTIVE WATER 9,NODE 76,NODE 77,Hot Water Nodes
 Component Set,133,BRANCH,HOT WATER LOOP DEMAND BRANCH 10,ZONEHVAC:BASEBOARD:CONVECTIVE:WATER,ZONE HVAC BASEBOARD CONVECTIVE WATER 10,NODE 89,NODE 90,Hot Water Nodes
 Component Set,134,BRANCH,HOT WATER LOOP DEMAND BRANCH 11,ZONEHVAC:BASEBOARD:CONVECTIVE:WATER,ZONE HVAC BASEBOARD CONVECTIVE WATER 11,NODE 102,NODE 103,Hot Water Nodes
 Component Set,135,BRANCH,HOT WATER LOOP DEMAND BRANCH 12,ZONEHVAC:BASEBOARD:CONVECTIVE:WATER,ZONE HVAC BASEBOARD CONVECTIVE WATER 12,NODE 115,NODE 116,Hot Water Nodes
 Component Set,136,BRANCH,HOT WATER LOOP DEMAND BRANCH 13,COIL:HEATING:WATER,COIL HEATING WATER 1,NODE 154,NODE 155,Water Nodes
 Component Set,137,BRANCH,HOT WATER LOOP DEMAND BRANCH 14,COIL:HEATING:WATER,COIL HEATING WATER 2,NODE 197,NODE 198,Water Nodes
 Component Set,138,BRANCH,HOT WATER LOOP DEMAND BRANCH 15,COIL:HEATING:WATER,COIL HEATING WATER 3,NODE 240,NODE 241,Water Nodes
 Component Set,139,BRANCH,HOT WATER LOOP DEMAND BRANCH 16,ZONEHVAC:BASEBOARD:CONVECTIVE:WATER,ZONE HVAC BASEBOARD CONVECTIVE WATER 13,NODE 257,NODE 258,Hot Water Nodes
[...]
 Non-Parent Node Connection,NODE 50,ZONEHVAC:BASEBOARD:CONVECTIVE:WATER,ZONE HVAC BASEBOARD CONVECTIVE WATER 3,Outlet,1
 Non-Parent Node Connection,NODE 54,ZONEHVAC:BASEBOARD:CONVECTIVE:WATER,ZONE HVAC BASEBOARD CONVECTIVE WATER 4,Inlet,1
 Non-Parent Node Connection,NODE 56,ZONEHVAC:BASEBOARD:CONVECTIVE:WATER,ZONE HVAC BASEBOARD CONVECTIVE WATER 4,Outlet,1
 Non-Parent Node Connection,NODE 60,ZONEHVAC:BASEBOARD:CONVECTIVE:WATER,ZONE HVAC BASEBOARD CONVECTIVE WATER 5,Inlet,1
 Non-Parent Node Connection,NODE 61,ZONEHVAC:BASEBOARD:CONVECTIVE:WATER,ZONE HVAC BASEBOARD CONVECTIVE WATER 5,Outlet,1
 Non-Parent Node Connection,NODE 64,ZONEHVAC:BASEBOARD:CONVECTIVE:WATER,ZONE HVAC BASEBOARD CONVECTIVE WATER 6,Inlet,1
 Non-Parent Node Connection,NODE 65,ZONEHVAC:BASEBOARD:CONVECTIVE:WATER,ZONE HVAC BASEBOARD CONVECTIVE WATER 6,Outlet,1
 Non-Parent Node Connection,NODE 68,ZONEHVAC:BASEBOARD:CONVECTIVE:WATER,ZONE HVAC BASEBOARD CONVECTIVE WATER 7,Inlet,1
 Non-Parent Node Connection,NODE 69,ZONEHVAC:BASEBOARD:CONVECTIVE:WATER,ZONE HVAC BASEBOARD CONVECTIVE WATER 7,Outlet,1
 Non-Parent Node Connection,NODE 72,ZONEHVAC:BASEBOARD:CONVECTIVE:WATER,ZONE HVAC BASEBOARD CONVECTIVE WATER 8,Inlet,1
 Non-Parent Node Connection,NODE 73,ZONEHVAC:BASEBOARD:CONVECTIVE:WATER,ZONE HVAC BASEBOARD CONVECTIVE WATER 8,Outlet,1
 Non-Parent Node Connection,NODE 76,ZONEHVAC:BASEBOARD:CONVECTIVE:WATER,ZONE HVAC BASEBOARD CONVECTIVE WATER 9,Inlet,1
 Non-Parent Node Connection,NODE 77,ZONEHVAC:BASEBOARD:CONVECTIVE:WATER,ZONE HVAC BASEBOARD CONVECTIVE WATER 9,Outlet,1
 Non-Parent Node Connection,AIR TERMINAL SINGLE DUCT VAV REHEAT 1 DAMPER OUTLET,AIRTERMINAL:SINGLEDUCT:VAV:REHEAT,AIR TERMINAL SINGLE DUCT VAV REHEAT 1,Outlet,1
 Non-Parent Node Connection,NODE 329,AIRTERMINAL:SINGLEDUCT:VAV:REHEAT,AIR TERMINAL SINGLE DUCT VAV REHEAT 1,Inlet,1
 Non-Parent Node Connection,AIR TERMINAL SINGLE DUCT VAV REHEAT 2 DAMPER OUTLET,AIRTERMINAL:SINGLEDUCT:VAV:REHEAT,AIR TERMINAL SINGLE DUCT VAV REHEAT 2,Outlet,1
 Non-Parent Node Connection,NODE 336,AIRTERMINAL:SINGLEDUCT:VAV:REHEAT,AIR TERMINAL SINGLE DUCT VAV REHEAT 2,Inlet,1
 Non-Parent Node Connection,NODE 147,AIRLOOPHVAC:ZONEMIXER,AIR LOOP HVAC ZONE MIXER 5,Outlet,1
 Non-Parent Node Connection,NODE 159,AIRLOOPHVAC:ZONEMIXER,AIR LOOP HVAC ZONE MIXER 5,Inlet,1
 Non-Parent Node Connection,NODE 190,AIRLOOPHVAC:ZONEMIXER,AIR LOOP HVAC ZONE MIXER 6,Outlet,1
 Non-Parent Node Connection,NODE 202,AIRLOOPHVAC:ZONEMIXER,AIR LOOP HVAC ZONE MIXER 6,Inlet,1
 Non-Parent Node Connection,NODE 233,AIRLOOPHVAC:ZONEMIXER,AIR LOOP HVAC ZONE MIXER 7,Outlet,1
 Non-Parent Node Connection,NODE 245,AIRLOOPHVAC:ZONEMIXER,AIR LOOP HVAC ZONE MIXER 7,Inlet,1
 Non-Parent Node Connection,NODE 275,AIRLOOPHVAC:ZONEMIXER,AIR LOOP HVAC ZONE MIXER 10,Outlet,1
 Non-Parent Node Connection,NODE 282,AIRLOOPHVAC:ZONEMIXER,AIR LOOP HVAC ZONE MIXER 10,Inlet,1
 Non-Parent Node Connection,NODE 262,AIRLOOPHVAC:ZONEMIXER,AIR LOOP HVAC ZONE MIXER 9,Outlet,1
 Non-Parent Node Connection,NODE 269,AIRLOOPHVAC:ZONEMIXER,AIR LOOP HVAC ZONE MIXER 9,Inlet,1
 Non-Parent Node Connection,NODE 249,AIRLOOPHVAC:ZONEMIXER,AIR LOOP HVAC ZONE MIXER 8,Outlet,1
 Non-Parent Node Connection,NODE 256,AIRLOOPHVAC:ZONEMIXER,AIR LOOP HVAC ZONE MIXER 8,Inlet,1
 Non-Parent Node Connection,NODE 94,AIRLOOPHVAC:ZONEMIXER,AIR LOOP HVAC ZONE MIXER 3,Outlet,1
 Non-Parent Node Connection,NODE 101,AIRLOOPHVAC:ZONEMIXER,AIR LOOP HVAC ZONE MIXER 3,Inlet,1
 Non-Parent Node Connection,NODE 81,AIRLOOPHVAC:ZONEMIXER,AIR LOOP HVAC ZONE MIXER 2,Outlet,1
 Non-Parent Node Connection,NODE 88,AIRLOOPHVAC:ZONEMIXER,AIR LOOP HVAC ZONE MIXER 2,Inlet,1
 Non-Parent Node Connection,NODE 107,AIRLOOPHVAC:ZONEMIXER,AIR LOOP HVAC ZONE MIXER 4,Outlet,1
 Non-Parent Node Connection,NODE 114,AIRLOOPHVAC:ZONEMIXER,AIR LOOP HVAC ZONE MIXER 4,Inlet,1
 Non-Parent Node Connection,NODE 26,AIRLOOPHVAC:ZONEMIXER,AIR LOOP HVAC ZONE MIXER 1,Outlet,1
 Non-Parent Node Connection,NODE 36,AIRLOOPHVAC:ZONEMIXER,AIR LOOP HVAC ZONE MIXER 1,Inlet,1
 Non-Parent Node Connection,NODE 41,AIRLOOPHVAC:ZONEMIXER,AIR LOOP HVAC ZONE MIXER 1,Inlet,1
 Non-Parent Node Connection,NODE 47,AIRLOOPHVAC:ZONEMIXER,AIR LOOP HVAC ZONE MIXER 1,Inlet,1
 Non-Parent Node Connection,NODE 53,AIRLOOPHVAC:ZONEMIXER,AIR LOOP HVAC ZONE MIXER 1,Inlet,1
 Non-Parent Node Connection,NODE 59,AIRLOOPHVAC:ZONEMIXER,AIR LOOP HVAC ZONE MIXER 1,Inlet,1
 Non-Parent Node Connection,NODE 63,AIRLOOPHVAC:ZONEMIXER,AIR LOOP HVAC ZONE MIXER 1,Inlet,1
 Non-Parent Node Connection,NODE 67,AIRLOOPHVAC:ZONEMIXER,AIR LOOP HVAC ZONE MIXER 1,Inlet,1
 Non-Parent Node Connection,NODE 71,AIRLOOPHVAC:ZONEMIXER,AIR LOOP HVAC ZONE MIXER 1,Inlet,1
 Non-Parent Node Connection,NODE 75,AIRLOOPHVAC:ZONEMIXER,AIR LOOP HVAC ZONE MIXER 1,Inlet,1
 Non-Parent Node Connection,NODE 315,AIRLOOPHVAC:ZONEMIXER,AIR LOOP HVAC ZONE MIXER 11,Outlet,1
 Non-Parent Node Connection,NODE 328,AIRLOOPHVAC:ZONEMIXER,AIR LOOP HVAC ZONE MIXER 11,Inlet,1
 Non-Parent Node Connection,NODE 335,AIRLOOPHVAC:ZONEMIXER,AIR LOOP HVAC ZONE MIXER 11,Inlet,1
 Non-Parent Node Connection,NODE 153,CONTROLLER:OUTDOORAIR,CONTROLLER OUTDOOR AIR 5,Sensor,1
 Non-Parent Node Connection,NODE 149,CONTROLLER:OUTDOORAIR,CONTROLLER OUTDOOR AIR 5,Actuator,1
 Non-Parent Node Connection,NODE 150,CONTROLLER:OUTDOORAIR,CONTROLLER OUTDOOR AIR 5,Actuator,1
 Non-Parent Node Connection,NODE 144,CONTROLLER:OUTDOORAIR,CONTROLLER OUTDOOR AIR 5,Sensor,1
 Non-Parent Node Connection,NODE 196,CONTROLLER:OUTDOORAIR,CONTROLLER OUTDOOR AIR 6,Sensor,1
 Non-Parent Node Connection,NODE 192,CONTROLLER:OUTDOORAIR,CONTROLLER OUTDOOR AIR 6,Actuator,1
 Non-Parent Node Connection,NODE 193,CONTROLLER:OUTDOORAIR,CONTROLLER OUTDOOR AIR 6,Actuator,1
 Non-Parent Node Connection,NODE 187,CONTROLLER:OUTDOORAIR,CONTROLLER OUTDOOR AIR 6,Sensor,1
 Non-Parent Node Connection,NODE 239,CONTROLLER:OUTDOORAIR,CONTROLLER OUTDOOR AIR 7,Sensor,1
 Non-Parent Node Connection,NODE 235,CONTROLLER:OUTDOORAIR,CONTROLLER OUTDOOR AIR 7,Actuator,1
 Non-Parent Node Connection,NODE 236,CONTROLLER:OUTDOORAIR,CONTROLLER OUTDOOR AIR 7,Actuator,1
 Non-Parent Node Connection,NODE 230,CONTROLLER:OUTDOORAIR,CONTROLLER OUTDOOR AIR 7,Sensor,1
 Non-Parent Node Connection,NODE 281,CONTROLLER:OUTDOORAIR,CONTROLLER OUTDOOR AIR 10,Sensor,1
 Non-Parent Node Connection,NODE 277,CONTROLLER:OUTDOORAIR,CONTROLLER OUTDOOR AIR 10,Actuator,1
 Non-Parent Node Connection,NODE 278,CONTROLLER:OUTDOORAIR,CONTROLLER OUTDOOR AIR 10,Actuator,1
 Non-Parent Node Connection,NODE 272,CONTROLLER:OUTDOORAIR,CONTROLLER OUTDOOR AIR 10,Sensor,1
 Non-Parent Node Connection,NODE 268,CONTROLLER:OUTDOORAIR,CONTROLLER OUTDOOR AIR 9,Sensor,1
 Non-Parent Node Connection,NODE 264,CONTROLLER:OUTDOORAIR,CONTROLLER OUTDOOR AIR 9,Actuator,1
 Non-Parent Node Connection,NODE 265,CONTROLLER:OUTDOORAIR,CONTROLLER OUTDOOR AIR 9,Actuator,1
 Non-Parent Node Connection,NODE 259,CONTROLLER:OUTDOORAIR,CONTROLLER OUTDOOR AIR 9,Sensor,1
 Non-Parent Node Connection,NODE 255,CONTROLLER:OUTDOORAIR,CONTROLLER OUTDOOR AIR 8,Sensor,1
 Non-Parent Node Connection,NODE 251,CONTROLLER:OUTDOORAIR,CONTROLLER OUTDOOR AIR 8,Actuator,1
 Non-Parent Node Connection,NODE 252,CONTROLLER:OUTDOORAIR,CONTROLLER OUTDOOR AIR 8,Actuator,1
 Non-Parent Node Connection,NODE 246,CONTROLLER:OUTDOORAIR,CONTROLLER OUTDOOR AIR 8,Sensor,1
 Non-Parent Node Connection,NODE 100,CONTROLLER:OUTDOORAIR,CONTROLLER OUTDOOR AIR 3,Sensor,1
 Non-Parent Node Connection,NODE 96,CONTROLLER:OUTDOORAIR,CONTROLLER OUTDOOR AIR 3,Actuator,1
 Non-Parent Node Connection,NODE 97,CONTROLLER:OUTDOORAIR,CONTROLLER OUTDOOR AIR 3,Actuator,1
 Non-Parent Node Connection,NODE 91,CONTROLLER:OUTDOORAIR,CONTROLLER OUTDOOR AIR 3,Sensor,1
 Non-Parent Node Connection,NODE 87,CONTROLLER:OUTDOORAIR,CONTROLLER OUTDOOR AIR 2,Sensor,1
 Non-Parent Node Connection,NODE 83,CONTROLLER:OUTDOORAIR,CONTROLLER OUTDOOR AIR 2,Actuator,1
 Non-Parent Node Connection,NODE 84,CONTROLLER:OUTDOORAIR,CONTROLLER OUTDOOR AIR 2,Actuator,1
 Non-Parent Node Connection,NODE 78,CONTROLLER:OUTDOORAIR,CONTROLLER OUTDOOR AIR 2,Sensor,1
 Non-Parent Node Connection,NODE 113,CONTROLLER:OUTDOORAIR,CONTROLLER OUTDOOR AIR 4,Sensor,1
 Non-Parent Node Connection,NODE 109,CONTROLLER:OUTDOORAIR,CONTROLLER OUTDOOR AIR 4,Actuator,1
 Non-Parent Node Connection,NODE 110,CONTROLLER:OUTDOORAIR,CONTROLLER OUTDOOR AIR 4,Actuator,1
 Non-Parent Node Connection,NODE 104,CONTROLLER:OUTDOORAIR,CONTROLLER OUTDOOR AIR 4,Sensor,1
 Non-Parent Node Connection,NODE 35,CONTROLLER:OUTDOORAIR,CONTROLLER OUTDOOR AIR 1,Sensor,1
 Non-Parent Node Connection,NODE 29,CONTROLLER:OUTDOORAIR,CONTROLLER OUTDOOR AIR 1,Actuator,1
 Non-Parent Node Connection,NODE 30,CONTROLLER:OUTDOORAIR,CONTROLLER OUTDOOR AIR 1,Actuator,1
 Non-Parent Node Connection,NODE 21,CONTROLLER:OUTDOORAIR,CONTROLLER OUTDOOR AIR 1,Sensor,1
 Non-Parent Node Connection,NODE 324,CONTROLLER:OUTDOORAIR,CONTROLLER OUTDOOR AIR 11,Sensor,1
 Non-Parent Node Connection,NODE 320,CONTROLLER:OUTDOORAIR,CONTROLLER OUTDOOR AIR 11,Actuator,1
 Non-Parent Node Connection,NODE 321,CONTROLLER:OUTDOORAIR,CONTROLLER OUTDOOR AIR 11,Actuator,1
 Non-Parent Node Connection,NODE 325,CONTROLLER:OUTDOORAIR,CONTROLLER OUTDOOR AIR 11,Sensor,1
 Non-Parent Node Connection,NODE 153,COIL:COOLING:DX:SINGLESPEED,COIL COOLING DX SINGLE SPEED 5,Inlet,1
 Non-Parent Node Connection,NODE 152,COIL:COOLING:DX:SINGLESPEED,COIL COOLING DX SINGLE SPEED 5,Outlet,1
 Non-Parent Node Connection,NODE 196,COIL:COOLING:DX:SINGLESPEED,COIL COOLING DX SINGLE SPEED 6,Inlet,1
 Non-Parent Node Connection,NODE 195,COIL:COOLING:DX:SINGLESPEED,COIL COOLING DX SINGLE SPEED 6,Outlet,1
 Non-Parent Node Connection,NODE 239,COIL:COOLING:DX:SINGLESPEED,COIL COOLING DX SINGLE SPEED 7,Inlet,1
 Non-Parent Node Connection,NODE 238,COIL:COOLING:DX:SINGLESPEED,COIL COOLING DX SINGLE SPEED 7,Outlet,1
 Non-Parent Node Connection,NODE 281,COIL:COOLING:DX:SINGLESPEED,COIL COOLING DX SINGLE SPEED 10,Inlet,1
 Non-Parent Node Connection,NODE 280,COIL:COOLING:DX:SINGLESPEED,COIL COOLING DX SINGLE SPEED 10,Outlet,1
 Non-Parent Node Connection,NODE 268,COIL:COOLING:DX:SINGLESPEED,COIL COOLING DX SINGLE SPEED 9,Inlet,1
 Non-Parent Node Connection,NODE 267,COIL:COOLING:DX:SINGLESPEED,COIL COOLING DX SINGLE SPEED 9,Outlet,1
 Non-Parent Node Connection,NODE 255,COIL:COOLING:DX:SINGLESPEED,COIL COOLING DX SINGLE SPEED 8,Inlet,1
 Non-Parent Node Connection,NODE 254,COIL:COOLING:DX:SINGLESPEED,COIL COOLING DX SINGLE SPEED 8,Outlet,1
 Non-Parent Node Connection,NODE 100,COIL:COOLING:DX:SINGLESPEED,COIL COOLING DX SINGLE SPEED 3,Inlet,1
 Non-Parent Node Connection,NODE 99,COIL:COOLING:DX:SINGLESPEED,COIL COOLING DX SINGLE SPEED 3,Outlet,1
 Non-Parent Node Connection,NODE 87,COIL:COOLING:DX:SINGLESPEED,COIL COOLING DX SINGLE SPEED 2,Inlet,1
 Non-Parent Node Connection,NODE 86,COIL:COOLING:DX:SINGLESPEED,COIL COOLING DX SINGLE SPEED 2,Outlet,1
 Non-Parent Node Connection,NODE 113,COIL:COOLING:DX:SINGLESPEED,COIL COOLING DX SINGLE SPEED 4,Inlet,1
 Non-Parent Node Connection,NODE 112,COIL:COOLING:DX:SINGLESPEED,COIL COOLING DX SINGLE SPEED 4,Outlet,1
 Non-Parent Node Connection,NODE 35,COIL:COOLING:DX:SINGLESPEED,COIL COOLING DX SINGLE SPEED 1,Inlet,1
 Non-Parent Node Connection,NODE 33,COIL:COOLING:DX:SINGLESPEED,COIL COOLING DX SINGLE SPEED 1,Outlet,1
 Non-Parent Node Connection,NODE 152,COIL:HEATING:FUEL,COIL HEATING GAS 5,Inlet,1
 Non-Parent Node Connection,NODE 151,COIL:HEATING:FUEL,COIL HEATING GAS 5,Outlet,1
 Non-Parent Node Connection,NODE 151,COIL:HEATING:FUEL,COIL HEATING GAS 5,Sensor,1
 Non-Parent Node Connection,NODE 195,COIL:HEATING:FUEL,COIL HEATING GAS 6,Inlet,1
 Non-Parent Node Connection,NODE 194,COIL:HEATING:FUEL,COIL HEATING GAS 6,Outlet,1
 Non-Parent Node Connection,NODE 194,COIL:HEATING:FUEL,COIL HEATING GAS 6,Sensor,1
 Non-Parent Node Connection,NODE 238,COIL:HEATING:FUEL,COIL HEATING GAS 7,Inlet,1
 Non-Parent Node Connection,NODE 237,COIL:HEATING:FUEL,COIL HEATING GAS 7,Outlet,1
 Non-Parent Node Connection,NODE 237,COIL:HEATING:FUEL,COIL HEATING GAS 7,Sensor,1
 Non-Parent Node Connection,NODE 280,COIL:HEATING:FUEL,COIL HEATING GAS 10,Inlet,1
 Non-Parent Node Connection,NODE 279,COIL:HEATING:FUEL,COIL HEATING GAS 10,Outlet,1
 Non-Parent Node Connection,NODE 279,COIL:HEATING:FUEL,COIL HEATING GAS 10,Sensor,1
 Non-Parent Node Connection,NODE 267,COIL:HEATING:FUEL,COIL HEATING GAS 9,Inlet,1
 Non-Parent Node Connection,NODE 266,COIL:HEATING:FUEL,COIL HEATING GAS 9,Outlet,1
 Non-Parent Node Connection,NODE 266,COIL:HEATING:FUEL,COIL HEATING GAS 9,Sensor,1
 Non-Parent Node Connection,NODE 254,COIL:HEATING:FUEL,COIL HEATING GAS 8,Inlet,1
 Non-Parent Node Connection,NODE 253,COIL:HEATING:FUEL,COIL HEATING GAS 8,Outlet,1
 Non-Parent Node Connection,NODE 253,COIL:HEATING:FUEL,COIL HEATING GAS 8,Sensor,1
 Non-Parent Node Connection,NODE 99,COIL:HEATING:FUEL,COIL HEATING GAS 3,Inlet,1
 Non-Parent Node Connection,NODE 98,COIL:HEATING:FUEL,COIL HEATING GAS 3,Outlet,1
 Non-Parent Node Connection,NODE 98,COIL:HEATING:FUEL,COIL HEATING GAS 3,Sensor,1
 Non-Parent Node Connection,NODE 86,COIL:HEATING:FUEL,COIL HEATING GAS 2,Inlet,1
 Non-Parent Node Connection,NODE 85,COIL:HEATING:FUEL,COIL HEATING GAS 2,Outlet,1
 Non-Parent Node Connection,NODE 85,COIL:HEATING:FUEL,COIL HEATING GAS 2,Sensor,1
 Non-Parent Node Connection,NODE 112,COIL:HEATING:FUEL,COIL HEATING GAS 4,Inlet,1
 Non-Parent Node Connection,NODE 111,COIL:HEATING:FUEL,COIL HEATING GAS 4,Outlet,1
 Non-Parent Node Connection,NODE 111,COIL:HEATING:FUEL,COIL HEATING GAS 4,Sensor,1
 Non-Parent Node Connection,NODE 33,COIL:HEATING:FUEL,COIL HEATING GAS 1,Inlet,1
 Non-Parent Node Connection,NODE 32,COIL:HEATING:FUEL,COIL HEATING GAS 1,Outlet,1
 Non-Parent Node Connection,NODE 32,COIL:HEATING:FUEL,COIL HEATING GAS 1,Sensor,1
 Non-Parent Node Connection,NODE 119,CHILLER:ELECTRIC:EIR,PRIMARY CHILLER WATERCOOLED SCROLL,Inlet,1
 Non-Parent Node Connection,NODE 124,CHILLER:ELECTRIC:EIR,PRIMARY CHILLER WATERCOOLED SCROLL,Outlet,1
 Non-Parent Node Connection,NODE 135,CHILLER:ELECTRIC:EIR,PRIMARY CHILLER WATERCOOLED SCROLL,Inlet,2
 Non-Parent Node Connection,NODE 141,CHILLER:ELECTRIC:EIR,PRIMARY CHILLER WATERCOOLED SCROLL,Outlet,2
 Non-Parent Node Connection,NODE 125,CHILLER:ELECTRIC:EIR,SECONDARY CHILLER WATERCOOLED SCROLL,Inlet,1
 Non-Parent Node Connection,NODE 126,CHILLER:ELECTRIC:EIR,SECONDARY CHILLER WATERCOOLED SCROLL,Outlet,1
 Non-Parent Node Connection,NODE 142,CHILLER:ELECTRIC:EIR,SECONDARY CHILLER WATERCOOLED SCROLL,Inlet,2
 Non-Parent Node Connection,NODE 143,CHILLER:ELECTRIC:EIR,SECONDARY CHILLER WATERCOOLED SCROLL,Outlet,2
 Non-Parent Node Connection,NODE 162,CHILLER:ELECTRIC:EIR,PRIMARY CHILLER WATERCOOLED SCROLL 1,Inlet,1
 Non-Parent Node Connection,NODE 167,CHILLER:ELECTRIC:EIR,PRIMARY CHILLER WATERCOOLED SCROLL 1,Outlet,1
 Non-Parent Node Connection,NODE 178,CHILLER:ELECTRIC:EIR,PRIMARY CHILLER WATERCOOLED SCROLL 1,Inlet,2
 Non-Parent Node Connection,NODE 184,CHILLER:ELECTRIC:EIR,PRIMARY CHILLER WATERCOOLED SCROLL 1,Outlet,2
 Non-Parent Node Connection,NODE 168,CHILLER:ELECTRIC:EIR,SECONDARY CHILLER WATERCOOLED SCROLL 1,Inlet,1
 Non-Parent Node Connection,NODE 169,CHILLER:ELECTRIC:EIR,SECONDARY CHILLER WATERCOOLED SCROLL 1,Outlet,1
 Non-Parent Node Connection,NODE 185,CHILLER:ELECTRIC:EIR,SECONDARY CHILLER WATERCOOLED SCROLL 1,Inlet,2
 Non-Parent Node Connection,NODE 186,CHILLER:ELECTRIC:EIR,SECONDARY CHILLER WATERCOOLED SCROLL 1,Outlet,2
 Non-Parent Node Connection,NODE 205,CHILLER:ELECTRIC:EIR,PRIMARY CHILLER WATERCOOLED SCROLL 2,Inlet,1
 Non-Parent Node Connection,NODE 210,CHILLER:ELECTRIC:EIR,PRIMARY CHILLER WATERCOOLED SCROLL 2,Outlet,1
 Non-Parent Node Connection,NODE 221,CHILLER:ELECTRIC:EIR,PRIMARY CHILLER WATERCOOLED SCROLL 2,Inlet,2
 Non-Parent Node Connection,NODE 227,CHILLER:ELECTRIC:EIR,PRIMARY CHILLER WATERCOOLED SCROLL 2,Outlet,2
 Non-Parent Node Connection,NODE 211,CHILLER:ELECTRIC:EIR,SECONDARY CHILLER WATERCOOLED SCROLL 2,Inlet,1
 Non-Parent Node Connection,NODE 212,CHILLER:ELECTRIC:EIR,SECONDARY CHILLER WATERCOOLED SCROLL 2,Outlet,1
 Non-Parent Node Connection,NODE 228,CHILLER:ELECTRIC:EIR,SECONDARY CHILLER WATERCOOLED SCROLL 2,Inlet,2
 Non-Parent Node Connection,NODE 229,CHILLER:ELECTRIC:EIR,SECONDARY CHILLER WATERCOOLED SCROLL 2,Outlet,2
 Non-Parent Node Connection,NODE 287,CHILLER:ELECTRIC:EIR,PRIMARY CHILLER WATERCOOLED SCROLL 3,Inlet,1
 Non-Parent Node Connection,NODE 292,CHILLER:ELECTRIC:EIR,PRIMARY CHILLER WATERCOOLED SCROLL 3,Outlet,1
 Non-Parent Node Connection,NODE 303,CHILLER:ELECTRIC:EIR,PRIMARY CHILLER WATERCOOLED SCROLL 3,Inlet,2
 Non-Parent Node Connection,NODE 309,CHILLER:ELECTRIC:EIR,PRIMARY CHILLER WATERCOOLED SCROLL 3,Outlet,2
 Non-Parent Node Connection,NODE 293,CHILLER:ELECTRIC:EIR,SECONDARY CHILLER WATERCOOLED SCROLL 3,Inlet,1
 Non-Parent Node Connection,NODE 294,CHILLER:ELECTRIC:EIR,SECONDARY CHILLER WATERCOOLED SCROLL 3,Outlet,1
 Non-Parent Node Connection,NODE 310,CHILLER:ELECTRIC:EIR,SECONDARY CHILLER WATERCOOLED SCROLL 3,Inlet,2
 Non-Parent Node Connection,NODE 311,CHILLER:ELECTRIC:EIR,SECONDARY CHILLER WATERCOOLED SCROLL 3,Outlet,2
 Non-Parent Node Connection,NODE 132,COOLINGTOWER:SINGLESPEED,COOLING TOWER SINGLE SPEED 1,Inlet,1
 Non-Parent Node Connection,NODE 137,COOLINGTOWER:SINGLESPEED,COOLING TOWER SINGLE SPEED 1,Outlet,1
 Non-Parent Node Connection,NODE 175,COOLINGTOWER:SINGLESPEED,COOLING TOWER SINGLE SPEED 2,Inlet,1
 Non-Parent Node Connection,NODE 180,COOLINGTOWER:SINGLESPEED,COOLING TOWER SINGLE SPEED 2,Outlet,1
 Non-Parent Node Connection,NODE 218,COOLINGTOWER:SINGLESPEED,COOLING TOWER SINGLE SPEED 3,Inlet,1
 Non-Parent Node Connection,NODE 223,COOLINGTOWER:SINGLESPEED,COOLING TOWER SINGLE SPEED 3,Outlet,1
 Non-Parent Node Connection,NODE 300,COOLINGTOWER:SINGLESPEED,COOLING TOWER SINGLE SPEED 4,Inlet,1
 Non-Parent Node Connection,NODE 305,COOLINGTOWER:SINGLESPEED,COOLING TOWER SINGLE SPEED 4,Outlet,1
 Non-Parent Node Connection,NODE 5,BOILER:HOTWATER,PRIMARY BOILER,Inlet,1
 Non-Parent Node Connection,NODE 12,BOILER:HOTWATER,PRIMARY BOILER,Outlet,1
 Non-Parent Node Connection,NODE 14,BOILER:HOTWATER,SECONDARY BOILER,Inlet,1
 Non-Parent Node Connection,NODE 15,BOILER:HOTWATER,SECONDARY BOILER,Outlet,1
 Non-Parent Node Connection,NODE 2,PUMP:VARIABLESPEED,PUMP VARIABLE SPEED 1,Inlet,1
 Non-Parent Node Connection,NODE 11,PUMP:VARIABLESPEED,PUMP VARIABLE SPEED 1,Outlet,1
 Non-Parent Node Connection,NODE 117,PUMP:CONSTANTSPEED,PUMP CONSTANT SPEED 1,Inlet,1
 Non-Parent Node Connection,NODE 123,PUMP:CONSTANTSPEED,PUMP CONSTANT SPEED 1,Outlet,1
 Non-Parent Node Connection,NODE 160,PUMP:CONSTANTSPEED,PUMP CONSTANT SPEED 3,Inlet,1
 Non-Parent Node Connection,NODE 166,PUMP:CONSTANTSPEED,PUMP CONSTANT SPEED 3,Outlet,1
 Non-Parent Node Connection,NODE 203,PUMP:CONSTANTSPEED,PUMP CONSTANT SPEED 5,Inlet,1
 Non-Parent Node Connection,NODE 209,PUMP:CONSTANTSPEED,PUMP CONSTANT SPEED 5,Outlet,1
 Non-Parent Node Connection,NODE 285,PUMP:CONSTANTSPEED,PUMP CONSTANT SPEED 7,Inlet,1
 Non-Parent Node Connection,NODE 291,PUMP:CONSTANTSPEED,PUMP CONSTANT SPEED 7,Outlet,1
 Non-Parent Node Connection,NODE 130,PUMP:CONSTANTSPEED,PUMP CONSTANT SPEED 2,Inlet,1
 Non-Parent Node Connection,NODE 136,PUMP:CONSTANTSPEED,PUMP CONSTANT SPEED 2,Outlet,1
 Non-Parent Node Connection,NODE 173,PUMP:CONSTANTSPEED,PUMP CONSTANT SPEED 4,Inlet,1
 Non-Parent Node Connection,NODE 179,PUMP:CONSTANTSPEED,PUMP CONSTANT SPEED 4,Outlet,1
 Non-Parent Node Connection,NODE 216,PUMP:CONSTANTSPEED,PUMP CONSTANT SPEED 6,Inlet,1
 Non-Parent Node Connection,NODE 222,PUMP:CONSTANTSPEED,PUMP CONSTANT SPEED 6,Outlet,1
 Non-Parent Node Connection,NODE 298,PUMP:CONSTANTSPEED,PUMP CONSTANT SPEED 8,Inlet,1
 Non-Parent Node Connection,NODE 304,PUMP:CONSTANTSPEED,PUMP CONSTANT SPEED 8,Outlet,1
 Non-Parent Node Connection,NODE 339,PUMP:CONSTANTSPEED,SERVICE WATER LOOP PUMP,Inlet,1
 Non-Parent Node Connection,NODE 345,PUMP:CONSTANTSPEED,SERVICE WATER LOOP PUMP,Outlet,1
