Program Version,EnergyPlus, Version 8.9.0-eba93e8e1b, YMD=2019.03.08 20:30
! This file shows details about the branches, nodes, and other
! elements of the flow connections.
! This file is intended for use in "debugging" potential problems
! that may also be detected by the program, but may be more easily
! identified by "eye".
! This file is also intended to support software which draws a
! schematic diagram of the HVAC system.
! ===============================================================
! #Nodes,<Number of Unique Nodes>
 #Nodes,482
! <Node>,<NodeNumber>,<Node Name>,<Node Fluid Type>,<# Times Node Referenced After Definition>
 Node,1,NODE 27,Air,4
 Node,2,NODE 45,Air,4
 Node,3,NODE 178,Air,3
 Node,4,NODE 168,Air,4
 Node,5,NODE 177,Air,3
 Node,6,NODE 221,Air,3
 Node,7,NODE 211,Air,4
 Node,8,NODE 220,Air,3
 Node,9,NODE 316,Air,4
 Node,10,NODE 351,Air,4
 Node,11,NODE 335,Air,4
 Node,12,NODE 372,Air,4
 Node,13,NODE 63,Air,4
 Node,14,NODE 76,Air,4
 Node,15,NODE 89,Air,4
 Node,16,NODE 274,Air,4
 Node,17,NODE 102,Air,4
 Node,18,NODE 115,Air,4
 Node,19,NODE 128,Air,4
 Node,20,NODE 254,Air,4
 Node,21,NODE 293,Air,4
 Node,22,NODE 300,Air,4
 Node,23,NODE 342,Air,4
 Node,24,NODE 307,Air,4
 Node,25,NODE 165,Air,10
 Node,26,NODE 166,Air,3
 Node,27,NODE 208,Air,10
 Node,28,NODE 209,Air,3
 Node,29,NODE 23,Air,10
 Node,30,NODE 24,Air,3
 Node,31,NODE 41,Air,10
 Node,32,NODE 42,Air,3
 Node,33,NODE 60,Air,10
 Node,34,NODE 61,Air,3
 Node,35,NODE 73,Air,10
 Node,36,NODE 74,Air,3
 Node,37,NODE 86,Air,10
 Node,38,NODE 87,Air,3
 Node,39,NODE 99,Air,10
 Node,40,NODE 100,Air,3
 Node,41,NODE 112,Air,10
 Node,42,NODE 113,Air,3
 Node,43,NODE 125,Air,10
 Node,44,NODE 126,Air,3
 Node,45,NODE 369,Air,10
 Node,46,NODE 370,Air,3
 Node,47,NODE 251,Air,12
 Node,48,NODE 252,Air,3
 Node,49,NODE 271,Air,12
 Node,50,NODE 272,Air,3
 Node,51,NODE 313,Air,12
 Node,52,NODE 314,Air,3
 Node,53,NODE 348,Air,12
 Node,54,NODE 349,Air,3
 Node,55,NODE 164,Air,3
 Node,56,NODE 173,Air,6
 Node,57,NODE 172,Air,6
 Node,58,NODE 171,Air,8
 Node,59,NODE 207,Air,3
 Node,60,NODE 216,Air,6
 Node,61,NODE 215,Air,6
 Node,62,NODE 214,Air,8
 Node,63,NODE 21,Air,3
 Node,64,NODE 35,Air,6
 Node,65,NODE 33,Air,6
 Node,66,NODE 32,Air,8
 Node,67,NODE 39,Air,3
 Node,68,NODE 53,Air,6
 Node,69,NODE 51,Air,6
 Node,70,NODE 50,Air,8
 Node,71,NODE 59,Air,3
 Node,72,NODE 68,Air,6
 Node,73,NODE 67,Air,6
 Node,74,NODE 66,Air,8
 Node,75,NODE 72,Air,3
 Node,76,NODE 81,Air,6
 Node,77,NODE 80,Air,6
 Node,78,NODE 79,Air,8
 Node,79,NODE 85,Air,3
 Node,80,NODE 94,Air,6
 Node,81,NODE 93,Air,6
 Node,82,NODE 92,Air,8
 Node,83,NODE 98,Air,3
 Node,84,NODE 107,Air,6
 Node,85,NODE 106,Air,6
 Node,86,NODE 105,Air,8
 Node,87,NODE 111,Air,3
 Node,88,NODE 120,Air,6
 Node,89,NODE 119,Air,6
 Node,90,NODE 118,Air,8
 Node,91,NODE 124,Air,3
 Node,92,NODE 133,Air,6
 Node,93,NODE 132,Air,6
 Node,94,NODE 131,Air,8
 Node,95,NODE 368,Air,3
 Node,96,NODE 377,Air,6
 Node,97,NODE 376,Air,6
 Node,98,NODE 375,Air,8
 Node,99,NODE 250,Air,2
 Node,100,NODE 263,Air,5
 Node,101,NODE 262,Air,5
 Node,102,NODE 261,Air,5
 Node,103,NODE 260,Air,9
 Node,104,NODE 270,Air,2
 Node,105,NODE 284,Air,5
 Node,106,NODE 283,Air,5
 Node,107,NODE 282,Air,5
 Node,108,NODE 281,Air,9
 Node,109,NODE 312,Air,2
 Node,110,NODE 326,Air,5
 Node,111,NODE 325,Air,5
 Node,112,NODE 324,Air,5
 Node,113,NODE 323,Air,9
 Node,114,NODE 347,Air,2
 Node,115,NODE 361,Air,5
 Node,116,NODE 360,Air,5
 Node,117,NODE 359,Air,5
 Node,118,NODE 358,Air,9
 Node,119,NODE 137,Water,2
 Node,120,NODE 143,Water,1
 Node,121,NODE 139,Water,1
 Node,122,NODE 144,Water,1
 Node,123,NODE 145,Water,1
 Node,124,NODE 146,Water,1
 Node,125,NODE 147,Water,1
 Node,126,NODE 148,Water,1
 Node,127,NODE 149,Water,1
 Node,128,NODE 138,Water,4
 Node,129,NODE 140,Water,2
 Node,130,CHILLED WATER LOOP DEMAND INLET PIPE NODE,Water,1
 Node,131,NODE 142,Water,1
 Node,132,NODE 176,Water,1
 Node,133,CHILLED WATER LOOP DEMAND BYPASS PIPE INLET NODE,Water,1
 Node,134,CHILLED WATER LOOP DEMAND BYPASS PIPE OUTLET NODE,Water,1
 Node,135,CHILLED WATER LOOP DEMAND OUTLET PIPE NODE,Water,1
 Node,136,NODE 141,Water,2
 Node,137,NODE 180,Water,2
 Node,138,NODE 186,Water,1
 Node,139,NODE 182,Water,1
 Node,140,NODE 187,Water,1
 Node,141,NODE 188,Water,1
 Node,142,NODE 189,Water,1
 Node,143,NODE 190,Water,1
 Node,144,NODE 191,Water,1
 Node,145,NODE 192,Water,1
 Node,146,NODE 181,Water,4
 Node,147,NODE 183,Water,2
 Node,148,CHILLED WATER LOOP 1 DEMAND INLET PIPE NODE,Water,1
 Node,149,NODE 185,Water,1
 Node,150,NODE 219,Water,1
 Node,151,CHILLED WATER LOOP 1 DEMAND BYPASS PIPE INLET NODE,Water,1
 Node,152,CHILLED WATER LOOP 1 DEMAND BYPASS PIPE OUTLET NODE,Water,1
 Node,153,CHILLED WATER LOOP 1 DEMAND OUTLET PIPE NODE,Water,1
 Node,154,NODE 184,Water,2
 Node,155,NODE 223,Water,2
 Node,156,NODE 229,Water,1
 Node,157,NODE 225,Water,1
 Node,158,NODE 230,Water,1
 Node,159,NODE 231,Water,1
 Node,160,NODE 232,Water,1
 Node,161,NODE 233,Water,1
 Node,162,NODE 234,Water,1
 Node,163,NODE 235,Water,1
 Node,164,NODE 224,Water,4
 Node,165,NODE 226,Water,2
 Node,166,CHILLED WATER LOOP 2 DEMAND INLET PIPE NODE,Water,1
 Node,167,NODE 228,Water,2
 Node,168,NODE 257,Water,1
 Node,169,NODE 277,Water,2
 Node,170,NODE 278,Water,1
 Node,171,NODE 319,Water,2
 Node,172,NODE 320,Water,1
 Node,173,NODE 354,Water,2
 Node,174,NODE 355,Water,1
 Node,175,CHILLED WATER LOOP 2 DEMAND BYPASS PIPE INLET NODE,Water,1
 Node,176,CHILLED WATER LOOP 2 DEMAND BYPASS PIPE OUTLET NODE,Water,1
 Node,177,CHILLED WATER LOOP 2 DEMAND OUTLET PIPE NODE,Water,1
 Node,178,NODE 227,Water,2
 Node,179,NODE 150,Water,2
 Node,180,NODE 156,Water,1
 Node,181,NODE 152,Water,1
 Node,182,NODE 157,Water,1
 Node,183,NODE 158,Water,1
 Node,184,NODE 159,Water,1
 Node,185,NODE 160,Water,1
 Node,186,NODE 151,Water,4
 Node,187,NODE 153,Water,2
 Node,188,CONDENSER WATER LOOP DEMAND INLET PIPE NODE,Water,1
 Node,189,NODE 155,Water,1
 Node,190,NODE 161,Water,1
 Node,191,NODE 162,Water,1
 Node,192,NODE 163,Water,1
 Node,193,CONDENSER WATER LOOP DEMAND BYPASS PIPE INLET NODE,Water,1
 Node,194,CONDENSER WATER LOOP DEMAND BYPASS PIPE OUTLET NODE,Water,1
 Node,195,CONDENSER WATER LOOP DEMAND OUTLET PIPE NODE,Water,1
 Node,196,NODE 154,Water,2
 Node,197,NODE 193,Water,2
 Node,198,NODE 199,Water,1
 Node,199,NODE 195,Water,1
 Node,200,NODE 200,Water,1
 Node,201,NODE 201,Water,1
 Node,202,NODE 202,Water,1
 Node,203,NODE 203,Water,1
 Node,204,NODE 194,Water,4
 Node,205,NODE 196,Water,2
 Node,206,CONDENSER WATER LOOP 1 DEMAND INLET PIPE NODE,Water,1
 Node,207,NODE 198,Water,1
 Node,208,NODE 204,Water,1
 Node,209,NODE 205,Water,1
 Node,210,NODE 206,Water,1
 Node,211,CONDENSER WATER LOOP 1 DEMAND BYPASS PIPE INLET NODE,Water,1
 Node,212,CONDENSER WATER LOOP 1 DEMAND BYPASS PIPE OUTLET NODE,Water,1
 Node,213,CONDENSER WATER LOOP 1 DEMAND OUTLET PIPE NODE,Water,1
 Node,214,NODE 197,Water,2
 Node,215,NODE 236,Water,2
 Node,216,NODE 242,Water,1
 Node,217,NODE 238,Water,1
 Node,218,NODE 243,Water,1
 Node,219,NODE 244,Water,1
 Node,220,NODE 245,Water,1
 Node,221,NODE 246,Water,1
 Node,222,NODE 237,Water,4
 Node,223,NODE 239,Water,2
 Node,224,CONDENSER WATER LOOP 2 DEMAND INLET PIPE NODE,Water,1
 Node,225,NODE 241,Water,1
 Node,226,NODE 247,Water,1
 Node,227,NODE 248,Water,1
 Node,228,NODE 249,Water,1
 Node,229,CONDENSER WATER LOOP 2 DEMAND BYPASS PIPE INLET NODE,Water,1
 Node,230,CONDENSER WATER LOOP 2 DEMAND BYPASS PIPE OUTLET NODE,Water,1
 Node,231,CONDENSER WATER LOOP 2 DEMAND OUTLET PIPE NODE,Water,1
 Node,232,NODE 240,Water,2
 Node,233,NODE 2,Water,2
 Node,234,NODE 11,Water,1
 Node,235,NODE 5,Water,1
 Node,236,NODE 12,Water,1
 Node,237,NODE 14,Water,1
 Node,238,NODE 15,Water,1
 Node,239,NODE 17,Water,1
 Node,240,NODE 18,Water,1
 Node,241,NODE 20,Water,1
 Node,242,NODE 3,Water,4
 Node,243,NODE 6,Water,2
 Node,244,HOT WATER LOOP DEMAND INLET PIPE NODE,Water,1
 Node,245,NODE 9,Water,1
 Node,246,NODE 38,Water,1
 Node,247,NODE 56,Water,1
 Node,248,NODE 57,Water,1
 Node,249,NODE 70,Water,1
 Node,250,NODE 71,Water,1
 Node,251,NODE 83,Water,1
 Node,252,NODE 84,Water,1
 Node,253,NODE 96,Water,1
 Node,254,NODE 97,Water,1
 Node,255,NODE 109,Water,1
 Node,256,NODE 110,Water,1
 Node,257,NODE 122,Water,1
 Node,258,NODE 123,Water,1
 Node,259,NODE 135,Water,1
 Node,260,NODE 136,Water,1
 Node,261,NODE 174,Water,1
 Node,262,NODE 175,Water,1
 Node,263,NODE 217,Water,1
 Node,264,NODE 218,Water,1
 Node,265,NODE 255,Water,2
 Node,266,NODE 256,Water,1
 Node,267,NODE 264,Water,1
 Node,268,NODE 265,Water,1
 Node,269,NODE 268,Water,1
 Node,270,NODE 269,Water,1
 Node,271,NODE 275,Water,2
 Node,272,NODE 276,Water,1
 Node,273,NODE 285,Water,1
 Node,274,NODE 286,Water,1
 Node,275,NODE 289,Water,1
 Node,276,NODE 290,Water,1
 Node,277,NODE 291,Water,1
 Node,278,NODE 292,Water,1
 Node,279,NODE 296,Water,1
 Node,280,NODE 297,Water,1
 Node,281,NODE 298,Water,1
 Node,282,NODE 299,Water,1
 Node,283,NODE 303,Water,1
 Node,284,NODE 304,Water,1
 Node,285,NODE 305,Water,1
 Node,286,NODE 306,Water,1
 Node,287,NODE 310,Water,1
 Node,288,NODE 311,Water,1
 Node,289,NODE 317,Water,2
 Node,290,NODE 318,Water,1
 Node,291,NODE 327,Water,1
 Node,292,NODE 328,Water,1
 Node,293,NODE 331,Water,1
 Node,294,NODE 332,Water,1
 Node,295,NODE 333,Water,1
 Node,296,NODE 334,Water,1
 Node,297,NODE 338,Water,1
 Node,298,NODE 339,Water,1
 Node,299,NODE 340,Water,1
 Node,300,NODE 341,Water,1
 Node,301,NODE 345,Water,1
 Node,302,NODE 346,Water,1
 Node,303,NODE 352,Water,2
 Node,304,NODE 353,Water,1
 Node,305,NODE 362,Water,1
 Node,306,NODE 363,Water,1
 Node,307,NODE 366,Water,1
 Node,308,NODE 367,Water,1
 Node,309,NODE 379,Water,1
 Node,310,NODE 380,Water,1
 Node,311,HOT WATER LOOP DEMAND BYPASS PIPE INLET NODE,Water,1
 Node,312,HOT WATER LOOP DEMAND BYPASS PIPE OUTLET NODE,Water,1
 Node,313,HOT WATER LOOP DEMAND OUTLET PIPE NODE,Water,1
 Node,314,NODE 8,Water,2
 Node,315,NODE 381,Water,2
 Node,316,NODE 387,Water,1
 Node,317,NODE 383,Water,1
 Node,318,NODE 388,Water,1
 Node,319,NODE 389,Water,1
 Node,320,NODE 390,Water,1
 Node,321,NODE 392,Water,1
 Node,322,NODE 382,Water,4
 Node,323,NODE 384,Water,2
 Node,324,NODE 393,Water,1
 Node,325,NODE 386,Water,1
 Node,326,NODE 391,Water,1
 Node,327,NODE 395,Water,1
 Node,328,NODE 396,Water,1
 Node,329,NODE 397,Water,1
 Node,330,NODE 398,Water,1
 Node,331,NODE 399,Water,1
 Node,332,NODE 400,Water,1
 Node,333,NODE 401,Water,1
 Node,334,NODE 402,Water,1
 Node,335,NODE 403,Water,1
 Node,336,NODE 404,Water,1
 Node,337,NODE 405,Water,1
 Node,338,NODE 406,Water,1
 Node,339,NODE 407,Water,1
 Node,340,NODE 408,Water,1
 Node,341,NODE 409,Water,1
 Node,342,NODE 410,Water,1
 Node,343,NODE 411,Water,1
 Node,344,NODE 412,Water,1
 Node,345,NODE 413,Water,1
 Node,346,NODE 414,Water,1
 Node,347,NODE 415,Water,1
 Node,348,NODE 416,Water,1
 Node,349,NODE 417,Water,1
 Node,350,NODE 418,Water,1
 Node,351,NODE 419,Water,1
 Node,352,NODE 420,Water,1
 Node,353,NODE 421,Water,1
 Node,354,NODE 422,Water,1
 Node,355,NODE 423,Water,1
 Node,356,NODE 424,Water,1
 Node,357,NODE 425,Water,1
 Node,358,NODE 426,Water,1
 Node,359,NODE 427,Water,1
 Node,360,NODE 428,Water,1
 Node,361,NODE 429,Water,1
 Node,362,NODE 430,Water,1
 Node,363,NODE 431,Water,1
 Node,364,NODE 432,Water,1
 Node,365,MAIN SERVICE WATER LOOP DEMAND BYPASS PIPE INLET NODE,Water,1
 Node,366,MAIN SERVICE WATER LOOP DEMAND BYPASS PIPE OUTLET NODE,Water,1
 Node,367,NODE 394,Water,1
 Node,368,NODE 385,Water,2
 Node,369,NODE 1,Air,1
 Node,370,NODE 36,Air,1
 Node,371,NODE 4,Air,1
 Node,372,NODE 54,Air,1
 Node,373,NODE 7,Air,1
 Node,374,NODE 179,Air,1
 Node,375,NODE 10,Air,1
 Node,376,NODE 222,Air,1
 Node,377,NODE 16,Air,0
 Node,378,NODE 329,Air,1
 Node,379,NODE 13,Air,0
 Node,380,NODE 364,Air,1
 Node,381,NODE 19,Air,0
 Node,382,NODE 336,Air,1
 Node,383,NODE 22,Air,1
 Node,384,NODE 378,Air,1
 Node,385,NODE 25,Air,1
 Node,386,NODE 69,Air,1
 Node,387,NODE 28,Air,1
 Node,388,NODE 82,Air,1
 Node,389,NODE 31,Air,1
 Node,390,NODE 95,Air,1
 Node,391,NODE 34,Air,0
 Node,392,NODE 287,Air,1
 Node,393,NODE 37,Air,1
 Node,394,NODE 108,Air,1
 Node,395,NODE 40,Air,1
 Node,396,NODE 121,Air,1
 Node,397,NODE 43,Air,1
 Node,398,NODE 134,Air,1
 Node,399,NODE 46,Air,0
 Node,400,NODE 266,Air,1
 Node,401,NODE 49,Air,0
 Node,402,NODE 294,Air,1
 Node,403,NODE 52,Air,0
 Node,404,NODE 301,Air,1
 Node,405,NODE 55,Air,0
 Node,406,NODE 343,Air,1
 Node,407,NODE 58,Air,0
 Node,408,NODE 308,Air,1
 Node,409,NODE 167,Air,2
 Node,410,NODE 210,Air,2
 Node,411,NODE 26,Air,2
 Node,412,NODE 44,Air,2
 Node,413,NODE 62,Air,2
 Node,414,NODE 75,Air,2
 Node,415,NODE 88,Air,2
 Node,416,NODE 101,Air,2
 Node,417,NODE 114,Air,2
 Node,418,NODE 127,Air,2
 Node,419,NODE 371,Air,2
 Node,420,NODE 253,Air,2
 Node,421,NODE 273,Air,2
 Node,422,NODE 315,Air,2
 Node,423,NODE 350,Air,2
 Node,424,ZONE HVAC FOUR PIPE FAN COIL 1 OA NODE,Air,1
 Node,425,ZONE HVAC FOUR PIPE FAN COIL 2 OA NODE,Air,1
 Node,426,NODE 169,Air,2
 Node,427,NODE 212,Air,2
 Node,428,NODE 29,Air,2
 Node,429,NODE 47,Air,2
 Node,430,NODE 64,Air,2
 Node,431,NODE 77,Air,2
 Node,432,NODE 90,Air,2
 Node,433,NODE 103,Air,2
 Node,434,NODE 116,Air,2
 Node,435,NODE 129,Air,2
 Node,436,NODE 373,Air,2
 Node,437,NODE 258,Air,2
 Node,438,NODE 279,Air,2
 Node,439,NODE 321,Air,2
 Node,440,NODE 356,Air,2
 Node,441,MODEL OUTDOOR AIR NODE,Air,0
 Node,442,NODE 267,Air,1
 Node,443,NODE 288,Air,1
 Node,444,NODE 295,Air,1
 Node,445,NODE 302,Air,1
 Node,446,NODE 309,Air,1
 Node,447,NODE 330,Air,1
 Node,448,NODE 337,Air,1
 Node,449,NODE 344,Air,1
 Node,450,NODE 365,Air,1
 Node,451,ZONE HVAC FOUR PIPE FAN COIL 1 MIXED AIR NODE,Air,1
 Node,452,ZONE HVAC FOUR PIPE FAN COIL 1 RELIEF AIR NODE,Air,0
 Node,453,ZONE HVAC FOUR PIPE FAN COIL 2 MIXED AIR NODE,Air,1
 Node,454,ZONE HVAC FOUR PIPE FAN COIL 2 RELIEF AIR NODE,Air,0
 Node,455,NODE 170,Air,1
 Node,456,NODE 213,Air,1
 Node,457,NODE 30,Air,1
 Node,458,NODE 48,Air,1
 Node,459,NODE 65,Air,1
 Node,460,NODE 78,Air,1
 Node,461,NODE 91,Air,1
 Node,462,NODE 104,Air,1
 Node,463,NODE 117,Air,1
 Node,464,NODE 130,Air,1
 Node,465,NODE 374,Air,1
 Node,466,NODE 259,Air,1
 Node,467,NODE 280,Air,1
 Node,468,NODE 322,Air,1
 Node,469,NODE 357,Air,1
 Node,470,ZONE HVAC FOUR PIPE FAN COIL 1 COOLING COIL OUTLET NODE,Air,1
 Node,471,ZONE HVAC FOUR PIPE FAN COIL 2 COOLING COIL OUTLET NODE,Air,1
 Node,472,AIR TERMINAL SINGLE DUCT VAV REHEAT 6 DAMPER OUTLET,Air,1
 Node,473,AIR TERMINAL SINGLE DUCT VAV REHEAT 9 DAMPER OUTLET,Air,1
 Node,474,AIR TERMINAL SINGLE DUCT VAV REHEAT 7 DAMPER OUTLET,Air,1
 Node,475,AIR TERMINAL SINGLE DUCT VAV REHEAT 2 DAMPER OUTLET,Air,1
 Node,476,AIR TERMINAL SINGLE DUCT VAV REHEAT 1 DAMPER OUTLET,Air,1
 Node,477,AIR TERMINAL SINGLE DUCT VAV REHEAT 3 DAMPER OUTLET,Air,1
 Node,478,AIR TERMINAL SINGLE DUCT VAV REHEAT 4 DAMPER OUTLET,Air,1
 Node,479,AIR TERMINAL SINGLE DUCT VAV REHEAT 8 DAMPER OUTLET,Air,1
 Node,480,AIR TERMINAL SINGLE DUCT VAV REHEAT 5 DAMPER OUTLET,Air,1
 Node,481,ZONE HVAC FOUR PIPE FAN COIL 1 FAN OUTLET NODE,Air,1
 Node,482,ZONE HVAC FOUR PIPE FAN COIL 2 FAN OUTLET NODE,Air,1
! ===============================================================
! Suspicious nodes have 0 references.  It is normal for some nodes, however.
! Listing nodes with 0 references (culled from previous list):
! <Suspicious Node>,<NodeNumber>,<Node Name>,<Node Fluid Type>,<# Times Node Referenced After Definition>
 Suspicious Node,377,NODE 16,Air,0
 Suspicious Node,379,NODE 13,Air,0
 Suspicious Node,381,NODE 19,Air,0
 Suspicious Node,391,NODE 34,Air,0
 Suspicious Node,399,NODE 46,Air,0
 Suspicious Node,401,NODE 49,Air,0
 Suspicious Node,403,NODE 52,Air,0
 Suspicious Node,405,NODE 55,Air,0
 Suspicious Node,407,NODE 58,Air,0
 Suspicious Node,441,MODEL OUTDOOR AIR NODE,Air,0
 Suspicious Node,452,ZONE HVAC FOUR PIPE FAN COIL 1 RELIEF AIR NODE,Air,0
 Suspicious Node,454,ZONE HVAC FOUR PIPE FAN COIL 2 RELIEF AIR NODE,Air,0
! ===============================================================
! <#Branch Lists>,<Number of Branch Lists>
 #Branch Lists,31
! <Branch List>,<Branch List Count>,<Branch List Name>,<Loop Name>,<Loop Type>,<Number of Branches>
! <Branch>,<Branch Count>,<Branch Name>,<Loop Name>,<Loop Type>,<Branch Inlet Node Name>,<Branch Outlet Node Name>
 Branch List,1,SYS_2_MAKE-UP AIR UNIT SUPPLY BRANCHES,SYS_2_MAKE-UP AIR UNIT,Air,1
   Branch,1,SYS_2_MAKE-UP AIR UNIT MAIN BRANCH,SYS_2_MAKE-UP AIR UNIT,Air,NODE 164,NODE 165
 Branch List,2,SYS_2_MAKE-UP AIR UNIT 1 SUPPLY BRANCHES,SYS_2_MAKE-UP AIR UNIT 1,Air,1
   Branch,1,SYS_2_MAKE-UP AIR UNIT 1 MAIN BRANCH,SYS_2_MAKE-UP AIR UNIT 1,Air,NODE 207,NODE 208
 Branch List,3,SYS_3_PSZ ALL_ST=MFG - DETAILED_FL=STORY 4_SCH=A SUPPLY BRANCHES,SYS_3_PSZ ALL_ST=MFG - DETAILED_FL=STORY 4_SCH=A,Air,1
   Branch,1,SYS_3_PSZ ALL_ST=MFG - DETAILED_FL=STORY 4_SCH=A MAIN BRANCH,SYS_3_PSZ ALL_ST=MFG - DETAILED_FL=STORY 4_SCH=A,Air,NODE 21,NODE 23
 Branch List,4,SYS_3_PSZ ALL_ST=MFG - EQUIPMENT_FL=STORY 4_SCH=A SUPPLY BRANCHES,SYS_3_PSZ ALL_ST=MFG - EQUIPMENT_FL=STORY 4_SCH=A,Air,1
   Branch,1,SYS_3_PSZ ALL_ST=MFG - EQUIPMENT_FL=STORY 4_SCH=A MAIN BRANCH,SYS_3_PSZ ALL_ST=MFG - EQUIPMENT_FL=STORY 4_SCH=A,Air,NODE 39,NODE 41
 Branch List,5,SYS_3_PSZ ALL_ST=PENITENTIARY - AUDIENCE_FL=STORY 3_SCH=C SUPPLY BRANCHES,SYS_3_PSZ ALL_ST=PENITENTIARY - AUDIENCE_FL=STORY 3_SCH=C,Air,1
   Branch,1,SYS_3_PSZ ALL_ST=PENITENTIARY - AUDIENCE_FL=STORY 3_SCH=C MAIN BRANCH,SYS_3_PSZ ALL_ST=PENITENTIARY - AUDIENCE_FL=STORY 3_SCH=C,Air,NODE 59,NODE 60
 Branch List,6,SYS_3_PSZ ALL_ST=PENITENTIARY - CLASSROOM_FL=STORY 1_SCH=D SUPPLY BRANCHES,SYS_3_PSZ ALL_ST=PENITENTIARY - CLASSROOM_FL=STORY 1_SCH=D,Air,1
   Branch,1,SYS_3_PSZ ALL_ST=PENITENTIARY - CLASSROOM_FL=STORY 1_SCH=D MAIN BRANCH,SYS_3_PSZ ALL_ST=PENITENTIARY - CLASSROOM_FL=STORY 1_SCH=D,Air,NODE 72,NODE 73
 Branch List,7,SYS_3_PSZ ALL_ST=PENITENTIARY - DINING_FL=STORY 2_SCH=B SUPPLY BRANCHES,SYS_3_PSZ ALL_ST=PENITENTIARY - DINING_FL=STORY 2_SCH=B,Air,1
   Branch,1,SYS_3_PSZ ALL_ST=PENITENTIARY - DINING_FL=STORY 2_SCH=B MAIN BRANCH,SYS_3_PSZ ALL_ST=PENITENTIARY - DINING_FL=STORY 2_SCH=B,Air,NODE 85,NODE 86
 Branch List,8,SYS_3_PSZ ALL_ST=RELIGIOUS - AUDIENCE_FL=STORY 1_SCH=I SUPPLY BRANCHES,SYS_3_PSZ ALL_ST=RELIGIOUS - AUDIENCE_FL=STORY 1_SCH=I,Air,1
   Branch,1,SYS_3_PSZ ALL_ST=RELIGIOUS - AUDIENCE_FL=STORY 1_SCH=I MAIN BRANCH,SYS_3_PSZ ALL_ST=RELIGIOUS - AUDIENCE_FL=STORY 1_SCH=I,Air,NODE 98,NODE 99
 Branch List,9,SYS_3_PSZ ALL_ST=RELIGIOUS - FELLOWSHIP HALL_FL=STORY 1_SCH=C SUPPLY BRANCHES,SYS_3_PSZ ALL_ST=RELIGIOUS - FELLOWSHIP HALL_FL=STORY 1_SCH=C,Air,1
   Branch,1,SYS_3_PSZ ALL_ST=RELIGIOUS - FELLOWSHIP HALL_FL=STORY 1_SCH=C MAIN BRANCH,SYS_3_PSZ ALL_ST=RELIGIOUS - FELLOWSHIP HALL_FL=STORY 1_SCH=C,Air,NODE 111,NODE 112
 Branch List,10,SYS_3_PSZ ALL_ST=RELIGIOUS - PULPIT/CHOIR_FL=STORY 1_SCH=I SUPPLY BRANCHES,SYS_3_PSZ ALL_ST=RELIGIOUS - PULPIT/CHOIR_FL=STORY 1_SCH=I,Air,1
   Branch,1,SYS_3_PSZ ALL_ST=RELIGIOUS - PULPIT/CHOIR_FL=STORY 1_SCH=I MAIN BRANCH,SYS_3_PSZ ALL_ST=RELIGIOUS - PULPIT/CHOIR_FL=STORY 1_SCH=I,Air,NODE 124,NODE 125
 Branch List,11,SYS_4_PSZ_ALL_ST=PARKING GARAGE SPACE_FL=STORY 3_SCH=H SUPPLY BRANCHES,SYS_4_PSZ_ALL_ST=PARKING GARAGE SPACE_FL=STORY 3_SCH=H,Air,1
   Branch,1,SYS_4_PSZ_ALL_ST=PARKING GARAGE SPACE_FL=STORY 3_SCH=H MAIN BRANCH,SYS_4_PSZ_ALL_ST=PARKING GARAGE SPACE_FL=STORY 3_SCH=H,Air,NODE 368,NODE 369
 Branch List,12,SYS_6_VAV WITH REHEAT SUPPLY BRANCHES,SYS_6_VAV WITH REHEAT,Air,1
   Branch,1,SYS_6_VAV WITH REHEAT MAIN BRANCH,SYS_6_VAV WITH REHEAT,Air,NODE 250,NODE 251
 Branch List,13,SYS_6_VAV WITH REHEAT 1 SUPPLY BRANCHES,SYS_6_VAV WITH REHEAT 1,Air,1
   Branch,1,SYS_6_VAV WITH REHEAT 1 MAIN BRANCH,SYS_6_VAV WITH REHEAT 1,Air,NODE 270,NODE 271
 Branch List,14,SYS_6_VAV WITH REHEAT 2 SUPPLY BRANCHES,SYS_6_VAV WITH REHEAT 2,Air,1
   Branch,1,SYS_6_VAV WITH REHEAT 2 MAIN BRANCH,SYS_6_VAV WITH REHEAT 2,Air,NODE 312,NODE 313
 Branch List,15,SYS_6_VAV WITH REHEAT 3 SUPPLY BRANCHES,SYS_6_VAV WITH REHEAT 3,Air,1
   Branch,1,SYS_6_VAV WITH REHEAT 3 MAIN BRANCH,SYS_6_VAV WITH REHEAT 3,Air,NODE 347,NODE 348
 Branch List,16,CHILLED WATER LOOP SUPPLY BRANCHES,CHILLED WATER LOOP,Plant Supply,5
   Branch,1,CHILLED WATER LOOP SUPPLY INLET BRANCH,CHILLED WATER LOOP,Plant Supply,NODE 137,NODE 143
   Branch,2,CHILLED WATER LOOP SUPPLY BRANCH 1,CHILLED WATER LOOP,Plant Supply,NODE 139,NODE 144
   Branch,3,CHILLED WATER LOOP SUPPLY BRANCH 2,CHILLED WATER LOOP,Plant Supply,NODE 145,NODE 146
   Branch,4,CHILLED WATER LOOP SUPPLY BRANCH 3,CHILLED WATER LOOP,Plant Supply,NODE 147,NODE 148
   Branch,5,CHILLED WATER LOOP SUPPLY OUTLET BRANCH,CHILLED WATER LOOP,Plant Supply,NODE 149,NODE 138
 Branch List,17,CHILLED WATER LOOP DEMAND BRANCHES,CHILLED WATER LOOP,Plant Demand,4
   Branch,1,CHILLED WATER LOOP DEMAND INLET BRANCH,CHILLED WATER LOOP,Plant Demand,NODE 140,CHILLED WATER LOOP DEMAND INLET PIPE NODE
   Branch,2,CHILLED WATER LOOP DEMAND BRANCH 1,CHILLED WATER LOOP,Plant Demand,NODE 142,NODE 176
   Branch,3,CHILLED WATER LOOP DEMAND BYPASS BRANCH,CHILLED WATER LOOP,Plant Demand,CHILLED WATER LOOP DEMAND BYPASS PIPE INLET NODE,CHILLED WATER LOOP DEMAND BYPASS PIPE OUTLET NODE
   Branch,4,CHILLED WATER LOOP DEMAND OUTLET BRANCH,CHILLED WATER LOOP,Plant Demand,CHILLED WATER LOOP DEMAND OUTLET PIPE NODE,NODE 141
 Branch List,18,CHILLED WATER LOOP 1 SUPPLY BRANCHES,CHILLED WATER LOOP 1,Plant Supply,5
   Branch,1,CHILLED WATER LOOP 1 SUPPLY INLET BRANCH,CHILLED WATER LOOP 1,Plant Supply,NODE 180,NODE 186
   Branch,2,CHILLED WATER LOOP 1 SUPPLY BRANCH 1,CHILLED WATER LOOP 1,Plant Supply,NODE 182,NODE 187
   Branch,3,CHILLED WATER LOOP 1 SUPPLY BRANCH 2,CHILLED WATER LOOP 1,Plant Supply,NODE 188,NODE 189
   Branch,4,CHILLED WATER LOOP 1 SUPPLY BRANCH 3,CHILLED WATER LOOP 1,Plant Supply,NODE 190,NODE 191
   Branch,5,CHILLED WATER LOOP 1 SUPPLY OUTLET BRANCH,CHILLED WATER LOOP 1,Plant Supply,NODE 192,NODE 181
 Branch List,19,CHILLED WATER LOOP 1 DEMAND BRANCHES,CHILLED WATER LOOP 1,Plant Demand,4
   Branch,1,CHILLED WATER LOOP 1 DEMAND INLET BRANCH,CHILLED WATER LOOP 1,Plant Demand,NODE 183,CHILLED WATER LOOP 1 DEMAND INLET PIPE NODE
   Branch,2,CHILLED WATER LOOP 1 DEMAND BRANCH 1,CHILLED WATER LOOP 1,Plant Demand,NODE 185,NODE 219
   Branch,3,CHILLED WATER LOOP 1 DEMAND BYPASS BRANCH,CHILLED WATER LOOP 1,Plant Demand,CHILLED WATER LOOP 1 DEMAND BYPASS PIPE INLET NODE,CHILLED WATER LOOP 1 DEMAND BYPASS PIPE OUTLET NODE
   Branch,4,CHILLED WATER LOOP 1 DEMAND OUTLET BRANCH,CHILLED WATER LOOP 1,Plant Demand,CHILLED WATER LOOP 1 DEMAND OUTLET PIPE NODE,NODE 184
 Branch List,20,CHILLED WATER LOOP 2 SUPPLY BRANCHES,CHILLED WATER LOOP 2,Plant Supply,5
   Branch,1,CHILLED WATER LOOP 2 SUPPLY INLET BRANCH,CHILLED WATER LOOP 2,Plant Supply,NODE 223,NODE 229
   Branch,2,CHILLED WATER LOOP 2 SUPPLY BRANCH 1,CHILLED WATER LOOP 2,Plant Supply,NODE 225,NODE 230
   Branch,3,CHILLED WATER LOOP 2 SUPPLY BRANCH 2,CHILLED WATER LOOP 2,Plant Supply,NODE 231,NODE 232
   Branch,4,CHILLED WATER LOOP 2 SUPPLY BRANCH 3,CHILLED WATER LOOP 2,Plant Supply,NODE 233,NODE 234
   Branch,5,CHILLED WATER LOOP 2 SUPPLY OUTLET BRANCH,CHILLED WATER LOOP 2,Plant Supply,NODE 235,NODE 224
 Branch List,21,CHILLED WATER LOOP 2 DEMAND BRANCHES,CHILLED WATER LOOP 2,Plant Demand,7
   Branch,1,CHILLED WATER LOOP 2 DEMAND INLET BRANCH,CHILLED WATER LOOP 2,Plant Demand,NODE 226,CHILLED WATER LOOP 2 DEMAND INLET PIPE NODE
   Branch,2,CHILLED WATER LOOP 2 DEMAND BRANCH 1,CHILLED WATER LOOP 2,Plant Demand,NODE 228,NODE 257
   Branch,3,CHILLED WATER LOOP 2 DEMAND BRANCH 2,CHILLED WATER LOOP 2,Plant Demand,NODE 277,NODE 278
   Branch,4,CHILLED WATER LOOP 2 DEMAND BRANCH 3,CHILLED WATER LOOP 2,Plant Demand,NODE 319,NODE 320
   Branch,5,CHILLED WATER LOOP 2 DEMAND BRANCH 4,CHILLED WATER LOOP 2,Plant Demand,NODE 354,NODE 355
   Branch,6,CHILLED WATER LOOP 2 DEMAND BYPASS BRANCH,CHILLED WATER LOOP 2,Plant Demand,CHILLED WATER LOOP 2 DEMAND BYPASS PIPE INLET NODE,CHILLED WATER LOOP 2 DEMAND BYPASS PIPE OUTLET NODE
   Branch,7,CHILLED WATER LOOP 2 DEMAND OUTLET BRANCH,CHILLED WATER LOOP 2,Plant Demand,CHILLED WATER LOOP 2 DEMAND OUTLET PIPE NODE,NODE 227
 Branch List,22,CONDENSER WATER LOOP SUPPLY BRANCHES,CONDENSER WATER LOOP,Plant Supply,4
   Branch,1,CONDENSER WATER LOOP SUPPLY INLET BRANCH,CONDENSER WATER LOOP,Plant Supply,NODE 150,NODE 156
   Branch,2,CONDENSER WATER LOOP SUPPLY BRANCH 1,CONDENSER WATER LOOP,Plant Supply,NODE 152,NODE 157
   Branch,3,CONDENSER WATER LOOP SUPPLY BRANCH 2,CONDENSER WATER LOOP,Plant Supply,NODE 158,NODE 159
   Branch,4,CONDENSER WATER LOOP SUPPLY OUTLET BRANCH,CONDENSER WATER LOOP,Plant Supply,NODE 160,NODE 151
 Branch List,23,CONDENSER WATER LOOP DEMAND BRANCHES,CONDENSER WATER LOOP,Plant Demand,5
   Branch,1,CONDENSER WATER LOOP DEMAND INLET BRANCH,CONDENSER WATER LOOP,Plant Demand,NODE 153,CONDENSER WATER LOOP DEMAND INLET PIPE NODE
   Branch,2,CONDENSER WATER LOOP DEMAND BRANCH 1,CONDENSER WATER LOOP,Plant Demand,NODE 155,NODE 161
   Branch,3,CONDENSER WATER LOOP DEMAND BRANCH 2,CONDENSER WATER LOOP,Plant Demand,NODE 162,NODE 163
   Branch,4,CONDENSER WATER LOOP DEMAND BYPASS BRANCH,CONDENSER WATER LOOP,Plant Demand,CONDENSER WATER LOOP DEMAND BYPASS PIPE INLET NODE,CONDENSER WATER LOOP DEMAND BYPASS PIPE OUTLET NODE
   Branch,5,CONDENSER WATER LOOP DEMAND OUTLET BRANCH,CONDENSER WATER LOOP,Plant Demand,CONDENSER WATER LOOP DEMAND OUTLET PIPE NODE,NODE 154
 Branch List,24,CONDENSER WATER LOOP 1 SUPPLY BRANCHES,CONDENSER WATER LOOP 1,Plant Supply,4
   Branch,1,CONDENSER WATER LOOP 1 SUPPLY INLET BRANCH,CONDENSER WATER LOOP 1,Plant Supply,NODE 193,NODE 199
   Branch,2,CONDENSER WATER LOOP 1 SUPPLY BRANCH 1,CONDENSER WATER LOOP 1,Plant Supply,NODE 195,NODE 200
   Branch,3,CONDENSER WATER LOOP 1 SUPPLY BRANCH 2,CONDENSER WATER LOOP 1,Plant Supply,NODE 201,NODE 202
   Branch,4,CONDENSER WATER LOOP 1 SUPPLY OUTLET BRANCH,CONDENSER WATER LOOP 1,Plant Supply,NODE 203,NODE 194
 Branch List,25,CONDENSER WATER LOOP 1 DEMAND BRANCHES,CONDENSER WATER LOOP 1,Plant Demand,5
   Branch,1,CONDENSER WATER LOOP 1 DEMAND INLET BRANCH,CONDENSER WATER LOOP 1,Plant Demand,NODE 196,CONDENSER WATER LOOP 1 DEMAND INLET PIPE NODE
   Branch,2,CONDENSER WATER LOOP 1 DEMAND BRANCH 1,CONDENSER WATER LOOP 1,Plant Demand,NODE 198,NODE 204
   Branch,3,CONDENSER WATER LOOP 1 DEMAND BRANCH 2,CONDENSER WATER LOOP 1,Plant Demand,NODE 205,NODE 206
   Branch,4,CONDENSER WATER LOOP 1 DEMAND BYPASS BRANCH,CONDENSER WATER LOOP 1,Plant Demand,CONDENSER WATER LOOP 1 DEMAND BYPASS PIPE INLET NODE,CONDENSER WATER LOOP 1 DEMAND BYPASS PIPE OUTLET NODE
   Branch,5,CONDENSER WATER LOOP 1 DEMAND OUTLET BRANCH,CONDENSER WATER LOOP 1,Plant Demand,CONDENSER WATER LOOP 1 DEMAND OUTLET PIPE NODE,NODE 197
 Branch List,26,CONDENSER WATER LOOP 2 SUPPLY BRANCHES,CONDENSER WATER LOOP 2,Plant Supply,4
   Branch,1,CONDENSER WATER LOOP 2 SUPPLY INLET BRANCH,CONDENSER WATER LOOP 2,Plant Supply,NODE 236,NODE 242
   Branch,2,CONDENSER WATER LOOP 2 SUPPLY BRANCH 1,CONDENSER WATER LOOP 2,Plant Supply,NODE 238,NODE 243
   Branch,3,CONDENSER WATER LOOP 2 SUPPLY BRANCH 2,CONDENSER WATER LOOP 2,Plant Supply,NODE 244,NODE 245
   Branch,4,CONDENSER WATER LOOP 2 SUPPLY OUTLET BRANCH,CONDENSER WATER LOOP 2,Plant Supply,NODE 246,NODE 237
 Branch List,27,CONDENSER WATER LOOP 2 DEMAND BRANCHES,CONDENSER WATER LOOP 2,Plant Demand,5
   Branch,1,CONDENSER WATER LOOP 2 DEMAND INLET BRANCH,CONDENSER WATER LOOP 2,Plant Demand,NODE 239,CONDENSER WATER LOOP 2 DEMAND INLET PIPE NODE
   Branch,2,CONDENSER WATER LOOP 2 DEMAND BRANCH 1,CONDENSER WATER LOOP 2,Plant Demand,NODE 241,NODE 247
   Branch,3,CONDENSER WATER LOOP 2 DEMAND BRANCH 2,CONDENSER WATER LOOP 2,Plant Demand,NODE 248,NODE 249
   Branch,4,CONDENSER WATER LOOP 2 DEMAND BYPASS BRANCH,CONDENSER WATER LOOP 2,Plant Demand,CONDENSER WATER LOOP 2 DEMAND BYPASS PIPE INLET NODE,CONDENSER WATER LOOP 2 DEMAND BYPASS PIPE OUTLET NODE
   Branch,5,CONDENSER WATER LOOP 2 DEMAND OUTLET BRANCH,CONDENSER WATER LOOP 2,Plant Demand,CONDENSER WATER LOOP 2 DEMAND OUTLET PIPE NODE,NODE 240
 Branch List,28,HOT WATER LOOP SUPPLY BRANCHES,HOT WATER LOOP,Plant Supply,5
   Branch,1,HOT WATER LOOP SUPPLY INLET BRANCH,HOT WATER LOOP,Plant Supply,NODE 2,NODE 11
   Branch,2,HOT WATER LOOP SUPPLY BRANCH 1,HOT WATER LOOP,Plant Supply,NODE 5,NODE 12
   Branch,3,HOT WATER LOOP SUPPLY BRANCH 2,HOT WATER LOOP,Plant Supply,NODE 14,NODE 15
   Branch,4,HOT WATER LOOP SUPPLY BRANCH 3,HOT WATER LOOP,Plant Supply,NODE 17,NODE 18
   Branch,5,HOT WATER LOOP SUPPLY OUTLET BRANCH,HOT WATER LOOP,Plant Supply,NODE 20,NODE 3
 Branch List,29,HOT WATER LOOP DEMAND BRANCHES,HOT WATER LOOP,Plant Demand,36
   Branch,1,HOT WATER LOOP DEMAND INLET BRANCH,HOT WATER LOOP,Plant Demand,NODE 6,HOT WATER LOOP DEMAND INLET PIPE NODE
   Branch,2,HOT WATER LOOP DEMAND BRANCH 1,HOT WATER LOOP,Plant Demand,NODE 9,NODE 38
   Branch,3,HOT WATER LOOP DEMAND BRANCH 2,HOT WATER LOOP,Plant Demand,NODE 56,NODE 57
   Branch,4,HOT WATER LOOP DEMAND BRANCH 3,HOT WATER LOOP,Plant Demand,NODE 70,NODE 71
   Branch,5,HOT WATER LOOP DEMAND BRANCH 4,HOT WATER LOOP,Plant Demand,NODE 83,NODE 84
   Branch,6,HOT WATER LOOP DEMAND BRANCH 5,HOT WATER LOOP,Plant Demand,NODE 96,NODE 97
   Branch,7,HOT WATER LOOP DEMAND BRANCH 6,HOT WATER LOOP,Plant Demand,NODE 109,NODE 110
   Branch,8,HOT WATER LOOP DEMAND BRANCH 7,HOT WATER LOOP,Plant Demand,NODE 122,NODE 123
   Branch,9,HOT WATER LOOP DEMAND BRANCH 8,HOT WATER LOOP,Plant Demand,NODE 135,NODE 136
   Branch,10,HOT WATER LOOP DEMAND BRANCH 9,HOT WATER LOOP,Plant Demand,NODE 174,NODE 175
   Branch,11,HOT WATER LOOP DEMAND BRANCH 10,HOT WATER LOOP,Plant Demand,NODE 217,NODE 218
   Branch,12,HOT WATER LOOP DEMAND BRANCH 11,HOT WATER LOOP,Plant Demand,NODE 255,NODE 256
   Branch,13,HOT WATER LOOP DEMAND BRANCH 12,HOT WATER LOOP,Plant Demand,NODE 264,NODE 265
   Branch,14,HOT WATER LOOP DEMAND BRANCH 13,HOT WATER LOOP,Plant Demand,NODE 268,NODE 269
   Branch,15,HOT WATER LOOP DEMAND BRANCH 14,HOT WATER LOOP,Plant Demand,NODE 275,NODE 276
   Branch,16,HOT WATER LOOP DEMAND BRANCH 15,HOT WATER LOOP,Plant Demand,NODE 285,NODE 286
   Branch,17,HOT WATER LOOP DEMAND BRANCH 16,HOT WATER LOOP,Plant Demand,NODE 289,NODE 290
   Branch,18,HOT WATER LOOP DEMAND BRANCH 17,HOT WATER LOOP,Plant Demand,NODE 291,NODE 292
   Branch,19,HOT WATER LOOP DEMAND BRANCH 18,HOT WATER LOOP,Plant Demand,NODE 296,NODE 297
   Branch,20,HOT WATER LOOP DEMAND BRANCH 19,HOT WATER LOOP,Plant Demand,NODE 298,NODE 299
   Branch,21,HOT WATER LOOP DEMAND BRANCH 20,HOT WATER LOOP,Plant Demand,NODE 303,NODE 304
   Branch,22,HOT WATER LOOP DEMAND BRANCH 21,HOT WATER LOOP,Plant Demand,NODE 305,NODE 306
   Branch,23,HOT WATER LOOP DEMAND BRANCH 22,HOT WATER LOOP,Plant Demand,NODE 310,NODE 311
   Branch,24,HOT WATER LOOP DEMAND BRANCH 23,HOT WATER LOOP,Plant Demand,NODE 317,NODE 318
   Branch,25,HOT WATER LOOP DEMAND BRANCH 24,HOT WATER LOOP,Plant Demand,NODE 327,NODE 328
   Branch,26,HOT WATER LOOP DEMAND BRANCH 25,HOT WATER LOOP,Plant Demand,NODE 331,NODE 332
   Branch,27,HOT WATER LOOP DEMAND BRANCH 26,HOT WATER LOOP,Plant Demand,NODE 333,NODE 334
   Branch,28,HOT WATER LOOP DEMAND BRANCH 27,HOT WATER LOOP,Plant Demand,NODE 338,NODE 339
   Branch,29,HOT WATER LOOP DEMAND BRANCH 28,HOT WATER LOOP,Plant Demand,NODE 340,NODE 341
   Branch,30,HOT WATER LOOP DEMAND BRANCH 29,HOT WATER LOOP,Plant Demand,NODE 345,NODE 346
   Branch,31,HOT WATER LOOP DEMAND BRANCH 30,HOT WATER LOOP,Plant Demand,NODE 352,NODE 353
   Branch,32,HOT WATER LOOP DEMAND BRANCH 31,HOT WATER LOOP,Plant Demand,NODE 362,NODE 363
   Branch,33,HOT WATER LOOP DEMAND BRANCH 32,HOT WATER LOOP,Plant Demand,NODE 366,NODE 367
   Branch,34,HOT WATER LOOP DEMAND BRANCH 33,HOT WATER LOOP,Plant Demand,NODE 379,NODE 380
   Branch,35,HOT WATER LOOP DEMAND BYPASS BRANCH,HOT WATER LOOP,Plant Demand,HOT WATER LOOP DEMAND BYPASS PIPE INLET NODE,HOT WATER LOOP DEMAND BYPASS PIPE OUTLET NODE
   Branch,36,HOT WATER LOOP DEMAND OUTLET BRANCH,HOT WATER LOOP,Plant Demand,HOT WATER LOOP DEMAND OUTLET PIPE NODE,NODE 8
 Branch List,30,MAIN SERVICE WATER LOOP SUPPLY BRANCHES,MAIN SERVICE WATER LOOP,Plant Supply,4
   Branch,1,MAIN SERVICE WATER LOOP SUPPLY INLET BRANCH,MAIN SERVICE WATER LOOP,Plant Supply,NODE 381,NODE 387
   Branch,2,MAIN SERVICE WATER LOOP SUPPLY BRANCH 1,MAIN SERVICE WATER LOOP,Plant Supply,NODE 383,NODE 388
   Branch,3,MAIN SERVICE WATER LOOP SUPPLY BRANCH 2,MAIN SERVICE WATER LOOP,Plant Supply,NODE 389,NODE 390
   Branch,4,MAIN SERVICE WATER LOOP SUPPLY OUTLET BRANCH,MAIN SERVICE WATER LOOP,Plant Supply,NODE 392,NODE 382
 Branch List,31,MAIN SERVICE WATER LOOP DEMAND BRANCHES,MAIN SERVICE WATER LOOP,Plant Demand,23
   Branch,1,MAIN SERVICE WATER LOOP DEMAND INLET BRANCH,MAIN SERVICE WATER LOOP,Plant Demand,NODE 384,NODE 393
   Branch,2,MAIN SERVICE WATER LOOP DEMAND BRANCH 1,MAIN SERVICE WATER LOOP,Plant Demand,NODE 386,NODE 391
   Branch,3,MAIN SERVICE WATER LOOP DEMAND BRANCH 2,MAIN SERVICE WATER LOOP,Plant Demand,NODE 395,NODE 396
   Branch,4,MAIN SERVICE WATER LOOP DEMAND BRANCH 3,MAIN SERVICE WATER LOOP,Plant Demand,NODE 397,NODE 398
   Branch,5,MAIN SERVICE WATER LOOP DEMAND BRANCH 4,MAIN SERVICE WATER LOOP,Plant Demand,NODE 399,NODE 400
   Branch,6,MAIN SERVICE WATER LOOP DEMAND BRANCH 5,MAIN SERVICE WATER LOOP,Plant Demand,NODE 401,NODE 402
   Branch,7,MAIN SERVICE WATER LOOP DEMAND BRANCH 6,MAIN SERVICE WATER LOOP,Plant Demand,NODE 403,NODE 404
   Branch,8,MAIN SERVICE WATER LOOP DEMAND BRANCH 7,MAIN SERVICE WATER LOOP,Plant Demand,NODE 405,NODE 406
   Branch,9,MAIN SERVICE WATER LOOP DEMAND BRANCH 8,MAIN SERVICE WATER LOOP,Plant Demand,NODE 407,NODE 408
   Branch,10,MAIN SERVICE WATER LOOP DEMAND BRANCH 9,MAIN SERVICE WATER LOOP,Plant Demand,NODE 409,NODE 410
   Branch,11,MAIN SERVICE WATER LOOP DEMAND BRANCH 10,MAIN SERVICE WATER LOOP,Plant Demand,NODE 411,NODE 412
   Branch,12,MAIN SERVICE WATER LOOP DEMAND BRANCH 11,MAIN SERVICE WATER LOOP,Plant Demand,NODE 413,NODE 414
   Branch,13,MAIN SERVICE WATER LOOP DEMAND BRANCH 12,MAIN SERVICE WATER LOOP,Plant Demand,NODE 415,NODE 416
   Branch,14,MAIN SERVICE WATER LOOP DEMAND BRANCH 13,MAIN SERVICE WATER LOOP,Plant Demand,NODE 417,NODE 418
   Branch,15,MAIN SERVICE WATER LOOP DEMAND BRANCH 14,MAIN SERVICE WATER LOOP,Plant Demand,NODE 419,NODE 420
   Branch,16,MAIN SERVICE WATER LOOP DEMAND BRANCH 15,MAIN SERVICE WATER LOOP,Plant Demand,NODE 421,NODE 422
   Branch,17,MAIN SERVICE WATER LOOP DEMAND BRANCH 16,MAIN SERVICE WATER LOOP,Plant Demand,NODE 423,NODE 424
   Branch,18,MAIN SERVICE WATER LOOP DEMAND BRANCH 17,MAIN SERVICE WATER LOOP,Plant Demand,NODE 425,NODE 426
   Branch,19,MAIN SERVICE WATER LOOP DEMAND BRANCH 18,MAIN SERVICE WATER LOOP,Plant Demand,NODE 427,NODE 428
   Branch,20,MAIN SERVICE WATER LOOP DEMAND BRANCH 19,MAIN SERVICE WATER LOOP,Plant Demand,NODE 429,NODE 430
   Branch,21,MAIN SERVICE WATER LOOP DEMAND BRANCH 20,MAIN SERVICE WATER LOOP,Plant Demand,NODE 431,NODE 432
   Branch,22,MAIN SERVICE WATER LOOP DEMAND BYPASS BRANCH,MAIN SERVICE WATER LOOP,Plant Demand,MAIN SERVICE WATER LOOP DEMAND BYPASS PIPE INLET NODE,MAIN SERVICE WATER LOOP DEMAND BYPASS PIPE OUTLET NODE
   Branch,23,MAIN SERVICE WATER LOOP DEMAND OUTLET BRANCH,MAIN SERVICE WATER LOOP,Plant Demand,NODE 394,NODE 385
! ===============================================================
! <#Supply Air Paths>,<Number of Supply Air Paths>
 #Supply Air Paths,15
! <Supply Air Path>,<Supply Air Path Count>,<Supply Air Path Name>,<AirLoopHVAC Name>
! <#Components on Supply Air Path>,<Number of Components>
! <Supply Air Path Component>,<Component Count>,<Component Type>,<Component Name>,<AirLoopHVAC Name>
! <#Outlet Nodes on Supply Air Path Component>,<Number of Nodes>
! <Supply Air Path Component Nodes>,<Node Count>,<Component Type>,<Component Name>,<Inlet Node Name>,<Outlet Node Name>,<AirLoopHVAC Name>
 Supply Air Path,1,SYS_2_MAKE-UP AIR UNIT NODE 166 SUPPLY PATH,SYS_2_MAKE-UP AIR UNIT
   #Components on Supply Air Path,1
   Supply Air Path Component,1,AIRLOOPHVAC:ZONESPLITTER,AIR LOOP HVAC ZONE SPLITTER 9,SYS_2_MAKE-UP AIR UNIT
     #Outlet Nodes on Supply Air Path Component,1
     Supply Air Path Component Nodes,1,AIRLOOPHVAC:ZONESPLITTER,AIR LOOP HVAC ZONE SPLITTER 9,NODE 166,NODE 168,SYS_2_MAKE-UP AIR UNIT
! <#Nodes on Supply Air Path>,<Number of Nodes>
! <Supply Air Path Node>,<Node Type>,<Node Count>,<Node Name>,<AirLoopHVAC Name>
#Nodes on Supply Air Path,2
   Supply Air Path Node,Inlet Node,1,NODE 166,SYS_2_MAKE-UP AIR UNIT
   Supply Air Path Node,Outlet Node,2,NODE 168,SYS_2_MAKE-UP AIR UNIT
 Supply Air Path,2,SYS_2_MAKE-UP AIR UNIT 1 NODE 209 SUPPLY PATH,SYS_2_MAKE-UP AIR UNIT 1
   #Components on Supply Air Path,1
   Supply Air Path Component,1,AIRLOOPHVAC:ZONESPLITTER,AIR LOOP HVAC ZONE SPLITTER 10,SYS_2_MAKE-UP AIR UNIT 1
     #Outlet Nodes on Supply Air Path Component,1
     Supply Air Path Component Nodes,1,AIRLOOPHVAC:ZONESPLITTER,AIR LOOP HVAC ZONE SPLITTER 10,NODE 209,NODE 211,SYS_2_MAKE-UP AIR UNIT 1
! <#Nodes on Supply Air Path>,<Number of Nodes>
! <Supply Air Path Node>,<Node Type>,<Node Count>,<Node Name>,<AirLoopHVAC Name>
#Nodes on Supply Air Path,2
   Supply Air Path Node,Inlet Node,1,NODE 209,SYS_2_MAKE-UP AIR UNIT 1
   Supply Air Path Node,Outlet Node,2,NODE 211,SYS_2_MAKE-UP AIR UNIT 1
 Supply Air Path,3,SYS_3_PSZ ALL_ST=MFG - DETAILED_FL=STORY 4_SCH=A NODE 24 SUPPLY PATH,SYS_3_PSZ ALL_ST=MFG - DETAILED_FL=STORY 4_SCH=A
   #Components on Supply Air Path,1
   Supply Air Path Component,1,AIRLOOPHVAC:ZONESPLITTER,AIR LOOP HVAC ZONE SPLITTER 1,SYS_3_PSZ ALL_ST=MFG - DETAILED_FL=STORY 4_SCH=A
     #Outlet Nodes on Supply Air Path Component,1
     Supply Air Path Component Nodes,1,AIRLOOPHVAC:ZONESPLITTER,AIR LOOP HVAC ZONE SPLITTER 1,NODE 24,NODE 27,SYS_3_PSZ ALL_ST=MFG - DETAILED_FL=STORY 4_SCH=A
! <#Nodes on Supply Air Path>,<Number of Nodes>
! <Supply Air Path Node>,<Node Type>,<Node Count>,<Node Name>,<AirLoopHVAC Name>
#Nodes on Supply Air Path,2
   Supply Air Path Node,Inlet Node,1,NODE 24,SYS_3_PSZ ALL_ST=MFG - DETAILED_FL=STORY 4_SCH=A
   Supply Air Path Node,Outlet Node,2,NODE 27,SYS_3_PSZ ALL_ST=MFG - DETAILED_FL=STORY 4_SCH=A
 Supply Air Path,4,SYS_3_PSZ ALL_ST=MFG - EQUIPMENT_FL=STORY 4_SCH=A NODE 42 SUPPLY PATH,SYS_3_PSZ ALL_ST=MFG - EQUIPMENT_FL=STORY 4_SCH=A
   #Components on Supply Air Path,1
   Supply Air Path Component,1,AIRLOOPHVAC:ZONESPLITTER,AIR LOOP HVAC ZONE SPLITTER 2,SYS_3_PSZ ALL_ST=MFG - EQUIPMENT_FL=STORY 4_SCH=A
     #Outlet Nodes on Supply Air Path Component,1
     Supply Air Path Component Nodes,1,AIRLOOPHVAC:ZONESPLITTER,AIR LOOP HVAC ZONE SPLITTER 2,NODE 42,NODE 45,SYS_3_PSZ ALL_ST=MFG - EQUIPMENT_FL=STORY 4_SCH=A
! <#Nodes on Supply Air Path>,<Number of Nodes>
! <Supply Air Path Node>,<Node Type>,<Node Count>,<Node Name>,<AirLoopHVAC Name>
#Nodes on Supply Air Path,2
   Supply Air Path Node,Inlet Node,1,NODE 42,SYS_3_PSZ ALL_ST=MFG - EQUIPMENT_FL=STORY 4_SCH=A
   Supply Air Path Node,Outlet Node,2,NODE 45,SYS_3_PSZ ALL_ST=MFG - EQUIPMENT_FL=STORY 4_SCH=A
 Supply Air Path,5,SYS_3_PSZ ALL_ST=PENITENTIARY - AUDIENCE_FL=STORY 3_SCH=C NODE 61 SUPPLY PATH,SYS_3_PSZ ALL_ST=PENITENTIARY - AUDIENCE_FL=STORY 3_SCH=C
   #Components on Supply Air Path,1
   Supply Air Path Component,1,AIRLOOPHVAC:ZONESPLITTER,AIR LOOP HVAC ZONE SPLITTER 3,SYS_3_PSZ ALL_ST=PENITENTIARY - AUDIENCE_FL=STORY 3_SCH=C
     #Outlet Nodes on Supply Air Path Component,1
     Supply Air Path Component Nodes,1,AIRLOOPHVAC:ZONESPLITTER,AIR LOOP HVAC ZONE SPLITTER 3,NODE 61,NODE 63,SYS_3_PSZ ALL_ST=PENITENTIARY - AUDIENCE_FL=STORY 3_SCH=C
! <#Nodes on Supply Air Path>,<Number of Nodes>
! <Supply Air Path Node>,<Node Type>,<Node Count>,<Node Name>,<AirLoopHVAC Name>
#Nodes on Supply Air Path,2
   Supply Air Path Node,Inlet Node,1,NODE 61,SYS_3_PSZ ALL_ST=PENITENTIARY - AUDIENCE_FL=STORY 3_SCH=C
   Supply Air Path Node,Outlet Node,2,NODE 63,SYS_3_PSZ ALL_ST=PENITENTIARY - AUDIENCE_FL=STORY 3_SCH=C
 Supply Air Path,6,SYS_3_PSZ ALL_ST=PENITENTIARY - CLASSROOM_FL=STORY 1_SCH=D NODE 74 SUPPLY PATH,SYS_3_PSZ ALL_ST=PENITENTIARY - CLASSROOM_FL=STORY 1_SCH=D
   #Components on Supply Air Path,1
   Supply Air Path Component,1,AIRLOOPHVAC:ZONESPLITTER,AIR LOOP HVAC ZONE SPLITTER 4,SYS_3_PSZ ALL_ST=PENITENTIARY - CLASSROOM_FL=STORY 1_SCH=D
     #Outlet Nodes on Supply Air Path Component,1
     Supply Air Path Component Nodes,1,AIRLOOPHVAC:ZONESPLITTER,AIR LOOP HVAC ZONE SPLITTER 4,NODE 74,NODE 76,SYS_3_PSZ ALL_ST=PENITENTIARY - CLASSROOM_FL=STORY 1_SCH=D
! <#Nodes on Supply Air Path>,<Number of Nodes>
! <Supply Air Path Node>,<Node Type>,<Node Count>,<Node Name>,<AirLoopHVAC Name>
#Nodes on Supply Air Path,2
   Supply Air Path Node,Inlet Node,1,NODE 74,SYS_3_PSZ ALL_ST=PENITENTIARY - CLASSROOM_FL=STORY 1_SCH=D
   Supply Air Path Node,Outlet Node,2,NODE 76,SYS_3_PSZ ALL_ST=PENITENTIARY - CLASSROOM_FL=STORY 1_SCH=D
 Supply Air Path,7,SYS_3_PSZ ALL_ST=PENITENTIARY - DINING_FL=STORY 2_SCH=B NODE 87 SUPPLY PATH,SYS_3_PSZ ALL_ST=PENITENTIARY - DINING_FL=STORY 2_SCH=B
   #Components on Supply Air Path,1
   Supply Air Path Component,1,AIRLOOPHVAC:ZONESPLITTER,AIR LOOP HVAC ZONE SPLITTER 5,SYS_3_PSZ ALL_ST=PENITENTIARY - DINING_FL=STORY 2_SCH=B
     #Outlet Nodes on Supply Air Path Component,1
     Supply Air Path Component Nodes,1,AIRLOOPHVAC:ZONESPLITTER,AIR LOOP HVAC ZONE SPLITTER 5,NODE 87,NODE 89,SYS_3_PSZ ALL_ST=PENITENTIARY - DINING_FL=STORY 2_SCH=B
! <#Nodes on Supply Air Path>,<Number of Nodes>
! <Supply Air Path Node>,<Node Type>,<Node Count>,<Node Name>,<AirLoopHVAC Name>
#Nodes on Supply Air Path,2
   Supply Air Path Node,Inlet Node,1,NODE 87,SYS_3_PSZ ALL_ST=PENITENTIARY - DINING_FL=STORY 2_SCH=B
   Supply Air Path Node,Outlet Node,2,NODE 89,SYS_3_PSZ ALL_ST=PENITENTIARY - DINING_FL=STORY 2_SCH=B
 Supply Air Path,8,SYS_3_PSZ ALL_ST=RELIGIOUS - AUDIENCE_FL=STORY 1_SCH=I NODE 100 SUPPLY PATH,SYS_3_PSZ ALL_ST=RELIGIOUS - AUDIENCE_FL=STORY 1_SCH=I
   #Components on Supply Air Path,1
   Supply Air Path Component,1,AIRLOOPHVAC:ZONESPLITTER,AIR LOOP HVAC ZONE SPLITTER 6,SYS_3_PSZ ALL_ST=RELIGIOUS - AUDIENCE_FL=STORY 1_SCH=I
     #Outlet Nodes on Supply Air Path Component,1
     Supply Air Path Component Nodes,1,AIRLOOPHVAC:ZONESPLITTER,AIR LOOP HVAC ZONE SPLITTER 6,NODE 100,NODE 102,SYS_3_PSZ ALL_ST=RELIGIOUS - AUDIENCE_FL=STORY 1_SCH=I
! <#Nodes on Supply Air Path>,<Number of Nodes>
! <Supply Air Path Node>,<Node Type>,<Node Count>,<Node Name>,<AirLoopHVAC Name>
#Nodes on Supply Air Path,2
   Supply Air Path Node,Inlet Node,1,NODE 100,SYS_3_PSZ ALL_ST=RELIGIOUS - AUDIENCE_FL=STORY 1_SCH=I
   Supply Air Path Node,Outlet Node,2,NODE 102,SYS_3_PSZ ALL_ST=RELIGIOUS - AUDIENCE_FL=STORY 1_SCH=I
 Supply Air Path,9,SYS_3_PSZ ALL_ST=RELIGIOUS - FELLOWSHIP HALL_FL=STORY 1_SCH=C NODE 113 SUPPLY PATH,SYS_3_PSZ ALL_ST=RELIGIOUS - FELLOWSHIP HALL_FL=STORY 1_SCH=C
   #Components on Supply Air Path,1
   Supply Air Path Component,1,AIRLOOPHVAC:ZONESPLITTER,AIR LOOP HVAC ZONE SPLITTER 7,SYS_3_PSZ ALL_ST=RELIGIOUS - FELLOWSHIP HALL_FL=STORY 1_SCH=C
     #Outlet Nodes on Supply Air Path Component,1
     Supply Air Path Component Nodes,1,AIRLOOPHVAC:ZONESPLITTER,AIR LOOP HVAC ZONE SPLITTER 7,NODE 113,NODE 115,SYS_3_PSZ ALL_ST=RELIGIOUS - FELLOWSHIP HALL_FL=STORY 1_SCH=C
! <#Nodes on Supply Air Path>,<Number of Nodes>
! <Supply Air Path Node>,<Node Type>,<Node Count>,<Node Name>,<AirLoopHVAC Name>
#Nodes on Supply Air Path,2
   Supply Air Path Node,Inlet Node,1,NODE 113,SYS_3_PSZ ALL_ST=RELIGIOUS - FELLOWSHIP HALL_FL=STORY 1_SCH=C
   Supply Air Path Node,Outlet Node,2,NODE 115,SYS_3_PSZ ALL_ST=RELIGIOUS - FELLOWSHIP HALL_FL=STORY 1_SCH=C
 Supply Air Path,10,SYS_3_PSZ ALL_ST=RELIGIOUS - PULPIT/CHOIR_FL=STORY 1_SCH=I NODE 126 SUPPLY PATH,SYS_3_PSZ ALL_ST=RELIGIOUS - PULPIT/CHOIR_FL=STORY 1_SCH=I
   #Components on Supply Air Path,1
   Supply Air Path Component,1,AIRLOOPHVAC:ZONESPLITTER,AIR LOOP HVAC ZONE SPLITTER 8,SYS_3_PSZ ALL_ST=RELIGIOUS - PULPIT/CHOIR_FL=STORY 1_SCH=I
     #Outlet Nodes on Supply Air Path Component,1
     Supply Air Path Component Nodes,1,AIRLOOPHVAC:ZONESPLITTER,AIR LOOP HVAC ZONE SPLITTER 8,NODE 126,NODE 128,SYS_3_PSZ ALL_ST=RELIGIOUS - PULPIT/CHOIR_FL=STORY 1_SCH=I
! <#Nodes on Supply Air Path>,<Number of Nodes>
! <Supply Air Path Node>,<Node Type>,<Node Count>,<Node Name>,<AirLoopHVAC Name>
#Nodes on Supply Air Path,2
   Supply Air Path Node,Inlet Node,1,NODE 126,SYS_3_PSZ ALL_ST=RELIGIOUS - PULPIT/CHOIR_FL=STORY 1_SCH=I
   Supply Air Path Node,Outlet Node,2,NODE 128,SYS_3_PSZ ALL_ST=RELIGIOUS - PULPIT/CHOIR_FL=STORY 1_SCH=I
 Supply Air Path,11,SYS_4_PSZ_ALL_ST=PARKING GARAGE SPACE_FL=STORY 3_SCH=H NODE 370 SUPPLY PATH,SYS_4_PSZ_ALL_ST=PARKING GARAGE SPACE_FL=STORY 3_SCH=H
   #Components on Supply Air Path,1
   Supply Air Path Component,1,AIRLOOPHVAC:ZONESPLITTER,AIR LOOP HVAC ZONE SPLITTER 15,SYS_4_PSZ_ALL_ST=PARKING GARAGE SPACE_FL=STORY 3_SCH=H
     #Outlet Nodes on Supply Air Path Component,1
     Supply Air Path Component Nodes,1,AIRLOOPHVAC:ZONESPLITTER,AIR LOOP HVAC ZONE SPLITTER 15,NODE 370,NODE 372,SYS_4_PSZ_ALL_ST=PARKING GARAGE SPACE_FL=STORY 3_SCH=H
! <#Nodes on Supply Air Path>,<Number of Nodes>
! <Supply Air Path Node>,<Node Type>,<Node Count>,<Node Name>,<AirLoopHVAC Name>
#Nodes on Supply Air Path,2
   Supply Air Path Node,Inlet Node,1,NODE 370,SYS_4_PSZ_ALL_ST=PARKING GARAGE SPACE_FL=STORY 3_SCH=H
   Supply Air Path Node,Outlet Node,2,NODE 372,SYS_4_PSZ_ALL_ST=PARKING GARAGE SPACE_FL=STORY 3_SCH=H
 Supply Air Path,12,SYS_6_VAV WITH REHEAT NODE 252 SUPPLY PATH,SYS_6_VAV WITH REHEAT
   #Components on Supply Air Path,1
   Supply Air Path Component,1,AIRLOOPHVAC:ZONESPLITTER,AIR LOOP HVAC ZONE SPLITTER 11,SYS_6_VAV WITH REHEAT
     #Outlet Nodes on Supply Air Path Component,1
     Supply Air Path Component Nodes,1,AIRLOOPHVAC:ZONESPLITTER,AIR LOOP HVAC ZONE SPLITTER 11,NODE 252,NODE 267,SYS_6_VAV WITH REHEAT
! <#Nodes on Supply Air Path>,<Number of Nodes>
! <Supply Air Path Node>,<Node Type>,<Node Count>,<Node Name>,<AirLoopHVAC Name>
#Nodes on Supply Air Path,2
   Supply Air Path Node,Inlet Node,1,NODE 252,SYS_6_VAV WITH REHEAT
   Supply Air Path Node,Outlet Node,2,NODE 267,SYS_6_VAV WITH REHEAT
 Supply Air Path,13,SYS_6_VAV WITH REHEAT 1 NODE 272 SUPPLY PATH,SYS_6_VAV WITH REHEAT 1
   #Components on Supply Air Path,1
   Supply Air Path Component,1,AIRLOOPHVAC:ZONESPLITTER,AIR LOOP HVAC ZONE SPLITTER 12,SYS_6_VAV WITH REHEAT 1
     #Outlet Nodes on Supply Air Path Component,4
     Supply Air Path Component Nodes,1,AIRLOOPHVAC:ZONESPLITTER,AIR LOOP HVAC ZONE SPLITTER 12,NODE 272,NODE 288,SYS_6_VAV WITH REHEAT 1
     Supply Air Path Component Nodes,2,AIRLOOPHVAC:ZONESPLITTER,AIR LOOP HVAC ZONE SPLITTER 12,NODE 272,NODE 295,SYS_6_VAV WITH REHEAT 1
     Supply Air Path Component Nodes,3,AIRLOOPHVAC:ZONESPLITTER,AIR LOOP HVAC ZONE SPLITTER 12,NODE 272,NODE 302,SYS_6_VAV WITH REHEAT 1
     Supply Air Path Component Nodes,4,AIRLOOPHVAC:ZONESPLITTER,AIR LOOP HVAC ZONE SPLITTER 12,NODE 272,NODE 309,SYS_6_VAV WITH REHEAT 1
! <#Nodes on Supply Air Path>,<Number of Nodes>
! <Supply Air Path Node>,<Node Type>,<Node Count>,<Node Name>,<AirLoopHVAC Name>
#Nodes on Supply Air Path,5
   Supply Air Path Node,Inlet Node,1,NODE 272,SYS_6_VAV WITH REHEAT 1
   Supply Air Path Node,Outlet Node,2,NODE 288,SYS_6_VAV WITH REHEAT 1
   Supply Air Path Node,Outlet Node,3,NODE 295,SYS_6_VAV WITH REHEAT 1
   Supply Air Path Node,Outlet Node,4,NODE 302,SYS_6_VAV WITH REHEAT 1
   Supply Air Path Node,Outlet Node,5,NODE 309,SYS_6_VAV WITH REHEAT 1
 Supply Air Path,14,SYS_6_VAV WITH REHEAT 2 NODE 314 SUPPLY PATH,SYS_6_VAV WITH REHEAT 2
   #Components on Supply Air Path,1
   Supply Air Path Component,1,AIRLOOPHVAC:ZONESPLITTER,AIR LOOP HVAC ZONE SPLITTER 13,SYS_6_VAV WITH REHEAT 2
     #Outlet Nodes on Supply Air Path Component,3
     Supply Air Path Component Nodes,1,AIRLOOPHVAC:ZONESPLITTER,AIR LOOP HVAC ZONE SPLITTER 13,NODE 314,NODE 330,SYS_6_VAV WITH REHEAT 2
     Supply Air Path Component Nodes,2,AIRLOOPHVAC:ZONESPLITTER,AIR LOOP HVAC ZONE SPLITTER 13,NODE 314,NODE 337,SYS_6_VAV WITH REHEAT 2
     Supply Air Path Component Nodes,3,AIRLOOPHVAC:ZONESPLITTER,AIR LOOP HVAC ZONE SPLITTER 13,NODE 314,NODE 344,SYS_6_VAV WITH REHEAT 2
! <#Nodes on Supply Air Path>,<Number of Nodes>
! <Supply Air Path Node>,<Node Type>,<Node Count>,<Node Name>,<AirLoopHVAC Name>
#Nodes on Supply Air Path,4
   Supply Air Path Node,Inlet Node,1,NODE 314,SYS_6_VAV WITH REHEAT 2
   Supply Air Path Node,Outlet Node,2,NODE 330,SYS_6_VAV WITH REHEAT 2
   Supply Air Path Node,Outlet Node,3,NODE 337,SYS_6_VAV WITH REHEAT 2
   Supply Air Path Node,Outlet Node,4,NODE 344,SYS_6_VAV WITH REHEAT 2
 Supply Air Path,15,SYS_6_VAV WITH REHEAT 3 NODE 349 SUPPLY PATH,SYS_6_VAV WITH REHEAT 3
   #Components on Supply Air Path,1
   Supply Air Path Component,1,AIRLOOPHVAC:ZONESPLITTER,AIR LOOP HVAC ZONE SPLITTER 14,SYS_6_VAV WITH REHEAT 3
     #Outlet Nodes on Supply Air Path Component,1
     Supply Air Path Component Nodes,1,AIRLOOPHVAC:ZONESPLITTER,AIR LOOP HVAC ZONE SPLITTER 14,NODE 349,NODE 365,SYS_6_VAV WITH REHEAT 3
! <#Nodes on Supply Air Path>,<Number of Nodes>
! <Supply Air Path Node>,<Node Type>,<Node Count>,<Node Name>,<AirLoopHVAC Name>
#Nodes on Supply Air Path,2
   Supply Air Path Node,Inlet Node,1,NODE 349,SYS_6_VAV WITH REHEAT 3
   Supply Air Path Node,Outlet Node,2,NODE 365,SYS_6_VAV WITH REHEAT 3
! ===============================================================
! <#Return Air Paths>,<Number of Return Air Paths>
 #Return Air Paths,15
! <Return Air Path>,<Return Air Path Count>,<Return Air Path Name>,<AirLoopHVAC Name>
! <#Components on Return Air Path>,<Number of Components>
! <Return Air Path Component>,<Component Count>,<Component Type>,<Component Name>,<AirLoopHVAC Name>
! <#Inlet Nodes on Return Air Path Component>,<Number of Nodes>
! <Return Air Path Component Nodes>,<Node Count>,<Component Type>,<Component Name>,<Inlet Node Name>,<Outlet Node Name>,<AirLoopHVAC Name>
 Return Air Path,1,SYS_2_MAKE-UP AIR UNIT RETURN PATH,SYS_2_MAKE-UP AIR UNIT
   #Components on Return Air Path,1
   Return Air Path Component,1,AIRLOOPHVAC:ZONEMIXER,AIR LOOP HVAC ZONE MIXER 9,SYS_2_MAKE-UP AIR UNIT
     #Inlet Nodes on Return Air Path Component,1
     Return Air Path Component Nodes,1,AIRLOOPHVAC:ZONEMIXER,AIR LOOP HVAC ZONE MIXER 9,NODE 179,NODE 167,SYS_2_MAKE-UP AIR UNIT
! <#Nodes on Return Air Path>,<Number of Nodes>
! <Return Air Path Node>,<Node Type>,<Node Count>,<Node Name>,<AirLoopHVAC Name>
   #Nodes on Return Air Path,2
   Return Air Path Node,Outlet Node,1,NODE 167,SYS_2_MAKE-UP AIR UNIT
   Return Air Path Node,Inlet Node,2,NODE 179,SYS_2_MAKE-UP AIR UNIT
 Return Air Path,2,SYS_2_MAKE-UP AIR UNIT 1 RETURN PATH,SYS_2_MAKE-UP AIR UNIT 1
   #Components on Return Air Path,1
   Return Air Path Component,1,AIRLOOPHVAC:ZONEMIXER,AIR LOOP HVAC ZONE MIXER 10,SYS_2_MAKE-UP AIR UNIT 1
     #Inlet Nodes on Return Air Path Component,1
     Return Air Path Component Nodes,1,AIRLOOPHVAC:ZONEMIXER,AIR LOOP HVAC ZONE MIXER 10,NODE 222,NODE 210,SYS_2_MAKE-UP AIR UNIT 1
! <#Nodes on Return Air Path>,<Number of Nodes>
! <Return Air Path Node>,<Node Type>,<Node Count>,<Node Name>,<AirLoopHVAC Name>
   #Nodes on Return Air Path,2
   Return Air Path Node,Outlet Node,1,NODE 210,SYS_2_MAKE-UP AIR UNIT 1
   Return Air Path Node,Inlet Node,2,NODE 222,SYS_2_MAKE-UP AIR UNIT 1
 Return Air Path,3,SYS_3_PSZ ALL_ST=MFG - DETAILED_FL=STORY 4_SCH=A RETURN PATH,SYS_3_PSZ ALL_ST=MFG - DETAILED_FL=STORY 4_SCH=A
   #Components on Return Air Path,1
   Return Air Path Component,1,AIRLOOPHVAC:ZONEMIXER,AIR LOOP HVAC ZONE MIXER 1,SYS_3_PSZ ALL_ST=MFG - DETAILED_FL=STORY 4_SCH=A
     #Inlet Nodes on Return Air Path Component,1
     Return Air Path Component Nodes,1,AIRLOOPHVAC:ZONEMIXER,AIR LOOP HVAC ZONE MIXER 1,NODE 36,NODE 26,SYS_3_PSZ ALL_ST=MFG - DETAILED_FL=STORY 4_SCH=A
! <#Nodes on Return Air Path>,<Number of Nodes>
! <Return Air Path Node>,<Node Type>,<Node Count>,<Node Name>,<AirLoopHVAC Name>
   #Nodes on Return Air Path,2
   Return Air Path Node,Outlet Node,1,NODE 26,SYS_3_PSZ ALL_ST=MFG - DETAILED_FL=STORY 4_SCH=A
   Return Air Path Node,Inlet Node,2,NODE 36,SYS_3_PSZ ALL_ST=MFG - DETAILED_FL=STORY 4_SCH=A
 Return Air Path,4,SYS_3_PSZ ALL_ST=MFG - EQUIPMENT_FL=STORY 4_SCH=A RETURN PATH,SYS_3_PSZ ALL_ST=MFG - EQUIPMENT_FL=STORY 4_SCH=A
   #Components on Return Air Path,1
   Return Air Path Component,1,AIRLOOPHVAC:ZONEMIXER,AIR LOOP HVAC ZONE MIXER 2,SYS_3_PSZ ALL_ST=MFG - EQUIPMENT_FL=STORY 4_SCH=A
     #Inlet Nodes on Return Air Path Component,1
     Return Air Path Component Nodes,1,AIRLOOPHVAC:ZONEMIXER,AIR LOOP HVAC ZONE MIXER 2,NODE 54,NODE 44,SYS_3_PSZ ALL_ST=MFG - EQUIPMENT_FL=STORY 4_SCH=A
! <#Nodes on Return Air Path>,<Number of Nodes>
! <Return Air Path Node>,<Node Type>,<Node Count>,<Node Name>,<AirLoopHVAC Name>
   #Nodes on Return Air Path,2
   Return Air Path Node,Outlet Node,1,NODE 44,SYS_3_PSZ ALL_ST=MFG - EQUIPMENT_FL=STORY 4_SCH=A
   Return Air Path Node,Inlet Node,2,NODE 54,SYS_3_PSZ ALL_ST=MFG - EQUIPMENT_FL=STORY 4_SCH=A
 Return Air Path,5,SYS_3_PSZ ALL_ST=PENITENTIARY - AUDIENCE_FL=STORY 3_SCH=C RETURN PATH,SYS_3_PSZ ALL_ST=PENITENTIARY - AUDIENCE_FL=STORY 3_SCH=C
   #Components on Return Air Path,1
   Return Air Path Component,1,AIRLOOPHVAC:ZONEMIXER,AIR LOOP HVAC ZONE MIXER 3,SYS_3_PSZ ALL_ST=PENITENTIARY - AUDIENCE_FL=STORY 3_SCH=C
     #Inlet Nodes on Return Air Path Component,1
     Return Air Path Component Nodes,1,AIRLOOPHVAC:ZONEMIXER,AIR LOOP HVAC ZONE MIXER 3,NODE 69,NODE 62,SYS_3_PSZ ALL_ST=PENITENTIARY - AUDIENCE_FL=STORY 3_SCH=C
! <#Nodes on Return Air Path>,<Number of Nodes>
! <Return Air Path Node>,<Node Type>,<Node Count>,<Node Name>,<AirLoopHVAC Name>
   #Nodes on Return Air Path,2
   Return Air Path Node,Outlet Node,1,NODE 62,SYS_3_PSZ ALL_ST=PENITENTIARY - AUDIENCE_FL=STORY 3_SCH=C
   Return Air Path Node,Inlet Node,2,NODE 69,SYS_3_PSZ ALL_ST=PENITENTIARY - AUDIENCE_FL=STORY 3_SCH=C
 Return Air Path,6,SYS_3_PSZ ALL_ST=PENITENTIARY - CLASSROOM_FL=STORY 1_SCH=D RETURN PATH,SYS_3_PSZ ALL_ST=PENITENTIARY - CLASSROOM_FL=STORY 1_SCH=D
   #Components on Return Air Path,1
   Return Air Path Component,1,AIRLOOPHVAC:ZONEMIXER,AIR LOOP HVAC ZONE MIXER 4,SYS_3_PSZ ALL_ST=PENITENTIARY - CLASSROOM_FL=STORY 1_SCH=D
     #Inlet Nodes on Return Air Path Component,1
     Return Air Path Component Nodes,1,AIRLOOPHVAC:ZONEMIXER,AIR LOOP HVAC ZONE MIXER 4,NODE 82,NODE 75,SYS_3_PSZ ALL_ST=PENITENTIARY - CLASSROOM_FL=STORY 1_SCH=D
! <#Nodes on Return Air Path>,<Number of Nodes>
! <Return Air Path Node>,<Node Type>,<Node Count>,<Node Name>,<AirLoopHVAC Name>
   #Nodes on Return Air Path,2
   Return Air Path Node,Outlet Node,1,NODE 75,SYS_3_PSZ ALL_ST=PENITENTIARY - CLASSROOM_FL=STORY 1_SCH=D
   Return Air Path Node,Inlet Node,2,NODE 82,SYS_3_PSZ ALL_ST=PENITENTIARY - CLASSROOM_FL=STORY 1_SCH=D
 Return Air Path,7,SYS_3_PSZ ALL_ST=PENITENTIARY - DINING_FL=STORY 2_SCH=B RETURN PATH,SYS_3_PSZ ALL_ST=PENITENTIARY - DINING_FL=STORY 2_SCH=B
   #Components on Return Air Path,1
   Return Air Path Component,1,AIRLOOPHVAC:ZONEMIXER,AIR LOOP HVAC ZONE MIXER 5,SYS_3_PSZ ALL_ST=PENITENTIARY - DINING_FL=STORY 2_SCH=B
     #Inlet Nodes on Return Air Path Component,1
     Return Air Path Component Nodes,1,AIRLOOPHVAC:ZONEMIXER,AIR LOOP HVAC ZONE MIXER 5,NODE 95,NODE 88,SYS_3_PSZ ALL_ST=PENITENTIARY - DINING_FL=STORY 2_SCH=B
! <#Nodes on Return Air Path>,<Number of Nodes>
! <Return Air Path Node>,<Node Type>,<Node Count>,<Node Name>,<AirLoopHVAC Name>
   #Nodes on Return Air Path,2
   Return Air Path Node,Outlet Node,1,NODE 88,SYS_3_PSZ ALL_ST=PENITENTIARY - DINING_FL=STORY 2_SCH=B
   Return Air Path Node,Inlet Node,2,NODE 95,SYS_3_PSZ ALL_ST=PENITENTIARY - DINING_FL=STORY 2_SCH=B
 Return Air Path,8,SYS_3_PSZ ALL_ST=RELIGIOUS - AUDIENCE_FL=STORY 1_SCH=I RETURN PATH,SYS_3_PSZ ALL_ST=RELIGIOUS - AUDIENCE_FL=STORY 1_SCH=I
   #Components on Return Air Path,1
   Return Air Path Component,1,AIRLOOPHVAC:ZONEMIXER,AIR LOOP HVAC ZONE MIXER 6,SYS_3_PSZ ALL_ST=RELIGIOUS - AUDIENCE_FL=STORY 1_SCH=I
     #Inlet Nodes on Return Air Path Component,1
     Return Air Path Component Nodes,1,AIRLOOPHVAC:ZONEMIXER,AIR LOOP HVAC ZONE MIXER 6,NODE 108,NODE 101,SYS_3_PSZ ALL_ST=RELIGIOUS - AUDIENCE_FL=STORY 1_SCH=I
! <#Nodes on Return Air Path>,<Number of Nodes>
! <Return Air Path Node>,<Node Type>,<Node Count>,<Node Name>,<AirLoopHVAC Name>
   #Nodes on Return Air Path,2
   Return Air Path Node,Outlet Node,1,NODE 101,SYS_3_PSZ ALL_ST=RELIGIOUS - AUDIENCE_FL=STORY 1_SCH=I
   Return Air Path Node,Inlet Node,2,NODE 108,SYS_3_PSZ ALL_ST=RELIGIOUS - AUDIENCE_FL=STORY 1_SCH=I
 Return Air Path,9,SYS_3_PSZ ALL_ST=RELIGIOUS - FELLOWSHIP HALL_FL=STORY 1_SCH=C RETURN PATH,SYS_3_PSZ ALL_ST=RELIGIOUS - FELLOWSHIP HALL_FL=STORY 1_SCH=C
   #Components on Return Air Path,1
   Return Air Path Component,1,AIRLOOPHVAC:ZONEMIXER,AIR LOOP HVAC ZONE MIXER 7,SYS_3_PSZ ALL_ST=RELIGIOUS - FELLOWSHIP HALL_FL=STORY 1_SCH=C
     #Inlet Nodes on Return Air Path Component,1
     Return Air Path Component Nodes,1,AIRLOOPHVAC:ZONEMIXER,AIR LOOP HVAC ZONE MIXER 7,NODE 121,NODE 114,SYS_3_PSZ ALL_ST=RELIGIOUS - FELLOWSHIP HALL_FL=STORY 1_SCH=C
! <#Nodes on Return Air Path>,<Number of Nodes>
! <Return Air Path Node>,<Node Type>,<Node Count>,<Node Name>,<AirLoopHVAC Name>
   #Nodes on Return Air Path,2
   Return Air Path Node,Outlet Node,1,NODE 114,SYS_3_PSZ ALL_ST=RELIGIOUS - FELLOWSHIP HALL_FL=STORY 1_SCH=C
   Return Air Path Node,Inlet Node,2,NODE 121,SYS_3_PSZ ALL_ST=RELIGIOUS - FELLOWSHIP HALL_FL=STORY 1_SCH=C
 Return Air Path,10,SYS_3_PSZ ALL_ST=RELIGIOUS - PULPIT/CHOIR_FL=STORY 1_SCH=I RETURN PATH,SYS_3_PSZ ALL_ST=RELIGIOUS - PULPIT/CHOIR_FL=STORY 1_SCH=I
   #Components on Return Air Path,1
   Return Air Path Component,1,AIRLOOPHVAC:ZONEMIXER,AIR LOOP HVAC ZONE MIXER 8,SYS_3_PSZ ALL_ST=RELIGIOUS - PULPIT/CHOIR_FL=STORY 1_SCH=I
     #Inlet Nodes on Return Air Path Component,1
     Return Air Path Component Nodes,1,AIRLOOPHVAC:ZONEMIXER,AIR LOOP HVAC ZONE MIXER 8,NODE 134,NODE 127,SYS_3_PSZ ALL_ST=RELIGIOUS - PULPIT/CHOIR_FL=STORY 1_SCH=I
! <#Nodes on Return Air Path>,<Number of Nodes>
! <Return Air Path Node>,<Node Type>,<Node Count>,<Node Name>,<AirLoopHVAC Name>
   #Nodes on Return Air Path,2
   Return Air Path Node,Outlet Node,1,NODE 127,SYS_3_PSZ ALL_ST=RELIGIOUS - PULPIT/CHOIR_FL=STORY 1_SCH=I
   Return Air Path Node,Inlet Node,2,NODE 134,SYS_3_PSZ ALL_ST=RELIGIOUS - PULPIT/CHOIR_FL=STORY 1_SCH=I
 Return Air Path,11,SYS_4_PSZ_ALL_ST=PARKING GARAGE SPACE_FL=STORY 3_SCH=H RETURN PATH,SYS_4_PSZ_ALL_ST=PARKING GARAGE SPACE_FL=STORY 3_SCH=H
   #Components on Return Air Path,1
   Return Air Path Component,1,AIRLOOPHVAC:ZONEMIXER,AIR LOOP HVAC ZONE MIXER 15,SYS_4_PSZ_ALL_ST=PARKING GARAGE SPACE_FL=STORY 3_SCH=H
     #Inlet Nodes on Return Air Path Component,1
     Return Air Path Component Nodes,1,AIRLOOPHVAC:ZONEMIXER,AIR LOOP HVAC ZONE MIXER 15,NODE 378,NODE 371,SYS_4_PSZ_ALL_ST=PARKING GARAGE SPACE_FL=STORY 3_SCH=H
! <#Nodes on Return Air Path>,<Number of Nodes>
! <Return Air Path Node>,<Node Type>,<Node Count>,<Node Name>,<AirLoopHVAC Name>
   #Nodes on Return Air Path,2
   Return Air Path Node,Outlet Node,1,NODE 371,SYS_4_PSZ_ALL_ST=PARKING GARAGE SPACE_FL=STORY 3_SCH=H
   Return Air Path Node,Inlet Node,2,NODE 378,SYS_4_PSZ_ALL_ST=PARKING GARAGE SPACE_FL=STORY 3_SCH=H
 Return Air Path,12,SYS_6_VAV WITH REHEAT RETURN PATH,SYS_6_VAV WITH REHEAT
   #Components on Return Air Path,1
   Return Air Path Component,1,AIRLOOPHVAC:ZONEMIXER,AIR LOOP HVAC ZONE MIXER 11,SYS_6_VAV WITH REHEAT
     #Inlet Nodes on Return Air Path Component,1
     Return Air Path Component Nodes,1,AIRLOOPHVAC:ZONEMIXER,AIR LOOP HVAC ZONE MIXER 11,NODE 266,NODE 253,SYS_6_VAV WITH REHEAT
! <#Nodes on Return Air Path>,<Number of Nodes>
! <Return Air Path Node>,<Node Type>,<Node Count>,<Node Name>,<AirLoopHVAC Name>
   #Nodes on Return Air Path,2
   Return Air Path Node,Outlet Node,1,NODE 253,SYS_6_VAV WITH REHEAT
   Return Air Path Node,Inlet Node,2,NODE 266,SYS_6_VAV WITH REHEAT
 Return Air Path,13,SYS_6_VAV WITH REHEAT 1 RETURN PATH,SYS_6_VAV WITH REHEAT 1
   #Components on Return Air Path,1
   Return Air Path Component,1,AIRLOOPHVAC:ZONEMIXER,AIR LOOP HVAC ZONE MIXER 12,SYS_6_VAV WITH REHEAT 1
     #Inlet Nodes on Return Air Path Component,4
     Return Air Path Component Nodes,1,AIRLOOPHVAC:ZONEMIXER,AIR LOOP HVAC ZONE MIXER 12,NODE 287,NODE 273,SYS_6_VAV WITH REHEAT 1
     Return Air Path Component Nodes,2,AIRLOOPHVAC:ZONEMIXER,AIR LOOP HVAC ZONE MIXER 12,NODE 294,NODE 273,SYS_6_VAV WITH REHEAT 1
     Return Air Path Component Nodes,3,AIRLOOPHVAC:ZONEMIXER,AIR LOOP HVAC ZONE MIXER 12,NODE 301,NODE 273,SYS_6_VAV WITH REHEAT 1
     Return Air Path Component Nodes,4,AIRLOOPHVAC:ZONEMIXER,AIR LOOP HVAC ZONE MIXER 12,NODE 308,NODE 273,SYS_6_VAV WITH REHEAT 1
! <#Nodes on Return Air Path>,<Number of Nodes>
! <Return Air Path Node>,<Node Type>,<Node Count>,<Node Name>,<AirLoopHVAC Name>
   #Nodes on Return Air Path,5
   Return Air Path Node,Outlet Node,1,NODE 273,SYS_6_VAV WITH REHEAT 1
   Return Air Path Node,Inlet Node,2,NODE 287,SYS_6_VAV WITH REHEAT 1
   Return Air Path Node,Inlet Node,3,NODE 294,SYS_6_VAV WITH REHEAT 1
   Return Air Path Node,Inlet Node,4,NODE 301,SYS_6_VAV WITH REHEAT 1
   Return Air Path Node,Inlet Node,5,NODE 308,SYS_6_VAV WITH REHEAT 1
 Return Air Path,14,SYS_6_VAV WITH REHEAT 2 RETURN PATH,SYS_6_VAV WITH REHEAT 2
   #Components on Return Air Path,1
   Return Air Path Component,1,AIRLOOPHVAC:ZONEMIXER,AIR LOOP HVAC ZONE MIXER 13,SYS_6_VAV WITH REHEAT 2
     #Inlet Nodes on Return Air Path Component,3
     Return Air Path Component Nodes,1,AIRLOOPHVAC:ZONEMIXER,AIR LOOP HVAC ZONE MIXER 13,NODE 329,NODE 315,SYS_6_VAV WITH REHEAT 2
     Return Air Path Component Nodes,2,AIRLOOPHVAC:ZONEMIXER,AIR LOOP HVAC ZONE MIXER 13,NODE 336,NODE 315,SYS_6_VAV WITH REHEAT 2
     Return Air Path Component Nodes,3,AIRLOOPHVAC:ZONEMIXER,AIR LOOP HVAC ZONE MIXER 13,NODE 343,NODE 315,SYS_6_VAV WITH REHEAT 2
! <#Nodes on Return Air Path>,<Number of Nodes>
! <Return Air Path Node>,<Node Type>,<Node Count>,<Node Name>,<AirLoopHVAC Name>
   #Nodes on Return Air Path,4
   Return Air Path Node,Outlet Node,1,NODE 315,SYS_6_VAV WITH REHEAT 2
   Return Air Path Node,Inlet Node,2,NODE 329,SYS_6_VAV WITH REHEAT 2
   Return Air Path Node,Inlet Node,3,NODE 336,SYS_6_VAV WITH REHEAT 2
   Return Air Path Node,Inlet Node,4,NODE 343,SYS_6_VAV WITH REHEAT 2
 Return Air Path,15,SYS_6_VAV WITH REHEAT 3 RETURN PATH,SYS_6_VAV WITH REHEAT 3
   #Components on Return Air Path,1
   Return Air Path Component,1,AIRLOOPHVAC:ZONEMIXER,AIR LOOP HVAC ZONE MIXER 14,SYS_6_VAV WITH REHEAT 3
     #Inlet Nodes on Return Air Path Component,1
     Return Air Path Component Nodes,1,AIRLOOPHVAC:ZONEMIXER,AIR LOOP HVAC ZONE MIXER 14,NODE 364,NODE 350,SYS_6_VAV WITH REHEAT 3
! <#Nodes on Return Air Path>,<Number of Nodes>
! <Return Air Path Node>,<Node Type>,<Node Count>,<Node Name>,<AirLoopHVAC Name>
   #Nodes on Return Air Path,2
   Return Air Path Node,Outlet Node,1,NODE 350,SYS_6_VAV WITH REHEAT 3
   Return Air Path Node,Inlet Node,2,NODE 364,SYS_6_VAV WITH REHEAT 3
! ===============================================================
! #Outdoor Air Nodes,<Number of Outdoor Air Nodes>
 #Outdoor Air Nodes,18
! <Outdoor Air Node>,<NodeNumber>,<Node Name>
 Outdoor Air Node,424,ZONE HVAC FOUR PIPE FAN COIL 1 OA NODE
 Outdoor Air Node,425,ZONE HVAC FOUR PIPE FAN COIL 2 OA NODE
 Outdoor Air Node,426,NODE 169
 Outdoor Air Node,427,NODE 212
 Outdoor Air Node,428,NODE 29
 Outdoor Air Node,429,NODE 47
 Outdoor Air Node,430,NODE 64
 Outdoor Air Node,431,NODE 77
 Outdoor Air Node,432,NODE 90
 Outdoor Air Node,433,NODE 103
 Outdoor Air Node,434,NODE 116
 Outdoor Air Node,435,NODE 129
 Outdoor Air Node,436,NODE 373
 Outdoor Air Node,437,NODE 258
 Outdoor Air Node,438,NODE 279
 Outdoor Air Node,439,NODE 321
 Outdoor Air Node,440,NODE 356
 Outdoor Air Node,441,MODEL OUTDOOR AIR NODE
! ===============================================================
! <#Component Sets>,<Number of Component Sets>
 #Component Sets,241
! <Component Set>,<Component Set Count>,<Parent Object Type>,<Parent Object Name>,<Component Type>,<Component Name>,<Inlet Node ID>,<Outlet Node ID>,<Description>
 Component Set,1,BRANCH,SYS_2_MAKE-UP AIR UNIT MAIN BRANCH,AIRLOOPHVAC:OUTDOORAIRSYSTEM,AIR LOOP HVAC OUTDOOR AIR SYSTEM 9,NODE 164,NODE 173,Air Nodes
 Component Set,2,BRANCH,SYS_2_MAKE-UP AIR UNIT MAIN BRANCH,COILSYSTEM:COOLING:DX,COIL COOLING DX SINGLE SPEED 9 COILSYSTEM,NODE 173,NODE 172,Air Nodes
 Component Set,3,BRANCH,SYS_2_MAKE-UP AIR UNIT MAIN BRANCH,COIL:HEATING:FUEL,COIL HEATING GAS 9,NODE 172,NODE 171,Air Nodes
 Component Set,4,BRANCH,SYS_2_MAKE-UP AIR UNIT MAIN BRANCH,FAN:CONSTANTVOLUME,FAN CONSTANT VOLUME 9,NODE 171,NODE 165,Air Nodes
 Component Set,5,BRANCH,SYS_2_MAKE-UP AIR UNIT 1 MAIN BRANCH,AIRLOOPHVAC:OUTDOORAIRSYSTEM,AIR LOOP HVAC OUTDOOR AIR SYSTEM 10,NODE 207,NODE 216,Air Nodes
 Component Set,6,BRANCH,SYS_2_MAKE-UP AIR UNIT 1 MAIN BRANCH,COILSYSTEM:COOLING:DX,COIL COOLING DX SINGLE SPEED 10 COILSYSTEM,NODE 216,NODE 215,Air Nodes
 Component Set,7,BRANCH,SYS_2_MAKE-UP AIR UNIT 1 MAIN BRANCH,COIL:HEATING:FUEL,COIL HEATING GAS 10,NODE 215,NODE 214,Air Nodes
 Component Set,8,BRANCH,SYS_2_MAKE-UP AIR UNIT 1 MAIN BRANCH,FAN:CONSTANTVOLUME,FAN CONSTANT VOLUME 11,NODE 214,NODE 208,Air Nodes
 Component Set,9,BRANCH,SYS_3_PSZ ALL_ST=MFG - DETAILED_FL=STORY 4_SCH=A MAIN BRANCH,AIRLOOPHVAC:OUTDOORAIRSYSTEM,AIR LOOP HVAC OUTDOOR AIR SYSTEM 1,NODE 21,NODE 35,Air Nodes
 Component Set,10,BRANCH,SYS_3_PSZ ALL_ST=MFG - DETAILED_FL=STORY 4_SCH=A MAIN BRANCH,COILSYSTEM:COOLING:DX,COIL COOLING DX SINGLE SPEED 1 COILSYSTEM,NODE 35,NODE 33,Air Nodes
 Component Set,11,BRANCH,SYS_3_PSZ ALL_ST=MFG - DETAILED_FL=STORY 4_SCH=A MAIN BRANCH,COIL:HEATING:FUEL,COIL HEATING GAS 1,NODE 33,NODE 32,Air Nodes
 Component Set,12,BRANCH,SYS_3_PSZ ALL_ST=MFG - DETAILED_FL=STORY 4_SCH=A MAIN BRANCH,FAN:CONSTANTVOLUME,FAN CONSTANT VOLUME 1,NODE 32,NODE 23,Air Nodes
 Component Set,13,BRANCH,SYS_3_PSZ ALL_ST=MFG - EQUIPMENT_FL=STORY 4_SCH=A MAIN BRANCH,AIRLOOPHVAC:OUTDOORAIRSYSTEM,AIR LOOP HVAC OUTDOOR AIR SYSTEM 2,NODE 39,NODE 53,Air Nodes
 Component Set,14,BRANCH,SYS_3_PSZ ALL_ST=MFG - EQUIPMENT_FL=STORY 4_SCH=A MAIN BRANCH,COILSYSTEM:COOLING:DX,COIL COOLING DX SINGLE SPEED 2 COILSYSTEM,NODE 53,NODE 51,Air Nodes
 Component Set,15,BRANCH,SYS_3_PSZ ALL_ST=MFG - EQUIPMENT_FL=STORY 4_SCH=A MAIN BRANCH,COIL:HEATING:FUEL,COIL HEATING GAS 2,NODE 51,NODE 50,Air Nodes
 Component Set,16,BRANCH,SYS_3_PSZ ALL_ST=MFG - EQUIPMENT_FL=STORY 4_SCH=A MAIN BRANCH,FAN:CONSTANTVOLUME,FAN CONSTANT VOLUME 2,NODE 50,NODE 41,Air Nodes
 Component Set,17,BRANCH,SYS_3_PSZ ALL_ST=PENITENTIARY - AUDIENCE_FL=STORY 3_SCH=C MAIN BRANCH,AIRLOOPHVAC:OUTDOORAIRSYSTEM,AIR LOOP HVAC OUTDOOR AIR SYSTEM 3,NODE 59,NODE 68,Air Nodes
 Component Set,18,BRANCH,SYS_3_PSZ ALL_ST=PENITENTIARY - AUDIENCE_FL=STORY 3_SCH=C MAIN BRANCH,COILSYSTEM:COOLING:DX,COIL COOLING DX SINGLE SPEED 3 COILSYSTEM,NODE 68,NODE 67,Air Nodes
 Component Set,19,BRANCH,SYS_3_PSZ ALL_ST=PENITENTIARY - AUDIENCE_FL=STORY 3_SCH=C MAIN BRANCH,COIL:HEATING:FUEL,COIL HEATING GAS 3,NODE 67,NODE 66,Air Nodes
 Component Set,20,BRANCH,SYS_3_PSZ ALL_ST=PENITENTIARY - AUDIENCE_FL=STORY 3_SCH=C MAIN BRANCH,FAN:CONSTANTVOLUME,FAN CONSTANT VOLUME 3,NODE 66,NODE 60,Air Nodes
 Component Set,21,BRANCH,SYS_3_PSZ ALL_ST=PENITENTIARY - CLASSROOM_FL=STORY 1_SCH=D MAIN BRANCH,AIRLOOPHVAC:OUTDOORAIRSYSTEM,AIR LOOP HVAC OUTDOOR AIR SYSTEM 4,NODE 72,NODE 81,Air Nodes
 Component Set,22,BRANCH,SYS_3_PSZ ALL_ST=PENITENTIARY - CLASSROOM_FL=STORY 1_SCH=D MAIN BRANCH,COILSYSTEM:COOLING:DX,COIL COOLING DX SINGLE SPEED 4 COILSYSTEM,NODE 81,NODE 80,Air Nodes
 Component Set,23,BRANCH,SYS_3_PSZ ALL_ST=PENITENTIARY - CLASSROOM_FL=STORY 1_SCH=D MAIN BRANCH,COIL:HEATING:FUEL,COIL HEATING GAS 4,NODE 80,NODE 79,Air Nodes
 Component Set,24,BRANCH,SYS_3_PSZ ALL_ST=PENITENTIARY - CLASSROOM_FL=STORY 1_SCH=D MAIN BRANCH,FAN:CONSTANTVOLUME,FAN CONSTANT VOLUME 4,NODE 79,NODE 73,Air Nodes
 Component Set,25,BRANCH,SYS_3_PSZ ALL_ST=PENITENTIARY - DINING_FL=STORY 2_SCH=B MAIN BRANCH,AIRLOOPHVAC:OUTDOORAIRSYSTEM,AIR LOOP HVAC OUTDOOR AIR SYSTEM 5,NODE 85,NODE 94,Air Nodes
 Component Set,26,BRANCH,SYS_3_PSZ ALL_ST=PENITENTIARY - DINING_FL=STORY 2_SCH=B MAIN BRANCH,COILSYSTEM:COOLING:DX,COIL COOLING DX SINGLE SPEED 5 COILSYSTEM,NODE 94,NODE 93,Air Nodes
 Component Set,27,BRANCH,SYS_3_PSZ ALL_ST=PENITENTIARY - DINING_FL=STORY 2_SCH=B MAIN BRANCH,COIL:HEATING:FUEL,COIL HEATING GAS 5,NODE 93,NODE 92,Air Nodes
 Component Set,28,BRANCH,SYS_3_PSZ ALL_ST=PENITENTIARY - DINING_FL=STORY 2_SCH=B MAIN BRANCH,FAN:CONSTANTVOLUME,FAN CONSTANT VOLUME 5,NODE 92,NODE 86,Air Nodes
 Component Set,29,BRANCH,SYS_3_PSZ ALL_ST=RELIGIOUS - AUDIENCE_FL=STORY 1_SCH=I MAIN BRANCH,AIRLOOPHVAC:OUTDOORAIRSYSTEM,AIR LOOP HVAC OUTDOOR AIR SYSTEM 6,NODE 98,NODE 107,Air Nodes
 Component Set,30,BRANCH,SYS_3_PSZ ALL_ST=RELIGIOUS - AUDIENCE_FL=STORY 1_SCH=I MAIN BRANCH,COILSYSTEM:COOLING:DX,COIL COOLING DX SINGLE SPEED 6 COILSYSTEM,NODE 107,NODE 106,Air Nodes
 Component Set,31,BRANCH,SYS_3_PSZ ALL_ST=RELIGIOUS - AUDIENCE_FL=STORY 1_SCH=I MAIN BRANCH,COIL:HEATING:FUEL,COIL HEATING GAS 6,NODE 106,NODE 105,Air Nodes
 Component Set,32,BRANCH,SYS_3_PSZ ALL_ST=RELIGIOUS - AUDIENCE_FL=STORY 1_SCH=I MAIN BRANCH,FAN:CONSTANTVOLUME,FAN CONSTANT VOLUME 6,NODE 105,NODE 99,Air Nodes
 Component Set,33,BRANCH,SYS_3_PSZ ALL_ST=RELIGIOUS - FELLOWSHIP HALL_FL=STORY 1_SCH=C MAIN BRANCH,AIRLOOPHVAC:OUTDOORAIRSYSTEM,AIR LOOP HVAC OUTDOOR AIR SYSTEM 7,NODE 111,NODE 120,Air Nodes
 Component Set,34,BRANCH,SYS_3_PSZ ALL_ST=RELIGIOUS - FELLOWSHIP HALL_FL=STORY 1_SCH=C MAIN BRANCH,COILSYSTEM:COOLING:DX,COIL COOLING DX SINGLE SPEED 7 COILSYSTEM,NODE 120,NODE 119,Air Nodes
 Component Set,35,BRANCH,SYS_3_PSZ ALL_ST=RELIGIOUS - FELLOWSHIP HALL_FL=STORY 1_SCH=C MAIN BRANCH,COIL:HEATING:FUEL,COIL HEATING GAS 7,NODE 119,NODE 118,Air Nodes
 Component Set,36,BRANCH,SYS_3_PSZ ALL_ST=RELIGIOUS - FELLOWSHIP HALL_FL=STORY 1_SCH=C MAIN BRANCH,FAN:CONSTANTVOLUME,FAN CONSTANT VOLUME 7,NODE 118,NODE 112,Air Nodes
 Component Set,37,BRANCH,SYS_3_PSZ ALL_ST=RELIGIOUS - PULPIT/CHOIR_FL=STORY 1_SCH=I MAIN BRANCH,AIRLOOPHVAC:OUTDOORAIRSYSTEM,AIR LOOP HVAC OUTDOOR AIR SYSTEM 8,NODE 124,NODE 133,Air Nodes
 Component Set,38,BRANCH,SYS_3_PSZ ALL_ST=RELIGIOUS - PULPIT/CHOIR_FL=STORY 1_SCH=I MAIN BRANCH,COILSYSTEM:COOLING:DX,COIL COOLING DX SINGLE SPEED 8 COILSYSTEM,NODE 133,NODE 132,Air Nodes
 Component Set,39,BRANCH,SYS_3_PSZ ALL_ST=RELIGIOUS - PULPIT/CHOIR_FL=STORY 1_SCH=I MAIN BRANCH,COIL:HEATING:FUEL,COIL HEATING GAS 8,NODE 132,NODE 131,Air Nodes
 Component Set,40,BRANCH,SYS_3_PSZ ALL_ST=RELIGIOUS - PULPIT/CHOIR_FL=STORY 1_SCH=I MAIN BRANCH,FAN:CONSTANTVOLUME,FAN CONSTANT VOLUME 8,NODE 131,NODE 125,Air Nodes
 Component Set,41,BRANCH,SYS_4_PSZ_ALL_ST=PARKING GARAGE SPACE_FL=STORY 3_SCH=H MAIN BRANCH,AIRLOOPHVAC:OUTDOORAIRSYSTEM,AIR LOOP HVAC OUTDOOR AIR SYSTEM 15,NODE 368,NODE 377,Air Nodes
 Component Set,42,BRANCH,SYS_4_PSZ_ALL_ST=PARKING GARAGE SPACE_FL=STORY 3_SCH=H MAIN BRANCH,COILSYSTEM:COOLING:DX,COIL COOLING DX SINGLE SPEED 11 COILSYSTEM,NODE 377,NODE 376,Air Nodes
 Component Set,43,BRANCH,SYS_4_PSZ_ALL_ST=PARKING GARAGE SPACE_FL=STORY 3_SCH=H MAIN BRANCH,COIL:HEATING:FUEL,COIL HEATING GAS 11,NODE 376,NODE 375,Air Nodes
 Component Set,44,BRANCH,SYS_4_PSZ_ALL_ST=PARKING GARAGE SPACE_FL=STORY 3_SCH=H MAIN BRANCH,FAN:CONSTANTVOLUME,FAN CONSTANT VOLUME 13,NODE 375,NODE 369,Air Nodes
 Component Set,45,BRANCH,SYS_6_VAV WITH REHEAT MAIN BRANCH,FAN:VARIABLEVOLUME,SYS6 RETURN FAN,NODE 250,NODE 263,Air Nodes
 Component Set,46,BRANCH,SYS_6_VAV WITH REHEAT MAIN BRANCH,AIRLOOPHVAC:OUTDOORAIRSYSTEM,AIR LOOP HVAC OUTDOOR AIR SYSTEM 11,NODE 263,NODE 262,Air Nodes
 Component Set,47,BRANCH,SYS_6_VAV WITH REHEAT MAIN BRANCH,COIL:COOLING:WATER,COIL COOLING WATER 3,NODE 262,NODE 261,Air Nodes
 Component Set,48,BRANCH,SYS_6_VAV WITH REHEAT MAIN BRANCH,COIL:HEATING:WATER,COIL HEATING WATER 3,NODE 261,NODE 260,Air Nodes
 Component Set,49,BRANCH,SYS_6_VAV WITH REHEAT MAIN BRANCH,FAN:VARIABLEVOLUME,SYS6 SUPPLY FAN,NODE 260,NODE 251,Air Nodes
 Component Set,50,BRANCH,SYS_6_VAV WITH REHEAT 1 MAIN BRANCH,FAN:VARIABLEVOLUME,SYS6 RETURN FAN 1,NODE 270,NODE 284,Air Nodes
 Component Set,51,BRANCH,SYS_6_VAV WITH REHEAT 1 MAIN BRANCH,AIRLOOPHVAC:OUTDOORAIRSYSTEM,AIR LOOP HVAC OUTDOOR AIR SYSTEM 12,NODE 284,NODE 283,Air Nodes
 Component Set,52,BRANCH,SYS_6_VAV WITH REHEAT 1 MAIN BRANCH,COIL:COOLING:WATER,COIL COOLING WATER 4,NODE 283,NODE 282,Air Nodes
 Component Set,53,BRANCH,SYS_6_VAV WITH REHEAT 1 MAIN BRANCH,COIL:HEATING:WATER,COIL HEATING WATER 5,NODE 282,NODE 281,Air Nodes
 Component Set,54,BRANCH,SYS_6_VAV WITH REHEAT 1 MAIN BRANCH,FAN:VARIABLEVOLUME,SYS6 SUPPLY FAN 1,NODE 281,NODE 271,Air Nodes
 Component Set,55,BRANCH,SYS_6_VAV WITH REHEAT 2 MAIN BRANCH,FAN:VARIABLEVOLUME,SYS6 RETURN FAN 2,NODE 312,NODE 326,Air Nodes
 Component Set,56,BRANCH,SYS_6_VAV WITH REHEAT 2 MAIN BRANCH,AIRLOOPHVAC:OUTDOORAIRSYSTEM,AIR LOOP HVAC OUTDOOR AIR SYSTEM 13,NODE 326,NODE 325,Air Nodes
 Component Set,57,BRANCH,SYS_6_VAV WITH REHEAT 2 MAIN BRANCH,COIL:COOLING:WATER,COIL COOLING WATER 5,NODE 325,NODE 324,Air Nodes
 Component Set,58,BRANCH,SYS_6_VAV WITH REHEAT 2 MAIN BRANCH,COIL:HEATING:WATER,COIL HEATING WATER 10,NODE 324,NODE 323,Air Nodes
 Component Set,59,BRANCH,SYS_6_VAV WITH REHEAT 2 MAIN BRANCH,FAN:VARIABLEVOLUME,SYS6 SUPPLY FAN 2,NODE 323,NODE 313,Air Nodes
 Component Set,60,BRANCH,SYS_6_VAV WITH REHEAT 3 MAIN BRANCH,FAN:VARIABLEVOLUME,SYS6 RETURN FAN 3,NODE 347,NODE 361,Air Nodes
 Component Set,61,BRANCH,SYS_6_VAV WITH REHEAT 3 MAIN BRANCH,AIRLOOPHVAC:OUTDOORAIRSYSTEM,AIR LOOP HVAC OUTDOOR AIR SYSTEM 14,NODE 361,NODE 360,Air Nodes
 Component Set,62,BRANCH,SYS_6_VAV WITH REHEAT 3 MAIN BRANCH,COIL:COOLING:WATER,COIL COOLING WATER 6,NODE 360,NODE 359,Air Nodes
 Component Set,63,BRANCH,SYS_6_VAV WITH REHEAT 3 MAIN BRANCH,COIL:HEATING:WATER,COIL HEATING WATER 14,NODE 359,NODE 358,Air Nodes
 Component Set,64,BRANCH,SYS_6_VAV WITH REHEAT 3 MAIN BRANCH,FAN:VARIABLEVOLUME,SYS6 SUPPLY FAN 3,NODE 358,NODE 348,Air Nodes
 Component Set,65,BRANCH,CHILLED WATER LOOP SUPPLY INLET BRANCH,PUMP:CONSTANTSPEED,PUMP CONSTANT SPEED 1,NODE 137,NODE 143,Water Nodes
 Component Set,66,BRANCH,CHILLED WATER LOOP SUPPLY BRANCH 1,CHILLER:ELECTRIC:EIR,PRIMARY CHILLER WATERCOOLED SCROLL,NODE 139,NODE 144,Chilled Water Nodes
 Component Set,67,BRANCH,CHILLED WATER LOOP SUPPLY BRANCH 2,CHILLER:ELECTRIC:EIR,SECONDARY CHILLER WATERCOOLED SCROLL,NODE 145,NODE 146,Chilled Water Nodes
 Component Set,68,BRANCH,CHILLED WATER LOOP SUPPLY BRANCH 3,PIPE:ADIABATIC,PIPE ADIABATIC 3,NODE 147,NODE 148,Pipe Nodes
 Component Set,69,BRANCH,CHILLED WATER LOOP SUPPLY OUTLET BRANCH,PIPE:ADIABATIC,PIPE ADIABATIC 4,NODE 149,NODE 138,Pipe Nodes
 Component Set,70,BRANCH,CHILLED WATER LOOP DEMAND INLET BRANCH,PIPE:ADIABATIC,CHILLED WATER LOOP DEMAND INLET PIPE,NODE 140,CHILLED WATER LOOP DEMAND INLET PIPE NODE,Pipe Nodes
 Component Set,71,BRANCH,CHILLED WATER LOOP DEMAND BRANCH 1,COIL:COOLING:WATER,COIL COOLING WATER 1,NODE 142,NODE 176,Water Nodes
 Component Set,72,BRANCH,CHILLED WATER LOOP DEMAND BYPASS BRANCH,PIPE:ADIABATIC,CHILLED WATER LOOP DEMAND BYPASS PIPE,CHILLED WATER LOOP DEMAND BYPASS PIPE INLET NODE,CHILLED WATER LOOP DEMAND BYPASS PIPE OUTLET NODE,Pipe Nodes
 Component Set,73,BRANCH,CHILLED WATER LOOP DEMAND OUTLET BRANCH,PIPE:ADIABATIC,CHILLED WATER LOOP DEMAND OUTLET PIPE,CHILLED WATER LOOP DEMAND OUTLET PIPE NODE,NODE 141,Pipe Nodes
 Component Set,74,BRANCH,CHILLED WATER LOOP 1 SUPPLY INLET BRANCH,PUMP:CONSTANTSPEED,PUMP CONSTANT SPEED 3,NODE 180,NODE 186,Water Nodes
 Component Set,75,BRANCH,CHILLED WATER LOOP 1 SUPPLY BRANCH 1,CHILLER:ELECTRIC:EIR,PRIMARY CHILLER WATERCOOLED SCROLL 1,NODE 182,NODE 187,Chilled Water Nodes
 Component Set,76,BRANCH,CHILLED WATER LOOP 1 SUPPLY BRANCH 2,CHILLER:ELECTRIC:EIR,SECONDARY CHILLER WATERCOOLED SCROLL 1,NODE 188,NODE 189,Chilled Water Nodes
 Component Set,77,BRANCH,CHILLED WATER LOOP 1 SUPPLY BRANCH 3,PIPE:ADIABATIC,PIPE ADIABATIC 7,NODE 190,NODE 191,Pipe Nodes
 Component Set,78,BRANCH,CHILLED WATER LOOP 1 SUPPLY OUTLET BRANCH,PIPE:ADIABATIC,PIPE ADIABATIC 8,NODE 192,NODE 181,Pipe Nodes
 Component Set,79,BRANCH,CHILLED WATER LOOP 1 DEMAND INLET BRANCH,PIPE:ADIABATIC,CHILLED WATER LOOP 1 DEMAND INLET PIPE,NODE 183,CHILLED WATER LOOP 1 DEMAND INLET PIPE NODE,Pipe Nodes
 Component Set,80,BRANCH,CHILLED WATER LOOP 1 DEMAND BRANCH 1,COIL:COOLING:WATER,COIL COOLING WATER 2,NODE 185,NODE 219,Water Nodes
 Component Set,81,BRANCH,CHILLED WATER LOOP 1 DEMAND BYPASS BRANCH,PIPE:ADIABATIC,CHILLED WATER LOOP 1 DEMAND BYPASS PIPE,CHILLED WATER LOOP 1 DEMAND BYPASS PIPE INLET NODE,CHILLED WATER LOOP 1 DEMAND BYPASS PIPE OUTLET NODE,Pipe Nodes
 Component Set,82,BRANCH,CHILLED WATER LOOP 1 DEMAND OUTLET BRANCH,PIPE:ADIABATIC,CHILLED WATER LOOP 1 DEMAND OUTLET PIPE,CHILLED WATER LOOP 1 DEMAND OUTLET PIPE NODE,NODE 184,Pipe Nodes
 Component Set,83,BRANCH,CHILLED WATER LOOP 2 SUPPLY INLET BRANCH,PUMP:CONSTANTSPEED,PUMP CONSTANT SPEED 5,NODE 223,NODE 229,Water Nodes
 Component Set,84,BRANCH,CHILLED WATER LOOP 2 SUPPLY BRANCH 1,CHILLER:ELECTRIC:EIR,PRIMARY CHILLER WATERCOOLED SCROLL 2,NODE 225,NODE 230,Chilled Water Nodes
 Component Set,85,BRANCH,CHILLED WATER LOOP 2 SUPPLY BRANCH 2,CHILLER:ELECTRIC:EIR,SECONDARY CHILLER WATERCOOLED SCROLL 2,NODE 231,NODE 232,Chilled Water Nodes
 Component Set,86,BRANCH,CHILLED WATER LOOP 2 SUPPLY BRANCH 3,PIPE:ADIABATIC,PIPE ADIABATIC 11,NODE 233,NODE 234,Pipe Nodes
 Component Set,87,BRANCH,CHILLED WATER LOOP 2 SUPPLY OUTLET BRANCH,PIPE:ADIABATIC,PIPE ADIABATIC 12,NODE 235,NODE 224,Pipe Nodes
 Component Set,88,BRANCH,CHILLED WATER LOOP 2 DEMAND INLET BRANCH,PIPE:ADIABATIC,CHILLED WATER LOOP 2 DEMAND INLET PIPE,NODE 226,CHILLED WATER LOOP 2 DEMAND INLET PIPE NODE,Pipe Nodes
 Component Set,89,BRANCH,CHILLED WATER LOOP 2 DEMAND BRANCH 1,COIL:COOLING:WATER,COIL COOLING WATER 3,NODE 228,NODE 257,Water Nodes
 Component Set,90,BRANCH,CHILLED WATER LOOP 2 DEMAND BRANCH 2,COIL:COOLING:WATER,COIL COOLING WATER 4,NODE 277,NODE 278,Water Nodes
 Component Set,91,BRANCH,CHILLED WATER LOOP 2 DEMAND BRANCH 3,COIL:COOLING:WATER,COIL COOLING WATER 5,NODE 319,NODE 320,Water Nodes
 Component Set,92,BRANCH,CHILLED WATER LOOP 2 DEMAND BRANCH 4,COIL:COOLING:WATER,COIL COOLING WATER 6,NODE 354,NODE 355,Water Nodes
 Component Set,93,BRANCH,CHILLED WATER LOOP 2 DEMAND BYPASS BRANCH,PIPE:ADIABATIC,CHILLED WATER LOOP 2 DEMAND BYPASS PIPE,CHILLED WATER LOOP 2 DEMAND BYPASS PIPE INLET NODE,CHILLED WATER LOOP 2 DEMAND BYPASS PIPE OUTLET NODE,Pipe Nodes
 Component Set,94,BRANCH,CHILLED WATER LOOP 2 DEMAND OUTLET BRANCH,PIPE:ADIABATIC,CHILLED WATER LOOP 2 DEMAND OUTLET PIPE,CHILLED WATER LOOP 2 DEMAND OUTLET PIPE NODE,NODE 227,Pipe Nodes
 Component Set,95,BRANCH,CONDENSER WATER LOOP SUPPLY INLET BRANCH,PUMP:CONSTANTSPEED,PUMP CONSTANT SPEED 2,NODE 150,NODE 156,Water Nodes
 Component Set,96,BRANCH,CONDENSER WATER LOOP SUPPLY BRANCH 1,COOLINGTOWER:SINGLESPEED,COOLING TOWER SINGLE SPEED 1,NODE 152,NODE 157,Chilled Water Nodes
 Component Set,97,BRANCH,CONDENSER WATER LOOP SUPPLY BRANCH 2,PIPE:ADIABATIC,PIPE ADIABATIC 5,NODE 158,NODE 159,Pipe Nodes
 Component Set,98,BRANCH,CONDENSER WATER LOOP SUPPLY OUTLET BRANCH,PIPE:ADIABATIC,PIPE ADIABATIC 6,NODE 160,NODE 151,Pipe Nodes
 Component Set,99,BRANCH,CONDENSER WATER LOOP DEMAND INLET BRANCH,PIPE:ADIABATIC,CONDENSER WATER LOOP DEMAND INLET PIPE,NODE 153,CONDENSER WATER LOOP DEMAND INLET PIPE NODE,Pipe Nodes
 Component Set,100,BRANCH,CONDENSER WATER LOOP DEMAND BRANCH 1,CHILLER:ELECTRIC:EIR,PRIMARY CHILLER WATERCOOLED SCROLL,NODE 155,NODE 161,Condenser Water Nodes
 Component Set,101,BRANCH,CONDENSER WATER LOOP DEMAND BRANCH 2,CHILLER:ELECTRIC:EIR,SECONDARY CHILLER WATERCOOLED SCROLL,NODE 162,NODE 163,Condenser Water Nodes
 Component Set,102,BRANCH,CONDENSER WATER LOOP DEMAND BYPASS BRANCH,PIPE:ADIABATIC,CONDENSER WATER LOOP DEMAND BYPASS PIPE,CONDENSER WATER LOOP DEMAND BYPASS PIPE INLET NODE,CONDENSER WATER LOOP DEMAND BYPASS PIPE OUTLET NODE,Pipe Nodes
[...]
 Non-Parent Node Connection,NODE 267,AIRTERMINAL:SINGLEDUCT:VAV:REHEAT,AIR TERMINAL SINGLE DUCT VAV REHEAT 1,Inlet,1
 Non-Parent Node Connection,AIR TERMINAL SINGLE DUCT VAV REHEAT 3 DAMPER OUTLET,AIRTERMINAL:SINGLEDUCT:VAV:REHEAT,AIR TERMINAL SINGLE DUCT VAV REHEAT 3,Outlet,1
 Non-Parent Node Connection,NODE 295,AIRTERMINAL:SINGLEDUCT:VAV:REHEAT,AIR TERMINAL SINGLE DUCT VAV REHEAT 3,Inlet,1
 Non-Parent Node Connection,AIR TERMINAL SINGLE DUCT VAV REHEAT 4 DAMPER OUTLET,AIRTERMINAL:SINGLEDUCT:VAV:REHEAT,AIR TERMINAL SINGLE DUCT VAV REHEAT 4,Outlet,1
 Non-Parent Node Connection,NODE 302,AIRTERMINAL:SINGLEDUCT:VAV:REHEAT,AIR TERMINAL SINGLE DUCT VAV REHEAT 4,Inlet,1
 Non-Parent Node Connection,AIR TERMINAL SINGLE DUCT VAV REHEAT 8 DAMPER OUTLET,AIRTERMINAL:SINGLEDUCT:VAV:REHEAT,AIR TERMINAL SINGLE DUCT VAV REHEAT 8,Outlet,1
 Non-Parent Node Connection,NODE 344,AIRTERMINAL:SINGLEDUCT:VAV:REHEAT,AIR TERMINAL SINGLE DUCT VAV REHEAT 8,Inlet,1
 Non-Parent Node Connection,AIR TERMINAL SINGLE DUCT VAV REHEAT 5 DAMPER OUTLET,AIRTERMINAL:SINGLEDUCT:VAV:REHEAT,AIR TERMINAL SINGLE DUCT VAV REHEAT 5,Outlet,1
 Non-Parent Node Connection,NODE 309,AIRTERMINAL:SINGLEDUCT:VAV:REHEAT,AIR TERMINAL SINGLE DUCT VAV REHEAT 5,Inlet,1
 Non-Parent Node Connection,NODE 167,AIRLOOPHVAC:ZONEMIXER,AIR LOOP HVAC ZONE MIXER 9,Outlet,1
 Non-Parent Node Connection,NODE 179,AIRLOOPHVAC:ZONEMIXER,AIR LOOP HVAC ZONE MIXER 9,Inlet,1
 Non-Parent Node Connection,NODE 210,AIRLOOPHVAC:ZONEMIXER,AIR LOOP HVAC ZONE MIXER 10,Outlet,1
 Non-Parent Node Connection,NODE 222,AIRLOOPHVAC:ZONEMIXER,AIR LOOP HVAC ZONE MIXER 10,Inlet,1
 Non-Parent Node Connection,NODE 26,AIRLOOPHVAC:ZONEMIXER,AIR LOOP HVAC ZONE MIXER 1,Outlet,1
 Non-Parent Node Connection,NODE 36,AIRLOOPHVAC:ZONEMIXER,AIR LOOP HVAC ZONE MIXER 1,Inlet,1
 Non-Parent Node Connection,NODE 44,AIRLOOPHVAC:ZONEMIXER,AIR LOOP HVAC ZONE MIXER 2,Outlet,1
 Non-Parent Node Connection,NODE 54,AIRLOOPHVAC:ZONEMIXER,AIR LOOP HVAC ZONE MIXER 2,Inlet,1
 Non-Parent Node Connection,NODE 62,AIRLOOPHVAC:ZONEMIXER,AIR LOOP HVAC ZONE MIXER 3,Outlet,1
 Non-Parent Node Connection,NODE 69,AIRLOOPHVAC:ZONEMIXER,AIR LOOP HVAC ZONE MIXER 3,Inlet,1
 Non-Parent Node Connection,NODE 75,AIRLOOPHVAC:ZONEMIXER,AIR LOOP HVAC ZONE MIXER 4,Outlet,1
 Non-Parent Node Connection,NODE 82,AIRLOOPHVAC:ZONEMIXER,AIR LOOP HVAC ZONE MIXER 4,Inlet,1
 Non-Parent Node Connection,NODE 88,AIRLOOPHVAC:ZONEMIXER,AIR LOOP HVAC ZONE MIXER 5,Outlet,1
 Non-Parent Node Connection,NODE 95,AIRLOOPHVAC:ZONEMIXER,AIR LOOP HVAC ZONE MIXER 5,Inlet,1
 Non-Parent Node Connection,NODE 101,AIRLOOPHVAC:ZONEMIXER,AIR LOOP HVAC ZONE MIXER 6,Outlet,1
 Non-Parent Node Connection,NODE 108,AIRLOOPHVAC:ZONEMIXER,AIR LOOP HVAC ZONE MIXER 6,Inlet,1
 Non-Parent Node Connection,NODE 114,AIRLOOPHVAC:ZONEMIXER,AIR LOOP HVAC ZONE MIXER 7,Outlet,1
 Non-Parent Node Connection,NODE 121,AIRLOOPHVAC:ZONEMIXER,AIR LOOP HVAC ZONE MIXER 7,Inlet,1
 Non-Parent Node Connection,NODE 127,AIRLOOPHVAC:ZONEMIXER,AIR LOOP HVAC ZONE MIXER 8,Outlet,1
 Non-Parent Node Connection,NODE 134,AIRLOOPHVAC:ZONEMIXER,AIR LOOP HVAC ZONE MIXER 8,Inlet,1
 Non-Parent Node Connection,NODE 371,AIRLOOPHVAC:ZONEMIXER,AIR LOOP HVAC ZONE MIXER 15,Outlet,1
 Non-Parent Node Connection,NODE 378,AIRLOOPHVAC:ZONEMIXER,AIR LOOP HVAC ZONE MIXER 15,Inlet,1
 Non-Parent Node Connection,NODE 253,AIRLOOPHVAC:ZONEMIXER,AIR LOOP HVAC ZONE MIXER 11,Outlet,1
 Non-Parent Node Connection,NODE 266,AIRLOOPHVAC:ZONEMIXER,AIR LOOP HVAC ZONE MIXER 11,Inlet,1
 Non-Parent Node Connection,NODE 273,AIRLOOPHVAC:ZONEMIXER,AIR LOOP HVAC ZONE MIXER 12,Outlet,1
 Non-Parent Node Connection,NODE 287,AIRLOOPHVAC:ZONEMIXER,AIR LOOP HVAC ZONE MIXER 12,Inlet,1
 Non-Parent Node Connection,NODE 294,AIRLOOPHVAC:ZONEMIXER,AIR LOOP HVAC ZONE MIXER 12,Inlet,1
 Non-Parent Node Connection,NODE 301,AIRLOOPHVAC:ZONEMIXER,AIR LOOP HVAC ZONE MIXER 12,Inlet,1
 Non-Parent Node Connection,NODE 308,AIRLOOPHVAC:ZONEMIXER,AIR LOOP HVAC ZONE MIXER 12,Inlet,1
 Non-Parent Node Connection,NODE 315,AIRLOOPHVAC:ZONEMIXER,AIR LOOP HVAC ZONE MIXER 13,Outlet,1
 Non-Parent Node Connection,NODE 329,AIRLOOPHVAC:ZONEMIXER,AIR LOOP HVAC ZONE MIXER 13,Inlet,1
 Non-Parent Node Connection,NODE 336,AIRLOOPHVAC:ZONEMIXER,AIR LOOP HVAC ZONE MIXER 13,Inlet,1
 Non-Parent Node Connection,NODE 343,AIRLOOPHVAC:ZONEMIXER,AIR LOOP HVAC ZONE MIXER 13,Inlet,1
 Non-Parent Node Connection,NODE 350,AIRLOOPHVAC:ZONEMIXER,AIR LOOP HVAC ZONE MIXER 14,Outlet,1
 Non-Parent Node Connection,NODE 364,AIRLOOPHVAC:ZONEMIXER,AIR LOOP HVAC ZONE MIXER 14,Inlet,1
 Non-Parent Node Connection,NODE 173,CONTROLLER:OUTDOORAIR,CONTROLLER OUTDOOR AIR 9,Sensor,1
 Non-Parent Node Connection,NODE 169,CONTROLLER:OUTDOORAIR,CONTROLLER OUTDOOR AIR 9,Actuator,1
 Non-Parent Node Connection,NODE 170,CONTROLLER:OUTDOORAIR,CONTROLLER OUTDOOR AIR 9,Actuator,1
 Non-Parent Node Connection,NODE 164,CONTROLLER:OUTDOORAIR,CONTROLLER OUTDOOR AIR 9,Sensor,1
 Non-Parent Node Connection,NODE 216,CONTROLLER:OUTDOORAIR,CONTROLLER OUTDOOR AIR 10,Sensor,1
 Non-Parent Node Connection,NODE 212,CONTROLLER:OUTDOORAIR,CONTROLLER OUTDOOR AIR 10,Actuator,1
 Non-Parent Node Connection,NODE 213,CONTROLLER:OUTDOORAIR,CONTROLLER OUTDOOR AIR 10,Actuator,1
 Non-Parent Node Connection,NODE 207,CONTROLLER:OUTDOORAIR,CONTROLLER OUTDOOR AIR 10,Sensor,1
 Non-Parent Node Connection,NODE 35,CONTROLLER:OUTDOORAIR,CONTROLLER OUTDOOR AIR 1,Sensor,1
 Non-Parent Node Connection,NODE 29,CONTROLLER:OUTDOORAIR,CONTROLLER OUTDOOR AIR 1,Actuator,1
 Non-Parent Node Connection,NODE 30,CONTROLLER:OUTDOORAIR,CONTROLLER OUTDOOR AIR 1,Actuator,1
 Non-Parent Node Connection,NODE 21,CONTROLLER:OUTDOORAIR,CONTROLLER OUTDOOR AIR 1,Sensor,1
 Non-Parent Node Connection,NODE 53,CONTROLLER:OUTDOORAIR,CONTROLLER OUTDOOR AIR 2,Sensor,1
 Non-Parent Node Connection,NODE 47,CONTROLLER:OUTDOORAIR,CONTROLLER OUTDOOR AIR 2,Actuator,1
 Non-Parent Node Connection,NODE 48,CONTROLLER:OUTDOORAIR,CONTROLLER OUTDOOR AIR 2,Actuator,1
 Non-Parent Node Connection,NODE 39,CONTROLLER:OUTDOORAIR,CONTROLLER OUTDOOR AIR 2,Sensor,1
 Non-Parent Node Connection,NODE 68,CONTROLLER:OUTDOORAIR,CONTROLLER OUTDOOR AIR 3,Sensor,1
 Non-Parent Node Connection,NODE 64,CONTROLLER:OUTDOORAIR,CONTROLLER OUTDOOR AIR 3,Actuator,1
 Non-Parent Node Connection,NODE 65,CONTROLLER:OUTDOORAIR,CONTROLLER OUTDOOR AIR 3,Actuator,1
 Non-Parent Node Connection,NODE 59,CONTROLLER:OUTDOORAIR,CONTROLLER OUTDOOR AIR 3,Sensor,1
 Non-Parent Node Connection,NODE 81,CONTROLLER:OUTDOORAIR,CONTROLLER OUTDOOR AIR 4,Sensor,1
 Non-Parent Node Connection,NODE 77,CONTROLLER:OUTDOORAIR,CONTROLLER OUTDOOR AIR 4,Actuator,1
 Non-Parent Node Connection,NODE 78,CONTROLLER:OUTDOORAIR,CONTROLLER OUTDOOR AIR 4,Actuator,1
 Non-Parent Node Connection,NODE 72,CONTROLLER:OUTDOORAIR,CONTROLLER OUTDOOR AIR 4,Sensor,1
 Non-Parent Node Connection,NODE 94,CONTROLLER:OUTDOORAIR,CONTROLLER OUTDOOR AIR 5,Sensor,1
 Non-Parent Node Connection,NODE 90,CONTROLLER:OUTDOORAIR,CONTROLLER OUTDOOR AIR 5,Actuator,1
 Non-Parent Node Connection,NODE 91,CONTROLLER:OUTDOORAIR,CONTROLLER OUTDOOR AIR 5,Actuator,1
 Non-Parent Node Connection,NODE 85,CONTROLLER:OUTDOORAIR,CONTROLLER OUTDOOR AIR 5,Sensor,1
 Non-Parent Node Connection,NODE 107,CONTROLLER:OUTDOORAIR,CONTROLLER OUTDOOR AIR 6,Sensor,1
 Non-Parent Node Connection,NODE 103,CONTROLLER:OUTDOORAIR,CONTROLLER OUTDOOR AIR 6,Actuator,1
 Non-Parent Node Connection,NODE 104,CONTROLLER:OUTDOORAIR,CONTROLLER OUTDOOR AIR 6,Actuator,1
 Non-Parent Node Connection,NODE 98,CONTROLLER:OUTDOORAIR,CONTROLLER OUTDOOR AIR 6,Sensor,1
 Non-Parent Node Connection,NODE 120,CONTROLLER:OUTDOORAIR,CONTROLLER OUTDOOR AIR 7,Sensor,1
 Non-Parent Node Connection,NODE 116,CONTROLLER:OUTDOORAIR,CONTROLLER OUTDOOR AIR 7,Actuator,1
 Non-Parent Node Connection,NODE 117,CONTROLLER:OUTDOORAIR,CONTROLLER OUTDOOR AIR 7,Actuator,1
 Non-Parent Node Connection,NODE 111,CONTROLLER:OUTDOORAIR,CONTROLLER OUTDOOR AIR 7,Sensor,1
 Non-Parent Node Connection,NODE 133,CONTROLLER:OUTDOORAIR,CONTROLLER OUTDOOR AIR 8,Sensor,1
 Non-Parent Node Connection,NODE 129,CONTROLLER:OUTDOORAIR,CONTROLLER OUTDOOR AIR 8,Actuator,1
 Non-Parent Node Connection,NODE 130,CONTROLLER:OUTDOORAIR,CONTROLLER OUTDOOR AIR 8,Actuator,1
 Non-Parent Node Connection,NODE 124,CONTROLLER:OUTDOORAIR,CONTROLLER OUTDOOR AIR 8,Sensor,1
 Non-Parent Node Connection,NODE 377,CONTROLLER:OUTDOORAIR,CONTROLLER OUTDOOR AIR 15,Sensor,1
 Non-Parent Node Connection,NODE 373,CONTROLLER:OUTDOORAIR,CONTROLLER OUTDOOR AIR 15,Actuator,1
 Non-Parent Node Connection,NODE 374,CONTROLLER:OUTDOORAIR,CONTROLLER OUTDOOR AIR 15,Actuator,1
 Non-Parent Node Connection,NODE 368,CONTROLLER:OUTDOORAIR,CONTROLLER OUTDOOR AIR 15,Sensor,1
 Non-Parent Node Connection,NODE 262,CONTROLLER:OUTDOORAIR,CONTROLLER OUTDOOR AIR 11,Sensor,1
 Non-Parent Node Connection,NODE 258,CONTROLLER:OUTDOORAIR,CONTROLLER OUTDOOR AIR 11,Actuator,1
 Non-Parent Node Connection,NODE 259,CONTROLLER:OUTDOORAIR,CONTROLLER OUTDOOR AIR 11,Actuator,1
 Non-Parent Node Connection,NODE 263,CONTROLLER:OUTDOORAIR,CONTROLLER OUTDOOR AIR 11,Sensor,1
 Non-Parent Node Connection,NODE 283,CONTROLLER:OUTDOORAIR,CONTROLLER OUTDOOR AIR 12,Sensor,1
 Non-Parent Node Connection,NODE 279,CONTROLLER:OUTDOORAIR,CONTROLLER OUTDOOR AIR 12,Actuator,1
 Non-Parent Node Connection,NODE 280,CONTROLLER:OUTDOORAIR,CONTROLLER OUTDOOR AIR 12,Actuator,1
 Non-Parent Node Connection,NODE 284,CONTROLLER:OUTDOORAIR,CONTROLLER OUTDOOR AIR 12,Sensor,1
 Non-Parent Node Connection,NODE 325,CONTROLLER:OUTDOORAIR,CONTROLLER OUTDOOR AIR 13,Sensor,1
 Non-Parent Node Connection,NODE 321,CONTROLLER:OUTDOORAIR,CONTROLLER OUTDOOR AIR 13,Actuator,1
 Non-Parent Node Connection,NODE 322,CONTROLLER:OUTDOORAIR,CONTROLLER OUTDOOR AIR 13,Actuator,1
 Non-Parent Node Connection,NODE 326,CONTROLLER:OUTDOORAIR,CONTROLLER OUTDOOR AIR 13,Sensor,1
 Non-Parent Node Connection,NODE 360,CONTROLLER:OUTDOORAIR,CONTROLLER OUTDOOR AIR 14,Sensor,1
 Non-Parent Node Connection,NODE 356,CONTROLLER:OUTDOORAIR,CONTROLLER OUTDOOR AIR 14,Actuator,1
 Non-Parent Node Connection,NODE 357,CONTROLLER:OUTDOORAIR,CONTROLLER OUTDOOR AIR 14,Actuator,1
 Non-Parent Node Connection,NODE 361,CONTROLLER:OUTDOORAIR,CONTROLLER OUTDOOR AIR 14,Sensor,1
 Non-Parent Node Connection,NODE 173,COIL:COOLING:DX:SINGLESPEED,COIL COOLING DX SINGLE SPEED 9,Inlet,1
 Non-Parent Node Connection,NODE 172,COIL:COOLING:DX:SINGLESPEED,COIL COOLING DX SINGLE SPEED 9,Outlet,1
 Non-Parent Node Connection,NODE 216,COIL:COOLING:DX:SINGLESPEED,COIL COOLING DX SINGLE SPEED 10,Inlet,1
 Non-Parent Node Connection,NODE 215,COIL:COOLING:DX:SINGLESPEED,COIL COOLING DX SINGLE SPEED 10,Outlet,1
 Non-Parent Node Connection,NODE 35,COIL:COOLING:DX:SINGLESPEED,COIL COOLING DX SINGLE SPEED 1,Inlet,1
 Non-Parent Node Connection,NODE 33,COIL:COOLING:DX:SINGLESPEED,COIL COOLING DX SINGLE SPEED 1,Outlet,1
 Non-Parent Node Connection,NODE 53,COIL:COOLING:DX:SINGLESPEED,COIL COOLING DX SINGLE SPEED 2,Inlet,1
 Non-Parent Node Connection,NODE 51,COIL:COOLING:DX:SINGLESPEED,COIL COOLING DX SINGLE SPEED 2,Outlet,1
 Non-Parent Node Connection,NODE 68,COIL:COOLING:DX:SINGLESPEED,COIL COOLING DX SINGLE SPEED 3,Inlet,1
 Non-Parent Node Connection,NODE 67,COIL:COOLING:DX:SINGLESPEED,COIL COOLING DX SINGLE SPEED 3,Outlet,1
 Non-Parent Node Connection,NODE 81,COIL:COOLING:DX:SINGLESPEED,COIL COOLING DX SINGLE SPEED 4,Inlet,1
 Non-Parent Node Connection,NODE 80,COIL:COOLING:DX:SINGLESPEED,COIL COOLING DX SINGLE SPEED 4,Outlet,1
 Non-Parent Node Connection,NODE 94,COIL:COOLING:DX:SINGLESPEED,COIL COOLING DX SINGLE SPEED 5,Inlet,1
 Non-Parent Node Connection,NODE 93,COIL:COOLING:DX:SINGLESPEED,COIL COOLING DX SINGLE SPEED 5,Outlet,1
 Non-Parent Node Connection,NODE 107,COIL:COOLING:DX:SINGLESPEED,COIL COOLING DX SINGLE SPEED 6,Inlet,1
 Non-Parent Node Connection,NODE 106,COIL:COOLING:DX:SINGLESPEED,COIL COOLING DX SINGLE SPEED 6,Outlet,1
 Non-Parent Node Connection,NODE 120,COIL:COOLING:DX:SINGLESPEED,COIL COOLING DX SINGLE SPEED 7,Inlet,1
 Non-Parent Node Connection,NODE 119,COIL:COOLING:DX:SINGLESPEED,COIL COOLING DX SINGLE SPEED 7,Outlet,1
 Non-Parent Node Connection,NODE 133,COIL:COOLING:DX:SINGLESPEED,COIL COOLING DX SINGLE SPEED 8,Inlet,1
 Non-Parent Node Connection,NODE 132,COIL:COOLING:DX:SINGLESPEED,COIL COOLING DX SINGLE SPEED 8,Outlet,1
 Non-Parent Node Connection,NODE 377,COIL:COOLING:DX:SINGLESPEED,COIL COOLING DX SINGLE SPEED 11,Inlet,1
 Non-Parent Node Connection,NODE 376,COIL:COOLING:DX:SINGLESPEED,COIL COOLING DX SINGLE SPEED 11,Outlet,1
 Non-Parent Node Connection,NODE 172,COIL:HEATING:FUEL,COIL HEATING GAS 9,Inlet,1
 Non-Parent Node Connection,NODE 171,COIL:HEATING:FUEL,COIL HEATING GAS 9,Outlet,1
 Non-Parent Node Connection,NODE 171,COIL:HEATING:FUEL,COIL HEATING GAS 9,Sensor,1
 Non-Parent Node Connection,NODE 215,COIL:HEATING:FUEL,COIL HEATING GAS 10,Inlet,1
 Non-Parent Node Connection,NODE 214,COIL:HEATING:FUEL,COIL HEATING GAS 10,Outlet,1
 Non-Parent Node Connection,NODE 214,COIL:HEATING:FUEL,COIL HEATING GAS 10,Sensor,1
 Non-Parent Node Connection,NODE 33,COIL:HEATING:FUEL,COIL HEATING GAS 1,Inlet,1
 Non-Parent Node Connection,NODE 32,COIL:HEATING:FUEL,COIL HEATING GAS 1,Outlet,1
 Non-Parent Node Connection,NODE 32,COIL:HEATING:FUEL,COIL HEATING GAS 1,Sensor,1
 Non-Parent Node Connection,NODE 51,COIL:HEATING:FUEL,COIL HEATING GAS 2,Inlet,1
 Non-Parent Node Connection,NODE 50,COIL:HEATING:FUEL,COIL HEATING GAS 2,Outlet,1
 Non-Parent Node Connection,NODE 50,COIL:HEATING:FUEL,COIL HEATING GAS 2,Sensor,1
 Non-Parent Node Connection,NODE 67,COIL:HEATING:FUEL,COIL HEATING GAS 3,Inlet,1
 Non-Parent Node Connection,NODE 66,COIL:HEATING:FUEL,COIL HEATING GAS 3,Outlet,1
 Non-Parent Node Connection,NODE 66,COIL:HEATING:FUEL,COIL HEATING GAS 3,Sensor,1
 Non-Parent Node Connection,NODE 80,COIL:HEATING:FUEL,COIL HEATING GAS 4,Inlet,1
 Non-Parent Node Connection,NODE 79,COIL:HEATING:FUEL,COIL HEATING GAS 4,Outlet,1
 Non-Parent Node Connection,NODE 79,COIL:HEATING:FUEL,COIL HEATING GAS 4,Sensor,1
 Non-Parent Node Connection,NODE 93,COIL:HEATING:FUEL,COIL HEATING GAS 5,Inlet,1
 Non-Parent Node Connection,NODE 92,COIL:HEATING:FUEL,COIL HEATING GAS 5,Outlet,1
 Non-Parent Node Connection,NODE 92,COIL:HEATING:FUEL,COIL HEATING GAS 5,Sensor,1
 Non-Parent Node Connection,NODE 106,COIL:HEATING:FUEL,COIL HEATING GAS 6,Inlet,1
 Non-Parent Node Connection,NODE 105,COIL:HEATING:FUEL,COIL HEATING GAS 6,Outlet,1
 Non-Parent Node Connection,NODE 105,COIL:HEATING:FUEL,COIL HEATING GAS 6,Sensor,1
 Non-Parent Node Connection,NODE 119,COIL:HEATING:FUEL,COIL HEATING GAS 7,Inlet,1
 Non-Parent Node Connection,NODE 118,COIL:HEATING:FUEL,COIL HEATING GAS 7,Outlet,1
 Non-Parent Node Connection,NODE 118,COIL:HEATING:FUEL,COIL HEATING GAS 7,Sensor,1
 Non-Parent Node Connection,NODE 132,COIL:HEATING:FUEL,COIL HEATING GAS 8,Inlet,1
 Non-Parent Node Connection,NODE 131,COIL:HEATING:FUEL,COIL HEATING GAS 8,Outlet,1
 Non-Parent Node Connection,NODE 131,COIL:HEATING:FUEL,COIL HEATING GAS 8,Sensor,1
 Non-Parent Node Connection,NODE 376,COIL:HEATING:FUEL,COIL HEATING GAS 11,Inlet,1
 Non-Parent Node Connection,NODE 375,COIL:HEATING:FUEL,COIL HEATING GAS 11,Outlet,1
 Non-Parent Node Connection,NODE 375,COIL:HEATING:FUEL,COIL HEATING GAS 11,Sensor,1
 Non-Parent Node Connection,NODE 139,CHILLER:ELECTRIC:EIR,PRIMARY CHILLER WATERCOOLED SCROLL,Inlet,1
 Non-Parent Node Connection,NODE 144,CHILLER:ELECTRIC:EIR,PRIMARY CHILLER WATERCOOLED SCROLL,Outlet,1
 Non-Parent Node Connection,NODE 155,CHILLER:ELECTRIC:EIR,PRIMARY CHILLER WATERCOOLED SCROLL,Inlet,2
 Non-Parent Node Connection,NODE 161,CHILLER:ELECTRIC:EIR,PRIMARY CHILLER WATERCOOLED SCROLL,Outlet,2
 Non-Parent Node Connection,NODE 145,CHILLER:ELECTRIC:EIR,SECONDARY CHILLER WATERCOOLED SCROLL,Inlet,1
 Non-Parent Node Connection,NODE 146,CHILLER:ELECTRIC:EIR,SECONDARY CHILLER WATERCOOLED SCROLL,Outlet,1
 Non-Parent Node Connection,NODE 162,CHILLER:ELECTRIC:EIR,SECONDARY CHILLER WATERCOOLED SCROLL,Inlet,2
 Non-Parent Node Connection,NODE 163,CHILLER:ELECTRIC:EIR,SECONDARY CHILLER WATERCOOLED SCROLL,Outlet,2
 Non-Parent Node Connection,NODE 182,CHILLER:ELECTRIC:EIR,PRIMARY CHILLER WATERCOOLED SCROLL 1,Inlet,1
 Non-Parent Node Connection,NODE 187,CHILLER:ELECTRIC:EIR,PRIMARY CHILLER WATERCOOLED SCROLL 1,Outlet,1
 Non-Parent Node Connection,NODE 198,CHILLER:ELECTRIC:EIR,PRIMARY CHILLER WATERCOOLED SCROLL 1,Inlet,2
 Non-Parent Node Connection,NODE 204,CHILLER:ELECTRIC:EIR,PRIMARY CHILLER WATERCOOLED SCROLL 1,Outlet,2
 Non-Parent Node Connection,NODE 188,CHILLER:ELECTRIC:EIR,SECONDARY CHILLER WATERCOOLED SCROLL 1,Inlet,1
 Non-Parent Node Connection,NODE 189,CHILLER:ELECTRIC:EIR,SECONDARY CHILLER WATERCOOLED SCROLL 1,Outlet,1
 Non-Parent Node Connection,NODE 205,CHILLER:ELECTRIC:EIR,SECONDARY CHILLER WATERCOOLED SCROLL 1,Inlet,2
 Non-Parent Node Connection,NODE 206,CHILLER:ELECTRIC:EIR,SECONDARY CHILLER WATERCOOLED SCROLL 1,Outlet,2
 Non-Parent Node Connection,NODE 225,CHILLER:ELECTRIC:EIR,PRIMARY CHILLER WATERCOOLED SCROLL 2,Inlet,1
 Non-Parent Node Connection,NODE 230,CHILLER:ELECTRIC:EIR,PRIMARY CHILLER WATERCOOLED SCROLL 2,Outlet,1
 Non-Parent Node Connection,NODE 241,CHILLER:ELECTRIC:EIR,PRIMARY CHILLER WATERCOOLED SCROLL 2,Inlet,2
 Non-Parent Node Connection,NODE 247,CHILLER:ELECTRIC:EIR,PRIMARY CHILLER WATERCOOLED SCROLL 2,Outlet,2
 Non-Parent Node Connection,NODE 231,CHILLER:ELECTRIC:EIR,SECONDARY CHILLER WATERCOOLED SCROLL 2,Inlet,1
 Non-Parent Node Connection,NODE 232,CHILLER:ELECTRIC:EIR,SECONDARY CHILLER WATERCOOLED SCROLL 2,Outlet,1
 Non-Parent Node Connection,NODE 248,CHILLER:ELECTRIC:EIR,SECONDARY CHILLER WATERCOOLED SCROLL 2,Inlet,2
 Non-Parent Node Connection,NODE 249,CHILLER:ELECTRIC:EIR,SECONDARY CHILLER WATERCOOLED SCROLL 2,Outlet,2
 Non-Parent Node Connection,NODE 152,COOLINGTOWER:SINGLESPEED,COOLING TOWER SINGLE SPEED 1,Inlet,1
 Non-Parent Node Connection,NODE 157,COOLINGTOWER:SINGLESPEED,COOLING TOWER SINGLE SPEED 1,Outlet,1
 Non-Parent Node Connection,NODE 195,COOLINGTOWER:SINGLESPEED,COOLING TOWER SINGLE SPEED 2,Inlet,1
 Non-Parent Node Connection,NODE 200,COOLINGTOWER:SINGLESPEED,COOLING TOWER SINGLE SPEED 2,Outlet,1
 Non-Parent Node Connection,NODE 238,COOLINGTOWER:SINGLESPEED,COOLING TOWER SINGLE SPEED 3,Inlet,1
 Non-Parent Node Connection,NODE 243,COOLINGTOWER:SINGLESPEED,COOLING TOWER SINGLE SPEED 3,Outlet,1
 Non-Parent Node Connection,NODE 5,BOILER:HOTWATER,PRIMARY BOILER,Inlet,1
 Non-Parent Node Connection,NODE 12,BOILER:HOTWATER,PRIMARY BOILER,Outlet,1
 Non-Parent Node Connection,NODE 14,BOILER:HOTWATER,SECONDARY BOILER,Inlet,1
 Non-Parent Node Connection,NODE 15,BOILER:HOTWATER,SECONDARY BOILER,Outlet,1
 Non-Parent Node Connection,NODE 2,PUMP:VARIABLESPEED,PUMP VARIABLE SPEED 1,Inlet,1
 Non-Parent Node Connection,NODE 11,PUMP:VARIABLESPEED,PUMP VARIABLE SPEED 1,Outlet,1
 Non-Parent Node Connection,NODE 137,PUMP:CONSTANTSPEED,PUMP CONSTANT SPEED 1,Inlet,1
 Non-Parent Node Connection,NODE 143,PUMP:CONSTANTSPEED,PUMP CONSTANT SPEED 1,Outlet,1
 Non-Parent Node Connection,NODE 180,PUMP:CONSTANTSPEED,PUMP CONSTANT SPEED 3,Inlet,1
 Non-Parent Node Connection,NODE 186,PUMP:CONSTANTSPEED,PUMP CONSTANT SPEED 3,Outlet,1
 Non-Parent Node Connection,NODE 223,PUMP:CONSTANTSPEED,PUMP CONSTANT SPEED 5,Inlet,1
 Non-Parent Node Connection,NODE 229,PUMP:CONSTANTSPEED,PUMP CONSTANT SPEED 5,Outlet,1
 Non-Parent Node Connection,NODE 150,PUMP:CONSTANTSPEED,PUMP CONSTANT SPEED 2,Inlet,1
 Non-Parent Node Connection,NODE 156,PUMP:CONSTANTSPEED,PUMP CONSTANT SPEED 2,Outlet,1
 Non-Parent Node Connection,NODE 193,PUMP:CONSTANTSPEED,PUMP CONSTANT SPEED 4,Inlet,1
 Non-Parent Node Connection,NODE 199,PUMP:CONSTANTSPEED,PUMP CONSTANT SPEED 4,Outlet,1
 Non-Parent Node Connection,NODE 236,PUMP:CONSTANTSPEED,PUMP CONSTANT SPEED 6,Inlet,1
 Non-Parent Node Connection,NODE 242,PUMP:CONSTANTSPEED,PUMP CONSTANT SPEED 6,Outlet,1
 Non-Parent Node Connection,NODE 381,PUMP:CONSTANTSPEED,SERVICE WATER LOOP PUMP,Inlet,1
 Non-Parent Node Connection,NODE 387,PUMP:CONSTANTSPEED,SERVICE WATER LOOP PUMP,Outlet,1
