Program Version,EnergyPlus, Version 8.9.0-eba93e8e1b, YMD=2019.03.11 19:38
! <Version>, Version ID
 Version, 8.9
! <Timesteps per Hour>, #TimeSteps, Minutes per TimeStep {minutes}
 Timesteps per Hour,  6, 10
! <System Convergence Limits>, Minimum System TimeStep {minutes}, Max HVAC Iterations, Minimum Plant Iterations, Maximum Plant Iterations
 System Convergence Limits, 1, 20, 2, 8
! <Simulation Control>, Do Zone Sizing, Do System Sizing, Do Plant Sizing, Do Design Days, Do Weather Simulation, Do HVAC Sizing Simulation
 Simulation Control, Yes, Yes, Yes, Yes, No, No
! <Output Reporting Tolerances>, Tolerance for Time Heating Setpoint Not Met, Tolerance for Zone Cooling Setpoint Not Met Time
 Output Reporting Tolerances, 1.000, 1.000, 
! <Site:GroundTemperature:BuildingSurface>,Jan{C},Feb{C},Mar{C},Apr{C},May{C},Jun{C},Jul{C},Aug{C},Sep{C},Oct{C},Nov{C},Dec{C}
 Site:GroundTemperature:BuildingSurface,  19.53,  19.50,  19.54,  19.60,  20.00,  21.64,  22.23,  22.38,  21.45,  20.12,  19.80,  19.63
! <Site:GroundTemperature:FCfactorMethod>,Jan{C},Feb{C},Mar{C},Apr{C},May{C},Jun{C},Jul{C},Aug{C},Sep{C},Oct{C},Nov{C},Dec{C}
 Site:GroundTemperature:FCfactorMethod, -12.27, -13.66, -11.19,  -7.33,   2.77,  10.57,  15.83,  17.43,  14.70,   8.65,   0.56,  -6.95
! <Site:GroundTemperature:Shallow>,Jan{C},Feb{C},Mar{C},Apr{C},May{C},Jun{C},Jul{C},Aug{C},Sep{C},Oct{C},Nov{C},Dec{C}
 Site:GroundTemperature:Shallow,  13.00,  13.00,  13.00,  13.00,  13.00,  13.00,  13.00,  13.00,  13.00,  13.00,  13.00,  13.00
! <Site:GroundTemperature:Deep>,Jan{C},Feb{C},Mar{C},Apr{C},May{C},Jun{C},Jul{C},Aug{C},Sep{C},Oct{C},Nov{C},Dec{C}
 Site:GroundTemperature:Deep,  16.00,  16.00,  16.00,  16.00,  16.00,  16.00,  16.00,  16.00,  16.00,  16.00,  16.00,  16.00
! <Site:GroundReflectance>,Jan{dimensionless},Feb{dimensionless},Mar{dimensionless},Apr{dimensionless},May{dimensionless},Jun{dimensionless},Jul{dimensionless},Aug{dimensionless},Sep{dimensionless},Oct{dimensionless},Nov{dimensionless},Dec{dimensionless}
 Site:GroundReflectance,  0.20,  0.20,  0.20,  0.20,  0.20,  0.20,  0.20,  0.20,  0.20,  0.20,  0.20,  0.20
! <Site:GroundReflectance:SnowModifier>, Normal, Daylighting {dimensionless}
 Site:GroundReflectance:SnowModifier,   1.000,   1.000
! <Site:GroundReflectance:Snow>,Jan{dimensionless},Feb{dimensionless},Mar{dimensionless},Apr{dimensionless},May{dimensionless},Jun{dimensionless},Jul{dimensionless},Aug{dimensionless},Sep{dimensionless},Oct{dimensionless},Nov{dimensionless},Dec{dimensionless}
 Site:GroundReflectance:Snow,  0.20,  0.20,  0.20,  0.20,  0.20,  0.20,  0.20,  0.20,  0.20,  0.20,  0.20,  0.20
! <Site:GroundReflectance:Snow:Daylighting>,Jan{dimensionless},Feb{dimensionless},Mar{dimensionless},Apr{dimensionless},May{dimensionless},Jun{dimensionless},Jul{dimensionless},Aug{dimensionless},Sep{dimensionless},Oct{dimensionless},Nov{dimensionless},Dec{dimensionless}
 Site:GroundReflectance:Snow:Daylighting,  0.20,  0.20,  0.20,  0.20,  0.20,  0.20,  0.20,  0.20,  0.20,  0.20,  0.20,  0.20
! <Environment:Weather Station>,Wind Sensor Height Above Ground {m},Wind Speed Profile Exponent {},Wind Speed Profile Boundary Layer Thickness {m},Air Temperature Sensor Height Above Ground {m},Wind Speed Modifier Coefficient-Internal,Temperature Modifier Coefficient-Internal
Environment:Weather Station,10.000,0.140,270.000,1.500,1.586,9.750E-003
! <Site:Location>, Location Name, Latitude {N+/S- Deg}, Longitude {E+/W- Deg},  Time Zone Number {GMT+/-}, Elevation {m},  Standard Pressure at Elevation {Pa}, Standard RhoAir at Elevation
Site:Location,Fort McMurray AP AB CAN CWEC2016 WMO#=716890,56.65,-111.22,-7.00,369.10,96969,1.1525
! <Building Information>, Building Name,North Axis {deg},Terrain,  Loads Convergence Tolerance Value,Temperature Convergence Tolerance Value,  Solar Distribution,Maximum Number of Warmup Days,Minimum Number of Warmup Days
 Building Information,Building 1,0.000,Suburbs,4.00000E-002,0.40000,FullExterior,25,6
! <Inside Convection Algorithm>, Algorithm {Simple | TARP | CeilingDiffuser | AdaptiveConvectionAlgorithm}
Inside Convection Algorithm,TARP
! <Outside Convection Algorithm>, Algorithm {SimpleCombined | TARP | MoWitt | DOE-2 | AdaptiveConvectionAlgorithm}
Outside Convection Algorithm,TARP
! <Sky Radiance Distribution>, Value {Anisotropic}
Sky Radiance Distribution,Anisotropic
! <Zone Air Solution Algorithm>, Value {ThirdOrderBackwardDifference | AnalyticalSolution | EulerMethod}
 Zone Air Solution Algorithm, ThirdOrderBackwardDifference
! <Zone Air Carbon Dioxide Balance Simulation>, Simulation {Yes/No}, Carbon Dioxide Concentration
 Zone Air Carbon Dioxide Balance Simulation, No,N/A
! <Zone Air Generic Contaminant Balance Simulation>, Simulation {Yes/No}, Generic Contaminant Concentration
 Zone Air Generic Contaminant Balance Simulation, No,N/A
! <Zone Air Mass Flow Balance Simulation>, Enforce Mass Balance, Adjust Zone Mixing, Adjust Zone Infiltration {AddInfiltration | AdjustInfiltration | None}, Infiltration Zones {MixingSourceZonesOnly | AllZones}
 Zone Air Mass Flow Balance Simulation, No,N/A,N/A,N/A
! <HVACSystemRootFindingAlgorithm>, Value {RegulaFalsi | Bisection | BisectionThenRegulaFalsi | RegulaFalsiThenBisection}
 HVACSystemRootFindingAlgorithm, RegulaFalsi
! <Environment:Site Atmospheric Variation>,Wind Speed Profile Exponent {},Wind Speed Profile Boundary Layer Thickness {m},Air Temperature Gradient Coefficient {K/m}
Environment:Site Atmospheric Variation,0.220,370.000,6.500000E-003
! <Surface Geometry>,Starting Corner,Vertex Input Direction,Coordinate System,Daylight Reference Point Coordinate System,Rectangular (Simple) Surface Coordinate System
 Surface Geometry,UpperLeftCorner,Counterclockwise,RelativeCoordinateSystem,RelativeCoordinateSystem,RelativeToZoneOrigin
! <Surface Heat Transfer Algorithm>, Value {CTF - ConductionTransferFunction | EMPD - MoisturePenetrationDepthConductionTransferFunction | CondFD - ConductionFiniteDifference | HAMT - CombinedHeatAndMoistureFiniteElement} - Description,Inside Surface Max Temperature Limit{C}, Surface Convection Coefficient Lower Limit {W/m2-K}, Surface Convection Coefficient Upper Limit {W/m2-K}
Surface Heat Transfer Algorithm, CTF - ConductionTransferFunction,200,0.10,1000.0
! <Shading Summary>, Number of Fixed Detached Shades, Number of Building Detached Shades, Number of Attached Shades
 Shading Summary,0,0,0
! <Zone Summary>, Number of Zones, Number of Zone Surfaces, Number of SubSurfaces
 Zone Summary,40,273,33
! <Zone Information>,Zone Name,North Axis {deg},Origin X-Coordinate {m},Origin Y-Coordinate {m},Origin Z-Coordinate {m},Centroid X-Coordinate {m},Centroid Y-Coordinate {m},Centroid Z-Coordinate {m},Type,Zone Multiplier,Zone List Multiplier,Minimum X {m},Maximum X {m},Minimum Y {m},Maximum Y {m},Minimum Z {m},Maximum Z {m},Ceiling Height {m},Volume {m3},Zone Inside Convection Algorithm {Simple-Detailed-CeilingDiffuser-TrombeWall},Zone Outside Convection Algorithm {Simple-Detailed-Tarp-MoWitt-DOE-2-BLAST}, Floor Area {m2},Exterior Gross Wall Area {m2},Exterior Net Wall Area {m2},Exterior Window Area {m2}, Number of Surfaces, Number of SubSurfaces, Number of Shading SubSurfaces,  Part of Total Building Area
 Zone Information, ALL_ST=PENITENTIARY - DINING_FL=STORY 8_SCH=B,0.0,75.00,25.00,26.60,89.15,50.00,28.50,1,1,1,75.00,100.00,0.00,100.00,26.60,30.40,3.80,7125.00,TARP,TARP,1875.00,380.00,285.00,188.75,6,2,0,Yes
 Zone Information, ALL_ST=POST OFFICE SORTING_FL=STORY 8_SCH=A,0.0,25.00,75.00,26.60,50.00,89.15,28.50,1,1,1,0.00,100.00,75.00,100.00,26.60,30.40,3.80,7125.00,TARP,TARP,1875.00,380.00,285.00,188.75,6,2,0,Yes
 Zone Information, ALL_ST=RELIGIOUS - AUDIENCE_FL=STORY 8_SCH=I,0.0,25.00,25.00,26.60,50.00,50.00,28.50,1,1,1,25.00,75.00,25.00,75.00,26.60,30.40,3.80,9500.00,TARP,TARP,2500.00,0.00,0.00,125.00,6,1,0,Yes
 Zone Information, ALL_ST=RELIGIOUS - FELLOWSHIP HALL_FL=STORY 7_SCH=C,0.0,25.00,25.00,22.80,50.00,50.00,24.70,1,1,1,25.00,75.00,25.00,75.00,22.80,26.60,3.80,9500.00,TARP,TARP,2500.00,0.00,0.00,0.00,6,0,0,Yes
 Zone Information, ALL_ST=RELIGIOUS - PULPIT/CHOIR_FL=STORY 7_SCH=I,0.0,0.00,0.00,22.80,50.00,10.85,24.70,1,1,1,0.00,100.00,0.00,25.00,22.80,26.60,3.80,7125.00,TARP,TARP,1875.00,380.00,285.00,95.00,6,1,0,Yes
 Zone Information, ALL_ST=RETAIL - DRESSING/FITTING_FL=STORY 7_SCH=C,0.0,75.00,25.00,22.80,89.15,50.00,24.70,1,1,1,75.00,100.00,0.00,100.00,22.80,26.60,3.80,7125.00,TARP,TARP,1875.00,380.00,285.00,95.00,6,1,0,Yes
 Zone Information, ALL_ST=RETAIL - MALL CONCOURSE_FL=STORY 6_SCH=C,0.0,0.00,0.00,19.00,50.00,10.85,20.90,1,1,1,0.00,100.00,0.00,25.00,19.00,22.80,3.80,7125.00,TARP,TARP,1875.00,380.00,285.00,95.00,6,1,0,Yes
 Zone Information, ALL_ST=RETAIL - SALES_FL=STORY 7_SCH=C,0.0,0.00,0.00,22.80,10.85,50.00,24.70,1,1,1,0.00,25.00,0.00,100.00,22.80,26.60,3.80,7125.00,TARP,TARP,1875.00,380.00,285.00,95.00,6,1,0,Yes
 Zone Information, ALL_ST=SALES AREA_FL=STORY 6_SCH=C,0.0,75.00,25.00,19.00,89.15,50.00,20.90,1,1,1,75.00,100.00,0.00,100.00,19.00,22.80,3.80,7125.00,TARP,TARP,1875.00,380.00,285.00,95.00,6,1,0,Yes
 Zone Information, ALL_ST=SPORTS ARENA - AUDIENCE_FL=STORY 8_SCH=B,0.0,0.00,0.00,26.60,50.00,10.85,28.50,1,1,1,0.00,100.00,0.00,25.00,26.60,30.40,3.80,7125.00,TARP,TARP,1875.00,380.00,285.00,188.75,6,2,0,Yes
 Zone Information, ALL_ST=SPORTS ARENA - COURT C1_FL=STORY 6_SCH=B,0.0,0.00,0.00,19.00,10.85,50.00,20.90,1,1,1,0.00,25.00,0.00,100.00,19.00,22.80,3.80,7125.00,TARP,TARP,1875.00,380.00,285.00,95.00,6,1,0,Yes
 Zone Information, ALL_ST=SPORTS ARENA - COURT C2_FL=STORY 5_SCH=B,0.0,0.00,0.00,15.20,50.00,10.85,17.10,1,1,1,0.00,100.00,0.00,25.00,15.20,19.00,3.80,7125.00,TARP,TARP,1875.00,380.00,285.00,95.00,6,1,0,Yes
 Zone Information, ALL_ST=SPORTS ARENA - COURT C3_FL=STORY 5_SCH=B,0.0,75.00,25.00,15.20,89.15,50.00,17.10,1,1,1,75.00,100.00,0.00,100.00,15.20,19.00,3.80,7125.00,TARP,TARP,1875.00,380.00,285.00,95.00,6,1,0,Yes
 Zone Information, ALL_ST=SPORTS ARENA - COURT C4_FL=STORY 2_SCH=B,0.0,25.00,75.00,3.80,50.00,89.15,5.70,1,1,1,0.00,100.00,75.00,100.00,3.80,7.60,3.80,7125.00,TARP,TARP,1875.00,380.00,285.00,95.00,6,1,0,Yes
 Zone Information, ALL_ST=SPORTS ARENA - RING_FL=STORY 6_SCH=B,0.0,25.00,75.00,19.00,50.00,89.15,20.90,1,1,1,0.00,100.00,75.00,100.00,19.00,22.80,3.80,7125.00,TARP,TARP,1875.00,380.00,285.00,95.00,6,1,0,Yes
 Zone Information, ALL_ST=STORAGE AREA - OCCSENS_FL=STORY 3_SCH=E,0.0,25.00,75.00,7.60,50.00,89.15,9.50,1,1,1,0.00,100.00,75.00,100.00,7.60,11.40,3.80,7125.00,TARP,TARP,1875.00,380.00,285.00,95.00,6,1,0,Yes
 Zone Information, ALL_ST=STORAGE AREA - REFRIGERATED - OCCSENS_FL=STORY 1_SCH=E,0.0,0.00,0.00,0.00,10.85,50.00,1.90,1,1,1,0.00,25.00,0.00,100.00,0.00,3.80,3.80,7125.00,TARP,TARP,1875.00,0.00,0.00,0.00,6,0,0,Yes
 Zone Information, ALL_ST=STORAGE AREA - REFRIGERATED_FL=STORY 3_SCH=E,0.0,75.00,25.00,7.60,89.15,50.00,9.50,1,1,1,75.00,100.00,0.00,100.00,7.60,11.40,3.80,7125.00,TARP,TARP,1875.00,380.00,285.00,95.00,6,1,0,Yes
 Zone Information, ALL_ST=STORAGE AREA_FL=STORY 2_SCH=E,0.0,0.00,0.00,3.80,50.00,10.85,5.70,1,1,1,0.00,100.00,0.00,25.00,3.80,7.60,3.80,7125.00,TARP,TARP,1875.00,380.00,285.00,95.00,6,1,0,Yes
 Zone Information, ALL_ST=TRANSP. BAGGAGE_FL=STORY 4_SCH=H,0.0,0.00,0.00,11.40,50.00,10.85,13.30,1,1,1,0.00,100.00,0.00,25.00,11.40,15.20,3.80,7125.00,TARP,TARP,1875.00,380.00,285.00,95.00,6,1,0,Yes
 Zone Information, ALL_ST=TRANSP. CONCOURSE_FL=STORY 6_SCH=H,0.0,25.00,25.00,19.00,50.00,50.00,20.90,1,1,1,25.00,75.00,25.00,75.00,19.00,22.80,3.80,9500.00,TARP,TARP,2500.00,0.00,0.00,0.00,6,0,0,Yes
 Zone Information, ALL_ST=TRANSP. COUNTER_FL=STORY 5_SCH=H,0.0,25.00,25.00,15.20,50.00,50.00,17.10,1,1,1,25.00,75.00,25.00,75.00,15.20,19.00,3.80,9500.00,TARP,TARP,2500.00,0.00,0.00,0.00,6,0,0,Yes
 Zone Information, ALL_ST=TRANSP. SEATING_FL=STORY 3_SCH=H,0.0,25.00,25.00,7.60,50.00,50.00,9.50,1,1,1,25.00,75.00,25.00,75.00,7.60,11.40,3.80,9500.00,TARP,TARP,2500.00,0.00,0.00,0.00,6,0,0,Yes
 Zone Information, ALL_ST=WAREHOUSE - FINE - REFRIGERATED_FL=STORY 4_SCH=A,0.0,25.00,75.00,11.40,50.00,89.15,13.30,1,1,1,0.00,100.00,75.00,100.00,11.40,15.20,3.80,7125.00,TARP,TARP,1875.00,380.00,285.00,95.00,6,1,0,Yes
 Zone Information, ALL_ST=WAREHOUSE - FINE_FL=STORY 7_SCH=A,0.0,25.00,75.00,22.80,50.00,89.15,24.70,1,1,1,0.00,100.00,75.00,100.00,22.80,26.60,3.80,7125.00,TARP,TARP,1875.00,380.00,285.00,95.00,6,1,0,Yes
 Zone Information, ALL_ST=WAREHOUSE - MED/BLK - REFRIGERATED_FL=STORY 1_SCH=A,0.0,75.00,25.00,0.00,89.15,50.00,1.90,1,1,1,75.00,100.00,0.00,100.00,0.00,3.80,3.80,7125.00,TARP,TARP,1875.00,0.00,0.00,0.00,6,0,0,Yes
 Zone Information, ALL_ST=WAREHOUSE - MED/BLK2 - REFRIGERATED_FL=STORY 5_SCH=A,0.0,0.00,0.00,15.20,10.85,50.00,17.10,1,1,1,0.00,25.00,0.00,100.00,15.20,19.00,3.80,7125.00,TARP,TARP,1875.00,380.00,285.00,95.00,6,1,0,Yes
 Zone Information, ALL_ST=WAREHOUSE - MED/BLK2_FL=STORY 4_SCH=A,0.0,0.00,0.00,11.40,10.85,50.00,13.30,1,1,1,0.00,25.00,0.00,100.00,11.40,15.20,3.80,7125.00,TARP,TARP,1875.00,380.00,285.00,95.00,6,1,0,Yes
 Zone Information, ALL_ST=WAREHOUSE - MED/BLK_FL=STORY 2_SCH=A,0.0,75.00,25.00,3.80,89.15,50.00,5.70,1,1,1,75.00,100.00,0.00,100.00,3.80,7.60,3.80,7125.00,TARP,TARP,1875.00,380.00,285.00,95.00,6,1,0,Yes
 Zone Information, WET_ST=WASHROOM-SCH-A_FL=STORY 1_SCHA,0.0,25.00,75.00,0.00,50.00,89.15,1.90,1,1,1,0.00,100.00,75.00,100.00,0.00,3.80,3.80,7125.00,TARP,TARP,1875.00,0.00,0.00,0.00,6,0,0,Yes
 Zone Information, WET_ST=WASHROOM-SCH-B_FL=STORY 5_SCHA,0.0,25.00,75.00,15.20,50.00,89.15,17.10,1,1,1,0.00,100.00,75.00,100.00,15.20,19.00,3.80,7125.00,TARP,TARP,1875.00,380.00,285.00,95.00,6,1,0,Yes
 Zone Information, WILD_ST=STAIRWAY-SCH-A_FL=STORY 4_SCH=A,0.0,25.00,25.00,11.40,50.00,50.00,13.30,1,1,1,25.00,75.00,25.00,75.00,11.40,15.20,3.80,9500.00,TARP,TARP,2500.00,0.00,0.00,0.00,6,0,0,Yes
 Zone Information, WILD_ST=STAIRWAY-SCH-B_FL=STORY 2_SCH=A,0.0,0.00,0.00,3.80,10.85,50.00,5.70,1,1,1,0.00,25.00,0.00,100.00,3.80,7.60,3.80,7125.00,TARP,TARP,1875.00,380.00,285.00,95.00,6,1,0,Yes
 Zone Information, WILD_ST=STAIRWAY-SCH-C_FL=STORY 1_SCH=A,0.0,0.00,0.00,0.00,50.00,10.85,1.90,1,1,1,0.00,100.00,0.00,25.00,0.00,3.80,3.80,7125.00,TARP,TARP,1875.00,0.00,0.00,0.00,6,0,0,Yes
 Zone Information, WILD_ST=STAIRWAY-SCH-D_FL=STORY 8_SCH=A,0.0,0.00,0.00,26.60,10.85,50.00,28.50,1,1,1,0.00,25.00,0.00,100.00,26.60,30.40,3.80,7125.00,TARP,TARP,1875.00,380.00,285.00,188.75,6,2,0,Yes
 Zone Information, WILD_ST=STAIRWAY-SCH-E_FL=STORY 2_SCH=A,0.0,25.00,25.00,3.80,50.00,50.00,5.70,1,1,1,25.00,75.00,25.00,75.00,3.80,7.60,3.80,9500.00,TARP,TARP,2500.00,0.00,0.00,0.00,6,0,0,Yes
 Zone Information, WILD_ST=STAIRWAY-SCH-F_FL=STORY 3_SCH=A,0.0,0.00,0.00,7.60,50.00,10.85,9.50,1,1,1,0.00,100.00,0.00,25.00,7.60,11.40,3.80,7125.00,TARP,TARP,1875.00,380.00,285.00,95.00,6,1,0,Yes
 Zone Information, WILD_ST=STAIRWAY-SCH-G_FL=STORY 1_SCH=A,0.0,25.00,25.00,0.00,50.00,50.00,1.90,1,1,1,25.00,75.00,25.00,75.00,0.00,3.80,3.80,9500.00,TARP,TARP,2500.00,0.00,0.00,0.00,6,0,0,Yes
 Zone Information, WILD_ST=STAIRWAY-SCH-H_FL=STORY 4_SCH=A,0.0,75.00,25.00,11.40,89.15,50.00,13.30,1,1,1,75.00,100.00,0.00,100.00,11.40,15.20,3.80,7125.00,TARP,TARP,1875.00,380.00,285.00,95.00,6,1,0,Yes
 Zone Information, WILD_ST=STAIRWAY-SCH-I_FL=STORY 3_SCH=A,0.0,0.00,0.00,7.60,10.85,50.00,9.50,1,1,1,0.00,25.00,0.00,100.00,7.60,11.40,3.80,7125.00,TARP,TARP,1875.00,380.00,285.00,95.00,6,1,0,Yes
! <Zone Internal Gains Nominal>,Zone Name, Floor Area {m2},# Occupants,Area per Occupant {m2/person},Occupant per Area {person/m2},Interior Lighting {W/m2},Electric Load {W/m2},Gas Load {W/m2},Other Load {W/m2},Hot Water Eq {W/m2},Steam Equipment {W/m2},Sum Loads per Area {W/m2},Outdoor Controlled Baseboard Heat
 Zone Internal Gains Nominal, ALL_ST=PENITENTIARY - DINING_FL=STORY 8_SCH=B,1875.00,187.5,10.000,10.000E-002,11.500,1.000,0.000,0.000,0.000,0.000,12.500,No
 Zone Internal Gains Nominal, ALL_ST=POST OFFICE SORTING_FL=STORY 8_SCH=A,1875.00,93.8,19.979,5.005E-002,10.100,7.500,0.000,0.000,0.000,0.000,17.600,No
 Zone Internal Gains Nominal, ALL_ST=RELIGIOUS - AUDIENCE_FL=STORY 8_SCH=I,2500.00,500.0,5.000,0.200,18.200,1.000,0.000,0.000,0.000,0.000,19.200,No
 Zone Internal Gains Nominal, ALL_ST=RELIGIOUS - FELLOWSHIP HALL_FL=STORY 7_SCH=C,2500.00,500.0,5.000,0.200,6.900,1.000,0.000,0.000,0.000,0.000,7.900,No
 Zone Internal Gains Nominal, ALL_ST=RELIGIOUS - PULPIT/CHOIR_FL=STORY 7_SCH=I,1875.00,375.0,5.000,0.200,18.200,1.000,0.000,0.000,0.000,0.000,19.200,No
 Zone Internal Gains Nominal, ALL_ST=RETAIL - DRESSING/FITTING_FL=STORY 7_SCH=C,1875.00,62.6,29.969,3.337E-002,8.460,2.500,0.000,0.000,0.000,0.000,10.960,No
 Zone Internal Gains Nominal, ALL_ST=RETAIL - MALL CONCOURSE_FL=STORY 6_SCH=C,1875.00,93.8,19.979,5.005E-002,11.800,1.000,0.000,0.000,0.000,0.000,12.800,No
 Zone Internal Gains Nominal, ALL_ST=RETAIL - SALES_FL=STORY 7_SCH=C,1875.00,62.6,29.969,3.337E-002,18.100,2.500,0.000,0.000,0.000,0.000,20.600,No
 Zone Internal Gains Nominal, ALL_ST=SALES AREA_FL=STORY 6_SCH=C,1875.00,62.6,29.969,3.337E-002,18.100,2.500,0.000,0.000,0.000,0.000,20.600,No
 Zone Internal Gains Nominal, ALL_ST=SPORTS ARENA - AUDIENCE_FL=STORY 8_SCH=B,1875.00,375.0,5.000,0.200,4.600,0.000,0.000,0.000,0.000,0.000,4.600,No
 Zone Internal Gains Nominal, ALL_ST=SPORTS ARENA - COURT C1_FL=STORY 6_SCH=B,1875.00,375.0,5.000,0.200,32.400,1.500,0.000,0.000,0.000,0.000,33.900,No
 Zone Internal Gains Nominal, ALL_ST=SPORTS ARENA - COURT C2_FL=STORY 5_SCH=B,1875.00,375.0,5.000,0.200,20.700,1.500,0.000,0.000,0.000,0.000,22.200,No
 Zone Internal Gains Nominal, ALL_ST=SPORTS ARENA - COURT C3_FL=STORY 5_SCH=B,1875.00,375.0,5.000,0.200,12.900,1.500,0.000,0.000,0.000,0.000,14.400,No
 Zone Internal Gains Nominal, ALL_ST=SPORTS ARENA - COURT C4_FL=STORY 2_SCH=B,1875.00,375.0,5.000,0.200,7.800,1.500,0.000,0.000,0.000,0.000,9.300,No
 Zone Internal Gains Nominal, ALL_ST=SPORTS ARENA - RING_FL=STORY 6_SCH=B,1875.00,375.0,5.000,0.200,28.800,1.500,0.000,0.000,0.000,0.000,30.300,No
 Zone Internal Gains Nominal, ALL_ST=STORAGE AREA - OCCSENS_FL=STORY 3_SCH=E,1875.00,18.8,99.896,1.001E-002,6.120,1.000,0.000,0.000,0.000,0.000,7.120,No
 Zone Internal Gains Nominal, ALL_ST=STORAGE AREA - REFRIGERATED - OCCSENS_FL=STORY 1_SCH=E,1875.00,18.8,99.896,1.001E-002,6.120,1.000,0.000,0.000,0.000,0.000,7.120,No
 Zone Internal Gains Nominal, ALL_ST=STORAGE AREA - REFRIGERATED_FL=STORY 3_SCH=E,1875.00,18.8,99.896,1.001E-002,6.800,1.000,0.000,0.000,0.000,0.000,7.800,No
 Zone Internal Gains Nominal, ALL_ST=STORAGE AREA_FL=STORY 2_SCH=E,1875.00,18.8,99.896,1.001E-002,6.800,1.000,0.000,0.000,0.000,0.000,7.800,No
 Zone Internal Gains Nominal, ALL_ST=TRANSP. BAGGAGE_FL=STORY 4_SCH=H,1875.00,93.8,19.979,5.005E-002,8.200,2.500,0.000,0.000,0.000,0.000,10.700,No
 Zone Internal Gains Nominal, ALL_ST=TRANSP. CONCOURSE_FL=STORY 6_SCH=H,2500.00,125.1,19.979,5.005E-002,3.900,0.000,0.000,0.000,0.000,0.000,3.900,No
 Zone Internal Gains Nominal, ALL_ST=TRANSP. COUNTER_FL=STORY 5_SCH=H,2500.00,250.0,10.000,10.000E-002,11.600,2.500,0.000,0.000,0.000,0.000,14.100,No
 Zone Internal Gains Nominal, ALL_ST=TRANSP. SEATING_FL=STORY 3_SCH=H,2500.00,250.0,10.000,10.000E-002,5.800,0.000,0.000,0.000,0.000,0.000,5.800,No
 Zone Internal Gains Nominal, ALL_ST=WAREHOUSE - FINE - REFRIGERATED_FL=STORY 4_SCH=A,1875.00,37.5,49.948,2.002E-002,10.200,1.000,0.000,0.000,0.000,0.000,11.200,No
 Zone Internal Gains Nominal, ALL_ST=WAREHOUSE - FINE_FL=STORY 7_SCH=A,1875.00,37.5,49.948,2.002E-002,10.200,1.000,0.000,0.000,0.000,0.000,11.200,No
 Zone Internal Gains Nominal, ALL_ST=WAREHOUSE - MED/BLK - REFRIGERATED_FL=STORY 1_SCH=A,1875.00,18.8,99.896,1.001E-002,6.400,1.000,0.000,0.000,0.000,0.000,7.400,No
 Zone Internal Gains Nominal, ALL_ST=WAREHOUSE - MED/BLK2 - REFRIGERATED_FL=STORY 5_SCH=A,1875.00,18.8,99.896,1.001E-002,10.200,1.000,0.000,0.000,0.000,0.000,11.200,No
 Zone Internal Gains Nominal, ALL_ST=WAREHOUSE - MED/BLK2_FL=STORY 4_SCH=A,1875.00,18.8,99.896,1.001E-002,10.200,1.000,0.000,0.000,0.000,0.000,11.200,No
 Zone Internal Gains Nominal, ALL_ST=WAREHOUSE - MED/BLK_FL=STORY 2_SCH=A,1875.00,18.8,99.896,1.001E-002,6.400,1.000,0.000,0.000,0.000,0.000,7.400,No
 Zone Internal Gains Nominal, WET_ST=WASHROOM-SCH-A_FL=STORY 1_SCHA,1875.00,62.6,29.969,3.337E-002,9.450,1.000,0.000,0.000,0.000,0.000,10.450,No
 Zone Internal Gains Nominal, WET_ST=WASHROOM-SCH-B_FL=STORY 5_SCHA,1875.00,62.6,29.969,3.337E-002,9.450,1.000,0.000,0.000,0.000,0.000,10.450,No
 Zone Internal Gains Nominal, WILD_ST=STAIRWAY-SCH-A_FL=STORY 4_SCH=A,2500.00,12.4,201.963,4.951E-003,7.400,0.000,0.000,0.000,0.000,0.000,7.400,No
 Zone Internal Gains Nominal, WILD_ST=STAIRWAY-SCH-B_FL=STORY 2_SCH=A,1875.00,9.3,201.963,4.951E-003,7.400,0.000,0.000,0.000,0.000,0.000,7.400,No
 Zone Internal Gains Nominal, WILD_ST=STAIRWAY-SCH-C_FL=STORY 1_SCH=A,1875.00,9.3,201.963,4.951E-003,7.400,0.000,0.000,0.000,0.000,0.000,7.400,No
 Zone Internal Gains Nominal, WILD_ST=STAIRWAY-SCH-D_FL=STORY 8_SCH=A,1875.00,9.3,201.963,4.951E-003,7.400,0.000,0.000,0.000,0.000,0.000,7.400,No
 Zone Internal Gains Nominal, WILD_ST=STAIRWAY-SCH-E_FL=STORY 2_SCH=A,2500.00,12.4,201.963,4.951E-003,7.400,0.000,0.000,0.000,0.000,0.000,7.400,No
 Zone Internal Gains Nominal, WILD_ST=STAIRWAY-SCH-F_FL=STORY 3_SCH=A,1875.00,9.3,201.963,4.951E-003,7.400,0.000,0.000,0.000,0.000,0.000,7.400,No
 Zone Internal Gains Nominal, WILD_ST=STAIRWAY-SCH-G_FL=STORY 1_SCH=A,2500.00,12.4,201.963,4.951E-003,7.400,0.000,0.000,0.000,0.000,0.000,7.400,No
 Zone Internal Gains Nominal, WILD_ST=STAIRWAY-SCH-H_FL=STORY 4_SCH=A,1875.00,9.3,201.963,4.951E-003,7.400,0.000,0.000,0.000,0.000,0.000,7.400,No
 Zone Internal Gains Nominal, WILD_ST=STAIRWAY-SCH-I_FL=STORY 3_SCH=A,1875.00,9.3,201.963,4.951E-003,7.400,0.000,0.000,0.000,0.000,0.000,7.400,No
! <People Internal Gains Nominal>,Name,Schedule Name,Zone Name,Zone Floor Area {m2},# Zone Occupants,Number of People {},People/Floor Area {person/m2},Floor Area per person {m2/person},Fraction Radiant,Fraction Convected,Sensible Fraction Calculation,Activity level,ASHRAE 55 Warnings,Carbon Dioxide Generation Rate,Nominal Minimum Number of People,Nominal Maximum Number of People
 People Internal Gains Nominal, ALL_ST=PENITENTIARY - DINING_FL=STORY 8_SCH=B SPACE FUNCTION PENITENTIARY - DINING PEOPLE,NECB-B-OCCUPANCY,ALL_ST=PENITENTIARY - DINING_FL=STORY 8_SCH=B,1875.00,187.5,187.5,10.000E-002,10.000,0.300,0.700,AutoCalculate,NECB-ACTIVITY,No,3.8200E-008,0,169
 People Internal Gains Nominal, ALL_ST=POST OFFICE SORTING_FL=STORY 8_SCH=A SPACE FUNCTION POST OFFICE SORTING PEOPLE,NECB-A-OCCUPANCY,ALL_ST=POST OFFICE SORTING_FL=STORY 8_SCH=A,1875.00,93.8,93.8,5.005E-002,19.979,0.300,0.700,AutoCalculate,NECB-ACTIVITY,No,3.8200E-008,0,84
 People Internal Gains Nominal, ALL_ST=RELIGIOUS - AUDIENCE_FL=STORY 8_SCH=I SPACE FUNCTION RELIGIOUS - AUDIENCE PEOPLE,NECB-I-OCCUPANCY,ALL_ST=RELIGIOUS - AUDIENCE_FL=STORY 8_SCH=I,2500.00,500.0,500.0,0.200,5.000,0.300,0.700,AutoCalculate,NECB-ACTIVITY,No,3.8200E-008,0,400
 People Internal Gains Nominal, ALL_ST=RELIGIOUS - FELLOWSHIP HALL_FL=STORY 7_SCH=C SPACE FUNCTION RELIGIOUS - FELLOWSHIP HALL PEOPLE,NECB-C-OCCUPANCY,ALL_ST=RELIGIOUS - FELLOWSHIP HALL_FL=STORY 7_SCH=C,2500.00,500.0,500.0,0.200,5.000,0.300,0.700,AutoCalculate,NECB-ACTIVITY,No,3.8200E-008,0,450
 People Internal Gains Nominal, ALL_ST=RELIGIOUS - PULPIT/CHOIR_FL=STORY 7_SCH=I SPACE FUNCTION RELIGIOUS - PULPIT/CHOIR PEOPLE,NECB-I-OCCUPANCY,ALL_ST=RELIGIOUS - PULPIT/CHOIR_FL=STORY 7_SCH=I,1875.00,375.0,375.0,0.200,5.000,0.300,0.700,AutoCalculate,NECB-ACTIVITY,No,3.8200E-008,0,300
 People Internal Gains Nominal, ALL_ST=RETAIL - DRESSING/FITTING_FL=STORY 7_SCH=C SPACE FUNCTION RETAIL - DRESSING/FITTING PEOPLE,NECB-C-OCCUPANCY,ALL_ST=RETAIL - DRESSING/FITTING_FL=STORY 7_SCH=C,1875.00,62.6,62.6,3.337E-002,29.969,0.300,0.700,AutoCalculate,NECB-ACTIVITY,No,3.8200E-008,0,56
 People Internal Gains Nominal, ALL_ST=RETAIL - MALL CONCOURSE_FL=STORY 6_SCH=C SPACE FUNCTION RETAIL - MALL CONCOURSE PEOPLE,NECB-C-OCCUPANCY,ALL_ST=RETAIL - MALL CONCOURSE_FL=STORY 6_SCH=C,1875.00,93.8,93.8,5.005E-002,19.979,0.300,0.700,AutoCalculate,NECB-ACTIVITY,No,3.8200E-008,0,84
 People Internal Gains Nominal, ALL_ST=RETAIL - SALES_FL=STORY 7_SCH=C SPACE FUNCTION RETAIL - SALES PEOPLE,NECB-C-OCCUPANCY,ALL_ST=RETAIL - SALES_FL=STORY 7_SCH=C,1875.00,62.6,62.6,3.337E-002,29.969,0.300,0.700,AutoCalculate,NECB-ACTIVITY,No,3.8200E-008,0,56
 People Internal Gains Nominal, ALL_ST=SALES AREA_FL=STORY 6_SCH=C SPACE FUNCTION SALES AREA PEOPLE,NECB-C-OCCUPANCY,ALL_ST=SALES AREA_FL=STORY 6_SCH=C,1875.00,62.6,62.6,3.337E-002,29.969,0.300,0.700,AutoCalculate,NECB-ACTIVITY,No,3.8200E-008,0,56
 People Internal Gains Nominal, ALL_ST=SPORTS ARENA - AUDIENCE_FL=STORY 8_SCH=B SPACE FUNCTION SPORTS ARENA - AUDIENCE PEOPLE,NECB-B-OCCUPANCY,ALL_ST=SPORTS ARENA - AUDIENCE_FL=STORY 8_SCH=B,1875.00,375.0,375.0,0.200,5.000,0.300,0.700,AutoCalculate,NECB-ACTIVITY,No,3.8200E-008,0,337
 People Internal Gains Nominal, ALL_ST=SPORTS ARENA - COURT C1_FL=STORY 6_SCH=B SPACE FUNCTION SPORTS ARENA - COURT C1 PEOPLE,NECB-B-OCCUPANCY,ALL_ST=SPORTS ARENA - COURT C1_FL=STORY 6_SCH=B,1875.00,375.0,375.0,0.200,5.000,0.300,0.700,AutoCalculate,NECB-ACTIVITY,No,3.8200E-008,0,337
 People Internal Gains Nominal, ALL_ST=SPORTS ARENA - COURT C2_FL=STORY 5_SCH=B SPACE FUNCTION SPORTS ARENA - COURT C2 PEOPLE,NECB-B-OCCUPANCY,ALL_ST=SPORTS ARENA - COURT C2_FL=STORY 5_SCH=B,1875.00,375.0,375.0,0.200,5.000,0.300,0.700,AutoCalculate,NECB-ACTIVITY,No,3.8200E-008,0,337
 People Internal Gains Nominal, ALL_ST=SPORTS ARENA - COURT C3_FL=STORY 5_SCH=B SPACE FUNCTION SPORTS ARENA - COURT C3 PEOPLE,NECB-B-OCCUPANCY,ALL_ST=SPORTS ARENA - COURT C3_FL=STORY 5_SCH=B,1875.00,375.0,375.0,0.200,5.000,0.300,0.700,AutoCalculate,NECB-ACTIVITY,No,3.8200E-008,0,337
 People Internal Gains Nominal, ALL_ST=SPORTS ARENA - COURT C4_FL=STORY 2_SCH=B SPACE FUNCTION SPORTS ARENA - COURT C4 PEOPLE,NECB-B-OCCUPANCY,ALL_ST=SPORTS ARENA - COURT C4_FL=STORY 2_SCH=B,1875.00,375.0,375.0,0.200,5.000,0.300,0.700,AutoCalculate,NECB-ACTIVITY,No,3.8200E-008,0,337
 People Internal Gains Nominal, ALL_ST=SPORTS ARENA - RING_FL=STORY 6_SCH=B SPACE FUNCTION SPORTS ARENA - RING PEOPLE,NECB-B-OCCUPANCY,ALL_ST=SPORTS ARENA - RING_FL=STORY 6_SCH=B,1875.00,375.0,375.0,0.200,5.000,0.300,0.700,AutoCalculate,NECB-ACTIVITY,No,3.8200E-008,0,337
 People Internal Gains Nominal, WILD_ST=STAIRWAY-SCH-A_FL=STORY 4_SCH=A SPACE FUNCTION STAIRWAY-SCH-A PEOPLE,NECB-A-OCCUPANCY,WILD_ST=STAIRWAY-SCH-A_FL=STORY 4_SCH=A,2500.00,12.4,12.4,4.951E-003,201.963,0.300,0.700,AutoCalculate,NECB-ACTIVITY,No,3.8200E-008,0,11
 People Internal Gains Nominal, WILD_ST=STAIRWAY-SCH-B_FL=STORY 2_SCH=A SPACE FUNCTION STAIRWAY-SCH-A PEOPLE,NECB-A-OCCUPANCY,WILD_ST=STAIRWAY-SCH-B_FL=STORY 2_SCH=A,1875.00,9.3,9.3,4.951E-003,201.963,0.300,0.700,AutoCalculate,NECB-ACTIVITY,No,3.8200E-008,0,8
 People Internal Gains Nominal, WILD_ST=STAIRWAY-SCH-C_FL=STORY 1_SCH=A SPACE FUNCTION STAIRWAY-SCH-A PEOPLE,NECB-A-OCCUPANCY,WILD_ST=STAIRWAY-SCH-C_FL=STORY 1_SCH=A,1875.00,9.3,9.3,4.951E-003,201.963,0.300,0.700,AutoCalculate,NECB-ACTIVITY,No,3.8200E-008,0,8
 People Internal Gains Nominal, WILD_ST=STAIRWAY-SCH-D_FL=STORY 8_SCH=A SPACE FUNCTION STAIRWAY-SCH-A PEOPLE,NECB-A-OCCUPANCY,WILD_ST=STAIRWAY-SCH-D_FL=STORY 8_SCH=A,1875.00,9.3,9.3,4.951E-003,201.963,0.300,0.700,AutoCalculate,NECB-ACTIVITY,No,3.8200E-008,0,8
 People Internal Gains Nominal, WILD_ST=STAIRWAY-SCH-E_FL=STORY 2_SCH=A SPACE FUNCTION STAIRWAY-SCH-A PEOPLE,NECB-A-OCCUPANCY,WILD_ST=STAIRWAY-SCH-E_FL=STORY 2_SCH=A,2500.00,12.4,12.4,4.951E-003,201.963,0.300,0.700,AutoCalculate,NECB-ACTIVITY,No,3.8200E-008,0,11
 People Internal Gains Nominal, WILD_ST=STAIRWAY-SCH-F_FL=STORY 3_SCH=A SPACE FUNCTION STAIRWAY-SCH-A PEOPLE,NECB-A-OCCUPANCY,WILD_ST=STAIRWAY-SCH-F_FL=STORY 3_SCH=A,1875.00,9.3,9.3,4.951E-003,201.963,0.300,0.700,AutoCalculate,NECB-ACTIVITY,No,3.8200E-008,0,8
 People Internal Gains Nominal, WILD_ST=STAIRWAY-SCH-G_FL=STORY 1_SCH=A SPACE FUNCTION STAIRWAY-SCH-A PEOPLE,NECB-A-OCCUPANCY,WILD_ST=STAIRWAY-SCH-G_FL=STORY 1_SCH=A,2500.00,12.4,12.4,4.951E-003,201.963,0.300,0.700,AutoCalculate,NECB-ACTIVITY,No,3.8200E-008,0,11
 People Internal Gains Nominal, WILD_ST=STAIRWAY-SCH-H_FL=STORY 4_SCH=A SPACE FUNCTION STAIRWAY-SCH-A PEOPLE,NECB-A-OCCUPANCY,WILD_ST=STAIRWAY-SCH-H_FL=STORY 4_SCH=A,1875.00,9.3,9.3,4.951E-003,201.963,0.300,0.700,AutoCalculate,NECB-ACTIVITY,No,3.8200E-008,0,8
 People Internal Gains Nominal, WILD_ST=STAIRWAY-SCH-I_FL=STORY 3_SCH=A SPACE FUNCTION STAIRWAY-SCH-A PEOPLE,NECB-A-OCCUPANCY,WILD_ST=STAIRWAY-SCH-I_FL=STORY 3_SCH=A,1875.00,9.3,9.3,4.951E-003,201.963,0.300,0.700,AutoCalculate,NECB-ACTIVITY,No,3.8200E-008,0,8
 People Internal Gains Nominal, ALL_ST=STORAGE AREA_FL=STORY 2_SCH=E SPACE FUNCTION STORAGE AREA PEOPLE,NECB-E-OCCUPANCY,ALL_ST=STORAGE AREA_FL=STORY 2_SCH=E,1875.00,18.8,18.8,1.001E-002,99.896,0.300,0.700,AutoCalculate,NECB-ACTIVITY,No,3.8200E-008,0,17
 People Internal Gains Nominal, ALL_ST=STORAGE AREA - OCCSENS_FL=STORY 3_SCH=E SPACE FUNCTION STORAGE AREA - OCCSENS PEOPLE,NECB-E-OCCUPANCY,ALL_ST=STORAGE AREA - OCCSENS_FL=STORY 3_SCH=E,1875.00,18.8,18.8,1.001E-002,99.896,0.300,0.700,AutoCalculate,NECB-ACTIVITY,No,3.8200E-008,0,17
 People Internal Gains Nominal, ALL_ST=STORAGE AREA - REFRIGERATED_FL=STORY 3_SCH=E SPACE FUNCTION STORAGE AREA - REFRIGERATED PEOPLE,NECB-E-OCCUPANCY,ALL_ST=STORAGE AREA - REFRIGERATED_FL=STORY 3_SCH=E,1875.00,18.8,18.8,1.001E-002,99.896,0.300,0.700,AutoCalculate,NECB-ACTIVITY,No,3.8200E-008,0,17
 People Internal Gains Nominal, ALL_ST=STORAGE AREA - REFRIGERATED - OCCSENS_FL=STORY 1_SCH=E SPACE FUNCTION STORAGE AREA - REFRIGERATED - OCCSENS PEOPLE,NECB-E-OCCUPANCY,ALL_ST=STORAGE AREA - REFRIGERATED - OCCSENS_FL=STORY 1_SCH=E,1875.00,18.8,18.8,1.001E-002,99.896,0.300,0.700,AutoCalculate,NECB-ACTIVITY,No,3.8200E-008,0,17
 People Internal Gains Nominal, ALL_ST=TRANSP. BAGGAGE_FL=STORY 4_SCH=H SPACE FUNCTION TRANSP. BAGGAGE PEOPLE,NECB-H-OCCUPANCY,ALL_ST=TRANSP. BAGGAGE_FL=STORY 4_SCH=H,1875.00,93.8,93.8,5.005E-002,19.979,0.300,0.700,AutoCalculate,NECB-ACTIVITY,No,3.8200E-008,84,84
 People Internal Gains Nominal, ALL_ST=TRANSP. CONCOURSE_FL=STORY 6_SCH=H SPACE FUNCTION TRANSP. CONCOURSE PEOPLE,NECB-H-OCCUPANCY,ALL_ST=TRANSP. CONCOURSE_FL=STORY 6_SCH=H,2500.00,125.1,125.1,5.005E-002,19.979,0.300,0.700,AutoCalculate,NECB-ACTIVITY,No,3.8200E-008,113,113
 People Internal Gains Nominal, ALL_ST=TRANSP. COUNTER_FL=STORY 5_SCH=H SPACE FUNCTION TRANSP. COUNTER PEOPLE,NECB-H-OCCUPANCY,ALL_ST=TRANSP. COUNTER_FL=STORY 5_SCH=H,2500.00,250.0,250.0,10.000E-002,10.000,0.300,0.700,AutoCalculate,NECB-ACTIVITY,No,3.8200E-008,225,225
 People Internal Gains Nominal, ALL_ST=TRANSP. SEATING_FL=STORY 3_SCH=H SPACE FUNCTION TRANSP. SEATING PEOPLE,NECB-H-OCCUPANCY,ALL_ST=TRANSP. SEATING_FL=STORY 3_SCH=H,2500.00,250.0,250.0,10.000E-002,10.000,0.300,0.700,AutoCalculate,NECB-ACTIVITY,No,3.8200E-008,225,225
 People Internal Gains Nominal, ALL_ST=WAREHOUSE - FINE_FL=STORY 7_SCH=A SPACE FUNCTION WAREHOUSE - FINE PEOPLE,NECB-A-OCCUPANCY,ALL_ST=WAREHOUSE - FINE_FL=STORY 7_SCH=A,1875.00,37.5,37.5,2.002E-002,49.948,0.300,0.700,AutoCalculate,NECB-ACTIVITY,No,3.8200E-008,0,34
 People Internal Gains Nominal, ALL_ST=WAREHOUSE - FINE - REFRIGERATED_FL=STORY 4_SCH=A SPACE FUNCTION WAREHOUSE - FINE - REFRIGERATED PEOPLE,NECB-A-OCCUPANCY,ALL_ST=WAREHOUSE - FINE - REFRIGERATED_FL=STORY 4_SCH=A,1875.00,37.5,37.5,2.002E-002,49.948,0.300,0.700,AutoCalculate,NECB-ACTIVITY,No,3.8200E-008,0,34
 People Internal Gains Nominal, ALL_ST=WAREHOUSE - MED/BLK_FL=STORY 2_SCH=A SPACE FUNCTION WAREHOUSE - MED/BLK PEOPLE,NECB-A-OCCUPANCY,ALL_ST=WAREHOUSE - MED/BLK_FL=STORY 2_SCH=A,1875.00,18.8,18.8,1.001E-002,99.896,0.300,0.700,AutoCalculate,NECB-ACTIVITY,No,3.8200E-008,0,17
 People Internal Gains Nominal, ALL_ST=WAREHOUSE - MED/BLK - REFRIGERATED_FL=STORY 1_SCH=A SPACE FUNCTION WAREHOUSE - MED/BLK - REFRIGERATED PEOPLE,NECB-A-OCCUPANCY,ALL_ST=WAREHOUSE - MED/BLK - REFRIGERATED_FL=STORY 1_SCH=A,1875.00,18.8,18.8,1.001E-002,99.896,0.300,0.700,AutoCalculate,NECB-ACTIVITY,No,3.8200E-008,0,17
 People Internal Gains Nominal, ALL_ST=WAREHOUSE - MED/BLK2_FL=STORY 4_SCH=A SPACE FUNCTION WAREHOUSE - MED/BLK2 PEOPLE,NECB-A-OCCUPANCY,ALL_ST=WAREHOUSE - MED/BLK2_FL=STORY 4_SCH=A,1875.00,18.8,18.8,1.001E-002,99.896,0.300,0.700,AutoCalculate,NECB-ACTIVITY,No,3.8200E-008,0,17
 People Internal Gains Nominal, ALL_ST=WAREHOUSE - MED/BLK2 - REFRIGERATED_FL=STORY 5_SCH=A SPACE FUNCTION WAREHOUSE - MED/BLK2 - REFRIGERATED PEOPLE,NECB-A-OCCUPANCY,ALL_ST=WAREHOUSE - MED/BLK2 - REFRIGERATED_FL=STORY 5_SCH=A,1875.00,18.8,18.8,1.001E-002,99.896,0.300,0.700,AutoCalculate,NECB-ACTIVITY,No,3.8200E-008,0,17
 People Internal Gains Nominal, WET_ST=WASHROOM-SCH-A_FL=STORY 1_SCHA SPACE FUNCTION WASHROOM-SCH-A PEOPLE,NECB-A-OCCUPANCY,WET_ST=WASHROOM-SCH-A_FL=STORY 1_SCHA,1875.00,62.6,62.6,3.337E-002,29.969,0.300,0.700,AutoCalculate,NECB-ACTIVITY,No,3.8200E-008,0,56
 People Internal Gains Nominal, WET_ST=WASHROOM-SCH-B_FL=STORY 5_SCHA SPACE FUNCTION WASHROOM-SCH-A PEOPLE,NECB-A-OCCUPANCY,WET_ST=WASHROOM-SCH-B_FL=STORY 5_SCHA,1875.00,62.6,62.6,3.337E-002,29.969,0.300,0.700,AutoCalculate,NECB-ACTIVITY,No,3.8200E-008,0,56
! <Lights Internal Gains Nominal>,Name,Schedule Name,Zone Name,Zone Floor Area {m2},# Zone Occupants,Lighting Level {W},Lights/Floor Area {W/m2},Lights per person {W/person},Fraction Return Air,Fraction Radiant,Fraction Short Wave,Fraction Convected,Fraction Replaceable,End-Use Category,Nominal Minimum Lighting Level {W},Nominal Maximum Lighting Level {W}
 Lights Internal Gains Nominal, ALL_ST=PENITENTIARY - DINING_FL=STORY 8_SCH=B SPACE FUNCTION PENITENTIARY - DINING LIGHTS,NECB-B-LIGHTING,ALL_ST=PENITENTIARY - DINING_FL=STORY 8_SCH=B,1875.00,187.5,21562.321,11.500,115.003,0.000,0.500,0.200,0.300,1.000,General,2156.232,19406.088
 Lights Internal Gains Nominal, ALL_ST=POST OFFICE SORTING_FL=STORY 8_SCH=A SPACE FUNCTION POST OFFICE SORTING LIGHTS,NECB-A-LIGHTING,ALL_ST=POST OFFICE SORTING_FL=STORY 8_SCH=A,1875.00,93.8,18937.342,10.100,201.788,0.000,0.500,0.200,0.300,1.000,General,946.867,17043.608
 Lights Internal Gains Nominal, ALL_ST=RELIGIOUS - AUDIENCE_FL=STORY 8_SCH=I SPACE FUNCTION RELIGIOUS - AUDIENCE LIGHTS,NECB-I-LIGHTING,ALL_ST=RELIGIOUS - AUDIENCE_FL=STORY 8_SCH=I,2500.00,500.0,45499.621,18.200,91.002,0.000,0.500,0.200,0.300,1.000,General,2274.981,40949.659
 Lights Internal Gains Nominal, ALL_ST=RELIGIOUS - FELLOWSHIP HALL_FL=STORY 7_SCH=C SPACE FUNCTION RELIGIOUS - FELLOWSHIP HALL LIGHTS,NECB-C-LIGHTING,ALL_ST=RELIGIOUS - FELLOWSHIP HALL_FL=STORY 7_SCH=C,2500.00,500.0,17249.856,6.900,34.501,0.000,0.500,0.200,0.300,1.000,General,862.493,15524.871
 Lights Internal Gains Nominal, ALL_ST=RELIGIOUS - PULPIT/CHOIR_FL=STORY 7_SCH=I SPACE FUNCTION RELIGIOUS - PULPIT/CHOIR LIGHTS,NECB-I-LIGHTING,ALL_ST=RELIGIOUS - PULPIT/CHOIR_FL=STORY 7_SCH=I,1875.00,375.0,34124.716,18.200,91.002,0.000,0.500,0.200,0.300,1.000,General,1706.236,30712.244
 Lights Internal Gains Nominal, ALL_ST=RETAIL - DRESSING/FITTING_FL=STORY 7_SCH=C SPACE FUNCTION RETAIL - DRESSING/FITTING LIGHTS,NECB-C-LIGHTING,ALL_ST=RETAIL - DRESSING/FITTING_FL=STORY 7_SCH=C,1875.00,62.6,15862.368,8.460,253.533,0.000,0.500,0.200,0.300,1.000,General,793.118,14276.131
 Lights Internal Gains Nominal, ALL_ST=RETAIL - MALL CONCOURSE_FL=STORY 6_SCH=C SPACE FUNCTION RETAIL - MALL CONCOURSE LIGHTS,NECB-C-LIGHTING,ALL_ST=RETAIL - MALL CONCOURSE_FL=STORY 6_SCH=C,1875.00,93.8,22124.816,11.800,235.752,0.000,0.500,0.200,0.300,1.000,General,1106.241,19912.334
 Lights Internal Gains Nominal, ALL_ST=RETAIL - SALES_FL=STORY 7_SCH=C SPACE FUNCTION RETAIL - SALES LIGHTS,NECB-C-LIGHTING,ALL_ST=RETAIL - SALES_FL=STORY 7_SCH=C,1875.00,62.6,33937.218,18.100,542.429,0.000,0.500,0.200,0.300,1.000,General,1696.861,30543.496
 Lights Internal Gains Nominal, ALL_ST=SALES AREA_FL=STORY 6_SCH=C SPACE FUNCTION SALES AREA LIGHTS,NECB-C-LIGHTING,ALL_ST=SALES AREA_FL=STORY 6_SCH=C,1875.00,62.6,33937.218,18.100,542.429,0.000,0.500,0.200,0.300,1.000,General,1696.861,30543.496
 Lights Internal Gains Nominal, ALL_ST=SPORTS ARENA - AUDIENCE_FL=STORY 8_SCH=B SPACE FUNCTION SPORTS ARENA - AUDIENCE LIGHTS,NECB-B-LIGHTING,ALL_ST=SPORTS ARENA - AUDIENCE_FL=STORY 8_SCH=B,1875.00,375.0,8624.928,4.600,23.001,0.000,0.500,0.200,0.300,1.000,General,862.493,7762.435
 Lights Internal Gains Nominal, ALL_ST=SPORTS ARENA - COURT C1_FL=STORY 6_SCH=B SPACE FUNCTION SPORTS ARENA - COURT C1 LIGHTS,NECB-B-LIGHTING,ALL_ST=SPORTS ARENA - COURT C1_FL=STORY 6_SCH=B,1875.00,375.0,60749.494,32.400,162.004,0.000,0.500,0.200,0.300,1.000,General,6074.949,54674.545
 Lights Internal Gains Nominal, ALL_ST=SPORTS ARENA - COURT C2_FL=STORY 5_SCH=B SPACE FUNCTION SPORTS ARENA - COURT C2 LIGHTS,NECB-B-LIGHTING,ALL_ST=SPORTS ARENA - COURT C2_FL=STORY 5_SCH=B,1875.00,375.0,38812.177,20.700,103.503,0.000,0.500,0.200,0.300,1.000,General,3881.218,34930.959
 Lights Internal Gains Nominal, ALL_ST=SPORTS ARENA - COURT C3_FL=STORY 5_SCH=B SPACE FUNCTION SPORTS ARENA - COURT C3 LIGHTS,NECB-B-LIGHTING,ALL_ST=SPORTS ARENA - COURT C3_FL=STORY 5_SCH=B,1875.00,375.0,24187.299,12.900,64.502,0.000,0.500,0.200,0.300,1.000,General,2418.730,21768.569
 Lights Internal Gains Nominal, ALL_ST=SPORTS ARENA - COURT C4_FL=STORY 2_SCH=B SPACE FUNCTION SPORTS ARENA - COURT C4 LIGHTS,NECB-B-LIGHTING,ALL_ST=SPORTS ARENA - COURT C4_FL=STORY 2_SCH=B,1875.00,375.0,14624.878,7.800,39.001,0.000,0.500,0.200,0.300,1.000,General,1462.488,13162.390
 Lights Internal Gains Nominal, ALL_ST=SPORTS ARENA - RING_FL=STORY 6_SCH=B SPACE FUNCTION SPORTS ARENA - RING LIGHTS,NECB-B-LIGHTING,ALL_ST=SPORTS ARENA - RING_FL=STORY 6_SCH=B,1875.00,375.0,53999.551,28.800,144.004,0.000,0.500,0.200,0.300,1.000,General,5399.955,48599.596
 Lights Internal Gains Nominal, WILD_ST=STAIRWAY-SCH-A_FL=STORY 4_SCH=A SPACE FUNCTION STAIRWAY-SCH-A LIGHTS,NECB-A-LIGHTING,WILD_ST=STAIRWAY-SCH-A_FL=STORY 4_SCH=A,2500.00,12.4,18499.846,7.400,1494.515,0.000,0.500,0.200,0.300,1.000,General,924.992,16649.861
 Lights Internal Gains Nominal, WILD_ST=STAIRWAY-SCH-B_FL=STORY 2_SCH=A SPACE FUNCTION STAIRWAY-SCH-A LIGHTS,NECB-A-LIGHTING,WILD_ST=STAIRWAY-SCH-B_FL=STORY 2_SCH=A,1875.00,9.3,13874.885,7.400,1494.515,0.000,0.500,0.200,0.300,1.000,General,693.744,12487.396
 Lights Internal Gains Nominal, WILD_ST=STAIRWAY-SCH-C_FL=STORY 1_SCH=A SPACE FUNCTION STAIRWAY-SCH-A LIGHTS,NECB-A-LIGHTING,WILD_ST=STAIRWAY-SCH-C_FL=STORY 1_SCH=A,1875.00,9.3,13874.885,7.400,1494.515,0.000,0.500,0.200,0.300,1.000,General,693.744,12487.396
 Lights Internal Gains Nominal, WILD_ST=STAIRWAY-SCH-D_FL=STORY 8_SCH=A SPACE FUNCTION STAIRWAY-SCH-A LIGHTS,NECB-A-LIGHTING,WILD_ST=STAIRWAY-SCH-D_FL=STORY 8_SCH=A,1875.00,9.3,13874.885,7.400,1494.515,0.000,0.500,0.200,0.300,1.000,General,693.744,12487.396
 Lights Internal Gains Nominal, WILD_ST=STAIRWAY-SCH-E_FL=STORY 2_SCH=A SPACE FUNCTION STAIRWAY-SCH-A LIGHTS,NECB-A-LIGHTING,WILD_ST=STAIRWAY-SCH-E_FL=STORY 2_SCH=A,2500.00,12.4,18499.846,7.400,1494.515,0.000,0.500,0.200,0.300,1.000,General,924.992,16649.861
 Lights Internal Gains Nominal, WILD_ST=STAIRWAY-SCH-F_FL=STORY 3_SCH=A SPACE FUNCTION STAIRWAY-SCH-A LIGHTS,NECB-A-LIGHTING,WILD_ST=STAIRWAY-SCH-F_FL=STORY 3_SCH=A,1875.00,9.3,13874.885,7.400,1494.515,0.000,0.500,0.200,0.300,1.000,General,693.744,12487.396
 Lights Internal Gains Nominal, WILD_ST=STAIRWAY-SCH-G_FL=STORY 1_SCH=A SPACE FUNCTION STAIRWAY-SCH-A LIGHTS,NECB-A-LIGHTING,WILD_ST=STAIRWAY-SCH-G_FL=STORY 1_SCH=A,2500.00,12.4,18499.846,7.400,1494.515,0.000,0.500,0.200,0.300,1.000,General,924.992,16649.861
 Lights Internal Gains Nominal, WILD_ST=STAIRWAY-SCH-H_FL=STORY 4_SCH=A SPACE FUNCTION STAIRWAY-SCH-A LIGHTS,NECB-A-LIGHTING,WILD_ST=STAIRWAY-SCH-H_FL=STORY 4_SCH=A,1875.00,9.3,13874.885,7.400,1494.515,0.000,0.500,0.200,0.300,1.000,General,693.744,12487.396
 Lights Internal Gains Nominal, WILD_ST=STAIRWAY-SCH-I_FL=STORY 3_SCH=A SPACE FUNCTION STAIRWAY-SCH-A LIGHTS,NECB-A-LIGHTING,WILD_ST=STAIRWAY-SCH-I_FL=STORY 3_SCH=A,1875.00,9.3,13874.885,7.400,1494.515,0.000,0.500,0.200,0.300,1.000,General,693.744,12487.396
 Lights Internal Gains Nominal, ALL_ST=STORAGE AREA_FL=STORY 2_SCH=E SPACE FUNCTION STORAGE AREA LIGHTS,NECB-E-LIGHTING,ALL_ST=STORAGE AREA_FL=STORY 2_SCH=E,1875.00,18.8,12749.894,6.800,679.285,0.000,0.500,0.200,0.300,1.000,General,637.495,11474.904
 Lights Internal Gains Nominal, ALL_ST=STORAGE AREA - OCCSENS_FL=STORY 3_SCH=E SPACE FUNCTION STORAGE AREA - OCCSENS LIGHTS,NECB-E-LIGHTING,ALL_ST=STORAGE AREA - OCCSENS_FL=STORY 3_SCH=E,1875.00,18.8,11474.905,6.120,611.357,0.000,0.500,0.200,0.300,1.000,General,573.745,10327.414
 Lights Internal Gains Nominal, ALL_ST=STORAGE AREA - REFRIGERATED_FL=STORY 3_SCH=E SPACE FUNCTION STORAGE AREA - REFRIGERATED LIGHTS,NECB-E-LIGHTING,ALL_ST=STORAGE AREA - REFRIGERATED_FL=STORY 3_SCH=E,1875.00,18.8,12749.894,6.800,679.285,0.000,0.500,0.200,0.300,1.000,General,637.495,11474.904
 Lights Internal Gains Nominal, ALL_ST=STORAGE AREA - REFRIGERATED - OCCSENS_FL=STORY 1_SCH=E SPACE FUNCTION STORAGE AREA - REFRIGERATED - OCCSENS LIGHTS,NECB-E-LIGHTING,ALL_ST=STORAGE AREA - REFRIGERATED - OCCSENS_FL=STORY 1_SCH=E,1875.00,18.8,11474.905,6.120,611.357,0.000,0.500,0.200,0.300,1.000,General,573.745,10327.414
 Lights Internal Gains Nominal, ALL_ST=TRANSP. BAGGAGE_FL=STORY 4_SCH=H SPACE FUNCTION TRANSP. BAGGAGE LIGHTS,NECB-H-LIGHTING,ALL_ST=TRANSP. BAGGAGE_FL=STORY 4_SCH=H,1875.00,93.8,15374.872,8.200,163.828,0.000,0.500,0.200,0.300,1.000,General,13837.385,13837.385
 Lights Internal Gains Nominal, ALL_ST=TRANSP. CONCOURSE_FL=STORY 6_SCH=H SPACE FUNCTION TRANSP. CONCOURSE LIGHTS,NECB-H-LIGHTING,ALL_ST=TRANSP. CONCOURSE_FL=STORY 6_SCH=H,2500.00,125.1,9749.919,3.900,77.918,0.000,0.500,0.200,0.300,1.000,General,8774.927,8774.927
 Lights Internal Gains Nominal, ALL_ST=TRANSP. COUNTER_FL=STORY 5_SCH=H SPACE FUNCTION TRANSP. COUNTER LIGHTS,NECB-H-LIGHTING,ALL_ST=TRANSP. COUNTER_FL=STORY 5_SCH=H,2500.00,250.0,28999.759,11.600,116.003,0.000,0.500,0.200,0.300,1.000,General,26099.783,26099.783
 Lights Internal Gains Nominal, ALL_ST=TRANSP. SEATING_FL=STORY 3_SCH=H SPACE FUNCTION TRANSP. SEATING LIGHTS,NECB-H-LIGHTING,ALL_ST=TRANSP. SEATING_FL=STORY 3_SCH=H,2500.00,250.0,14499.879,5.800,58.001,0.000,0.500,0.200,0.300,1.000,General,13049.891,13049.891
 Lights Internal Gains Nominal, ALL_ST=WAREHOUSE - FINE_FL=STORY 7_SCH=A SPACE FUNCTION WAREHOUSE - FINE LIGHTS,NECB-A-LIGHTING,ALL_ST=WAREHOUSE - FINE_FL=STORY 7_SCH=A,1875.00,37.5,19124.841,10.200,509.464,0.000,0.500,0.200,0.300,1.000,General,956.242,17212.357
 Lights Internal Gains Nominal, ALL_ST=WAREHOUSE - FINE - REFRIGERATED_FL=STORY 4_SCH=A SPACE FUNCTION WAREHOUSE - FINE - REFRIGERATED LIGHTS,NECB-A-LIGHTING,ALL_ST=WAREHOUSE - FINE - REFRIGERATED_FL=STORY 4_SCH=A,1875.00,37.5,19124.841,10.200,509.464,0.000,0.500,0.200,0.300,1.000,General,956.242,17212.357
 Lights Internal Gains Nominal, ALL_ST=WAREHOUSE - MED/BLK_FL=STORY 2_SCH=A SPACE FUNCTION WAREHOUSE - MED/BLK LIGHTS,NECB-A-LIGHTING,ALL_ST=WAREHOUSE - MED/BLK_FL=STORY 2_SCH=A,1875.00,18.8,11999.900,6.400,639.327,0.000,0.500,0.200,0.300,1.000,General,599.995,10799.910
 Lights Internal Gains Nominal, ALL_ST=WAREHOUSE - MED/BLK - REFRIGERATED_FL=STORY 1_SCH=A SPACE FUNCTION WAREHOUSE - MED/BLK - REFRIGERATED LIGHTS,NECB-A-LIGHTING,ALL_ST=WAREHOUSE - MED/BLK - REFRIGERATED_FL=STORY 1_SCH=A,1875.00,18.8,11999.900,6.400,639.327,0.000,0.500,0.200,0.300,1.000,General,599.995,10799.910
 Lights Internal Gains Nominal, ALL_ST=WAREHOUSE - MED/BLK2_FL=STORY 4_SCH=A SPACE FUNCTION WAREHOUSE - MED/BLK2 LIGHTS,NECB-A-LIGHTING,ALL_ST=WAREHOUSE - MED/BLK2_FL=STORY 4_SCH=A,1875.00,18.8,19124.841,10.200,1018.928,0.000,0.500,0.200,0.300,1.000,General,956.242,17212.357
 Lights Internal Gains Nominal, ALL_ST=WAREHOUSE - MED/BLK2 - REFRIGERATED_FL=STORY 5_SCH=A SPACE FUNCTION WAREHOUSE - MED/BLK2 - REFRIGERATED LIGHTS,NECB-A-LIGHTING,ALL_ST=WAREHOUSE - MED/BLK2 - REFRIGERATED_FL=STORY 5_SCH=A,1875.00,18.8,19124.841,10.200,1018.928,0.000,0.500,0.200,0.300,1.000,General,956.242,17212.357
 Lights Internal Gains Nominal, WET_ST=WASHROOM-SCH-A_FL=STORY 1_SCHA SPACE FUNCTION WASHROOM-SCH-A LIGHTS,NECB-A-LIGHTING,WET_ST=WASHROOM-SCH-A_FL=STORY 1_SCHA,1875.00,62.6,17718.603,9.450,283.202,0.000,0.500,0.200,0.300,1.000,General,885.930,15946.742
 Lights Internal Gains Nominal, WET_ST=WASHROOM-SCH-B_FL=STORY 5_SCHA SPACE FUNCTION WASHROOM-SCH-A LIGHTS,NECB-A-LIGHTING,WET_ST=WASHROOM-SCH-B_FL=STORY 5_SCHA,1875.00,62.6,17718.603,9.450,283.202,0.000,0.500,0.200,0.300,1.000,General,885.930,15946.742
! <ElectricEquipment Internal Gains Nominal>,Name,Schedule Name,Zone Name,Zone Floor Area {m2},# Zone Occupants,Equipment Level {W},Equipment/Floor Area {W/m2},Equipment per person {W/person},Fraction Latent,Fraction Radiant,Fraction Lost,Fraction Convected,End-Use SubCategory,Nominal Minimum Equipment Level {W},Nominal Maximum Equipment Level {W}
 ElectricEquipment Internal Gains Nominal, ALL_ST=PENITENTIARY - DINING_FL=STORY 8_SCH=B SPACE FUNCTION PENITENTIARY - DINING ELEC EQUIP,NECB-B-ELECTRIC-EQUIPMENT,ALL_ST=PENITENTIARY - DINING_FL=STORY 8_SCH=B,1875.00,187.5,1874.984,1.000,10.000,0.000,0.500,0.000,0.500,General,187.498,1687.486
 ElectricEquipment Internal Gains Nominal, ALL_ST=POST OFFICE SORTING_FL=STORY 8_SCH=A SPACE FUNCTION POST OFFICE SORTING ELEC EQUIP,NECB-A-ELECTRIC-EQUIPMENT,ALL_ST=POST OFFICE SORTING_FL=STORY 8_SCH=A,1875.00,93.8,14062.383,7.500,149.842,0.000,0.500,0.000,0.500,General,2812.477,12656.145
 ElectricEquipment Internal Gains Nominal, ALL_ST=RELIGIOUS - AUDIENCE_FL=STORY 8_SCH=I SPACE FUNCTION RELIGIOUS - AUDIENCE ELEC EQUIP,NECB-I-ELECTRIC-EQUIPMENT,ALL_ST=RELIGIOUS - AUDIENCE_FL=STORY 8_SCH=I,2500.00,500.0,2499.979,1.000,5.000,0.000,0.500,0.000,0.500,General,249.998,1999.983
 ElectricEquipment Internal Gains Nominal, ALL_ST=RELIGIOUS - FELLOWSHIP HALL_FL=STORY 7_SCH=C SPACE FUNCTION RELIGIOUS - FELLOWSHIP HALL ELEC EQUIP,NECB-C-ELECTRIC-EQUIPMENT,ALL_ST=RELIGIOUS - FELLOWSHIP HALL_FL=STORY 7_SCH=C,2500.00,500.0,2499.979,1.000,5.000,0.000,0.500,0.000,0.500,General,124.999,2249.981
 ElectricEquipment Internal Gains Nominal, ALL_ST=RELIGIOUS - PULPIT/CHOIR_FL=STORY 7_SCH=I SPACE FUNCTION RELIGIOUS - PULPIT/CHOIR ELEC EQUIP,NECB-I-ELECTRIC-EQUIPMENT,ALL_ST=RELIGIOUS - PULPIT/CHOIR_FL=STORY 7_SCH=I,1875.00,375.0,1874.984,1.000,5.000,0.000,0.500,0.000,0.500,General,187.498,1499.988
 ElectricEquipment Internal Gains Nominal, ALL_ST=RETAIL - DRESSING/FITTING_FL=STORY 7_SCH=C SPACE FUNCTION RETAIL - DRESSING/FITTING ELEC EQUIP,NECB-C-ELECTRIC-EQUIPMENT,ALL_ST=RETAIL - DRESSING/FITTING_FL=STORY 7_SCH=C,1875.00,62.6,4687.461,2.500,74.921,0.000,0.500,0.000,0.500,General,234.373,4218.715
 ElectricEquipment Internal Gains Nominal, ALL_ST=RETAIL - MALL CONCOURSE_FL=STORY 6_SCH=C SPACE FUNCTION RETAIL - MALL CONCOURSE ELEC EQUIP,NECB-C-ELECTRIC-EQUIPMENT,ALL_ST=RETAIL - MALL CONCOURSE_FL=STORY 6_SCH=C,1875.00,93.8,1874.984,1.000,19.979,0.000,0.500,0.000,0.500,General,93.749,1687.486
 ElectricEquipment Internal Gains Nominal, ALL_ST=RETAIL - SALES_FL=STORY 7_SCH=C SPACE FUNCTION RETAIL - SALES ELEC EQUIP,NECB-C-ELECTRIC-EQUIPMENT,ALL_ST=RETAIL - SALES_FL=STORY 7_SCH=C,1875.00,62.6,4687.461,2.500,74.921,0.000,0.500,0.000,0.500,General,234.373,4218.715
 ElectricEquipment Internal Gains Nominal, ALL_ST=SALES AREA_FL=STORY 6_SCH=C SPACE FUNCTION SALES AREA ELEC EQUIP,NECB-C-ELECTRIC-EQUIPMENT,ALL_ST=SALES AREA_FL=STORY 6_SCH=C,1875.00,62.6,4687.461,2.500,74.921,0.000,0.500,0.000,0.500,General,234.373,4218.715
 ElectricEquipment Internal Gains Nominal, ALL_ST=SPORTS ARENA - COURT C1_FL=STORY 6_SCH=B SPACE FUNCTION SPORTS ARENA - COURT C1 ELEC EQUIP,NECB-B-ELECTRIC-EQUIPMENT,ALL_ST=SPORTS ARENA - COURT C1_FL=STORY 6_SCH=B,1875.00,375.0,2812.477,1.500,7.500,0.000,0.500,0.000,0.500,General,281.248,2531.229
 ElectricEquipment Internal Gains Nominal, ALL_ST=SPORTS ARENA - COURT C2_FL=STORY 5_SCH=B SPACE FUNCTION SPORTS ARENA - COURT C2 ELEC EQUIP,NECB-B-ELECTRIC-EQUIPMENT,ALL_ST=SPORTS ARENA - COURT C2_FL=STORY 5_SCH=B,1875.00,375.0,2812.477,1.500,7.500,0.000,0.500,0.000,0.500,General,281.248,2531.229
 ElectricEquipment Internal Gains Nominal, ALL_ST=SPORTS ARENA - COURT C3_FL=STORY 5_SCH=B SPACE FUNCTION SPORTS ARENA - COURT C3 ELEC EQUIP,NECB-B-ELECTRIC-EQUIPMENT,ALL_ST=SPORTS ARENA - COURT C3_FL=STORY 5_SCH=B,1875.00,375.0,2812.477,1.500,7.500,0.000,0.500,0.000,0.500,General,281.248,2531.229
 ElectricEquipment Internal Gains Nominal, ALL_ST=SPORTS ARENA - COURT C4_FL=STORY 2_SCH=B SPACE FUNCTION SPORTS ARENA - COURT C4 ELEC EQUIP,NECB-B-ELECTRIC-EQUIPMENT,ALL_ST=SPORTS ARENA - COURT C4_FL=STORY 2_SCH=B,1875.00,375.0,2812.477,1.500,7.500,0.000,0.500,0.000,0.500,General,281.248,2531.229
 ElectricEquipment Internal Gains Nominal, ALL_ST=SPORTS ARENA - RING_FL=STORY 6_SCH=B SPACE FUNCTION SPORTS ARENA - RING ELEC EQUIP,NECB-B-ELECTRIC-EQUIPMENT,ALL_ST=SPORTS ARENA - RING_FL=STORY 6_SCH=B,1875.00,375.0,2812.477,1.500,7.500,0.000,0.500,0.000,0.500,General,281.248,2531.229
 ElectricEquipment Internal Gains Nominal, ALL_ST=STORAGE AREA_FL=STORY 2_SCH=E SPACE FUNCTION STORAGE AREA ELEC EQUIP,NECB-E-ELECTRIC-EQUIPMENT,ALL_ST=STORAGE AREA_FL=STORY 2_SCH=E,1875.00,18.8,1874.984,1.000,99.895,0.000,0.500,0.000,0.500,General,93.749,1687.486
 ElectricEquipment Internal Gains Nominal, ALL_ST=STORAGE AREA - OCCSENS_FL=STORY 3_SCH=E SPACE FUNCTION STORAGE AREA - OCCSENS ELEC EQUIP,NECB-E-ELECTRIC-EQUIPMENT,ALL_ST=STORAGE AREA - OCCSENS_FL=STORY 3_SCH=E,1875.00,18.8,1874.984,1.000,99.895,0.000,0.500,0.000,0.500,General,93.749,1687.486
 ElectricEquipment Internal Gains Nominal, ALL_ST=STORAGE AREA - REFRIGERATED_FL=STORY 3_SCH=E SPACE FUNCTION STORAGE AREA - REFRIGERATED ELEC EQUIP,NECB-E-ELECTRIC-EQUIPMENT,ALL_ST=STORAGE AREA - REFRIGERATED_FL=STORY 3_SCH=E,1875.00,18.8,1874.984,1.000,99.895,0.000,0.500,0.000,0.500,General,93.749,1687.486
 ElectricEquipment Internal Gains Nominal, ALL_ST=STORAGE AREA - REFRIGERATED - OCCSENS_FL=STORY 1_SCH=E SPACE FUNCTION STORAGE AREA - REFRIGERATED - OCCSENS ELEC EQUIP,NECB-E-ELECTRIC-EQUIPMENT,ALL_ST=STORAGE AREA - REFRIGERATED - OCCSENS_FL=STORY 1_SCH=E,1875.00,18.8,1874.984,1.000,99.895,0.000,0.500,0.000,0.500,General,93.749,1687.486
 ElectricEquipment Internal Gains Nominal, ALL_ST=TRANSP. BAGGAGE_FL=STORY 4_SCH=H SPACE FUNCTION TRANSP. BAGGAGE ELEC EQUIP,NECB-H-ELECTRIC-EQUIPMENT,ALL_ST=TRANSP. BAGGAGE_FL=STORY 4_SCH=H,1875.00,93.8,4687.461,2.500,49.947,0.000,0.500,0.000,0.500,General,4218.715,4218.715
 ElectricEquipment Internal Gains Nominal, ALL_ST=TRANSP. COUNTER_FL=STORY 5_SCH=H SPACE FUNCTION TRANSP. COUNTER ELEC EQUIP,NECB-H-ELECTRIC-EQUIPMENT,ALL_ST=TRANSP. COUNTER_FL=STORY 5_SCH=H,2500.00,250.0,6249.948,2.500,25.001,0.000,0.500,0.000,0.500,General,5624.953,5624.953
 ElectricEquipment Internal Gains Nominal, ALL_ST=WAREHOUSE - FINE_FL=STORY 7_SCH=A SPACE FUNCTION WAREHOUSE - FINE ELEC EQUIP,NECB-A-ELECTRIC-EQUIPMENT,ALL_ST=WAREHOUSE - FINE_FL=STORY 7_SCH=A,1875.00,37.5,1874.984,1.000,49.947,0.000,0.500,0.000,0.500,General,374.997,1687.486
 ElectricEquipment Internal Gains Nominal, ALL_ST=WAREHOUSE - FINE - REFRIGERATED_FL=STORY 4_SCH=A SPACE FUNCTION WAREHOUSE - FINE - REFRIGERATED ELEC EQUIP,NECB-A-ELECTRIC-EQUIPMENT,ALL_ST=WAREHOUSE - FINE - REFRIGERATED_FL=STORY 4_SCH=A,1875.00,37.5,1874.984,1.000,49.947,0.000,0.500,0.000,0.500,General,374.997,1687.486
 ElectricEquipment Internal Gains Nominal, ALL_ST=WAREHOUSE - MED/BLK_FL=STORY 2_SCH=A SPACE FUNCTION WAREHOUSE - MED/BLK ELEC EQUIP,NECB-A-ELECTRIC-EQUIPMENT,ALL_ST=WAREHOUSE - MED/BLK_FL=STORY 2_SCH=A,1875.00,18.8,1874.984,1.000,99.895,0.000,0.500,0.000,0.500,General,374.997,1687.486
 ElectricEquipment Internal Gains Nominal, ALL_ST=WAREHOUSE - MED/BLK - REFRIGERATED_FL=STORY 1_SCH=A SPACE FUNCTION WAREHOUSE - MED/BLK - REFRIGERATED ELEC EQUIP,NECB-A-ELECTRIC-EQUIPMENT,ALL_ST=WAREHOUSE - MED/BLK - REFRIGERATED_FL=STORY 1_SCH=A,1875.00,18.8,1874.984,1.000,99.895,0.000,0.500,0.000,0.500,General,374.997,1687.486
 ElectricEquipment Internal Gains Nominal, ALL_ST=WAREHOUSE - MED/BLK2_FL=STORY 4_SCH=A SPACE FUNCTION WAREHOUSE - MED/BLK2 ELEC EQUIP,NECB-A-ELECTRIC-EQUIPMENT,ALL_ST=WAREHOUSE - MED/BLK2_FL=STORY 4_SCH=A,1875.00,18.8,1874.984,1.000,99.895,0.000,0.500,0.000,0.500,General,374.997,1687.486
 ElectricEquipment Internal Gains Nominal, ALL_ST=WAREHOUSE - MED/BLK2 - REFRIGERATED_FL=STORY 5_SCH=A SPACE FUNCTION WAREHOUSE - MED/BLK2 - REFRIGERATED ELEC EQUIP,NECB-A-ELECTRIC-EQUIPMENT,ALL_ST=WAREHOUSE - MED/BLK2 - REFRIGERATED_FL=STORY 5_SCH=A,1875.00,18.8,1874.984,1.000,99.895,0.000,0.500,0.000,0.500,General,374.997,1687.486
 ElectricEquipment Internal Gains Nominal, WET_ST=WASHROOM-SCH-A_FL=STORY 1_SCHA SPACE FUNCTION WASHROOM-SCH-A ELEC EQUIP,NECB-A-ELECTRIC-EQUIPMENT,WET_ST=WASHROOM-SCH-A_FL=STORY 1_SCHA,1875.00,62.6,1874.984,1.000,29.968,0.000,0.500,0.000,0.500,General,374.997,1687.486
 ElectricEquipment Internal Gains Nominal, WET_ST=WASHROOM-SCH-B_FL=STORY 5_SCHA SPACE FUNCTION WASHROOM-SCH-A ELEC EQUIP,NECB-A-ELECTRIC-EQUIPMENT,WET_ST=WASHROOM-SCH-B_FL=STORY 5_SCHA,1875.00,62.6,1874.984,1.000,29.968,0.000,0.500,0.000,0.500,General,374.997,1687.486
! <Shadowing/Sun Position Calculations Annual Simulations>, Calculation Method, Value {days}, Allowable Number Figures in Shadow Overlap {}, Polygon Clipping Algorithm, Sky Diffuse Modeling Algorithm, External Shading Calculation Method, Output External Shading Calculation Results, Disable Self-Shading Within Shading Zone Groups, Disable Self-Shading From Shading Zone Groups to Other Zones
Shadowing/Sun Position Calculations Annual Simulations,AverageOverDaysInFrequency,20,15000,SutherlandHodgman,SimpleSkyDiffuseModeling,InternalCalculation,No,No,No
! <Water Heater Information>,Type,Name,Volume {m3},Maximum Capacity {W},Standard Rated Recovery Efficiency, Standard Rated Energy Factor
! <ZoneInfiltration Airflow Stats Nominal>,Name,Schedule Name,Zone Name, Zone Floor Area {m2}, # Zone Occupants,Design Volume Flow Rate {m3/s},Volume Flow Rate/Floor Area {m3/s/m2},Volume Flow Rate/Exterior Surface Area {m3/s/m2},ACH - Air Changes per Hour,Equation A - Constant Term Coefficient {},Equation B - Temperature Term Coefficient {1/C},Equation C - Velocity Term Coefficient {s/m}, Equation D - Velocity Squared Term Coefficient {s2/m2}
 ZoneInfiltration Airflow Stats Nominal, PENITENTIARY - DINING-SPACE FUNCTION INFILTRATION,ALWAYS ON DISCRETE,ALL_ST=PENITENTIARY - DINING_FL=STORY 8_SCH=B,1875.00,187.5,0.564,3.007E-004,2.500E-004,0.285,0.000,0.000,0.224,0.000
 ZoneInfiltration Airflow Stats Nominal, POST OFFICE SORTING-SPACE FUNCTION INFILTRATION,ALWAYS ON DISCRETE,ALL_ST=POST OFFICE SORTING_FL=STORY 8_SCH=A,1875.00,93.8,0.564,3.007E-004,2.500E-004,0.285,0.000,0.000,0.224,0.000
 ZoneInfiltration Airflow Stats Nominal, RELIGIOUS - AUDIENCE-SPACE FUNCTION INFILTRATION,ALWAYS ON DISCRETE,ALL_ST=RELIGIOUS - AUDIENCE_FL=STORY 8_SCH=I,2500.00,500.0,0.625,2.500E-004,2.500E-004,0.237,0.000,0.000,0.224,0.000
 ZoneInfiltration Airflow Stats Nominal, RELIGIOUS - PULPIT/CHOIR-SPACE FUNCTION INFILTRATION,ALWAYS ON DISCRETE,ALL_ST=RELIGIOUS - PULPIT/CHOIR_FL=STORY 7_SCH=I,1875.00,375.0,9.500E-002,5.067E-005,2.500E-004,4.800E-002,0.000,0.000,0.224,0.000
 ZoneInfiltration Airflow Stats Nominal, RETAIL - DRESSING/FITTING-SPACE FUNCTION INFILTRATION,ALWAYS ON DISCRETE,ALL_ST=RETAIL - DRESSING/FITTING_FL=STORY 7_SCH=C,1875.00,62.6,9.500E-002,5.067E-005,2.500E-004,4.800E-002,0.000,0.000,0.224,0.000
 ZoneInfiltration Airflow Stats Nominal, RETAIL - MALL CONCOURSE-SPACE FUNCTION INFILTRATION,ALWAYS ON DISCRETE,ALL_ST=RETAIL - MALL CONCOURSE_FL=STORY 6_SCH=C,1875.00,93.8,9.500E-002,5.067E-005,2.500E-004,4.800E-002,0.000,0.000,0.224,0.000
 ZoneInfiltration Airflow Stats Nominal, RETAIL - SALES-SPACE FUNCTION INFILTRATION,ALWAYS ON DISCRETE,ALL_ST=RETAIL - SALES_FL=STORY 7_SCH=C,1875.00,62.6,9.500E-002,5.067E-005,2.500E-004,4.800E-002,0.000,0.000,0.224,0.000
 ZoneInfiltration Airflow Stats Nominal, SALES AREA-SPACE FUNCTION INFILTRATION,ALWAYS ON DISCRETE,ALL_ST=SALES AREA_FL=STORY 6_SCH=C,1875.00,62.6,9.500E-002,5.067E-005,2.500E-004,4.800E-002,0.000,0.000,0.224,0.000
 ZoneInfiltration Airflow Stats Nominal, SPORTS ARENA - AUDIENCE-SPACE FUNCTION INFILTRATION,ALWAYS ON DISCRETE,ALL_ST=SPORTS ARENA - AUDIENCE_FL=STORY 8_SCH=B,1875.00,375.0,0.564,3.007E-004,2.500E-004,0.285,0.000,0.000,0.224,0.000
 ZoneInfiltration Airflow Stats Nominal, SPORTS ARENA - COURT C1-SPACE FUNCTION INFILTRATION,ALWAYS ON DISCRETE,ALL_ST=SPORTS ARENA - COURT C1_FL=STORY 6_SCH=B,1875.00,375.0,9.500E-002,5.067E-005,2.500E-004,4.800E-002,0.000,0.000,0.224,0.000
 ZoneInfiltration Airflow Stats Nominal, SPORTS ARENA - COURT C2-SPACE FUNCTION INFILTRATION,ALWAYS ON DISCRETE,ALL_ST=SPORTS ARENA - COURT C2_FL=STORY 5_SCH=B,1875.00,375.0,9.500E-002,5.067E-005,2.500E-004,4.800E-002,0.000,0.000,0.224,0.000
 ZoneInfiltration Airflow Stats Nominal, SPORTS ARENA - COURT C3-SPACE FUNCTION INFILTRATION,ALWAYS ON DISCRETE,ALL_ST=SPORTS ARENA - COURT C3_FL=STORY 5_SCH=B,1875.00,375.0,9.500E-002,5.067E-005,2.500E-004,4.800E-002,0.000,0.000,0.224,0.000
 ZoneInfiltration Airflow Stats Nominal, SPORTS ARENA - COURT C4-SPACE FUNCTION INFILTRATION,ALWAYS ON DISCRETE,ALL_ST=SPORTS ARENA - COURT C4_FL=STORY 2_SCH=B,1875.00,375.0,9.500E-002,5.067E-005,2.500E-004,4.800E-002,0.000,0.000,0.224,0.000
 ZoneInfiltration Airflow Stats Nominal, SPORTS ARENA - RING-SPACE FUNCTION INFILTRATION,ALWAYS ON DISCRETE,ALL_ST=SPORTS ARENA - RING_FL=STORY 6_SCH=B,1875.00,375.0,9.500E-002,5.067E-005,2.500E-004,4.800E-002,0.000,0.000,0.224,0.000
 ZoneInfiltration Airflow Stats Nominal, STORAGE AREA - OCCSENS-SPACE FUNCTION INFILTRATION,ALWAYS ON DISCRETE,ALL_ST=STORAGE AREA - OCCSENS_FL=STORY 3_SCH=E,1875.00,18.8,9.500E-002,5.067E-005,2.500E-004,4.800E-002,0.000,0.000,0.224,0.000
 ZoneInfiltration Airflow Stats Nominal, STORAGE AREA - REFRIGERATED-SPACE FUNCTION INFILTRATION,ALWAYS ON DISCRETE,ALL_ST=STORAGE AREA - REFRIGERATED_FL=STORY 3_SCH=E,1875.00,18.8,9.500E-002,5.067E-005,2.500E-004,4.800E-002,0.000,0.000,0.224,0.000
 ZoneInfiltration Airflow Stats Nominal, STORAGE AREA-SPACE FUNCTION INFILTRATION,ALWAYS ON DISCRETE,ALL_ST=STORAGE AREA_FL=STORY 2_SCH=E,1875.00,18.8,9.500E-002,5.067E-005,2.500E-004,4.800E-002,0.000,0.000,0.224,0.000
 ZoneInfiltration Airflow Stats Nominal, TRANSP. BAGGAGE-SPACE FUNCTION INFILTRATION,ALWAYS ON DISCRETE,ALL_ST=TRANSP. BAGGAGE_FL=STORY 4_SCH=H,1875.00,93.8,9.500E-002,5.067E-005,2.500E-004,4.800E-002,0.000,0.000,0.224,0.000
 ZoneInfiltration Airflow Stats Nominal, WAREHOUSE - FINE - REFRIGERATED-SPACE FUNCTION INFILTRATION,ALWAYS ON DISCRETE,ALL_ST=WAREHOUSE - FINE - REFRIGERATED_FL=STORY 4_SCH=A,1875.00,37.5,9.500E-002,5.067E-005,2.500E-004,4.800E-002,0.000,0.000,0.224,0.000
 ZoneInfiltration Airflow Stats Nominal, WAREHOUSE - FINE-SPACE FUNCTION INFILTRATION,ALWAYS ON DISCRETE,ALL_ST=WAREHOUSE - FINE_FL=STORY 7_SCH=A,1875.00,37.5,9.500E-002,5.067E-005,2.500E-004,4.800E-002,0.000,0.000,0.224,0.000
 ZoneInfiltration Airflow Stats Nominal, WAREHOUSE - MED/BLK2 - REFRIGERATED-SPACE FUNCTION INFILTRATION,ALWAYS ON DISCRETE,ALL_ST=WAREHOUSE - MED/BLK2 - REFRIGERATED_FL=STORY 5_SCH=A,1875.00,18.8,9.500E-002,5.067E-005,2.500E-004,4.800E-002,0.000,0.000,0.224,0.000
 ZoneInfiltration Airflow Stats Nominal, WAREHOUSE - MED/BLK2-SPACE FUNCTION INFILTRATION,ALWAYS ON DISCRETE,ALL_ST=WAREHOUSE - MED/BLK2_FL=STORY 4_SCH=A,1875.00,18.8,9.500E-002,5.067E-005,2.500E-004,4.800E-002,0.000,0.000,0.224,0.000
 ZoneInfiltration Airflow Stats Nominal, WAREHOUSE - MED/BLK-SPACE FUNCTION INFILTRATION,ALWAYS ON DISCRETE,ALL_ST=WAREHOUSE - MED/BLK_FL=STORY 2_SCH=A,1875.00,18.8,9.500E-002,5.067E-005,2.500E-004,4.800E-002,0.000,0.000,0.224,0.000
 ZoneInfiltration Airflow Stats Nominal, WASHROOM-SCH-B-SPACE FUNCTION INFILTRATION,ALWAYS ON DISCRETE,WET_ST=WASHROOM-SCH-B_FL=STORY 5_SCHA,1875.00,62.6,9.500E-002,5.067E-005,2.500E-004,4.800E-002,0.000,0.000,0.224,0.000
 ZoneInfiltration Airflow Stats Nominal, STAIRWAY-SCH-B-SPACE FUNCTION INFILTRATION,ALWAYS ON DISCRETE,WILD_ST=STAIRWAY-SCH-B_FL=STORY 2_SCH=A,1875.00,9.3,9.500E-002,5.067E-005,2.500E-004,4.800E-002,0.000,0.000,0.224,0.000
 ZoneInfiltration Airflow Stats Nominal, STAIRWAY-SCH-D-SPACE FUNCTION INFILTRATION,ALWAYS ON DISCRETE,WILD_ST=STAIRWAY-SCH-D_FL=STORY 8_SCH=A,1875.00,9.3,0.564,3.007E-004,2.500E-004,0.285,0.000,0.000,0.224,0.000
 ZoneInfiltration Airflow Stats Nominal, STAIRWAY-SCH-F-SPACE FUNCTION INFILTRATION,ALWAYS ON DISCRETE,WILD_ST=STAIRWAY-SCH-F_FL=STORY 3_SCH=A,1875.00,9.3,9.500E-002,5.067E-005,2.500E-004,4.800E-002,0.000,0.000,0.224,0.000
 ZoneInfiltration Airflow Stats Nominal, STAIRWAY-SCH-H-SPACE FUNCTION INFILTRATION,ALWAYS ON DISCRETE,WILD_ST=STAIRWAY-SCH-H_FL=STORY 4_SCH=A,1875.00,9.3,9.500E-002,5.067E-005,2.500E-004,4.800E-002,0.000,0.000,0.224,0.000
 ZoneInfiltration Airflow Stats Nominal, STAIRWAY-SCH-I-SPACE FUNCTION INFILTRATION,ALWAYS ON DISCRETE,WILD_ST=STAIRWAY-SCH-I_FL=STORY 3_SCH=A,1875.00,9.3,9.500E-002,5.067E-005,2.500E-004,4.800E-002,0.000,0.000,0.224,0.000
! <AirFlow Model>, Simple
 AirFlow Model, Simple
! <RoomAir Model>, Zone Name, Mixing/Mundt/UCSDDV/UCSDCV/UCSDUFI/UCSDUFE/User Defined
RoomAir Model,ALL_ST=PENITENTIARY - DINING_FL=STORY 8_SCH=B,Mixing/Well-Stirred
RoomAir Model,ALL_ST=POST OFFICE SORTING_FL=STORY 8_SCH=A,Mixing/Well-Stirred
RoomAir Model,ALL_ST=RELIGIOUS - AUDIENCE_FL=STORY 8_SCH=I,Mixing/Well-Stirred
RoomAir Model,ALL_ST=RELIGIOUS - FELLOWSHIP HALL_FL=STORY 7_SCH=C,Mixing/Well-Stirred
RoomAir Model,ALL_ST=RELIGIOUS - PULPIT/CHOIR_FL=STORY 7_SCH=I,Mixing/Well-Stirred
RoomAir Model,ALL_ST=RETAIL - DRESSING/FITTING_FL=STORY 7_SCH=C,Mixing/Well-Stirred
RoomAir Model,ALL_ST=RETAIL - MALL CONCOURSE_FL=STORY 6_SCH=C,Mixing/Well-Stirred
RoomAir Model,ALL_ST=RETAIL - SALES_FL=STORY 7_SCH=C,Mixing/Well-Stirred
RoomAir Model,ALL_ST=SALES AREA_FL=STORY 6_SCH=C,Mixing/Well-Stirred
RoomAir Model,ALL_ST=SPORTS ARENA - AUDIENCE_FL=STORY 8_SCH=B,Mixing/Well-Stirred
RoomAir Model,ALL_ST=SPORTS ARENA - COURT C1_FL=STORY 6_SCH=B,Mixing/Well-Stirred
RoomAir Model,ALL_ST=SPORTS ARENA - COURT C2_FL=STORY 5_SCH=B,Mixing/Well-Stirred
RoomAir Model,ALL_ST=SPORTS ARENA - COURT C3_FL=STORY 5_SCH=B,Mixing/Well-Stirred
RoomAir Model,ALL_ST=SPORTS ARENA - COURT C4_FL=STORY 2_SCH=B,Mixing/Well-Stirred
RoomAir Model,ALL_ST=SPORTS ARENA - RING_FL=STORY 6_SCH=B,Mixing/Well-Stirred
RoomAir Model,ALL_ST=STORAGE AREA - OCCSENS_FL=STORY 3_SCH=E,Mixing/Well-Stirred
RoomAir Model,ALL_ST=STORAGE AREA - REFRIGERATED - OCCSENS_FL=STORY 1_SCH=E,Mixing/Well-Stirred
RoomAir Model,ALL_ST=STORAGE AREA - REFRIGERATED_FL=STORY 3_SCH=E,Mixing/Well-Stirred
RoomAir Model,ALL_ST=STORAGE AREA_FL=STORY 2_SCH=E,Mixing/Well-Stirred
RoomAir Model,ALL_ST=TRANSP. BAGGAGE_FL=STORY 4_SCH=H,Mixing/Well-Stirred
RoomAir Model,ALL_ST=TRANSP. CONCOURSE_FL=STORY 6_SCH=H,Mixing/Well-Stirred
RoomAir Model,ALL_ST=TRANSP. COUNTER_FL=STORY 5_SCH=H,Mixing/Well-Stirred
RoomAir Model,ALL_ST=TRANSP. SEATING_FL=STORY 3_SCH=H,Mixing/Well-Stirred
RoomAir Model,ALL_ST=WAREHOUSE - FINE - REFRIGERATED_FL=STORY 4_SCH=A,Mixing/Well-Stirred
RoomAir Model,ALL_ST=WAREHOUSE - FINE_FL=STORY 7_SCH=A,Mixing/Well-Stirred
RoomAir Model,ALL_ST=WAREHOUSE - MED/BLK - REFRIGERATED_FL=STORY 1_SCH=A,Mixing/Well-Stirred
RoomAir Model,ALL_ST=WAREHOUSE - MED/BLK2 - REFRIGERATED_FL=STORY 5_SCH=A,Mixing/Well-Stirred
RoomAir Model,ALL_ST=WAREHOUSE - MED/BLK2_FL=STORY 4_SCH=A,Mixing/Well-Stirred
RoomAir Model,ALL_ST=WAREHOUSE - MED/BLK_FL=STORY 2_SCH=A,Mixing/Well-Stirred
RoomAir Model,WET_ST=WASHROOM-SCH-A_FL=STORY 1_SCHA,Mixing/Well-Stirred
RoomAir Model,WET_ST=WASHROOM-SCH-B_FL=STORY 5_SCHA,Mixing/Well-Stirred
RoomAir Model,WILD_ST=STAIRWAY-SCH-A_FL=STORY 4_SCH=A,Mixing/Well-Stirred
RoomAir Model,WILD_ST=STAIRWAY-SCH-B_FL=STORY 2_SCH=A,Mixing/Well-Stirred
RoomAir Model,WILD_ST=STAIRWAY-SCH-C_FL=STORY 1_SCH=A,Mixing/Well-Stirred
RoomAir Model,WILD_ST=STAIRWAY-SCH-D_FL=STORY 8_SCH=A,Mixing/Well-Stirred
RoomAir Model,WILD_ST=STAIRWAY-SCH-E_FL=STORY 2_SCH=A,Mixing/Well-Stirred
RoomAir Model,WILD_ST=STAIRWAY-SCH-F_FL=STORY 3_SCH=A,Mixing/Well-Stirred
RoomAir Model,WILD_ST=STAIRWAY-SCH-G_FL=STORY 1_SCH=A,Mixing/Well-Stirred
RoomAir Model,WILD_ST=STAIRWAY-SCH-H_FL=STORY 4_SCH=A,Mixing/Well-Stirred
RoomAir Model,WILD_ST=STAIRWAY-SCH-I_FL=STORY 3_SCH=A,Mixing/Well-Stirred
! <AirflowNetwork Model:Control>, No Multizone or Distribution/Multizone with Distribution/Multizone without Distribution/Multizone with Distribution only during Fan Operation
AirflowNetwork Model:Control,NoMultizoneOrDistribution
! <Zone Volume Capacitance Multiplier>, Sensible Heat Capacity Multiplier, Moisture Capacity Multiplier, Carbon Dioxide Capacity Multiplier, Generic Contaminant Capacity Multiplier
Zone Volume Capacitance Multiplier,   1.000 ,   1.000,   1.000,   1.000
! <Load Timesteps in Zone Design Calculation Averaging Window>, Value
 Load Timesteps in Zone Design Calculation Averaging Window,    6
! <Heating Sizing Factor Information>, Sizing Factor ID, Value
 Heating Sizing Factor Information, Global,   1.3000    
 Heating Sizing Factor Information, Zone ALL_ST=PENITENTIARY - DINING_FL=STORY 8_SCH=B,   1.3000    
 Heating Sizing Factor Information, Zone ALL_ST=POST OFFICE SORTING_FL=STORY 8_SCH=A,   1.3000    
 Heating Sizing Factor Information, Zone ALL_ST=RELIGIOUS - AUDIENCE_FL=STORY 8_SCH=I,   1.3000    
 Heating Sizing Factor Information, Zone ALL_ST=RELIGIOUS - FELLOWSHIP HALL_FL=STORY 7_SCH=C,   1.3000    
 Heating Sizing Factor Information, Zone ALL_ST=RELIGIOUS - PULPIT/CHOIR_FL=STORY 7_SCH=I,   1.3000    
 Heating Sizing Factor Information, Zone ALL_ST=RETAIL - DRESSING/FITTING_FL=STORY 7_SCH=C,   1.3000    
 Heating Sizing Factor Information, Zone ALL_ST=RETAIL - MALL CONCOURSE_FL=STORY 6_SCH=C,   1.3000    
 Heating Sizing Factor Information, Zone ALL_ST=RETAIL - SALES_FL=STORY 7_SCH=C,   1.3000    
 Heating Sizing Factor Information, Zone ALL_ST=SALES AREA_FL=STORY 6_SCH=C,   1.3000    
 Heating Sizing Factor Information, Zone ALL_ST=SPORTS ARENA - AUDIENCE_FL=STORY 8_SCH=B,   1.3000    
 Heating Sizing Factor Information, Zone ALL_ST=SPORTS ARENA - COURT C1_FL=STORY 6_SCH=B,   1.3000    
 Heating Sizing Factor Information, Zone ALL_ST=SPORTS ARENA - COURT C2_FL=STORY 5_SCH=B,   1.3000    
 Heating Sizing Factor Information, Zone ALL_ST=SPORTS ARENA - COURT C3_FL=STORY 5_SCH=B,   1.3000    
 Heating Sizing Factor Information, Zone ALL_ST=SPORTS ARENA - COURT C4_FL=STORY 2_SCH=B,   1.3000    
 Heating Sizing Factor Information, Zone ALL_ST=SPORTS ARENA - RING_FL=STORY 6_SCH=B,   1.3000    
 Heating Sizing Factor Information, Zone ALL_ST=STORAGE AREA - OCCSENS_FL=STORY 3_SCH=E,   1.3000    
 Heating Sizing Factor Information, Zone ALL_ST=STORAGE AREA - REFRIGERATED - OCCSENS_FL=STORY 1_SCH=E,   1.3000    
 Heating Sizing Factor Information, Zone ALL_ST=STORAGE AREA - REFRIGERATED_FL=STORY 3_SCH=E,   1.3000    
 Heating Sizing Factor Information, Zone ALL_ST=STORAGE AREA_FL=STORY 2_SCH=E,   1.3000    
 Heating Sizing Factor Information, Zone ALL_ST=TRANSP. BAGGAGE_FL=STORY 4_SCH=H,   1.3000    
 Heating Sizing Factor Information, Zone ALL_ST=TRANSP. CONCOURSE_FL=STORY 6_SCH=H,   1.3000    
 Heating Sizing Factor Information, Zone ALL_ST=TRANSP. COUNTER_FL=STORY 5_SCH=H,   1.3000    
 Heating Sizing Factor Information, Zone ALL_ST=TRANSP. SEATING_FL=STORY 3_SCH=H,   1.3000    
 Heating Sizing Factor Information, Zone ALL_ST=WAREHOUSE - FINE - REFRIGERATED_FL=STORY 4_SCH=A,   1.3000    
 Heating Sizing Factor Information, Zone ALL_ST=WAREHOUSE - FINE_FL=STORY 7_SCH=A,   1.3000    
 Heating Sizing Factor Information, Zone ALL_ST=WAREHOUSE - MED/BLK - REFRIGERATED_FL=STORY 1_SCH=A,   1.3000    
 Heating Sizing Factor Information, Zone ALL_ST=WAREHOUSE - MED/BLK2 - REFRIGERATED_FL=STORY 5_SCH=A,   1.3000    
 Heating Sizing Factor Information, Zone ALL_ST=WAREHOUSE - MED/BLK2_FL=STORY 4_SCH=A,   1.3000    
 Heating Sizing Factor Information, Zone ALL_ST=WAREHOUSE - MED/BLK_FL=STORY 2_SCH=A,   1.3000    
 Heating Sizing Factor Information, Zone WET_ST=WASHROOM-SCH-A_FL=STORY 1_SCHA,   1.3000    
 Heating Sizing Factor Information, Zone WET_ST=WASHROOM-SCH-B_FL=STORY 5_SCHA,   1.3000    
 Heating Sizing Factor Information, Zone WILD_ST=STAIRWAY-SCH-A_FL=STORY 4_SCH=A,   1.3000    
 Heating Sizing Factor Information, Zone WILD_ST=STAIRWAY-SCH-B_FL=STORY 2_SCH=A,   1.3000    
 Heating Sizing Factor Information, Zone WILD_ST=STAIRWAY-SCH-C_FL=STORY 1_SCH=A,   1.3000    
 Heating Sizing Factor Information, Zone WILD_ST=STAIRWAY-SCH-D_FL=STORY 8_SCH=A,   1.3000    
 Heating Sizing Factor Information, Zone WILD_ST=STAIRWAY-SCH-E_FL=STORY 2_SCH=A,   1.3000    
 Heating Sizing Factor Information, Zone WILD_ST=STAIRWAY-SCH-F_FL=STORY 3_SCH=A,   1.3000    
 Heating Sizing Factor Information, Zone WILD_ST=STAIRWAY-SCH-G_FL=STORY 1_SCH=A,   1.3000    
 Heating Sizing Factor Information, Zone WILD_ST=STAIRWAY-SCH-H_FL=STORY 4_SCH=A,   1.3000    
 Heating Sizing Factor Information, Zone WILD_ST=STAIRWAY-SCH-I_FL=STORY 3_SCH=A,   1.3000    
! <Cooling Sizing Factor Information>, Sizing Factor ID, Value
 Cooling Sizing Factor Information, Global,   1.1000    
 Cooling Sizing Factor Information, Zone ALL_ST=PENITENTIARY - DINING_FL=STORY 8_SCH=B,   1.1000    
 Cooling Sizing Factor Information, Zone ALL_ST=POST OFFICE SORTING_FL=STORY 8_SCH=A,   1.1000    
 Cooling Sizing Factor Information, Zone ALL_ST=RELIGIOUS - AUDIENCE_FL=STORY 8_SCH=I,   1.1000    
 Cooling Sizing Factor Information, Zone ALL_ST=RELIGIOUS - FELLOWSHIP HALL_FL=STORY 7_SCH=C,   1.1000    
 Cooling Sizing Factor Information, Zone ALL_ST=RELIGIOUS - PULPIT/CHOIR_FL=STORY 7_SCH=I,   1.1000    
 Cooling Sizing Factor Information, Zone ALL_ST=RETAIL - DRESSING/FITTING_FL=STORY 7_SCH=C,   1.1000    
 Cooling Sizing Factor Information, Zone ALL_ST=RETAIL - MALL CONCOURSE_FL=STORY 6_SCH=C,   1.1000    
 Cooling Sizing Factor Information, Zone ALL_ST=RETAIL - SALES_FL=STORY 7_SCH=C,   1.1000    
 Cooling Sizing Factor Information, Zone ALL_ST=SALES AREA_FL=STORY 6_SCH=C,   1.1000    
 Cooling Sizing Factor Information, Zone ALL_ST=SPORTS ARENA - AUDIENCE_FL=STORY 8_SCH=B,   1.1000    
 Cooling Sizing Factor Information, Zone ALL_ST=SPORTS ARENA - COURT C1_FL=STORY 6_SCH=B,   1.1000    
 Cooling Sizing Factor Information, Zone ALL_ST=SPORTS ARENA - COURT C2_FL=STORY 5_SCH=B,   1.1000    
 Cooling Sizing Factor Information, Zone ALL_ST=SPORTS ARENA - COURT C3_FL=STORY 5_SCH=B,   1.1000    
 Cooling Sizing Factor Information, Zone ALL_ST=SPORTS ARENA - COURT C4_FL=STORY 2_SCH=B,   1.1000    
 Cooling Sizing Factor Information, Zone ALL_ST=SPORTS ARENA - RING_FL=STORY 6_SCH=B,   1.1000    
 Cooling Sizing Factor Information, Zone ALL_ST=STORAGE AREA - OCCSENS_FL=STORY 3_SCH=E,   1.1000    
 Cooling Sizing Factor Information, Zone ALL_ST=STORAGE AREA - REFRIGERATED - OCCSENS_FL=STORY 1_SCH=E,   1.1000    
 Cooling Sizing Factor Information, Zone ALL_ST=STORAGE AREA - REFRIGERATED_FL=STORY 3_SCH=E,   1.1000    
 Cooling Sizing Factor Information, Zone ALL_ST=STORAGE AREA_FL=STORY 2_SCH=E,   1.1000    
 Cooling Sizing Factor Information, Zone ALL_ST=TRANSP. BAGGAGE_FL=STORY 4_SCH=H,   1.1000    
 Cooling Sizing Factor Information, Zone ALL_ST=TRANSP. CONCOURSE_FL=STORY 6_SCH=H,   1.1000    
 Cooling Sizing Factor Information, Zone ALL_ST=TRANSP. COUNTER_FL=STORY 5_SCH=H,   1.1000    
 Cooling Sizing Factor Information, Zone ALL_ST=TRANSP. SEATING_FL=STORY 3_SCH=H,   1.1000    
 Cooling Sizing Factor Information, Zone ALL_ST=WAREHOUSE - FINE - REFRIGERATED_FL=STORY 4_SCH=A,   1.1000    
 Cooling Sizing Factor Information, Zone ALL_ST=WAREHOUSE - FINE_FL=STORY 7_SCH=A,   1.1000    
 Cooling Sizing Factor Information, Zone ALL_ST=WAREHOUSE - MED/BLK - REFRIGERATED_FL=STORY 1_SCH=A,   1.1000    
 Cooling Sizing Factor Information, Zone ALL_ST=WAREHOUSE - MED/BLK2 - REFRIGERATED_FL=STORY 5_SCH=A,   1.1000    
 Cooling Sizing Factor Information, Zone ALL_ST=WAREHOUSE - MED/BLK2_FL=STORY 4_SCH=A,   1.1000    
 Cooling Sizing Factor Information, Zone ALL_ST=WAREHOUSE - MED/BLK_FL=STORY 2_SCH=A,   1.1000    
 Cooling Sizing Factor Information, Zone WET_ST=WASHROOM-SCH-A_FL=STORY 1_SCHA,   1.1000    
 Cooling Sizing Factor Information, Zone WET_ST=WASHROOM-SCH-B_FL=STORY 5_SCHA,   1.1000    
 Cooling Sizing Factor Information, Zone WILD_ST=STAIRWAY-SCH-A_FL=STORY 4_SCH=A,   1.1000    
 Cooling Sizing Factor Information, Zone WILD_ST=STAIRWAY-SCH-B_FL=STORY 2_SCH=A,   1.1000    
 Cooling Sizing Factor Information, Zone WILD_ST=STAIRWAY-SCH-C_FL=STORY 1_SCH=A,   1.1000    
 Cooling Sizing Factor Information, Zone WILD_ST=STAIRWAY-SCH-D_FL=STORY 8_SCH=A,   1.1000    
 Cooling Sizing Factor Information, Zone WILD_ST=STAIRWAY-SCH-E_FL=STORY 2_SCH=A,   1.1000    
 Cooling Sizing Factor Information, Zone WILD_ST=STAIRWAY-SCH-F_FL=STORY 3_SCH=A,   1.1000    
 Cooling Sizing Factor Information, Zone WILD_ST=STAIRWAY-SCH-G_FL=STORY 1_SCH=A,   1.1000    
 Cooling Sizing Factor Information, Zone WILD_ST=STAIRWAY-SCH-H_FL=STORY 4_SCH=A,   1.1000    
 Cooling Sizing Factor Information, Zone WILD_ST=STAIRWAY-SCH-I_FL=STORY 3_SCH=A,   1.1000    
! <Zone Sizing Information>, Zone Name, Load Type, Calc Des Load {W}, User Des Load {W}, Calc Des Air Flow Rate {m3/s}, User Des Air Flow Rate {m3/s}, Design Day Name, Date/Time of Peak, Temperature at Peak {C}, Humidity Ratio at Peak {kgWater/kgDryAir}, Floor Area {m2}, # Occupants, Calc Outdoor Air Flow Rate {m3/s}, Calc DOAS Heat Addition Rate {W}
 Zone Sizing Information, ALL_ST=PENITENTIARY - DINING_FL=STORY 8_SCH=B, Cooling, 88132.37825, 96945.61608, 5.94768, 6.71513, FORT MCMURRAY AP ANN CLG .4% CONDNS DB=>MWB, 7/21 09:00:00, 22.08000, 8.76969E-003, 1875.00000, 187.49386, 6.71513, 0.00000
 Zone Sizing Information, ALL_ST=PENITENTIARY - DINING_FL=STORY 8_SCH=B, Heating, 47655.29320, 61951.88116, 1.89790, 6.71513, FORT MCMURRAY AP ANN HTG 99.6% CONDNS DB, 1/21 10:00:00, -36.20000, 1.25811E-004, 1875.00000, 187.49386, 6.71513, 0.00000
 Zone Sizing Information, ALL_ST=POST OFFICE SORTING_FL=STORY 8_SCH=A, Cooling, 74451.48456, 81896.63302, 5.75401, 6.32941, FORT MCMURRAY AP ANN CLG .4% CONDNS DB=>MWB, 7/21 14:30:00, 28.90000, 8.76969E-003, 1875.00000, 93.84784, 1.64783, 0.00000
 Zone Sizing Information, ALL_ST=POST OFFICE SORTING_FL=STORY 8_SCH=A, Heating, 50079.99551, 65103.99417, 1.99672, 2.59574, FORT MCMURRAY AP ANN HTG 99.6% CONDNS DB, 1/21 08:00:00, -36.20000, 1.25811E-004, 1875.00000, 93.84784, 1.64783, 0.00000
 Zone Sizing Information, ALL_ST=RELIGIOUS - AUDIENCE_FL=STORY 8_SCH=I, Cooling, 116441.78850, 128085.96735, 7.24199, 8.38200, FORT MCMURRAY AP ANN CLG .4% CONDNS DB=>MWB, 7/21 15:00:00, 28.90000, 8.76969E-003, 2500.00000, 499.98364, 8.38200, 0.00000
 Zone Sizing Information, ALL_ST=RELIGIOUS - AUDIENCE_FL=STORY 8_SCH=I, Heating, 35279.46665, 45863.30665, 1.27123, 8.38200, FORT MCMURRAY AP ANN HTG 99.6% CONDNS DB, 1/21 15:00:00, -36.20000, 1.25811E-004, 2500.00000, 499.98364, 8.38200, 0.00000
 Zone Sizing Information, ALL_ST=RELIGIOUS - FELLOWSHIP HALL_FL=STORY 7_SCH=C, Cooling, 57858.58774, 63644.44652, 4.47312, 8.38200, FORT MCMURRAY AP ANN CLG .4% CONDNS DB=>MWB, 7/21 17:00:00, 27.16400, 8.76969E-003, 2500.00000, 499.98364, 8.38200, 0.00000
 Zone Sizing Information, ALL_ST=RELIGIOUS - FELLOWSHIP HALL_FL=STORY 7_SCH=C, Heating, 0.00000, 0.00000, 0.00000, 8.38200, FORT MCMURRAY AP ANN HTG 99.6% CONDNS DB, , -36.20000, 1.25811E-004, 2500.00000, 499.98364, 8.38200, 0.00000
 Zone Sizing Information, ALL_ST=RELIGIOUS - PULPIT/CHOIR_FL=STORY 7_SCH=I, Cooling, 60888.56093, 66977.41702, 4.13153, 6.28650, FORT MCMURRAY AP ANN CLG .4% CONDNS DB=>MWB, 7/21 15:00:00, 28.90000, 8.76969E-003, 1875.00000, 374.98773, 6.28650, 0.00000
 Zone Sizing Information, ALL_ST=RELIGIOUS - PULPIT/CHOIR_FL=STORY 7_SCH=I, Heating, 17333.76823, 22533.89870, 0.67227, 6.28650, FORT MCMURRAY AP ANN HTG 99.6% CONDNS DB, 1/21 16:00:00, -36.20000, 1.25811E-004, 1875.00000, 374.98773, 6.28650, 0.00000
 Zone Sizing Information, ALL_ST=RETAIL - DRESSING/FITTING_FL=STORY 7_SCH=C, Cooling, 51988.13708, 57186.95078, 3.61638, 3.97802, FORT MCMURRAY AP ANN CLG .4% CONDNS DB=>MWB, 7/21 08:00:00, 19.72400, 8.76969E-003, 1875.00000, 62.56523, 2.21933, 0.00000
 Zone Sizing Information, ALL_ST=RETAIL - DRESSING/FITTING_FL=STORY 7_SCH=C, Heating, 21006.65060, 27308.64578, 0.82070, 2.21933, FORT MCMURRAY AP ANN HTG 99.6% CONDNS DB, 1/21 09:00:00, -36.20000, 1.25811E-004, 1875.00000, 62.56523, 2.21933, 0.00000
 Zone Sizing Information, ALL_ST=RETAIL - MALL CONCOURSE_FL=STORY 6_SCH=C, Cooling, 47174.23833, 51891.66216, 3.64604, 4.01065, FORT MCMURRAY AP ANN CLG .4% CONDNS DB=>MWB, 7/21 14:00:00, 28.90000, 8.76969E-003, 1875.00000, 93.84784, 3.42900, 0.00000
 Zone Sizing Information, ALL_ST=RETAIL - MALL CONCOURSE_FL=STORY 6_SCH=C, Heating, 4816.22918, 6261.09793, 0.18755, 3.42900, FORT MCMURRAY AP ANN HTG 99.6% CONDNS DB, 1/21 09:00:00, -36.20000, 1.25811E-004, 1875.00000, 93.84784, 3.42900, 0.00000
 Zone Sizing Information, ALL_ST=RETAIL - SALES_FL=STORY 7_SCH=C, Cooling, 64615.41035, 71076.95139, 4.99395, 5.49334, FORT MCMURRAY AP ANN CLG .4% CONDNS DB=>MWB, 7/21 18:00:00, 25.92400, 8.76969E-003, 1875.00000, 62.56523, 2.21933, 0.00000
 Zone Sizing Information, ALL_ST=RETAIL - SALES_FL=STORY 7_SCH=C, Heating, 12466.14597, 16205.98976, 0.47610, 2.21933, FORT MCMURRAY AP ANN HTG 99.6% CONDNS DB, 1/21 09:00:00, -36.20000, 1.25811E-004, 1875.00000, 62.56523, 2.21933, 0.00000
 Zone Sizing Information, ALL_ST=SALES AREA_FL=STORY 6_SCH=C, Cooling, 54217.24258, 59638.96684, 3.75164, 4.12681, FORT MCMURRAY AP ANN CLG .4% CONDNS DB=>MWB, 7/21 08:00:00, 19.72400, 8.76969E-003, 1875.00000, 62.56523, 2.21933, 0.00000
 Zone Sizing Information, ALL_ST=SALES AREA_FL=STORY 6_SCH=C, Heating, 6997.81240, 9097.15612, 0.26643, 2.21933, FORT MCMURRAY AP ANN HTG 99.6% CONDNS DB, 1/21 09:00:00, -36.20000, 1.25811E-004, 1875.00000, 62.56523, 2.21933, 0.00000
 Zone Sizing Information, ALL_ST=SPORTS ARENA - AUDIENCE_FL=STORY 8_SCH=B, Cooling, 93291.09037, 102620.19940, 7.21215, 11.28713, FORT MCMURRAY AP ANN CLG .4% CONDNS DB=>MWB, 7/21 13:10:00, 28.38333, 8.76969E-003, 1875.00000, 374.98773, 11.28713, 0.00000
 Zone Sizing Information, ALL_ST=SPORTS ARENA - AUDIENCE_FL=STORY 8_SCH=B, Heating, 50038.26901, 65049.74971, 1.99448, 11.28713, FORT MCMURRAY AP ANN HTG 99.6% CONDNS DB, 1/21 10:00:00, -36.20000, 1.25811E-004, 1875.00000, 374.98773, 11.28713, 0.00000
 Zone Sizing Information, ALL_ST=SPORTS ARENA - COURT C1_FL=STORY 6_SCH=B, Cooling, 84777.71890, 93255.49079, 6.55313, 7.20844, FORT MCMURRAY AP ANN CLG .4% CONDNS DB=>MWB, 7/21 20:00:00, 22.70000, 8.76969E-003, 1875.00000, 374.98773, 2.85750, 0.00000
 Zone Sizing Information, ALL_ST=SPORTS ARENA - COURT C1_FL=STORY 6_SCH=B, Heating, 0.00000, 0.00000, 0.00000, 2.85750, FORT MCMURRAY AP ANN HTG 99.6% CONDNS DB, , -36.20000, 1.25811E-004, 1875.00000, 374.98773, 2.85750, 0.00000
 Zone Sizing Information, ALL_ST=SPORTS ARENA - COURT C2_FL=STORY 5_SCH=B, Cooling, 66540.83527, 73194.91880, 5.14404, 5.65845, FORT MCMURRAY AP ANN CLG .4% CONDNS DB=>MWB, 7/21 13:00:00, 28.28000, 8.76969E-003, 1875.00000, 374.98773, 2.85750, 0.00000
 Zone Sizing Information, ALL_ST=SPORTS ARENA - COURT C2_FL=STORY 5_SCH=B, Heating, 0.00000, 0.00000, 0.00000, 2.85750, FORT MCMURRAY AP ANN HTG 99.6% CONDNS DB, , -36.20000, 1.25811E-004, 1875.00000, 374.98773, 2.85750, 0.00000
 Zone Sizing Information, ALL_ST=SPORTS ARENA - COURT C3_FL=STORY 5_SCH=B, Cooling, 59019.02152, 64920.92367, 4.07010, 4.47711, FORT MCMURRAY AP ANN CLG .4% CONDNS DB=>MWB, 7/21 09:00:00, 22.08000, 8.76969E-003, 1875.00000, 374.98773, 2.85750, 0.00000
 Zone Sizing Information, ALL_ST=SPORTS ARENA - COURT C3_FL=STORY 5_SCH=B, Heating, 5007.55890, 6509.82658, 0.19200, 2.85750, FORT MCMURRAY AP ANN HTG 99.6% CONDNS DB, 1/21 09:10:00, -36.20000, 1.25811E-004, 1875.00000, 374.98773, 2.85750, 0.00000
[...]
! <Environment>,Environment Name,Environment Type, Start Date, End Date, Start DayOfWeek, Duration {#days}, Source:Start DayOfWeek,  Use Daylight Saving, Use Holidays, Apply Weekend Holiday Rule,  Use Rain Values, Use Snow Values
! <Environment:Special Days>, Special Day Name, Special Day Type, Source, Start Date, Duration {#days}
! <Environment:Daylight Saving>, Daylight Saving Indicator, Source, Start Date, End Date
! <Environment:WarmupDays>, NumberofWarmupDays
Environment,FORT MCMURRAY AP ANN CLG .4% CONDNS DB=>MWB,SizingPeriod:DesignDay,07/21,07/21,SummerDesignDay,1,N/A,N/A,N/A,N/A,N/A,N/A
Environment:Daylight Saving,No,SizingPeriod:DesignDay
! <Environment:Design Day Data>, Max Dry-Bulb Temp {C}, Temp Range {dC}, Temp Range Ind Type, Hum Ind Value at Max Temp, Hum Ind Type,Pressure {Pa}, Wind Direction {deg CW from N}, Wind Speed {m/s}, Clearness, Rain, Snow
! <Environment:Design Day Misc>,DayOfYear,ASHRAE A Coeff,ASHRAE B Coeff,ASHRAE C Coeff,Solar Constant-Annual Variation,Eq of Time {minutes}, Solar Declination Angle {deg}, Solar Model
Environment:Design Day Data,28.90,12.40,DefaultMultipliers,96969,250,3.7,0.00,No,No
Environment:Design Day Misc,202,1084.4,0.2082,0.1365,1.0,-6.23,20.6,ASHRAETau
Environment:WarmupDays,  8
! <Tabular Report>,Style,Unit Conversion
Tabular Report,HTML,None
! <Warmup Convergence Information>,Zone Name,Environment Type/Name,Average Warmup Temperature Difference {deltaC},Std Dev Warmup Temperature Difference {deltaC},Max Temperature Pass/Fail Convergence,Min Temperature Pass/Fail Convergence,Average Warmup Load Difference {W},Std Dev Warmup Load Difference {W},Heating Load Pass/Fail Convergence,Cooling Load Pass/Fail Convergence
 Warmup Convergence Information,ALL_ST=PENITENTIARY - DINING_FL=STORY 8_SCH=B,SizingPeriod: FORT MCMURRAY AP ANN CLG .4% CONDNS DB=>MWB,6.2323642457E-002,0.1078152936,Pass,Pass,2.8471983358E-002,5.3315967944E-002,Pass,Pass
 Warmup Convergence Information,ALL_ST=POST OFFICE SORTING_FL=STORY 8_SCH=A,SizingPeriod: FORT MCMURRAY AP ANN CLG .4% CONDNS DB=>MWB,5.2004761467E-002,0.1115629906,Pass,Pass,2.2586578742E-002,4.5979189967E-002,Pass,Pass
 Warmup Convergence Information,ALL_ST=RELIGIOUS - AUDIENCE_FL=STORY 8_SCH=I,SizingPeriod: FORT MCMURRAY AP ANN CLG .4% CONDNS DB=>MWB,7.9179261595E-002,0.1331052554,Pass,Pass,2.5514084123E-002,4.7465587089E-002,Pass,Pass
 Warmup Convergence Information,ALL_ST=RELIGIOUS - FELLOWSHIP HALL_FL=STORY 7_SCH=C,SizingPeriod: FORT MCMURRAY AP ANN CLG .4% CONDNS DB=>MWB,3.9865977784E-002,7.4638620754E-002,Pass,Pass,2.1117752786E-002,8.0619544984E-002,Pass,Pass
 Warmup Convergence Information,ALL_ST=RELIGIOUS - PULPIT/CHOIR_FL=STORY 7_SCH=I,SizingPeriod: FORT MCMURRAY AP ANN CLG .4% CONDNS DB=>MWB,3.1901465490E-002,4.8689802164E-002,Pass,Pass,1.2954567189E-002,4.9067558177E-002,Pass,Pass
 Warmup Convergence Information,ALL_ST=RETAIL - DRESSING/FITTING_FL=STORY 7_SCH=C,SizingPeriod: FORT MCMURRAY AP ANN CLG .4% CONDNS DB=>MWB,1.6738586127E-002,2.6232855256E-002,Pass,Pass,1.3710670813E-002,5.0253455742E-002,Pass,Pass
 Warmup Convergence Information,ALL_ST=RETAIL - MALL CONCOURSE_FL=STORY 6_SCH=C,SizingPeriod: FORT MCMURRAY AP ANN CLG .4% CONDNS DB=>MWB,1.2530052656E-002,2.6442383841E-002,Pass,Pass,1.3812811609E-002,4.8413150114E-002,Pass,Pass
 Warmup Convergence Information,ALL_ST=RETAIL - SALES_FL=STORY 7_SCH=C,SizingPeriod: FORT MCMURRAY AP ANN CLG .4% CONDNS DB=>MWB,2.1641105115E-002,4.6525998528E-002,Pass,Pass,1.7119755957E-002,6.4660515579E-002,Pass,Pass
 Warmup Convergence Information,ALL_ST=SALES AREA_FL=STORY 6_SCH=C,SizingPeriod: FORT MCMURRAY AP ANN CLG .4% CONDNS DB=>MWB,1.8008765364E-002,5.1165805389E-002,Pass,Pass,1.5783217812E-002,6.7055687295E-002,Pass,Pass
 Warmup Convergence Information,ALL_ST=SPORTS ARENA - AUDIENCE_FL=STORY 8_SCH=B,SizingPeriod: FORT MCMURRAY AP ANN CLG .4% CONDNS DB=>MWB,8.5718253038E-002,0.1658172403,Pass,Pass,2.9446814323E-002,6.6382753240E-002,Pass,Pass
 Warmup Convergence Information,ALL_ST=SPORTS ARENA - COURT C1_FL=STORY 6_SCH=B,SizingPeriod: FORT MCMURRAY AP ANN CLG .4% CONDNS DB=>MWB,3.1412716905E-002,0.1014021932,Pass,Pass,2.3856657142E-002,9.7882949697E-002,Pass,Pass
 Warmup Convergence Information,ALL_ST=SPORTS ARENA - COURT C2_FL=STORY 5_SCH=B,SizingPeriod: FORT MCMURRAY AP ANN CLG .4% CONDNS DB=>MWB,2.2988569757E-002,6.8614482272E-002,Pass,Pass,2.3205401765E-002,7.9376351724E-002,Pass,Pass
 Warmup Convergence Information,ALL_ST=SPORTS ARENA - COURT C3_FL=STORY 5_SCH=B,SizingPeriod: FORT MCMURRAY AP ANN CLG .4% CONDNS DB=>MWB,2.9092782812E-002,8.3567161587E-002,Pass,Pass,2.5722623347E-002,8.6241732097E-002,Pass,Pass
 Warmup Convergence Information,ALL_ST=SPORTS ARENA - COURT C4_FL=STORY 2_SCH=B,SizingPeriod: FORT MCMURRAY AP ANN CLG .4% CONDNS DB=>MWB,2.2435718505E-002,4.7532495506E-002,Pass,Pass,2.6726176308E-002,9.6020215820E-002,Pass,Pass
 Warmup Convergence Information,ALL_ST=SPORTS ARENA - RING_FL=STORY 6_SCH=B,SizingPeriod: FORT MCMURRAY AP ANN CLG .4% CONDNS DB=>MWB,2.6630192722E-002,8.5636247915E-002,Pass,Pass,2.5647635650E-002,0.1080120238,Pass,Pass
 Warmup Convergence Information,ALL_ST=STORAGE AREA - OCCSENS_FL=STORY 3_SCH=E,SizingPeriod: FORT MCMURRAY AP ANN CLG .4% CONDNS DB=>MWB,2.8473791142E-002,5.1345585185E-002,Pass,Pass,5.7713361442E-002,0.3949658668,Pass,Pass
 Warmup Convergence Information,ALL_ST=STORAGE AREA - REFRIGERATED - OCCSENS_FL=STORY 1_SCH=E,SizingPeriod: FORT MCMURRAY AP ANN CLG .4% CONDNS DB=>MWB,2.4119857857E-002,3.4242342168E-002,Pass,Pass,0.4714716817,3.5193757900,Pass,Pass
 Warmup Convergence Information,ALL_ST=STORAGE AREA - REFRIGERATED_FL=STORY 3_SCH=E,SizingPeriod: FORT MCMURRAY AP ANN CLG .4% CONDNS DB=>MWB,5.2726685604E-002,8.5974998910E-002,Pass,Pass,9.6226059699E-002,0.7595473686,Pass,Pass
 Warmup Convergence Information,ALL_ST=STORAGE AREA_FL=STORY 2_SCH=E,SizingPeriod: FORT MCMURRAY AP ANN CLG .4% CONDNS DB=>MWB,2.3143467747E-002,6.7253505334E-002,Pass,Pass,0.1105038922,0.8701606070,Pass,Pass
 Warmup Convergence Information,ALL_ST=TRANSP. BAGGAGE_FL=STORY 4_SCH=H,SizingPeriod: FORT MCMURRAY AP ANN CLG .4% CONDNS DB=>MWB,9.0330297298E-005,1.9576841775E-004,Pass,Pass,5.4205033538E-003,4.7002749890E-003,Pass,Pass
 Warmup Convergence Information,ALL_ST=TRANSP. CONCOURSE_FL=STORY 6_SCH=H,SizingPeriod: FORT MCMURRAY AP ANN CLG .4% CONDNS DB=>MWB,3.9953975608E-003,1.9646796092E-003,Pass,Pass,9.3371001052E-004,1.4285890417E-003,Pass,Pass
 Warmup Convergence Information,ALL_ST=TRANSP. COUNTER_FL=STORY 5_SCH=H,SizingPeriod: FORT MCMURRAY AP ANN CLG .4% CONDNS DB=>MWB,1.9759790537E-004,4.2240400798E-004,Pass,Pass,6.9207934820E-004,5.2069162177E-004,Pass,Pass
 Warmup Convergence Information,ALL_ST=TRANSP. SEATING_FL=STORY 3_SCH=H,SizingPeriod: FORT MCMURRAY AP ANN CLG .4% CONDNS DB=>MWB,1.1900043961E-003,6.8257851594E-004,Pass,Pass,1.1544731623E-004,7.0666434602E-005,Pass,Pass
 Warmup Convergence Information,ALL_ST=WAREHOUSE - FINE - REFRIGERATED_FL=STORY 4_SCH=A,SizingPeriod: FORT MCMURRAY AP ANN CLG .4% CONDNS DB=>MWB,5.8893214583E-002,5.2705479081E-002,Pass,Pass,0.1550180087,0.5551866847,Pass,Pass
 Warmup Convergence Information,ALL_ST=WAREHOUSE - FINE_FL=STORY 7_SCH=A,SizingPeriod: FORT MCMURRAY AP ANN CLG .4% CONDNS DB=>MWB,3.1053222707E-002,0.1084200257,Pass,Pass,7.3582712749E-002,0.5651483679,Pass,Pass
 Warmup Convergence Information,ALL_ST=WAREHOUSE - MED/BLK - REFRIGERATED_FL=STORY 1_SCH=A,SizingPeriod: FORT MCMURRAY AP ANN CLG .4% CONDNS DB=>MWB,5.7399477142E-002,4.8667194216E-002,Pass,Pass,0.1483292124,0.4491046070,Pass,Pass
 Warmup Convergence Information,ALL_ST=WAREHOUSE - MED/BLK2 - REFRIGERATED_FL=STORY 5_SCH=A,SizingPeriod: FORT MCMURRAY AP ANN CLG .4% CONDNS DB=>MWB,6.5696755605E-002,4.5962625539E-002,Pass,Pass,0.1327989569,0.3686446141,Pass,Pass
 Warmup Convergence Information,ALL_ST=WAREHOUSE - MED/BLK2_FL=STORY 4_SCH=A,SizingPeriod: FORT MCMURRAY AP ANN CLG .4% CONDNS DB=>MWB,4.1776736903E-002,0.1650428787,Pass,Pass,8.0197348165E-002,0.6066409467,Pass,Pass
 Warmup Convergence Information,ALL_ST=WAREHOUSE - MED/BLK_FL=STORY 2_SCH=A,SizingPeriod: FORT MCMURRAY AP ANN CLG .4% CONDNS DB=>MWB,2.9942161949E-002,9.5547658279E-002,Pass,Pass,7.1310186832E-002,0.5251222826,Pass,Pass
 Warmup Convergence Information,WET_ST=WASHROOM-SCH-A_FL=STORY 1_SCHA,SizingPeriod: FORT MCMURRAY AP ANN CLG .4% CONDNS DB=>MWB,1.5989141164E-002,4.6893406851E-002,Pass,Pass,0.1888223058,1.7584129808,Pass,Pass
 Warmup Convergence Information,WET_ST=WASHROOM-SCH-B_FL=STORY 5_SCHA,SizingPeriod: FORT MCMURRAY AP ANN CLG .4% CONDNS DB=>MWB,3.3322807918E-002,7.0563522742E-002,Pass,Pass,4.6826689401E-002,0.2631112499,Pass,Pass
 Warmup Convergence Information,WILD_ST=STAIRWAY-SCH-A_FL=STORY 4_SCH=A,SizingPeriod: FORT MCMURRAY AP ANN CLG .4% CONDNS DB=>MWB,1.7108583469E-002,5.9523545700E-002,Pass,Pass,6.2546057458E-002,0.4752248600,Pass,Pass
 Warmup Convergence Information,WILD_ST=STAIRWAY-SCH-B_FL=STORY 2_SCH=A,SizingPeriod: FORT MCMURRAY AP ANN CLG .4% CONDNS DB=>MWB,4.1581795137E-002,9.0269298352E-002,Pass,Pass,5.3387152399E-002,0.3648384511,Pass,Pass
 Warmup Convergence Information,WILD_ST=STAIRWAY-SCH-C_FL=STORY 1_SCH=A,SizingPeriod: FORT MCMURRAY AP ANN CLG .4% CONDNS DB=>MWB,2.0849810161E-002,4.2854482661E-002,Pass,Pass,8.3635354289E-002,0.6484307608,Pass,Pass
 Warmup Convergence Information,WILD_ST=STAIRWAY-SCH-D_FL=STORY 8_SCH=A,SizingPeriod: FORT MCMURRAY AP ANN CLG .4% CONDNS DB=>MWB,9.0741200863E-002,0.1785286582,Pass,Pass,0.9543169824,9.5851296330,Pass,Pass
 Warmup Convergence Information,WILD_ST=STAIRWAY-SCH-E_FL=STORY 2_SCH=A,SizingPeriod: FORT MCMURRAY AP ANN CLG .4% CONDNS DB=>MWB,1.7216362671E-002,4.4621591194E-002,Pass,Pass,8.6142822210E-002,0.6796411584,Pass,Pass
 Warmup Convergence Information,WILD_ST=STAIRWAY-SCH-F_FL=STORY 3_SCH=A,SizingPeriod: FORT MCMURRAY AP ANN CLG .4% CONDNS DB=>MWB,3.8449741116E-002,8.9047703547E-002,Pass,Pass,5.3083862487E-002,0.3744170066,Pass,Pass
 Warmup Convergence Information,WILD_ST=STAIRWAY-SCH-G_FL=STORY 1_SCH=A,SizingPeriod: FORT MCMURRAY AP ANN CLG .4% CONDNS DB=>MWB,1.9314015954E-002,3.4653046149E-002,Pass,Pass,0.1250339264,1.0125821836,Pass,Pass
 Warmup Convergence Information,WILD_ST=STAIRWAY-SCH-H_FL=STORY 4_SCH=A,SizingPeriod: FORT MCMURRAY AP ANN CLG .4% CONDNS DB=>MWB,4.3451853043E-002,9.9912418797E-002,Pass,Pass,5.1061581579E-002,0.3706283548,Pass,Pass
 Warmup Convergence Information,WILD_ST=STAIRWAY-SCH-I_FL=STORY 3_SCH=A,SizingPeriod: FORT MCMURRAY AP ANN CLG .4% CONDNS DB=>MWB,4.4340227006E-002,9.9939796954E-002,Pass,Pass,4.3294321469E-002,0.2724321723,Pass,Pass
Environment,FORT MCMURRAY AP ANN HTG 99.6% CONDNS DB,SizingPeriod:DesignDay,01/21,01/21,WinterDesignDay,1,N/A,N/A,N/A,N/A,N/A,N/A
Environment:Daylight Saving,No,SizingPeriod:DesignDay
Environment:Design Day Data,-36.20,0.00,DefaultMultipliers,96969,90,1.0,0.00,No,No
Environment:Design Day Misc, 21,1229.0,0.1415,5.7310E-002,1.0,-11.15,-20.1,ASHRAEClearSky
Environment:WarmupDays,  7
 Warmup Convergence Information,ALL_ST=PENITENTIARY - DINING_FL=STORY 8_SCH=B,SizingPeriod: FORT MCMURRAY AP ANN HTG 99.6% CONDNS DB,5.5579325468E-002,0.3308386625,Pass,Pass,3.2208620844E-002,0.1054771350,Pass,Pass
 Warmup Convergence Information,ALL_ST=POST OFFICE SORTING_FL=STORY 8_SCH=A,SizingPeriod: FORT MCMURRAY AP ANN HTG 99.6% CONDNS DB,5.5687949016E-002,0.2973798618,Pass,Pass,3.8173770668E-002,0.1549398321,Pass,Pass
 Warmup Convergence Information,ALL_ST=RELIGIOUS - AUDIENCE_FL=STORY 8_SCH=I,SizingPeriod: FORT MCMURRAY AP ANN HTG 99.6% CONDNS DB,8.8305658038E-002,0.1492538729,Pass,Pass,0.3505009601,2.6525796562,Pass,Pass
 Warmup Convergence Information,ALL_ST=RELIGIOUS - FELLOWSHIP HALL_FL=STORY 7_SCH=C,SizingPeriod: FORT MCMURRAY AP ANN HTG 99.6% CONDNS DB,6.0133603588E-002,0.1252876523,Pass,Pass,1.3605568040E-002,5.4862572951E-002,Pass,Pass
 Warmup Convergence Information,ALL_ST=RELIGIOUS - PULPIT/CHOIR_FL=STORY 7_SCH=I,SizingPeriod: FORT MCMURRAY AP ANN HTG 99.6% CONDNS DB,6.3950183655E-002,0.1149065385,Pass,Pass,0.1261615878,0.5364620627,Pass,Pass
 Warmup Convergence Information,ALL_ST=RETAIL - DRESSING/FITTING_FL=STORY 7_SCH=C,SizingPeriod: FORT MCMURRAY AP ANN HTG 99.6% CONDNS DB,2.6392155170E-002,0.1057263526,Pass,Pass,1.7884140356E-002,6.9816739126E-002,Pass,Pass
 Warmup Convergence Information,ALL_ST=RETAIL - MALL CONCOURSE_FL=STORY 6_SCH=C,SizingPeriod: FORT MCMURRAY AP ANN HTG 99.6% CONDNS DB,2.6535693765E-002,3.5293220720E-002,Pass,Pass,1.3289572275E-002,2.3090593064E-002,Pass,Pass
 Warmup Convergence Information,ALL_ST=RETAIL - SALES_FL=STORY 7_SCH=C,SizingPeriod: FORT MCMURRAY AP ANN HTG 99.6% CONDNS DB,5.2297343334E-002,9.9791995325E-002,Pass,Pass,5.5807073091E-002,0.3942569021,Pass,Pass
 Warmup Convergence Information,ALL_ST=SALES AREA_FL=STORY 6_SCH=C,SizingPeriod: FORT MCMURRAY AP ANN HTG 99.6% CONDNS DB,3.1997070432E-002,4.6657229228E-002,Pass,Pass,1.4171322252E-002,2.7890638106E-002,Pass,Pass
 Warmup Convergence Information,ALL_ST=SPORTS ARENA - AUDIENCE_FL=STORY 8_SCH=B,SizingPeriod: FORT MCMURRAY AP ANN HTG 99.6% CONDNS DB,8.8001850268E-002,0.1626589608,Pass,Pass,0.3532224331,1.6548131564,Pass,Pass
 Warmup Convergence Information,ALL_ST=SPORTS ARENA - COURT C1_FL=STORY 6_SCH=B,SizingPeriod: FORT MCMURRAY AP ANN HTG 99.6% CONDNS DB,8.4069749801E-002,0.1078764129,Pass,Pass,1.7715673143E-002,2.8802786303E-002,Pass,Pass
 Warmup Convergence Information,ALL_ST=SPORTS ARENA - COURT C2_FL=STORY 5_SCH=B,SizingPeriod: FORT MCMURRAY AP ANN HTG 99.6% CONDNS DB,0.1060792402,0.1597246785,Pass,Pass,4.2188130936E-002,0.2251003093,Pass,Pass
 Warmup Convergence Information,ALL_ST=SPORTS ARENA - COURT C3_FL=STORY 5_SCH=B,SizingPeriod: FORT MCMURRAY AP ANN HTG 99.6% CONDNS DB,0.1078865113,0.1421359768,Pass,Pass,2.0403692745E-002,7.8609082815E-002,Pass,Pass
 Warmup Convergence Information,ALL_ST=SPORTS ARENA - COURT C4_FL=STORY 2_SCH=B,SizingPeriod: FORT MCMURRAY AP ANN HTG 99.6% CONDNS DB,8.2519427471E-002,9.6318762556E-002,Pass,Pass,8.7390754586E-003,1.1821038486E-002,Pass,Pass
 Warmup Convergence Information,ALL_ST=SPORTS ARENA - RING_FL=STORY 6_SCH=B,SizingPeriod: FORT MCMURRAY AP ANN HTG 99.6% CONDNS DB,8.7380240380E-002,0.1072138823,Pass,Pass,8.9113943532E-003,1.3463080860E-002,Pass,Pass
 Warmup Convergence Information,ALL_ST=STORAGE AREA - OCCSENS_FL=STORY 3_SCH=E,SizingPeriod: FORT MCMURRAY AP ANN HTG 99.6% CONDNS DB,3.6988583602E-002,0.1490988008,Pass,Pass,2.1277581282E-002,0.1234715659,Pass,Pass
 Warmup Convergence Information,ALL_ST=STORAGE AREA - REFRIGERATED - OCCSENS_FL=STORY 1_SCH=E,SizingPeriod: FORT MCMURRAY AP ANN HTG 99.6% CONDNS DB,5.0175591747E-002,0.1307010372,Pass,Pass,9.8714666117E-002,0.1871086034,Pass,Pass
 Warmup Convergence Information,ALL_ST=STORAGE AREA - REFRIGERATED_FL=STORY 3_SCH=E,SizingPeriod: FORT MCMURRAY AP ANN HTG 99.6% CONDNS DB,5.5642136754E-002,0.2895664445,Pass,Pass,0.1371212451,0.5010712727,Pass,Pass
 Warmup Convergence Information,ALL_ST=STORAGE AREA_FL=STORY 2_SCH=E,SizingPeriod: FORT MCMURRAY AP ANN HTG 99.6% CONDNS DB,5.5556816478E-002,0.2422478773,Pass,Pass,4.4610978421E-002,9.2628122790E-002,Pass,Pass
 Warmup Convergence Information,ALL_ST=TRANSP. BAGGAGE_FL=STORY 4_SCH=H,SizingPeriod: FORT MCMURRAY AP ANN HTG 99.6% CONDNS DB,2.3283960837E-002,5.0853677162E-002,Pass,Pass,2.0238702880E-002,0.1372710680,Pass,Pass
 Warmup Convergence Information,ALL_ST=TRANSP. CONCOURSE_FL=STORY 6_SCH=H,SizingPeriod: FORT MCMURRAY AP ANN HTG 99.6% CONDNS DB,8.6947758356E-003,6.4150898613E-003,Pass,Pass,1.7336558779E-003,2.3272538908E-003,Pass,Pass
 Warmup Convergence Information,ALL_ST=TRANSP. COUNTER_FL=STORY 5_SCH=H,SizingPeriod: FORT MCMURRAY AP ANN HTG 99.6% CONDNS DB,1.4244049109E-002,2.1957658074E-002,Pass,Pass,6.0552490176E-003,2.6140710054E-002,Pass,Pass
 Warmup Convergence Information,ALL_ST=TRANSP. SEATING_FL=STORY 3_SCH=H,SizingPeriod: FORT MCMURRAY AP ANN HTG 99.6% CONDNS DB,5.8828703214E-003,2.5868896928E-003,Pass,Pass,5.4220007706E-004,2.2988258848E-004,Pass,Pass
 Warmup Convergence Information,ALL_ST=WAREHOUSE - FINE - REFRIGERATED_FL=STORY 4_SCH=A,SizingPeriod: FORT MCMURRAY AP ANN HTG 99.6% CONDNS DB,2.8680997733E-002,3.0685404949E-002,Pass,Pass,9.7978606769E-004,1.4748788036E-003,Pass,Pass
 Warmup Convergence Information,ALL_ST=WAREHOUSE - FINE_FL=STORY 7_SCH=A,SizingPeriod: FORT MCMURRAY AP ANN HTG 99.6% CONDNS DB,5.5559292666E-002,0.2931056561,Pass,Pass,7.4625147179E-002,0.4645071764,Pass,Pass
 Warmup Convergence Information,ALL_ST=WAREHOUSE - MED/BLK - REFRIGERATED_FL=STORY 1_SCH=A,SizingPeriod: FORT MCMURRAY AP ANN HTG 99.6% CONDNS DB,2.1660574217E-002,2.2608481009E-002,Pass,Pass,8.2852054820E-004,1.0318867344E-003,Pass,Pass
 Warmup Convergence Information,ALL_ST=WAREHOUSE - MED/BLK2 - REFRIGERATED_FL=STORY 5_SCH=A,SizingPeriod: FORT MCMURRAY AP ANN HTG 99.6% CONDNS DB,2.3278868583E-002,2.1805091794E-002,Pass,Pass,6.2915193177E-004,1.0730515385E-003,Pass,Pass
 Warmup Convergence Information,ALL_ST=WAREHOUSE - MED/BLK2_FL=STORY 4_SCH=A,SizingPeriod: FORT MCMURRAY AP ANN HTG 99.6% CONDNS DB,5.5557504177E-002,0.2987880236,Pass,Pass,0.1497179120,1.0680688828,Pass,Pass
 Warmup Convergence Information,ALL_ST=WAREHOUSE - MED/BLK_FL=STORY 2_SCH=A,SizingPeriod: FORT MCMURRAY AP ANN HTG 99.6% CONDNS DB,5.5557623796E-002,0.2812879301,Pass,Pass,8.1117585124E-002,0.4807750641,Pass,Pass
 Warmup Convergence Information,WET_ST=WASHROOM-SCH-A_FL=STORY 1_SCHA,SizingPeriod: FORT MCMURRAY AP ANN HTG 99.6% CONDNS DB,5.5558104541E-002,0.1962143538,Pass,Pass,5.0917909147E-002,9.5998386799E-002,Pass,Pass
 Warmup Convergence Information,WET_ST=WASHROOM-SCH-B_FL=STORY 5_SCHA,SizingPeriod: FORT MCMURRAY AP ANN HTG 99.6% CONDNS DB,8.8000225141E-002,0.2793984504,Pass,Pass,0.7340395564,8.0898810956,Pass,Pass
 Warmup Convergence Information,WILD_ST=STAIRWAY-SCH-A_FL=STORY 4_SCH=A,SizingPeriod: FORT MCMURRAY AP ANN HTG 99.6% CONDNS DB,5.5556396128E-002,0.2155089537,Pass,Pass,0.1109581615,0.7327316390,Pass,Pass
 Warmup Convergence Information,WILD_ST=STAIRWAY-SCH-B_FL=STORY 2_SCH=A,SizingPeriod: FORT MCMURRAY AP ANN HTG 99.6% CONDNS DB,9.6394238269E-002,0.3574063083,Pass,Pass,0.1273253192,0.3977952509,Pass,Pass
 Warmup Convergence Information,WILD_ST=STAIRWAY-SCH-C_FL=STORY 1_SCH=A,SizingPeriod: FORT MCMURRAY AP ANN HTG 99.6% CONDNS DB,5.8456734217E-002,0.1713666390,Pass,Pass,0.1968085764,1.1975949663,Pass,Pass
 Warmup Convergence Information,WILD_ST=STAIRWAY-SCH-D_FL=STORY 8_SCH=A,SizingPeriod: FORT MCMURRAY AP ANN HTG 99.6% CONDNS DB,0.1669728952,0.6145879541,Pass,Pass,4.6392329290E-002,0.1994318047,Pass,Pass
 Warmup Convergence Information,WILD_ST=STAIRWAY-SCH-E_FL=STORY 2_SCH=A,SizingPeriod: FORT MCMURRAY AP ANN HTG 99.6% CONDNS DB,5.0278798395E-002,0.1630905328,Pass,Pass,0.4877102787,4.7204164184,Pass,Pass
 Warmup Convergence Information,WILD_ST=STAIRWAY-SCH-F_FL=STORY 3_SCH=A,SizingPeriod: FORT MCMURRAY AP ANN HTG 99.6% CONDNS DB,9.2344331130E-002,0.3472299939,Pass,Pass,0.2346903539,1.3696256369,Pass,Pass
 Warmup Convergence Information,WILD_ST=STAIRWAY-SCH-G_FL=STORY 1_SCH=A,SizingPeriod: FORT MCMURRAY AP ANN HTG 99.6% CONDNS DB,4.9650156115E-002,0.1345297880,Pass,Pass,0.1693684434,0.7947239706,Pass,Pass
 Warmup Convergence Information,WILD_ST=STAIRWAY-SCH-H_FL=STORY 4_SCH=A,SizingPeriod: FORT MCMURRAY AP ANN HTG 99.6% CONDNS DB,0.1046055104,0.3874919776,Pass,Pass,0.7910418696,8.4463492796,Pass,Pass
 Warmup Convergence Information,WILD_ST=STAIRWAY-SCH-I_FL=STORY 3_SCH=A,SizingPeriod: FORT MCMURRAY AP ANN HTG 99.6% CONDNS DB,0.1044115724,0.3867895375,Pass,Pass,0.1423524667,0.4877494872,Pass,Pass
! <Program Control Information:Threads/Parallel Sims>, Threading Supported,Maximum Number of Threads, Env Set Threads (OMP_NUM_THREADS), EP Env Set Threads (EP_OMP_NUM_THREADS), IDF Set Threads, Number of Threads Used (Interior Radiant Exchange), Number Nominal Surfaces, Number Parallel Sims
Program Control:Threads/Parallel Sims, No,1, N/A, N/A, N/A, N/A, N/A, N/A
End of Data
