Program Version,EnergyPlus, Version 8.9.0-eba93e8e1b, YMD=2019.04.04 17:58
! <Version>, Version ID
 Version, 8.9
! <Timesteps per Hour>, #TimeSteps, Minutes per TimeStep {minutes}
 Timesteps per Hour,  6, 10
! <System Convergence Limits>, Minimum System TimeStep {minutes}, Max HVAC Iterations, Minimum Plant Iterations, Maximum Plant Iterations
 System Convergence Limits, 1, 20, 2, 8
! <Simulation Control>, Do Zone Sizing, Do System Sizing, Do Plant Sizing, Do Design Days, Do Weather Simulation, Do HVAC Sizing Simulation
 Simulation Control, Yes, Yes, Yes, Yes, No, No
! <Output Reporting Tolerances>, Tolerance for Time Heating Setpoint Not Met, Tolerance for Zone Cooling Setpoint Not Met Time
 Output Reporting Tolerances, 1.000, 1.000, 
! <Site:GroundTemperature:BuildingSurface>,Jan{C},Feb{C},Mar{C},Apr{C},May{C},Jun{C},Jul{C},Aug{C},Sep{C},Oct{C},Nov{C},Dec{C}
 Site:GroundTemperature:BuildingSurface,  19.53,  19.50,  19.54,  19.60,  20.00,  21.64,  22.23,  22.38,  21.45,  20.12,  19.80,  19.63
! <Site:GroundTemperature:FCfactorMethod>,Jan{C},Feb{C},Mar{C},Apr{C},May{C},Jun{C},Jul{C},Aug{C},Sep{C},Oct{C},Nov{C},Dec{C}
 Site:GroundTemperature:FCfactorMethod, -12.27, -13.66, -11.19,  -7.33,   2.77,  10.57,  15.83,  17.43,  14.70,   8.65,   0.56,  -6.95
! <Site:GroundTemperature:Shallow>,Jan{C},Feb{C},Mar{C},Apr{C},May{C},Jun{C},Jul{C},Aug{C},Sep{C},Oct{C},Nov{C},Dec{C}
 Site:GroundTemperature:Shallow,  13.00,  13.00,  13.00,  13.00,  13.00,  13.00,  13.00,  13.00,  13.00,  13.00,  13.00,  13.00
! <Site:GroundTemperature:Deep>,Jan{C},Feb{C},Mar{C},Apr{C},May{C},Jun{C},Jul{C},Aug{C},Sep{C},Oct{C},Nov{C},Dec{C}
 Site:GroundTemperature:Deep,  16.00,  16.00,  16.00,  16.00,  16.00,  16.00,  16.00,  16.00,  16.00,  16.00,  16.00,  16.00
! <Site:GroundReflectance>,Jan{dimensionless},Feb{dimensionless},Mar{dimensionless},Apr{dimensionless},May{dimensionless},Jun{dimensionless},Jul{dimensionless},Aug{dimensionless},Sep{dimensionless},Oct{dimensionless},Nov{dimensionless},Dec{dimensionless}
 Site:GroundReflectance,  0.20,  0.20,  0.20,  0.20,  0.20,  0.20,  0.20,  0.20,  0.20,  0.20,  0.20,  0.20
! <Site:GroundReflectance:SnowModifier>, Normal, Daylighting {dimensionless}
 Site:GroundReflectance:SnowModifier,   1.000,   1.000
! <Site:GroundReflectance:Snow>,Jan{dimensionless},Feb{dimensionless},Mar{dimensionless},Apr{dimensionless},May{dimensionless},Jun{dimensionless},Jul{dimensionless},Aug{dimensionless},Sep{dimensionless},Oct{dimensionless},Nov{dimensionless},Dec{dimensionless}
 Site:GroundReflectance:Snow,  0.20,  0.20,  0.20,  0.20,  0.20,  0.20,  0.20,  0.20,  0.20,  0.20,  0.20,  0.20
! <Site:GroundReflectance:Snow:Daylighting>,Jan{dimensionless},Feb{dimensionless},Mar{dimensionless},Apr{dimensionless},May{dimensionless},Jun{dimensionless},Jul{dimensionless},Aug{dimensionless},Sep{dimensionless},Oct{dimensionless},Nov{dimensionless},Dec{dimensionless}
 Site:GroundReflectance:Snow:Daylighting,  0.20,  0.20,  0.20,  0.20,  0.20,  0.20,  0.20,  0.20,  0.20,  0.20,  0.20,  0.20
! <Environment:Weather Station>,Wind Sensor Height Above Ground {m},Wind Speed Profile Exponent {},Wind Speed Profile Boundary Layer Thickness {m},Air Temperature Sensor Height Above Ground {m},Wind Speed Modifier Coefficient-Internal,Temperature Modifier Coefficient-Internal
Environment:Weather Station,10.000,0.140,270.000,1.500,1.586,9.750E-003
! <Site:Location>, Location Name, Latitude {N+/S- Deg}, Longitude {E+/W- Deg},  Time Zone Number {GMT+/-}, Elevation {m},  Standard Pressure at Elevation {Pa}, Standard RhoAir at Elevation
Site:Location,Fort McMurray AP AB CAN CWEC2016 WMO#=716890,56.65,-111.22,-7.00,369.10,96969,1.1525
! <Building Information>, Building Name,North Axis {deg},Terrain,  Loads Convergence Tolerance Value,Temperature Convergence Tolerance Value,  Solar Distribution,Maximum Number of Warmup Days,Minimum Number of Warmup Days
 Building Information,Building 1,0.000,Suburbs,4.00000E-002,0.40000,FullExterior,25,6
! <Inside Convection Algorithm>, Algorithm {Simple | TARP | CeilingDiffuser | AdaptiveConvectionAlgorithm}
Inside Convection Algorithm,TARP
! <Outside Convection Algorithm>, Algorithm {SimpleCombined | TARP | MoWitt | DOE-2 | AdaptiveConvectionAlgorithm}
Outside Convection Algorithm,TARP
! <Sky Radiance Distribution>, Value {Anisotropic}
Sky Radiance Distribution,Anisotropic
! <Zone Air Solution Algorithm>, Value {ThirdOrderBackwardDifference | AnalyticalSolution | EulerMethod}
 Zone Air Solution Algorithm, ThirdOrderBackwardDifference
! <Zone Air Carbon Dioxide Balance Simulation>, Simulation {Yes/No}, Carbon Dioxide Concentration
 Zone Air Carbon Dioxide Balance Simulation, No,N/A
! <Zone Air Generic Contaminant Balance Simulation>, Simulation {Yes/No}, Generic Contaminant Concentration
 Zone Air Generic Contaminant Balance Simulation, No,N/A
! <Zone Air Mass Flow Balance Simulation>, Enforce Mass Balance, Adjust Zone Mixing, Adjust Zone Infiltration {AddInfiltration | AdjustInfiltration | None}, Infiltration Zones {MixingSourceZonesOnly | AllZones}
 Zone Air Mass Flow Balance Simulation, No,N/A,N/A,N/A
! <HVACSystemRootFindingAlgorithm>, Value {RegulaFalsi | Bisection | BisectionThenRegulaFalsi | RegulaFalsiThenBisection}
 HVACSystemRootFindingAlgorithm, RegulaFalsi
! <Environment:Site Atmospheric Variation>,Wind Speed Profile Exponent {},Wind Speed Profile Boundary Layer Thickness {m},Air Temperature Gradient Coefficient {K/m}
Environment:Site Atmospheric Variation,0.220,370.000,6.500000E-003
! <Surface Geometry>,Starting Corner,Vertex Input Direction,Coordinate System,Daylight Reference Point Coordinate System,Rectangular (Simple) Surface Coordinate System
 Surface Geometry,UpperLeftCorner,Counterclockwise,RelativeCoordinateSystem,RelativeCoordinateSystem,RelativeToZoneOrigin
! <Surface Heat Transfer Algorithm>, Value {CTF - ConductionTransferFunction | EMPD - MoisturePenetrationDepthConductionTransferFunction | CondFD - ConductionFiniteDifference | HAMT - CombinedHeatAndMoistureFiniteElement} - Description,Inside Surface Max Temperature Limit{C}, Surface Convection Coefficient Lower Limit {W/m2-K}, Surface Convection Coefficient Upper Limit {W/m2-K}
Surface Heat Transfer Algorithm, CTF - ConductionTransferFunction,200,0.10,1000.0
! <Shading Summary>, Number of Fixed Detached Shades, Number of Building Detached Shades, Number of Attached Shades
 Shading Summary,0,0,0
! <Zone Summary>, Number of Zones, Number of Zone Surfaces, Number of SubSurfaces
 Zone Summary,5,30,0
! <Zone Information>,Zone Name,North Axis {deg},Origin X-Coordinate {m},Origin Y-Coordinate {m},Origin Z-Coordinate {m},Centroid X-Coordinate {m},Centroid Y-Coordinate {m},Centroid Z-Coordinate {m},Type,Zone Multiplier,Zone List Multiplier,Minimum X {m},Maximum X {m},Minimum Y {m},Maximum Y {m},Minimum Z {m},Maximum Z {m},Ceiling Height {m},Volume {m3},Zone Inside Convection Algorithm {Simple-Detailed-CeilingDiffuser-TrombeWall},Zone Outside Convection Algorithm {Simple-Detailed-Tarp-MoWitt-DOE-2-BLAST}, Floor Area {m2},Exterior Gross Wall Area {m2},Exterior Net Wall Area {m2},Exterior Window Area {m2}, Number of Surfaces, Number of SubSurfaces, Number of Shading SubSurfaces,  Part of Total Building Area
 Zone Information, ALL_ST=SPORTS ARENA - COURT C4_FL=STORY 1_SCH=B,0.0,25.00,25.00,0.00,50.00,50.00,1.90,1,1,1,25.00,75.00,25.00,75.00,0.00,3.80,3.80,9500.00,TARP,TARP,2500.00,0.00,0.00,0.00,6,0,0,Yes
 Zone Information, ALL_ST=SPORTS ARENA - RING_FL=STORY 1_SCH=B,0.0,0.00,0.00,0.00,50.00,10.85,1.90,1,1,1,0.00,100.00,0.00,25.00,0.00,3.80,3.80,7125.00,TARP,TARP,1875.00,0.00,0.00,0.00,6,0,0,Yes
 Zone Information, ALL_ST=STORAGE AREA - OCCSENS_FL=STORY 1_SCH=E,0.0,25.00,75.00,0.00,50.00,89.15,1.90,1,1,1,0.00,100.00,75.00,100.00,0.00,3.80,3.80,7125.00,TARP,TARP,1875.00,0.00,0.00,0.00,6,0,0,Yes
 Zone Information, ALL_ST=STORAGE AREA - REFRIGERATED_FL=STORY 1_SCH=E,0.0,0.00,0.00,0.00,10.85,50.00,1.90,1,1,1,0.00,25.00,0.00,100.00,0.00,3.80,3.80,7125.00,TARP,TARP,1875.00,0.00,0.00,0.00,6,0,0,Yes
 Zone Information, ALL_ST=STORAGE AREA_FL=STORY 1_SCH=E,0.0,75.00,25.00,0.00,89.15,50.00,1.90,1,1,1,75.00,100.00,0.00,100.00,0.00,3.80,3.80,7125.00,TARP,TARP,1875.00,0.00,0.00,0.00,6,0,0,Yes
! <Zone Internal Gains Nominal>,Zone Name, Floor Area {m2},# Occupants,Area per Occupant {m2/person},Occupant per Area {person/m2},Interior Lighting {W/m2},Electric Load {W/m2},Gas Load {W/m2},Other Load {W/m2},Hot Water Eq {W/m2},Steam Equipment {W/m2},Sum Loads per Area {W/m2},Outdoor Controlled Baseboard Heat
 Zone Internal Gains Nominal, ALL_ST=SPORTS ARENA - COURT C4_FL=STORY 1_SCH=B,2500.00,500.0,5.000,0.200,7.800,1.500,0.000,0.000,0.000,0.000,9.300,No
 Zone Internal Gains Nominal, ALL_ST=SPORTS ARENA - RING_FL=STORY 1_SCH=B,1875.00,375.0,5.000,0.200,28.800,1.500,0.000,0.000,0.000,0.000,30.300,No
 Zone Internal Gains Nominal, ALL_ST=STORAGE AREA - OCCSENS_FL=STORY 1_SCH=E,1875.00,18.8,99.896,1.001E-002,6.120,1.000,0.000,0.000,0.000,0.000,7.120,No
 Zone Internal Gains Nominal, ALL_ST=STORAGE AREA - REFRIGERATED_FL=STORY 1_SCH=E,1875.00,18.8,99.896,1.001E-002,6.800,1.000,0.000,0.000,0.000,0.000,7.800,No
 Zone Internal Gains Nominal, ALL_ST=STORAGE AREA_FL=STORY 1_SCH=E,1875.00,18.8,99.896,1.001E-002,6.800,1.000,0.000,0.000,0.000,0.000,7.800,No
! <People Internal Gains Nominal>,Name,Schedule Name,Zone Name,Zone Floor Area {m2},# Zone Occupants,Number of People {},People/Floor Area {person/m2},Floor Area per person {m2/person},Fraction Radiant,Fraction Convected,Sensible Fraction Calculation,Activity level,ASHRAE 55 Warnings,Carbon Dioxide Generation Rate,Nominal Minimum Number of People,Nominal Maximum Number of People
 People Internal Gains Nominal, ALL_ST=SPORTS ARENA - COURT C4_FL=STORY 1_SCH=B SPACE FUNCTION SPORTS ARENA - COURT C4 PEOPLE,NECB-B-OCCUPANCY,ALL_ST=SPORTS ARENA - COURT C4_FL=STORY 1_SCH=B,2500.00,500.0,500.0,0.200,5.000,0.300,0.700,AutoCalculate,NECB-ACTIVITY,No,3.8200E-008,0,450
 People Internal Gains Nominal, ALL_ST=SPORTS ARENA - RING_FL=STORY 1_SCH=B SPACE FUNCTION SPORTS ARENA - RING PEOPLE,NECB-B-OCCUPANCY,ALL_ST=SPORTS ARENA - RING_FL=STORY 1_SCH=B,1875.00,375.0,375.0,0.200,5.000,0.300,0.700,AutoCalculate,NECB-ACTIVITY,No,3.8200E-008,0,337
 People Internal Gains Nominal, ALL_ST=STORAGE AREA_FL=STORY 1_SCH=E SPACE FUNCTION STORAGE AREA PEOPLE,NECB-E-OCCUPANCY,ALL_ST=STORAGE AREA_FL=STORY 1_SCH=E,1875.00,18.8,18.8,1.001E-002,99.896,0.300,0.700,AutoCalculate,NECB-ACTIVITY,No,3.8200E-008,0,17
 People Internal Gains Nominal, ALL_ST=STORAGE AREA - OCCSENS_FL=STORY 1_SCH=E SPACE FUNCTION STORAGE AREA - OCCSENS PEOPLE,NECB-E-OCCUPANCY,ALL_ST=STORAGE AREA - OCCSENS_FL=STORY 1_SCH=E,1875.00,18.8,18.8,1.001E-002,99.896,0.300,0.700,AutoCalculate,NECB-ACTIVITY,No,3.8200E-008,0,17
 People Internal Gains Nominal, ALL_ST=STORAGE AREA - REFRIGERATED_FL=STORY 1_SCH=E SPACE FUNCTION STORAGE AREA - REFRIGERATED PEOPLE,NECB-E-OCCUPANCY,ALL_ST=STORAGE AREA - REFRIGERATED_FL=STORY 1_SCH=E,1875.00,18.8,18.8,1.001E-002,99.896,0.300,0.700,AutoCalculate,NECB-ACTIVITY,No,3.8200E-008,0,17
! <Lights Internal Gains Nominal>,Name,Schedule Name,Zone Name,Zone Floor Area {m2},# Zone Occupants,Lighting Level {W},Lights/Floor Area {W/m2},Lights per person {W/person},Fraction Return Air,Fraction Radiant,Fraction Short Wave,Fraction Convected,Fraction Replaceable,End-Use Category,Nominal Minimum Lighting Level {W},Nominal Maximum Lighting Level {W}
 Lights Internal Gains Nominal, ALL_ST=SPORTS ARENA - COURT C4_FL=STORY 1_SCH=B SPACE FUNCTION SPORTS ARENA - COURT C4 LIGHTS,NECB-B-LIGHTING,ALL_ST=SPORTS ARENA - COURT C4_FL=STORY 1_SCH=B,2500.00,500.0,19499.838,7.800,39.001,0.000,0.500,0.200,0.300,1.000,General,1949.984,17549.854
 Lights Internal Gains Nominal, ALL_ST=SPORTS ARENA - RING_FL=STORY 1_SCH=B SPACE FUNCTION SPORTS ARENA - RING LIGHTS,NECB-B-LIGHTING,ALL_ST=SPORTS ARENA - RING_FL=STORY 1_SCH=B,1875.00,375.0,53999.551,28.800,144.004,0.000,0.500,0.200,0.300,1.000,General,5399.955,48599.596
 Lights Internal Gains Nominal, ALL_ST=STORAGE AREA_FL=STORY 1_SCH=E SPACE FUNCTION STORAGE AREA LIGHTS,NECB-E-LIGHTING,ALL_ST=STORAGE AREA_FL=STORY 1_SCH=E,1875.00,18.8,12749.894,6.800,679.285,0.000,0.500,0.200,0.300,1.000,General,637.495,11474.904
 Lights Internal Gains Nominal, ALL_ST=STORAGE AREA - OCCSENS_FL=STORY 1_SCH=E SPACE FUNCTION STORAGE AREA - OCCSENS LIGHTS,NECB-E-LIGHTING,ALL_ST=STORAGE AREA - OCCSENS_FL=STORY 1_SCH=E,1875.00,18.8,11474.905,6.120,611.357,0.000,0.500,0.200,0.300,1.000,General,573.745,10327.414
 Lights Internal Gains Nominal, ALL_ST=STORAGE AREA - REFRIGERATED_FL=STORY 1_SCH=E SPACE FUNCTION STORAGE AREA - REFRIGERATED LIGHTS,NECB-E-LIGHTING,ALL_ST=STORAGE AREA - REFRIGERATED_FL=STORY 1_SCH=E,1875.00,18.8,12749.894,6.800,679.285,0.000,0.500,0.200,0.300,1.000,General,637.495,11474.904
! <ElectricEquipment Internal Gains Nominal>,Name,Schedule Name,Zone Name,Zone Floor Area {m2},# Zone Occupants,Equipment Level {W},Equipment/Floor Area {W/m2},Equipment per person {W/person},Fraction Latent,Fraction Radiant,Fraction Lost,Fraction Convected,End-Use SubCategory,Nominal Minimum Equipment Level {W},Nominal Maximum Equipment Level {W}
 ElectricEquipment Internal Gains Nominal, ALL_ST=SPORTS ARENA - COURT C4_FL=STORY 1_SCH=B SPACE FUNCTION SPORTS ARENA - COURT C4 ELEC EQUIP,NECB-B-ELECTRIC-EQUIPMENT,ALL_ST=SPORTS ARENA - COURT C4_FL=STORY 1_SCH=B,2500.00,500.0,3749.969,1.500,7.500,0.000,0.500,0.000,0.500,General,374.997,3374.972
 ElectricEquipment Internal Gains Nominal, ALL_ST=SPORTS ARENA - RING_FL=STORY 1_SCH=B SPACE FUNCTION SPORTS ARENA - RING ELEC EQUIP,NECB-B-ELECTRIC-EQUIPMENT,ALL_ST=SPORTS ARENA - RING_FL=STORY 1_SCH=B,1875.00,375.0,2812.477,1.500,7.500,0.000,0.500,0.000,0.500,General,281.248,2531.229
 ElectricEquipment Internal Gains Nominal, ALL_ST=STORAGE AREA_FL=STORY 1_SCH=E SPACE FUNCTION STORAGE AREA ELEC EQUIP,NECB-E-ELECTRIC-EQUIPMENT,ALL_ST=STORAGE AREA_FL=STORY 1_SCH=E,1875.00,18.8,1874.984,1.000,99.895,0.000,0.500,0.000,0.500,General,93.749,1687.486
 ElectricEquipment Internal Gains Nominal, ALL_ST=STORAGE AREA - OCCSENS_FL=STORY 1_SCH=E SPACE FUNCTION STORAGE AREA - OCCSENS ELEC EQUIP,NECB-E-ELECTRIC-EQUIPMENT,ALL_ST=STORAGE AREA - OCCSENS_FL=STORY 1_SCH=E,1875.00,18.8,1874.984,1.000,99.895,0.000,0.500,0.000,0.500,General,93.749,1687.486
 ElectricEquipment Internal Gains Nominal, ALL_ST=STORAGE AREA - REFRIGERATED_FL=STORY 1_SCH=E SPACE FUNCTION STORAGE AREA - REFRIGERATED ELEC EQUIP,NECB-E-ELECTRIC-EQUIPMENT,ALL_ST=STORAGE AREA - REFRIGERATED_FL=STORY 1_SCH=E,1875.00,18.8,1874.984,1.000,99.895,0.000,0.500,0.000,0.500,General,93.749,1687.486
! <Shadowing/Sun Position Calculations Annual Simulations>, Calculation Method, Value {days}, Allowable Number Figures in Shadow Overlap {}, Polygon Clipping Algorithm, Sky Diffuse Modeling Algorithm, External Shading Calculation Method, Output External Shading Calculation Results, Disable Self-Shading Within Shading Zone Groups, Disable Self-Shading From Shading Zone Groups to Other Zones
Shadowing/Sun Position Calculations Annual Simulations,AverageOverDaysInFrequency,20,15000,SutherlandHodgman,SimpleSkyDiffuseModeling,InternalCalculation,No,No,No
! <Water Heater Information>,Type,Name,Volume {m3},Maximum Capacity {W},Standard Rated Recovery Efficiency, Standard Rated Energy Factor
! <RoomAir Model>, Zone Name, Mixing/Mundt/UCSDDV/UCSDCV/UCSDUFI/UCSDUFE/User Defined
RoomAir Model,ALL_ST=SPORTS ARENA - COURT C4_FL=STORY 1_SCH=B,Mixing/Well-Stirred
RoomAir Model,ALL_ST=SPORTS ARENA - RING_FL=STORY 1_SCH=B,Mixing/Well-Stirred
RoomAir Model,ALL_ST=STORAGE AREA - OCCSENS_FL=STORY 1_SCH=E,Mixing/Well-Stirred
RoomAir Model,ALL_ST=STORAGE AREA - REFRIGERATED_FL=STORY 1_SCH=E,Mixing/Well-Stirred
RoomAir Model,ALL_ST=STORAGE AREA_FL=STORY 1_SCH=E,Mixing/Well-Stirred
! <AirflowNetwork Model:Control>, No Multizone or Distribution/Multizone with Distribution/Multizone without Distribution/Multizone with Distribution only during Fan Operation
AirflowNetwork Model:Control,NoMultizoneOrDistribution
! <Zone Volume Capacitance Multiplier>, Sensible Heat Capacity Multiplier, Moisture Capacity Multiplier, Carbon Dioxide Capacity Multiplier, Generic Contaminant Capacity Multiplier
Zone Volume Capacitance Multiplier,   1.000 ,   1.000,   1.000,   1.000
! <Load Timesteps in Zone Design Calculation Averaging Window>, Value
 Load Timesteps in Zone Design Calculation Averaging Window,    6
! <Heating Sizing Factor Information>, Sizing Factor ID, Value
 Heating Sizing Factor Information, Global,   1.3000    
 Heating Sizing Factor Information, Zone ALL_ST=SPORTS ARENA - COURT C4_FL=STORY 1_SCH=B,   1.3000    
 Heating Sizing Factor Information, Zone ALL_ST=SPORTS ARENA - RING_FL=STORY 1_SCH=B,   1.3000    
 Heating Sizing Factor Information, Zone ALL_ST=STORAGE AREA - OCCSENS_FL=STORY 1_SCH=E,   1.3000    
 Heating Sizing Factor Information, Zone ALL_ST=STORAGE AREA - REFRIGERATED_FL=STORY 1_SCH=E,   1.3000    
 Heating Sizing Factor Information, Zone ALL_ST=STORAGE AREA_FL=STORY 1_SCH=E,   1.3000    
! <Cooling Sizing Factor Information>, Sizing Factor ID, Value
 Cooling Sizing Factor Information, Global,   1.1000    
 Cooling Sizing Factor Information, Zone ALL_ST=SPORTS ARENA - COURT C4_FL=STORY 1_SCH=B,   1.1000    
 Cooling Sizing Factor Information, Zone ALL_ST=SPORTS ARENA - RING_FL=STORY 1_SCH=B,   1.1000    
 Cooling Sizing Factor Information, Zone ALL_ST=STORAGE AREA - OCCSENS_FL=STORY 1_SCH=E,   1.1000    
 Cooling Sizing Factor Information, Zone ALL_ST=STORAGE AREA - REFRIGERATED_FL=STORY 1_SCH=E,   1.1000    
 Cooling Sizing Factor Information, Zone ALL_ST=STORAGE AREA_FL=STORY 1_SCH=E,   1.1000    
! <Zone Sizing Information>, Zone Name, Load Type, Calc Des Load {W}, User Des Load {W}, Calc Des Air Flow Rate {m3/s}, User Des Air Flow Rate {m3/s}, Design Day Name, Date/Time of Peak, Temperature at Peak {C}, Humidity Ratio at Peak {kgWater/kgDryAir}, Floor Area {m2}, # Occupants, Calc Outdoor Air Flow Rate {m3/s}, Calc DOAS Heat Addition Rate {W}
 Zone Sizing Information, ALL_ST=SPORTS ARENA - COURT C4_FL=STORY 1_SCH=B, Cooling, 42605.68296, 46866.25126, 3.29388, 3.81000, FORT MCMURRAY AP ANN CLG .4% CONDNS DB=>MWB, 7/21 13:00:00, 28.28000, 8.76969E-003, 2500.00000, 499.98364, 3.81000, 0.00000
 Zone Sizing Information, ALL_ST=SPORTS ARENA - COURT C4_FL=STORY 1_SCH=B, Heating, 4978.87653, 6472.53949, 0.19319, 3.81000, FORT MCMURRAY AP ANN HTG 99.6% CONDNS DB, 1/21 09:10:00, -36.20000, 1.25811E-004, 2500.00000, 499.98364, 3.81000, 0.00000
 Zone Sizing Information, ALL_ST=SPORTS ARENA - RING_FL=STORY 1_SCH=B, Cooling, 60824.47525, 66906.92277, 4.70217, 5.17239, FORT MCMURRAY AP ANN CLG .4% CONDNS DB=>MWB, 7/21 13:00:00, 28.28000, 8.76969E-003, 1875.00000, 374.98773, 2.85750, 0.00000
 Zone Sizing Information, ALL_ST=SPORTS ARENA - RING_FL=STORY 1_SCH=B, Heating, 0.00000, 0.00000, 0.00000, 2.85750, FORT MCMURRAY AP ANN HTG 99.6% CONDNS DB, , -36.20000, 1.25811E-004, 1875.00000, 374.98773, 2.85750, 0.00000
 Zone Sizing Information, ALL_ST=STORAGE AREA - OCCSENS_FL=STORY 1_SCH=E, Cooling, 8549.08450, 9403.99295, 0.66071, 0.72678, FORT MCMURRAY AP ANN CLG .4% CONDNS DB=>MWB, 7/21 14:00:00, 28.90000, 8.76969E-003, 1875.00000, 18.76957, 0.66675, 0.00000
 Zone Sizing Information, ALL_ST=STORAGE AREA - OCCSENS_FL=STORY 1_SCH=E, Heating, 6777.62567, 8810.91337, 0.25516, 0.66675, FORT MCMURRAY AP ANN HTG 99.6% CONDNS DB, 1/21 08:10:00, -36.20000, 1.25811E-004, 1875.00000, 18.76957, 0.66675, 0.00000
 Zone Sizing Information, ALL_ST=STORAGE AREA - REFRIGERATED_FL=STORY 1_SCH=E, Cooling, 10082.14040, 11090.35444, 0.77919, 0.85711, FORT MCMURRAY AP ANN CLG .4% CONDNS DB=>MWB, 7/21 14:00:00, 28.90000, 8.76969E-003, 1875.00000, 18.76957, 0.66675, 0.00000
 Zone Sizing Information, ALL_ST=STORAGE AREA - REFRIGERATED_FL=STORY 1_SCH=E, Heating, 5779.26612, 7513.04595, 0.21984, 0.66675, FORT MCMURRAY AP ANN HTG 99.6% CONDNS DB, 1/21 08:10:00, -36.20000, 1.25811E-004, 1875.00000, 18.76957, 0.66675, 0.00000
 Zone Sizing Information, ALL_ST=STORAGE AREA_FL=STORY 1_SCH=E, Cooling, 10082.14040, 11090.35444, 0.77919, 0.85711, FORT MCMURRAY AP ANN CLG .4% CONDNS DB=>MWB, 7/21 14:00:00, 28.90000, 8.76969E-003, 1875.00000, 18.76957, 0.66675, 0.00000
 Zone Sizing Information, ALL_ST=STORAGE AREA_FL=STORY 1_SCH=E, Heating, 5779.26612, 7513.04595, 0.21984, 0.66675, FORT MCMURRAY AP ANN HTG 99.6% CONDNS DB, 1/21 08:10:00, -36.20000, 1.25811E-004, 1875.00000, 18.76957, 0.66675, 0.00000
! <System Sizing Information>, System Name, Load Type, Peak Load Kind, User Design Capacity, Calc Des Air Flow Rate [m3/s], User Des Air Flow Rate [m3/s], Design Day Name, Date/Time of Peak
 System Sizing Information, SYS_3_PSZ ALL_ST=SPORTS ARENA - COURT C4_FL=STORY 1_SCH=B, Cooling, Sensible, 67422.75, 3.81000, 3.81000, FORT MCMURRAY AP ANN CLG .4% CONDNS DB=>MWB, 7/21 05:00:00
 System Sizing Information, SYS_3_PSZ ALL_ST=SPORTS ARENA - COURT C4_FL=STORY 1_SCH=B, Heating, Sensible, 349468.69, 3.81000, 3.81000, FORT MCMURRAY AP ANN HTG 99.6% CONDNS DB, 1/21 00:10:00
 System Sizing Information, SYS_3_PSZ ALL_ST=SPORTS ARENA - RING_FL=STORY 1_SCH=B, Cooling, Sensible, 80048.07, 5.17239, 5.17239, FORT MCMURRAY AP ANN CLG .4% CONDNS DB=>MWB, 7/21 05:00:00
 System Sizing Information, SYS_3_PSZ ALL_ST=SPORTS ARENA - RING_FL=STORY 1_SCH=B, Heating, Sensible, 262101.52, 2.85750, 2.85750, FORT MCMURRAY AP ANN HTG 99.6% CONDNS DB, 1/21 00:10:00
 System Sizing Information, SYS_4_PSZ_ALL_ST=STORAGE AREA_FL=STORY 1_SCH=E, Cooling, Sensible, 42448.06, 2.44101, 2.44101, FORT MCMURRAY AP ANN CLG .4% CONDNS DB=>MWB, 7/21 05:00:00
 System Sizing Information, SYS_4_PSZ_ALL_ST=STORAGE AREA_FL=STORY 1_SCH=E, Heating, Sensible, 183471.06, 2.00025, 2.00025, FORT MCMURRAY AP ANN HTG 99.6% CONDNS DB, 1/21 00:10:00
! <Component Sizing Information>, Component Type, Component Name, Input Field Description, Value
 Component Sizing Information, AirTerminal:SingleDuct:Uncontrolled, AIR TERMINAL SINGLE DUCT UNCONTROLLED 4, Design Size Maximum Air Flow Rate [m3/s], 3.81000
 Component Sizing Information, ZoneHVAC:Baseboard:Convective:Water, ZONE HVAC BASEBOARD CONVECTIVE WATER 4, Design Size Maximum Water Flow Rate [m3/s], 9.66726E-005
 Component Sizing Information, ZoneHVAC:Baseboard:Convective:Water, ZONE HVAC BASEBOARD CONVECTIVE WATER 4, Design Size U-Factor Times Area Value [W/K], 131.03807
 Component Sizing Information, AirTerminal:SingleDuct:Uncontrolled, AIR TERMINAL SINGLE DUCT UNCONTROLLED 5, Design Size Maximum Air Flow Rate [m3/s], 5.17239
 Component Sizing Information, ZoneHVAC:Baseboard:Convective:Water, ZONE HVAC BASEBOARD CONVECTIVE WATER 5, Design Size Maximum Water Flow Rate [m3/s], 0.00000
 Component Sizing Information, ZoneHVAC:Baseboard:Convective:Water, ZONE HVAC BASEBOARD CONVECTIVE WATER 5, Design Size U-Factor Times Area Value [W/K], 0.00000
 Component Sizing Information, AirTerminal:SingleDuct:Uncontrolled, AIR TERMINAL SINGLE DUCT UNCONTROLLED 2, Design Size Maximum Air Flow Rate [m3/s], 0.72678
 Component Sizing Information, ZoneHVAC:Baseboard:Convective:Water, ZONE HVAC BASEBOARD CONVECTIVE WATER 2, Design Size Maximum Water Flow Rate [m3/s], 1.31598E-004
 Component Sizing Information, ZoneHVAC:Baseboard:Convective:Water, ZONE HVAC BASEBOARD CONVECTIVE WATER 2, Design Size U-Factor Times Area Value [W/K], 172.07147
 Component Sizing Information, AirTerminal:SingleDuct:Uncontrolled, AIR TERMINAL SINGLE DUCT UNCONTROLLED 3, Design Size Maximum Air Flow Rate [m3/s], 0.85711
 Component Sizing Information, ZoneHVAC:Baseboard:Convective:Water, ZONE HVAC BASEBOARD CONVECTIVE WATER 3, Design Size Maximum Water Flow Rate [m3/s], 1.12213E-004
 Component Sizing Information, ZoneHVAC:Baseboard:Convective:Water, ZONE HVAC BASEBOARD CONVECTIVE WATER 3, Design Size U-Factor Times Area Value [W/K], 146.83881
 Component Sizing Information, AirTerminal:SingleDuct:Uncontrolled, AIR TERMINAL SINGLE DUCT UNCONTROLLED 1, Design Size Maximum Air Flow Rate [m3/s], 0.85711
 Component Sizing Information, ZoneHVAC:Baseboard:Convective:Water, ZONE HVAC BASEBOARD CONVECTIVE WATER 1, Design Size Maximum Water Flow Rate [m3/s], 1.12213E-004
 Component Sizing Information, ZoneHVAC:Baseboard:Convective:Water, ZONE HVAC BASEBOARD CONVECTIVE WATER 1, Design Size U-Factor Times Area Value [W/K], 146.83881
 Component Sizing Information, AirLoopHVAC, SYS_3_PSZ ALL_ST=SPORTS ARENA - COURT C4_FL=STORY 1_SCH=B, Sum of Air Terminal Maximum Heating Flow Rates [m3/s], 3.81000
 Component Sizing Information, AirLoopHVAC, SYS_3_PSZ ALL_ST=SPORTS ARENA - COURT C4_FL=STORY 1_SCH=B, Sum of Air Terminal Minimum Heating Flow Rates [m3/s], 3.81000
 Component Sizing Information, AirLoopHVAC, SYS_3_PSZ ALL_ST=SPORTS ARENA - COURT C4_FL=STORY 1_SCH=B, Sum of Air Terminal Maximum Flow Rates [m3/s], 3.81000
 Component Sizing Information, AirLoopHVAC, SYS_3_PSZ ALL_ST=SPORTS ARENA - COURT C4_FL=STORY 1_SCH=B, Adjusted Heating Design Air Flow Rate [m3/s], 3.81000
 Component Sizing Information, AirLoopHVAC, SYS_3_PSZ ALL_ST=SPORTS ARENA - COURT C4_FL=STORY 1_SCH=B, Adjusted Cooling Design Air Flow Rate [m3/s], 3.81000
 Component Sizing Information, AirLoopHVAC, SYS_3_PSZ ALL_ST=SPORTS ARENA - COURT C4_FL=STORY 1_SCH=B, Adjusted Main Design Air Flow Rate [m3/s], 3.81000
 Component Sizing Information, AirLoopHVAC, SYS_3_PSZ ALL_ST=SPORTS ARENA - COURT C4_FL=STORY 1_SCH=B, User Heating Air Flow Ratio [], 1.00000
 Component Sizing Information, AirLoopHVAC, SYS_3_PSZ ALL_ST=SPORTS ARENA - COURT C4_FL=STORY 1_SCH=B, Calculated Heating Air Flow Ratio [], 1.00000
 Component Sizing Information, AirLoopHVAC, SYS_3_PSZ ALL_ST=SPORTS ARENA - RING_FL=STORY 1_SCH=B, Sum of Air Terminal Maximum Heating Flow Rates [m3/s], 5.17239
 Component Sizing Information, AirLoopHVAC, SYS_3_PSZ ALL_ST=SPORTS ARENA - RING_FL=STORY 1_SCH=B, Sum of Air Terminal Minimum Heating Flow Rates [m3/s], 5.17239
 Component Sizing Information, AirLoopHVAC, SYS_3_PSZ ALL_ST=SPORTS ARENA - RING_FL=STORY 1_SCH=B, Sum of Air Terminal Maximum Flow Rates [m3/s], 5.17239
 Component Sizing Information, AirLoopHVAC, SYS_3_PSZ ALL_ST=SPORTS ARENA - RING_FL=STORY 1_SCH=B, Adjusted Heating Design Air Flow Rate [m3/s], 5.17239
 Component Sizing Information, AirLoopHVAC, SYS_3_PSZ ALL_ST=SPORTS ARENA - RING_FL=STORY 1_SCH=B, Adjusted Cooling Design Air Flow Rate [m3/s], 5.17239
 Component Sizing Information, AirLoopHVAC, SYS_3_PSZ ALL_ST=SPORTS ARENA - RING_FL=STORY 1_SCH=B, Adjusted Main Design Air Flow Rate [m3/s], 5.17239
 Component Sizing Information, AirLoopHVAC, SYS_3_PSZ ALL_ST=SPORTS ARENA - RING_FL=STORY 1_SCH=B, User Heating Air Flow Ratio [], 1.00000
 Component Sizing Information, AirLoopHVAC, SYS_3_PSZ ALL_ST=SPORTS ARENA - RING_FL=STORY 1_SCH=B, Calculated Heating Air Flow Ratio [], 1.00000
 Component Sizing Information, AirLoopHVAC, SYS_4_PSZ_ALL_ST=STORAGE AREA_FL=STORY 1_SCH=E, Sum of Air Terminal Maximum Heating Flow Rates [m3/s], 2.44101
 Component Sizing Information, AirLoopHVAC, SYS_4_PSZ_ALL_ST=STORAGE AREA_FL=STORY 1_SCH=E, Sum of Air Terminal Minimum Heating Flow Rates [m3/s], 2.44101
 Component Sizing Information, AirLoopHVAC, SYS_4_PSZ_ALL_ST=STORAGE AREA_FL=STORY 1_SCH=E, Sum of Air Terminal Maximum Flow Rates [m3/s], 2.44101
 Component Sizing Information, AirLoopHVAC, SYS_4_PSZ_ALL_ST=STORAGE AREA_FL=STORY 1_SCH=E, Adjusted Heating Design Air Flow Rate [m3/s], 2.44101
 Component Sizing Information, AirLoopHVAC, SYS_4_PSZ_ALL_ST=STORAGE AREA_FL=STORY 1_SCH=E, Adjusted Cooling Design Air Flow Rate [m3/s], 2.44101
 Component Sizing Information, AirLoopHVAC, SYS_4_PSZ_ALL_ST=STORAGE AREA_FL=STORY 1_SCH=E, Adjusted Main Design Air Flow Rate [m3/s], 2.44101
 Component Sizing Information, AirLoopHVAC, SYS_4_PSZ_ALL_ST=STORAGE AREA_FL=STORY 1_SCH=E, User Heating Air Flow Ratio [], 1.00000
 Component Sizing Information, AirLoopHVAC, SYS_4_PSZ_ALL_ST=STORAGE AREA_FL=STORY 1_SCH=E, Calculated Heating Air Flow Ratio [], 1.00000
 Component Sizing Information, AirLoopHVAC, SYS_3_PSZ ALL_ST=SPORTS ARENA - COURT C4_FL=STORY 1_SCH=B, Design Supply Air Flow Rate [m3/s], 3.81000
 Component Sizing Information, AirLoopHVAC, SYS_3_PSZ ALL_ST=SPORTS ARENA - RING_FL=STORY 1_SCH=B, Design Supply Air Flow Rate [m3/s], 5.17239
 Component Sizing Information, AirLoopHVAC, SYS_4_PSZ_ALL_ST=STORAGE AREA_FL=STORY 1_SCH=E, Design Supply Air Flow Rate [m3/s], 2.44101
!<Controller:MechanicalVentilation>,Name,Availability Schedule Name,Demand Controlled Ventilation {Yes/No},System Outdoor Air Method,Zone Maximum Outdoor Air Fraction,Number of Zones,Zone Name,DSOA Name,DSZAD Name
 Controller:MechanicalVentilation,CONTROLLER MECHANICAL VENTILATION 2,ALWAYS ON DISCRETE,No,ZoneSum,1.00,1,ALL_ST=SPORTS ARENA - COURT C4_FL=STORY 1_SCH=B,SPACE FUNCTION SPORTS ARENA - COURT C4 VENTILATION,ALL_ST=SPORTS ARENA - COURT C4_FL=STORY 1_SCH=B DESIGN SPEC ZONE AIR DIST
 Controller:MechanicalVentilation,CONTROLLER MECHANICAL VENTILATION 3,ALWAYS ON DISCRETE,No,ZoneSum,1.00,1,ALL_ST=SPORTS ARENA - RING_FL=STORY 1_SCH=B,SPACE FUNCTION SPORTS ARENA - RING VENTILATION,ALL_ST=SPORTS ARENA - RING_FL=STORY 1_SCH=B DESIGN SPEC ZONE AIR DIST
 Controller:MechanicalVentilation,CONTROLLER MECHANICAL VENTILATION 1,ALWAYS ON DISCRETE,No,ZoneSum,1.00,3,ALL_ST=STORAGE AREA - OCCSENS_FL=STORY 1_SCH=E,SPACE FUNCTION STORAGE AREA - OCCSENS VENTILATION,ALL_ST=STORAGE AREA - OCCSENS_FL=STORY 1_SCH=E DESIGN SPEC ZONE AIR DIST,ALL_ST=STORAGE AREA - REFRIGERATED_FL=STORY 1_SCH=E,SPACE FUNCTION STORAGE AREA - REFRIGERATED VENTILATION,ALL_ST=STORAGE AREA - REFRIGERATED_FL=STORY 1_SCH=E DESIGN SPEC ZONE AIR DIST,ALL_ST=STORAGE AREA_FL=STORY 1_SCH=E,SPACE FUNCTION STORAGE AREA VENTILATION,ALL_ST=STORAGE AREA_FL=STORY 1_SCH=E DESIGN SPEC ZONE AIR DIST
 Component Sizing Information, Controller:OutdoorAir, CONTROLLER OUTDOOR AIR 2, Maximum Outdoor Air Flow Rate [m3/s], 3.81000
 Component Sizing Information, Controller:OutdoorAir, CONTROLLER OUTDOOR AIR 2, Minimum Outdoor Air Flow Rate [m3/s], 3.81000
 Component Sizing Information, Coil:Cooling:DX:SingleSpeed, COIL COOLING DX SINGLE SPEED 2, Design Size Rated Air Flow Rate [m3/s], 3.81000
 Component Sizing Information, Coil:Cooling:DX:SingleSpeed, COIL COOLING DX SINGLE SPEED 2, Design Size Gross Rated Total Cooling Capacity [W], 69289.58011
 Component Sizing Information, Coil:Cooling:DX:SingleSpeed, COIL COOLING DX SINGLE SPEED 2, Design Size Gross Rated Sensible Heat Ratio, 0.80065
! <DX Cooling Coil Standard Rating Information>, Component Type, Component Name, Standard Rating (Net) Cooling Capacity {W}, Standard Rated Net COP {W/W}, EER {Btu/W-h}, SEER {Btu/W-h}, IEER {Btu/W-h}
 DX Cooling Coil Standard Rating Information, Coil:Cooling:DX:SingleSpeed, COIL COOLING DX SINGLE SPEED 2, 66332.2, 2.55, 8.69, 9.22, 8.91
 Component Sizing Information, Coil:Heating:Fuel, COIL HEATING GAS 2, Design Size Nominal Capacity [W], 349468.69312
 Component Sizing Information, Fan:ConstantVolume, FAN CONSTANT VOLUME 2, Design Size Maximum Flow Rate [m3/s], 3.81000
 Component Sizing Information, Controller:OutdoorAir, CONTROLLER OUTDOOR AIR 3, Maximum Outdoor Air Flow Rate [m3/s], 5.17239
 Component Sizing Information, Controller:OutdoorAir, CONTROLLER OUTDOOR AIR 3, Minimum Outdoor Air Flow Rate [m3/s], 2.85750
 Component Sizing Information, Coil:Cooling:DX:SingleSpeed, COIL COOLING DX SINGLE SPEED 3, Design Size Rated Air Flow Rate [m3/s], 5.17239
 Component Sizing Information, Coil:Cooling:DX:SingleSpeed, COIL COOLING DX SINGLE SPEED 3, Design Size Gross Rated Total Cooling Capacity [W], 91283.33709
 Component Sizing Information, Coil:Cooling:DX:SingleSpeed, COIL COOLING DX SINGLE SPEED 3, Design Size Gross Rated Sensible Heat Ratio, 0.80085
 DX Cooling Coil Standard Rating Information, Coil:Cooling:DX:SingleSpeed, COIL COOLING DX SINGLE SPEED 3, 87268.9, 2.53, 8.65, 9.18, 8.85
 Component Sizing Information, Coil:Heating:Fuel, COIL HEATING GAS 3, Design Size Nominal Capacity [W], 318401.48361
 Component Sizing Information, Fan:ConstantVolume, FAN CONSTANT VOLUME 3, Design Size Maximum Flow Rate [m3/s], 5.17239
 Component Sizing Information, Controller:OutdoorAir, CONTROLLER OUTDOOR AIR 1, Maximum Outdoor Air Flow Rate [m3/s], 2.44101
 Component Sizing Information, Controller:OutdoorAir, CONTROLLER OUTDOOR AIR 1, Minimum Outdoor Air Flow Rate [m3/s], 2.00025
 Component Sizing Information, Coil:Cooling:DX:SingleSpeed, COIL COOLING DX SINGLE SPEED 1, Design Size Rated Air Flow Rate [m3/s], 2.44101
 Component Sizing Information, Coil:Cooling:DX:SingleSpeed, COIL COOLING DX SINGLE SPEED 1, Design Size Gross Rated Total Cooling Capacity [W], 44357.07997
 Component Sizing Information, Coil:Cooling:DX:SingleSpeed, COIL COOLING DX SINGLE SPEED 1, Design Size Gross Rated Sensible Heat Ratio, 0.80092
 DX Cooling Coil Standard Rating Information, Coil:Cooling:DX:SingleSpeed, COIL COOLING DX SINGLE SPEED 1, 42461.1, 2.55, 8.69, 9.18, 8.83
 Component Sizing Information, Coil:Heating:Fuel, COIL HEATING GAS 1, Design Size Nominal Capacity [W], 194124.45046
 Component Sizing Information, Fan:ConstantVolume, FAN CONSTANT VOLUME 1, Design Size Maximum Flow Rate [m3/s], 2.44101
Water Heater Information,WaterHeater:Mixed,367GAL NATURALGAS WATER HEATER - 989KBTU/HR,1.3873,289719.0,0.486,0.5842
 Component Sizing Information, PlantLoop, HOT WATER LOOP, Maximum Loop Flow Rate [m3/s], 4.52698E-004
 Component Sizing Information, PlantLoop, HOT WATER LOOP, Plant Loop Volume [m3], 5.43237E-002
 Component Sizing Information, Pump:VariableSpeed, PUMP VARIABLE SPEED 1, Design Flow Rate [m3/s], 4.52698E-004
 Component Sizing Information, Pump:VariableSpeed, PUMP VARIABLE SPEED 1, Design Power Consumption [W], 115.65845
 Component Sizing Information, Boiler:HotWater, PRIMARY BOILER, Design Size Nominal Capacity [W], 30426.87204
 Component Sizing Information, Boiler:HotWater, PRIMARY BOILER, Design Size Design Water Flow Rate [m3/s], 4.52698E-004
 Component Sizing Information, Boiler:HotWater, SECONDARY BOILER, Design Size Nominal Capacity [W], 30426.87204
 Component Sizing Information, Boiler:HotWater, SECONDARY BOILER, Design Size Design Water Flow Rate [m3/s], 4.52698E-004
 Component Sizing Information, PlantLoop, MAIN SERVICE WATER LOOP, Maximum Loop Flow Rate [m3/s], 5.13998E-004
 Component Sizing Information, PlantLoop, MAIN SERVICE WATER LOOP, Plant Loop Volume [m3], 6.16797E-002
 Component Sizing Information, Pump:ConstantSpeed, SERVICE WATER LOOP PUMP, Design Flow Rate [m3/s], 5.13998E-004
 Component Sizing Information, Pump:ConstantSpeed, SERVICE WATER LOOP PUMP, Design Power Consumption [W], 93.66557
 Component Sizing Information, WaterHeater:Mixed, 367GAL NATURALGAS WATER HEATER - 989KBTU/HR, Use Side Design Flow Rate [m3/s], 5.13998E-004
! <Environment>,Environment Name,Environment Type, Start Date, End Date, Start DayOfWeek, Duration {#days}, Source:Start DayOfWeek,  Use Daylight Saving, Use Holidays, Apply Weekend Holiday Rule,  Use Rain Values, Use Snow Values
! <Environment:Special Days>, Special Day Name, Special Day Type, Source, Start Date, Duration {#days}
! <Environment:Daylight Saving>, Daylight Saving Indicator, Source, Start Date, End Date
! <Environment:WarmupDays>, NumberofWarmupDays
Environment,FORT MCMURRAY AP ANN CLG .4% CONDNS DB=>MWB,SizingPeriod:DesignDay,07/21,07/21,SummerDesignDay,1,N/A,N/A,N/A,N/A,N/A,N/A
Environment:Daylight Saving,No,SizingPeriod:DesignDay
! <Environment:Design Day Data>, Max Dry-Bulb Temp {C}, Temp Range {dC}, Temp Range Ind Type, Hum Ind Value at Max Temp, Hum Ind Type,Pressure {Pa}, Wind Direction {deg CW from N}, Wind Speed {m/s}, Clearness, Rain, Snow
! <Environment:Design Day Misc>,DayOfYear,ASHRAE A Coeff,ASHRAE B Coeff,ASHRAE C Coeff,Solar Constant-Annual Variation,Eq of Time {minutes}, Solar Declination Angle {deg}, Solar Model
Environment:Design Day Data,28.90,12.40,DefaultMultipliers,96969,250,3.7,0.00,No,No
Environment:Design Day Misc,202,1084.4,0.2082,0.1365,1.0,-6.23,20.6,ASHRAETau
Environment:WarmupDays,  6
! <Tabular Report>,Style,Unit Conversion
Tabular Report,HTML,None
! <Warmup Convergence Information>,Zone Name,Environment Type/Name,Average Warmup Temperature Difference {deltaC},Std Dev Warmup Temperature Difference {deltaC},Max Temperature Pass/Fail Convergence,Min Temperature Pass/Fail Convergence,Average Warmup Load Difference {W},Std Dev Warmup Load Difference {W},Heating Load Pass/Fail Convergence,Cooling Load Pass/Fail Convergence
 Warmup Convergence Information,ALL_ST=SPORTS ARENA - COURT C4_FL=STORY 1_SCH=B,SizingPeriod: FORT MCMURRAY AP ANN CLG .4% CONDNS DB=>MWB,6.6507985221E-002,0.1273138989,Pass,Pass,0.1342462711,0.4841817210,Pass,Pass
 Warmup Convergence Information,ALL_ST=SPORTS ARENA - RING_FL=STORY 1_SCH=B,SizingPeriod: FORT MCMURRAY AP ANN CLG .4% CONDNS DB=>MWB,6.6094937572E-002,0.1394386549,Pass,Pass,0.1113870913,0.3957529799,Pass,Pass
 Warmup Convergence Information,ALL_ST=STORAGE AREA - OCCSENS_FL=STORY 1_SCH=E,SizingPeriod: FORT MCMURRAY AP ANN CLG .4% CONDNS DB=>MWB,4.4684651585E-002,7.9350892476E-002,Pass,Pass,0.4488297022,3.9891961301,Pass,Pass
 Warmup Convergence Information,ALL_ST=STORAGE AREA - REFRIGERATED_FL=STORY 1_SCH=E,SizingPeriod: FORT MCMURRAY AP ANN CLG .4% CONDNS DB=>MWB,4.6179487606E-002,8.6855564337E-002,Pass,Pass,0.6795042162,6.2420620872,Pass,Pass
 Warmup Convergence Information,ALL_ST=STORAGE AREA_FL=STORY 1_SCH=E,SizingPeriod: FORT MCMURRAY AP ANN CLG .4% CONDNS DB=>MWB,4.6179487606E-002,8.6855564337E-002,Pass,Pass,0.6795042162,6.2420620874,Pass,Pass
Environment,FORT MCMURRAY AP ANN HTG 99.6% CONDNS DB,SizingPeriod:DesignDay,01/21,01/21,WinterDesignDay,1,N/A,N/A,N/A,N/A,N/A,N/A
Environment:Daylight Saving,No,SizingPeriod:DesignDay
Environment:Design Day Data,-36.20,0.00,DefaultMultipliers,96969,90,1.0,0.00,No,No
Environment:Design Day Misc, 21,1229.0,0.1415,5.7310E-002,1.0,-11.15,-20.1,ASHRAEClearSky
Environment:WarmupDays,  6
 Warmup Convergence Information,ALL_ST=SPORTS ARENA - COURT C4_FL=STORY 1_SCH=B,SizingPeriod: FORT MCMURRAY AP ANN HTG 99.6% CONDNS DB,8.1162301082E-002,0.2442367525,Pass,Pass,0.3028866579,1.4358170031,Pass,Pass
 Warmup Convergence Information,ALL_ST=SPORTS ARENA - RING_FL=STORY 1_SCH=B,SizingPeriod: FORT MCMURRAY AP ANN HTG 99.6% CONDNS DB,8.6342869705E-002,0.2725096128,Pass,Pass,0.1236391775,0.4190192201,Pass,Pass
 Warmup Convergence Information,ALL_ST=STORAGE AREA - OCCSENS_FL=STORY 1_SCH=E,SizingPeriod: FORT MCMURRAY AP ANN HTG 99.6% CONDNS DB,6.1477359980E-002,0.1602236688,Pass,Pass,0.4712814722,1.8975712335,Pass,Pass
 Warmup Convergence Information,ALL_ST=STORAGE AREA - REFRIGERATED_FL=STORY 1_SCH=E,SizingPeriod: FORT MCMURRAY AP ANN HTG 99.6% CONDNS DB,6.1669116784E-002,0.1676749366,Pass,Pass,0.2416608286,0.9217758210,Pass,Pass
 Warmup Convergence Information,ALL_ST=STORAGE AREA_FL=STORY 1_SCH=E,SizingPeriod: FORT MCMURRAY AP ANN HTG 99.6% CONDNS DB,6.1669116784E-002,0.1676749366,Pass,Pass,0.2416608286,0.9217758210,Pass,Pass
! <Program Control Information:Threads/Parallel Sims>, Threading Supported,Maximum Number of Threads, Env Set Threads (OMP_NUM_THREADS), EP Env Set Threads (EP_OMP_NUM_THREADS), IDF Set Threads, Number of Threads Used (Interior Radiant Exchange), Number Nominal Surfaces, Number Parallel Sims
Program Control:Threads/Parallel Sims, No,1, N/A, N/A, N/A, N/A, N/A, N/A
End of Data
