{
   "completed_at" : "20190404T180048Z",
   "completed_status" : "Success",
   "created_at" : "20190404T180024Z",
   "current_step" : 0,
   "eplusout_err" : "Program Version,EnergyPlus, Version 8.9.0-eba93e8e1b, YMD=2019.04.04 18:00,\n   ************* Beginning Zone Sizing Calculations\n   ** Warning ** ProcessScheduleInput: Schedule:Day:Interval=\"ECONOMIZER MAX OA FRACTION 100 PCT DEFAULT\", Blank Schedule Type Limits Name input -- will not be validated.\n   ** Warning ** ProcessScheduleInput: Schedule:Day:Interval=\"SCHEDULE DAY 1\", Blank Schedule Type Limits Name input -- will not be validated.\n   ** Warning ** ProcessScheduleInput: Schedule:Day:Interval=\"SCHEDULE DAY 10\", Blank Schedule Type Limits Name input -- will not be validated.\n   ** Warning ** ProcessScheduleInput: Schedule:Day:Interval=\"SCHEDULE DAY 11\", Blank Schedule Type Limits Name input -- will not be validated.\n   ** Warning ** ProcessScheduleInput: Schedule:Day:Interval=\"SCHEDULE DAY 12\", Blank Schedule Type Limits Name input -- will not be validated.\n   ** Warning ** ProcessScheduleInput: Schedule:Day:Interval=\"SCHEDULE DAY 13\", Blank Schedule Type Limits Name input -- will not be validated.\n   ** Warning ** ProcessScheduleInput: Schedule:Day:Interval=\"SCHEDULE DAY 14\", Blank Schedule Type Limits Name input -- will not be validated.\n   ** Warning ** ProcessScheduleInput: Schedule:Day:Interval=\"SCHEDULE DAY 15\", Blank Schedule Type Limits Name input -- will not be validated.\n   ** Warning ** ProcessScheduleInput: Schedule:Day:Interval=\"SCHEDULE DAY 16\", Blank Schedule Type Limits Name input -- will not be validated.\n   ** Warning ** ProcessScheduleInput: Schedule:Day:Interval=\"SCHEDULE DAY 17\", Blank Schedule Type Limits Name input -- will not be validated.\n   ** Warning ** ProcessScheduleInput: Schedule:Day:Interval=\"SCHEDULE DAY 18\", Blank Schedule Type Limits Name input -- will not be validated.\n   ** Warning ** ProcessScheduleInput: Schedule:Day:Interval=\"SCHEDULE DAY 19\", Blank Schedule Type Limits Name input -- will not be validated.\n   ** Warning ** ProcessScheduleInput: Schedule:Day:Interval=\"SCHEDULE DAY 2\", Blank Schedule Type Limits Name input -- will not be validated.\n   ** Warning ** ProcessScheduleInput: Schedule:Day:Interval=\"SCHEDULE DAY 20\", Blank Schedule Type Limits Name input -- will not be validated.\n   ** Warning ** ProcessScheduleInput: Schedule:Day:Interval=\"SCHEDULE DAY 21\", Blank Schedule Type Limits Name input -- will not be validated.\n   ** Warning ** ProcessScheduleInput: Schedule:Day:Interval=\"SCHEDULE DAY 22\", Blank Schedule Type Limits Name input -- will not be validated.\n   ** Warning ** ProcessScheduleInput: Schedule:Day:Interval=\"SCHEDULE DAY 23\", Blank Schedule Type Limits Name input -- will not be validated.\n   ** Warning ** ProcessScheduleInput: Schedule:Day:Interval=\"SCHEDULE DAY 5\", Blank Schedule Type Limits Name input -- will not be validated.\n   ** Warning ** ProcessScheduleInput: Schedule:Day:Interval=\"SCHEDULE DAY 6\", Blank Schedule Type Limits Name input -- will not be validated.\n   ** Warning ** ProcessScheduleInput: Schedule:Day:Interval=\"SCHEDULE DAY 7\", Blank Schedule Type Limits Name input -- will not be validated.\n   ** Warning ** ProcessScheduleInput: Schedule:Day:Interval=\"SCHEDULE DAY 8\", Blank Schedule Type Limits Name input -- will not be validated.\n   ** Warning ** ProcessScheduleInput: Schedule:Day:Interval=\"SCHEDULE DAY 9\", Blank Schedule Type Limits Name input -- will not be validated.\n   ** Warning ** ProcessScheduleInput: Schedule:Year=\"ECONOMIZER MAX OA FRACTION 100 PCT\", Blank Schedule Type Limits Name input -- will not be validated.\n   ** Warning ** ProcessScheduleInput: Schedule:Year=\"SCHEDULE RULESET 10\", Blank Schedule Type Limits Name input -- will not be validated.\n   ** Warning ** ProcessScheduleInput: Schedule:Year=\"SCHEDULE RULESET 11\", Blank Schedule Type Limits Name input -- will not be validated.\n   ** Warning ** ProcessScheduleInput: Schedule:Year=\"SCHEDULE RULESET 3\", Blank Schedule Type Limits Name input -- will not be validated.\n   ** Warning ** ProcessScheduleInput: Schedule:Year=\"SCHEDULE RULESET 4\", Blank Schedule Type Limits Name input -- will not be validated.\n   ** Warning ** ProcessScheduleInput: Schedule:Year=\"SCHEDULE RULESET 5\", Blank Schedule Type Limits Name input -- will not be validated.\n   ** Warning ** ProcessScheduleInput: Schedule:Year=\"SCHEDULE RULESET 6\", Blank Schedule Type Limits Name input -- will not be validated.\n   ** Warning ** ProcessScheduleInput: Schedule:Year=\"SCHEDULE RULESET 7\", Blank Schedule Type Limits Name input -- will not be validated.\n   ** Warning ** ProcessScheduleInput: Schedule:Year=\"SCHEDULE RULESET 8\", Blank Schedule Type Limits Name input -- will not be validated.\n   ** Warning ** ProcessScheduleInput: Schedule:Year=\"SCHEDULE RULESET 9\", Blank Schedule Type Limits Name input -- will not be validated.\n   ** Warning ** ProcessScheduleInput: Schedule:Constant=\"ALWAYS OFF DISCRETE\", Blank Schedule Type Limits Name input -- will not be validated.\n   ** Warning ** ProcessScheduleInput: Schedule:Constant=\"ALWAYS ON CONTINUOUS\", Blank Schedule Type Limits Name input -- will not be validated.\n   ** Warning ** CheckUsedConstructions: There are 32 nominally unused constructions in input.\n   **   ~~~   ** For explicit details on each unused construction, use Output:Diagnostics,DisplayExtraWarnings;\n   ** Warning ** GetInternalHeatGains: People Combination of ZoneList and Object Name generate a name too long.\n   **   ~~~   ** Object Name=\"SPACE FUNCTION LOCKER ROOM-SCH-J PEOPLE\".\n   **   ~~~   ** ZoneList/Zone Name=\"SP-LOCKER ROOM-SCH-J-SPACE FUNCTION SYS-3 FLR-1 SCH-J HPLCMT-CORE ZN\".\n   **   ~~~   ** Item length=[107] > Maximum Length=[100]. You may need to shorten the names.\n   **   ~~~   ** Shortening the Object Name by [8] characters will assure uniqueness for this ZoneList.\n   **   ~~~   ** name that will be used (may be needed in reporting)=\"SP-LOCKER ROOM-SCH-J-SPACE FUNCTION SYS-3 FLR-1 SCH-J HPLCMT-CORE ZN SPACE FUNCTION LOCKER ROOM-SCH-J PEOPLE\".\n   ** Warning ** GetInternalHeatGains: People Combination of ZoneList and Object Name generate a name too long.\n   **   ~~~   ** Object Name=\"SPACE FUNCTION LOCKER ROOM-SCH-K PEOPLE\".\n   **   ~~~   ** ZoneList/Zone Name=\"SP-LOCKER ROOM-SCH-K-SPACE FUNCTION SYS-3 FLR-1 SCH-K HPLCMT-SOUTH ZN\".\n   **   ~~~   ** Item length=[108] > Maximum Length=[100]. You may need to shorten the names.\n   **   ~~~   ** Shortening the Object Name by [9] characters will assure uniqueness for this ZoneList.\n   **   ~~~   ** name that will be used (may be needed in reporting)=\"SP-LOCKER ROOM-SCH-K-SPACE FUNCTION SYS-3 FLR-1 SCH-K HPLCMT-SOUTH ZN SPACE FUNCTION LOCKER ROOM-SCH-K PEOPLE\".\n   ** Warning ** GetInternalHeatGains: People Combination of ZoneList and Object Name generate a name too long.\n   **   ~~~   ** Object Name=\"SPACE FUNCTION LOUNGE/BREAK ROOM - HEALTH CARE FACILITY PEOPLE\".\n   **   ~~~   ** ZoneList/Zone Name=\"SP-LOUNGE/BREAK ROOM - HEALTH CARE FACILITY-SPACE FUNCTION SYS-3 FLR-1 SCH-B HPLCMT-EAST ZN\".\n   **   ~~~   ** Item length=[153] > Maximum Length=[100]. You may need to shorten the names.\n   **   ~~~   ** Shortening the Object Name by [54] characters will assure uniqueness for this ZoneList.\n   **   ~~~   ** name that will be used (may be needed in reporting)=\"SP-LOUNGE/BREAK ROOM - HEALTH CARE FACILITY-SPACE FUNCTION SYS-3 FLR-1 SCH-B HPLCMT-EAST ZN SPACE FUNCTION LOUNGE/BREAK ROOM - HEALTH CARE FACILITY PEOPLE\".\n   ** Warning ** GetInternalHeatGains: People Combination of ZoneList and Object Name generate a name too long.\n   **   ~~~   ** Object Name=\"SPACE FUNCTION LOUNGE/BREAK ROOM - OTHER PEOPLE\".\n   **   ~~~   ** ZoneList/Zone Name=\"SP-LOUNGE/BREAK ROOM - OTHER-SPACE FUNCTION SYS-3 FLR-1 SCH-B HPLCMT-NORTH ZN\".\n   **   ~~~   ** Item length=[124] > Maximum Length=[100]. You may need to shorten the names.\n   **   ~~~   ** Shortening the Object Name by [25] characters will assure uniqueness for this ZoneList.\n   **   ~~~   ** name that will be used (may be needed in reporting)=\"SP-LOUNGE/BREAK ROOM - OTHER-SPACE FUNCTION SYS-3 FLR-1 SCH-B HPLCMT-NORTH ZN SPACE FUNCTION LOUNGE/BREAK ROOM - OTHER PEOPLE\".\n   ** Warning ** GetInternalHeatGains: People Combination of ZoneList and Object Name generate a name too long.\n   **   ~~~   ** Object Name=\"SPACE FUNCTION OFFICE ENCLOSED <= 25 M2 PEOPLE\".\n   **   ~~~   ** ZoneList/Zone Name=\"SP-OFFICE ENCLOSED <= 25 M2-SPACE FUNCTION SYS-3 FLR-1 SCH-A HPLCMT-WEST ZN\".\n   **   ~~~   ** Item length=[121] > Maximum Length=[100]. You may need to shorten the names.\n   **   ~~~   ** Shortening the Object Name by [22] characters will assure uniqueness for this ZoneList.\n   **   ~~~   ** name that will be used (may be needed in reporting)=\"SP-OFFICE ENCLOSED <= 25 M2-SPACE FUNCTION SYS-3 FLR-1 SCH-A HPLCMT-WEST ZN SPACE FUNCTION OFFICE ENCLOSED <= 25 M2 PEOPLE\".\n   ** Warning ** GetInternalHeatGains: Lights Combination of ZoneList and Object Name generate a name too long.\n   **   ~~~   ** Object Name=\"SPACE FUNCTION LOCKER ROOM-SCH-J LIGHTS\".\n   **   ~~~   ** ZoneList/Zone Name=\"SP-LOCKER ROOM-SCH-J-SPACE FUNCTION SYS-3 FLR-1 SCH-J HPLCMT-CORE ZN\".\n   **   ~~~   ** Item length=[107] > Maximum Length=[100]. You may need to shorten the names.\n   **   ~~~   ** Shortening the Object Name by [8] characters will assure uniqueness for this ZoneList.\n   **   ~~~   ** name that will be used (may be needed in reporting)=\"SP-LOCKER ROOM-SCH-J-SPACE FUNCTION SYS-3 FLR-1 SCH-J HPLCMT-CORE ZN SPACE FUNCTION LOCKER ROOM-SCH-J LIGHTS\".\n   ** Warning ** GetInternalHeatGains: Lights Combination of ZoneList and Object Name generate a name too long.\n   **   ~~~   ** Object Name=\"SPACE FUNCTION LOCKER ROOM-SCH-K LIGHTS\".\n   **   ~~~   ** ZoneList/Zone Name=\"SP-LOCKER ROOM-SCH-K-SPACE FUNCTION SYS-3 FLR-1 SCH-K HPLCMT-SOUTH ZN\".\n   **   ~~~   ** Item length=[108] > Maximum Length=[100]. You may need to shorten the names.\n   **   ~~~   ** Shortening the Object Name by [9] characters will assure uniqueness for this ZoneList.\n   **   ~~~   ** name that will be used (may be needed in reporting)=\"SP-LOCKER ROOM-SCH-K-SPACE FUNCTION SYS-3 FLR-1 SCH-K HPLCMT-SOUTH ZN SPACE FUNCTION LOCKER ROOM-SCH-K LIGHTS\".\n   ** Warning ** GetInternalHeatGains: Lights Combination of ZoneList and Object Name generate a name too long.\n   **   ~~~   ** Object Name=\"SPACE FUNCTION LOUNGE/BREAK ROOM - HEALTH CARE FACILITY LIGHTS\".\n   **   ~~~   ** ZoneList/Zone Name=\"SP-LOUNGE/BREAK ROOM - HEALTH CARE FACILITY-SPACE FUNCTION SYS-3 FLR-1 SCH-B HPLCMT-EAST ZN\".\n   **   ~~~   ** Item length=[153] > Maximum Length=[100]. You may need to shorten the names.\n   **   ~~~   ** Shortening the Object Name by [54] characters will assure uniqueness for this ZoneList.\n   **   ~~~   ** name that will be used (may be needed in reporting)=\"SP-LOUNGE/BREAK ROOM - HEALTH CARE FACILITY-SPACE FUNCTION SYS-3 FLR-1 SCH-B HPLCMT-EAST ZN SPACE FUNCTION LOUNGE/BREAK ROOM - HEALTH CARE FACILITY LIGHTS\".\n   ** Warning ** GetInternalHeatGains: Lights Combination of ZoneList and Object Name generate a name too long.\n   **   ~~~   ** Object Name=\"SPACE FUNCTION LOUNGE/BREAK ROOM - OTHER LIGHTS\".\n   **   ~~~   ** ZoneList/Zone Name=\"SP-LOUNGE/BREAK ROOM - OTHER-SPACE FUNCTION SYS-3 FLR-1 SCH-B HPLCMT-NORTH ZN\".\n   **   ~~~   ** Item length=[124] > Maximum Length=[100]. You may need to shorten the names.\n   **   ~~~   ** Shortening the Object Name by [25] characters will assure uniqueness for this ZoneList.\n   **   ~~~   ** name that will be used (may be needed in reporting)=\"SP-LOUNGE/BREAK ROOM - OTHER-SPACE FUNCTION SYS-3 FLR-1 SCH-B HPLCMT-NORTH ZN SPACE FUNCTION LOUNGE/BREAK ROOM - OTHER LIGHTS\".\n   ** Warning ** GetInternalHeatGains: Lights Combination of ZoneList and Object Name generate a name too long.\n   **   ~~~   ** Object Name=\"SPACE FUNCTION OFFICE ENCLOSED <= 25 M2 LIGHTS\".\n   **   ~~~   ** ZoneList/Zone Name=\"SP-OFFICE ENCLOSED <= 25 M2-SPACE FUNCTION SYS-3 FLR-1 SCH-A HPLCMT-WEST ZN\".\n   **   ~~~   ** Item length=[121] > Maximum Length=[100]. You may need to shorten the names.\n   **   ~~~   ** Shortening the Object Name by [22] characters will assure uniqueness for this ZoneList.\n   **   ~~~   ** name that will be used (may be needed in reporting)=\"SP-OFFICE ENCLOSED <= 25 M2-SPACE FUNCTION SYS-3 FLR-1 SCH-A HPLCMT-WEST ZN SPACE FUNCTION OFFICE ENCLOSED <= 25 M2 LIGHTS\".\n   ** Warning ** GetInternalHeatGains: ElectricEquipment Combination of ZoneList and Object Name generate a name too long.\n   **   ~~~   ** Object Name=\"SPACE FUNCTION LOCKER ROOM-SCH-J ELEC EQUIP\".\n   **   ~~~   ** ZoneList/Zone Name=\"SP-LOCKER ROOM-SCH-J-SPACE FUNCTION SYS-3 FLR-1 SCH-J HPLCMT-CORE ZN\".\n   **   ~~~   ** Item length=[111] > Maximum Length=[100]. You may need to shorten the names.\n   **   ~~~   ** Shortening the Object Name by [12] characters will assure uniqueness for this ZoneList.\n   **   ~~~   ** name that will be used (may be needed in reporting)=\"SP-LOCKER ROOM-SCH-J-SPACE FUNCTION SYS-3 FLR-1 SCH-J HPLCMT-CORE ZN SPACE FUNCTION LOCKER ROOM-SCH-J ELEC EQUIP\".\n   ** Warning ** GetInternalHeatGains: ElectricEquipment Combination of ZoneList and Object Name generate a name too long.\n   **   ~~~   ** Object Name=\"SPACE FUNCTION LOCKER ROOM-SCH-K ELEC EQUIP\".\n   **   ~~~   ** ZoneList/Zone Name=\"SP-LOCKER ROOM-SCH-K-SPACE FUNCTION SYS-3 FLR-1 SCH-K HPLCMT-SOUTH ZN\".\n   **   ~~~   ** Item length=[112] > Maximum Length=[100]. You may need to shorten the names.\n   **   ~~~   ** Shortening the Object Name by [13] characters will assure uniqueness for this ZoneList.\n   **   ~~~   ** name that will be used (may be needed in reporting)=\"SP-LOCKER ROOM-SCH-K-SPACE FUNCTION SYS-3 FLR-1 SCH-K HPLCMT-SOUTH ZN SPACE FUNCTION LOCKER ROOM-SCH-K ELEC EQUIP\".\n   ** Warning ** GetInternalHeatGains: ElectricEquipment Combination of ZoneList and Object Name generate a name too long.\n   **   ~~~   ** Object Name=\"SPACE FUNCTION LOUNGE/BREAK ROOM - HEALTH CARE FACILITY ELEC EQUIP\".\n   **   ~~~   ** ZoneList/Zone Name=\"SP-LOUNGE/BREAK ROOM - HEALTH CARE FACILITY-SPACE FUNCTION SYS-3 FLR-1 SCH-B HPLCMT-EAST ZN\".\n   **   ~~~   ** Item length=[157] > Maximum Length=[100]. You may need to shorten the names.\n   **   ~~~   ** Shortening the Object Name by [58] characters will assure uniqueness for this ZoneList.\n   **   ~~~   ** name that will be used (may be needed in reporting)=\"SP-LOUNGE/BREAK ROOM - HEALTH CARE FACILITY-SPACE FUNCTION SYS-3 FLR-1 SCH-B HPLCMT-EAST ZN SPACE FUNCTION LOUNGE/BREAK ROOM - HEALTH CARE FACILITY ELEC EQUIP\".\n   ** Warning ** GetInternalHeatGains: ElectricEquipment Combination of ZoneList and Object Name generate a name too long.\n   **   ~~~   ** Object Name=\"SPACE FUNCTION LOUNGE/BREAK ROOM - OTHER ELEC EQUIP\".\n   **   ~~~   ** ZoneList/Zone Name=\"SP-LOUNGE/BREAK ROOM - OTHER-SPACE FUNCTION SYS-3 FLR-1 SCH-B HPLCMT-NORTH ZN\".\n   **   ~~~   ** Item length=[128] > Maximum Length=[100]. You may need to shorten the names.\n   **   ~~~   ** Shortening the Object Name by [29] characters will assure uniqueness for this ZoneList.\n   **   ~~~   ** name that will be used (may be needed in reporting)=\"SP-LOUNGE/BREAK ROOM - OTHER-SPACE FUNCTION SYS-3 FLR-1 SCH-B HPLCMT-NORTH ZN SPACE FUNCTION LOUNGE/BREAK ROOM - OTHER ELEC EQUIP\".\n   ** Warning ** GetInternalHeatGains: ElectricEquipment Combination of ZoneList and Object Name generate a name too long.\n   **   ~~~   ** Object Name=\"SPACE FUNCTION OFFICE ENCLOSED <= 25 M2 ELEC EQUIP\".\n   **   ~~~   ** ZoneList/Zone Name=\"SP-OFFICE ENCLOSED <= 25 M2-SPACE FUNCTION SYS-3 FLR-1 SCH-A HPLCMT-WEST ZN\".\n   **   ~~~   ** Item length=[125] > Maximum Length=[100]. You may need to shorten the names.\n   **   ~~~   ** Shortening the Object Name by [26] characters will assure uniqueness for this ZoneList.\n   **   ~~~   ** name that will be used (may be needed in reporting)=\"SP-OFFICE ENCLOSED <= 25 M2-SPACE FUNCTION SYS-3 FLR-1 SCH-A HPLCMT-WEST ZN SPACE FUNCTION OFFICE ENCLOSED <= 25 M2 ELEC EQUIP\".\n   ** Warning ** Calculated design heating load for zone=SP-LOCKER ROOM-SCH-J-SPACE FUNCTION SYS-3 FLR-1 SCH-J HPLCMT-CORE ZN is zero.\n   **   ~~~   ** Check Sizing:Zone and ZoneControl:Thermostat inputs.\n   ** Warning ** Calculated design cooling load for zone=SP-LOCKER ROOM-SCH-K-SPACE FUNCTION SYS-3 FLR-1 SCH-K HPLCMT-SOUTH ZN is zero.\n   **   ~~~   ** Check Sizing:Zone and ZoneControl:Thermostat inputs.\n   ** Warning ** Calculated design heating load for zone=SP-LOCKER ROOM-SCH-K-SPACE FUNCTION SYS-3 FLR-1 SCH-K HPLCMT-SOUTH ZN is zero.\n   **   ~~~   ** Check Sizing:Zone and ZoneControl:Thermostat inputs.\n   ** Warning ** Calculated design heating load for zone=SP-LOUNGE/BREAK ROOM - HEALTH CARE FACILITY-SPACE FUNCTION SYS-3 FLR-1 SCH-B HPLCMT-EAST ZN is zero.\n   **   ~~~   ** Check Sizing:Zone and ZoneControl:Thermostat inputs.\n   ** Warning ** Calculated design heating load for zone=SP-OFFICE ENCLOSED <= 25 M2-SPACE FUNCTION SYS-3 FLR-1 SCH-A HPLCMT-WEST ZN is zero.\n   **   ~~~   ** Check Sizing:Zone and ZoneControl:Thermostat inputs.\n   ************* Beginning System Sizing Calculations\n   ************* Beginning Plant Sizing Calculations\n   ** Warning ** GetDXCoils: Coil:Cooling:DX:SingleSpeed=\"COIL COOLING DX SINGLE SPEED 1 179KBTU/HR 9.08EER\", invalid\n   **   ~~~   ** ...Part Load Fraction Correlation Curve Name = DXCOOL-NECB2011-REF-COOLPLFFPLR has out of range value.\n   **   ~~~   ** ...Curve maximum must be <= 1.0, curve max at PLR = 0.99 is 1.015\n   **   ~~~   ** ...Setting curve maximum to 1.0 and simulation continues.\n   ** Warning ** The Standard Ratings is calculated for Coil:Cooling:DX:SingleSpeed = COIL COOLING DX SINGLE SPEED 1 179KBTU/HR 9.08EER but not at the AHRI test condition due to curve out of bound.\n   **   ~~~   **  Review the Standard Ratings calculations in the Engineering Reference for this coil type. Also, use Output:Diagnostics, DisplayExtraWarnings for further guidance.\n   ** Warning ** The Standard Ratings is calculated for Coil:Cooling:DX:SingleSpeed = COIL COOLING DX SINGLE SPEED 2 153KBTU/HR 9.08EER but not at the AHRI test condition due to curve out of bound.\n   **   ~~~   **  Review the Standard Ratings calculations in the Engineering Reference for this coil type. Also, use Output:Diagnostics, DisplayExtraWarnings for further guidance.\n   ** Warning ** The Standard Ratings is calculated for Coil:Cooling:DX:SingleSpeed = COIL COOLING DX SINGLE SPEED 4 135KBTU/HR 9.26EER but not at the AHRI test condition due to curve out of bound.\n   **   ~~~   **  Review the Standard Ratings calculations in the Engineering Reference for this coil type. Also, use Output:Diagnostics, DisplayExtraWarnings for further guidance.\n   ** Warning ** The Standard Ratings is calculated for Coil:Cooling:DX:SingleSpeed = COIL COOLING DX SINGLE SPEED 3 109KBTU/HR 9.26EER but not at the AHRI test condition due to curve out of bound.\n   **   ~~~   **  Review the Standard Ratings calculations in the Engineering Reference for this coil type. Also, use Output:Diagnostics, DisplayExtraWarnings for further guidance.\n   ** Warning ** The Standard Ratings is calculated for Coil:Cooling:DX:SingleSpeed = COIL COOLING DX SINGLE SPEED 5 148KBTU/HR 9.08EER but not at the AHRI test condition due to curve out of bound.\n   **   ~~~   **  Review the Standard Ratings calculations in the Engineering Reference for this coil type. Also, use Output:Diagnostics, DisplayExtraWarnings for further guidance.\n   ** Warning ** Output:Meter: invalid Key Name=\"DISTRICTCOOLING:FACILITY\" - not found.\n   ** Warning ** Output:Meter: invalid Key Name=\"DISTRICTHEATING:FACILITY\" - not found.\n   ** Warning ** Output:Meter:MeterFileOnly requested for \"Electricity:Facility\" (TimeStep), already on \"Output:Meter\". Will report to both eplusout.eso and eplusout.mtr\n   ************* Testing Individual Branch Integrity\n   ************* All Branches passed integrity testing\n   ************* Testing Individual Supply Air Path Integrity\n   ************* All Supply Air Paths passed integrity testing\n   ************* Testing Individual Return Air Path Integrity\n   ************* All Return Air Paths passed integrity testing\n   ************* No node connection errors were found.\n   ************* Beginning Simulation\n   ** Warning ** Processing Monthly Tabular Reports: Variable names not valid for this simulation\n   **   ~~~   ** ...use Output:Diagnostics,DisplayExtraWarnings; to show more details on individual variables.\n   ** Warning ** CalcDoe2DXCoil: Coil:Cooling:DX:SingleSpeed \"COIL COOLING DX SINGLE SPEED 4 135KBTU/HR 9.26EER\" - Full load outlet air dry-bulb temperature < 2C. This indicates the possibility of coil frost/freeze. Outlet temperature = 1.10 C.\n   **   ~~~   **  ...Occurrence info = RUN PERIOD 1, 01/07 13:20 - 13:30\n   **   ~~~   ** ... Possible reasons for low outlet air dry-bulb temperatures are: This DX coil\n   **   ~~~   **    1) may have a low inlet air dry-bulb temperature. Inlet air temperature = 14.250 C.\n   **   ~~~   **    2) may have a low air flow rate per watt of cooling capacity. Check inputs.\n   **   ~~~   **    3) is used as part of a HX assisted cooling coil which uses a high sensible effectiveness. Check inputs.\n   ** Warning ** CalcDoe2DXCoil: Coil:Cooling:DX:SingleSpeed \"COIL COOLING DX SINGLE SPEED 5 148KBTU/HR 9.08EER\" - Full load outlet air dry-bulb temperature < 2C. This indicates the possibility of coil frost/freeze. Outlet temperature = 1.21 C.\n   **   ~~~   **  ...Occurrence info = RUN PERIOD 1, 04/24 11:20 - 11:25\n   **   ~~~   ** ... Possible reasons for low outlet air dry-bulb temperatures are: This DX coil\n   **   ~~~   **    1) may have a low inlet air dry-bulb temperature. Inlet air temperature = 14.550 C.\n   **   ~~~   **    2) may have a low air flow rate per watt of cooling capacity. Check inputs.\n   **   ~~~   **    3) is used as part of a HX assisted cooling coil which uses a high sensible effectiveness. Check inputs.\n   ** Warning ** CalcDoe2DXCoil: Coil:Cooling:DX:SingleSpeed \"COIL COOLING DX SINGLE SPEED 3 109KBTU/HR 9.26EER\" - Full load outlet air dry-bulb temperature < 2C. This indicates the possibility of coil frost/freeze. Outlet temperature = 1.16 C.\n   **   ~~~   **  ...Occurrence info = RUN PERIOD 1, 04/24 12:40 - 12:50\n   **   ~~~   ** ... Possible reasons for low outlet air dry-bulb temperatures are: This DX coil\n   **   ~~~   **    1) may have a low inlet air dry-bulb temperature. Inlet air temperature = 16.566 C.\n   **   ~~~   **    2) may have a low air flow rate per watt of cooling capacity. Check inputs.\n   **   ~~~   **    3) is used as part of a HX assisted cooling coil which uses a high sensible effectiveness. Check inputs.\n   ** Warning ** CalcDoe2DXCoil: Coil:Cooling:DX:SingleSpeed \"COIL COOLING DX SINGLE SPEED 1 179KBTU/HR 9.08EER\" - Full load outlet air dry-bulb temperature < 2C. This indicates the possibility of coil frost/freeze. Outlet temperature = 1.99 C.\n   **   ~~~   **  ...Occurrence info = RUN PERIOD 1, 05/01 10:20 - 10:30\n   **   ~~~   ** ... Possible reasons for low outlet air dry-bulb temperatures are: This DX coil\n   **   ~~~   **    1) may have a low inlet air dry-bulb temperature. Inlet air temperature = 15.150 C.\n   **   ~~~   **    2) may have a low air flow rate per watt of cooling capacity. Check inputs.\n   **   ~~~   **    3) is used as part of a HX assisted cooling coil which uses a high sensible effectiveness. Check inputs.\n   ** Warning ** HeatExchanger:AirToAir:SensibleAndLatent \"SYS_3_PSZ SP-LOUNGE/BREAK ROOM - HEALTH CARE FACILITY-SPACE FUNCTION SYS-3 FLR-1 SCH-B HPLCMT-EAST ZN ERV\"\n   **   ~~~   ** Average air volume flow rate is <50% or >130% of the nominal HX supply air volume flow rate.\n   **   ~~~   ** Air volume flow rate ratio = 5.749E-002. Environment=RUN PERIOD 1, at Simulation time=06/02 09:30 - 09:40\n   ** Warning ** The resource referenced by LifeCycleCost:UsePriceEscalation= \"U.S. AVG  COMMERCIAL-ELECTRICITY\" has no energy cost. \n   **   ~~~   ** ... It is likely that the wrong resource is used. The resource should match the meter used in Utility:Tariff.\n   ** Warning ** The resource referenced by LifeCycleCost:UsePriceEscalation= \"U.S. AVG  COMMERCIAL-DISTILLATE OIL\" has no energy cost. \n   **   ~~~   ** ... It is likely that the wrong resource is used. The resource should match the meter used in Utility:Tariff.\n   ** Warning ** The resource referenced by LifeCycleCost:UsePriceEscalation= \"U.S. AVG  COMMERCIAL-RESIDUAL OIL\" has no energy cost. \n   **   ~~~   ** ... It is likely that the wrong resource is used. The resource should match the meter used in Utility:Tariff.\n   ** Warning ** The resource referenced by LifeCycleCost:UsePriceEscalation= \"U.S. AVG  COMMERCIAL-NATURAL GAS\" has no energy cost. \n   **   ~~~   ** ... It is likely that the wrong resource is used. The resource should match the meter used in Utility:Tariff.\n   ** Warning ** The resource referenced by LifeCycleCost:UsePriceEscalation= \"U.S. AVG  COMMERCIAL-COAL\" has no energy cost. \n   **   ~~~   ** ... It is likely that the wrong resource is used. The resource should match the meter used in Utility:Tariff.\n   ************* Simulation Error Summary *************\n   ************* There are 9 unused schedules in input.\n   ************* There are 9 unused week schedules in input.\n   ************* There are 22 unused day schedules in input.\n   ************* Use Output:Diagnostics,DisplayUnusedSchedules; to see them.\n   *************\n   ************* ===== Recurring Error Summary =====\n   ************* The following recurring error messages occurred.\n   *************\n   *************  ** Warning ** Plant loop falling below lower temperature limit, PlantLoop=\"MAIN SERVICE WATER LOOP\"\n   *************  **   ~~~   **   This error occurred 2 total times;\n   *************  **   ~~~   **   during Warmup 2 times;\n   *************  **   ~~~   **   during Sizing 0 times.\n   *************  **   ~~~   **   Min=2.700139\n   *************\n   *************  ** Warning ** CalcDoe2DXCoil: Coil:Cooling:DX:SingleSpeed=\"COIL COOLING DX SINGLE SPEED 4 135KBTU/HR 9.26EER\" - Full load outlet temperature indicates a possibility of frost/freeze error continues. Outlet air temperature statistics follow:\n   *************  **   ~~~   **   This error occurred 40 total times;\n   *************  **   ~~~   **   during Warmup 0 times;\n   *************  **   ~~~   **   during Sizing 0 times.\n   *************  **   ~~~   **   Max=1.990337  Min=0.16668\n   *************\n   *************  ** Warning ** CalcDoe2DXCoil: Coil:Cooling:DX:SingleSpeed=\"COIL COOLING DX SINGLE SPEED 5 148KBTU/HR 9.08EER\" - Full load outlet temperature indicates a possibility of frost/freeze error continues. Outlet air temperature statistics follow:\n   *************  **   ~~~   **   This error occurred 139 total times;\n   *************  **   ~~~   **   during Warmup 0 times;\n   *************  **   ~~~   **   during Sizing 0 times.\n   *************  **   ~~~   **   Max=1.995062  Min=-0.165726\n   *************\n   *************  ** Warning ** CalcDoe2DXCoil: Coil:Cooling:DX:SingleSpeed=\"COIL COOLING DX SINGLE SPEED 3 109KBTU/HR 9.26EER\" - Full load outlet temperature indicates a possibility of frost/freeze error continues. Outlet air temperature statistics follow:\n   *************  **   ~~~   **   This error occurred 449 total times;\n   *************  **   ~~~   **   during Warmup 0 times;\n   *************  **   ~~~   **   during Sizing 0 times.\n   *************  **   ~~~   **   Max=1.990247  Min=-2.239877\n   *************\n   *************  ** Warning ** CalcDoe2DXCoil: Coil:Cooling:DX:SingleSpeed=\"COIL COOLING DX SINGLE SPEED 1 179KBTU/HR 9.08EER\" - Full load outlet temperature indicates a possibility of frost/freeze error continues. Outlet air temperature statistics follow:\n   *************  **   ~~~   **   This error occurred 11 total times;\n   *************  **   ~~~   **   during Warmup 0 times;\n   *************  **   ~~~   **   during Sizing 0 times.\n   *************  **   ~~~   **   Max=1.98568  Min=0.962269\n   *************\n   *************  ** Warning ** HeatExchanger:AirToAir:SensibleAndLatent \"SYS_3_PSZ SP-LOUNGE/BREAK ROOM - HEALTH CARE FACILITY-SPACE FUNCTION SYS-3 FLR-1 SCH-B HPLCMT-EAST ZN ERV\":  Average air volume flow rate is <50% or >130% warning continues. Air flow rate ratio statistics follow.\n   *************  **   ~~~   **   This error occurred 473 total times;\n   *************  **   ~~~   **   during Warmup 0 times;\n   *************  **   ~~~   **   during Sizing 0 times.\n   *************  **   ~~~   **   Max=0.270325  Min=1.482004E-002\n   *************\n   *************\n   ************* ===== Final Error Summary =====\n   ************* The following error categories occurred.  Consider correcting or noting.\n   ************* Nominally Unused Constructions\n   ************* ..The nominally unused constructions warning is provided to alert you to potential conditions that can cause\n   ************* ..extra time during simulation. Each construction is calculated by the algorithm indicated in the HeatBalanceAlgorithm\n   ************* ..object. You may remove the constructions indicated (when you use the DisplayExtraWarnings option).\n   *************\n   ************* EnergyPlus Warmup Error Summary. During Warmup: 0 Warning; 0 Severe Errors.\n   ************* EnergyPlus Sizing Error Summary. During Sizing: 55 Warning; 0 Severe Errors.\n   ************* EnergyPlus Completed Successfully-- 1185 Warning; 0 Severe Errors; Elapsed Time=00hr 00min 21.22sec\n",
   "hash" : "A7A8F57B",
   "seed_file" : "in.osm",
   "started_at" : "20190404T180025Z",
   "steps" : [],
   "updated_at" : "20190404T180048Z",
   "weather_file" : "in.epw"
}
