! Program Version,EnergyPlus, Version 8.9.0-eba93e8e1b, YMD=2019.03.28 13:54,
! Output:Meter Objects (applicable to this run)
Output:Meter,Electricity:Facility,hourly; !- [J]
Output:Meter:Cumulative,Electricity:Facility,hourly; !- [J]
Output:Meter,Electricity:Building,hourly; !- [J]
Output:Meter:Cumulative,Electricity:Building,hourly; !- [J]
Output:Meter,Electricity:Zone:WHOLEBUILDING-AUTOMOTIVE FACILITY ZN,hourly; !- [J]
Output:Meter:Cumulative,Electricity:Zone:WHOLEBUILDING-AUTOMOTIVE FACILITY ZN,hourly; !- [J]
Output:Meter,InteriorLights:Electricity,hourly; !- [J]
Output:Meter:Cumulative,InteriorLights:Electricity,hourly; !- [J]
Output:Meter,InteriorLights:Electricity:Zone:WHOLEBUILDING-AUTOMOTIVE FACILITY ZN,hourly; !- [J]
Output:Meter:Cumulative,InteriorLights:Electricity:Zone:WHOLEBUILDING-AUTOMOTIVE FACILITY ZN,hourly; !- [J]
Output:Meter,General:InteriorLights:Electricity,hourly; !- [J]
Output:Meter:Cumulative,General:InteriorLights:Electricity,hourly; !- [J]
Output:Meter,Electricity:Zone:WHOLEBUILDING-AUTOMOTIVE FACILITY 1 ZN,hourly; !- [J]
Output:Meter:Cumulative,Electricity:Zone:WHOLEBUILDING-AUTOMOTIVE FACILITY 1 ZN,hourly; !- [J]
Output:Meter,InteriorLights:Electricity:Zone:WHOLEBUILDING-AUTOMOTIVE FACILITY 1 ZN,hourly; !- [J]
Output:Meter:Cumulative,InteriorLights:Electricity:Zone:WHOLEBUILDING-AUTOMOTIVE FACILITY 1 ZN,hourly; !- [J]
Output:Meter,Electricity:Zone:WHOLEBUILDING-AUTOMOTIVE FACILITY 2 ZN,hourly; !- [J]
Output:Meter:Cumulative,Electricity:Zone:WHOLEBUILDING-AUTOMOTIVE FACILITY 2 ZN,hourly; !- [J]
Output:Meter,InteriorLights:Electricity:Zone:WHOLEBUILDING-AUTOMOTIVE FACILITY 2 ZN,hourly; !- [J]
Output:Meter:Cumulative,InteriorLights:Electricity:Zone:WHOLEBUILDING-AUTOMOTIVE FACILITY 2 ZN,hourly; !- [J]
Output:Meter,Electricity:Zone:MUSEUM RESTORATION ROOM-SPACE FUNCTION ZN,hourly; !- [J]
Output:Meter:Cumulative,Electricity:Zone:MUSEUM RESTORATION ROOM-SPACE FUNCTION ZN,hourly; !- [J]
Output:Meter,InteriorLights:Electricity:Zone:MUSEUM RESTORATION ROOM-SPACE FUNCTION ZN,hourly; !- [J]
Output:Meter:Cumulative,InteriorLights:Electricity:Zone:MUSEUM RESTORATION ROOM-SPACE FUNCTION ZN,hourly; !- [J]
Output:Meter,Electricity:Zone:POST OFFICE SORTING AREA-SPACE FUNCTION ZN,hourly; !- [J]
Output:Meter:Cumulative,Electricity:Zone:POST OFFICE SORTING AREA-SPACE FUNCTION ZN,hourly; !- [J]
Output:Meter,InteriorLights:Electricity:Zone:POST OFFICE SORTING AREA-SPACE FUNCTION ZN,hourly; !- [J]
Output:Meter:Cumulative,InteriorLights:Electricity:Zone:POST OFFICE SORTING AREA-SPACE FUNCTION ZN,hourly; !- [J]
Output:Meter,Electricity:Zone:RELIGIOUS BUILDING FELLOWSHIP HALL-SPACE FUNCTION ZN,hourly; !- [J]
Output:Meter:Cumulative,Electricity:Zone:RELIGIOUS BUILDING FELLOWSHIP HALL-SPACE FUNCTION ZN,hourly; !- [J]
Output:Meter,InteriorLights:Electricity:Zone:RELIGIOUS BUILDING FELLOWSHIP HALL-SPACE FUNCTION ZN,hourly; !- [J]
Output:Meter:Cumulative,InteriorLights:Electricity:Zone:RELIGIOUS BUILDING FELLOWSHIP HALL-SPACE FUNCTION ZN,hourly; !- [J]
Output:Meter,Electricity:Zone:RELIGIOUS BUILDING WORSHIP/PULPIT/CHOIR AREA-SPACE FUNCTION ZN,hourly; !- [J]
Output:Meter:Cumulative,Electricity:Zone:RELIGIOUS BUILDING WORSHIP/PULPIT/CHOIR AREA-SPACE FUNCTION ZN,hourly; !- [J]
Output:Meter,InteriorLights:Electricity:Zone:RELIGIOUS BUILDING WORSHIP/PULPIT/CHOIR AREA-SPACE FUNCTION ZN,hourly; !- [J]
Output:Meter:Cumulative,InteriorLights:Electricity:Zone:RELIGIOUS BUILDING WORSHIP/PULPIT/CHOIR AREA-SPACE FUNCTION ZN,hourly; !- [J]
Output:Meter,Electricity:Zone:RETAIL FACILITY DRESSING/FITTING ROOM-SPACE FUNCTION ZN,hourly; !- [J]
Output:Meter:Cumulative,Electricity:Zone:RETAIL FACILITY DRESSING/FITTING ROOM-SPACE FUNCTION ZN,hourly; !- [J]
Output:Meter,InteriorLights:Electricity:Zone:RETAIL FACILITY DRESSING/FITTING ROOM-SPACE FUNCTION ZN,hourly; !- [J]
Output:Meter:Cumulative,InteriorLights:Electricity:Zone:RETAIL FACILITY DRESSING/FITTING ROOM-SPACE FUNCTION ZN,hourly; !- [J]
Output:Meter,Electricity:Zone:RETAIL FACILITY MALL CONCOURSE-SPACE FUNCTION ZN,hourly; !- [J]
Output:Meter:Cumulative,Electricity:Zone:RETAIL FACILITY MALL CONCOURSE-SPACE FUNCTION ZN,hourly; !- [J]
Output:Meter,InteriorLights:Electricity:Zone:RETAIL FACILITY MALL CONCOURSE-SPACE FUNCTION ZN,hourly; !- [J]
Output:Meter:Cumulative,InteriorLights:Electricity:Zone:RETAIL FACILITY MALL CONCOURSE-SPACE FUNCTION ZN,hourly; !- [J]
Output:Meter,Electricity:Zone:SPACE DESIGNED TO ANSI/IES RP-28 CHAPEL (USED PRIMARILY BY RESIDENTS)-SPACE FUNCTION ZN,hourly; !- [J]
Output:Meter:Cumulative,Electricity:Zone:SPACE DESIGNED TO ANSI/IES RP-28 CHAPEL (USED PRIMARILY BY RESIDENTS)-SPACE FUNCTION ZN,hourly; !- [J]
Output:Meter,InteriorLights:Electricity:Zone:SPACE DESIGNED TO ANSI/IES RP-28 CHAPEL (USED PRIMARILY BY RESIDENTS)-SPACE FUNCTION ZN,hourly; !- [J]
Output:Meter:Cumulative,InteriorLights:Electricity:Zone:SPACE DESIGNED TO ANSI/IES RP-28 CHAPEL (USED PRIMARILY BY RESIDENTS)-SPACE FUNCTION ZN,hourly; !- [J]
Output:Meter,Electricity:Zone:SPACE DESIGNED TO ANSI/IES RP-28 RECREATION ROOM (USED PRIMARILY BY RESIDENTS)-SPACE FUNCTION ZN,hourly; !- [J]
Output:Meter:Cumulative,Electricity:Zone:SPACE DESIGNED TO ANSI/IES RP-28 RECREATION ROOM (USED PRIMARILY BY RESIDENTS)-SPACE FUNCTION ZN,hourly; !- [J]
Output:Meter,InteriorLights:Electricity:Zone:SPACE DESIGNED TO ANSI/IES RP-28 RECREATION ROOM (USED PRIMARILY BY RESIDENTS)-SPACE FUNCTION ZN,hourly; !- [J]
Output:Meter:Cumulative,InteriorLights:Electricity:Zone:SPACE DESIGNED TO ANSI/IES RP-28 RECREATION ROOM (USED PRIMARILY BY RESIDENTS)-SPACE FUNCTION ZN,hourly; !- [J]
Output:Meter,Electricity:Zone:SPORTS ARENA PLAYING AREA CLASS I FACILITY(4)-SPACE FUNCTION ZN,hourly; !- [J]
Output:Meter:Cumulative,Electricity:Zone:SPORTS ARENA PLAYING AREA CLASS I FACILITY(4)-SPACE FUNCTION ZN,hourly; !- [J]
Output:Meter,InteriorLights:Electricity:Zone:SPORTS ARENA PLAYING AREA CLASS I FACILITY(4)-SPACE FUNCTION ZN,hourly; !- [J]
Output:Meter:Cumulative,InteriorLights:Electricity:Zone:SPORTS ARENA PLAYING AREA CLASS I FACILITY(4)-SPACE FUNCTION ZN,hourly; !- [J]
Output:Meter,Electricity:Zone:SPORTS ARENA PLAYING AREA CLASS II FACILITY(4)-SPACE FUNCTION ZN,hourly; !- [J]
Output:Meter:Cumulative,Electricity:Zone:SPORTS ARENA PLAYING AREA CLASS II FACILITY(4)-SPACE FUNCTION ZN,hourly; !- [J]
Output:Meter,InteriorLights:Electricity:Zone:SPORTS ARENA PLAYING AREA CLASS II FACILITY(4)-SPACE FUNCTION ZN,hourly; !- [J]
Output:Meter:Cumulative,InteriorLights:Electricity:Zone:SPORTS ARENA PLAYING AREA CLASS II FACILITY(4)-SPACE FUNCTION ZN,hourly; !- [J]
Output:Meter,Electricity:Zone:SPORTS ARENA PLAYING AREA CLASS III FACILITY(4)-SPACE FUNCTION ZN,hourly; !- [J]
Output:Meter:Cumulative,Electricity:Zone:SPORTS ARENA PLAYING AREA CLASS III FACILITY(4)-SPACE FUNCTION ZN,hourly; !- [J]
Output:Meter,InteriorLights:Electricity:Zone:SPORTS ARENA PLAYING AREA CLASS III FACILITY(4)-SPACE FUNCTION ZN,hourly; !- [J]
Output:Meter:Cumulative,InteriorLights:Electricity:Zone:SPORTS ARENA PLAYING AREA CLASS III FACILITY(4)-SPACE FUNCTION ZN,hourly; !- [J]
Output:Meter,Electricity:Zone:SPORTS ARENA PLAYING AREA CLASS IV FACILITY(4)-SPACE FUNCTION ZN,hourly; !- [J]
Output:Meter:Cumulative,Electricity:Zone:SPORTS ARENA PLAYING AREA CLASS IV FACILITY(4)-SPACE FUNCTION ZN,hourly; !- [J]
Output:Meter,InteriorLights:Electricity:Zone:SPORTS ARENA PLAYING AREA CLASS IV FACILITY(4)-SPACE FUNCTION ZN,hourly; !- [J]
Output:Meter:Cumulative,InteriorLights:Electricity:Zone:SPORTS ARENA PLAYING AREA CLASS IV FACILITY(4)-SPACE FUNCTION ZN,hourly; !- [J]
Output:Meter,Electricity:Zone:TRANSPORTATION FACILITY AIRPORT CONCOURSE-SPACE FUNCTION ZN,hourly; !- [J]
Output:Meter:Cumulative,Electricity:Zone:TRANSPORTATION FACILITY AIRPORT CONCOURSE-SPACE FUNCTION ZN,hourly; !- [J]
Output:Meter,InteriorLights:Electricity:Zone:TRANSPORTATION FACILITY AIRPORT CONCOURSE-SPACE FUNCTION ZN,hourly; !- [J]
Output:Meter:Cumulative,InteriorLights:Electricity:Zone:TRANSPORTATION FACILITY AIRPORT CONCOURSE-SPACE FUNCTION ZN,hourly; !- [J]
Output:Meter,Electricity:Zone:TRANSPORTATION FACILITY BAGGAGE/CAROUSEL AREA-SPACE FUNCTION ZN,hourly; !- [J]
Output:Meter:Cumulative,Electricity:Zone:TRANSPORTATION FACILITY BAGGAGE/CAROUSEL AREA-SPACE FUNCTION ZN,hourly; !- [J]
Output:Meter,InteriorLights:Electricity:Zone:TRANSPORTATION FACILITY BAGGAGE/CAROUSEL AREA-SPACE FUNCTION ZN,hourly; !- [J]
Output:Meter:Cumulative,InteriorLights:Electricity:Zone:TRANSPORTATION FACILITY BAGGAGE/CAROUSEL AREA-SPACE FUNCTION ZN,hourly; !- [J]
Output:Meter,Electricity:Zone:TRANSPORTATION FACILITY TERMINAL TICKET COUNTER-SPACE FUNCTION ZN,hourly; !- [J]
Output:Meter:Cumulative,Electricity:Zone:TRANSPORTATION FACILITY TERMINAL TICKET COUNTER-SPACE FUNCTION ZN,hourly; !- [J]
Output:Meter,InteriorLights:Electricity:Zone:TRANSPORTATION FACILITY TERMINAL TICKET COUNTER-SPACE FUNCTION ZN,hourly; !- [J]
Output:Meter:Cumulative,InteriorLights:Electricity:Zone:TRANSPORTATION FACILITY TERMINAL TICKET COUNTER-SPACE FUNCTION ZN,hourly; !- [J]
Output:Meter,Electricity:Zone:WAREHOUSE STORAGE AREA MEDIUM TO BULKY PALLETIZED ITEMS-SPACE FUNCTION ZN,hourly; !- [J]
Output:Meter:Cumulative,Electricity:Zone:WAREHOUSE STORAGE AREA MEDIUM TO BULKY PALLETIZED ITEMS-SPACE FUNCTION ZN,hourly; !- [J]
Output:Meter,InteriorLights:Electricity:Zone:WAREHOUSE STORAGE AREA MEDIUM TO BULKY PALLETIZED ITEMS-SPACE FUNCTION ZN,hourly; !- [J]
Output:Meter:Cumulative,InteriorLights:Electricity:Zone:WAREHOUSE STORAGE AREA MEDIUM TO BULKY PALLETIZED ITEMS-SPACE FUNCTION ZN,hourly; !- [J]
Output:Meter,Electricity:Zone:WAREHOUSE STORAGE AREA SMALL HAND-CARRIED ITEMS(4)-SPACE FUNCTION ZN,hourly; !- [J]
Output:Meter:Cumulative,Electricity:Zone:WAREHOUSE STORAGE AREA SMALL HAND-CARRIED ITEMS(4)-SPACE FUNCTION ZN,hourly; !- [J]
Output:Meter,InteriorLights:Electricity:Zone:WAREHOUSE STORAGE AREA SMALL HAND-CARRIED ITEMS(4)-SPACE FUNCTION ZN,hourly; !- [J]
Output:Meter:Cumulative,InteriorLights:Electricity:Zone:WAREHOUSE STORAGE AREA SMALL HAND-CARRIED ITEMS(4)-SPACE FUNCTION ZN,hourly; !- [J]
Output:Meter,InteriorEquipment:Electricity,hourly; !- [J]
Output:Meter:Cumulative,InteriorEquipment:Electricity,hourly; !- [J]
Output:Meter,InteriorEquipment:Electricity:Zone:WHOLEBUILDING-AUTOMOTIVE FACILITY ZN,hourly; !- [J]
Output:Meter:Cumulative,InteriorEquipment:Electricity:Zone:WHOLEBUILDING-AUTOMOTIVE FACILITY ZN,hourly; !- [J]
Output:Meter,General:InteriorEquipment:Electricity,hourly; !- [J]
Output:Meter:Cumulative,General:InteriorEquipment:Electricity,hourly; !- [J]
Output:Meter,InteriorEquipment:Electricity:Zone:WHOLEBUILDING-AUTOMOTIVE FACILITY 1 ZN,hourly; !- [J]
Output:Meter:Cumulative,InteriorEquipment:Electricity:Zone:WHOLEBUILDING-AUTOMOTIVE FACILITY 1 ZN,hourly; !- [J]
Output:Meter,InteriorEquipment:Electricity:Zone:WHOLEBUILDING-AUTOMOTIVE FACILITY 2 ZN,hourly; !- [J]
Output:Meter:Cumulative,InteriorEquipment:Electricity:Zone:WHOLEBUILDING-AUTOMOTIVE FACILITY 2 ZN,hourly; !- [J]
Output:Meter,InteriorEquipment:Electricity:Zone:MUSEUM RESTORATION ROOM-SPACE FUNCTION ZN,hourly; !- [J]
Output:Meter:Cumulative,InteriorEquipment:Electricity:Zone:MUSEUM RESTORATION ROOM-SPACE FUNCTION ZN,hourly; !- [J]
Output:Meter,InteriorEquipment:Electricity:Zone:POST OFFICE SORTING AREA-SPACE FUNCTION ZN,hourly; !- [J]
Output:Meter:Cumulative,InteriorEquipment:Electricity:Zone:POST OFFICE SORTING AREA-SPACE FUNCTION ZN,hourly; !- [J]
Output:Meter,InteriorEquipment:Electricity:Zone:RELIGIOUS BUILDING FELLOWSHIP HALL-SPACE FUNCTION ZN,hourly; !- [J]
Output:Meter:Cumulative,InteriorEquipment:Electricity:Zone:RELIGIOUS BUILDING FELLOWSHIP HALL-SPACE FUNCTION ZN,hourly; !- [J]
Output:Meter,InteriorEquipment:Electricity:Zone:RELIGIOUS BUILDING WORSHIP/PULPIT/CHOIR AREA-SPACE FUNCTION ZN,hourly; !- [J]
Output:Meter:Cumulative,InteriorEquipment:Electricity:Zone:RELIGIOUS BUILDING WORSHIP/PULPIT/CHOIR AREA-SPACE FUNCTION ZN,hourly; !- [J]
Output:Meter,InteriorEquipment:Electricity:Zone:RETAIL FACILITY DRESSING/FITTING ROOM-SPACE FUNCTION ZN,hourly; !- [J]
Output:Meter:Cumulative,InteriorEquipment:Electricity:Zone:RETAIL FACILITY DRESSING/FITTING ROOM-SPACE FUNCTION ZN,hourly; !- [J]
Output:Meter,InteriorEquipment:Electricity:Zone:RETAIL FACILITY MALL CONCOURSE-SPACE FUNCTION ZN,hourly; !- [J]
Output:Meter:Cumulative,InteriorEquipment:Electricity:Zone:RETAIL FACILITY MALL CONCOURSE-SPACE FUNCTION ZN,hourly; !- [J]
Output:Meter,InteriorEquipment:Electricity:Zone:SPACE DESIGNED TO ANSI/IES RP-28 CHAPEL (USED PRIMARILY BY RESIDENTS)-SPACE FUNCTION ZN,hourly; !- [J]
Output:Meter:Cumulative,InteriorEquipment:Electricity:Zone:SPACE DESIGNED TO ANSI/IES RP-28 CHAPEL (USED PRIMARILY BY RESIDENTS)-SPACE FUNCTION ZN,hourly; !- [J]
Output:Meter,InteriorEquipment:Electricity:Zone:SPACE DESIGNED TO ANSI/IES RP-28 RECREATION ROOM (USED PRIMARILY BY RESIDENTS)-SPACE FUNCTION ZN,hourly; !- [J]
Output:Meter:Cumulative,InteriorEquipment:Electricity:Zone:SPACE DESIGNED TO ANSI/IES RP-28 RECREATION ROOM (USED PRIMARILY BY RESIDENTS)-SPACE FUNCTION ZN,hourly; !- [J]
Output:Meter,InteriorEquipment:Electricity:Zone:SPORTS ARENA PLAYING AREA CLASS I FACILITY(4)-SPACE FUNCTION ZN,hourly; !- [J]
Output:Meter:Cumulative,InteriorEquipment:Electricity:Zone:SPORTS ARENA PLAYING AREA CLASS I FACILITY(4)-SPACE FUNCTION ZN,hourly; !- [J]
Output:Meter,InteriorEquipment:Electricity:Zone:SPORTS ARENA PLAYING AREA CLASS II FACILITY(4)-SPACE FUNCTION ZN,hourly; !- [J]
Output:Meter:Cumulative,InteriorEquipment:Electricity:Zone:SPORTS ARENA PLAYING AREA CLASS II FACILITY(4)-SPACE FUNCTION ZN,hourly; !- [J]
Output:Meter,InteriorEquipment:Electricity:Zone:SPORTS ARENA PLAYING AREA CLASS III FACILITY(4)-SPACE FUNCTION ZN,hourly; !- [J]
Output:Meter:Cumulative,InteriorEquipment:Electricity:Zone:SPORTS ARENA PLAYING AREA CLASS III FACILITY(4)-SPACE FUNCTION ZN,hourly; !- [J]
Output:Meter,InteriorEquipment:Electricity:Zone:SPORTS ARENA PLAYING AREA CLASS IV FACILITY(4)-SPACE FUNCTION ZN,hourly; !- [J]
Output:Meter:Cumulative,InteriorEquipment:Electricity:Zone:SPORTS ARENA PLAYING AREA CLASS IV FACILITY(4)-SPACE FUNCTION ZN,hourly; !- [J]
Output:Meter,InteriorEquipment:Electricity:Zone:TRANSPORTATION FACILITY BAGGAGE/CAROUSEL AREA-SPACE FUNCTION ZN,hourly; !- [J]
Output:Meter:Cumulative,InteriorEquipment:Electricity:Zone:TRANSPORTATION FACILITY BAGGAGE/CAROUSEL AREA-SPACE FUNCTION ZN,hourly; !- [J]
Output:Meter,InteriorEquipment:Electricity:Zone:TRANSPORTATION FACILITY TERMINAL TICKET COUNTER-SPACE FUNCTION ZN,hourly; !- [J]
Output:Meter:Cumulative,InteriorEquipment:Electricity:Zone:TRANSPORTATION FACILITY TERMINAL TICKET COUNTER-SPACE FUNCTION ZN,hourly; !- [J]
Output:Meter,InteriorEquipment:Electricity:Zone:WAREHOUSE STORAGE AREA MEDIUM TO BULKY PALLETIZED ITEMS-SPACE FUNCTION ZN,hourly; !- [J]
Output:Meter:Cumulative,InteriorEquipment:Electricity:Zone:WAREHOUSE STORAGE AREA MEDIUM TO BULKY PALLETIZED ITEMS-SPACE FUNCTION ZN,hourly; !- [J]
Output:Meter,InteriorEquipment:Electricity:Zone:WAREHOUSE STORAGE AREA SMALL HAND-CARRIED ITEMS(4)-SPACE FUNCTION ZN,hourly; !- [J]
Output:Meter:Cumulative,InteriorEquipment:Electricity:Zone:WAREHOUSE STORAGE AREA SMALL HAND-CARRIED ITEMS(4)-SPACE FUNCTION ZN,hourly; !- [J]
Output:Meter,EnergyTransfer:Facility,hourly; !- [J]
Output:Meter:Cumulative,EnergyTransfer:Facility,hourly; !- [J]
Output:Meter,EnergyTransfer:Building,hourly; !- [J]
Output:Meter:Cumulative,EnergyTransfer:Building,hourly; !- [J]
Output:Meter,EnergyTransfer:Zone:MUSEUM RESTORATION ROOM-SPACE FUNCTION ZN,hourly; !- [J]
Output:Meter:Cumulative,EnergyTransfer:Zone:MUSEUM RESTORATION ROOM-SPACE FUNCTION ZN,hourly; !- [J]
Output:Meter,Heating:EnergyTransfer,hourly; !- [J]
Output:Meter:Cumulative,Heating:EnergyTransfer,hourly; !- [J]
Output:Meter,Heating:EnergyTransfer:Zone:MUSEUM RESTORATION ROOM-SPACE FUNCTION ZN,hourly; !- [J]
Output:Meter:Cumulative,Heating:EnergyTransfer:Zone:MUSEUM RESTORATION ROOM-SPACE FUNCTION ZN,hourly; !- [J]
Output:Meter,Cooling:EnergyTransfer,hourly; !- [J]
Output:Meter:Cumulative,Cooling:EnergyTransfer,hourly; !- [J]
Output:Meter,Cooling:EnergyTransfer:Zone:MUSEUM RESTORATION ROOM-SPACE FUNCTION ZN,hourly; !- [J]
Output:Meter:Cumulative,Cooling:EnergyTransfer:Zone:MUSEUM RESTORATION ROOM-SPACE FUNCTION ZN,hourly; !- [J]
Output:Meter,EnergyTransfer:Zone:POST OFFICE SORTING AREA-SPACE FUNCTION ZN,hourly; !- [J]
Output:Meter:Cumulative,EnergyTransfer:Zone:POST OFFICE SORTING AREA-SPACE FUNCTION ZN,hourly; !- [J]
Output:Meter,Heating:EnergyTransfer:Zone:POST OFFICE SORTING AREA-SPACE FUNCTION ZN,hourly; !- [J]
Output:Meter:Cumulative,Heating:EnergyTransfer:Zone:POST OFFICE SORTING AREA-SPACE FUNCTION ZN,hourly; !- [J]
Output:Meter,Cooling:EnergyTransfer:Zone:POST OFFICE SORTING AREA-SPACE FUNCTION ZN,hourly; !- [J]
Output:Meter:Cumulative,Cooling:EnergyTransfer:Zone:POST OFFICE SORTING AREA-SPACE FUNCTION ZN,hourly; !- [J]
Output:Meter,EnergyTransfer:Zone:RELIGIOUS BUILDING FELLOWSHIP HALL-SPACE FUNCTION ZN,hourly; !- [J]
Output:Meter:Cumulative,EnergyTransfer:Zone:RELIGIOUS BUILDING FELLOWSHIP HALL-SPACE FUNCTION ZN,hourly; !- [J]
Output:Meter,Heating:EnergyTransfer:Zone:RELIGIOUS BUILDING FELLOWSHIP HALL-SPACE FUNCTION ZN,hourly; !- [J]
Output:Meter:Cumulative,Heating:EnergyTransfer:Zone:RELIGIOUS BUILDING FELLOWSHIP HALL-SPACE FUNCTION ZN,hourly; !- [J]
Output:Meter,Cooling:EnergyTransfer:Zone:RELIGIOUS BUILDING FELLOWSHIP HALL-SPACE FUNCTION ZN,hourly; !- [J]
Output:Meter:Cumulative,Cooling:EnergyTransfer:Zone:RELIGIOUS BUILDING FELLOWSHIP HALL-SPACE FUNCTION ZN,hourly; !- [J]
Output:Meter,EnergyTransfer:Zone:RELIGIOUS BUILDING WORSHIP/PULPIT/CHOIR AREA-SPACE FUNCTION ZN,hourly; !- [J]
Output:Meter:Cumulative,EnergyTransfer:Zone:RELIGIOUS BUILDING WORSHIP/PULPIT/CHOIR AREA-SPACE FUNCTION ZN,hourly; !- [J]
Output:Meter,Heating:EnergyTransfer:Zone:RELIGIOUS BUILDING WORSHIP/PULPIT/CHOIR AREA-SPACE FUNCTION ZN,hourly; !- [J]
Output:Meter:Cumulative,Heating:EnergyTransfer:Zone:RELIGIOUS BUILDING WORSHIP/PULPIT/CHOIR AREA-SPACE FUNCTION ZN,hourly; !- [J]
Output:Meter,Cooling:EnergyTransfer:Zone:RELIGIOUS BUILDING WORSHIP/PULPIT/CHOIR AREA-SPACE FUNCTION ZN,hourly; !- [J]
Output:Meter:Cumulative,Cooling:EnergyTransfer:Zone:RELIGIOUS BUILDING WORSHIP/PULPIT/CHOIR AREA-SPACE FUNCTION ZN,hourly; !- [J]
Output:Meter,EnergyTransfer:Zone:RETAIL FACILITY DRESSING/FITTING ROOM-SPACE FUNCTION ZN,hourly; !- [J]
Output:Meter:Cumulative,EnergyTransfer:Zone:RETAIL FACILITY DRESSING/FITTING ROOM-SPACE FUNCTION ZN,hourly; !- [J]
Output:Meter,Heating:EnergyTransfer:Zone:RETAIL FACILITY DRESSING/FITTING ROOM-SPACE FUNCTION ZN,hourly; !- [J]
Output:Meter:Cumulative,Heating:EnergyTransfer:Zone:RETAIL FACILITY DRESSING/FITTING ROOM-SPACE FUNCTION ZN,hourly; !- [J]
Output:Meter,Cooling:EnergyTransfer:Zone:RETAIL FACILITY DRESSING/FITTING ROOM-SPACE FUNCTION ZN,hourly; !- [J]
Output:Meter:Cumulative,Cooling:EnergyTransfer:Zone:RETAIL FACILITY DRESSING/FITTING ROOM-SPACE FUNCTION ZN,hourly; !- [J]
Output:Meter,EnergyTransfer:Zone:RETAIL FACILITY MALL CONCOURSE-SPACE FUNCTION ZN,hourly; !- [J]
Output:Meter:Cumulative,EnergyTransfer:Zone:RETAIL FACILITY MALL CONCOURSE-SPACE FUNCTION ZN,hourly; !- [J]
Output:Meter,Heating:EnergyTransfer:Zone:RETAIL FACILITY MALL CONCOURSE-SPACE FUNCTION ZN,hourly; !- [J]
Output:Meter:Cumulative,Heating:EnergyTransfer:Zone:RETAIL FACILITY MALL CONCOURSE-SPACE FUNCTION ZN,hourly; !- [J]
Output:Meter,Cooling:EnergyTransfer:Zone:RETAIL FACILITY MALL CONCOURSE-SPACE FUNCTION ZN,hourly; !- [J]
Output:Meter:Cumulative,Cooling:EnergyTransfer:Zone:RETAIL FACILITY MALL CONCOURSE-SPACE FUNCTION ZN,hourly; !- [J]
Output:Meter,EnergyTransfer:Zone:SPACE DESIGNED TO ANSI/IES RP-28 CHAPEL (USED PRIMARILY BY RESIDENTS)-SPACE FUNCTION ZN,hourly; !- [J]
Output:Meter:Cumulative,EnergyTransfer:Zone:SPACE DESIGNED TO ANSI/IES RP-28 CHAPEL (USED PRIMARILY BY RESIDENTS)-SPACE FUNCTION ZN,hourly; !- [J]
Output:Meter,Heating:EnergyTransfer:Zone:SPACE DESIGNED TO ANSI/IES RP-28 CHAPEL (USED PRIMARILY BY RESIDENTS)-SPACE FUNCTION ZN,hourly; !- [J]
Output:Meter:Cumulative,Heating:EnergyTransfer:Zone:SPACE DESIGNED TO ANSI/IES RP-28 CHAPEL (USED PRIMARILY BY RESIDENTS)-SPACE FUNCTION ZN,hourly; !- [J]
Output:Meter,Cooling:EnergyTransfer:Zone:SPACE DESIGNED TO ANSI/IES RP-28 CHAPEL (USED PRIMARILY BY RESIDENTS)-SPACE FUNCTION ZN,hourly; !- [J]
Output:Meter:Cumulative,Cooling:EnergyTransfer:Zone:SPACE DESIGNED TO ANSI/IES RP-28 CHAPEL (USED PRIMARILY BY RESIDENTS)-SPACE FUNCTION ZN,hourly; !- [J]
Output:Meter,EnergyTransfer:Zone:SPACE DESIGNED TO ANSI/IES RP-28 RECREATION ROOM (USED PRIMARILY BY RESIDENTS)-SPACE FUNCTION ZN,hourly; !- [J]
Output:Meter:Cumulative,EnergyTransfer:Zone:SPACE DESIGNED TO ANSI/IES RP-28 RECREATION ROOM (USED PRIMARILY BY RESIDENTS)-SPACE FUNCTION ZN,hourly; !- [J]
Output:Meter,Heating:EnergyTransfer:Zone:SPACE DESIGNED TO ANSI/IES RP-28 RECREATION ROOM (USED PRIMARILY BY RESIDENTS)-SPACE FUNCTION ZN,hourly; !- [J]
Output:Meter:Cumulative,Heating:EnergyTransfer:Zone:SPACE DESIGNED TO ANSI/IES RP-28 RECREATION ROOM (USED PRIMARILY BY RESIDENTS)-SPACE FUNCTION ZN,hourly; !- [J]
Output:Meter,Cooling:EnergyTransfer:Zone:SPACE DESIGNED TO ANSI/IES RP-28 RECREATION ROOM (USED PRIMARILY BY RESIDENTS)-SPACE FUNCTION ZN,hourly; !- [J]
Output:Meter:Cumulative,Cooling:EnergyTransfer:Zone:SPACE DESIGNED TO ANSI/IES RP-28 RECREATION ROOM (USED PRIMARILY BY RESIDENTS)-SPACE FUNCTION ZN,hourly; !- [J]
Output:Meter,EnergyTransfer:Zone:SPORTS ARENA PLAYING AREA CLASS I FACILITY(4)-SPACE FUNCTION ZN,hourly; !- [J]
Output:Meter:Cumulative,EnergyTransfer:Zone:SPORTS ARENA PLAYING AREA CLASS I FACILITY(4)-SPACE FUNCTION ZN,hourly; !- [J]
Output:Meter,Heating:EnergyTransfer:Zone:SPORTS ARENA PLAYING AREA CLASS I FACILITY(4)-SPACE FUNCTION ZN,hourly; !- [J]
Output:Meter:Cumulative,Heating:EnergyTransfer:Zone:SPORTS ARENA PLAYING AREA CLASS I FACILITY(4)-SPACE FUNCTION ZN,hourly; !- [J]
Output:Meter,Cooling:EnergyTransfer:Zone:SPORTS ARENA PLAYING AREA CLASS I FACILITY(4)-SPACE FUNCTION ZN,hourly; !- [J]
Output:Meter:Cumulative,Cooling:EnergyTransfer:Zone:SPORTS ARENA PLAYING AREA CLASS I FACILITY(4)-SPACE FUNCTION ZN,hourly; !- [J]
Output:Meter,EnergyTransfer:Zone:SPORTS ARENA PLAYING AREA CLASS II FACILITY(4)-SPACE FUNCTION ZN,hourly; !- [J]
Output:Meter:Cumulative,EnergyTransfer:Zone:SPORTS ARENA PLAYING AREA CLASS II FACILITY(4)-SPACE FUNCTION ZN,hourly; !- [J]
Output:Meter,Heating:EnergyTransfer:Zone:SPORTS ARENA PLAYING AREA CLASS II FACILITY(4)-SPACE FUNCTION ZN,hourly; !- [J]
Output:Meter:Cumulative,Heating:EnergyTransfer:Zone:SPORTS ARENA PLAYING AREA CLASS II FACILITY(4)-SPACE FUNCTION ZN,hourly; !- [J]
Output:Meter,Cooling:EnergyTransfer:Zone:SPORTS ARENA PLAYING AREA CLASS II FACILITY(4)-SPACE FUNCTION ZN,hourly; !- [J]
Output:Meter:Cumulative,Cooling:EnergyTransfer:Zone:SPORTS ARENA PLAYING AREA CLASS II FACILITY(4)-SPACE FUNCTION ZN,hourly; !- [J]
Output:Meter,EnergyTransfer:Zone:SPORTS ARENA PLAYING AREA CLASS III FACILITY(4)-SPACE FUNCTION ZN,hourly; !- [J]
Output:Meter:Cumulative,EnergyTransfer:Zone:SPORTS ARENA PLAYING AREA CLASS III FACILITY(4)-SPACE FUNCTION ZN,hourly; !- [J]
Output:Meter,Heating:EnergyTransfer:Zone:SPORTS ARENA PLAYING AREA CLASS III FACILITY(4)-SPACE FUNCTION ZN,hourly; !- [J]
Output:Meter:Cumulative,Heating:EnergyTransfer:Zone:SPORTS ARENA PLAYING AREA CLASS III FACILITY(4)-SPACE FUNCTION ZN,hourly; !- [J]
Output:Meter,Cooling:EnergyTransfer:Zone:SPORTS ARENA PLAYING AREA CLASS III FACILITY(4)-SPACE FUNCTION ZN,hourly; !- [J]
Output:Meter:Cumulative,Cooling:EnergyTransfer:Zone:SPORTS ARENA PLAYING AREA CLASS III FACILITY(4)-SPACE FUNCTION ZN,hourly; !- [J]
Output:Meter,EnergyTransfer:Zone:SPORTS ARENA PLAYING AREA CLASS IV FACILITY(4)-SPACE FUNCTION ZN,hourly; !- [J]
Output:Meter:Cumulative,EnergyTransfer:Zone:SPORTS ARENA PLAYING AREA CLASS IV FACILITY(4)-SPACE FUNCTION ZN,hourly; !- [J]
Output:Meter,Heating:EnergyTransfer:Zone:SPORTS ARENA PLAYING AREA CLASS IV FACILITY(4)-SPACE FUNCTION ZN,hourly; !- [J]
Output:Meter:Cumulative,Heating:EnergyTransfer:Zone:SPORTS ARENA PLAYING AREA CLASS IV FACILITY(4)-SPACE FUNCTION ZN,hourly; !- [J]
Output:Meter,Cooling:EnergyTransfer:Zone:SPORTS ARENA PLAYING AREA CLASS IV FACILITY(4)-SPACE FUNCTION ZN,hourly; !- [J]
Output:Meter:Cumulative,Cooling:EnergyTransfer:Zone:SPORTS ARENA PLAYING AREA CLASS IV FACILITY(4)-SPACE FUNCTION ZN,hourly; !- [J]
Output:Meter,EnergyTransfer:Zone:TRANSPORTATION FACILITY AIRPORT CONCOURSE-SPACE FUNCTION ZN,hourly; !- [J]
Output:Meter:Cumulative,EnergyTransfer:Zone:TRANSPORTATION FACILITY AIRPORT CONCOURSE-SPACE FUNCTION ZN,hourly; !- [J]
Output:Meter,Heating:EnergyTransfer:Zone:TRANSPORTATION FACILITY AIRPORT CONCOURSE-SPACE FUNCTION ZN,hourly; !- [J]
Output:Meter:Cumulative,Heating:EnergyTransfer:Zone:TRANSPORTATION FACILITY AIRPORT CONCOURSE-SPACE FUNCTION ZN,hourly; !- [J]
Output:Meter,Cooling:EnergyTransfer:Zone:TRANSPORTATION FACILITY AIRPORT CONCOURSE-SPACE FUNCTION ZN,hourly; !- [J]
Output:Meter:Cumulative,Cooling:EnergyTransfer:Zone:TRANSPORTATION FACILITY AIRPORT CONCOURSE-SPACE FUNCTION ZN,hourly; !- [J]
Output:Meter,EnergyTransfer:Zone:TRANSPORTATION FACILITY BAGGAGE/CAROUSEL AREA-SPACE FUNCTION ZN,hourly; !- [J]
Output:Meter:Cumulative,EnergyTransfer:Zone:TRANSPORTATION FACILITY BAGGAGE/CAROUSEL AREA-SPACE FUNCTION ZN,hourly; !- [J]
Output:Meter,Heating:EnergyTransfer:Zone:TRANSPORTATION FACILITY BAGGAGE/CAROUSEL AREA-SPACE FUNCTION ZN,hourly; !- [J]
Output:Meter:Cumulative,Heating:EnergyTransfer:Zone:TRANSPORTATION FACILITY BAGGAGE/CAROUSEL AREA-SPACE FUNCTION ZN,hourly; !- [J]
Output:Meter,Cooling:EnergyTransfer:Zone:TRANSPORTATION FACILITY BAGGAGE/CAROUSEL AREA-SPACE FUNCTION ZN,hourly; !- [J]
Output:Meter:Cumulative,Cooling:EnergyTransfer:Zone:TRANSPORTATION FACILITY BAGGAGE/CAROUSEL AREA-SPACE FUNCTION ZN,hourly; !- [J]
Output:Meter,EnergyTransfer:Zone:TRANSPORTATION FACILITY TERMINAL TICKET COUNTER-SPACE FUNCTION ZN,hourly; !- [J]
Output:Meter:Cumulative,EnergyTransfer:Zone:TRANSPORTATION FACILITY TERMINAL TICKET COUNTER-SPACE FUNCTION ZN,hourly; !- [J]
Output:Meter,Heating:EnergyTransfer:Zone:TRANSPORTATION FACILITY TERMINAL TICKET COUNTER-SPACE FUNCTION ZN,hourly; !- [J]
Output:Meter:Cumulative,Heating:EnergyTransfer:Zone:TRANSPORTATION FACILITY TERMINAL TICKET COUNTER-SPACE FUNCTION ZN,hourly; !- [J]
Output:Meter,Cooling:EnergyTransfer:Zone:TRANSPORTATION FACILITY TERMINAL TICKET COUNTER-SPACE FUNCTION ZN,hourly; !- [J]
Output:Meter:Cumulative,Cooling:EnergyTransfer:Zone:TRANSPORTATION FACILITY TERMINAL TICKET COUNTER-SPACE FUNCTION ZN,hourly; !- [J]
Output:Meter,EnergyTransfer:Zone:WAREHOUSE STORAGE AREA MEDIUM TO BULKY PALLETIZED ITEMS-SPACE FUNCTION ZN,hourly; !- [J]
Output:Meter:Cumulative,EnergyTransfer:Zone:WAREHOUSE STORAGE AREA MEDIUM TO BULKY PALLETIZED ITEMS-SPACE FUNCTION ZN,hourly; !- [J]
Output:Meter,Heating:EnergyTransfer:Zone:WAREHOUSE STORAGE AREA MEDIUM TO BULKY PALLETIZED ITEMS-SPACE FUNCTION ZN,hourly; !- [J]
Output:Meter:Cumulative,Heating:EnergyTransfer:Zone:WAREHOUSE STORAGE AREA MEDIUM TO BULKY PALLETIZED ITEMS-SPACE FUNCTION ZN,hourly; !- [J]
Output:Meter,Cooling:EnergyTransfer:Zone:WAREHOUSE STORAGE AREA MEDIUM TO BULKY PALLETIZED ITEMS-SPACE FUNCTION ZN,hourly; !- [J]
Output:Meter:Cumulative,Cooling:EnergyTransfer:Zone:WAREHOUSE STORAGE AREA MEDIUM TO BULKY PALLETIZED ITEMS-SPACE FUNCTION ZN,hourly; !- [J]
Output:Meter,EnergyTransfer:Zone:WAREHOUSE STORAGE AREA SMALL HAND-CARRIED ITEMS(4)-SPACE FUNCTION ZN,hourly; !- [J]
Output:Meter:Cumulative,EnergyTransfer:Zone:WAREHOUSE STORAGE AREA SMALL HAND-CARRIED ITEMS(4)-SPACE FUNCTION ZN,hourly; !- [J]
Output:Meter,Heating:EnergyTransfer:Zone:WAREHOUSE STORAGE AREA SMALL HAND-CARRIED ITEMS(4)-SPACE FUNCTION ZN,hourly; !- [J]
Output:Meter:Cumulative,Heating:EnergyTransfer:Zone:WAREHOUSE STORAGE AREA SMALL HAND-CARRIED ITEMS(4)-SPACE FUNCTION ZN,hourly; !- [J]
Output:Meter,Cooling:EnergyTransfer:Zone:WAREHOUSE STORAGE AREA SMALL HAND-CARRIED ITEMS(4)-SPACE FUNCTION ZN,hourly; !- [J]
Output:Meter:Cumulative,Cooling:EnergyTransfer:Zone:WAREHOUSE STORAGE AREA SMALL HAND-CARRIED ITEMS(4)-SPACE FUNCTION ZN,hourly; !- [J]
Output:Meter,EnergyTransfer:Zone:WHOLEBUILDING-AUTOMOTIVE FACILITY 1 ZN,hourly; !- [J]
Output:Meter:Cumulative,EnergyTransfer:Zone:WHOLEBUILDING-AUTOMOTIVE FACILITY 1 ZN,hourly; !- [J]
Output:Meter,Heating:EnergyTransfer:Zone:WHOLEBUILDING-AUTOMOTIVE FACILITY 1 ZN,hourly; !- [J]
Output:Meter:Cumulative,Heating:EnergyTransfer:Zone:WHOLEBUILDING-AUTOMOTIVE FACILITY 1 ZN,hourly; !- [J]
Output:Meter,Cooling:EnergyTransfer:Zone:WHOLEBUILDING-AUTOMOTIVE FACILITY 1 ZN,hourly; !- [J]
Output:Meter:Cumulative,Cooling:EnergyTransfer:Zone:WHOLEBUILDING-AUTOMOTIVE FACILITY 1 ZN,hourly; !- [J]
Output:Meter,EnergyTransfer:Zone:WHOLEBUILDING-AUTOMOTIVE FACILITY 2 ZN,hourly; !- [J]
Output:Meter:Cumulative,EnergyTransfer:Zone:WHOLEBUILDING-AUTOMOTIVE FACILITY 2 ZN,hourly; !- [J]
Output:Meter,Heating:EnergyTransfer:Zone:WHOLEBUILDING-AUTOMOTIVE FACILITY 2 ZN,hourly; !- [J]
Output:Meter:Cumulative,Heating:EnergyTransfer:Zone:WHOLEBUILDING-AUTOMOTIVE FACILITY 2 ZN,hourly; !- [J]
Output:Meter,Cooling:EnergyTransfer:Zone:WHOLEBUILDING-AUTOMOTIVE FACILITY 2 ZN,hourly; !- [J]
Output:Meter:Cumulative,Cooling:EnergyTransfer:Zone:WHOLEBUILDING-AUTOMOTIVE FACILITY 2 ZN,hourly; !- [J]
Output:Meter,EnergyTransfer:Zone:WHOLEBUILDING-AUTOMOTIVE FACILITY ZN,hourly; !- [J]
Output:Meter:Cumulative,EnergyTransfer:Zone:WHOLEBUILDING-AUTOMOTIVE FACILITY ZN,hourly; !- [J]
Output:Meter,Heating:EnergyTransfer:Zone:WHOLEBUILDING-AUTOMOTIVE FACILITY ZN,hourly; !- [J]
Output:Meter:Cumulative,Heating:EnergyTransfer:Zone:WHOLEBUILDING-AUTOMOTIVE FACILITY ZN,hourly; !- [J]
Output:Meter,Cooling:EnergyTransfer:Zone:WHOLEBUILDING-AUTOMOTIVE FACILITY ZN,hourly; !- [J]
Output:Meter:Cumulative,Cooling:EnergyTransfer:Zone:WHOLEBUILDING-AUTOMOTIVE FACILITY ZN,hourly; !- [J]
Output:Meter,ElectricityPurchased:Facility,hourly; !- [J]
Output:Meter:Cumulative,ElectricityPurchased:Facility,hourly; !- [J]
Output:Meter,ElectricityPurchased:Plant,hourly; !- [J]
Output:Meter:Cumulative,ElectricityPurchased:Plant,hourly; !- [J]
Output:Meter,Cogeneration:ElectricityPurchased,hourly; !- [J]
Output:Meter:Cumulative,Cogeneration:ElectricityPurchased,hourly; !- [J]
Output:Meter,ElectricitySurplusSold:Facility,hourly; !- [J]
Output:Meter:Cumulative,ElectricitySurplusSold:Facility,hourly; !- [J]
Output:Meter,ElectricitySurplusSold:Plant,hourly; !- [J]
Output:Meter:Cumulative,ElectricitySurplusSold:Plant,hourly; !- [J]
Output:Meter,Cogeneration:ElectricitySurplusSold,hourly; !- [J]
Output:Meter:Cumulative,Cogeneration:ElectricitySurplusSold,hourly; !- [J]
Output:Meter,ElectricityNet:Facility,hourly; !- [J]
Output:Meter:Cumulative,ElectricityNet:Facility,hourly; !- [J]
Output:Meter,ElectricityNet:Plant,hourly; !- [J]
Output:Meter:Cumulative,ElectricityNet:Plant,hourly; !- [J]
Output:Meter,Cogeneration:ElectricityNet,hourly; !- [J]
Output:Meter:Cumulative,Cogeneration:ElectricityNet,hourly; !- [J]
Output:Meter,DistrictHeating:Facility,hourly; !- [J]
Output:Meter:Cumulative,DistrictHeating:Facility,hourly; !- [J]
Output:Meter,DistrictHeating:HVAC,hourly; !- [J]
Output:Meter:Cumulative,DistrictHeating:HVAC,hourly; !- [J]
Output:Meter,Heating:DistrictHeating,hourly; !- [J]
Output:Meter:Cumulative,Heating:DistrictHeating,hourly; !- [J]
Output:Meter,DistrictCooling:Facility,hourly; !- [J]
Output:Meter:Cumulative,DistrictCooling:Facility,hourly; !- [J]
Output:Meter,DistrictCooling:HVAC,hourly; !- [J]
Output:Meter:Cumulative,DistrictCooling:HVAC,hourly; !- [J]
Output:Meter,Cooling:DistrictCooling,hourly; !- [J]
Output:Meter:Cumulative,Cooling:DistrictCooling,hourly; !- [J]
Output:Meter,Carbon Equivalent:Facility,hourly; !- [kg]
Output:Meter:Cumulative,Carbon Equivalent:Facility,hourly; !- [kg]
Output:Meter,CarbonEquivalentEmissions:Carbon Equivalent,hourly; !- [kg]
Output:Meter:Cumulative,CarbonEquivalentEmissions:Carbon Equivalent,hourly; !- [kg]
