Program Version,EnergyPlus, Version 8.9.0-eba93e8e1b, YMD=2019.03.28 13:38
! <Version>, Version ID
 Version, 8.9
! <Timesteps per Hour>, #TimeSteps, Minutes per TimeStep {minutes}
 Timesteps per Hour,  6, 10
! <System Convergence Limits>, Minimum System TimeStep {minutes}, Max HVAC Iterations, Minimum Plant Iterations, Maximum Plant Iterations
 System Convergence Limits, 1, 20, 2, 8
! <Simulation Control>, Do Zone Sizing, Do System Sizing, Do Plant Sizing, Do Design Days, Do Weather Simulation, Do HVAC Sizing Simulation
 Simulation Control, Yes, No, No, Yes, No, No
! <Output Reporting Tolerances>, Tolerance for Time Heating Setpoint Not Met, Tolerance for Zone Cooling Setpoint Not Met Time
 Output Reporting Tolerances, 0.200, 0.200, 
! <Site:GroundTemperature:BuildingSurface>,Jan{C},Feb{C},Mar{C},Apr{C},May{C},Jun{C},Jul{C},Aug{C},Sep{C},Oct{C},Nov{C},Dec{C}
 Site:GroundTemperature:BuildingSurface,  19.53,  19.50,  19.54,  19.60,  20.00,  21.64,  22.23,  22.38,  21.45,  20.12,  19.80,  19.63
! <Site:GroundTemperature:FCfactorMethod>,Jan{C},Feb{C},Mar{C},Apr{C},May{C},Jun{C},Jul{C},Aug{C},Sep{C},Oct{C},Nov{C},Dec{C}
 Site:GroundTemperature:FCfactorMethod, -12.27, -13.66, -11.19,  -7.33,   2.77,  10.57,  15.83,  17.43,  14.70,   8.65,   0.56,  -6.95
! <Site:GroundTemperature:Shallow>,Jan{C},Feb{C},Mar{C},Apr{C},May{C},Jun{C},Jul{C},Aug{C},Sep{C},Oct{C},Nov{C},Dec{C}
 Site:GroundTemperature:Shallow,  13.00,  13.00,  13.00,  13.00,  13.00,  13.00,  13.00,  13.00,  13.00,  13.00,  13.00,  13.00
! <Site:GroundTemperature:Deep>,Jan{C},Feb{C},Mar{C},Apr{C},May{C},Jun{C},Jul{C},Aug{C},Sep{C},Oct{C},Nov{C},Dec{C}
 Site:GroundTemperature:Deep,  16.00,  16.00,  16.00,  16.00,  16.00,  16.00,  16.00,  16.00,  16.00,  16.00,  16.00,  16.00
! <Site:GroundReflectance>,Jan{dimensionless},Feb{dimensionless},Mar{dimensionless},Apr{dimensionless},May{dimensionless},Jun{dimensionless},Jul{dimensionless},Aug{dimensionless},Sep{dimensionless},Oct{dimensionless},Nov{dimensionless},Dec{dimensionless}
 Site:GroundReflectance,  0.20,  0.20,  0.20,  0.20,  0.20,  0.20,  0.20,  0.20,  0.20,  0.20,  0.20,  0.20
! <Site:GroundReflectance:SnowModifier>, Normal, Daylighting {dimensionless}
 Site:GroundReflectance:SnowModifier,   1.000,   1.000
! <Site:GroundReflectance:Snow>,Jan{dimensionless},Feb{dimensionless},Mar{dimensionless},Apr{dimensionless},May{dimensionless},Jun{dimensionless},Jul{dimensionless},Aug{dimensionless},Sep{dimensionless},Oct{dimensionless},Nov{dimensionless},Dec{dimensionless}
 Site:GroundReflectance:Snow,  0.20,  0.20,  0.20,  0.20,  0.20,  0.20,  0.20,  0.20,  0.20,  0.20,  0.20,  0.20
! <Site:GroundReflectance:Snow:Daylighting>,Jan{dimensionless},Feb{dimensionless},Mar{dimensionless},Apr{dimensionless},May{dimensionless},Jun{dimensionless},Jul{dimensionless},Aug{dimensionless},Sep{dimensionless},Oct{dimensionless},Nov{dimensionless},Dec{dimensionless}
 Site:GroundReflectance:Snow:Daylighting,  0.20,  0.20,  0.20,  0.20,  0.20,  0.20,  0.20,  0.20,  0.20,  0.20,  0.20,  0.20
! <Environment:Weather Station>,Wind Sensor Height Above Ground {m},Wind Speed Profile Exponent {},Wind Speed Profile Boundary Layer Thickness {m},Air Temperature Sensor Height Above Ground {m},Wind Speed Modifier Coefficient-Internal,Temperature Modifier Coefficient-Internal
Environment:Weather Station,10.000,0.140,270.000,1.500,1.586,9.750E-003
! <Site:Location>, Location Name, Latitude {N+/S- Deg}, Longitude {E+/W- Deg},  Time Zone Number {GMT+/-}, Elevation {m},  Standard Pressure at Elevation {Pa}, Standard RhoAir at Elevation
Site:Location,Fort McMurray AP AB CAN CWEC2016 WMO#=716890,56.65,-111.22,-7.00,369.10,96969,1.1525
! <Building Information>, Building Name,North Axis {deg},Terrain,  Loads Convergence Tolerance Value,Temperature Convergence Tolerance Value,  Solar Distribution,Maximum Number of Warmup Days,Minimum Number of Warmup Days
 Building Information,Building 1,0.000,Suburbs,4.00000E-002,0.40000,FullExterior,25,6
! <Inside Convection Algorithm>, Algorithm {Simple | TARP | CeilingDiffuser | AdaptiveConvectionAlgorithm}
Inside Convection Algorithm,TARP
! <Outside Convection Algorithm>, Algorithm {SimpleCombined | TARP | MoWitt | DOE-2 | AdaptiveConvectionAlgorithm}
Outside Convection Algorithm,TARP
! <Sky Radiance Distribution>, Value {Anisotropic}
Sky Radiance Distribution,Anisotropic
! <Zone Air Solution Algorithm>, Value {ThirdOrderBackwardDifference | AnalyticalSolution | EulerMethod}
 Zone Air Solution Algorithm, ThirdOrderBackwardDifference
! <Zone Air Carbon Dioxide Balance Simulation>, Simulation {Yes/No}, Carbon Dioxide Concentration
 Zone Air Carbon Dioxide Balance Simulation, No,N/A
! <Zone Air Generic Contaminant Balance Simulation>, Simulation {Yes/No}, Generic Contaminant Concentration
 Zone Air Generic Contaminant Balance Simulation, No,N/A
! <Zone Air Mass Flow Balance Simulation>, Enforce Mass Balance, Adjust Zone Mixing, Adjust Zone Infiltration {AddInfiltration | AdjustInfiltration | None}, Infiltration Zones {MixingSourceZonesOnly | AllZones}
 Zone Air Mass Flow Balance Simulation, No,N/A,N/A,N/A
! <HVACSystemRootFindingAlgorithm>, Value {RegulaFalsi | Bisection | BisectionThenRegulaFalsi | RegulaFalsiThenBisection}
 HVACSystemRootFindingAlgorithm, RegulaFalsi
! <Environment:Site Atmospheric Variation>,Wind Speed Profile Exponent {},Wind Speed Profile Boundary Layer Thickness {m},Air Temperature Gradient Coefficient {K/m}
Environment:Site Atmospheric Variation,0.220,370.000,6.500000E-003
! <Surface Geometry>,Starting Corner,Vertex Input Direction,Coordinate System,Daylight Reference Point Coordinate System,Rectangular (Simple) Surface Coordinate System
 Surface Geometry,UpperLeftCorner,Counterclockwise,RelativeCoordinateSystem,RelativeCoordinateSystem,RelativeToZoneOrigin
! <Surface Heat Transfer Algorithm>, Value {CTF - ConductionTransferFunction | EMPD - MoisturePenetrationDepthConductionTransferFunction | CondFD - ConductionFiniteDifference | HAMT - CombinedHeatAndMoistureFiniteElement} - Description,Inside Surface Max Temperature Limit{C}, Surface Convection Coefficient Lower Limit {W/m2-K}, Surface Convection Coefficient Upper Limit {W/m2-K}
Surface Heat Transfer Algorithm, CTF - ConductionTransferFunction,200,0.10,1000.0
! <Shading Summary>, Number of Fixed Detached Shades, Number of Building Detached Shades, Number of Attached Shades
 Shading Summary,0,0,0
! <Zone Summary>, Number of Zones, Number of Zone Surfaces, Number of SubSurfaces
 Zone Summary,20,137,17
! <Zone Information>,Zone Name,North Axis {deg},Origin X-Coordinate {m},Origin Y-Coordinate {m},Origin Z-Coordinate {m},Centroid X-Coordinate {m},Centroid Y-Coordinate {m},Centroid Z-Coordinate {m},Type,Zone Multiplier,Zone List Multiplier,Minimum X {m},Maximum X {m},Minimum Y {m},Maximum Y {m},Minimum Z {m},Maximum Z {m},Ceiling Height {m},Volume {m3},Zone Inside Convection Algorithm {Simple-Detailed-CeilingDiffuser-TrombeWall},Zone Outside Convection Algorithm {Simple-Detailed-Tarp-MoWitt-DOE-2-BLAST}, Floor Area {m2},Exterior Gross Wall Area {m2},Exterior Net Wall Area {m2},Exterior Window Area {m2}, Number of Surfaces, Number of SubSurfaces, Number of Shading SubSurfaces,  Part of Total Building Area
 Zone Information, WHOLEBUILDING-AUTOMOTIVE FACILITY ZN,0.0,0.00,0.00,11.40,50.00,10.85,13.30,1,1,1,0.00,100.00,0.00,25.00,11.40,15.20,3.80,7125.00,TARP,TARP,1875.00,380.00,285.00,188.75,6,2,0,Yes
 Zone Information, WHOLEBUILDING-CONVENTION CENTRE ZN,0.0,25.00,25.00,7.60,50.00,50.00,9.50,1,1,1,25.00,75.00,25.00,75.00,7.60,11.40,3.80,9500.00,TARP,TARP,2500.00,0.00,0.00,0.00,6,0,0,Yes
 Zone Information, WHOLEBUILDING-COURTHOUSE ZN,0.0,75.00,25.00,7.60,89.15,50.00,9.50,1,1,1,75.00,100.00,0.00,100.00,7.60,11.40,3.80,7125.00,TARP,TARP,1875.00,380.00,285.00,95.00,6,1,0,Yes
 Zone Information, WHOLEBUILDING-DINING - BAR LOUNGE/LEISURE ZN,0.0,25.00,75.00,7.60,50.00,89.15,9.50,1,1,1,0.00,100.00,75.00,100.00,7.60,11.40,3.80,7125.00,TARP,TARP,1875.00,380.00,285.00,95.00,6,1,0,Yes
 Zone Information, WHOLEBUILDING-DINING - CAFETERIA/FAST FOOD ZN,0.0,0.00,0.00,0.00,10.85,50.00,1.90,1,1,1,0.00,25.00,0.00,100.00,0.00,3.80,3.80,7125.00,TARP,TARP,1875.00,0.00,0.00,0.00,6,0,0,Yes
 Zone Information, WHOLEBUILDING-DINING - FAMILY ZN,0.0,25.00,25.00,11.40,50.00,50.00,13.30,1,1,1,25.00,75.00,25.00,75.00,11.40,15.20,3.80,9500.00,TARP,TARP,2500.00,0.00,0.00,125.00,6,1,0,Yes
 Zone Information, WHOLEBUILDING-DORMITORY ZN,0.0,0.00,0.00,7.60,50.00,10.85,9.50,1,1,1,0.00,100.00,0.00,25.00,7.60,11.40,3.80,7125.00,TARP,TARP,1875.00,380.00,285.00,95.00,6,1,0,Yes
 Zone Information, WHOLEBUILDING-EXERCISE CENTRE ZN,0.0,0.00,0.00,3.80,50.00,10.85,5.70,1,1,1,0.00,100.00,0.00,25.00,3.80,7.60,3.80,7125.00,TARP,TARP,1875.00,380.00,285.00,95.00,6,1,0,Yes
 Zone Information, WHOLEBUILDING-FIRE STATION ZN,0.0,25.00,75.00,0.00,50.00,89.15,1.90,1,1,1,0.00,100.00,75.00,100.00,0.00,3.80,3.80,7125.00,TARP,TARP,1875.00,0.00,0.00,0.00,6,0,0,Yes
 Zone Information, WHOLEBUILDING-GYMNASIUM ZN,0.0,0.00,0.00,11.40,10.85,50.00,13.30,1,1,1,0.00,25.00,0.00,100.00,11.40,15.20,3.80,7125.00,TARP,TARP,1875.00,380.00,285.00,188.75,6,2,0,Yes
 Zone Information, WHOLEBUILDING-HEALTH CARE CLINIC ZN,0.0,25.00,25.00,3.80,50.00,50.00,5.70,1,1,1,25.00,75.00,25.00,75.00,3.80,7.60,3.80,9500.00,TARP,TARP,2500.00,0.00,0.00,0.00,6,0,0,Yes
 Zone Information, WHOLEBUILDING-HOSPITAL ZN,0.0,75.00,25.00,11.40,89.15,50.00,13.30,1,1,1,75.00,100.00,0.00,100.00,11.40,15.20,3.80,7125.00,TARP,TARP,1875.00,380.00,285.00,188.75,6,2,0,Yes
 Zone Information, WHOLEBUILDING-HOTEL/MOTEL ZN,0.0,25.00,75.00,11.40,50.00,89.15,13.30,1,1,1,0.00,100.00,75.00,100.00,11.40,15.20,3.80,7125.00,TARP,TARP,1875.00,380.00,285.00,188.75,6,2,0,Yes
 Zone Information, WHOLEBUILDING-LIBRARY ZN,0.0,0.00,0.00,0.00,50.00,10.85,1.90,1,1,1,0.00,100.00,0.00,25.00,0.00,3.80,3.80,7125.00,TARP,TARP,1875.00,0.00,0.00,0.00,6,0,0,Yes
 Zone Information, WHOLEBUILDING-LONG-TERM CARE - DWELLING UNITS ZN,0.0,75.00,25.00,0.00,89.15,50.00,1.90,1,1,1,75.00,100.00,0.00,100.00,0.00,3.80,3.80,7125.00,TARP,TARP,1875.00,0.00,0.00,0.00,6,0,0,Yes
 Zone Information, WHOLEBUILDING-LONG-TERM CARE - OTHER ZN,0.0,0.00,0.00,3.80,10.85,50.00,5.70,1,1,1,0.00,25.00,0.00,100.00,3.80,7.60,3.80,7125.00,TARP,TARP,1875.00,380.00,285.00,95.00,6,1,0,Yes
 Zone Information, WHOLEBUILDING-MANUFACTURING FACILITY ZN,0.0,0.00,0.00,7.60,10.85,50.00,9.50,1,1,1,0.00,25.00,0.00,100.00,7.60,11.40,3.80,7125.00,TARP,TARP,1875.00,380.00,285.00,95.00,6,1,0,Yes
 Zone Information, WHOLEBUILDING-MOTION PICTURE THEATRE ZN,0.0,25.00,25.00,0.00,50.00,50.00,1.90,1,1,1,25.00,75.00,25.00,75.00,0.00,3.80,3.80,9500.00,TARP,TARP,2500.00,0.00,0.00,0.00,6,0,0,Yes
 Zone Information, WHOLEBUILDING-MULTI-UNIT RESIDENTIAL BUILDING ZN,0.0,25.00,75.00,3.80,50.00,89.15,5.70,1,1,1,0.00,100.00,75.00,100.00,3.80,7.60,3.80,7125.00,TARP,TARP,1875.00,380.00,285.00,95.00,6,1,0,Yes
 Zone Information, WHOLEBUILDING-MUSEUM ZN,0.0,75.00,25.00,3.80,89.15,50.00,5.70,1,1,1,75.00,100.00,0.00,100.00,3.80,7.60,3.80,7125.00,TARP,TARP,1875.00,380.00,285.00,95.00,6,1,0,Yes
! <Zone Internal Gains Nominal>,Zone Name, Floor Area {m2},# Occupants,Area per Occupant {m2/person},Occupant per Area {person/m2},Interior Lighting {W/m2},Electric Load {W/m2},Gas Load {W/m2},Other Load {W/m2},Hot Water Eq {W/m2},Steam Equipment {W/m2},Sum Loads per Area {W/m2},Outdoor Controlled Baseboard Heat
 Zone Internal Gains Nominal, WHOLEBUILDING-AUTOMOTIVE FACILITY ZN,1875.00,93.8,19.993,5.002E-002,8.603,5.002,0.000,0.000,0.000,0.000,13.605,No
 Zone Internal Gains Nominal, WHOLEBUILDING-CONVENTION CENTRE ZN,2500.00,312.6,7.997,0.125,10.904,2.501,0.000,0.000,0.000,0.000,13.405,No
 Zone Internal Gains Nominal, WHOLEBUILDING-COURTHOUSE ZN,1875.00,125.0,14.995,6.669E-002,10.904,5.002,0.000,0.000,0.000,0.000,15.906,No
 Zone Internal Gains Nominal, WHOLEBUILDING-DINING - BAR LOUNGE/LEISURE ZN,1875.00,187.6,9.996,0.100,10.904,1.000,0.000,0.000,0.000,0.000,11.904,No
 Zone Internal Gains Nominal, WHOLEBUILDING-DINING - CAFETERIA/FAST FOOD ZN,1875.00,187.6,9.996,0.100,9.704,1.000,0.000,0.000,0.000,0.000,10.704,No
 Zone Internal Gains Nominal, WHOLEBUILDING-DINING - FAMILY ZN,2500.00,250.1,9.996,0.100,10.204,1.000,0.000,0.000,0.000,0.000,11.204,No
 Zone Internal Gains Nominal, WHOLEBUILDING-DORMITORY ZN,1875.00,62.5,29.989,3.335E-002,6.102,2.501,0.000,0.000,0.000,0.000,8.603,No
 Zone Internal Gains Nominal, WHOLEBUILDING-EXERCISE CENTRE ZN,1875.00,187.6,9.996,0.100,9.003,1.000,0.000,0.000,0.000,0.000,10.004,No
 Zone Internal Gains Nominal, WHOLEBUILDING-FIRE STATION ZN,1875.00,75.0,24.991,4.001E-002,7.203,2.501,0.000,0.000,0.000,0.000,9.704,No
 Zone Internal Gains Nominal, WHOLEBUILDING-GYMNASIUM ZN,1875.00,187.6,9.996,0.100,10.104,1.000,0.000,0.000,0.000,0.000,11.104,No
 Zone Internal Gains Nominal, WHOLEBUILDING-HEALTH CARE CLINIC ZN,2500.00,125.0,19.993,5.002E-002,9.704,7.503,0.000,0.000,0.000,0.000,17.206,No
 Zone Internal Gains Nominal, WHOLEBUILDING-HOSPITAL ZN,1875.00,93.8,19.993,5.002E-002,11.304,7.503,0.000,0.000,0.000,0.000,18.807,No
 Zone Internal Gains Nominal, WHOLEBUILDING-HOTEL/MOTEL ZN,1875.00,75.0,24.991,4.001E-002,9.403,2.501,0.000,0.000,0.000,0.000,11.904,No
 Zone Internal Gains Nominal, WHOLEBUILDING-LIBRARY ZN,1875.00,93.8,19.993,5.002E-002,12.805,2.501,0.000,0.000,0.000,0.000,15.306,No
 Zone Internal Gains Nominal, WHOLEBUILDING-LONG-TERM CARE - DWELLING UNITS ZN,1875.00,75.0,24.991,4.001E-002,5.502,1.501,0.000,0.000,0.000,0.000,7.003,No
 Zone Internal Gains Nominal, WHOLEBUILDING-LONG-TERM CARE - OTHER ZN,1875.00,75.0,24.991,4.001E-002,5.502,1.501,0.000,0.000,0.000,0.000,7.003,No
 Zone Internal Gains Nominal, WHOLEBUILDING-MANUFACTURING FACILITY ZN,1875.00,62.5,29.989,3.335E-002,12.605,10.004,0.000,0.000,0.000,0.000,22.608,No
 Zone Internal Gains Nominal, WHOLEBUILDING-MOTION PICTURE THEATRE ZN,2500.00,312.6,7.997,0.125,8.203,1.000,0.000,0.000,0.000,0.000,9.203,No
 Zone Internal Gains Nominal, WHOLEBUILDING-MULTI-UNIT RESIDENTIAL BUILDING ZN,1875.00,75.0,24.991,4.001E-002,5.502,5.002,0.000,0.000,0.000,0.000,10.504,No
 Zone Internal Gains Nominal, WHOLEBUILDING-MUSEUM ZN,1875.00,93.8,19.993,5.002E-002,11.004,2.501,0.000,0.000,0.000,0.000,13.505,No
! <People Internal Gains Nominal>,Name,Schedule Name,Zone Name,Zone Floor Area {m2},# Zone Occupants,Number of People {},People/Floor Area {person/m2},Floor Area per person {m2/person},Fraction Radiant,Fraction Convected,Sensible Fraction Calculation,Activity level,ASHRAE 55 Warnings,Carbon Dioxide Generation Rate,Nominal Minimum Number of People,Nominal Maximum Number of People
 People Internal Gains Nominal, WHOLEBUILDING-AUTOMOTIVE FACILITY ZN AUTOMOTIVE FACILITY WHOLEBUILDING PEOPLE,NECB-E-OCCUPANCY,WHOLEBUILDING-AUTOMOTIVE FACILITY ZN,1875.00,93.8,93.8,5.002E-002,19.993,0.300,0.700,AutoCalculate,NECB-ACTIVITY,No,3.8200E-008,0,84
 People Internal Gains Nominal, WHOLEBUILDING-CONVENTION CENTRE ZN CONVENTION CENTRE WHOLEBUILDING PEOPLE,NECB-C-OCCUPANCY,WHOLEBUILDING-CONVENTION CENTRE ZN,2500.00,312.6,312.6,0.125,7.997,0.300,0.700,AutoCalculate,NECB-ACTIVITY,No,3.8200E-008,0,281
 People Internal Gains Nominal, WHOLEBUILDING-COURTHOUSE ZN COURTHOUSE WHOLEBUILDING PEOPLE,NECB-A-OCCUPANCY,WHOLEBUILDING-COURTHOUSE ZN,1875.00,125.0,125.0,6.669E-002,14.995,0.300,0.700,AutoCalculate,NECB-ACTIVITY,No,3.8200E-008,0,113
 People Internal Gains Nominal, WHOLEBUILDING-DINING - BAR LOUNGE/LEISURE ZN DINING - BAR LOUNGE/LEISURE WHOLEBUILDING PEOPLE,NECB-B-OCCUPANCY,WHOLEBUILDING-DINING - BAR LOUNGE/LEISURE ZN,1875.00,187.6,187.6,0.100,9.996,0.300,0.700,AutoCalculate,NECB-ACTIVITY,No,3.8200E-008,0,169
 People Internal Gains Nominal, WHOLEBUILDING-DINING - CAFETERIA/FAST FOOD ZN DINING - CAFETERIA/FAST FOOD WHOLEBUILDING PEOPLE,NECB-B-OCCUPANCY,WHOLEBUILDING-DINING - CAFETERIA/FAST FOOD ZN,1875.00,187.6,187.6,0.100,9.996,0.300,0.700,AutoCalculate,NECB-ACTIVITY,No,3.8200E-008,0,169
 People Internal Gains Nominal, WHOLEBUILDING-DINING - FAMILY ZN DINING - FAMILY WHOLEBUILDING PEOPLE,NECB-B-OCCUPANCY,WHOLEBUILDING-DINING - FAMILY ZN,2500.00,250.1,250.1,0.100,9.996,0.300,0.700,AutoCalculate,NECB-ACTIVITY,No,3.8200E-008,0,225
 People Internal Gains Nominal, WHOLEBUILDING-DORMITORY ZN DORMITORY WHOLEBUILDING PEOPLE,NECB-G-OCCUPANCY,WHOLEBUILDING-DORMITORY ZN,1875.00,62.5,62.5,3.335E-002,29.989,0.300,0.700,AutoCalculate,NECB-ACTIVITY,No,3.8200E-008,19,56
 People Internal Gains Nominal, WHOLEBUILDING-EXERCISE CENTRE ZN EXERCISE CENTRE WHOLEBUILDING PEOPLE,NECB-B-OCCUPANCY,WHOLEBUILDING-EXERCISE CENTRE ZN,1875.00,187.6,187.6,0.100,9.996,0.300,0.700,AutoCalculate,NECB-ACTIVITY,No,3.8200E-008,0,169
 People Internal Gains Nominal, WHOLEBUILDING-FIRE STATION ZN FIRE STATION WHOLEBUILDING PEOPLE,NECB-F-OCCUPANCY,WHOLEBUILDING-FIRE STATION ZN,1875.00,75.0,75.0,4.001E-002,24.991,0.300,0.700,AutoCalculate,NECB-ACTIVITY,No,3.8200E-008,11,47
 People Internal Gains Nominal, WHOLEBUILDING-GYMNASIUM ZN GYMNASIUM WHOLEBUILDING PEOPLE,NECB-B-OCCUPANCY,WHOLEBUILDING-GYMNASIUM ZN,1875.00,187.6,187.6,0.100,9.996,0.300,0.700,AutoCalculate,NECB-ACTIVITY,No,3.8200E-008,0,169
 People Internal Gains Nominal, WHOLEBUILDING-HEALTH CARE CLINIC ZN HEALTH CARE CLINIC WHOLEBUILDING PEOPLE,NECB-A-OCCUPANCY,WHOLEBUILDING-HEALTH CARE CLINIC ZN,2500.00,125.0,125.0,5.002E-002,19.993,0.300,0.700,AutoCalculate,NECB-ACTIVITY,No,3.8200E-008,0,113
 People Internal Gains Nominal, WHOLEBUILDING-HOSPITAL ZN HOSPITAL WHOLEBUILDING PEOPLE,NECB-H-OCCUPANCY,WHOLEBUILDING-HOSPITAL ZN,1875.00,93.8,93.8,5.002E-002,19.993,0.300,0.700,AutoCalculate,NECB-ACTIVITY,No,3.8200E-008,84,84
 People Internal Gains Nominal, WHOLEBUILDING-HOTEL/MOTEL ZN HOTEL/MOTEL WHOLEBUILDING PEOPLE,NECB-F-OCCUPANCY,WHOLEBUILDING-HOTEL/MOTEL ZN,1875.00,75.0,75.0,4.001E-002,24.991,0.300,0.700,AutoCalculate,NECB-ACTIVITY,No,3.8200E-008,11,47
 People Internal Gains Nominal, WHOLEBUILDING-LIBRARY ZN LIBRARY WHOLEBUILDING PEOPLE,NECB-C-OCCUPANCY,WHOLEBUILDING-LIBRARY ZN,1875.00,93.8,93.8,5.002E-002,19.993,0.300,0.700,AutoCalculate,NECB-ACTIVITY,No,3.8200E-008,0,84
 People Internal Gains Nominal, WHOLEBUILDING-LONG-TERM CARE - DWELLING UNITS ZN LONG-TERM CARE - DWELLING UNITS WHOLEBUILDING PEOPLE,NECB-J-OCCUPANCY,WHOLEBUILDING-LONG-TERM CARE - DWELLING UNITS ZN,1875.00,75.0,75.0,4.001E-002,24.991,0.300,0.700,AutoCalculate,NECB-ACTIVITY,No,3.8200E-008,45,68
 People Internal Gains Nominal, WHOLEBUILDING-LONG-TERM CARE - OTHER ZN LONG-TERM CARE - OTHER WHOLEBUILDING PEOPLE,NECB-B-OCCUPANCY,WHOLEBUILDING-LONG-TERM CARE - OTHER ZN,1875.00,75.0,75.0,4.001E-002,24.991,0.300,0.700,AutoCalculate,NECB-ACTIVITY,No,3.8200E-008,0,68
 People Internal Gains Nominal, WHOLEBUILDING-MANUFACTURING FACILITY ZN MANUFACTURING FACILITY WHOLEBUILDING PEOPLE,NECB-A-OCCUPANCY,WHOLEBUILDING-MANUFACTURING FACILITY ZN,1875.00,62.5,62.5,3.335E-002,29.989,0.300,0.700,AutoCalculate,NECB-ACTIVITY,No,3.8200E-008,0,56
 People Internal Gains Nominal, WHOLEBUILDING-MOTION PICTURE THEATRE ZN MOTION PICTURE THEATRE WHOLEBUILDING PEOPLE,NECB-C-OCCUPANCY,WHOLEBUILDING-MOTION PICTURE THEATRE ZN,2500.00,312.6,312.6,0.125,7.997,0.300,0.700,AutoCalculate,NECB-ACTIVITY,No,3.8200E-008,0,281
 People Internal Gains Nominal, WHOLEBUILDING-MULTI-UNIT RESIDENTIAL BUILDING ZN MULTI-UNIT RESIDENTIAL BUILDING WHOLEBUILDING PEOPLE,NECB-G-OCCUPANCY,WHOLEBUILDING-MULTI-UNIT RESIDENTIAL BUILDING ZN,1875.00,75.0,75.0,4.001E-002,24.991,0.300,0.700,AutoCalculate,NECB-ACTIVITY,No,3.8200E-008,23,68
 People Internal Gains Nominal, WHOLEBUILDING-MUSEUM ZN MUSEUM WHOLEBUILDING PEOPLE,NECB-C-OCCUPANCY,WHOLEBUILDING-MUSEUM ZN,1875.00,93.8,93.8,5.002E-002,19.993,0.300,0.700,AutoCalculate,NECB-ACTIVITY,No,3.8200E-008,0,84
! <Lights Internal Gains Nominal>,Name,Schedule Name,Zone Name,Zone Floor Area {m2},# Zone Occupants,Lighting Level {W},Lights/Floor Area {W/m2},Lights per person {W/person},Fraction Return Air,Fraction Radiant,Fraction Short Wave,Fraction Convected,Fraction Replaceable,End-Use Category,Nominal Minimum Lighting Level {W},Nominal Maximum Lighting Level {W}
 Lights Internal Gains Nominal, WHOLEBUILDING-AUTOMOTIVE FACILITY ZN AUTOMOTIVE FACILITY WHOLEBUILDING LIGHTS,NECB-E-OCCUPANCY-NECB-E-LIGHTING-0.0-0.0-0.0-LIGHT RULESET,WHOLEBUILDING-AUTOMOTIVE FACILITY ZN,1875.00,93.8,16130.860,8.603,172.000,0.000,0.500,0.200,0.300,1.000,General,806.543,14517.774
 Lights Internal Gains Nominal, WHOLEBUILDING-CONVENTION CENTRE ZN CONVENTION CENTRE WHOLEBUILDING LIGHTS,NECB-C-OCCUPANCY-NECB-C-LIGHTING-0.0-0.0-0.0-LIGHT RULESET,WHOLEBUILDING-CONVENTION CENTRE ZN,2500.00,312.6,27259.903,10.904,87.200,0.000,0.500,0.200,0.300,1.000,General,1362.995,24533.913
 Lights Internal Gains Nominal, WHOLEBUILDING-COURTHOUSE ZN COURTHOUSE WHOLEBUILDING LIGHTS,NECB-A-OCCUPANCY-NECB-A-LIGHTING-0.0-0.0-0.0-LIGHT RULESET,WHOLEBUILDING-COURTHOUSE ZN,1875.00,125.0,20444.927,10.904,163.500,0.000,0.500,0.200,0.300,1.000,General,1022.246,18400.435
 Lights Internal Gains Nominal, WHOLEBUILDING-DINING - BAR LOUNGE/LEISURE ZN DINING - BAR LOUNGE/LEISURE WHOLEBUILDING LIGHTS,NECB-B-OCCUPANCY-NECB-B-LIGHTING-0.0-0.0-0.0-LIGHT RULESET,WHOLEBUILDING-DINING - BAR LOUNGE/LEISURE ZN,1875.00,187.6,20444.927,10.904,109.000,0.000,0.500,0.200,0.300,1.000,General,2044.493,18400.435
 Lights Internal Gains Nominal, WHOLEBUILDING-DINING - CAFETERIA/FAST FOOD ZN DINING - CAFETERIA/FAST FOOD WHOLEBUILDING LIGHTS,NECB-B-OCCUPANCY-NECB-B-LIGHTING-0.0-0.0-0.0-LIGHT RULESET,WHOLEBUILDING-DINING - CAFETERIA/FAST FOOD ZN,1875.00,187.6,18194.110,9.704,97.000,0.000,0.500,0.200,0.300,1.000,General,1819.411,16374.699
 Lights Internal Gains Nominal, WHOLEBUILDING-DINING - FAMILY ZN DINING - FAMILY WHOLEBUILDING LIGHTS,NECB-B-OCCUPANCY-NECB-B-LIGHTING-0.0-0.0-0.0-LIGHT RULESET,WHOLEBUILDING-DINING - FAMILY ZN,2500.00,250.1,25509.267,10.204,102.000,0.000,0.500,0.200,0.300,1.000,General,2550.927,22958.341
 Lights Internal Gains Nominal, WHOLEBUILDING-DORMITORY ZN DORMITORY WHOLEBUILDING LIGHTS,NECB-G-LIGHTING,WHOLEBUILDING-DORMITORY ZN,1875.00,62.5,11441.657,6.102,183.000,0.000,0.500,0.200,0.300,1.000,General,0.000,10297.491
 Lights Internal Gains Nominal, WHOLEBUILDING-EXERCISE CENTRE ZN EXERCISE CENTRE WHOLEBUILDING LIGHTS,NECB-B-OCCUPANCY-NECB-B-LIGHTING-0.0-0.0-0.0-LIGHT RULESET,WHOLEBUILDING-EXERCISE CENTRE ZN,1875.00,187.6,16881.133,9.003,90.000,0.000,0.500,0.200,0.300,1.000,General,1688.113,15193.019
 Lights Internal Gains Nominal, WHOLEBUILDING-FIRE STATION ZN FIRE STATION WHOLEBUILDING LIGHTS,NECB-F-LIGHTING,WHOLEBUILDING-FIRE STATION ZN,1875.00,75.0,13504.906,7.203,180.000,0.000,0.500,0.200,0.300,1.000,General,945.343,8508.091
 Lights Internal Gains Nominal, WHOLEBUILDING-GYMNASIUM ZN GYMNASIUM WHOLEBUILDING LIGHTS,NECB-B-OCCUPANCY-NECB-B-LIGHTING-0.0-0.0-0.0-LIGHT RULESET,WHOLEBUILDING-GYMNASIUM ZN,1875.00,187.6,18944.382,10.104,101.000,0.000,0.500,0.200,0.300,1.000,General,1894.438,17049.944
 Lights Internal Gains Nominal, WHOLEBUILDING-HEALTH CARE CLINIC ZN HEALTH CARE CLINIC WHOLEBUILDING LIGHTS,NECB-A-OCCUPANCY-NECB-A-LIGHTING-0.0-0.0-0.0-LIGHT RULESET,WHOLEBUILDING-HEALTH CARE CLINIC ZN,2500.00,125.0,24258.813,9.704,194.000,0.000,0.500,0.200,0.300,1.000,General,1212.941,21832.932
 Lights Internal Gains Nominal, WHOLEBUILDING-HOSPITAL ZN HOSPITAL WHOLEBUILDING LIGHTS,NECB-H-OCCUPANCY-NECB-H-LIGHTING-0.0-0.0-0.0-LIGHT RULESET,WHOLEBUILDING-HOSPITAL ZN,1875.00,93.8,21195.200,11.304,226.000,0.000,0.500,0.200,0.300,1.000,General,19075.680,19075.680
 Lights Internal Gains Nominal, WHOLEBUILDING-HOTEL/MOTEL ZN HOTEL/MOTEL WHOLEBUILDING LIGHTS,NECB-F-OCCUPANCY-NECB-F-LIGHTING-0.0-0.0-0.0-LIGHT RULESET,WHOLEBUILDING-HOTEL/MOTEL ZN,1875.00,75.0,17631.405,9.403,235.000,0.000,0.500,0.200,0.300,1.000,General,1234.198,11107.785
 Lights Internal Gains Nominal, WHOLEBUILDING-LIBRARY ZN LIBRARY WHOLEBUILDING LIGHTS,NECB-C-OCCUPANCY-NECB-C-LIGHTING-0.0-0.0-0.0-LIGHT RULESET,WHOLEBUILDING-LIBRARY ZN,1875.00,93.8,24008.722,12.805,256.000,0.000,0.500,0.200,0.300,1.000,General,1200.436,21607.850
 Lights Internal Gains Nominal, WHOLEBUILDING-LONG-TERM CARE - DWELLING UNITS ZN LONG-TERM CARE - DWELLING UNITS WHOLEBUILDING LIGHTS,NECB-J-LIGHTING,WHOLEBUILDING-LONG-TERM CARE - DWELLING UNITS ZN,1875.00,75.0,10316.248,5.502,137.500,0.000,0.500,0.200,0.300,1.000,General,1031.625,7221.373
 Lights Internal Gains Nominal, WHOLEBUILDING-LONG-TERM CARE - OTHER ZN LONG-TERM CARE - OTHER WHOLEBUILDING LIGHTS,NECB-B-LIGHTING,WHOLEBUILDING-LONG-TERM CARE - OTHER ZN,1875.00,75.0,10316.248,5.502,137.500,0.000,0.500,0.200,0.300,1.000,General,1031.625,9284.623
 Lights Internal Gains Nominal, WHOLEBUILDING-MANUFACTURING FACILITY ZN MANUFACTURING FACILITY WHOLEBUILDING LIGHTS,NECB-A-OCCUPANCY-NECB-A-LIGHTING-0.0-0.0-0.0-LIGHT RULESET,WHOLEBUILDING-MANUFACTURING FACILITY ZN,1875.00,62.5,23633.586,12.605,378.000,0.000,0.500,0.200,0.300,1.000,General,1181.679,21270.227
 Lights Internal Gains Nominal, WHOLEBUILDING-MOTION PICTURE THEATRE ZN MOTION PICTURE THEATRE WHOLEBUILDING LIGHTS,NECB-C-LIGHTING,WHOLEBUILDING-MOTION PICTURE THEATRE ZN,2500.00,312.6,20507.450,8.203,65.600,0.000,0.500,0.200,0.300,1.000,General,1025.373,18456.705
 Lights Internal Gains Nominal, WHOLEBUILDING-MULTI-UNIT RESIDENTIAL BUILDING ZN MULTI-UNIT RESIDENTIAL BUILDING WHOLEBUILDING LIGHTS,NECB-G-LIGHTING,WHOLEBUILDING-MULTI-UNIT RESIDENTIAL BUILDING ZN,1875.00,75.0,10316.248,5.502,137.500,0.000,0.500,0.200,0.300,1.000,General,0.000,9284.623
 Lights Internal Gains Nominal, WHOLEBUILDING-MUSEUM ZN MUSEUM WHOLEBUILDING LIGHTS,NECB-C-OCCUPANCY-NECB-C-LIGHTING-0.0-0.0-0.0-LIGHT RULESET,WHOLEBUILDING-MUSEUM ZN,1875.00,93.8,20632.496,11.004,220.000,0.000,0.500,0.200,0.300,1.000,General,1031.625,18569.246
! <ElectricEquipment Internal Gains Nominal>,Name,Schedule Name,Zone Name,Zone Floor Area {m2},# Zone Occupants,Equipment Level {W},Equipment/Floor Area {W/m2},Equipment per person {W/person},Fraction Latent,Fraction Radiant,Fraction Lost,Fraction Convected,End-Use SubCategory,Nominal Minimum Equipment Level {W},Nominal Maximum Equipment Level {W}
 ElectricEquipment Internal Gains Nominal, WHOLEBUILDING-AUTOMOTIVE FACILITY ZN AUTOMOTIVE FACILITY WHOLEBUILDING ELEC EQUIP,NECB-E-ELECTRIC-EQUIPMENT,WHOLEBUILDING-AUTOMOTIVE FACILITY ZN,1875.00,93.8,9378.407,5.002,100.000,0.000,0.500,0.000,0.500,General,468.920,8440.566
 ElectricEquipment Internal Gains Nominal, WHOLEBUILDING-CONVENTION CENTRE ZN CONVENTION CENTRE WHOLEBUILDING ELEC EQUIP,NECB-C-ELECTRIC-EQUIPMENT,WHOLEBUILDING-CONVENTION CENTRE ZN,2500.00,312.6,6252.271,2.501,20.000,0.000,0.500,0.000,0.500,General,312.614,5627.044
 ElectricEquipment Internal Gains Nominal, WHOLEBUILDING-COURTHOUSE ZN COURTHOUSE WHOLEBUILDING ELEC EQUIP,NECB-A-ELECTRIC-EQUIPMENT,WHOLEBUILDING-COURTHOUSE ZN,1875.00,125.0,9378.407,5.002,75.000,0.000,0.500,0.000,0.500,General,1875.681,8440.566
 ElectricEquipment Internal Gains Nominal, WHOLEBUILDING-DINING - BAR LOUNGE/LEISURE ZN DINING - BAR LOUNGE/LEISURE WHOLEBUILDING ELEC EQUIP,NECB-B-ELECTRIC-EQUIPMENT,WHOLEBUILDING-DINING - BAR LOUNGE/LEISURE ZN,1875.00,187.6,1875.681,1.000,10.000,0.000,0.500,0.000,0.500,General,187.568,1688.113
 ElectricEquipment Internal Gains Nominal, WHOLEBUILDING-DINING - CAFETERIA/FAST FOOD ZN DINING - CAFETERIA/FAST FOOD WHOLEBUILDING ELEC EQUIP,NECB-B-ELECTRIC-EQUIPMENT,WHOLEBUILDING-DINING - CAFETERIA/FAST FOOD ZN,1875.00,187.6,1875.681,1.000,10.000,0.000,0.500,0.000,0.500,General,187.568,1688.113
 ElectricEquipment Internal Gains Nominal, WHOLEBUILDING-DINING - FAMILY ZN DINING - FAMILY WHOLEBUILDING ELEC EQUIP,NECB-B-ELECTRIC-EQUIPMENT,WHOLEBUILDING-DINING - FAMILY ZN,2500.00,250.1,2500.909,1.000,10.000,0.000,0.500,0.000,0.500,General,250.091,2250.818
 ElectricEquipment Internal Gains Nominal, WHOLEBUILDING-DORMITORY ZN DORMITORY WHOLEBUILDING ELEC EQUIP,NECB-G-ELECTRIC-EQUIPMENT,WHOLEBUILDING-DORMITORY ZN,1875.00,62.5,4689.204,2.501,75.000,0.000,0.500,0.000,0.500,General,937.841,4220.283
 ElectricEquipment Internal Gains Nominal, WHOLEBUILDING-EXERCISE CENTRE ZN EXERCISE CENTRE WHOLEBUILDING ELEC EQUIP,NECB-B-ELECTRIC-EQUIPMENT,WHOLEBUILDING-EXERCISE CENTRE ZN,1875.00,187.6,1875.681,1.000,10.000,0.000,0.500,0.000,0.500,General,187.568,1688.113
 ElectricEquipment Internal Gains Nominal, WHOLEBUILDING-FIRE STATION ZN FIRE STATION WHOLEBUILDING ELEC EQUIP,NECB-F-ELECTRIC-EQUIPMENT,WHOLEBUILDING-FIRE STATION ZN,1875.00,75.0,4689.204,2.501,62.500,0.000,0.500,0.000,0.500,General,328.244,2954.198
 ElectricEquipment Internal Gains Nominal, WHOLEBUILDING-GYMNASIUM ZN GYMNASIUM WHOLEBUILDING ELEC EQUIP,NECB-B-ELECTRIC-EQUIPMENT,WHOLEBUILDING-GYMNASIUM ZN,1875.00,187.6,1875.681,1.000,10.000,0.000,0.500,0.000,0.500,General,187.568,1688.113
 ElectricEquipment Internal Gains Nominal, WHOLEBUILDING-HEALTH CARE CLINIC ZN HEALTH CARE CLINIC WHOLEBUILDING ELEC EQUIP,NECB-A-ELECTRIC-EQUIPMENT,WHOLEBUILDING-HEALTH CARE CLINIC ZN,2500.00,125.0,18756.814,7.503,150.000,0.000,0.500,0.000,0.500,General,3751.363,16881.133
 ElectricEquipment Internal Gains Nominal, WHOLEBUILDING-HOSPITAL ZN HOSPITAL WHOLEBUILDING ELEC EQUIP,NECB-H-ELECTRIC-EQUIPMENT,WHOLEBUILDING-HOSPITAL ZN,1875.00,93.8,14067.611,7.503,150.000,0.000,0.500,0.000,0.500,General,12660.850,12660.850
 ElectricEquipment Internal Gains Nominal, WHOLEBUILDING-HOTEL/MOTEL ZN HOTEL/MOTEL WHOLEBUILDING ELEC EQUIP,NECB-F-ELECTRIC-EQUIPMENT,WHOLEBUILDING-HOTEL/MOTEL ZN,1875.00,75.0,4689.204,2.501,62.500,0.000,0.500,0.000,0.500,General,328.244,2954.198
 ElectricEquipment Internal Gains Nominal, WHOLEBUILDING-LIBRARY ZN LIBRARY WHOLEBUILDING ELEC EQUIP,NECB-C-ELECTRIC-EQUIPMENT,WHOLEBUILDING-LIBRARY ZN,1875.00,93.8,4689.204,2.501,50.000,0.000,0.500,0.000,0.500,General,234.460,4220.283
 ElectricEquipment Internal Gains Nominal, WHOLEBUILDING-LONG-TERM CARE - DWELLING UNITS ZN LONG-TERM CARE - DWELLING UNITS WHOLEBUILDING ELEC EQUIP,NECB-J-ELECTRIC-EQUIPMENT,WHOLEBUILDING-LONG-TERM CARE - DWELLING UNITS ZN,1875.00,75.0,2813.522,1.501,37.500,0.000,0.500,0.000,0.500,General,281.352,1969.465
 ElectricEquipment Internal Gains Nominal, WHOLEBUILDING-LONG-TERM CARE - OTHER ZN LONG-TERM CARE - OTHER WHOLEBUILDING ELEC EQUIP,NECB-B-ELECTRIC-EQUIPMENT,WHOLEBUILDING-LONG-TERM CARE - OTHER ZN,1875.00,75.0,2813.522,1.501,37.500,0.000,0.500,0.000,0.500,General,281.352,2532.170
 ElectricEquipment Internal Gains Nominal, WHOLEBUILDING-MANUFACTURING FACILITY ZN MANUFACTURING FACILITY WHOLEBUILDING ELEC EQUIP,NECB-A-ELECTRIC-EQUIPMENT,WHOLEBUILDING-MANUFACTURING FACILITY ZN,1875.00,62.5,18756.814,10.004,300.000,0.000,0.500,0.000,0.500,General,3751.363,16881.133
 ElectricEquipment Internal Gains Nominal, WHOLEBUILDING-MOTION PICTURE THEATRE ZN MOTION PICTURE THEATRE WHOLEBUILDING ELEC EQUIP,NECB-C-ELECTRIC-EQUIPMENT,WHOLEBUILDING-MOTION PICTURE THEATRE ZN,2500.00,312.6,2500.909,1.000,8.000,0.000,0.500,0.000,0.500,General,125.045,2250.818
 ElectricEquipment Internal Gains Nominal, WHOLEBUILDING-MULTI-UNIT RESIDENTIAL BUILDING ZN MULTI-UNIT RESIDENTIAL BUILDING WHOLEBUILDING ELEC EQUIP,NECB-G-ELECTRIC-EQUIPMENT,WHOLEBUILDING-MULTI-UNIT RESIDENTIAL BUILDING ZN,1875.00,75.0,9378.407,5.002,125.000,0.000,0.500,0.000,0.500,General,1875.681,8440.566
 ElectricEquipment Internal Gains Nominal, WHOLEBUILDING-MUSEUM ZN MUSEUM WHOLEBUILDING ELEC EQUIP,NECB-C-ELECTRIC-EQUIPMENT,WHOLEBUILDING-MUSEUM ZN,1875.00,93.8,4689.204,2.501,50.000,0.000,0.500,0.000,0.500,General,234.460,4220.283
! <Shadowing/Sun Position Calculations Annual Simulations>, Calculation Method, Value {days}, Allowable Number Figures in Shadow Overlap {}, Polygon Clipping Algorithm, Sky Diffuse Modeling Algorithm, External Shading Calculation Method, Output External Shading Calculation Results, Disable Self-Shading Within Shading Zone Groups, Disable Self-Shading From Shading Zone Groups to Other Zones
Shadowing/Sun Position Calculations Annual Simulations,AverageOverDaysInFrequency,20,15000,SutherlandHodgman,SimpleSkyDiffuseModeling,InternalCalculation,No,No,No
! <ZoneInfiltration Airflow Stats Nominal>,Name,Schedule Name,Zone Name, Zone Floor Area {m2}, # Zone Occupants,Design Volume Flow Rate {m3/s},Volume Flow Rate/Floor Area {m3/s/m2},Volume Flow Rate/Exterior Surface Area {m3/s/m2},ACH - Air Changes per Hour,Equation A - Constant Term Coefficient {},Equation B - Temperature Term Coefficient {1/C},Equation C - Velocity Term Coefficient {s/m}, Equation D - Velocity Squared Term Coefficient {s2/m2}
 ZoneInfiltration Airflow Stats Nominal, WHOLEBUILDING-AUTOMOTIVE FACILITY INFILTRATION,ALWAYS ON DISCRETE,WHOLEBUILDING-AUTOMOTIVE FACILITY ZN,1875.00,93.8,0.564,3.007E-004,2.500E-004,0.285,0.000,0.000,0.224,0.000
 ZoneInfiltration Airflow Stats Nominal, WHOLEBUILDING-COURTHOUSE INFILTRATION,ALWAYS ON DISCRETE,WHOLEBUILDING-COURTHOUSE ZN,1875.00,125.0,9.500E-002,5.067E-005,2.500E-004,4.800E-002,0.000,0.000,0.224,0.000
 ZoneInfiltration Airflow Stats Nominal, WHOLEBUILDING-DINING - BAR LOUNGE/LEISURE INFILTRATION,ALWAYS ON DISCRETE,WHOLEBUILDING-DINING - BAR LOUNGE/LEISURE ZN,1875.00,187.6,9.500E-002,5.067E-005,2.500E-004,4.800E-002,0.000,0.000,0.224,0.000
 ZoneInfiltration Airflow Stats Nominal, WHOLEBUILDING-DINING - FAMILY INFILTRATION,ALWAYS ON DISCRETE,WHOLEBUILDING-DINING - FAMILY ZN,2500.00,250.1,0.625,2.500E-004,2.500E-004,0.237,0.000,0.000,0.224,0.000
 ZoneInfiltration Airflow Stats Nominal, WHOLEBUILDING-DORMITORY INFILTRATION,ALWAYS ON DISCRETE,WHOLEBUILDING-DORMITORY ZN,1875.00,62.5,9.500E-002,5.067E-005,2.500E-004,4.800E-002,0.000,0.000,0.224,0.000
 ZoneInfiltration Airflow Stats Nominal, WHOLEBUILDING-EXERCISE CENTRE INFILTRATION,ALWAYS ON DISCRETE,WHOLEBUILDING-EXERCISE CENTRE ZN,1875.00,187.6,9.500E-002,5.067E-005,2.500E-004,4.800E-002,0.000,0.000,0.224,0.000
 ZoneInfiltration Airflow Stats Nominal, WHOLEBUILDING-GYMNASIUM INFILTRATION,ALWAYS ON DISCRETE,WHOLEBUILDING-GYMNASIUM ZN,1875.00,187.6,0.564,3.007E-004,2.500E-004,0.285,0.000,0.000,0.224,0.000
 ZoneInfiltration Airflow Stats Nominal, WHOLEBUILDING-HOSPITAL INFILTRATION,ALWAYS ON DISCRETE,WHOLEBUILDING-HOSPITAL ZN,1875.00,93.8,0.564,3.007E-004,2.500E-004,0.285,0.000,0.000,0.224,0.000
 ZoneInfiltration Airflow Stats Nominal, WHOLEBUILDING-HOTEL/MOTEL INFILTRATION,ALWAYS ON DISCRETE,WHOLEBUILDING-HOTEL/MOTEL ZN,1875.00,75.0,0.564,3.007E-004,2.500E-004,0.285,0.000,0.000,0.224,0.000
 ZoneInfiltration Airflow Stats Nominal, WHOLEBUILDING-LONG-TERM CARE - OTHER INFILTRATION,ALWAYS ON DISCRETE,WHOLEBUILDING-LONG-TERM CARE - OTHER ZN,1875.00,75.0,9.500E-002,5.067E-005,2.500E-004,4.800E-002,0.000,0.000,0.224,0.000
 ZoneInfiltration Airflow Stats Nominal, WHOLEBUILDING-MANUFACTURING FACILITY INFILTRATION,ALWAYS ON DISCRETE,WHOLEBUILDING-MANUFACTURING FACILITY ZN,1875.00,62.5,9.500E-002,5.067E-005,2.500E-004,4.800E-002,0.000,0.000,0.224,0.000
 ZoneInfiltration Airflow Stats Nominal, WHOLEBUILDING-MULTI-UNIT RESIDENTIAL BUILDING INFILTRATION,ALWAYS ON DISCRETE,WHOLEBUILDING-MULTI-UNIT RESIDENTIAL BUILDING ZN,1875.00,75.0,9.500E-002,5.067E-005,2.500E-004,4.800E-002,0.000,0.000,0.224,0.000
 ZoneInfiltration Airflow Stats Nominal, WHOLEBUILDING-MUSEUM INFILTRATION,ALWAYS ON DISCRETE,WHOLEBUILDING-MUSEUM ZN,1875.00,93.8,9.500E-002,5.067E-005,2.500E-004,4.800E-002,0.000,0.000,0.224,0.000
! <AirFlow Model>, Simple
 AirFlow Model, Simple
! <RoomAir Model>, Zone Name, Mixing/Mundt/UCSDDV/UCSDCV/UCSDUFI/UCSDUFE/User Defined
RoomAir Model,WHOLEBUILDING-AUTOMOTIVE FACILITY ZN,Mixing/Well-Stirred
RoomAir Model,WHOLEBUILDING-CONVENTION CENTRE ZN,Mixing/Well-Stirred
RoomAir Model,WHOLEBUILDING-COURTHOUSE ZN,Mixing/Well-Stirred
RoomAir Model,WHOLEBUILDING-DINING - BAR LOUNGE/LEISURE ZN,Mixing/Well-Stirred
RoomAir Model,WHOLEBUILDING-DINING - CAFETERIA/FAST FOOD ZN,Mixing/Well-Stirred
RoomAir Model,WHOLEBUILDING-DINING - FAMILY ZN,Mixing/Well-Stirred
RoomAir Model,WHOLEBUILDING-DORMITORY ZN,Mixing/Well-Stirred
RoomAir Model,WHOLEBUILDING-EXERCISE CENTRE ZN,Mixing/Well-Stirred
RoomAir Model,WHOLEBUILDING-FIRE STATION ZN,Mixing/Well-Stirred
RoomAir Model,WHOLEBUILDING-GYMNASIUM ZN,Mixing/Well-Stirred
RoomAir Model,WHOLEBUILDING-HEALTH CARE CLINIC ZN,Mixing/Well-Stirred
RoomAir Model,WHOLEBUILDING-HOSPITAL ZN,Mixing/Well-Stirred
RoomAir Model,WHOLEBUILDING-HOTEL/MOTEL ZN,Mixing/Well-Stirred
RoomAir Model,WHOLEBUILDING-LIBRARY ZN,Mixing/Well-Stirred
RoomAir Model,WHOLEBUILDING-LONG-TERM CARE - DWELLING UNITS ZN,Mixing/Well-Stirred
RoomAir Model,WHOLEBUILDING-LONG-TERM CARE - OTHER ZN,Mixing/Well-Stirred
RoomAir Model,WHOLEBUILDING-MANUFACTURING FACILITY ZN,Mixing/Well-Stirred
RoomAir Model,WHOLEBUILDING-MOTION PICTURE THEATRE ZN,Mixing/Well-Stirred
RoomAir Model,WHOLEBUILDING-MULTI-UNIT RESIDENTIAL BUILDING ZN,Mixing/Well-Stirred
RoomAir Model,WHOLEBUILDING-MUSEUM ZN,Mixing/Well-Stirred
! <AirflowNetwork Model:Control>, No Multizone or Distribution/Multizone with Distribution/Multizone without Distribution/Multizone with Distribution only during Fan Operation
AirflowNetwork Model:Control,NoMultizoneOrDistribution
! <Zone Volume Capacitance Multiplier>, Sensible Heat Capacity Multiplier, Moisture Capacity Multiplier, Carbon Dioxide Capacity Multiplier, Generic Contaminant Capacity Multiplier
Zone Volume Capacitance Multiplier,   1.000 ,   1.000,   1.000,   1.000
! <Load Timesteps in Zone Design Calculation Averaging Window>, Value
 Load Timesteps in Zone Design Calculation Averaging Window,    6
! <Heating Sizing Factor Information>, Sizing Factor ID, Value
 Heating Sizing Factor Information, Global,   1.2500    
 Heating Sizing Factor Information, Zone WHOLEBUILDING-AUTOMOTIVE FACILITY ZN,   1.2500    
 Heating Sizing Factor Information, Zone WHOLEBUILDING-CONVENTION CENTRE ZN,   1.2500    
 Heating Sizing Factor Information, Zone WHOLEBUILDING-COURTHOUSE ZN,   1.2500    
 Heating Sizing Factor Information, Zone WHOLEBUILDING-DINING - BAR LOUNGE/LEISURE ZN,   1.2500    
 Heating Sizing Factor Information, Zone WHOLEBUILDING-DINING - CAFETERIA/FAST FOOD ZN,   1.2500    
 Heating Sizing Factor Information, Zone WHOLEBUILDING-DINING - FAMILY ZN,   1.2500    
 Heating Sizing Factor Information, Zone WHOLEBUILDING-DORMITORY ZN,   1.2500    
 Heating Sizing Factor Information, Zone WHOLEBUILDING-EXERCISE CENTRE ZN,   1.2500    
 Heating Sizing Factor Information, Zone WHOLEBUILDING-FIRE STATION ZN,   1.2500    
 Heating Sizing Factor Information, Zone WHOLEBUILDING-GYMNASIUM ZN,   1.2500    
 Heating Sizing Factor Information, Zone WHOLEBUILDING-HEALTH CARE CLINIC ZN,   1.2500    
 Heating Sizing Factor Information, Zone WHOLEBUILDING-HOSPITAL ZN,   1.2500    
 Heating Sizing Factor Information, Zone WHOLEBUILDING-HOTEL/MOTEL ZN,   1.2500    
 Heating Sizing Factor Information, Zone WHOLEBUILDING-LIBRARY ZN,   1.2500    
 Heating Sizing Factor Information, Zone WHOLEBUILDING-LONG-TERM CARE - DWELLING UNITS ZN,   1.2500    
 Heating Sizing Factor Information, Zone WHOLEBUILDING-LONG-TERM CARE - OTHER ZN,   1.2500    
 Heating Sizing Factor Information, Zone WHOLEBUILDING-MANUFACTURING FACILITY ZN,   1.2500    
 Heating Sizing Factor Information, Zone WHOLEBUILDING-MOTION PICTURE THEATRE ZN,   1.2500    
 Heating Sizing Factor Information, Zone WHOLEBUILDING-MULTI-UNIT RESIDENTIAL BUILDING ZN,   1.2500    
 Heating Sizing Factor Information, Zone WHOLEBUILDING-MUSEUM ZN,   1.2500    
! <Cooling Sizing Factor Information>, Sizing Factor ID, Value
 Cooling Sizing Factor Information, Global,   1.1500    
 Cooling Sizing Factor Information, Zone WHOLEBUILDING-AUTOMOTIVE FACILITY ZN,   1.1500    
 Cooling Sizing Factor Information, Zone WHOLEBUILDING-CONVENTION CENTRE ZN,   1.1500    
 Cooling Sizing Factor Information, Zone WHOLEBUILDING-COURTHOUSE ZN,   1.1500    
 Cooling Sizing Factor Information, Zone WHOLEBUILDING-DINING - BAR LOUNGE/LEISURE ZN,   1.1500    
 Cooling Sizing Factor Information, Zone WHOLEBUILDING-DINING - CAFETERIA/FAST FOOD ZN,   1.1500    
 Cooling Sizing Factor Information, Zone WHOLEBUILDING-DINING - FAMILY ZN,   1.1500    
 Cooling Sizing Factor Information, Zone WHOLEBUILDING-DORMITORY ZN,   1.1500    
 Cooling Sizing Factor Information, Zone WHOLEBUILDING-EXERCISE CENTRE ZN,   1.1500    
 Cooling Sizing Factor Information, Zone WHOLEBUILDING-FIRE STATION ZN,   1.1500    
 Cooling Sizing Factor Information, Zone WHOLEBUILDING-GYMNASIUM ZN,   1.1500    
 Cooling Sizing Factor Information, Zone WHOLEBUILDING-HEALTH CARE CLINIC ZN,   1.1500    
 Cooling Sizing Factor Information, Zone WHOLEBUILDING-HOSPITAL ZN,   1.1500    
 Cooling Sizing Factor Information, Zone WHOLEBUILDING-HOTEL/MOTEL ZN,   1.1500    
 Cooling Sizing Factor Information, Zone WHOLEBUILDING-LIBRARY ZN,   1.1500    
 Cooling Sizing Factor Information, Zone WHOLEBUILDING-LONG-TERM CARE - DWELLING UNITS ZN,   1.1500    
 Cooling Sizing Factor Information, Zone WHOLEBUILDING-LONG-TERM CARE - OTHER ZN,   1.1500    
 Cooling Sizing Factor Information, Zone WHOLEBUILDING-MANUFACTURING FACILITY ZN,   1.1500    
 Cooling Sizing Factor Information, Zone WHOLEBUILDING-MOTION PICTURE THEATRE ZN,   1.1500    
 Cooling Sizing Factor Information, Zone WHOLEBUILDING-MULTI-UNIT RESIDENTIAL BUILDING ZN,   1.1500    
 Cooling Sizing Factor Information, Zone WHOLEBUILDING-MUSEUM ZN,   1.1500    
! <Zone Sizing Information>, Zone Name, Load Type, Calc Des Load {W}, User Des Load {W}, Calc Des Air Flow Rate {m3/s}, User Des Air Flow Rate {m3/s}, Design Day Name, Date/Time of Peak, Temperature at Peak {C}, Humidity Ratio at Peak {kgWater/kgDryAir}, Floor Area {m2}, # Occupants, Calc Outdoor Air Flow Rate {m3/s}, Calc DOAS Heat Addition Rate {W}
 Zone Sizing Information, WHOLEBUILDING-AUTOMOTIVE FACILITY ZN, Cooling, 82491.45728, 94865.17587, 7.01340, 8.06541, FORT MCMURRAY AP ANN CLG .4% CONDNS DB=>MWB, 7/21 13:30:00, 28.59000, 8.76969E-003, 1875.00000, 93.78407, 2.15265, 0.00000
 Zone Sizing Information, WHOLEBUILDING-AUTOMOTIVE FACILITY ZN, Heating, 48929.94835, 61162.43543, 2.26994, 2.83743, FORT MCMURRAY AP ANN HTG 99.6% CONDNS DB, 1/21 09:00:00, -36.20000, 1.25811E-004, 1875.00000, 93.78407, 2.15265, 0.00000
 Zone Sizing Information, WHOLEBUILDING-CONVENTION CENTRE ZN, Cooling, 51623.15614, 59366.62956, 4.38955, 5.04799, FORT MCMURRAY AP ANN CLG .4% CONDNS DB=>MWB, 7/21 17:00:00, 27.16400, 8.76969E-003, 2500.00000, 312.61357, 1.86690, 0.00000
 Zone Sizing Information, WHOLEBUILDING-CONVENTION CENTRE ZN, Heating, 0.00000, 0.00000, 0.00000, 1.86690, FORT MCMURRAY AP ANN HTG 99.6% CONDNS DB, , -36.20000, 1.25811E-004, 2500.00000, 312.61357, 1.86690, 0.00000
 Zone Sizing Information, WHOLEBUILDING-COURTHOUSE ZN, Cooling, 52462.37114, 60331.72682, 4.46037, 5.12942, FORT MCMURRAY AP ANN CLG .4% CONDNS DB=>MWB, 7/21 10:00:00, 24.18800, 8.76969E-003, 1875.00000, 125.04543, 0.86678, 0.00000
 Zone Sizing Information, WHOLEBUILDING-COURTHOUSE ZN, Heating, 16388.99933, 20486.24916, 0.73962, 0.92452, FORT MCMURRAY AP ANN HTG 99.6% CONDNS DB, 1/21 08:00:00, -36.20000, 1.25811E-004, 1875.00000, 125.04543, 0.86678, 0.00000
 Zone Sizing Information, WHOLEBUILDING-DINING - BAR LOUNGE/LEISURE ZN, Cooling, 34775.55195, 39991.88474, 2.95660, 3.40009, FORT MCMURRAY AP ANN CLG .4% CONDNS DB=>MWB, 7/21 20:10:00, 22.51400, 8.76969E-003, 1875.00000, 187.56814, 2.38125, 0.00000
 Zone Sizing Information, WHOLEBUILDING-DINING - BAR LOUNGE/LEISURE ZN, Heating, 21293.78279, 26617.22848, 0.96595, 2.38125, FORT MCMURRAY AP ANN HTG 99.6% CONDNS DB, 1/21 10:00:00, -36.20000, 1.25811E-004, 1875.00000, 187.56814, 2.38125, 0.00000
 Zone Sizing Information, WHOLEBUILDING-DINING - CAFETERIA/FAST FOOD ZN, Cooling, 27289.61257, 31383.05446, 2.32038, 2.66844, FORT MCMURRAY AP ANN CLG .4% CONDNS DB=>MWB, 7/21 21:00:00, 21.58400, 8.76969E-003, 1875.00000, 187.56814, 2.38125, 0.00000
 Zone Sizing Information, WHOLEBUILDING-DINING - CAFETERIA/FAST FOOD ZN, Heating, 0.00000, 0.00000, 0.00000, 2.38125, FORT MCMURRAY AP ANN HTG 99.6% CONDNS DB, , -36.20000, 1.25811E-004, 1875.00000, 187.56814, 2.38125, 0.00000
 Zone Sizing Information, WHOLEBUILDING-DINING - FAMILY ZN, Cooling, 86347.37362, 99299.47967, 7.34168, 8.44293, FORT MCMURRAY AP ANN CLG .4% CONDNS DB=>MWB, 7/21 13:10:00, 28.38333, 8.76969E-003, 2500.00000, 250.09086, 3.17500, 0.00000
 Zone Sizing Information, WHOLEBUILDING-DINING - FAMILY ZN, Heating, 36572.50239, 45715.62799, 1.67455, 3.17500, FORT MCMURRAY AP ANN HTG 99.6% CONDNS DB, 1/21 10:00:00, -36.20000, 1.25811E-004, 2500.00000, 250.09086, 3.17500, 0.00000
 Zone Sizing Information, WHOLEBUILDING-DORMITORY ZN, Cooling, 29138.32971, 33509.07917, 2.47717, 2.84874, FORT MCMURRAY AP ANN CLG .4% CONDNS DB=>MWB, 7/21 20:00:00, 22.70000, 8.76969E-003, 1875.00000, 62.52271, 0.71438, 0.00000
 Zone Sizing Information, WHOLEBUILDING-DORMITORY ZN, Heating, 22059.75989, 27574.69986, 1.00738, 1.25922, FORT MCMURRAY AP ANN HTG 99.6% CONDNS DB, 1/21 09:00:00, -36.20000, 1.25811E-004, 1875.00000, 62.52271, 0.71438, 0.00000
 Zone Sizing Information, WHOLEBUILDING-EXERCISE CENTRE ZN, Cooling, 38316.23834, 44063.67410, 3.25782, 3.74649, FORT MCMURRAY AP ANN CLG .4% CONDNS DB=>MWB, 7/21 13:10:00, 28.38333, 8.76969E-003, 1875.00000, 187.56814, 2.34315, 0.00000
 Zone Sizing Information, WHOLEBUILDING-EXERCISE CENTRE ZN, Heating, 8676.56838, 10845.71048, 0.39494, 2.34315, FORT MCMURRAY AP ANN HTG 99.6% CONDNS DB, 1/21 10:00:00, -36.20000, 1.25811E-004, 1875.00000, 187.56814, 2.34315, 0.00000
 Zone Sizing Information, WHOLEBUILDING-FIRE STATION ZN, Cooling, 10543.92702, 12125.51607, 0.89637, 1.40970, FORT MCMURRAY AP ANN CLG .4% CONDNS DB=>MWB, 7/21 22:00:00, 20.46800, 8.76969E-003, 1875.00000, 75.02726, 1.40970, 0.00000
 Zone Sizing Information, WHOLEBUILDING-FIRE STATION ZN, Heating, 0.00000, 0.00000, 0.00000, 1.40970, FORT MCMURRAY AP ANN HTG 99.6% CONDNS DB, , -36.20000, 1.25811E-004, 1875.00000, 75.02726, 1.40970, 0.00000
 Zone Sizing Information, WHOLEBUILDING-GYMNASIUM ZN, Cooling, 76096.45963, 87510.92857, 6.46977, 7.44023, FORT MCMURRAY AP ANN CLG .4% CONDNS DB=>MWB, 7/21 15:40:00, 28.40400, 8.76969E-003, 1875.00000, 187.56814, 2.34315, 0.00000
 Zone Sizing Information, WHOLEBUILDING-GYMNASIUM ZN, Heating, 45194.81167, 56493.51459, 2.09406, 2.61758, FORT MCMURRAY AP ANN HTG 99.6% CONDNS DB, 1/21 10:00:00, -36.20000, 1.25811E-004, 1875.00000, 187.56814, 2.34315, 0.00000
 Zone Sizing Information, WHOLEBUILDING-HEALTH CARE CLINIC ZN, Cooling, 41341.80209, 47543.07241, 3.51490, 5.71500, FORT MCMURRAY AP ANN CLG .4% CONDNS DB=>MWB, 7/21 17:00:00, 27.16400, 8.76969E-003, 2500.00000, 125.04543, 5.71500, 0.00000
 Zone Sizing Information, WHOLEBUILDING-HEALTH CARE CLINIC ZN, Heating, 0.00000, 0.00000, 0.00000, 5.71500, FORT MCMURRAY AP ANN HTG 99.6% CONDNS DB, , -36.20000, 1.25811E-004, 2500.00000, 125.04543, 5.71500, 0.00000
 Zone Sizing Information, WHOLEBUILDING-HOSPITAL ZN, Cooling, 83164.83061, 95639.55520, 7.07065, 8.13125, FORT MCMURRAY AP ANN CLG .4% CONDNS DB=>MWB, 7/21 10:20:00, 24.80800, 8.76969E-003, 1875.00000, 93.78407, 4.28625, 0.00000
 Zone Sizing Information, WHOLEBUILDING-HOSPITAL ZN, Heating, 23797.42051, 29746.77564, 1.08423, 4.28625, FORT MCMURRAY AP ANN HTG 99.6% CONDNS DB, 1/21 09:00:00, -36.20000, 1.25811E-004, 1875.00000, 93.78407, 4.28625, 0.00000
 Zone Sizing Information, WHOLEBUILDING-HOTEL/MOTEL ZN, Cooling, 47256.32048, 54344.76855, 4.01737, 4.61997, FORT MCMURRAY AP ANN CLG .4% CONDNS DB=>MWB, 7/21 13:50:00, 28.79667, 8.76969E-003, 1875.00000, 75.02726, 0.75248, 0.00000
 Zone Sizing Information, WHOLEBUILDING-HOTEL/MOTEL ZN, Heating, 48591.89304, 60739.86630, 2.25441, 2.81801, FORT MCMURRAY AP ANN HTG 99.6% CONDNS DB, 1/21 09:00:00, -36.20000, 1.25811E-004, 1875.00000, 75.02726, 0.75248, 0.00000
 Zone Sizing Information, WHOLEBUILDING-LIBRARY ZN, Cooling, 25820.04082, 29693.04694, 2.19519, 2.52446, FORT MCMURRAY AP ANN CLG .4% CONDNS DB=>MWB, 7/21 17:00:00, 27.16400, 8.76969E-003, 1875.00000, 93.78407, 1.36208, 0.00000
 Zone Sizing Information, WHOLEBUILDING-LIBRARY ZN, Heating, 0.00000, 0.00000, 0.00000, 1.36208, FORT MCMURRAY AP ANN HTG 99.6% CONDNS DB, , -36.20000, 1.25811E-004, 1875.00000, 93.78407, 1.36208, 0.00000
 Zone Sizing Information, WHOLEBUILDING-LONG-TERM CARE - DWELLING UNITS ZN, Cooling, 14335.12682, 16485.39584, 1.21874, 1.40155, FORT MCMURRAY AP ANN CLG .4% CONDNS DB=>MWB, 7/21 11:00:00, 26.04800, 8.76969E-003, 1875.00000, 75.02726, 1.04775, 0.00000
 Zone Sizing Information, WHOLEBUILDING-LONG-TERM CARE - DWELLING UNITS ZN, Heating, 0.00000, 0.00000, 0.00000, 1.04775, FORT MCMURRAY AP ANN HTG 99.6% CONDNS DB, , -36.20000, 1.25811E-004, 1875.00000, 75.02726, 1.04775, 0.00000
 Zone Sizing Information, WHOLEBUILDING-LONG-TERM CARE - OTHER ZN, Cooling, 36492.24541, 41966.08222, 3.10233, 3.56768, FORT MCMURRAY AP ANN CLG .4% CONDNS DB=>MWB, 7/21 18:40:00, 24.68400, 8.76969E-003, 1875.00000, 75.02726, 1.04775, 0.00000
 Zone Sizing Information, WHOLEBUILDING-LONG-TERM CARE - OTHER ZN, Heating, 8349.48721, 10436.85901, 0.38250, 1.04775, FORT MCMURRAY AP ANN HTG 99.6% CONDNS DB, 1/21 10:00:00, -36.20000, 1.25811E-004, 1875.00000, 75.02726, 1.04775, 0.00000
 Zone Sizing Information, WHOLEBUILDING-MANUFACTURING FACILITY ZN, Cooling, 60978.94812, 70125.79033, 5.18423, 5.96187, FORT MCMURRAY AP ANN CLG .4% CONDNS DB=>MWB, 7/21 17:40:00, 26.33733, 8.76969E-003, 1875.00000, 62.52271, 2.00978, 0.00000
 Zone Sizing Information, WHOLEBUILDING-MANUFACTURING FACILITY ZN, Heating, 17789.25338, 22236.56673, 0.80364, 2.00978, FORT MCMURRAY AP ANN HTG 99.6% CONDNS DB, 1/21 08:00:00, -36.20000, 1.25811E-004, 1875.00000, 62.52271, 2.00978, 0.00000
 Zone Sizing Information, WHOLEBUILDING-MOTION PICTURE THEATRE ZN, Cooling, 31669.69010, 36420.14361, 2.69292, 3.09686, FORT MCMURRAY AP ANN CLG .4% CONDNS DB=>MWB, 7/21 17:00:00, 27.16400, 8.76969E-003, 2500.00000, 312.61357, 1.49860, 0.00000
 Zone Sizing Information, WHOLEBUILDING-MOTION PICTURE THEATRE ZN, Heating, 0.00000, 0.00000, 0.00000, 1.49860, FORT MCMURRAY AP ANN HTG 99.6% CONDNS DB, , -36.20000, 1.25811E-004, 2500.00000, 312.61357, 1.49860, 0.00000
 Zone Sizing Information, WHOLEBUILDING-MULTI-UNIT RESIDENTIAL BUILDING ZN, Cooling, 21625.32853, 24869.12781, 1.83849, 2.11426, FORT MCMURRAY AP ANN CLG .4% CONDNS DB=>MWB, 7/21 20:10:00, 22.51400, 8.76969E-003, 1875.00000, 75.02726, 0.64770, 0.00000
 Zone Sizing Information, WHOLEBUILDING-MULTI-UNIT RESIDENTIAL BUILDING ZN, Heating, 4491.35510, 5614.19388, 0.21234, 0.64770, FORT MCMURRAY AP ANN HTG 99.6% CONDNS DB, 1/21 12:00:00, -36.20000, 1.25811E-004, 1875.00000, 75.02726, 0.64770, 0.00000
 Zone Sizing Information, WHOLEBUILDING-MUSEUM ZN, Cooling, 42451.29195, 48818.98575, 3.27100, 3.76164, FORT MCMURRAY AP ANN CLG .4% CONDNS DB=>MWB, 7/21 08:00:00, 19.72400, 8.76969E-003, 1875.00000, 93.78407, 0.90488, 0.00000
 Zone Sizing Information, WHOLEBUILDING-MUSEUM ZN, Heating, 6362.04838, 7952.56047, 0.28894, 0.90488, FORT MCMURRAY AP ANN HTG 99.6% CONDNS DB, 1/21 08:40:00, -36.20000, 1.25811E-004, 1875.00000, 93.78407, 0.90488, 0.00000
! <Component Sizing Information>, Component Type, Component Name, Input Field Description, Value
 Component Sizing Information, ZoneHVAC:IdealLoadsAirSystem, ZONE HVAC IDEAL LOADS AIR SYSTEM 1, User-Specified Maximum Heating Air Flow Rate [m3/s], 0.00000
 Component Sizing Information, ZoneHVAC:IdealLoadsAirSystem, ZONE HVAC IDEAL LOADS AIR SYSTEM 1, User-Specified Maximum Cooling Air Flow Rate [m3/s], 0.00000
 Component Sizing Information, ZoneHVAC:IdealLoadsAirSystem, ZONE HVAC IDEAL LOADS AIR SYSTEM 2, User-Specified Maximum Heating Air Flow Rate [m3/s], 0.00000
 Component Sizing Information, ZoneHVAC:IdealLoadsAirSystem, ZONE HVAC IDEAL LOADS AIR SYSTEM 2, User-Specified Maximum Cooling Air Flow Rate [m3/s], 0.00000
 Component Sizing Information, ZoneHVAC:IdealLoadsAirSystem, ZONE HVAC IDEAL LOADS AIR SYSTEM 3, User-Specified Maximum Heating Air Flow Rate [m3/s], 0.00000
 Component Sizing Information, ZoneHVAC:IdealLoadsAirSystem, ZONE HVAC IDEAL LOADS AIR SYSTEM 3, User-Specified Maximum Cooling Air Flow Rate [m3/s], 0.00000
 Component Sizing Information, ZoneHVAC:IdealLoadsAirSystem, ZONE HVAC IDEAL LOADS AIR SYSTEM 4, User-Specified Maximum Heating Air Flow Rate [m3/s], 0.00000
 Component Sizing Information, ZoneHVAC:IdealLoadsAirSystem, ZONE HVAC IDEAL LOADS AIR SYSTEM 4, User-Specified Maximum Cooling Air Flow Rate [m3/s], 0.00000
 Component Sizing Information, ZoneHVAC:IdealLoadsAirSystem, ZONE HVAC IDEAL LOADS AIR SYSTEM 5, User-Specified Maximum Heating Air Flow Rate [m3/s], 0.00000
 Component Sizing Information, ZoneHVAC:IdealLoadsAirSystem, ZONE HVAC IDEAL LOADS AIR SYSTEM 5, User-Specified Maximum Cooling Air Flow Rate [m3/s], 0.00000
 Component Sizing Information, ZoneHVAC:IdealLoadsAirSystem, ZONE HVAC IDEAL LOADS AIR SYSTEM 6, User-Specified Maximum Heating Air Flow Rate [m3/s], 0.00000
 Component Sizing Information, ZoneHVAC:IdealLoadsAirSystem, ZONE HVAC IDEAL LOADS AIR SYSTEM 6, User-Specified Maximum Cooling Air Flow Rate [m3/s], 0.00000
 Component Sizing Information, ZoneHVAC:IdealLoadsAirSystem, ZONE HVAC IDEAL LOADS AIR SYSTEM 7, User-Specified Maximum Heating Air Flow Rate [m3/s], 0.00000
 Component Sizing Information, ZoneHVAC:IdealLoadsAirSystem, ZONE HVAC IDEAL LOADS AIR SYSTEM 7, User-Specified Maximum Cooling Air Flow Rate [m3/s], 0.00000
 Component Sizing Information, ZoneHVAC:IdealLoadsAirSystem, ZONE HVAC IDEAL LOADS AIR SYSTEM 8, User-Specified Maximum Heating Air Flow Rate [m3/s], 0.00000
 Component Sizing Information, ZoneHVAC:IdealLoadsAirSystem, ZONE HVAC IDEAL LOADS AIR SYSTEM 8, User-Specified Maximum Cooling Air Flow Rate [m3/s], 0.00000
 Component Sizing Information, ZoneHVAC:IdealLoadsAirSystem, ZONE HVAC IDEAL LOADS AIR SYSTEM 9, User-Specified Maximum Heating Air Flow Rate [m3/s], 0.00000
 Component Sizing Information, ZoneHVAC:IdealLoadsAirSystem, ZONE HVAC IDEAL LOADS AIR SYSTEM 9, User-Specified Maximum Cooling Air Flow Rate [m3/s], 0.00000
 Component Sizing Information, ZoneHVAC:IdealLoadsAirSystem, ZONE HVAC IDEAL LOADS AIR SYSTEM 10, User-Specified Maximum Heating Air Flow Rate [m3/s], 0.00000
 Component Sizing Information, ZoneHVAC:IdealLoadsAirSystem, ZONE HVAC IDEAL LOADS AIR SYSTEM 10, User-Specified Maximum Cooling Air Flow Rate [m3/s], 0.00000
 Component Sizing Information, ZoneHVAC:IdealLoadsAirSystem, ZONE HVAC IDEAL LOADS AIR SYSTEM 11, User-Specified Maximum Heating Air Flow Rate [m3/s], 0.00000
 Component Sizing Information, ZoneHVAC:IdealLoadsAirSystem, ZONE HVAC IDEAL LOADS AIR SYSTEM 11, User-Specified Maximum Cooling Air Flow Rate [m3/s], 0.00000
 Component Sizing Information, ZoneHVAC:IdealLoadsAirSystem, ZONE HVAC IDEAL LOADS AIR SYSTEM 12, User-Specified Maximum Heating Air Flow Rate [m3/s], 0.00000
 Component Sizing Information, ZoneHVAC:IdealLoadsAirSystem, ZONE HVAC IDEAL LOADS AIR SYSTEM 12, User-Specified Maximum Cooling Air Flow Rate [m3/s], 0.00000
 Component Sizing Information, ZoneHVAC:IdealLoadsAirSystem, ZONE HVAC IDEAL LOADS AIR SYSTEM 13, User-Specified Maximum Heating Air Flow Rate [m3/s], 0.00000
 Component Sizing Information, ZoneHVAC:IdealLoadsAirSystem, ZONE HVAC IDEAL LOADS AIR SYSTEM 13, User-Specified Maximum Cooling Air Flow Rate [m3/s], 0.00000
 Component Sizing Information, ZoneHVAC:IdealLoadsAirSystem, ZONE HVAC IDEAL LOADS AIR SYSTEM 14, User-Specified Maximum Heating Air Flow Rate [m3/s], 0.00000
 Component Sizing Information, ZoneHVAC:IdealLoadsAirSystem, ZONE HVAC IDEAL LOADS AIR SYSTEM 14, User-Specified Maximum Cooling Air Flow Rate [m3/s], 0.00000
 Component Sizing Information, ZoneHVAC:IdealLoadsAirSystem, ZONE HVAC IDEAL LOADS AIR SYSTEM 15, User-Specified Maximum Heating Air Flow Rate [m3/s], 0.00000
 Component Sizing Information, ZoneHVAC:IdealLoadsAirSystem, ZONE HVAC IDEAL LOADS AIR SYSTEM 15, User-Specified Maximum Cooling Air Flow Rate [m3/s], 0.00000
 Component Sizing Information, ZoneHVAC:IdealLoadsAirSystem, ZONE HVAC IDEAL LOADS AIR SYSTEM 16, User-Specified Maximum Heating Air Flow Rate [m3/s], 0.00000
 Component Sizing Information, ZoneHVAC:IdealLoadsAirSystem, ZONE HVAC IDEAL LOADS AIR SYSTEM 16, User-Specified Maximum Cooling Air Flow Rate [m3/s], 0.00000
 Component Sizing Information, ZoneHVAC:IdealLoadsAirSystem, ZONE HVAC IDEAL LOADS AIR SYSTEM 17, User-Specified Maximum Heating Air Flow Rate [m3/s], 0.00000
 Component Sizing Information, ZoneHVAC:IdealLoadsAirSystem, ZONE HVAC IDEAL LOADS AIR SYSTEM 17, User-Specified Maximum Cooling Air Flow Rate [m3/s], 0.00000
 Component Sizing Information, ZoneHVAC:IdealLoadsAirSystem, ZONE HVAC IDEAL LOADS AIR SYSTEM 18, User-Specified Maximum Heating Air Flow Rate [m3/s], 0.00000
 Component Sizing Information, ZoneHVAC:IdealLoadsAirSystem, ZONE HVAC IDEAL LOADS AIR SYSTEM 18, User-Specified Maximum Cooling Air Flow Rate [m3/s], 0.00000
 Component Sizing Information, ZoneHVAC:IdealLoadsAirSystem, ZONE HVAC IDEAL LOADS AIR SYSTEM 19, User-Specified Maximum Heating Air Flow Rate [m3/s], 0.00000
 Component Sizing Information, ZoneHVAC:IdealLoadsAirSystem, ZONE HVAC IDEAL LOADS AIR SYSTEM 19, User-Specified Maximum Cooling Air Flow Rate [m3/s], 0.00000
 Component Sizing Information, ZoneHVAC:IdealLoadsAirSystem, ZONE HVAC IDEAL LOADS AIR SYSTEM 20, User-Specified Maximum Heating Air Flow Rate [m3/s], 0.00000
 Component Sizing Information, ZoneHVAC:IdealLoadsAirSystem, ZONE HVAC IDEAL LOADS AIR SYSTEM 20, User-Specified Maximum Cooling Air Flow Rate [m3/s], 0.00000
! <Environment>,Environment Name,Environment Type, Start Date, End Date, Start DayOfWeek, Duration {#days}, Source:Start DayOfWeek,  Use Daylight Saving, Use Holidays, Apply Weekend Holiday Rule,  Use Rain Values, Use Snow Values
! <Environment:Special Days>, Special Day Name, Special Day Type, Source, Start Date, Duration {#days}
! <Environment:Daylight Saving>, Daylight Saving Indicator, Source, Start Date, End Date
! <Environment:WarmupDays>, NumberofWarmupDays
Environment,FORT MCMURRAY AP ANN CLG .4% CONDNS DB=>MWB,SizingPeriod:DesignDay,07/21,07/21,SummerDesignDay,1,N/A,N/A,N/A,N/A,N/A,N/A
Environment:Daylight Saving,No,SizingPeriod:DesignDay
! <Environment:Design Day Data>, Max Dry-Bulb Temp {C}, Temp Range {dC}, Temp Range Ind Type, Hum Ind Value at Max Temp, Hum Ind Type,Pressure {Pa}, Wind Direction {deg CW from N}, Wind Speed {m/s}, Clearness, Rain, Snow
! <Environment:Design Day Misc>,DayOfYear,ASHRAE A Coeff,ASHRAE B Coeff,ASHRAE C Coeff,Solar Constant-Annual Variation,Eq of Time {minutes}, Solar Declination Angle {deg}, Solar Model
Environment:Design Day Data,28.90,12.40,DefaultMultipliers,96969,250,3.7,0.00,No,No
Environment:Design Day Misc,202,1084.4,0.2082,0.1365,1.0,-6.23,20.6,ASHRAETau
Environment:WarmupDays,  6
! <Tabular Report>,Style,Unit Conversion
Tabular Report,HTML,None
! <Warmup Convergence Information>,Zone Name,Environment Type/Name,Average Warmup Temperature Difference {deltaC},Std Dev Warmup Temperature Difference {deltaC},Max Temperature Pass/Fail Convergence,Min Temperature Pass/Fail Convergence,Average Warmup Load Difference {W},Std Dev Warmup Load Difference {W},Heating Load Pass/Fail Convergence,Cooling Load Pass/Fail Convergence
 Warmup Convergence Information,WHOLEBUILDING-AUTOMOTIVE FACILITY ZN,SizingPeriod: FORT MCMURRAY AP ANN CLG .4% CONDNS DB=>MWB,5.7487529553E-002,8.9229086081E-002,Pass,Pass,7.6200282441E-002,0.4749136845,Pass,Pass
 Warmup Convergence Information,WHOLEBUILDING-CONVENTION CENTRE ZN,SizingPeriod: FORT MCMURRAY AP ANN CLG .4% CONDNS DB=>MWB,2.2492950545E-002,5.0054939957E-002,Pass,Pass,4.7956031731E-002,0.2530078946,Pass,Pass
 Warmup Convergence Information,WHOLEBUILDING-COURTHOUSE ZN,SizingPeriod: FORT MCMURRAY AP ANN CLG .4% CONDNS DB=>MWB,4.3878002309E-002,0.1853335327,Pass,Pass,6.4416165797E-002,0.4179280314,Pass,Pass
 Warmup Convergence Information,WHOLEBUILDING-DINING - BAR LOUNGE/LEISURE ZN,SizingPeriod: FORT MCMURRAY AP ANN CLG .4% CONDNS DB=>MWB,1.7031233099E-002,3.7331108883E-002,Pass,Pass,2.6307014118E-002,4.9836156690E-002,Pass,Pass
 Warmup Convergence Information,WHOLEBUILDING-DINING - CAFETERIA/FAST FOOD ZN,SizingPeriod: FORT MCMURRAY AP ANN CLG .4% CONDNS DB=>MWB,2.4695197729E-002,4.8225969259E-002,Pass,Pass,3.5729172158E-002,7.3711622112E-002,Pass,Pass
 Warmup Convergence Information,WHOLEBUILDING-DINING - FAMILY ZN,SizingPeriod: FORT MCMURRAY AP ANN CLG .4% CONDNS DB=>MWB,3.9177230015E-002,7.8609271284E-002,Pass,Pass,2.6404727817E-002,3.7735371998E-002,Pass,Pass
 Warmup Convergence Information,WHOLEBUILDING-DORMITORY ZN,SizingPeriod: FORT MCMURRAY AP ANN CLG .4% CONDNS DB=>MWB,3.5428450297E-014,2.9089088309E-014,Pass,Pass,2.2112544959E-002,3.4201210418E-002,Pass,Pass
 Warmup Convergence Information,WHOLEBUILDING-EXERCISE CENTRE ZN,SizingPeriod: FORT MCMURRAY AP ANN CLG .4% CONDNS DB=>MWB,1.9315747971E-002,3.7075247952E-002,Pass,Pass,2.8831320616E-002,5.7460217364E-002,Pass,Pass
 Warmup Convergence Information,WHOLEBUILDING-FIRE STATION ZN,SizingPeriod: FORT MCMURRAY AP ANN CLG .4% CONDNS DB=>MWB,1.5257326043E-002,2.6367338799E-002,Pass,Pass,2.6798014964E-002,6.8248779079E-002,Pass,Pass
 Warmup Convergence Information,WHOLEBUILDING-GYMNASIUM ZN,SizingPeriod: FORT MCMURRAY AP ANN CLG .4% CONDNS DB=>MWB,3.4445933542E-002,7.0288788780E-002,Pass,Pass,2.7493956443E-002,3.6362251370E-002,Pass,Pass
 Warmup Convergence Information,WHOLEBUILDING-HEALTH CARE CLINIC ZN,SizingPeriod: FORT MCMURRAY AP ANN CLG .4% CONDNS DB=>MWB,4.1259220792E-002,9.0359193243E-002,Pass,Pass,2.1990849188E-002,4.8202070256E-002,Pass,Pass
 Warmup Convergence Information,WHOLEBUILDING-HOSPITAL ZN,SizingPeriod: FORT MCMURRAY AP ANN CLG .4% CONDNS DB=>MWB,1.2820659877E-002,3.1686461321E-002,Pass,Pass,1.3865521485E-002,1.4007468859E-002,Pass,Pass
 Warmup Convergence Information,WHOLEBUILDING-HOTEL/MOTEL ZN,SizingPeriod: FORT MCMURRAY AP ANN CLG .4% CONDNS DB=>MWB,1.1670164262E-002,2.3854050187E-002,Pass,Pass,3.3072891664E-002,4.4371512058E-002,Pass,Pass
 Warmup Convergence Information,WHOLEBUILDING-LIBRARY ZN,SizingPeriod: FORT MCMURRAY AP ANN CLG .4% CONDNS DB=>MWB,2.0165777567E-002,4.4891164998E-002,Pass,Pass,4.0311346566E-002,0.1870862661,Pass,Pass
 Warmup Convergence Information,WHOLEBUILDING-LONG-TERM CARE - DWELLING UNITS ZN,SizingPeriod: FORT MCMURRAY AP ANN CLG .4% CONDNS DB=>MWB,2.2402447824E-003,6.3185303982E-003,Pass,Pass,8.9153699539E-003,2.0446351827E-002,Pass,Pass
 Warmup Convergence Information,WHOLEBUILDING-LONG-TERM CARE - OTHER ZN,SizingPeriod: FORT MCMURRAY AP ANN CLG .4% CONDNS DB=>MWB,1.6559602439E-002,4.7156211213E-002,Pass,Pass,3.6620453903E-002,0.1336842387,Pass,Pass
 Warmup Convergence Information,WHOLEBUILDING-MANUFACTURING FACILITY ZN,SizingPeriod: FORT MCMURRAY AP ANN CLG .4% CONDNS DB=>MWB,2.8921282975E-002,8.3448347460E-002,Pass,Pass,3.8595695078E-002,0.1874102407,Pass,Pass
 Warmup Convergence Information,WHOLEBUILDING-MOTION PICTURE THEATRE ZN,SizingPeriod: FORT MCMURRAY AP ANN CLG .4% CONDNS DB=>MWB,2.0457513530E-002,4.0356996285E-002,Pass,Pass,4.2144045617E-002,0.1815759423,Pass,Pass
 Warmup Convergence Information,WHOLEBUILDING-MULTI-UNIT RESIDENTIAL BUILDING ZN,SizingPeriod: FORT MCMURRAY AP ANN CLG .4% CONDNS DB=>MWB,2.1859057774E-014,1.8683766332E-014,Pass,Pass,1.9819092387E-002,5.6037319260E-002,Pass,Pass
 Warmup Convergence Information,WHOLEBUILDING-MUSEUM ZN,SizingPeriod: FORT MCMURRAY AP ANN CLG .4% CONDNS DB=>MWB,4.1624876194E-002,0.1643992016,Pass,Pass,5.7648512760E-002,0.3715710931,Pass,Pass
Environment,FORT MCMURRAY AP ANN HTG 99.6% CONDNS DB,SizingPeriod:DesignDay,01/21,01/21,WinterDesignDay,1,N/A,N/A,N/A,N/A,N/A,N/A
Environment:Daylight Saving,No,SizingPeriod:DesignDay
Environment:Design Day Data,-36.20,0.00,DefaultMultipliers,96969,90,1.0,0.00,No,No
Environment:Design Day Misc, 21,1229.0,0.1415,5.7310E-002,1.0,-11.15,-20.1,ASHRAEClearSky
Environment:WarmupDays,  6
 Warmup Convergence Information,WHOLEBUILDING-AUTOMOTIVE FACILITY ZN,SizingPeriod: FORT MCMURRAY AP ANN HTG 99.6% CONDNS DB,5.5555555556E-002,0.3640192420,Pass,Pass,8.3843323701E-002,0.3790786659,Pass,Pass
 Warmup Convergence Information,WHOLEBUILDING-CONVENTION CENTRE ZN,SizingPeriod: FORT MCMURRAY AP ANN HTG 99.6% CONDNS DB,5.7373035166E-002,0.3409446994,Pass,Pass,2.1575962035,17.5401880539,Pass,Pass
 Warmup Convergence Information,WHOLEBUILDING-COURTHOUSE ZN,SizingPeriod: FORT MCMURRAY AP ANN HTG 99.6% CONDNS DB,5.9265030418E-002,0.3228995091,Pass,Pass,0.4905680063,2.3335481317,Pass,Pass
 Warmup Convergence Information,WHOLEBUILDING-DINING - BAR LOUNGE/LEISURE ZN,SizingPeriod: FORT MCMURRAY AP ANN HTG 99.6% CONDNS DB,5.5601267101E-002,0.3633455713,Pass,Pass,0.2241945433,0.9646457722,Pass,Pass
 Warmup Convergence Information,WHOLEBUILDING-DINING - CAFETERIA/FAST FOOD ZN,SizingPeriod: FORT MCMURRAY AP ANN HTG 99.6% CONDNS DB,5.5776136266E-002,0.3622420299,Pass,Pass,0.3298873477,1.3513776655,Pass,Pass
 Warmup Convergence Information,WHOLEBUILDING-DINING - FAMILY ZN,SizingPeriod: FORT MCMURRAY AP ANN HTG 99.6% CONDNS DB,5.5555555556E-002,0.3648112047,Pass,Pass,0.1481506405,0.4168729952,Pass,Pass
 Warmup Convergence Information,WHOLEBUILDING-DORMITORY ZN,SizingPeriod: FORT MCMURRAY AP ANN HTG 99.6% CONDNS DB,6.0404058259E-002,0.3209102548,Pass,Pass,0.2628021462,1.1682173219,Pass,Pass
 Warmup Convergence Information,WHOLEBUILDING-EXERCISE CENTRE ZN,SizingPeriod: FORT MCMURRAY AP ANN HTG 99.6% CONDNS DB,5.5656476176E-002,0.3624458641,Pass,Pass,0.4868286865,2.7196961717,Pass,Pass
 Warmup Convergence Information,WHOLEBUILDING-FIRE STATION ZN,SizingPeriod: FORT MCMURRAY AP ANN HTG 99.6% CONDNS DB,5.7475829262E-002,0.3404344580,Pass,Pass,0.3206811688,1.7214671119,Pass,Pass
 Warmup Convergence Information,WHOLEBUILDING-GYMNASIUM ZN,SizingPeriod: FORT MCMURRAY AP ANN HTG 99.6% CONDNS DB,5.5555555556E-002,0.3659556966,Pass,Pass,8.0402776370E-002,0.2330410008,Pass,Pass
 Warmup Convergence Information,WHOLEBUILDING-HEALTH CARE CLINIC ZN,SizingPeriod: FORT MCMURRAY AP ANN HTG 99.6% CONDNS DB,5.5555555556E-002,0.3772690402,Pass,Pass,0.2104420862,0.9808195169,Pass,Pass
 Warmup Convergence Information,WHOLEBUILDING-HOSPITAL ZN,SizingPeriod: FORT MCMURRAY AP ANN HTG 99.6% CONDNS DB,5.5555555556E-002,0.3781032955,Pass,Pass,0.1282715155,0.3366988707,Pass,Pass
 Warmup Convergence Information,WHOLEBUILDING-HOTEL/MOTEL ZN,SizingPeriod: FORT MCMURRAY AP ANN HTG 99.6% CONDNS DB,5.7425453486E-002,0.3320272149,Pass,Pass,0.2199914630,1.8765600301,Pass,Pass
 Warmup Convergence Information,WHOLEBUILDING-LIBRARY ZN,SizingPeriod: FORT MCMURRAY AP ANN HTG 99.6% CONDNS DB,5.7697482304E-002,0.3407160067,Pass,Pass,0.4058339272,2.2491651225,Pass,Pass
 Warmup Convergence Information,WHOLEBUILDING-LONG-TERM CARE - DWELLING UNITS ZN,SizingPeriod: FORT MCMURRAY AP ANN HTG 99.6% CONDNS DB,3.0839528462E-015,2.9678844462E-015,Pass,Pass,0.1009269355,0.2664299189,Pass,Pass
 Warmup Convergence Information,WHOLEBUILDING-LONG-TERM CARE - OTHER ZN,SizingPeriod: FORT MCMURRAY AP ANN HTG 99.6% CONDNS DB,5.8672501435E-002,0.3337793191,Pass,Pass,0.1148824884,0.3342826942,Pass,Pass
 Warmup Convergence Information,WHOLEBUILDING-MANUFACTURING FACILITY ZN,SizingPeriod: FORT MCMURRAY AP ANN HTG 99.6% CONDNS DB,5.6053874383E-002,0.3568462543,Pass,Pass,0.2248293251,0.6230574964,Pass,Pass
 Warmup Convergence Information,WHOLEBUILDING-MOTION PICTURE THEATRE ZN,SizingPeriod: FORT MCMURRAY AP ANN HTG 99.6% CONDNS DB,5.8890135151E-002,0.3329723207,Pass,Pass,0.3950355103,1.8956533584,Pass,Pass
 Warmup Convergence Information,WHOLEBUILDING-MULTI-UNIT RESIDENTIAL BUILDING ZN,SizingPeriod: FORT MCMURRAY AP ANN HTG 99.6% CONDNS DB,6.2531056555E-002,0.3147301811,Pass,Pass,0.3610690662,1.9303853921,Pass,Pass
 Warmup Convergence Information,WHOLEBUILDING-MUSEUM ZN,SizingPeriod: FORT MCMURRAY AP ANN HTG 99.6% CONDNS DB,5.9347132966E-002,0.3266141245,Pass,Pass,0.2376812135,0.6781559309,Pass,Pass
! <Program Control Information:Threads/Parallel Sims>, Threading Supported,Maximum Number of Threads, Env Set Threads (OMP_NUM_THREADS), EP Env Set Threads (EP_OMP_NUM_THREADS), IDF Set Threads, Number of Threads Used (Interior Radiant Exchange), Number Nominal Surfaces, Number Parallel Sims
Program Control:Threads/Parallel Sims, No,1, N/A, N/A, N/A, N/A, N/A, N/A
End of Data
