Program Version,EnergyPlus, Version 8.9.0-eba93e8e1b, YMD=2019.03.28 13:10
! This file shows details about the branches, nodes, and other
! elements of the flow connections.
! This file is intended for use in "debugging" potential problems
! that may also be detected by the program, but may be more easily
! identified by "eye".
! This file is also intended to support software which draws a
! schematic diagram of the HVAC system.
! ===============================================================
! #Nodes,<Number of Unique Nodes>
 #Nodes,508
! <Node>,<NodeNumber>,<Node Name>,<Node Fluid Type>,<# Times Node Referenced After Definition>
 Node,1,NODE 205,Air,4
 Node,2,NODE 166,Air,4
 Node,3,NODE 350,Air,3
 Node,4,NODE 340,Air,4
 Node,5,NODE 349,Air,3
 Node,6,NODE 114,Air,4
 Node,7,NODE 276,Air,4
 Node,8,NODE 283,Air,4
 Node,9,NODE 258,Air,4
 Node,10,NODE 393,Air,3
 Node,11,NODE 383,Air,4
 Node,12,NODE 392,Air,3
 Node,13,NODE 140,Air,4
 Node,14,NODE 153,Air,4
 Node,15,NODE 127,Air,4
 Node,16,NODE 218,Air,4
 Node,17,NODE 179,Air,4
 Node,18,NODE 292,Air,4
 Node,19,NODE 101,Air,4
 Node,20,NODE 192,Air,4
 Node,21,NODE 27,Air,4
 Node,22,NODE 59,Air,3
 Node,23,NODE 45,Air,3
 Node,24,NODE 57,Air,3
 Node,25,NODE 76,Air,3
 Node,26,NODE 67,Air,3
 Node,27,NODE 75,Air,3
 Node,28,NODE 93,Air,3
 Node,29,NODE 84,Air,3
 Node,30,NODE 92,Air,3
 Node,31,NODE 41,Air,10
 Node,32,NODE 42,Air,3
 Node,33,NODE 64,Air,10
 Node,34,NODE 65,Air,3
 Node,35,NODE 81,Air,10
 Node,36,NODE 82,Air,3
 Node,37,NODE 337,Air,10
 Node,38,NODE 338,Air,3
 Node,39,NODE 380,Air,10
 Node,40,NODE 381,Air,3
 Node,41,NODE 202,Air,10
 Node,42,NODE 203,Air,3
 Node,43,NODE 163,Air,10
 Node,44,NODE 164,Air,3
 Node,45,NODE 137,Air,10
 Node,46,NODE 138,Air,3
 Node,47,NODE 150,Air,10
 Node,48,NODE 151,Air,3
 Node,49,NODE 124,Air,10
 Node,50,NODE 125,Air,3
 Node,51,NODE 215,Air,10
 Node,52,NODE 216,Air,3
 Node,53,NODE 176,Air,10
 Node,54,NODE 177,Air,3
 Node,55,NODE 189,Air,10
 Node,56,NODE 190,Air,3
 Node,57,NODE 23,Air,10
 Node,58,NODE 24,Air,3
 Node,59,NODE 111,Air,10
 Node,60,NODE 112,Air,3
 Node,61,NODE 98,Air,10
 Node,62,NODE 99,Air,3
 Node,63,NODE 255,Air,12
 Node,64,NODE 256,Air,3
 Node,65,NODE 289,Air,12
 Node,66,NODE 290,Air,3
 Node,67,NODE 39,Air,3
 Node,68,NODE 56,Air,6
 Node,69,NODE 54,Air,6
 Node,70,NODE 53,Air,8
 Node,71,NODE 63,Air,3
 Node,72,NODE 74,Air,6
 Node,73,NODE 73,Air,6
 Node,74,NODE 72,Air,8
 Node,75,NODE 80,Air,3
 Node,76,NODE 91,Air,6
 Node,77,NODE 90,Air,6
 Node,78,NODE 89,Air,8
 Node,79,NODE 336,Air,3
 Node,80,NODE 345,Air,6
 Node,81,NODE 344,Air,6
 Node,82,NODE 343,Air,8
 Node,83,NODE 379,Air,3
 Node,84,NODE 388,Air,6
 Node,85,NODE 387,Air,6
 Node,86,NODE 386,Air,8
 Node,87,NODE 201,Air,3
 Node,88,NODE 210,Air,6
 Node,89,NODE 209,Air,6
 Node,90,NODE 208,Air,8
 Node,91,NODE 162,Air,3
 Node,92,NODE 171,Air,6
 Node,93,NODE 170,Air,6
 Node,94,NODE 169,Air,8
 Node,95,NODE 136,Air,3
 Node,96,NODE 145,Air,6
 Node,97,NODE 144,Air,6
 Node,98,NODE 143,Air,8
 Node,99,NODE 149,Air,3
 Node,100,NODE 158,Air,6
 Node,101,NODE 157,Air,6
 Node,102,NODE 156,Air,8
 Node,103,NODE 123,Air,3
 Node,104,NODE 132,Air,6
 Node,105,NODE 131,Air,6
 Node,106,NODE 130,Air,8
 Node,107,NODE 214,Air,3
 Node,108,NODE 223,Air,6
 Node,109,NODE 222,Air,6
 Node,110,NODE 221,Air,8
 Node,111,NODE 175,Air,3
 Node,112,NODE 184,Air,6
 Node,113,NODE 183,Air,6
 Node,114,NODE 182,Air,8
 Node,115,NODE 188,Air,3
 Node,116,NODE 197,Air,6
 Node,117,NODE 196,Air,6
 Node,118,NODE 195,Air,8
 Node,119,NODE 21,Air,3
 Node,120,NODE 35,Air,6
 Node,121,NODE 33,Air,6
 Node,122,NODE 32,Air,8
 Node,123,NODE 110,Air,3
 Node,124,NODE 119,Air,6
 Node,125,NODE 118,Air,6
 Node,126,NODE 117,Air,8
 Node,127,NODE 97,Air,3
 Node,128,NODE 106,Air,6
 Node,129,NODE 105,Air,6
 Node,130,NODE 104,Air,8
 Node,131,NODE 254,Air,2
 Node,132,NODE 267,Air,5
 Node,133,NODE 266,Air,5
 Node,134,NODE 265,Air,5
 Node,135,NODE 264,Air,9
 Node,136,NODE 288,Air,2
 Node,137,NODE 302,Air,5
 Node,138,NODE 301,Air,5
 Node,139,NODE 300,Air,5
 Node,140,NODE 299,Air,9
 Node,141,NODE 227,Water,2
 Node,142,NODE 233,Water,1
 Node,143,NODE 229,Water,1
 Node,144,NODE 234,Water,1
 Node,145,NODE 235,Water,1
 Node,146,NODE 236,Water,1
 Node,147,NODE 237,Water,1
 Node,148,NODE 238,Water,1
 Node,149,NODE 239,Water,1
 Node,150,NODE 228,Water,4
 Node,151,NODE 230,Water,2
 Node,152,CHILLED WATER LOOP DEMAND INLET PIPE NODE,Water,1
 Node,153,NODE 232,Water,2
 Node,154,NODE 261,Water,1
 Node,155,NODE 295,Water,2
 Node,156,NODE 296,Water,1
 Node,157,CHILLED WATER LOOP DEMAND BYPASS PIPE INLET NODE,Water,1
 Node,158,CHILLED WATER LOOP DEMAND BYPASS PIPE OUTLET NODE,Water,1
 Node,159,CHILLED WATER LOOP DEMAND OUTLET PIPE NODE,Water,1
 Node,160,NODE 231,Water,2
 Node,161,NODE 309,Water,2
 Node,162,NODE 315,Water,1
 Node,163,NODE 311,Water,1
 Node,164,NODE 316,Water,1
 Node,165,NODE 317,Water,1
 Node,166,NODE 318,Water,1
 Node,167,NODE 319,Water,1
 Node,168,NODE 320,Water,1
 Node,169,NODE 321,Water,1
 Node,170,NODE 310,Water,4
 Node,171,NODE 312,Water,2
 Node,172,CHILLED WATER LOOP 1 DEMAND INLET PIPE NODE,Water,1
 Node,173,NODE 314,Water,1
 Node,174,NODE 348,Water,1
 Node,175,CHILLED WATER LOOP 1 DEMAND BYPASS PIPE INLET NODE,Water,1
 Node,176,CHILLED WATER LOOP 1 DEMAND BYPASS PIPE OUTLET NODE,Water,1
 Node,177,CHILLED WATER LOOP 1 DEMAND OUTLET PIPE NODE,Water,1
 Node,178,NODE 313,Water,2
 Node,179,NODE 352,Water,2
 Node,180,NODE 358,Water,1
 Node,181,NODE 354,Water,1
 Node,182,NODE 359,Water,1
 Node,183,NODE 360,Water,1
 Node,184,NODE 361,Water,1
 Node,185,NODE 362,Water,1
 Node,186,NODE 363,Water,1
 Node,187,NODE 364,Water,1
 Node,188,NODE 353,Water,4
 Node,189,NODE 355,Water,2
 Node,190,CHILLED WATER LOOP 2 DEMAND INLET PIPE NODE,Water,1
 Node,191,NODE 357,Water,1
 Node,192,NODE 391,Water,1
 Node,193,CHILLED WATER LOOP 2 DEMAND BYPASS PIPE INLET NODE,Water,1
 Node,194,CHILLED WATER LOOP 2 DEMAND BYPASS PIPE OUTLET NODE,Water,1
 Node,195,CHILLED WATER LOOP 2 DEMAND OUTLET PIPE NODE,Water,1
 Node,196,NODE 356,Water,2
 Node,197,NODE 240,Water,2
 Node,198,NODE 246,Water,1
 Node,199,NODE 242,Water,1
 Node,200,NODE 247,Water,1
 Node,201,NODE 248,Water,1
 Node,202,NODE 249,Water,1
 Node,203,NODE 250,Water,1
 Node,204,NODE 241,Water,4
 Node,205,NODE 243,Water,2
 Node,206,CONDENSER WATER LOOP DEMAND INLET PIPE NODE,Water,1
 Node,207,NODE 245,Water,1
 Node,208,NODE 251,Water,1
 Node,209,NODE 252,Water,1
 Node,210,NODE 253,Water,1
 Node,211,CONDENSER WATER LOOP DEMAND BYPASS PIPE INLET NODE,Water,1
 Node,212,CONDENSER WATER LOOP DEMAND BYPASS PIPE OUTLET NODE,Water,1
 Node,213,CONDENSER WATER LOOP DEMAND OUTLET PIPE NODE,Water,1
 Node,214,NODE 244,Water,2
 Node,215,NODE 322,Water,2
 Node,216,NODE 328,Water,1
 Node,217,NODE 324,Water,1
 Node,218,NODE 329,Water,1
 Node,219,NODE 330,Water,1
 Node,220,NODE 331,Water,1
 Node,221,NODE 332,Water,1
 Node,222,NODE 323,Water,4
 Node,223,NODE 325,Water,2
 Node,224,CONDENSER WATER LOOP 1 DEMAND INLET PIPE NODE,Water,1
 Node,225,NODE 327,Water,1
 Node,226,NODE 333,Water,1
 Node,227,NODE 334,Water,1
 Node,228,NODE 335,Water,1
 Node,229,CONDENSER WATER LOOP 1 DEMAND BYPASS PIPE INLET NODE,Water,1
 Node,230,CONDENSER WATER LOOP 1 DEMAND BYPASS PIPE OUTLET NODE,Water,1
 Node,231,CONDENSER WATER LOOP 1 DEMAND OUTLET PIPE NODE,Water,1
 Node,232,NODE 326,Water,2
 Node,233,NODE 365,Water,2
 Node,234,NODE 371,Water,1
 Node,235,NODE 367,Water,1
 Node,236,NODE 372,Water,1
 Node,237,NODE 373,Water,1
 Node,238,NODE 374,Water,1
 Node,239,NODE 375,Water,1
 Node,240,NODE 366,Water,4
 Node,241,NODE 368,Water,2
 Node,242,CONDENSER WATER LOOP 2 DEMAND INLET PIPE NODE,Water,1
 Node,243,NODE 370,Water,1
 Node,244,NODE 376,Water,1
 Node,245,NODE 377,Water,1
 Node,246,NODE 378,Water,1
 Node,247,CONDENSER WATER LOOP 2 DEMAND BYPASS PIPE INLET NODE,Water,1
 Node,248,CONDENSER WATER LOOP 2 DEMAND BYPASS PIPE OUTLET NODE,Water,1
 Node,249,CONDENSER WATER LOOP 2 DEMAND OUTLET PIPE NODE,Water,1
 Node,250,NODE 369,Water,2
 Node,251,NODE 2,Water,2
 Node,252,NODE 11,Water,1
 Node,253,NODE 5,Water,1
 Node,254,NODE 12,Water,1
 Node,255,NODE 14,Water,1
 Node,256,NODE 15,Water,1
 Node,257,NODE 17,Water,1
 Node,258,NODE 18,Water,1
 Node,259,NODE 20,Water,1
 Node,260,NODE 3,Water,4
 Node,261,NODE 6,Water,2
 Node,262,HOT WATER LOOP DEMAND INLET PIPE NODE,Water,1
 Node,263,NODE 9,Water,1
 Node,264,NODE 38,Water,1
 Node,265,NODE 47,Water,2
 Node,266,NODE 48,Water,1
 Node,267,NODE 60,Water,1
 Node,268,NODE 61,Water,1
 Node,269,NODE 68,Water,2
 Node,270,NODE 69,Water,1
 Node,271,NODE 77,Water,1
 Node,272,NODE 78,Water,1
 Node,273,NODE 85,Water,2
 Node,274,NODE 86,Water,1
 Node,275,NODE 94,Water,1
 Node,276,NODE 95,Water,1
 Node,277,NODE 108,Water,1
 Node,278,NODE 109,Water,1
 Node,279,NODE 121,Water,1
 Node,280,NODE 122,Water,1
 Node,281,NODE 134,Water,1
 Node,282,NODE 135,Water,1
 Node,283,NODE 147,Water,1
 Node,284,NODE 148,Water,1
 Node,285,NODE 160,Water,1
 Node,286,NODE 161,Water,1
 Node,287,NODE 173,Water,1
 Node,288,NODE 174,Water,1
 Node,289,NODE 186,Water,1
 Node,290,NODE 187,Water,1
 Node,291,NODE 199,Water,1
 Node,292,NODE 200,Water,1
 Node,293,NODE 212,Water,1
 Node,294,NODE 213,Water,1
 Node,295,NODE 225,Water,1
 Node,296,NODE 226,Water,1
 Node,297,NODE 259,Water,2
 Node,298,NODE 260,Water,1
 Node,299,NODE 268,Water,1
 Node,300,NODE 269,Water,1
 Node,301,NODE 272,Water,1
 Node,302,NODE 273,Water,1
 Node,303,NODE 274,Water,1
 Node,304,NODE 275,Water,1
 Node,305,NODE 279,Water,1
 Node,306,NODE 280,Water,1
 Node,307,NODE 281,Water,1
 Node,308,NODE 282,Water,1
 Node,309,NODE 286,Water,1
 Node,310,NODE 287,Water,1
 Node,311,NODE 293,Water,2
 Node,312,NODE 294,Water,1
 Node,313,NODE 303,Water,1
 Node,314,NODE 304,Water,1
 Node,315,NODE 307,Water,1
 Node,316,NODE 308,Water,1
 Node,317,NODE 346,Water,1
 Node,318,NODE 347,Water,1
 Node,319,NODE 389,Water,1
 Node,320,NODE 390,Water,1
 Node,321,HOT WATER LOOP DEMAND BYPASS PIPE INLET NODE,Water,1
 Node,322,HOT WATER LOOP DEMAND BYPASS PIPE OUTLET NODE,Water,1
 Node,323,HOT WATER LOOP DEMAND OUTLET PIPE NODE,Water,1
 Node,324,NODE 8,Water,2
 Node,325,NODE 395,Water,2
 Node,326,NODE 401,Water,1
 Node,327,NODE 397,Water,1
 Node,328,NODE 402,Water,1
 Node,329,NODE 403,Water,1
 Node,330,NODE 404,Water,1
 Node,331,NODE 406,Water,1
 Node,332,NODE 396,Water,4
 Node,333,NODE 398,Water,2
 Node,334,NODE 407,Water,1
 Node,335,NODE 400,Water,1
 Node,336,NODE 405,Water,1
 Node,337,NODE 409,Water,1
 Node,338,NODE 410,Water,1
 Node,339,NODE 411,Water,1
 Node,340,NODE 412,Water,1
 Node,341,NODE 413,Water,1
 Node,342,NODE 414,Water,1
 Node,343,NODE 415,Water,1
 Node,344,NODE 416,Water,1
 Node,345,NODE 417,Water,1
 Node,346,NODE 418,Water,1
 Node,347,NODE 419,Water,1
 Node,348,NODE 420,Water,1
 Node,349,NODE 421,Water,1
 Node,350,NODE 422,Water,1
 Node,351,NODE 423,Water,1
 Node,352,NODE 424,Water,1
 Node,353,NODE 425,Water,1
 Node,354,NODE 426,Water,1
 Node,355,NODE 427,Water,1
 Node,356,NODE 428,Water,1
 Node,357,NODE 429,Water,1
 Node,358,NODE 430,Water,1
 Node,359,NODE 431,Water,1
 Node,360,NODE 432,Water,1
 Node,361,NODE 433,Water,1
 Node,362,NODE 434,Water,1
 Node,363,NODE 435,Water,1
 Node,364,NODE 436,Water,1
 Node,365,NODE 437,Water,1
 Node,366,NODE 438,Water,1
 Node,367,NODE 439,Water,1
 Node,368,NODE 440,Water,1
 Node,369,NODE 441,Water,1
 Node,370,NODE 442,Water,1
 Node,371,NODE 443,Water,1
 Node,372,NODE 444,Water,1
 Node,373,NODE 445,Water,1
 Node,374,NODE 446,Water,1
 Node,375,NODE 447,Water,1
 Node,376,NODE 448,Water,1
 Node,377,MAIN SERVICE WATER LOOP DEMAND BYPASS PIPE INLET NODE,Water,1
 Node,378,MAIN SERVICE WATER LOOP DEMAND BYPASS PIPE OUTLET NODE,Water,1
 Node,379,NODE 408,Water,1
 Node,380,NODE 399,Water,2
 Node,381,NODE 49,Air,1
 Node,382,NODE 211,Air,1
 Node,383,NODE 25,Air,1
 Node,384,NODE 172,Air,1
 Node,385,NODE 46,Air,1
 Node,386,NODE 351,Air,1
 Node,387,NODE 34,Air,1
 Node,388,NODE 120,Air,1
 Node,389,NODE 40,Air,0
 Node,390,NODE 277,Air,1
 Node,391,NODE 58,Air,0
 Node,392,NODE 284,Air,1
 Node,393,NODE 31,Air,0
 Node,394,NODE 270,Air,1
 Node,395,NODE 55,Air,1
 Node,396,NODE 394,Air,1
 Node,397,NODE 19,Air,1
 Node,398,NODE 146,Air,1
 Node,399,NODE 22,Air,1
 Node,400,NODE 159,Air,1
 Node,401,NODE 16,Air,1
 Node,402,NODE 133,Air,1
 Node,403,NODE 52,Air,1
 Node,404,NODE 224,Air,1
 Node,405,NODE 28,Air,1
 Node,406,NODE 185,Air,1
 Node,407,NODE 37,Air,0
 Node,408,NODE 305,Air,1
 Node,409,NODE 13,Air,1
 Node,410,NODE 107,Air,1
 Node,411,NODE 43,Air,1
 Node,412,NODE 198,Air,1
 Node,413,NODE 1,Air,1
 Node,414,NODE 36,Air,1
 Node,415,NODE 4,Air,0
 Node,416,NODE 62,Air,1
 Node,417,NODE 7,Air,0
 Node,418,NODE 79,Air,1
 Node,419,NODE 10,Air,0
 Node,420,NODE 96,Air,1
 Node,421,NODE 44,Air,2
 Node,422,NODE 66,Air,2
 Node,423,NODE 83,Air,2
 Node,424,NODE 339,Air,2
 Node,425,NODE 382,Air,2
 Node,426,NODE 204,Air,2
 Node,427,NODE 165,Air,2
 Node,428,NODE 139,Air,2
 Node,429,NODE 152,Air,2
 Node,430,NODE 126,Air,2
 Node,431,NODE 217,Air,2
 Node,432,NODE 178,Air,2
 Node,433,NODE 191,Air,2
 Node,434,NODE 26,Air,2
 Node,435,NODE 113,Air,2
 Node,436,NODE 100,Air,2
 Node,437,NODE 257,Air,2
 Node,438,NODE 291,Air,2
 Node,439,ZONE HVAC FOUR PIPE FAN COIL 1 OA NODE,Air,1
 Node,440,ZONE HVAC FOUR PIPE FAN COIL 2 OA NODE,Air,1
 Node,441,DU_BT=HOTEL_ST=WHOLEBUILDING_FL=STORY 4_SCHF PTAC OA NODE,Air,1
 Node,442,DU_BT=MOTEL_ST=WHOLEBUILDING_FL=STORY 2_SCHF PTAC OA NODE,Air,1
 Node,443,DU_BT=MULTI-UNIT RESIDENTIAL_ST=WHOLEBUILDING_FL=STORY 1_SCHG PTAC OA NODE,Air,1
 Node,444,NODE 50,Air,2
 Node,445,NODE 70,Air,2
 Node,446,NODE 87,Air,2
 Node,447,NODE 341,Air,2
 Node,448,NODE 384,Air,2
 Node,449,NODE 206,Air,2
 Node,450,NODE 167,Air,2
 Node,451,NODE 141,Air,2
 Node,452,NODE 154,Air,2
 Node,453,NODE 128,Air,2
 Node,454,NODE 219,Air,2
 Node,455,NODE 180,Air,2
 Node,456,NODE 193,Air,2
 Node,457,NODE 29,Air,2
 Node,458,NODE 115,Air,2
 Node,459,NODE 102,Air,2
 Node,460,NODE 262,Air,2
 Node,461,NODE 297,Air,2
 Node,462,MODEL OUTDOOR AIR NODE,Air,0
 Node,463,NODE 271,Air,1
 Node,464,NODE 278,Air,1
 Node,465,NODE 285,Air,1
 Node,466,NODE 306,Air,1
 Node,467,ZONE HVAC FOUR PIPE FAN COIL 1 MIXED AIR NODE,Air,1
 Node,468,ZONE HVAC FOUR PIPE FAN COIL 1 RELIEF AIR NODE,Air,0
 Node,469,ZONE HVAC FOUR PIPE FAN COIL 2 MIXED AIR NODE,Air,1
 Node,470,ZONE HVAC FOUR PIPE FAN COIL 2 RELIEF AIR NODE,Air,0
 Node,471,DU_BT=HOTEL_ST=WHOLEBUILDING_FL=STORY 4_SCHF PTAC MIXED AIR NODE,Air,1
 Node,472,DU_BT=HOTEL_ST=WHOLEBUILDING_FL=STORY 4_SCHF PTAC RELIEF AIR NODE,Air,0
 Node,473,DU_BT=MOTEL_ST=WHOLEBUILDING_FL=STORY 2_SCHF PTAC MIXED AIR NODE,Air,1
 Node,474,DU_BT=MOTEL_ST=WHOLEBUILDING_FL=STORY 2_SCHF PTAC RELIEF AIR NODE,Air,0
 Node,475,DU_BT=MULTI-UNIT RESIDENTIAL_ST=WHOLEBUILDING_FL=STORY 1_SCHG PTAC MIXED AIR NODE,Air,1
 Node,476,DU_BT=MULTI-UNIT RESIDENTIAL_ST=WHOLEBUILDING_FL=STORY 1_SCHG PTAC RELIEF AIR NODE,Air,0
 Node,477,NODE 51,Air,1
 Node,478,NODE 71,Air,1
 Node,479,NODE 88,Air,1
 Node,480,NODE 342,Air,1
 Node,481,NODE 385,Air,1
 Node,482,NODE 207,Air,1
 Node,483,NODE 168,Air,1
 Node,484,NODE 142,Air,1
 Node,485,NODE 155,Air,1
 Node,486,NODE 129,Air,1
 Node,487,NODE 220,Air,1
 Node,488,NODE 181,Air,1
 Node,489,NODE 194,Air,1
 Node,490,NODE 30,Air,1
 Node,491,NODE 116,Air,1
 Node,492,NODE 103,Air,1
 Node,493,NODE 263,Air,1
 Node,494,NODE 298,Air,1
 Node,495,ZONE HVAC FOUR PIPE FAN COIL 1 COOLING COIL OUTLET NODE,Air,1
 Node,496,AIR TERMINAL SINGLE DUCT VAV REHEAT 2 DAMPER OUTLET,Air,1
 Node,497,AIR TERMINAL SINGLE DUCT VAV REHEAT 3 DAMPER OUTLET,Air,1
 Node,498,AIR TERMINAL SINGLE DUCT VAV REHEAT 1 DAMPER OUTLET,Air,1
 Node,499,ZONE HVAC FOUR PIPE FAN COIL 2 COOLING COIL OUTLET NODE,Air,1
 Node,500,AIR TERMINAL SINGLE DUCT VAV REHEAT 4 DAMPER OUTLET,Air,1
 Node,501,ZONE HVAC FOUR PIPE FAN COIL 1 FAN OUTLET NODE,Air,1
 Node,502,ZONE HVAC FOUR PIPE FAN COIL 2 FAN OUTLET NODE,Air,1
 Node,503,DU_BT=HOTEL_ST=WHOLEBUILDING_FL=STORY 4_SCHF PTAC HEATING COIL OUTLET NODE,Air,1
 Node,504,DU_BT=MOTEL_ST=WHOLEBUILDING_FL=STORY 2_SCHF PTAC HEATING COIL OUTLET NODE,Air,1
 Node,505,DU_BT=MULTI-UNIT RESIDENTIAL_ST=WHOLEBUILDING_FL=STORY 1_SCHG PTAC HEATING COIL OUTLET NODE,Air,1
 Node,506,DU_BT=HOTEL_ST=WHOLEBUILDING_FL=STORY 4_SCHF PTAC COOLING COIL OUTLET NODE,Air,1
 Node,507,DU_BT=MOTEL_ST=WHOLEBUILDING_FL=STORY 2_SCHF PTAC COOLING COIL OUTLET NODE,Air,1
 Node,508,DU_BT=MULTI-UNIT RESIDENTIAL_ST=WHOLEBUILDING_FL=STORY 1_SCHG PTAC COOLING COIL OUTLET NODE,Air,1
! ===============================================================
! Suspicious nodes have 0 references.  It is normal for some nodes, however.
! Listing nodes with 0 references (culled from previous list):
! <Suspicious Node>,<NodeNumber>,<Node Name>,<Node Fluid Type>,<# Times Node Referenced After Definition>
 Suspicious Node,389,NODE 40,Air,0
 Suspicious Node,391,NODE 58,Air,0
 Suspicious Node,393,NODE 31,Air,0
 Suspicious Node,407,NODE 37,Air,0
 Suspicious Node,415,NODE 4,Air,0
 Suspicious Node,417,NODE 7,Air,0
 Suspicious Node,419,NODE 10,Air,0
 Suspicious Node,462,MODEL OUTDOOR AIR NODE,Air,0
 Suspicious Node,468,ZONE HVAC FOUR PIPE FAN COIL 1 RELIEF AIR NODE,Air,0
 Suspicious Node,470,ZONE HVAC FOUR PIPE FAN COIL 2 RELIEF AIR NODE,Air,0
 Suspicious Node,472,DU_BT=HOTEL_ST=WHOLEBUILDING_FL=STORY 4_SCHF PTAC RELIEF AIR NODE,Air,0
 Suspicious Node,474,DU_BT=MOTEL_ST=WHOLEBUILDING_FL=STORY 2_SCHF PTAC RELIEF AIR NODE,Air,0
 Suspicious Node,476,DU_BT=MULTI-UNIT RESIDENTIAL_ST=WHOLEBUILDING_FL=STORY 1_SCHG PTAC RELIEF AIR NODE,Air,0
! ===============================================================
! <#Branch Lists>,<Number of Branch Lists>
 #Branch Lists,34
! <Branch List>,<Branch List Count>,<Branch List Name>,<Loop Name>,<Loop Type>,<Number of Branches>
! <Branch>,<Branch Count>,<Branch Name>,<Loop Name>,<Loop Type>,<Branch Inlet Node Name>,<Branch Outlet Node Name>
 Branch List,1,SYS_1_MAKE-UP AIR UNIT SUPPLY BRANCHES,SYS_1_MAKE-UP AIR UNIT,Air,1
   Branch,1,SYS_1_MAKE-UP AIR UNIT MAIN BRANCH,SYS_1_MAKE-UP AIR UNIT,Air,NODE 39,NODE 41
 Branch List,2,SYS_1_MAKE-UP AIR UNIT 1 SUPPLY BRANCHES,SYS_1_MAKE-UP AIR UNIT 1,Air,1
   Branch,1,SYS_1_MAKE-UP AIR UNIT 1 MAIN BRANCH,SYS_1_MAKE-UP AIR UNIT 1,Air,NODE 63,NODE 64
 Branch List,3,SYS_1_MAKE-UP AIR UNIT 2 SUPPLY BRANCHES,SYS_1_MAKE-UP AIR UNIT 2,Air,1
   Branch,1,SYS_1_MAKE-UP AIR UNIT 2 MAIN BRANCH,SYS_1_MAKE-UP AIR UNIT 2,Air,NODE 80,NODE 81
 Branch List,4,SYS_2_MAKE-UP AIR UNIT SUPPLY BRANCHES,SYS_2_MAKE-UP AIR UNIT,Air,1
   Branch,1,SYS_2_MAKE-UP AIR UNIT MAIN BRANCH,SYS_2_MAKE-UP AIR UNIT,Air,NODE 336,NODE 337
 Branch List,5,SYS_2_MAKE-UP AIR UNIT 1 SUPPLY BRANCHES,SYS_2_MAKE-UP AIR UNIT 1,Air,1
   Branch,1,SYS_2_MAKE-UP AIR UNIT 1 MAIN BRANCH,SYS_2_MAKE-UP AIR UNIT 1,Air,NODE 379,NODE 380
 Branch List,6,SYS_3_PSZ ALL_ST=WHOLEBUILDING_FL=STORY 1_SCH=A SUPPLY BRANCHES,SYS_3_PSZ ALL_ST=WHOLEBUILDING_FL=STORY 1_SCH=A,Air,1
   Branch,1,SYS_3_PSZ ALL_ST=WHOLEBUILDING_FL=STORY 1_SCH=A MAIN BRANCH,SYS_3_PSZ ALL_ST=WHOLEBUILDING_FL=STORY 1_SCH=A,Air,NODE 201,NODE 202
 Branch List,7,SYS_3_PSZ ALL_ST=WHOLEBUILDING_FL=STORY 1_SCH=B SUPPLY BRANCHES,SYS_3_PSZ ALL_ST=WHOLEBUILDING_FL=STORY 1_SCH=B,Air,1
   Branch,1,SYS_3_PSZ ALL_ST=WHOLEBUILDING_FL=STORY 1_SCH=B MAIN BRANCH,SYS_3_PSZ ALL_ST=WHOLEBUILDING_FL=STORY 1_SCH=B,Air,NODE 162,NODE 163
 Branch List,8,SYS_3_PSZ ALL_ST=WHOLEBUILDING_FL=STORY 3_SCH=A SUPPLY BRANCHES,SYS_3_PSZ ALL_ST=WHOLEBUILDING_FL=STORY 3_SCH=A,Air,1
   Branch,1,SYS_3_PSZ ALL_ST=WHOLEBUILDING_FL=STORY 3_SCH=A MAIN BRANCH,SYS_3_PSZ ALL_ST=WHOLEBUILDING_FL=STORY 3_SCH=A,Air,NODE 136,NODE 137
 Branch List,9,SYS_3_PSZ ALL_ST=WHOLEBUILDING_FL=STORY 3_SCH=B SUPPLY BRANCHES,SYS_3_PSZ ALL_ST=WHOLEBUILDING_FL=STORY 3_SCH=B,Air,1
   Branch,1,SYS_3_PSZ ALL_ST=WHOLEBUILDING_FL=STORY 3_SCH=B MAIN BRANCH,SYS_3_PSZ ALL_ST=WHOLEBUILDING_FL=STORY 3_SCH=B,Air,NODE 149,NODE 150
 Branch List,10,SYS_3_PSZ ALL_ST=WHOLEBUILDING_FL=STORY 3_SCH=C SUPPLY BRANCHES,SYS_3_PSZ ALL_ST=WHOLEBUILDING_FL=STORY 3_SCH=C,Air,1
   Branch,1,SYS_3_PSZ ALL_ST=WHOLEBUILDING_FL=STORY 3_SCH=C MAIN BRANCH,SYS_3_PSZ ALL_ST=WHOLEBUILDING_FL=STORY 3_SCH=C,Air,NODE 123,NODE 124
 Branch List,11,SYS_3_PSZ ALL_ST=WHOLEBUILDING_FL=STORY 3_SCH=C 1 SUPPLY BRANCHES,SYS_3_PSZ ALL_ST=WHOLEBUILDING_FL=STORY 3_SCH=C 1,Air,1
   Branch,1,SYS_3_PSZ ALL_ST=WHOLEBUILDING_FL=STORY 3_SCH=C 1 MAIN BRANCH,SYS_3_PSZ ALL_ST=WHOLEBUILDING_FL=STORY 3_SCH=C 1,Air,NODE 214,NODE 215
 Branch List,12,SYS_3_PSZ ALL_ST=WHOLEBUILDING_FL=STORY 4_SCH=B SUPPLY BRANCHES,SYS_3_PSZ ALL_ST=WHOLEBUILDING_FL=STORY 4_SCH=B,Air,1
   Branch,1,SYS_3_PSZ ALL_ST=WHOLEBUILDING_FL=STORY 4_SCH=B MAIN BRANCH,SYS_3_PSZ ALL_ST=WHOLEBUILDING_FL=STORY 4_SCH=B,Air,NODE 175,NODE 176
 Branch List,13,SYS_3_PSZ ALL_ST=WHOLEBUILDING_FL=STORY 4_SCH=H SUPPLY BRANCHES,SYS_3_PSZ ALL_ST=WHOLEBUILDING_FL=STORY 4_SCH=H,Air,1
   Branch,1,SYS_3_PSZ ALL_ST=WHOLEBUILDING_FL=STORY 4_SCH=H MAIN BRANCH,SYS_3_PSZ ALL_ST=WHOLEBUILDING_FL=STORY 4_SCH=H,Air,NODE 188,NODE 189
 Branch List,14,SYS_3_PSZ DU_BT=DORMITORY_ST=WHOLEBUILDING_FL=STORY 3_SCHG SUPPLY BRANCHES,SYS_3_PSZ DU_BT=DORMITORY_ST=WHOLEBUILDING_FL=STORY 3_SCHG,Air,1
   Branch,1,SYS_3_PSZ DU_BT=DORMITORY_ST=WHOLEBUILDING_FL=STORY 3_SCHG MAIN BRANCH,SYS_3_PSZ DU_BT=DORMITORY_ST=WHOLEBUILDING_FL=STORY 3_SCHG,Air,NODE 21,NODE 23
 Branch List,15,SYS_4_PSZ_ALL_ST=WHOLEBUILDING_FL=STORY 1_SCH=F SUPPLY BRANCHES,SYS_4_PSZ_ALL_ST=WHOLEBUILDING_FL=STORY 1_SCH=F,Air,1
   Branch,1,SYS_4_PSZ_ALL_ST=WHOLEBUILDING_FL=STORY 1_SCH=F MAIN BRANCH,SYS_4_PSZ_ALL_ST=WHOLEBUILDING_FL=STORY 1_SCH=F,Air,NODE 110,NODE 111
 Branch List,16,SYS_4_PSZ_ALL_ST=WHOLEBUILDING_FL=STORY 4_SCH=E SUPPLY BRANCHES,SYS_4_PSZ_ALL_ST=WHOLEBUILDING_FL=STORY 4_SCH=E,Air,1
   Branch,1,SYS_4_PSZ_ALL_ST=WHOLEBUILDING_FL=STORY 4_SCH=E MAIN BRANCH,SYS_4_PSZ_ALL_ST=WHOLEBUILDING_FL=STORY 4_SCH=E,Air,NODE 97,NODE 98
 Branch List,17,SYS_6_VAV WITH REHEAT SUPPLY BRANCHES,SYS_6_VAV WITH REHEAT,Air,1
   Branch,1,SYS_6_VAV WITH REHEAT MAIN BRANCH,SYS_6_VAV WITH REHEAT,Air,NODE 254,NODE 255
 Branch List,18,SYS_6_VAV WITH REHEAT 1 SUPPLY BRANCHES,SYS_6_VAV WITH REHEAT 1,Air,1
   Branch,1,SYS_6_VAV WITH REHEAT 1 MAIN BRANCH,SYS_6_VAV WITH REHEAT 1,Air,NODE 288,NODE 289
 Branch List,19,CHILLED WATER LOOP SUPPLY BRANCHES,CHILLED WATER LOOP,Plant Supply,5
   Branch,1,CHILLED WATER LOOP SUPPLY INLET BRANCH,CHILLED WATER LOOP,Plant Supply,NODE 227,NODE 233
   Branch,2,CHILLED WATER LOOP SUPPLY BRANCH 1,CHILLED WATER LOOP,Plant Supply,NODE 229,NODE 234
   Branch,3,CHILLED WATER LOOP SUPPLY BRANCH 2,CHILLED WATER LOOP,Plant Supply,NODE 235,NODE 236
   Branch,4,CHILLED WATER LOOP SUPPLY BRANCH 3,CHILLED WATER LOOP,Plant Supply,NODE 237,NODE 238
   Branch,5,CHILLED WATER LOOP SUPPLY OUTLET BRANCH,CHILLED WATER LOOP,Plant Supply,NODE 239,NODE 228
 Branch List,20,CHILLED WATER LOOP DEMAND BRANCHES,CHILLED WATER LOOP,Plant Demand,5
   Branch,1,CHILLED WATER LOOP DEMAND INLET BRANCH,CHILLED WATER LOOP,Plant Demand,NODE 230,CHILLED WATER LOOP DEMAND INLET PIPE NODE
   Branch,2,CHILLED WATER LOOP DEMAND BRANCH 1,CHILLED WATER LOOP,Plant Demand,NODE 232,NODE 261
   Branch,3,CHILLED WATER LOOP DEMAND BRANCH 2,CHILLED WATER LOOP,Plant Demand,NODE 295,NODE 296
   Branch,4,CHILLED WATER LOOP DEMAND BYPASS BRANCH,CHILLED WATER LOOP,Plant Demand,CHILLED WATER LOOP DEMAND BYPASS PIPE INLET NODE,CHILLED WATER LOOP DEMAND BYPASS PIPE OUTLET NODE
   Branch,5,CHILLED WATER LOOP DEMAND OUTLET BRANCH,CHILLED WATER LOOP,Plant Demand,CHILLED WATER LOOP DEMAND OUTLET PIPE NODE,NODE 231
 Branch List,21,CHILLED WATER LOOP 1 SUPPLY BRANCHES,CHILLED WATER LOOP 1,Plant Supply,5
   Branch,1,CHILLED WATER LOOP 1 SUPPLY INLET BRANCH,CHILLED WATER LOOP 1,Plant Supply,NODE 309,NODE 315
   Branch,2,CHILLED WATER LOOP 1 SUPPLY BRANCH 1,CHILLED WATER LOOP 1,Plant Supply,NODE 311,NODE 316
   Branch,3,CHILLED WATER LOOP 1 SUPPLY BRANCH 2,CHILLED WATER LOOP 1,Plant Supply,NODE 317,NODE 318
   Branch,4,CHILLED WATER LOOP 1 SUPPLY BRANCH 3,CHILLED WATER LOOP 1,Plant Supply,NODE 319,NODE 320
   Branch,5,CHILLED WATER LOOP 1 SUPPLY OUTLET BRANCH,CHILLED WATER LOOP 1,Plant Supply,NODE 321,NODE 310
 Branch List,22,CHILLED WATER LOOP 1 DEMAND BRANCHES,CHILLED WATER LOOP 1,Plant Demand,4
   Branch,1,CHILLED WATER LOOP 1 DEMAND INLET BRANCH,CHILLED WATER LOOP 1,Plant Demand,NODE 312,CHILLED WATER LOOP 1 DEMAND INLET PIPE NODE
   Branch,2,CHILLED WATER LOOP 1 DEMAND BRANCH 1,CHILLED WATER LOOP 1,Plant Demand,NODE 314,NODE 348
   Branch,3,CHILLED WATER LOOP 1 DEMAND BYPASS BRANCH,CHILLED WATER LOOP 1,Plant Demand,CHILLED WATER LOOP 1 DEMAND BYPASS PIPE INLET NODE,CHILLED WATER LOOP 1 DEMAND BYPASS PIPE OUTLET NODE
   Branch,4,CHILLED WATER LOOP 1 DEMAND OUTLET BRANCH,CHILLED WATER LOOP 1,Plant Demand,CHILLED WATER LOOP 1 DEMAND OUTLET PIPE NODE,NODE 313
 Branch List,23,CHILLED WATER LOOP 2 SUPPLY BRANCHES,CHILLED WATER LOOP 2,Plant Supply,5
   Branch,1,CHILLED WATER LOOP 2 SUPPLY INLET BRANCH,CHILLED WATER LOOP 2,Plant Supply,NODE 352,NODE 358
   Branch,2,CHILLED WATER LOOP 2 SUPPLY BRANCH 1,CHILLED WATER LOOP 2,Plant Supply,NODE 354,NODE 359
   Branch,3,CHILLED WATER LOOP 2 SUPPLY BRANCH 2,CHILLED WATER LOOP 2,Plant Supply,NODE 360,NODE 361
   Branch,4,CHILLED WATER LOOP 2 SUPPLY BRANCH 3,CHILLED WATER LOOP 2,Plant Supply,NODE 362,NODE 363
   Branch,5,CHILLED WATER LOOP 2 SUPPLY OUTLET BRANCH,CHILLED WATER LOOP 2,Plant Supply,NODE 364,NODE 353
 Branch List,24,CHILLED WATER LOOP 2 DEMAND BRANCHES,CHILLED WATER LOOP 2,Plant Demand,4
   Branch,1,CHILLED WATER LOOP 2 DEMAND INLET BRANCH,CHILLED WATER LOOP 2,Plant Demand,NODE 355,CHILLED WATER LOOP 2 DEMAND INLET PIPE NODE
   Branch,2,CHILLED WATER LOOP 2 DEMAND BRANCH 1,CHILLED WATER LOOP 2,Plant Demand,NODE 357,NODE 391
   Branch,3,CHILLED WATER LOOP 2 DEMAND BYPASS BRANCH,CHILLED WATER LOOP 2,Plant Demand,CHILLED WATER LOOP 2 DEMAND BYPASS PIPE INLET NODE,CHILLED WATER LOOP 2 DEMAND BYPASS PIPE OUTLET NODE
   Branch,4,CHILLED WATER LOOP 2 DEMAND OUTLET BRANCH,CHILLED WATER LOOP 2,Plant Demand,CHILLED WATER LOOP 2 DEMAND OUTLET PIPE NODE,NODE 356
 Branch List,25,CONDENSER WATER LOOP SUPPLY BRANCHES,CONDENSER WATER LOOP,Plant Supply,4
   Branch,1,CONDENSER WATER LOOP SUPPLY INLET BRANCH,CONDENSER WATER LOOP,Plant Supply,NODE 240,NODE 246
   Branch,2,CONDENSER WATER LOOP SUPPLY BRANCH 1,CONDENSER WATER LOOP,Plant Supply,NODE 242,NODE 247
   Branch,3,CONDENSER WATER LOOP SUPPLY BRANCH 2,CONDENSER WATER LOOP,Plant Supply,NODE 248,NODE 249
   Branch,4,CONDENSER WATER LOOP SUPPLY OUTLET BRANCH,CONDENSER WATER LOOP,Plant Supply,NODE 250,NODE 241
 Branch List,26,CONDENSER WATER LOOP DEMAND BRANCHES,CONDENSER WATER LOOP,Plant Demand,5
   Branch,1,CONDENSER WATER LOOP DEMAND INLET BRANCH,CONDENSER WATER LOOP,Plant Demand,NODE 243,CONDENSER WATER LOOP DEMAND INLET PIPE NODE
   Branch,2,CONDENSER WATER LOOP DEMAND BRANCH 1,CONDENSER WATER LOOP,Plant Demand,NODE 245,NODE 251
   Branch,3,CONDENSER WATER LOOP DEMAND BRANCH 2,CONDENSER WATER LOOP,Plant Demand,NODE 252,NODE 253
   Branch,4,CONDENSER WATER LOOP DEMAND BYPASS BRANCH,CONDENSER WATER LOOP,Plant Demand,CONDENSER WATER LOOP DEMAND BYPASS PIPE INLET NODE,CONDENSER WATER LOOP DEMAND BYPASS PIPE OUTLET NODE
   Branch,5,CONDENSER WATER LOOP DEMAND OUTLET BRANCH,CONDENSER WATER LOOP,Plant Demand,CONDENSER WATER LOOP DEMAND OUTLET PIPE NODE,NODE 244
 Branch List,27,CONDENSER WATER LOOP 1 SUPPLY BRANCHES,CONDENSER WATER LOOP 1,Plant Supply,4
   Branch,1,CONDENSER WATER LOOP 1 SUPPLY INLET BRANCH,CONDENSER WATER LOOP 1,Plant Supply,NODE 322,NODE 328
   Branch,2,CONDENSER WATER LOOP 1 SUPPLY BRANCH 1,CONDENSER WATER LOOP 1,Plant Supply,NODE 324,NODE 329
   Branch,3,CONDENSER WATER LOOP 1 SUPPLY BRANCH 2,CONDENSER WATER LOOP 1,Plant Supply,NODE 330,NODE 331
   Branch,4,CONDENSER WATER LOOP 1 SUPPLY OUTLET BRANCH,CONDENSER WATER LOOP 1,Plant Supply,NODE 332,NODE 323
 Branch List,28,CONDENSER WATER LOOP 1 DEMAND BRANCHES,CONDENSER WATER LOOP 1,Plant Demand,5
   Branch,1,CONDENSER WATER LOOP 1 DEMAND INLET BRANCH,CONDENSER WATER LOOP 1,Plant Demand,NODE 325,CONDENSER WATER LOOP 1 DEMAND INLET PIPE NODE
   Branch,2,CONDENSER WATER LOOP 1 DEMAND BRANCH 1,CONDENSER WATER LOOP 1,Plant Demand,NODE 327,NODE 333
   Branch,3,CONDENSER WATER LOOP 1 DEMAND BRANCH 2,CONDENSER WATER LOOP 1,Plant Demand,NODE 334,NODE 335
   Branch,4,CONDENSER WATER LOOP 1 DEMAND BYPASS BRANCH,CONDENSER WATER LOOP 1,Plant Demand,CONDENSER WATER LOOP 1 DEMAND BYPASS PIPE INLET NODE,CONDENSER WATER LOOP 1 DEMAND BYPASS PIPE OUTLET NODE
   Branch,5,CONDENSER WATER LOOP 1 DEMAND OUTLET BRANCH,CONDENSER WATER LOOP 1,Plant Demand,CONDENSER WATER LOOP 1 DEMAND OUTLET PIPE NODE,NODE 326
 Branch List,29,CONDENSER WATER LOOP 2 SUPPLY BRANCHES,CONDENSER WATER LOOP 2,Plant Supply,4
   Branch,1,CONDENSER WATER LOOP 2 SUPPLY INLET BRANCH,CONDENSER WATER LOOP 2,Plant Supply,NODE 365,NODE 371
   Branch,2,CONDENSER WATER LOOP 2 SUPPLY BRANCH 1,CONDENSER WATER LOOP 2,Plant Supply,NODE 367,NODE 372
   Branch,3,CONDENSER WATER LOOP 2 SUPPLY BRANCH 2,CONDENSER WATER LOOP 2,Plant Supply,NODE 373,NODE 374
   Branch,4,CONDENSER WATER LOOP 2 SUPPLY OUTLET BRANCH,CONDENSER WATER LOOP 2,Plant Supply,NODE 375,NODE 366
 Branch List,30,CONDENSER WATER LOOP 2 DEMAND BRANCHES,CONDENSER WATER LOOP 2,Plant Demand,5
   Branch,1,CONDENSER WATER LOOP 2 DEMAND INLET BRANCH,CONDENSER WATER LOOP 2,Plant Demand,NODE 368,CONDENSER WATER LOOP 2 DEMAND INLET PIPE NODE
   Branch,2,CONDENSER WATER LOOP 2 DEMAND BRANCH 1,CONDENSER WATER LOOP 2,Plant Demand,NODE 370,NODE 376
   Branch,3,CONDENSER WATER LOOP 2 DEMAND BRANCH 2,CONDENSER WATER LOOP 2,Plant Demand,NODE 377,NODE 378
   Branch,4,CONDENSER WATER LOOP 2 DEMAND BYPASS BRANCH,CONDENSER WATER LOOP 2,Plant Demand,CONDENSER WATER LOOP 2 DEMAND BYPASS PIPE INLET NODE,CONDENSER WATER LOOP 2 DEMAND BYPASS PIPE OUTLET NODE
   Branch,5,CONDENSER WATER LOOP 2 DEMAND OUTLET BRANCH,CONDENSER WATER LOOP 2,Plant Demand,CONDENSER WATER LOOP 2 DEMAND OUTLET PIPE NODE,NODE 369
 Branch List,31,HOT WATER LOOP SUPPLY BRANCHES,HOT WATER LOOP,Plant Supply,5
   Branch,1,HOT WATER LOOP SUPPLY INLET BRANCH,HOT WATER LOOP,Plant Supply,NODE 2,NODE 11
   Branch,2,HOT WATER LOOP SUPPLY BRANCH 1,HOT WATER LOOP,Plant Supply,NODE 5,NODE 12
   Branch,3,HOT WATER LOOP SUPPLY BRANCH 2,HOT WATER LOOP,Plant Supply,NODE 14,NODE 15
   Branch,4,HOT WATER LOOP SUPPLY BRANCH 3,HOT WATER LOOP,Plant Supply,NODE 17,NODE 18
   Branch,5,HOT WATER LOOP SUPPLY OUTLET BRANCH,HOT WATER LOOP,Plant Supply,NODE 20,NODE 3
 Branch List,32,HOT WATER LOOP DEMAND BRANCHES,HOT WATER LOOP,Plant Demand,32
   Branch,1,HOT WATER LOOP DEMAND INLET BRANCH,HOT WATER LOOP,Plant Demand,NODE 6,HOT WATER LOOP DEMAND INLET PIPE NODE
   Branch,2,HOT WATER LOOP DEMAND BRANCH 1,HOT WATER LOOP,Plant Demand,NODE 9,NODE 38
   Branch,3,HOT WATER LOOP DEMAND BRANCH 2,HOT WATER LOOP,Plant Demand,NODE 47,NODE 48
   Branch,4,HOT WATER LOOP DEMAND BRANCH 3,HOT WATER LOOP,Plant Demand,NODE 60,NODE 61
   Branch,5,HOT WATER LOOP DEMAND BRANCH 4,HOT WATER LOOP,Plant Demand,NODE 68,NODE 69
   Branch,6,HOT WATER LOOP DEMAND BRANCH 5,HOT WATER LOOP,Plant Demand,NODE 77,NODE 78
   Branch,7,HOT WATER LOOP DEMAND BRANCH 6,HOT WATER LOOP,Plant Demand,NODE 85,NODE 86
   Branch,8,HOT WATER LOOP DEMAND BRANCH 7,HOT WATER LOOP,Plant Demand,NODE 94,NODE 95
   Branch,9,HOT WATER LOOP DEMAND BRANCH 8,HOT WATER LOOP,Plant Demand,NODE 108,NODE 109
   Branch,10,HOT WATER LOOP DEMAND BRANCH 9,HOT WATER LOOP,Plant Demand,NODE 121,NODE 122
   Branch,11,HOT WATER LOOP DEMAND BRANCH 10,HOT WATER LOOP,Plant Demand,NODE 134,NODE 135
   Branch,12,HOT WATER LOOP DEMAND BRANCH 11,HOT WATER LOOP,Plant Demand,NODE 147,NODE 148
   Branch,13,HOT WATER LOOP DEMAND BRANCH 12,HOT WATER LOOP,Plant Demand,NODE 160,NODE 161
   Branch,14,HOT WATER LOOP DEMAND BRANCH 13,HOT WATER LOOP,Plant Demand,NODE 173,NODE 174
   Branch,15,HOT WATER LOOP DEMAND BRANCH 14,HOT WATER LOOP,Plant Demand,NODE 186,NODE 187
   Branch,16,HOT WATER LOOP DEMAND BRANCH 15,HOT WATER LOOP,Plant Demand,NODE 199,NODE 200
   Branch,17,HOT WATER LOOP DEMAND BRANCH 16,HOT WATER LOOP,Plant Demand,NODE 212,NODE 213
   Branch,18,HOT WATER LOOP DEMAND BRANCH 17,HOT WATER LOOP,Plant Demand,NODE 225,NODE 226
   Branch,19,HOT WATER LOOP DEMAND BRANCH 18,HOT WATER LOOP,Plant Demand,NODE 259,NODE 260
   Branch,20,HOT WATER LOOP DEMAND BRANCH 19,HOT WATER LOOP,Plant Demand,NODE 268,NODE 269
   Branch,21,HOT WATER LOOP DEMAND BRANCH 20,HOT WATER LOOP,Plant Demand,NODE 272,NODE 273
   Branch,22,HOT WATER LOOP DEMAND BRANCH 21,HOT WATER LOOP,Plant Demand,NODE 274,NODE 275
   Branch,23,HOT WATER LOOP DEMAND BRANCH 22,HOT WATER LOOP,Plant Demand,NODE 279,NODE 280
   Branch,24,HOT WATER LOOP DEMAND BRANCH 23,HOT WATER LOOP,Plant Demand,NODE 281,NODE 282
   Branch,25,HOT WATER LOOP DEMAND BRANCH 24,HOT WATER LOOP,Plant Demand,NODE 286,NODE 287
   Branch,26,HOT WATER LOOP DEMAND BRANCH 25,HOT WATER LOOP,Plant Demand,NODE 293,NODE 294
   Branch,27,HOT WATER LOOP DEMAND BRANCH 26,HOT WATER LOOP,Plant Demand,NODE 303,NODE 304
   Branch,28,HOT WATER LOOP DEMAND BRANCH 27,HOT WATER LOOP,Plant Demand,NODE 307,NODE 308
   Branch,29,HOT WATER LOOP DEMAND BRANCH 28,HOT WATER LOOP,Plant Demand,NODE 346,NODE 347
   Branch,30,HOT WATER LOOP DEMAND BRANCH 29,HOT WATER LOOP,Plant Demand,NODE 389,NODE 390
   Branch,31,HOT WATER LOOP DEMAND BYPASS BRANCH,HOT WATER LOOP,Plant Demand,HOT WATER LOOP DEMAND BYPASS PIPE INLET NODE,HOT WATER LOOP DEMAND BYPASS PIPE OUTLET NODE
   Branch,32,HOT WATER LOOP DEMAND OUTLET BRANCH,HOT WATER LOOP,Plant Demand,HOT WATER LOOP DEMAND OUTLET PIPE NODE,NODE 8
 Branch List,33,MAIN SERVICE WATER LOOP SUPPLY BRANCHES,MAIN SERVICE WATER LOOP,Plant Supply,4
   Branch,1,MAIN SERVICE WATER LOOP SUPPLY INLET BRANCH,MAIN SERVICE WATER LOOP,Plant Supply,NODE 395,NODE 401
   Branch,2,MAIN SERVICE WATER LOOP SUPPLY BRANCH 1,MAIN SERVICE WATER LOOP,Plant Supply,NODE 397,NODE 402
   Branch,3,MAIN SERVICE WATER LOOP SUPPLY BRANCH 2,MAIN SERVICE WATER LOOP,Plant Supply,NODE 403,NODE 404
   Branch,4,MAIN SERVICE WATER LOOP SUPPLY OUTLET BRANCH,MAIN SERVICE WATER LOOP,Plant Supply,NODE 406,NODE 396
 Branch List,34,MAIN SERVICE WATER LOOP DEMAND BRANCHES,MAIN SERVICE WATER LOOP,Plant Demand,24
   Branch,1,MAIN SERVICE WATER LOOP DEMAND INLET BRANCH,MAIN SERVICE WATER LOOP,Plant Demand,NODE 398,NODE 407
   Branch,2,MAIN SERVICE WATER LOOP DEMAND BRANCH 1,MAIN SERVICE WATER LOOP,Plant Demand,NODE 400,NODE 405
   Branch,3,MAIN SERVICE WATER LOOP DEMAND BRANCH 2,MAIN SERVICE WATER LOOP,Plant Demand,NODE 409,NODE 410
   Branch,4,MAIN SERVICE WATER LOOP DEMAND BRANCH 3,MAIN SERVICE WATER LOOP,Plant Demand,NODE 411,NODE 412
   Branch,5,MAIN SERVICE WATER LOOP DEMAND BRANCH 4,MAIN SERVICE WATER LOOP,Plant Demand,NODE 413,NODE 414
   Branch,6,MAIN SERVICE WATER LOOP DEMAND BRANCH 5,MAIN SERVICE WATER LOOP,Plant Demand,NODE 415,NODE 416
   Branch,7,MAIN SERVICE WATER LOOP DEMAND BRANCH 6,MAIN SERVICE WATER LOOP,Plant Demand,NODE 417,NODE 418
   Branch,8,MAIN SERVICE WATER LOOP DEMAND BRANCH 7,MAIN SERVICE WATER LOOP,Plant Demand,NODE 419,NODE 420
   Branch,9,MAIN SERVICE WATER LOOP DEMAND BRANCH 8,MAIN SERVICE WATER LOOP,Plant Demand,NODE 421,NODE 422
   Branch,10,MAIN SERVICE WATER LOOP DEMAND BRANCH 9,MAIN SERVICE WATER LOOP,Plant Demand,NODE 423,NODE 424
   Branch,11,MAIN SERVICE WATER LOOP DEMAND BRANCH 10,MAIN SERVICE WATER LOOP,Plant Demand,NODE 425,NODE 426
   Branch,12,MAIN SERVICE WATER LOOP DEMAND BRANCH 11,MAIN SERVICE WATER LOOP,Plant Demand,NODE 427,NODE 428
   Branch,13,MAIN SERVICE WATER LOOP DEMAND BRANCH 12,MAIN SERVICE WATER LOOP,Plant Demand,NODE 429,NODE 430
   Branch,14,MAIN SERVICE WATER LOOP DEMAND BRANCH 13,MAIN SERVICE WATER LOOP,Plant Demand,NODE 431,NODE 432
   Branch,15,MAIN SERVICE WATER LOOP DEMAND BRANCH 14,MAIN SERVICE WATER LOOP,Plant Demand,NODE 433,NODE 434
   Branch,16,MAIN SERVICE WATER LOOP DEMAND BRANCH 15,MAIN SERVICE WATER LOOP,Plant Demand,NODE 435,NODE 436
   Branch,17,MAIN SERVICE WATER LOOP DEMAND BRANCH 16,MAIN SERVICE WATER LOOP,Plant Demand,NODE 437,NODE 438
   Branch,18,MAIN SERVICE WATER LOOP DEMAND BRANCH 17,MAIN SERVICE WATER LOOP,Plant Demand,NODE 439,NODE 440
   Branch,19,MAIN SERVICE WATER LOOP DEMAND BRANCH 18,MAIN SERVICE WATER LOOP,Plant Demand,NODE 441,NODE 442
   Branch,20,MAIN SERVICE WATER LOOP DEMAND BRANCH 19,MAIN SERVICE WATER LOOP,Plant Demand,NODE 443,NODE 444
   Branch,21,MAIN SERVICE WATER LOOP DEMAND BRANCH 20,MAIN SERVICE WATER LOOP,Plant Demand,NODE 445,NODE 446
   Branch,22,MAIN SERVICE WATER LOOP DEMAND BRANCH 21,MAIN SERVICE WATER LOOP,Plant Demand,NODE 447,NODE 448
   Branch,23,MAIN SERVICE WATER LOOP DEMAND BYPASS BRANCH,MAIN SERVICE WATER LOOP,Plant Demand,MAIN SERVICE WATER LOOP DEMAND BYPASS PIPE INLET NODE,MAIN SERVICE WATER LOOP DEMAND BYPASS PIPE OUTLET NODE
   Branch,24,MAIN SERVICE WATER LOOP DEMAND OUTLET BRANCH,MAIN SERVICE WATER LOOP,Plant Demand,NODE 408,NODE 399
! ===============================================================
! <#Supply Air Paths>,<Number of Supply Air Paths>
 #Supply Air Paths,18
! <Supply Air Path>,<Supply Air Path Count>,<Supply Air Path Name>,<AirLoopHVAC Name>
! <#Components on Supply Air Path>,<Number of Components>
! <Supply Air Path Component>,<Component Count>,<Component Type>,<Component Name>,<AirLoopHVAC Name>
! <#Outlet Nodes on Supply Air Path Component>,<Number of Nodes>
! <Supply Air Path Component Nodes>,<Node Count>,<Component Type>,<Component Name>,<Inlet Node Name>,<Outlet Node Name>,<AirLoopHVAC Name>
 Supply Air Path,1,SYS_1_MAKE-UP AIR UNIT NODE 42 SUPPLY PATH,SYS_1_MAKE-UP AIR UNIT
   #Components on Supply Air Path,1
   Supply Air Path Component,1,AIRLOOPHVAC:ZONESPLITTER,AIR LOOP HVAC ZONE SPLITTER 2,SYS_1_MAKE-UP AIR UNIT
     #Outlet Nodes on Supply Air Path Component,1
     Supply Air Path Component Nodes,1,AIRLOOPHVAC:ZONESPLITTER,AIR LOOP HVAC ZONE SPLITTER 2,NODE 42,NODE 45,SYS_1_MAKE-UP AIR UNIT
! <#Nodes on Supply Air Path>,<Number of Nodes>
! <Supply Air Path Node>,<Node Type>,<Node Count>,<Node Name>,<AirLoopHVAC Name>
#Nodes on Supply Air Path,2
   Supply Air Path Node,Inlet Node,1,NODE 42,SYS_1_MAKE-UP AIR UNIT
   Supply Air Path Node,Outlet Node,2,NODE 45,SYS_1_MAKE-UP AIR UNIT
 Supply Air Path,2,SYS_1_MAKE-UP AIR UNIT 1 NODE 65 SUPPLY PATH,SYS_1_MAKE-UP AIR UNIT 1
   #Components on Supply Air Path,1
   Supply Air Path Component,1,AIRLOOPHVAC:ZONESPLITTER,AIR LOOP HVAC ZONE SPLITTER 3,SYS_1_MAKE-UP AIR UNIT 1
     #Outlet Nodes on Supply Air Path Component,1
     Supply Air Path Component Nodes,1,AIRLOOPHVAC:ZONESPLITTER,AIR LOOP HVAC ZONE SPLITTER 3,NODE 65,NODE 67,SYS_1_MAKE-UP AIR UNIT 1
! <#Nodes on Supply Air Path>,<Number of Nodes>
! <Supply Air Path Node>,<Node Type>,<Node Count>,<Node Name>,<AirLoopHVAC Name>
#Nodes on Supply Air Path,2
   Supply Air Path Node,Inlet Node,1,NODE 65,SYS_1_MAKE-UP AIR UNIT 1
   Supply Air Path Node,Outlet Node,2,NODE 67,SYS_1_MAKE-UP AIR UNIT 1
 Supply Air Path,3,SYS_1_MAKE-UP AIR UNIT 2 NODE 82 SUPPLY PATH,SYS_1_MAKE-UP AIR UNIT 2
   #Components on Supply Air Path,1
   Supply Air Path Component,1,AIRLOOPHVAC:ZONESPLITTER,AIR LOOP HVAC ZONE SPLITTER 4,SYS_1_MAKE-UP AIR UNIT 2
     #Outlet Nodes on Supply Air Path Component,1
     Supply Air Path Component Nodes,1,AIRLOOPHVAC:ZONESPLITTER,AIR LOOP HVAC ZONE SPLITTER 4,NODE 82,NODE 84,SYS_1_MAKE-UP AIR UNIT 2
! <#Nodes on Supply Air Path>,<Number of Nodes>
! <Supply Air Path Node>,<Node Type>,<Node Count>,<Node Name>,<AirLoopHVAC Name>
#Nodes on Supply Air Path,2
   Supply Air Path Node,Inlet Node,1,NODE 82,SYS_1_MAKE-UP AIR UNIT 2
   Supply Air Path Node,Outlet Node,2,NODE 84,SYS_1_MAKE-UP AIR UNIT 2
 Supply Air Path,4,SYS_2_MAKE-UP AIR UNIT NODE 338 SUPPLY PATH,SYS_2_MAKE-UP AIR UNIT
   #Components on Supply Air Path,1
   Supply Air Path Component,1,AIRLOOPHVAC:ZONESPLITTER,AIR LOOP HVAC ZONE SPLITTER 17,SYS_2_MAKE-UP AIR UNIT
     #Outlet Nodes on Supply Air Path Component,1
     Supply Air Path Component Nodes,1,AIRLOOPHVAC:ZONESPLITTER,AIR LOOP HVAC ZONE SPLITTER 17,NODE 338,NODE 340,SYS_2_MAKE-UP AIR UNIT
! <#Nodes on Supply Air Path>,<Number of Nodes>
! <Supply Air Path Node>,<Node Type>,<Node Count>,<Node Name>,<AirLoopHVAC Name>
#Nodes on Supply Air Path,2
   Supply Air Path Node,Inlet Node,1,NODE 338,SYS_2_MAKE-UP AIR UNIT
   Supply Air Path Node,Outlet Node,2,NODE 340,SYS_2_MAKE-UP AIR UNIT
 Supply Air Path,5,SYS_2_MAKE-UP AIR UNIT 1 NODE 381 SUPPLY PATH,SYS_2_MAKE-UP AIR UNIT 1
   #Components on Supply Air Path,1
   Supply Air Path Component,1,AIRLOOPHVAC:ZONESPLITTER,AIR LOOP HVAC ZONE SPLITTER 18,SYS_2_MAKE-UP AIR UNIT 1
     #Outlet Nodes on Supply Air Path Component,1
     Supply Air Path Component Nodes,1,AIRLOOPHVAC:ZONESPLITTER,AIR LOOP HVAC ZONE SPLITTER 18,NODE 381,NODE 383,SYS_2_MAKE-UP AIR UNIT 1
! <#Nodes on Supply Air Path>,<Number of Nodes>
! <Supply Air Path Node>,<Node Type>,<Node Count>,<Node Name>,<AirLoopHVAC Name>
#Nodes on Supply Air Path,2
   Supply Air Path Node,Inlet Node,1,NODE 381,SYS_2_MAKE-UP AIR UNIT 1
   Supply Air Path Node,Outlet Node,2,NODE 383,SYS_2_MAKE-UP AIR UNIT 1
 Supply Air Path,6,SYS_3_PSZ ALL_ST=WHOLEBUILDING_FL=STORY 1_SCH=A NODE 203 SUPPLY PATH,SYS_3_PSZ ALL_ST=WHOLEBUILDING_FL=STORY 1_SCH=A
   #Components on Supply Air Path,1
   Supply Air Path Component,1,AIRLOOPHVAC:ZONESPLITTER,AIR LOOP HVAC ZONE SPLITTER 13,SYS_3_PSZ ALL_ST=WHOLEBUILDING_FL=STORY 1_SCH=A
     #Outlet Nodes on Supply Air Path Component,1
     Supply Air Path Component Nodes,1,AIRLOOPHVAC:ZONESPLITTER,AIR LOOP HVAC ZONE SPLITTER 13,NODE 203,NODE 205,SYS_3_PSZ ALL_ST=WHOLEBUILDING_FL=STORY 1_SCH=A
! <#Nodes on Supply Air Path>,<Number of Nodes>
! <Supply Air Path Node>,<Node Type>,<Node Count>,<Node Name>,<AirLoopHVAC Name>
#Nodes on Supply Air Path,2
   Supply Air Path Node,Inlet Node,1,NODE 203,SYS_3_PSZ ALL_ST=WHOLEBUILDING_FL=STORY 1_SCH=A
   Supply Air Path Node,Outlet Node,2,NODE 205,SYS_3_PSZ ALL_ST=WHOLEBUILDING_FL=STORY 1_SCH=A
 Supply Air Path,7,SYS_3_PSZ ALL_ST=WHOLEBUILDING_FL=STORY 1_SCH=B NODE 164 SUPPLY PATH,SYS_3_PSZ ALL_ST=WHOLEBUILDING_FL=STORY 1_SCH=B
   #Components on Supply Air Path,1
   Supply Air Path Component,1,AIRLOOPHVAC:ZONESPLITTER,AIR LOOP HVAC ZONE SPLITTER 10,SYS_3_PSZ ALL_ST=WHOLEBUILDING_FL=STORY 1_SCH=B
     #Outlet Nodes on Supply Air Path Component,1
     Supply Air Path Component Nodes,1,AIRLOOPHVAC:ZONESPLITTER,AIR LOOP HVAC ZONE SPLITTER 10,NODE 164,NODE 166,SYS_3_PSZ ALL_ST=WHOLEBUILDING_FL=STORY 1_SCH=B
! <#Nodes on Supply Air Path>,<Number of Nodes>
! <Supply Air Path Node>,<Node Type>,<Node Count>,<Node Name>,<AirLoopHVAC Name>
#Nodes on Supply Air Path,2
   Supply Air Path Node,Inlet Node,1,NODE 164,SYS_3_PSZ ALL_ST=WHOLEBUILDING_FL=STORY 1_SCH=B
   Supply Air Path Node,Outlet Node,2,NODE 166,SYS_3_PSZ ALL_ST=WHOLEBUILDING_FL=STORY 1_SCH=B
 Supply Air Path,8,SYS_3_PSZ ALL_ST=WHOLEBUILDING_FL=STORY 3_SCH=A NODE 138 SUPPLY PATH,SYS_3_PSZ ALL_ST=WHOLEBUILDING_FL=STORY 3_SCH=A
   #Components on Supply Air Path,1
   Supply Air Path Component,1,AIRLOOPHVAC:ZONESPLITTER,AIR LOOP HVAC ZONE SPLITTER 8,SYS_3_PSZ ALL_ST=WHOLEBUILDING_FL=STORY 3_SCH=A
     #Outlet Nodes on Supply Air Path Component,1
     Supply Air Path Component Nodes,1,AIRLOOPHVAC:ZONESPLITTER,AIR LOOP HVAC ZONE SPLITTER 8,NODE 138,NODE 140,SYS_3_PSZ ALL_ST=WHOLEBUILDING_FL=STORY 3_SCH=A
! <#Nodes on Supply Air Path>,<Number of Nodes>
! <Supply Air Path Node>,<Node Type>,<Node Count>,<Node Name>,<AirLoopHVAC Name>
#Nodes on Supply Air Path,2
   Supply Air Path Node,Inlet Node,1,NODE 138,SYS_3_PSZ ALL_ST=WHOLEBUILDING_FL=STORY 3_SCH=A
   Supply Air Path Node,Outlet Node,2,NODE 140,SYS_3_PSZ ALL_ST=WHOLEBUILDING_FL=STORY 3_SCH=A
 Supply Air Path,9,SYS_3_PSZ ALL_ST=WHOLEBUILDING_FL=STORY 3_SCH=B NODE 151 SUPPLY PATH,SYS_3_PSZ ALL_ST=WHOLEBUILDING_FL=STORY 3_SCH=B
   #Components on Supply Air Path,1
   Supply Air Path Component,1,AIRLOOPHVAC:ZONESPLITTER,AIR LOOP HVAC ZONE SPLITTER 9,SYS_3_PSZ ALL_ST=WHOLEBUILDING_FL=STORY 3_SCH=B
     #Outlet Nodes on Supply Air Path Component,1
     Supply Air Path Component Nodes,1,AIRLOOPHVAC:ZONESPLITTER,AIR LOOP HVAC ZONE SPLITTER 9,NODE 151,NODE 153,SYS_3_PSZ ALL_ST=WHOLEBUILDING_FL=STORY 3_SCH=B
! <#Nodes on Supply Air Path>,<Number of Nodes>
! <Supply Air Path Node>,<Node Type>,<Node Count>,<Node Name>,<AirLoopHVAC Name>
#Nodes on Supply Air Path,2
   Supply Air Path Node,Inlet Node,1,NODE 151,SYS_3_PSZ ALL_ST=WHOLEBUILDING_FL=STORY 3_SCH=B
   Supply Air Path Node,Outlet Node,2,NODE 153,SYS_3_PSZ ALL_ST=WHOLEBUILDING_FL=STORY 3_SCH=B
 Supply Air Path,10,SYS_3_PSZ ALL_ST=WHOLEBUILDING_FL=STORY 3_SCH=C NODE 125 SUPPLY PATH,SYS_3_PSZ ALL_ST=WHOLEBUILDING_FL=STORY 3_SCH=C
   #Components on Supply Air Path,1
   Supply Air Path Component,1,AIRLOOPHVAC:ZONESPLITTER,AIR LOOP HVAC ZONE SPLITTER 7,SYS_3_PSZ ALL_ST=WHOLEBUILDING_FL=STORY 3_SCH=C
     #Outlet Nodes on Supply Air Path Component,1
     Supply Air Path Component Nodes,1,AIRLOOPHVAC:ZONESPLITTER,AIR LOOP HVAC ZONE SPLITTER 7,NODE 125,NODE 127,SYS_3_PSZ ALL_ST=WHOLEBUILDING_FL=STORY 3_SCH=C
! <#Nodes on Supply Air Path>,<Number of Nodes>
! <Supply Air Path Node>,<Node Type>,<Node Count>,<Node Name>,<AirLoopHVAC Name>
#Nodes on Supply Air Path,2
   Supply Air Path Node,Inlet Node,1,NODE 125,SYS_3_PSZ ALL_ST=WHOLEBUILDING_FL=STORY 3_SCH=C
   Supply Air Path Node,Outlet Node,2,NODE 127,SYS_3_PSZ ALL_ST=WHOLEBUILDING_FL=STORY 3_SCH=C
 Supply Air Path,11,SYS_3_PSZ ALL_ST=WHOLEBUILDING_FL=STORY 3_SCH=C 1 NODE 216 SUPPLY PATH,SYS_3_PSZ ALL_ST=WHOLEBUILDING_FL=STORY 3_SCH=C 1
   #Components on Supply Air Path,1
   Supply Air Path Component,1,AIRLOOPHVAC:ZONESPLITTER,AIR LOOP HVAC ZONE SPLITTER 14,SYS_3_PSZ ALL_ST=WHOLEBUILDING_FL=STORY 3_SCH=C 1
     #Outlet Nodes on Supply Air Path Component,1
     Supply Air Path Component Nodes,1,AIRLOOPHVAC:ZONESPLITTER,AIR LOOP HVAC ZONE SPLITTER 14,NODE 216,NODE 218,SYS_3_PSZ ALL_ST=WHOLEBUILDING_FL=STORY 3_SCH=C 1
! <#Nodes on Supply Air Path>,<Number of Nodes>
! <Supply Air Path Node>,<Node Type>,<Node Count>,<Node Name>,<AirLoopHVAC Name>
#Nodes on Supply Air Path,2
   Supply Air Path Node,Inlet Node,1,NODE 216,SYS_3_PSZ ALL_ST=WHOLEBUILDING_FL=STORY 3_SCH=C 1
   Supply Air Path Node,Outlet Node,2,NODE 218,SYS_3_PSZ ALL_ST=WHOLEBUILDING_FL=STORY 3_SCH=C 1
 Supply Air Path,12,SYS_3_PSZ ALL_ST=WHOLEBUILDING_FL=STORY 4_SCH=B NODE 177 SUPPLY PATH,SYS_3_PSZ ALL_ST=WHOLEBUILDING_FL=STORY 4_SCH=B
   #Components on Supply Air Path,1
   Supply Air Path Component,1,AIRLOOPHVAC:ZONESPLITTER,AIR LOOP HVAC ZONE SPLITTER 11,SYS_3_PSZ ALL_ST=WHOLEBUILDING_FL=STORY 4_SCH=B
     #Outlet Nodes on Supply Air Path Component,1
     Supply Air Path Component Nodes,1,AIRLOOPHVAC:ZONESPLITTER,AIR LOOP HVAC ZONE SPLITTER 11,NODE 177,NODE 179,SYS_3_PSZ ALL_ST=WHOLEBUILDING_FL=STORY 4_SCH=B
! <#Nodes on Supply Air Path>,<Number of Nodes>
! <Supply Air Path Node>,<Node Type>,<Node Count>,<Node Name>,<AirLoopHVAC Name>
#Nodes on Supply Air Path,2
   Supply Air Path Node,Inlet Node,1,NODE 177,SYS_3_PSZ ALL_ST=WHOLEBUILDING_FL=STORY 4_SCH=B
   Supply Air Path Node,Outlet Node,2,NODE 179,SYS_3_PSZ ALL_ST=WHOLEBUILDING_FL=STORY 4_SCH=B
 Supply Air Path,13,SYS_3_PSZ ALL_ST=WHOLEBUILDING_FL=STORY 4_SCH=H NODE 190 SUPPLY PATH,SYS_3_PSZ ALL_ST=WHOLEBUILDING_FL=STORY 4_SCH=H
   #Components on Supply Air Path,1
   Supply Air Path Component,1,AIRLOOPHVAC:ZONESPLITTER,AIR LOOP HVAC ZONE SPLITTER 12,SYS_3_PSZ ALL_ST=WHOLEBUILDING_FL=STORY 4_SCH=H
     #Outlet Nodes on Supply Air Path Component,1
     Supply Air Path Component Nodes,1,AIRLOOPHVAC:ZONESPLITTER,AIR LOOP HVAC ZONE SPLITTER 12,NODE 190,NODE 192,SYS_3_PSZ ALL_ST=WHOLEBUILDING_FL=STORY 4_SCH=H
! <#Nodes on Supply Air Path>,<Number of Nodes>
! <Supply Air Path Node>,<Node Type>,<Node Count>,<Node Name>,<AirLoopHVAC Name>
#Nodes on Supply Air Path,2
   Supply Air Path Node,Inlet Node,1,NODE 190,SYS_3_PSZ ALL_ST=WHOLEBUILDING_FL=STORY 4_SCH=H
   Supply Air Path Node,Outlet Node,2,NODE 192,SYS_3_PSZ ALL_ST=WHOLEBUILDING_FL=STORY 4_SCH=H
 Supply Air Path,14,SYS_3_PSZ DU_BT=DORMITORY_ST=WHOLEBUILDING_FL=STORY 3_SCHG NODE 24 SUPPLY PATH,SYS_3_PSZ DU_BT=DORMITORY_ST=WHOLEBUILDING_FL=STORY 3_SCHG
   #Components on Supply Air Path,1
   Supply Air Path Component,1,AIRLOOPHVAC:ZONESPLITTER,AIR LOOP HVAC ZONE SPLITTER 1,SYS_3_PSZ DU_BT=DORMITORY_ST=WHOLEBUILDING_FL=STORY 3_SCHG
     #Outlet Nodes on Supply Air Path Component,1
     Supply Air Path Component Nodes,1,AIRLOOPHVAC:ZONESPLITTER,AIR LOOP HVAC ZONE SPLITTER 1,NODE 24,NODE 27,SYS_3_PSZ DU_BT=DORMITORY_ST=WHOLEBUILDING_FL=STORY 3_SCHG
! <#Nodes on Supply Air Path>,<Number of Nodes>
! <Supply Air Path Node>,<Node Type>,<Node Count>,<Node Name>,<AirLoopHVAC Name>
#Nodes on Supply Air Path,2
   Supply Air Path Node,Inlet Node,1,NODE 24,SYS_3_PSZ DU_BT=DORMITORY_ST=WHOLEBUILDING_FL=STORY 3_SCHG
   Supply Air Path Node,Outlet Node,2,NODE 27,SYS_3_PSZ DU_BT=DORMITORY_ST=WHOLEBUILDING_FL=STORY 3_SCHG
 Supply Air Path,15,SYS_4_PSZ_ALL_ST=WHOLEBUILDING_FL=STORY 1_SCH=F NODE 112 SUPPLY PATH,SYS_4_PSZ_ALL_ST=WHOLEBUILDING_FL=STORY 1_SCH=F
   #Components on Supply Air Path,1
   Supply Air Path Component,1,AIRLOOPHVAC:ZONESPLITTER,AIR LOOP HVAC ZONE SPLITTER 6,SYS_4_PSZ_ALL_ST=WHOLEBUILDING_FL=STORY 1_SCH=F
     #Outlet Nodes on Supply Air Path Component,1
     Supply Air Path Component Nodes,1,AIRLOOPHVAC:ZONESPLITTER,AIR LOOP HVAC ZONE SPLITTER 6,NODE 112,NODE 114,SYS_4_PSZ_ALL_ST=WHOLEBUILDING_FL=STORY 1_SCH=F
! <#Nodes on Supply Air Path>,<Number of Nodes>
! <Supply Air Path Node>,<Node Type>,<Node Count>,<Node Name>,<AirLoopHVAC Name>
#Nodes on Supply Air Path,2
   Supply Air Path Node,Inlet Node,1,NODE 112,SYS_4_PSZ_ALL_ST=WHOLEBUILDING_FL=STORY 1_SCH=F
   Supply Air Path Node,Outlet Node,2,NODE 114,SYS_4_PSZ_ALL_ST=WHOLEBUILDING_FL=STORY 1_SCH=F
 Supply Air Path,16,SYS_4_PSZ_ALL_ST=WHOLEBUILDING_FL=STORY 4_SCH=E NODE 99 SUPPLY PATH,SYS_4_PSZ_ALL_ST=WHOLEBUILDING_FL=STORY 4_SCH=E
   #Components on Supply Air Path,1
   Supply Air Path Component,1,AIRLOOPHVAC:ZONESPLITTER,AIR LOOP HVAC ZONE SPLITTER 5,SYS_4_PSZ_ALL_ST=WHOLEBUILDING_FL=STORY 4_SCH=E
     #Outlet Nodes on Supply Air Path Component,1
     Supply Air Path Component Nodes,1,AIRLOOPHVAC:ZONESPLITTER,AIR LOOP HVAC ZONE SPLITTER 5,NODE 99,NODE 101,SYS_4_PSZ_ALL_ST=WHOLEBUILDING_FL=STORY 4_SCH=E
! <#Nodes on Supply Air Path>,<Number of Nodes>
! <Supply Air Path Node>,<Node Type>,<Node Count>,<Node Name>,<AirLoopHVAC Name>
#Nodes on Supply Air Path,2
   Supply Air Path Node,Inlet Node,1,NODE 99,SYS_4_PSZ_ALL_ST=WHOLEBUILDING_FL=STORY 4_SCH=E
   Supply Air Path Node,Outlet Node,2,NODE 101,SYS_4_PSZ_ALL_ST=WHOLEBUILDING_FL=STORY 4_SCH=E
 Supply Air Path,17,SYS_6_VAV WITH REHEAT NODE 256 SUPPLY PATH,SYS_6_VAV WITH REHEAT
   #Components on Supply Air Path,1
   Supply Air Path Component,1,AIRLOOPHVAC:ZONESPLITTER,AIR LOOP HVAC ZONE SPLITTER 15,SYS_6_VAV WITH REHEAT
     #Outlet Nodes on Supply Air Path Component,3
     Supply Air Path Component Nodes,1,AIRLOOPHVAC:ZONESPLITTER,AIR LOOP HVAC ZONE SPLITTER 15,NODE 256,NODE 271,SYS_6_VAV WITH REHEAT
     Supply Air Path Component Nodes,2,AIRLOOPHVAC:ZONESPLITTER,AIR LOOP HVAC ZONE SPLITTER 15,NODE 256,NODE 278,SYS_6_VAV WITH REHEAT
     Supply Air Path Component Nodes,3,AIRLOOPHVAC:ZONESPLITTER,AIR LOOP HVAC ZONE SPLITTER 15,NODE 256,NODE 285,SYS_6_VAV WITH REHEAT
! <#Nodes on Supply Air Path>,<Number of Nodes>
! <Supply Air Path Node>,<Node Type>,<Node Count>,<Node Name>,<AirLoopHVAC Name>
#Nodes on Supply Air Path,4
   Supply Air Path Node,Inlet Node,1,NODE 256,SYS_6_VAV WITH REHEAT
   Supply Air Path Node,Outlet Node,2,NODE 271,SYS_6_VAV WITH REHEAT
   Supply Air Path Node,Outlet Node,3,NODE 278,SYS_6_VAV WITH REHEAT
   Supply Air Path Node,Outlet Node,4,NODE 285,SYS_6_VAV WITH REHEAT
 Supply Air Path,18,SYS_6_VAV WITH REHEAT 1 NODE 290 SUPPLY PATH,SYS_6_VAV WITH REHEAT 1
   #Components on Supply Air Path,1
   Supply Air Path Component,1,AIRLOOPHVAC:ZONESPLITTER,AIR LOOP HVAC ZONE SPLITTER 16,SYS_6_VAV WITH REHEAT 1
     #Outlet Nodes on Supply Air Path Component,1
     Supply Air Path Component Nodes,1,AIRLOOPHVAC:ZONESPLITTER,AIR LOOP HVAC ZONE SPLITTER 16,NODE 290,NODE 306,SYS_6_VAV WITH REHEAT 1
! <#Nodes on Supply Air Path>,<Number of Nodes>
! <Supply Air Path Node>,<Node Type>,<Node Count>,<Node Name>,<AirLoopHVAC Name>
#Nodes on Supply Air Path,2
   Supply Air Path Node,Inlet Node,1,NODE 290,SYS_6_VAV WITH REHEAT 1
   Supply Air Path Node,Outlet Node,2,NODE 306,SYS_6_VAV WITH REHEAT 1
! ===============================================================
! <#Return Air Paths>,<Number of Return Air Paths>
 #Return Air Paths,18
! <Return Air Path>,<Return Air Path Count>,<Return Air Path Name>,<AirLoopHVAC Name>
! <#Components on Return Air Path>,<Number of Components>
! <Return Air Path Component>,<Component Count>,<Component Type>,<Component Name>,<AirLoopHVAC Name>
! <#Inlet Nodes on Return Air Path Component>,<Number of Nodes>
! <Return Air Path Component Nodes>,<Node Count>,<Component Type>,<Component Name>,<Inlet Node Name>,<Outlet Node Name>,<AirLoopHVAC Name>
 Return Air Path,1,SYS_1_MAKE-UP AIR UNIT RETURN PATH,SYS_1_MAKE-UP AIR UNIT
   #Components on Return Air Path,1
   Return Air Path Component,1,AIRLOOPHVAC:ZONEMIXER,AIR LOOP HVAC ZONE MIXER 2,SYS_1_MAKE-UP AIR UNIT
     #Inlet Nodes on Return Air Path Component,1
     Return Air Path Component Nodes,1,AIRLOOPHVAC:ZONEMIXER,AIR LOOP HVAC ZONE MIXER 2,NODE 62,NODE 44,SYS_1_MAKE-UP AIR UNIT
! <#Nodes on Return Air Path>,<Number of Nodes>
! <Return Air Path Node>,<Node Type>,<Node Count>,<Node Name>,<AirLoopHVAC Name>
   #Nodes on Return Air Path,2
   Return Air Path Node,Outlet Node,1,NODE 44,SYS_1_MAKE-UP AIR UNIT
   Return Air Path Node,Inlet Node,2,NODE 62,SYS_1_MAKE-UP AIR UNIT
 Return Air Path,2,SYS_1_MAKE-UP AIR UNIT 1 RETURN PATH,SYS_1_MAKE-UP AIR UNIT 1
   #Components on Return Air Path,1
   Return Air Path Component,1,AIRLOOPHVAC:ZONEMIXER,AIR LOOP HVAC ZONE MIXER 3,SYS_1_MAKE-UP AIR UNIT 1
     #Inlet Nodes on Return Air Path Component,1
     Return Air Path Component Nodes,1,AIRLOOPHVAC:ZONEMIXER,AIR LOOP HVAC ZONE MIXER 3,NODE 79,NODE 66,SYS_1_MAKE-UP AIR UNIT 1
! <#Nodes on Return Air Path>,<Number of Nodes>
! <Return Air Path Node>,<Node Type>,<Node Count>,<Node Name>,<AirLoopHVAC Name>
   #Nodes on Return Air Path,2
   Return Air Path Node,Outlet Node,1,NODE 66,SYS_1_MAKE-UP AIR UNIT 1
   Return Air Path Node,Inlet Node,2,NODE 79,SYS_1_MAKE-UP AIR UNIT 1
 Return Air Path,3,SYS_1_MAKE-UP AIR UNIT 2 RETURN PATH,SYS_1_MAKE-UP AIR UNIT 2
   #Components on Return Air Path,1
   Return Air Path Component,1,AIRLOOPHVAC:ZONEMIXER,AIR LOOP HVAC ZONE MIXER 4,SYS_1_MAKE-UP AIR UNIT 2
     #Inlet Nodes on Return Air Path Component,1
     Return Air Path Component Nodes,1,AIRLOOPHVAC:ZONEMIXER,AIR LOOP HVAC ZONE MIXER 4,NODE 96,NODE 83,SYS_1_MAKE-UP AIR UNIT 2
! <#Nodes on Return Air Path>,<Number of Nodes>
! <Return Air Path Node>,<Node Type>,<Node Count>,<Node Name>,<AirLoopHVAC Name>
   #Nodes on Return Air Path,2
   Return Air Path Node,Outlet Node,1,NODE 83,SYS_1_MAKE-UP AIR UNIT 2
   Return Air Path Node,Inlet Node,2,NODE 96,SYS_1_MAKE-UP AIR UNIT 2
 Return Air Path,4,SYS_2_MAKE-UP AIR UNIT RETURN PATH,SYS_2_MAKE-UP AIR UNIT
   #Components on Return Air Path,1
   Return Air Path Component,1,AIRLOOPHVAC:ZONEMIXER,AIR LOOP HVAC ZONE MIXER 17,SYS_2_MAKE-UP AIR UNIT
     #Inlet Nodes on Return Air Path Component,1
     Return Air Path Component Nodes,1,AIRLOOPHVAC:ZONEMIXER,AIR LOOP HVAC ZONE MIXER 17,NODE 351,NODE 339,SYS_2_MAKE-UP AIR UNIT
! <#Nodes on Return Air Path>,<Number of Nodes>
! <Return Air Path Node>,<Node Type>,<Node Count>,<Node Name>,<AirLoopHVAC Name>
   #Nodes on Return Air Path,2
   Return Air Path Node,Outlet Node,1,NODE 339,SYS_2_MAKE-UP AIR UNIT
   Return Air Path Node,Inlet Node,2,NODE 351,SYS_2_MAKE-UP AIR UNIT
 Return Air Path,5,SYS_2_MAKE-UP AIR UNIT 1 RETURN PATH,SYS_2_MAKE-UP AIR UNIT 1
   #Components on Return Air Path,1
   Return Air Path Component,1,AIRLOOPHVAC:ZONEMIXER,AIR LOOP HVAC ZONE MIXER 18,SYS_2_MAKE-UP AIR UNIT 1
     #Inlet Nodes on Return Air Path Component,1
     Return Air Path Component Nodes,1,AIRLOOPHVAC:ZONEMIXER,AIR LOOP HVAC ZONE MIXER 18,NODE 394,NODE 382,SYS_2_MAKE-UP AIR UNIT 1
! <#Nodes on Return Air Path>,<Number of Nodes>
! <Return Air Path Node>,<Node Type>,<Node Count>,<Node Name>,<AirLoopHVAC Name>
   #Nodes on Return Air Path,2
   Return Air Path Node,Outlet Node,1,NODE 382,SYS_2_MAKE-UP AIR UNIT 1
   Return Air Path Node,Inlet Node,2,NODE 394,SYS_2_MAKE-UP AIR UNIT 1
 Return Air Path,6,SYS_3_PSZ ALL_ST=WHOLEBUILDING_FL=STORY 1_SCH=A RETURN PATH,SYS_3_PSZ ALL_ST=WHOLEBUILDING_FL=STORY 1_SCH=A
   #Components on Return Air Path,1
   Return Air Path Component,1,AIRLOOPHVAC:ZONEMIXER,AIR LOOP HVAC ZONE MIXER 13,SYS_3_PSZ ALL_ST=WHOLEBUILDING_FL=STORY 1_SCH=A
     #Inlet Nodes on Return Air Path Component,1
     Return Air Path Component Nodes,1,AIRLOOPHVAC:ZONEMIXER,AIR LOOP HVAC ZONE MIXER 13,NODE 211,NODE 204,SYS_3_PSZ ALL_ST=WHOLEBUILDING_FL=STORY 1_SCH=A
! <#Nodes on Return Air Path>,<Number of Nodes>
! <Return Air Path Node>,<Node Type>,<Node Count>,<Node Name>,<AirLoopHVAC Name>
   #Nodes on Return Air Path,2
   Return Air Path Node,Outlet Node,1,NODE 204,SYS_3_PSZ ALL_ST=WHOLEBUILDING_FL=STORY 1_SCH=A
   Return Air Path Node,Inlet Node,2,NODE 211,SYS_3_PSZ ALL_ST=WHOLEBUILDING_FL=STORY 1_SCH=A
 Return Air Path,7,SYS_3_PSZ ALL_ST=WHOLEBUILDING_FL=STORY 1_SCH=B RETURN PATH,SYS_3_PSZ ALL_ST=WHOLEBUILDING_FL=STORY 1_SCH=B
   #Components on Return Air Path,1
   Return Air Path Component,1,AIRLOOPHVAC:ZONEMIXER,AIR LOOP HVAC ZONE MIXER 10,SYS_3_PSZ ALL_ST=WHOLEBUILDING_FL=STORY 1_SCH=B
     #Inlet Nodes on Return Air Path Component,1
     Return Air Path Component Nodes,1,AIRLOOPHVAC:ZONEMIXER,AIR LOOP HVAC ZONE MIXER 10,NODE 172,NODE 165,SYS_3_PSZ ALL_ST=WHOLEBUILDING_FL=STORY 1_SCH=B
! <#Nodes on Return Air Path>,<Number of Nodes>
! <Return Air Path Node>,<Node Type>,<Node Count>,<Node Name>,<AirLoopHVAC Name>
   #Nodes on Return Air Path,2
   Return Air Path Node,Outlet Node,1,NODE 165,SYS_3_PSZ ALL_ST=WHOLEBUILDING_FL=STORY 1_SCH=B
   Return Air Path Node,Inlet Node,2,NODE 172,SYS_3_PSZ ALL_ST=WHOLEBUILDING_FL=STORY 1_SCH=B
 Return Air Path,8,SYS_3_PSZ ALL_ST=WHOLEBUILDING_FL=STORY 3_SCH=A RETURN PATH,SYS_3_PSZ ALL_ST=WHOLEBUILDING_FL=STORY 3_SCH=A
   #Components on Return Air Path,1
   Return Air Path Component,1,AIRLOOPHVAC:ZONEMIXER,AIR LOOP HVAC ZONE MIXER 8,SYS_3_PSZ ALL_ST=WHOLEBUILDING_FL=STORY 3_SCH=A
     #Inlet Nodes on Return Air Path Component,1
     Return Air Path Component Nodes,1,AIRLOOPHVAC:ZONEMIXER,AIR LOOP HVAC ZONE MIXER 8,NODE 146,NODE 139,SYS_3_PSZ ALL_ST=WHOLEBUILDING_FL=STORY 3_SCH=A
! <#Nodes on Return Air Path>,<Number of Nodes>
! <Return Air Path Node>,<Node Type>,<Node Count>,<Node Name>,<AirLoopHVAC Name>
   #Nodes on Return Air Path,2
   Return Air Path Node,Outlet Node,1,NODE 139,SYS_3_PSZ ALL_ST=WHOLEBUILDING_FL=STORY 3_SCH=A
   Return Air Path Node,Inlet Node,2,NODE 146,SYS_3_PSZ ALL_ST=WHOLEBUILDING_FL=STORY 3_SCH=A
 Return Air Path,9,SYS_3_PSZ ALL_ST=WHOLEBUILDING_FL=STORY 3_SCH=B RETURN PATH,SYS_3_PSZ ALL_ST=WHOLEBUILDING_FL=STORY 3_SCH=B
   #Components on Return Air Path,1
   Return Air Path Component,1,AIRLOOPHVAC:ZONEMIXER,AIR LOOP HVAC ZONE MIXER 9,SYS_3_PSZ ALL_ST=WHOLEBUILDING_FL=STORY 3_SCH=B
     #Inlet Nodes on Return Air Path Component,1
     Return Air Path Component Nodes,1,AIRLOOPHVAC:ZONEMIXER,AIR LOOP HVAC ZONE MIXER 9,NODE 159,NODE 152,SYS_3_PSZ ALL_ST=WHOLEBUILDING_FL=STORY 3_SCH=B
! <#Nodes on Return Air Path>,<Number of Nodes>
! <Return Air Path Node>,<Node Type>,<Node Count>,<Node Name>,<AirLoopHVAC Name>
   #Nodes on Return Air Path,2
   Return Air Path Node,Outlet Node,1,NODE 152,SYS_3_PSZ ALL_ST=WHOLEBUILDING_FL=STORY 3_SCH=B
   Return Air Path Node,Inlet Node,2,NODE 159,SYS_3_PSZ ALL_ST=WHOLEBUILDING_FL=STORY 3_SCH=B
 Return Air Path,10,SYS_3_PSZ ALL_ST=WHOLEBUILDING_FL=STORY 3_SCH=C RETURN PATH,SYS_3_PSZ ALL_ST=WHOLEBUILDING_FL=STORY 3_SCH=C
   #Components on Return Air Path,1
   Return Air Path Component,1,AIRLOOPHVAC:ZONEMIXER,AIR LOOP HVAC ZONE MIXER 7,SYS_3_PSZ ALL_ST=WHOLEBUILDING_FL=STORY 3_SCH=C
     #Inlet Nodes on Return Air Path Component,1
     Return Air Path Component Nodes,1,AIRLOOPHVAC:ZONEMIXER,AIR LOOP HVAC ZONE MIXER 7,NODE 133,NODE 126,SYS_3_PSZ ALL_ST=WHOLEBUILDING_FL=STORY 3_SCH=C
! <#Nodes on Return Air Path>,<Number of Nodes>
! <Return Air Path Node>,<Node Type>,<Node Count>,<Node Name>,<AirLoopHVAC Name>
   #Nodes on Return Air Path,2
   Return Air Path Node,Outlet Node,1,NODE 126,SYS_3_PSZ ALL_ST=WHOLEBUILDING_FL=STORY 3_SCH=C
   Return Air Path Node,Inlet Node,2,NODE 133,SYS_3_PSZ ALL_ST=WHOLEBUILDING_FL=STORY 3_SCH=C
 Return Air Path,11,SYS_3_PSZ ALL_ST=WHOLEBUILDING_FL=STORY 3_SCH=C 1 RETURN PATH,SYS_3_PSZ ALL_ST=WHOLEBUILDING_FL=STORY 3_SCH=C 1
   #Components on Return Air Path,1
   Return Air Path Component,1,AIRLOOPHVAC:ZONEMIXER,AIR LOOP HVAC ZONE MIXER 14,SYS_3_PSZ ALL_ST=WHOLEBUILDING_FL=STORY 3_SCH=C 1
     #Inlet Nodes on Return Air Path Component,1
     Return Air Path Component Nodes,1,AIRLOOPHVAC:ZONEMIXER,AIR LOOP HVAC ZONE MIXER 14,NODE 224,NODE 217,SYS_3_PSZ ALL_ST=WHOLEBUILDING_FL=STORY 3_SCH=C 1
! <#Nodes on Return Air Path>,<Number of Nodes>
! <Return Air Path Node>,<Node Type>,<Node Count>,<Node Name>,<AirLoopHVAC Name>
   #Nodes on Return Air Path,2
   Return Air Path Node,Outlet Node,1,NODE 217,SYS_3_PSZ ALL_ST=WHOLEBUILDING_FL=STORY 3_SCH=C 1
   Return Air Path Node,Inlet Node,2,NODE 224,SYS_3_PSZ ALL_ST=WHOLEBUILDING_FL=STORY 3_SCH=C 1
 Return Air Path,12,SYS_3_PSZ ALL_ST=WHOLEBUILDING_FL=STORY 4_SCH=B RETURN PATH,SYS_3_PSZ ALL_ST=WHOLEBUILDING_FL=STORY 4_SCH=B
   #Components on Return Air Path,1
   Return Air Path Component,1,AIRLOOPHVAC:ZONEMIXER,AIR LOOP HVAC ZONE MIXER 11,SYS_3_PSZ ALL_ST=WHOLEBUILDING_FL=STORY 4_SCH=B
     #Inlet Nodes on Return Air Path Component,1
     Return Air Path Component Nodes,1,AIRLOOPHVAC:ZONEMIXER,AIR LOOP HVAC ZONE MIXER 11,NODE 185,NODE 178,SYS_3_PSZ ALL_ST=WHOLEBUILDING_FL=STORY 4_SCH=B
! <#Nodes on Return Air Path>,<Number of Nodes>
! <Return Air Path Node>,<Node Type>,<Node Count>,<Node Name>,<AirLoopHVAC Name>
   #Nodes on Return Air Path,2
   Return Air Path Node,Outlet Node,1,NODE 178,SYS_3_PSZ ALL_ST=WHOLEBUILDING_FL=STORY 4_SCH=B
   Return Air Path Node,Inlet Node,2,NODE 185,SYS_3_PSZ ALL_ST=WHOLEBUILDING_FL=STORY 4_SCH=B
 Return Air Path,13,SYS_3_PSZ ALL_ST=WHOLEBUILDING_FL=STORY 4_SCH=H RETURN PATH,SYS_3_PSZ ALL_ST=WHOLEBUILDING_FL=STORY 4_SCH=H
   #Components on Return Air Path,1
   Return Air Path Component,1,AIRLOOPHVAC:ZONEMIXER,AIR LOOP HVAC ZONE MIXER 12,SYS_3_PSZ ALL_ST=WHOLEBUILDING_FL=STORY 4_SCH=H
     #Inlet Nodes on Return Air Path Component,1
     Return Air Path Component Nodes,1,AIRLOOPHVAC:ZONEMIXER,AIR LOOP HVAC ZONE MIXER 12,NODE 198,NODE 191,SYS_3_PSZ ALL_ST=WHOLEBUILDING_FL=STORY 4_SCH=H
! <#Nodes on Return Air Path>,<Number of Nodes>
! <Return Air Path Node>,<Node Type>,<Node Count>,<Node Name>,<AirLoopHVAC Name>
   #Nodes on Return Air Path,2
   Return Air Path Node,Outlet Node,1,NODE 191,SYS_3_PSZ ALL_ST=WHOLEBUILDING_FL=STORY 4_SCH=H
   Return Air Path Node,Inlet Node,2,NODE 198,SYS_3_PSZ ALL_ST=WHOLEBUILDING_FL=STORY 4_SCH=H
 Return Air Path,14,SYS_3_PSZ DU_BT=DORMITORY_ST=WHOLEBUILDING_FL=STORY 3_SCHG RETURN PATH,SYS_3_PSZ DU_BT=DORMITORY_ST=WHOLEBUILDING_FL=STORY 3_SCHG
   #Components on Return Air Path,1
   Return Air Path Component,1,AIRLOOPHVAC:ZONEMIXER,AIR LOOP HVAC ZONE MIXER 1,SYS_3_PSZ DU_BT=DORMITORY_ST=WHOLEBUILDING_FL=STORY 3_SCHG
     #Inlet Nodes on Return Air Path Component,1
     Return Air Path Component Nodes,1,AIRLOOPHVAC:ZONEMIXER,AIR LOOP HVAC ZONE MIXER 1,NODE 36,NODE 26,SYS_3_PSZ DU_BT=DORMITORY_ST=WHOLEBUILDING_FL=STORY 3_SCHG
! <#Nodes on Return Air Path>,<Number of Nodes>
! <Return Air Path Node>,<Node Type>,<Node Count>,<Node Name>,<AirLoopHVAC Name>
   #Nodes on Return Air Path,2
   Return Air Path Node,Outlet Node,1,NODE 26,SYS_3_PSZ DU_BT=DORMITORY_ST=WHOLEBUILDING_FL=STORY 3_SCHG
   Return Air Path Node,Inlet Node,2,NODE 36,SYS_3_PSZ DU_BT=DORMITORY_ST=WHOLEBUILDING_FL=STORY 3_SCHG
 Return Air Path,15,SYS_4_PSZ_ALL_ST=WHOLEBUILDING_FL=STORY 1_SCH=F RETURN PATH,SYS_4_PSZ_ALL_ST=WHOLEBUILDING_FL=STORY 1_SCH=F
   #Components on Return Air Path,1
   Return Air Path Component,1,AIRLOOPHVAC:ZONEMIXER,AIR LOOP HVAC ZONE MIXER 6,SYS_4_PSZ_ALL_ST=WHOLEBUILDING_FL=STORY 1_SCH=F
     #Inlet Nodes on Return Air Path Component,1
     Return Air Path Component Nodes,1,AIRLOOPHVAC:ZONEMIXER,AIR LOOP HVAC ZONE MIXER 6,NODE 120,NODE 113,SYS_4_PSZ_ALL_ST=WHOLEBUILDING_FL=STORY 1_SCH=F
! <#Nodes on Return Air Path>,<Number of Nodes>
! <Return Air Path Node>,<Node Type>,<Node Count>,<Node Name>,<AirLoopHVAC Name>
   #Nodes on Return Air Path,2
   Return Air Path Node,Outlet Node,1,NODE 113,SYS_4_PSZ_ALL_ST=WHOLEBUILDING_FL=STORY 1_SCH=F
   Return Air Path Node,Inlet Node,2,NODE 120,SYS_4_PSZ_ALL_ST=WHOLEBUILDING_FL=STORY 1_SCH=F
 Return Air Path,16,SYS_4_PSZ_ALL_ST=WHOLEBUILDING_FL=STORY 4_SCH=E RETURN PATH,SYS_4_PSZ_ALL_ST=WHOLEBUILDING_FL=STORY 4_SCH=E
   #Components on Return Air Path,1
   Return Air Path Component,1,AIRLOOPHVAC:ZONEMIXER,AIR LOOP HVAC ZONE MIXER 5,SYS_4_PSZ_ALL_ST=WHOLEBUILDING_FL=STORY 4_SCH=E
     #Inlet Nodes on Return Air Path Component,1
     Return Air Path Component Nodes,1,AIRLOOPHVAC:ZONEMIXER,AIR LOOP HVAC ZONE MIXER 5,NODE 107,NODE 100,SYS_4_PSZ_ALL_ST=WHOLEBUILDING_FL=STORY 4_SCH=E
! <#Nodes on Return Air Path>,<Number of Nodes>
! <Return Air Path Node>,<Node Type>,<Node Count>,<Node Name>,<AirLoopHVAC Name>
   #Nodes on Return Air Path,2
   Return Air Path Node,Outlet Node,1,NODE 100,SYS_4_PSZ_ALL_ST=WHOLEBUILDING_FL=STORY 4_SCH=E
   Return Air Path Node,Inlet Node,2,NODE 107,SYS_4_PSZ_ALL_ST=WHOLEBUILDING_FL=STORY 4_SCH=E
 Return Air Path,17,SYS_6_VAV WITH REHEAT RETURN PATH,SYS_6_VAV WITH REHEAT
   #Components on Return Air Path,1
   Return Air Path Component,1,AIRLOOPHVAC:ZONEMIXER,AIR LOOP HVAC ZONE MIXER 15,SYS_6_VAV WITH REHEAT
     #Inlet Nodes on Return Air Path Component,3
     Return Air Path Component Nodes,1,AIRLOOPHVAC:ZONEMIXER,AIR LOOP HVAC ZONE MIXER 15,NODE 270,NODE 257,SYS_6_VAV WITH REHEAT
     Return Air Path Component Nodes,2,AIRLOOPHVAC:ZONEMIXER,AIR LOOP HVAC ZONE MIXER 15,NODE 277,NODE 257,SYS_6_VAV WITH REHEAT
     Return Air Path Component Nodes,3,AIRLOOPHVAC:ZONEMIXER,AIR LOOP HVAC ZONE MIXER 15,NODE 284,NODE 257,SYS_6_VAV WITH REHEAT
! <#Nodes on Return Air Path>,<Number of Nodes>
! <Return Air Path Node>,<Node Type>,<Node Count>,<Node Name>,<AirLoopHVAC Name>
   #Nodes on Return Air Path,4
   Return Air Path Node,Outlet Node,1,NODE 257,SYS_6_VAV WITH REHEAT
   Return Air Path Node,Inlet Node,2,NODE 270,SYS_6_VAV WITH REHEAT
   Return Air Path Node,Inlet Node,3,NODE 277,SYS_6_VAV WITH REHEAT
   Return Air Path Node,Inlet Node,4,NODE 284,SYS_6_VAV WITH REHEAT
 Return Air Path,18,SYS_6_VAV WITH REHEAT 1 RETURN PATH,SYS_6_VAV WITH REHEAT 1
   #Components on Return Air Path,1
   Return Air Path Component,1,AIRLOOPHVAC:ZONEMIXER,AIR LOOP HVAC ZONE MIXER 16,SYS_6_VAV WITH REHEAT 1
     #Inlet Nodes on Return Air Path Component,1
     Return Air Path Component Nodes,1,AIRLOOPHVAC:ZONEMIXER,AIR LOOP HVAC ZONE MIXER 16,NODE 305,NODE 291,SYS_6_VAV WITH REHEAT 1
! <#Nodes on Return Air Path>,<Number of Nodes>
! <Return Air Path Node>,<Node Type>,<Node Count>,<Node Name>,<AirLoopHVAC Name>
   #Nodes on Return Air Path,2
   Return Air Path Node,Outlet Node,1,NODE 291,SYS_6_VAV WITH REHEAT 1
   Return Air Path Node,Inlet Node,2,NODE 305,SYS_6_VAV WITH REHEAT 1
! ===============================================================
! #Outdoor Air Nodes,<Number of Outdoor Air Nodes>
 #Outdoor Air Nodes,24
! <Outdoor Air Node>,<NodeNumber>,<Node Name>
 Outdoor Air Node,439,ZONE HVAC FOUR PIPE FAN COIL 1 OA NODE
 Outdoor Air Node,440,ZONE HVAC FOUR PIPE FAN COIL 2 OA NODE
 Outdoor Air Node,441,DU_BT=HOTEL_ST=WHOLEBUILDING_FL=STORY 4_SCHF PTAC OA NODE
 Outdoor Air Node,442,DU_BT=MOTEL_ST=WHOLEBUILDING_FL=STORY 2_SCHF PTAC OA NODE
 Outdoor Air Node,443,DU_BT=MULTI-UNIT RESIDENTIAL_ST=WHOLEBUILDING_FL=STORY 1_SCHG PTAC OA NODE
 Outdoor Air Node,444,NODE 50
 Outdoor Air Node,445,NODE 70
 Outdoor Air Node,446,NODE 87
 Outdoor Air Node,447,NODE 341
 Outdoor Air Node,448,NODE 384
 Outdoor Air Node,449,NODE 206
 Outdoor Air Node,450,NODE 167
 Outdoor Air Node,451,NODE 141
 Outdoor Air Node,452,NODE 154
 Outdoor Air Node,453,NODE 128
 Outdoor Air Node,454,NODE 219
 Outdoor Air Node,455,NODE 180
 Outdoor Air Node,456,NODE 193
 Outdoor Air Node,457,NODE 29
 Outdoor Air Node,458,NODE 115
 Outdoor Air Node,459,NODE 102
 Outdoor Air Node,460,NODE 262
 Outdoor Air Node,461,NODE 297
 Outdoor Air Node,462,MODEL OUTDOOR AIR NODE
! ===============================================================
! <#Component Sets>,<Number of Component Sets>
 #Component Sets,256
! <Component Set>,<Component Set Count>,<Parent Object Type>,<Parent Object Name>,<Component Type>,<Component Name>,<Inlet Node ID>,<Outlet Node ID>,<Description>
 Component Set,1,BRANCH,SYS_1_MAKE-UP AIR UNIT MAIN BRANCH,AIRLOOPHVAC:OUTDOORAIRSYSTEM,AIR LOOP HVAC OUTDOOR AIR SYSTEM 2,NODE 39,NODE 56,Air Nodes
 Component Set,2,BRANCH,SYS_1_MAKE-UP AIR UNIT MAIN BRANCH,COILSYSTEM:COOLING:DX,COIL COOLING DX SINGLE SPEED 2 COILSYSTEM,NODE 56,NODE 54,Air Nodes
 Component Set,3,BRANCH,SYS_1_MAKE-UP AIR UNIT MAIN BRANCH,COIL:HEATING:WATER,COIL HEATING WATER 1,NODE 54,NODE 53,Air Nodes
 Component Set,4,BRANCH,SYS_1_MAKE-UP AIR UNIT MAIN BRANCH,FAN:CONSTANTVOLUME,FAN CONSTANT VOLUME 2,NODE 53,NODE 41,Air Nodes
 Component Set,5,BRANCH,SYS_1_MAKE-UP AIR UNIT 1 MAIN BRANCH,AIRLOOPHVAC:OUTDOORAIRSYSTEM,AIR LOOP HVAC OUTDOOR AIR SYSTEM 3,NODE 63,NODE 74,Air Nodes
 Component Set,6,BRANCH,SYS_1_MAKE-UP AIR UNIT 1 MAIN BRANCH,COILSYSTEM:COOLING:DX,COIL COOLING DX SINGLE SPEED 4 COILSYSTEM,NODE 74,NODE 73,Air Nodes
 Component Set,7,BRANCH,SYS_1_MAKE-UP AIR UNIT 1 MAIN BRANCH,COIL:HEATING:WATER,COIL HEATING WATER 2,NODE 73,NODE 72,Air Nodes
 Component Set,8,BRANCH,SYS_1_MAKE-UP AIR UNIT 1 MAIN BRANCH,FAN:CONSTANTVOLUME,FAN CONSTANT VOLUME 4,NODE 72,NODE 64,Air Nodes
 Component Set,9,BRANCH,SYS_1_MAKE-UP AIR UNIT 2 MAIN BRANCH,AIRLOOPHVAC:OUTDOORAIRSYSTEM,AIR LOOP HVAC OUTDOOR AIR SYSTEM 4,NODE 80,NODE 91,Air Nodes
 Component Set,10,BRANCH,SYS_1_MAKE-UP AIR UNIT 2 MAIN BRANCH,COILSYSTEM:COOLING:DX,COIL COOLING DX SINGLE SPEED 6 COILSYSTEM,NODE 91,NODE 90,Air Nodes
 Component Set,11,BRANCH,SYS_1_MAKE-UP AIR UNIT 2 MAIN BRANCH,COIL:HEATING:WATER,COIL HEATING WATER 3,NODE 90,NODE 89,Air Nodes
 Component Set,12,BRANCH,SYS_1_MAKE-UP AIR UNIT 2 MAIN BRANCH,FAN:CONSTANTVOLUME,FAN CONSTANT VOLUME 6,NODE 89,NODE 81,Air Nodes
 Component Set,13,BRANCH,SYS_2_MAKE-UP AIR UNIT MAIN BRANCH,AIRLOOPHVAC:OUTDOORAIRSYSTEM,AIR LOOP HVAC OUTDOOR AIR SYSTEM 17,NODE 336,NODE 345,Air Nodes
 Component Set,14,BRANCH,SYS_2_MAKE-UP AIR UNIT MAIN BRANCH,COILSYSTEM:COOLING:DX,COIL COOLING DX SINGLE SPEED 18 COILSYSTEM,NODE 345,NODE 344,Air Nodes
 Component Set,15,BRANCH,SYS_2_MAKE-UP AIR UNIT MAIN BRANCH,COIL:HEATING:FUEL,COIL HEATING GAS 12,NODE 344,NODE 343,Air Nodes
 Component Set,16,BRANCH,SYS_2_MAKE-UP AIR UNIT MAIN BRANCH,FAN:CONSTANTVOLUME,FAN CONSTANT VOLUME 18,NODE 343,NODE 337,Air Nodes
 Component Set,17,BRANCH,SYS_2_MAKE-UP AIR UNIT 1 MAIN BRANCH,AIRLOOPHVAC:OUTDOORAIRSYSTEM,AIR LOOP HVAC OUTDOOR AIR SYSTEM 18,NODE 379,NODE 388,Air Nodes
 Component Set,18,BRANCH,SYS_2_MAKE-UP AIR UNIT 1 MAIN BRANCH,COILSYSTEM:COOLING:DX,COIL COOLING DX SINGLE SPEED 19 COILSYSTEM,NODE 388,NODE 387,Air Nodes
 Component Set,19,BRANCH,SYS_2_MAKE-UP AIR UNIT 1 MAIN BRANCH,COIL:HEATING:FUEL,COIL HEATING GAS 13,NODE 387,NODE 386,Air Nodes
 Component Set,20,BRANCH,SYS_2_MAKE-UP AIR UNIT 1 MAIN BRANCH,FAN:CONSTANTVOLUME,FAN CONSTANT VOLUME 20,NODE 386,NODE 380,Air Nodes
 Component Set,21,BRANCH,SYS_3_PSZ ALL_ST=WHOLEBUILDING_FL=STORY 1_SCH=A MAIN BRANCH,AIRLOOPHVAC:OUTDOORAIRSYSTEM,AIR LOOP HVAC OUTDOOR AIR SYSTEM 13,NODE 201,NODE 210,Air Nodes
 Component Set,22,BRANCH,SYS_3_PSZ ALL_ST=WHOLEBUILDING_FL=STORY 1_SCH=A MAIN BRANCH,COILSYSTEM:COOLING:DX,COIL COOLING DX SINGLE SPEED 16 COILSYSTEM,NODE 210,NODE 209,Air Nodes
 Component Set,23,BRANCH,SYS_3_PSZ ALL_ST=WHOLEBUILDING_FL=STORY 1_SCH=A MAIN BRANCH,COIL:HEATING:FUEL,COIL HEATING GAS 10,NODE 209,NODE 208,Air Nodes
 Component Set,24,BRANCH,SYS_3_PSZ ALL_ST=WHOLEBUILDING_FL=STORY 1_SCH=A MAIN BRANCH,FAN:CONSTANTVOLUME,FAN CONSTANT VOLUME 16,NODE 208,NODE 202,Air Nodes
 Component Set,25,BRANCH,SYS_3_PSZ ALL_ST=WHOLEBUILDING_FL=STORY 1_SCH=B MAIN BRANCH,AIRLOOPHVAC:OUTDOORAIRSYSTEM,AIR LOOP HVAC OUTDOOR AIR SYSTEM 10,NODE 162,NODE 171,Air Nodes
 Component Set,26,BRANCH,SYS_3_PSZ ALL_ST=WHOLEBUILDING_FL=STORY 1_SCH=B MAIN BRANCH,COILSYSTEM:COOLING:DX,COIL COOLING DX SINGLE SPEED 13 COILSYSTEM,NODE 171,NODE 170,Air Nodes
 Component Set,27,BRANCH,SYS_3_PSZ ALL_ST=WHOLEBUILDING_FL=STORY 1_SCH=B MAIN BRANCH,COIL:HEATING:FUEL,COIL HEATING GAS 7,NODE 170,NODE 169,Air Nodes
 Component Set,28,BRANCH,SYS_3_PSZ ALL_ST=WHOLEBUILDING_FL=STORY 1_SCH=B MAIN BRANCH,FAN:CONSTANTVOLUME,FAN CONSTANT VOLUME 13,NODE 169,NODE 163,Air Nodes
 Component Set,29,BRANCH,SYS_3_PSZ ALL_ST=WHOLEBUILDING_FL=STORY 3_SCH=A MAIN BRANCH,AIRLOOPHVAC:OUTDOORAIRSYSTEM,AIR LOOP HVAC OUTDOOR AIR SYSTEM 8,NODE 136,NODE 145,Air Nodes
 Component Set,30,BRANCH,SYS_3_PSZ ALL_ST=WHOLEBUILDING_FL=STORY 3_SCH=A MAIN BRANCH,COILSYSTEM:COOLING:DX,COIL COOLING DX SINGLE SPEED 11 COILSYSTEM,NODE 145,NODE 144,Air Nodes
 Component Set,31,BRANCH,SYS_3_PSZ ALL_ST=WHOLEBUILDING_FL=STORY 3_SCH=A MAIN BRANCH,COIL:HEATING:FUEL,COIL HEATING GAS 5,NODE 144,NODE 143,Air Nodes
 Component Set,32,BRANCH,SYS_3_PSZ ALL_ST=WHOLEBUILDING_FL=STORY 3_SCH=A MAIN BRANCH,FAN:CONSTANTVOLUME,FAN CONSTANT VOLUME 11,NODE 143,NODE 137,Air Nodes
 Component Set,33,BRANCH,SYS_3_PSZ ALL_ST=WHOLEBUILDING_FL=STORY 3_SCH=B MAIN BRANCH,AIRLOOPHVAC:OUTDOORAIRSYSTEM,AIR LOOP HVAC OUTDOOR AIR SYSTEM 9,NODE 149,NODE 158,Air Nodes
 Component Set,34,BRANCH,SYS_3_PSZ ALL_ST=WHOLEBUILDING_FL=STORY 3_SCH=B MAIN BRANCH,COILSYSTEM:COOLING:DX,COIL COOLING DX SINGLE SPEED 12 COILSYSTEM,NODE 158,NODE 157,Air Nodes
 Component Set,35,BRANCH,SYS_3_PSZ ALL_ST=WHOLEBUILDING_FL=STORY 3_SCH=B MAIN BRANCH,COIL:HEATING:FUEL,COIL HEATING GAS 6,NODE 157,NODE 156,Air Nodes
 Component Set,36,BRANCH,SYS_3_PSZ ALL_ST=WHOLEBUILDING_FL=STORY 3_SCH=B MAIN BRANCH,FAN:CONSTANTVOLUME,FAN CONSTANT VOLUME 12,NODE 156,NODE 150,Air Nodes
 Component Set,37,BRANCH,SYS_3_PSZ ALL_ST=WHOLEBUILDING_FL=STORY 3_SCH=C MAIN BRANCH,AIRLOOPHVAC:OUTDOORAIRSYSTEM,AIR LOOP HVAC OUTDOOR AIR SYSTEM 7,NODE 123,NODE 132,Air Nodes
 Component Set,38,BRANCH,SYS_3_PSZ ALL_ST=WHOLEBUILDING_FL=STORY 3_SCH=C MAIN BRANCH,COILSYSTEM:COOLING:DX,COIL COOLING DX SINGLE SPEED 10 COILSYSTEM,NODE 132,NODE 131,Air Nodes
 Component Set,39,BRANCH,SYS_3_PSZ ALL_ST=WHOLEBUILDING_FL=STORY 3_SCH=C MAIN BRANCH,COIL:HEATING:FUEL,COIL HEATING GAS 4,NODE 131,NODE 130,Air Nodes
 Component Set,40,BRANCH,SYS_3_PSZ ALL_ST=WHOLEBUILDING_FL=STORY 3_SCH=C MAIN BRANCH,FAN:CONSTANTVOLUME,FAN CONSTANT VOLUME 10,NODE 130,NODE 124,Air Nodes
 Component Set,41,BRANCH,SYS_3_PSZ ALL_ST=WHOLEBUILDING_FL=STORY 3_SCH=C 1 MAIN BRANCH,AIRLOOPHVAC:OUTDOORAIRSYSTEM,AIR LOOP HVAC OUTDOOR AIR SYSTEM 14,NODE 214,NODE 223,Air Nodes
 Component Set,42,BRANCH,SYS_3_PSZ ALL_ST=WHOLEBUILDING_FL=STORY 3_SCH=C 1 MAIN BRANCH,COILSYSTEM:COOLING:DX,COIL COOLING DX SINGLE SPEED 17 COILSYSTEM,NODE 223,NODE 222,Air Nodes
 Component Set,43,BRANCH,SYS_3_PSZ ALL_ST=WHOLEBUILDING_FL=STORY 3_SCH=C 1 MAIN BRANCH,COIL:HEATING:FUEL,COIL HEATING GAS 11,NODE 222,NODE 221,Air Nodes
 Component Set,44,BRANCH,SYS_3_PSZ ALL_ST=WHOLEBUILDING_FL=STORY 3_SCH=C 1 MAIN BRANCH,FAN:CONSTANTVOLUME,FAN CONSTANT VOLUME 17,NODE 221,NODE 215,Air Nodes
 Component Set,45,BRANCH,SYS_3_PSZ ALL_ST=WHOLEBUILDING_FL=STORY 4_SCH=B MAIN BRANCH,AIRLOOPHVAC:OUTDOORAIRSYSTEM,AIR LOOP HVAC OUTDOOR AIR SYSTEM 11,NODE 175,NODE 184,Air Nodes
 Component Set,46,BRANCH,SYS_3_PSZ ALL_ST=WHOLEBUILDING_FL=STORY 4_SCH=B MAIN BRANCH,COILSYSTEM:COOLING:DX,COIL COOLING DX SINGLE SPEED 14 COILSYSTEM,NODE 184,NODE 183,Air Nodes
 Component Set,47,BRANCH,SYS_3_PSZ ALL_ST=WHOLEBUILDING_FL=STORY 4_SCH=B MAIN BRANCH,COIL:HEATING:FUEL,COIL HEATING GAS 8,NODE 183,NODE 182,Air Nodes
 Component Set,48,BRANCH,SYS_3_PSZ ALL_ST=WHOLEBUILDING_FL=STORY 4_SCH=B MAIN BRANCH,FAN:CONSTANTVOLUME,FAN CONSTANT VOLUME 14,NODE 182,NODE 176,Air Nodes
 Component Set,49,BRANCH,SYS_3_PSZ ALL_ST=WHOLEBUILDING_FL=STORY 4_SCH=H MAIN BRANCH,AIRLOOPHVAC:OUTDOORAIRSYSTEM,AIR LOOP HVAC OUTDOOR AIR SYSTEM 12,NODE 188,NODE 197,Air Nodes
 Component Set,50,BRANCH,SYS_3_PSZ ALL_ST=WHOLEBUILDING_FL=STORY 4_SCH=H MAIN BRANCH,COILSYSTEM:COOLING:DX,COIL COOLING DX SINGLE SPEED 15 COILSYSTEM,NODE 197,NODE 196,Air Nodes
 Component Set,51,BRANCH,SYS_3_PSZ ALL_ST=WHOLEBUILDING_FL=STORY 4_SCH=H MAIN BRANCH,COIL:HEATING:FUEL,COIL HEATING GAS 9,NODE 196,NODE 195,Air Nodes
 Component Set,52,BRANCH,SYS_3_PSZ ALL_ST=WHOLEBUILDING_FL=STORY 4_SCH=H MAIN BRANCH,FAN:CONSTANTVOLUME,FAN CONSTANT VOLUME 15,NODE 195,NODE 189,Air Nodes
 Component Set,53,BRANCH,SYS_3_PSZ DU_BT=DORMITORY_ST=WHOLEBUILDING_FL=STORY 3_SCHG MAIN BRANCH,AIRLOOPHVAC:OUTDOORAIRSYSTEM,AIR LOOP HVAC OUTDOOR AIR SYSTEM 1,NODE 21,NODE 35,Air Nodes
 Component Set,54,BRANCH,SYS_3_PSZ DU_BT=DORMITORY_ST=WHOLEBUILDING_FL=STORY 3_SCHG MAIN BRANCH,COILSYSTEM:COOLING:DX,COIL COOLING DX SINGLE SPEED 1 COILSYSTEM,NODE 35,NODE 33,Air Nodes
 Component Set,55,BRANCH,SYS_3_PSZ DU_BT=DORMITORY_ST=WHOLEBUILDING_FL=STORY 3_SCHG MAIN BRANCH,COIL:HEATING:FUEL,COIL HEATING GAS 1,NODE 33,NODE 32,Air Nodes
 Component Set,56,BRANCH,SYS_3_PSZ DU_BT=DORMITORY_ST=WHOLEBUILDING_FL=STORY 3_SCHG MAIN BRANCH,FAN:CONSTANTVOLUME,FAN CONSTANT VOLUME 1,NODE 32,NODE 23,Air Nodes
 Component Set,57,BRANCH,SYS_4_PSZ_ALL_ST=WHOLEBUILDING_FL=STORY 1_SCH=F MAIN BRANCH,AIRLOOPHVAC:OUTDOORAIRSYSTEM,AIR LOOP HVAC OUTDOOR AIR SYSTEM 6,NODE 110,NODE 119,Air Nodes
 Component Set,58,BRANCH,SYS_4_PSZ_ALL_ST=WHOLEBUILDING_FL=STORY 1_SCH=F MAIN BRANCH,COILSYSTEM:COOLING:DX,COIL COOLING DX SINGLE SPEED 9 COILSYSTEM,NODE 119,NODE 118,Air Nodes
 Component Set,59,BRANCH,SYS_4_PSZ_ALL_ST=WHOLEBUILDING_FL=STORY 1_SCH=F MAIN BRANCH,COIL:HEATING:FUEL,COIL HEATING GAS 3,NODE 118,NODE 117,Air Nodes
 Component Set,60,BRANCH,SYS_4_PSZ_ALL_ST=WHOLEBUILDING_FL=STORY 1_SCH=F MAIN BRANCH,FAN:CONSTANTVOLUME,FAN CONSTANT VOLUME 9,NODE 117,NODE 111,Air Nodes
 Component Set,61,BRANCH,SYS_4_PSZ_ALL_ST=WHOLEBUILDING_FL=STORY 4_SCH=E MAIN BRANCH,AIRLOOPHVAC:OUTDOORAIRSYSTEM,AIR LOOP HVAC OUTDOOR AIR SYSTEM 5,NODE 97,NODE 106,Air Nodes
 Component Set,62,BRANCH,SYS_4_PSZ_ALL_ST=WHOLEBUILDING_FL=STORY 4_SCH=E MAIN BRANCH,COILSYSTEM:COOLING:DX,COIL COOLING DX SINGLE SPEED 8 COILSYSTEM,NODE 106,NODE 105,Air Nodes
 Component Set,63,BRANCH,SYS_4_PSZ_ALL_ST=WHOLEBUILDING_FL=STORY 4_SCH=E MAIN BRANCH,COIL:HEATING:FUEL,COIL HEATING GAS 2,NODE 105,NODE 104,Air Nodes
 Component Set,64,BRANCH,SYS_4_PSZ_ALL_ST=WHOLEBUILDING_FL=STORY 4_SCH=E MAIN BRANCH,FAN:CONSTANTVOLUME,FAN CONSTANT VOLUME 8,NODE 104,NODE 98,Air Nodes
 Component Set,65,BRANCH,SYS_6_VAV WITH REHEAT MAIN BRANCH,FAN:VARIABLEVOLUME,SYS6 RETURN FAN,NODE 254,NODE 267,Air Nodes
 Component Set,66,BRANCH,SYS_6_VAV WITH REHEAT MAIN BRANCH,AIRLOOPHVAC:OUTDOORAIRSYSTEM,AIR LOOP HVAC OUTDOOR AIR SYSTEM 15,NODE 267,NODE 266,Air Nodes
 Component Set,67,BRANCH,SYS_6_VAV WITH REHEAT MAIN BRANCH,COIL:COOLING:WATER,COIL COOLING WATER 1,NODE 266,NODE 265,Air Nodes
 Component Set,68,BRANCH,SYS_6_VAV WITH REHEAT MAIN BRANCH,COIL:HEATING:WATER,COIL HEATING WATER 4,NODE 265,NODE 264,Air Nodes
 Component Set,69,BRANCH,SYS_6_VAV WITH REHEAT MAIN BRANCH,FAN:VARIABLEVOLUME,SYS6 SUPPLY FAN,NODE 264,NODE 255,Air Nodes
 Component Set,70,BRANCH,SYS_6_VAV WITH REHEAT 1 MAIN BRANCH,FAN:VARIABLEVOLUME,SYS6 RETURN FAN 1,NODE 288,NODE 302,Air Nodes
[...]
 Non-Parent Node Connection,NODE 117,COIL:HEATING:FUEL,COIL HEATING GAS 3,Outlet,1
 Non-Parent Node Connection,NODE 117,COIL:HEATING:FUEL,COIL HEATING GAS 3,Sensor,1
 Non-Parent Node Connection,NODE 105,COIL:HEATING:FUEL,COIL HEATING GAS 2,Inlet,1
 Non-Parent Node Connection,NODE 104,COIL:HEATING:FUEL,COIL HEATING GAS 2,Outlet,1
 Non-Parent Node Connection,NODE 104,COIL:HEATING:FUEL,COIL HEATING GAS 2,Sensor,1
 Non-Parent Node Connection,DU_BT=HOTEL_ST=WHOLEBUILDING_FL=STORY 4_SCHF PTAC MIXED AIR NODE,COIL:COOLING:DX:SINGLESPEED,COIL COOLING DX SINGLE SPEED 3,Inlet,1
 Non-Parent Node Connection,DU_BT=HOTEL_ST=WHOLEBUILDING_FL=STORY 4_SCHF PTAC COOLING COIL OUTLET NODE,COIL:COOLING:DX:SINGLESPEED,COIL COOLING DX SINGLE SPEED 3,Outlet,1
 Non-Parent Node Connection,DU_BT=MOTEL_ST=WHOLEBUILDING_FL=STORY 2_SCHF PTAC MIXED AIR NODE,COIL:COOLING:DX:SINGLESPEED,COIL COOLING DX SINGLE SPEED 5,Inlet,1
 Non-Parent Node Connection,DU_BT=MOTEL_ST=WHOLEBUILDING_FL=STORY 2_SCHF PTAC COOLING COIL OUTLET NODE,COIL:COOLING:DX:SINGLESPEED,COIL COOLING DX SINGLE SPEED 5,Outlet,1
 Non-Parent Node Connection,DU_BT=MULTI-UNIT RESIDENTIAL_ST=WHOLEBUILDING_FL=STORY 1_SCHG PTAC MIXED AIR NODE,COIL:COOLING:DX:SINGLESPEED,COIL COOLING DX SINGLE SPEED 7,Inlet,1
 Non-Parent Node Connection,DU_BT=MULTI-UNIT RESIDENTIAL_ST=WHOLEBUILDING_FL=STORY 1_SCHG PTAC COOLING COIL OUTLET NODE,COIL:COOLING:DX:SINGLESPEED,COIL COOLING DX SINGLE SPEED 7,Outlet,1
 Non-Parent Node Connection,NODE 56,COIL:COOLING:DX:SINGLESPEED,COIL COOLING DX SINGLE SPEED 2,Inlet,1
 Non-Parent Node Connection,NODE 54,COIL:COOLING:DX:SINGLESPEED,COIL COOLING DX SINGLE SPEED 2,Outlet,1
 Non-Parent Node Connection,NODE 74,COIL:COOLING:DX:SINGLESPEED,COIL COOLING DX SINGLE SPEED 4,Inlet,1
 Non-Parent Node Connection,NODE 73,COIL:COOLING:DX:SINGLESPEED,COIL COOLING DX SINGLE SPEED 4,Outlet,1
 Non-Parent Node Connection,NODE 91,COIL:COOLING:DX:SINGLESPEED,COIL COOLING DX SINGLE SPEED 6,Inlet,1
 Non-Parent Node Connection,NODE 90,COIL:COOLING:DX:SINGLESPEED,COIL COOLING DX SINGLE SPEED 6,Outlet,1
 Non-Parent Node Connection,NODE 345,COIL:COOLING:DX:SINGLESPEED,COIL COOLING DX SINGLE SPEED 18,Inlet,1
 Non-Parent Node Connection,NODE 344,COIL:COOLING:DX:SINGLESPEED,COIL COOLING DX SINGLE SPEED 18,Outlet,1
 Non-Parent Node Connection,NODE 388,COIL:COOLING:DX:SINGLESPEED,COIL COOLING DX SINGLE SPEED 19,Inlet,1
 Non-Parent Node Connection,NODE 387,COIL:COOLING:DX:SINGLESPEED,COIL COOLING DX SINGLE SPEED 19,Outlet,1
 Non-Parent Node Connection,NODE 210,COIL:COOLING:DX:SINGLESPEED,COIL COOLING DX SINGLE SPEED 16,Inlet,1
 Non-Parent Node Connection,NODE 209,COIL:COOLING:DX:SINGLESPEED,COIL COOLING DX SINGLE SPEED 16,Outlet,1
 Non-Parent Node Connection,NODE 171,COIL:COOLING:DX:SINGLESPEED,COIL COOLING DX SINGLE SPEED 13,Inlet,1
 Non-Parent Node Connection,NODE 170,COIL:COOLING:DX:SINGLESPEED,COIL COOLING DX SINGLE SPEED 13,Outlet,1
 Non-Parent Node Connection,NODE 145,COIL:COOLING:DX:SINGLESPEED,COIL COOLING DX SINGLE SPEED 11,Inlet,1
 Non-Parent Node Connection,NODE 144,COIL:COOLING:DX:SINGLESPEED,COIL COOLING DX SINGLE SPEED 11,Outlet,1
 Non-Parent Node Connection,NODE 158,COIL:COOLING:DX:SINGLESPEED,COIL COOLING DX SINGLE SPEED 12,Inlet,1
 Non-Parent Node Connection,NODE 157,COIL:COOLING:DX:SINGLESPEED,COIL COOLING DX SINGLE SPEED 12,Outlet,1
 Non-Parent Node Connection,NODE 132,COIL:COOLING:DX:SINGLESPEED,COIL COOLING DX SINGLE SPEED 10,Inlet,1
 Non-Parent Node Connection,NODE 131,COIL:COOLING:DX:SINGLESPEED,COIL COOLING DX SINGLE SPEED 10,Outlet,1
 Non-Parent Node Connection,NODE 223,COIL:COOLING:DX:SINGLESPEED,COIL COOLING DX SINGLE SPEED 17,Inlet,1
 Non-Parent Node Connection,NODE 222,COIL:COOLING:DX:SINGLESPEED,COIL COOLING DX SINGLE SPEED 17,Outlet,1
 Non-Parent Node Connection,NODE 184,COIL:COOLING:DX:SINGLESPEED,COIL COOLING DX SINGLE SPEED 14,Inlet,1
 Non-Parent Node Connection,NODE 183,COIL:COOLING:DX:SINGLESPEED,COIL COOLING DX SINGLE SPEED 14,Outlet,1
 Non-Parent Node Connection,NODE 197,COIL:COOLING:DX:SINGLESPEED,COIL COOLING DX SINGLE SPEED 15,Inlet,1
 Non-Parent Node Connection,NODE 196,COIL:COOLING:DX:SINGLESPEED,COIL COOLING DX SINGLE SPEED 15,Outlet,1
 Non-Parent Node Connection,NODE 35,COIL:COOLING:DX:SINGLESPEED,COIL COOLING DX SINGLE SPEED 1,Inlet,1
 Non-Parent Node Connection,NODE 33,COIL:COOLING:DX:SINGLESPEED,COIL COOLING DX SINGLE SPEED 1,Outlet,1
 Non-Parent Node Connection,NODE 119,COIL:COOLING:DX:SINGLESPEED,COIL COOLING DX SINGLE SPEED 9,Inlet,1
 Non-Parent Node Connection,NODE 118,COIL:COOLING:DX:SINGLESPEED,COIL COOLING DX SINGLE SPEED 9,Outlet,1
 Non-Parent Node Connection,NODE 106,COIL:COOLING:DX:SINGLESPEED,COIL COOLING DX SINGLE SPEED 8,Inlet,1
 Non-Parent Node Connection,NODE 105,COIL:COOLING:DX:SINGLESPEED,COIL COOLING DX SINGLE SPEED 8,Outlet,1
 Non-Parent Node Connection,NODE 44,AIRLOOPHVAC:ZONEMIXER,AIR LOOP HVAC ZONE MIXER 2,Outlet,1
 Non-Parent Node Connection,NODE 62,AIRLOOPHVAC:ZONEMIXER,AIR LOOP HVAC ZONE MIXER 2,Inlet,1
 Non-Parent Node Connection,NODE 66,AIRLOOPHVAC:ZONEMIXER,AIR LOOP HVAC ZONE MIXER 3,Outlet,1
 Non-Parent Node Connection,NODE 79,AIRLOOPHVAC:ZONEMIXER,AIR LOOP HVAC ZONE MIXER 3,Inlet,1
 Non-Parent Node Connection,NODE 83,AIRLOOPHVAC:ZONEMIXER,AIR LOOP HVAC ZONE MIXER 4,Outlet,1
 Non-Parent Node Connection,NODE 96,AIRLOOPHVAC:ZONEMIXER,AIR LOOP HVAC ZONE MIXER 4,Inlet,1
 Non-Parent Node Connection,NODE 339,AIRLOOPHVAC:ZONEMIXER,AIR LOOP HVAC ZONE MIXER 17,Outlet,1
 Non-Parent Node Connection,NODE 351,AIRLOOPHVAC:ZONEMIXER,AIR LOOP HVAC ZONE MIXER 17,Inlet,1
 Non-Parent Node Connection,NODE 382,AIRLOOPHVAC:ZONEMIXER,AIR LOOP HVAC ZONE MIXER 18,Outlet,1
 Non-Parent Node Connection,NODE 394,AIRLOOPHVAC:ZONEMIXER,AIR LOOP HVAC ZONE MIXER 18,Inlet,1
 Non-Parent Node Connection,NODE 204,AIRLOOPHVAC:ZONEMIXER,AIR LOOP HVAC ZONE MIXER 13,Outlet,1
 Non-Parent Node Connection,NODE 211,AIRLOOPHVAC:ZONEMIXER,AIR LOOP HVAC ZONE MIXER 13,Inlet,1
 Non-Parent Node Connection,NODE 165,AIRLOOPHVAC:ZONEMIXER,AIR LOOP HVAC ZONE MIXER 10,Outlet,1
 Non-Parent Node Connection,NODE 172,AIRLOOPHVAC:ZONEMIXER,AIR LOOP HVAC ZONE MIXER 10,Inlet,1
 Non-Parent Node Connection,NODE 139,AIRLOOPHVAC:ZONEMIXER,AIR LOOP HVAC ZONE MIXER 8,Outlet,1
 Non-Parent Node Connection,NODE 146,AIRLOOPHVAC:ZONEMIXER,AIR LOOP HVAC ZONE MIXER 8,Inlet,1
 Non-Parent Node Connection,NODE 152,AIRLOOPHVAC:ZONEMIXER,AIR LOOP HVAC ZONE MIXER 9,Outlet,1
 Non-Parent Node Connection,NODE 159,AIRLOOPHVAC:ZONEMIXER,AIR LOOP HVAC ZONE MIXER 9,Inlet,1
 Non-Parent Node Connection,NODE 126,AIRLOOPHVAC:ZONEMIXER,AIR LOOP HVAC ZONE MIXER 7,Outlet,1
 Non-Parent Node Connection,NODE 133,AIRLOOPHVAC:ZONEMIXER,AIR LOOP HVAC ZONE MIXER 7,Inlet,1
 Non-Parent Node Connection,NODE 217,AIRLOOPHVAC:ZONEMIXER,AIR LOOP HVAC ZONE MIXER 14,Outlet,1
 Non-Parent Node Connection,NODE 224,AIRLOOPHVAC:ZONEMIXER,AIR LOOP HVAC ZONE MIXER 14,Inlet,1
 Non-Parent Node Connection,NODE 178,AIRLOOPHVAC:ZONEMIXER,AIR LOOP HVAC ZONE MIXER 11,Outlet,1
 Non-Parent Node Connection,NODE 185,AIRLOOPHVAC:ZONEMIXER,AIR LOOP HVAC ZONE MIXER 11,Inlet,1
 Non-Parent Node Connection,NODE 191,AIRLOOPHVAC:ZONEMIXER,AIR LOOP HVAC ZONE MIXER 12,Outlet,1
 Non-Parent Node Connection,NODE 198,AIRLOOPHVAC:ZONEMIXER,AIR LOOP HVAC ZONE MIXER 12,Inlet,1
 Non-Parent Node Connection,NODE 26,AIRLOOPHVAC:ZONEMIXER,AIR LOOP HVAC ZONE MIXER 1,Outlet,1
 Non-Parent Node Connection,NODE 36,AIRLOOPHVAC:ZONEMIXER,AIR LOOP HVAC ZONE MIXER 1,Inlet,1
 Non-Parent Node Connection,NODE 113,AIRLOOPHVAC:ZONEMIXER,AIR LOOP HVAC ZONE MIXER 6,Outlet,1
 Non-Parent Node Connection,NODE 120,AIRLOOPHVAC:ZONEMIXER,AIR LOOP HVAC ZONE MIXER 6,Inlet,1
 Non-Parent Node Connection,NODE 100,AIRLOOPHVAC:ZONEMIXER,AIR LOOP HVAC ZONE MIXER 5,Outlet,1
 Non-Parent Node Connection,NODE 107,AIRLOOPHVAC:ZONEMIXER,AIR LOOP HVAC ZONE MIXER 5,Inlet,1
 Non-Parent Node Connection,NODE 257,AIRLOOPHVAC:ZONEMIXER,AIR LOOP HVAC ZONE MIXER 15,Outlet,1
 Non-Parent Node Connection,NODE 270,AIRLOOPHVAC:ZONEMIXER,AIR LOOP HVAC ZONE MIXER 15,Inlet,1
 Non-Parent Node Connection,NODE 277,AIRLOOPHVAC:ZONEMIXER,AIR LOOP HVAC ZONE MIXER 15,Inlet,1
 Non-Parent Node Connection,NODE 284,AIRLOOPHVAC:ZONEMIXER,AIR LOOP HVAC ZONE MIXER 15,Inlet,1
 Non-Parent Node Connection,NODE 291,AIRLOOPHVAC:ZONEMIXER,AIR LOOP HVAC ZONE MIXER 16,Outlet,1
 Non-Parent Node Connection,NODE 305,AIRLOOPHVAC:ZONEMIXER,AIR LOOP HVAC ZONE MIXER 16,Inlet,1
 Non-Parent Node Connection,NODE 56,CONTROLLER:OUTDOORAIR,CONTROLLER OUTDOOR AIR 2,Sensor,1
 Non-Parent Node Connection,NODE 50,CONTROLLER:OUTDOORAIR,CONTROLLER OUTDOOR AIR 2,Actuator,1
 Non-Parent Node Connection,NODE 51,CONTROLLER:OUTDOORAIR,CONTROLLER OUTDOOR AIR 2,Actuator,1
 Non-Parent Node Connection,NODE 39,CONTROLLER:OUTDOORAIR,CONTROLLER OUTDOOR AIR 2,Sensor,1
 Non-Parent Node Connection,NODE 74,CONTROLLER:OUTDOORAIR,CONTROLLER OUTDOOR AIR 3,Sensor,1
 Non-Parent Node Connection,NODE 70,CONTROLLER:OUTDOORAIR,CONTROLLER OUTDOOR AIR 3,Actuator,1
 Non-Parent Node Connection,NODE 71,CONTROLLER:OUTDOORAIR,CONTROLLER OUTDOOR AIR 3,Actuator,1
 Non-Parent Node Connection,NODE 63,CONTROLLER:OUTDOORAIR,CONTROLLER OUTDOOR AIR 3,Sensor,1
 Non-Parent Node Connection,NODE 91,CONTROLLER:OUTDOORAIR,CONTROLLER OUTDOOR AIR 4,Sensor,1
 Non-Parent Node Connection,NODE 87,CONTROLLER:OUTDOORAIR,CONTROLLER OUTDOOR AIR 4,Actuator,1
 Non-Parent Node Connection,NODE 88,CONTROLLER:OUTDOORAIR,CONTROLLER OUTDOOR AIR 4,Actuator,1
 Non-Parent Node Connection,NODE 80,CONTROLLER:OUTDOORAIR,CONTROLLER OUTDOOR AIR 4,Sensor,1
 Non-Parent Node Connection,NODE 345,CONTROLLER:OUTDOORAIR,CONTROLLER OUTDOOR AIR 17,Sensor,1
 Non-Parent Node Connection,NODE 341,CONTROLLER:OUTDOORAIR,CONTROLLER OUTDOOR AIR 17,Actuator,1
 Non-Parent Node Connection,NODE 342,CONTROLLER:OUTDOORAIR,CONTROLLER OUTDOOR AIR 17,Actuator,1
 Non-Parent Node Connection,NODE 336,CONTROLLER:OUTDOORAIR,CONTROLLER OUTDOOR AIR 17,Sensor,1
 Non-Parent Node Connection,NODE 388,CONTROLLER:OUTDOORAIR,CONTROLLER OUTDOOR AIR 18,Sensor,1
 Non-Parent Node Connection,NODE 384,CONTROLLER:OUTDOORAIR,CONTROLLER OUTDOOR AIR 18,Actuator,1
 Non-Parent Node Connection,NODE 385,CONTROLLER:OUTDOORAIR,CONTROLLER OUTDOOR AIR 18,Actuator,1
 Non-Parent Node Connection,NODE 379,CONTROLLER:OUTDOORAIR,CONTROLLER OUTDOOR AIR 18,Sensor,1
 Non-Parent Node Connection,NODE 210,CONTROLLER:OUTDOORAIR,CONTROLLER OUTDOOR AIR 13,Sensor,1
 Non-Parent Node Connection,NODE 206,CONTROLLER:OUTDOORAIR,CONTROLLER OUTDOOR AIR 13,Actuator,1
 Non-Parent Node Connection,NODE 207,CONTROLLER:OUTDOORAIR,CONTROLLER OUTDOOR AIR 13,Actuator,1
 Non-Parent Node Connection,NODE 201,CONTROLLER:OUTDOORAIR,CONTROLLER OUTDOOR AIR 13,Sensor,1
 Non-Parent Node Connection,NODE 171,CONTROLLER:OUTDOORAIR,CONTROLLER OUTDOOR AIR 10,Sensor,1
 Non-Parent Node Connection,NODE 167,CONTROLLER:OUTDOORAIR,CONTROLLER OUTDOOR AIR 10,Actuator,1
 Non-Parent Node Connection,NODE 168,CONTROLLER:OUTDOORAIR,CONTROLLER OUTDOOR AIR 10,Actuator,1
 Non-Parent Node Connection,NODE 162,CONTROLLER:OUTDOORAIR,CONTROLLER OUTDOOR AIR 10,Sensor,1
 Non-Parent Node Connection,NODE 145,CONTROLLER:OUTDOORAIR,CONTROLLER OUTDOOR AIR 8,Sensor,1
 Non-Parent Node Connection,NODE 141,CONTROLLER:OUTDOORAIR,CONTROLLER OUTDOOR AIR 8,Actuator,1
 Non-Parent Node Connection,NODE 142,CONTROLLER:OUTDOORAIR,CONTROLLER OUTDOOR AIR 8,Actuator,1
 Non-Parent Node Connection,NODE 136,CONTROLLER:OUTDOORAIR,CONTROLLER OUTDOOR AIR 8,Sensor,1
 Non-Parent Node Connection,NODE 158,CONTROLLER:OUTDOORAIR,CONTROLLER OUTDOOR AIR 9,Sensor,1
 Non-Parent Node Connection,NODE 154,CONTROLLER:OUTDOORAIR,CONTROLLER OUTDOOR AIR 9,Actuator,1
 Non-Parent Node Connection,NODE 155,CONTROLLER:OUTDOORAIR,CONTROLLER OUTDOOR AIR 9,Actuator,1
 Non-Parent Node Connection,NODE 149,CONTROLLER:OUTDOORAIR,CONTROLLER OUTDOOR AIR 9,Sensor,1
 Non-Parent Node Connection,NODE 132,CONTROLLER:OUTDOORAIR,CONTROLLER OUTDOOR AIR 7,Sensor,1
 Non-Parent Node Connection,NODE 128,CONTROLLER:OUTDOORAIR,CONTROLLER OUTDOOR AIR 7,Actuator,1
 Non-Parent Node Connection,NODE 129,CONTROLLER:OUTDOORAIR,CONTROLLER OUTDOOR AIR 7,Actuator,1
 Non-Parent Node Connection,NODE 123,CONTROLLER:OUTDOORAIR,CONTROLLER OUTDOOR AIR 7,Sensor,1
 Non-Parent Node Connection,NODE 223,CONTROLLER:OUTDOORAIR,CONTROLLER OUTDOOR AIR 14,Sensor,1
 Non-Parent Node Connection,NODE 219,CONTROLLER:OUTDOORAIR,CONTROLLER OUTDOOR AIR 14,Actuator,1
 Non-Parent Node Connection,NODE 220,CONTROLLER:OUTDOORAIR,CONTROLLER OUTDOOR AIR 14,Actuator,1
 Non-Parent Node Connection,NODE 214,CONTROLLER:OUTDOORAIR,CONTROLLER OUTDOOR AIR 14,Sensor,1
 Non-Parent Node Connection,NODE 184,CONTROLLER:OUTDOORAIR,CONTROLLER OUTDOOR AIR 11,Sensor,1
 Non-Parent Node Connection,NODE 180,CONTROLLER:OUTDOORAIR,CONTROLLER OUTDOOR AIR 11,Actuator,1
 Non-Parent Node Connection,NODE 181,CONTROLLER:OUTDOORAIR,CONTROLLER OUTDOOR AIR 11,Actuator,1
 Non-Parent Node Connection,NODE 175,CONTROLLER:OUTDOORAIR,CONTROLLER OUTDOOR AIR 11,Sensor,1
 Non-Parent Node Connection,NODE 197,CONTROLLER:OUTDOORAIR,CONTROLLER OUTDOOR AIR 12,Sensor,1
 Non-Parent Node Connection,NODE 193,CONTROLLER:OUTDOORAIR,CONTROLLER OUTDOOR AIR 12,Actuator,1
 Non-Parent Node Connection,NODE 194,CONTROLLER:OUTDOORAIR,CONTROLLER OUTDOOR AIR 12,Actuator,1
 Non-Parent Node Connection,NODE 188,CONTROLLER:OUTDOORAIR,CONTROLLER OUTDOOR AIR 12,Sensor,1
 Non-Parent Node Connection,NODE 35,CONTROLLER:OUTDOORAIR,CONTROLLER OUTDOOR AIR 1,Sensor,1
 Non-Parent Node Connection,NODE 29,CONTROLLER:OUTDOORAIR,CONTROLLER OUTDOOR AIR 1,Actuator,1
 Non-Parent Node Connection,NODE 30,CONTROLLER:OUTDOORAIR,CONTROLLER OUTDOOR AIR 1,Actuator,1
 Non-Parent Node Connection,NODE 21,CONTROLLER:OUTDOORAIR,CONTROLLER OUTDOOR AIR 1,Sensor,1
 Non-Parent Node Connection,NODE 119,CONTROLLER:OUTDOORAIR,CONTROLLER OUTDOOR AIR 6,Sensor,1
 Non-Parent Node Connection,NODE 115,CONTROLLER:OUTDOORAIR,CONTROLLER OUTDOOR AIR 6,Actuator,1
 Non-Parent Node Connection,NODE 116,CONTROLLER:OUTDOORAIR,CONTROLLER OUTDOOR AIR 6,Actuator,1
 Non-Parent Node Connection,NODE 110,CONTROLLER:OUTDOORAIR,CONTROLLER OUTDOOR AIR 6,Sensor,1
 Non-Parent Node Connection,NODE 106,CONTROLLER:OUTDOORAIR,CONTROLLER OUTDOOR AIR 5,Sensor,1
 Non-Parent Node Connection,NODE 102,CONTROLLER:OUTDOORAIR,CONTROLLER OUTDOOR AIR 5,Actuator,1
 Non-Parent Node Connection,NODE 103,CONTROLLER:OUTDOORAIR,CONTROLLER OUTDOOR AIR 5,Actuator,1
 Non-Parent Node Connection,NODE 97,CONTROLLER:OUTDOORAIR,CONTROLLER OUTDOOR AIR 5,Sensor,1
 Non-Parent Node Connection,NODE 266,CONTROLLER:OUTDOORAIR,CONTROLLER OUTDOOR AIR 15,Sensor,1
 Non-Parent Node Connection,NODE 262,CONTROLLER:OUTDOORAIR,CONTROLLER OUTDOOR AIR 15,Actuator,1
 Non-Parent Node Connection,NODE 263,CONTROLLER:OUTDOORAIR,CONTROLLER OUTDOOR AIR 15,Actuator,1
 Non-Parent Node Connection,NODE 267,CONTROLLER:OUTDOORAIR,CONTROLLER OUTDOOR AIR 15,Sensor,1
 Non-Parent Node Connection,NODE 301,CONTROLLER:OUTDOORAIR,CONTROLLER OUTDOOR AIR 16,Sensor,1
 Non-Parent Node Connection,NODE 297,CONTROLLER:OUTDOORAIR,CONTROLLER OUTDOOR AIR 16,Actuator,1
 Non-Parent Node Connection,NODE 298,CONTROLLER:OUTDOORAIR,CONTROLLER OUTDOOR AIR 16,Actuator,1
 Non-Parent Node Connection,NODE 302,CONTROLLER:OUTDOORAIR,CONTROLLER OUTDOOR AIR 16,Sensor,1
 Non-Parent Node Connection,NODE 229,CHILLER:ELECTRIC:EIR,PRIMARY CHILLER WATERCOOLED SCROLL,Inlet,1
 Non-Parent Node Connection,NODE 234,CHILLER:ELECTRIC:EIR,PRIMARY CHILLER WATERCOOLED SCROLL,Outlet,1
 Non-Parent Node Connection,NODE 245,CHILLER:ELECTRIC:EIR,PRIMARY CHILLER WATERCOOLED SCROLL,Inlet,2
 Non-Parent Node Connection,NODE 251,CHILLER:ELECTRIC:EIR,PRIMARY CHILLER WATERCOOLED SCROLL,Outlet,2
 Non-Parent Node Connection,NODE 235,CHILLER:ELECTRIC:EIR,SECONDARY CHILLER WATERCOOLED SCROLL,Inlet,1
 Non-Parent Node Connection,NODE 236,CHILLER:ELECTRIC:EIR,SECONDARY CHILLER WATERCOOLED SCROLL,Outlet,1
 Non-Parent Node Connection,NODE 252,CHILLER:ELECTRIC:EIR,SECONDARY CHILLER WATERCOOLED SCROLL,Inlet,2
 Non-Parent Node Connection,NODE 253,CHILLER:ELECTRIC:EIR,SECONDARY CHILLER WATERCOOLED SCROLL,Outlet,2
 Non-Parent Node Connection,NODE 311,CHILLER:ELECTRIC:EIR,PRIMARY CHILLER WATERCOOLED SCROLL 1,Inlet,1
 Non-Parent Node Connection,NODE 316,CHILLER:ELECTRIC:EIR,PRIMARY CHILLER WATERCOOLED SCROLL 1,Outlet,1
 Non-Parent Node Connection,NODE 327,CHILLER:ELECTRIC:EIR,PRIMARY CHILLER WATERCOOLED SCROLL 1,Inlet,2
 Non-Parent Node Connection,NODE 333,CHILLER:ELECTRIC:EIR,PRIMARY CHILLER WATERCOOLED SCROLL 1,Outlet,2
 Non-Parent Node Connection,NODE 317,CHILLER:ELECTRIC:EIR,SECONDARY CHILLER WATERCOOLED SCROLL 1,Inlet,1
 Non-Parent Node Connection,NODE 318,CHILLER:ELECTRIC:EIR,SECONDARY CHILLER WATERCOOLED SCROLL 1,Outlet,1
 Non-Parent Node Connection,NODE 334,CHILLER:ELECTRIC:EIR,SECONDARY CHILLER WATERCOOLED SCROLL 1,Inlet,2
 Non-Parent Node Connection,NODE 335,CHILLER:ELECTRIC:EIR,SECONDARY CHILLER WATERCOOLED SCROLL 1,Outlet,2
 Non-Parent Node Connection,NODE 354,CHILLER:ELECTRIC:EIR,PRIMARY CHILLER WATERCOOLED SCROLL 2,Inlet,1
 Non-Parent Node Connection,NODE 359,CHILLER:ELECTRIC:EIR,PRIMARY CHILLER WATERCOOLED SCROLL 2,Outlet,1
 Non-Parent Node Connection,NODE 370,CHILLER:ELECTRIC:EIR,PRIMARY CHILLER WATERCOOLED SCROLL 2,Inlet,2
 Non-Parent Node Connection,NODE 376,CHILLER:ELECTRIC:EIR,PRIMARY CHILLER WATERCOOLED SCROLL 2,Outlet,2
 Non-Parent Node Connection,NODE 360,CHILLER:ELECTRIC:EIR,SECONDARY CHILLER WATERCOOLED SCROLL 2,Inlet,1
 Non-Parent Node Connection,NODE 361,CHILLER:ELECTRIC:EIR,SECONDARY CHILLER WATERCOOLED SCROLL 2,Outlet,1
 Non-Parent Node Connection,NODE 377,CHILLER:ELECTRIC:EIR,SECONDARY CHILLER WATERCOOLED SCROLL 2,Inlet,2
 Non-Parent Node Connection,NODE 378,CHILLER:ELECTRIC:EIR,SECONDARY CHILLER WATERCOOLED SCROLL 2,Outlet,2
 Non-Parent Node Connection,NODE 242,COOLINGTOWER:SINGLESPEED,COOLING TOWER SINGLE SPEED 1,Inlet,1
 Non-Parent Node Connection,NODE 247,COOLINGTOWER:SINGLESPEED,COOLING TOWER SINGLE SPEED 1,Outlet,1
 Non-Parent Node Connection,NODE 324,COOLINGTOWER:SINGLESPEED,COOLING TOWER SINGLE SPEED 2,Inlet,1
 Non-Parent Node Connection,NODE 329,COOLINGTOWER:SINGLESPEED,COOLING TOWER SINGLE SPEED 2,Outlet,1
 Non-Parent Node Connection,NODE 367,COOLINGTOWER:SINGLESPEED,COOLING TOWER SINGLE SPEED 3,Inlet,1
 Non-Parent Node Connection,NODE 372,COOLINGTOWER:SINGLESPEED,COOLING TOWER SINGLE SPEED 3,Outlet,1
 Non-Parent Node Connection,NODE 5,BOILER:HOTWATER,PRIMARY BOILER,Inlet,1
 Non-Parent Node Connection,NODE 12,BOILER:HOTWATER,PRIMARY BOILER,Outlet,1
 Non-Parent Node Connection,NODE 14,BOILER:HOTWATER,SECONDARY BOILER,Inlet,1
 Non-Parent Node Connection,NODE 15,BOILER:HOTWATER,SECONDARY BOILER,Outlet,1
 Non-Parent Node Connection,NODE 2,PUMP:VARIABLESPEED,PUMP VARIABLE SPEED 1,Inlet,1
 Non-Parent Node Connection,NODE 11,PUMP:VARIABLESPEED,PUMP VARIABLE SPEED 1,Outlet,1
 Non-Parent Node Connection,NODE 227,PUMP:CONSTANTSPEED,PUMP CONSTANT SPEED 1,Inlet,1
 Non-Parent Node Connection,NODE 233,PUMP:CONSTANTSPEED,PUMP CONSTANT SPEED 1,Outlet,1
 Non-Parent Node Connection,NODE 309,PUMP:CONSTANTSPEED,PUMP CONSTANT SPEED 3,Inlet,1
 Non-Parent Node Connection,NODE 315,PUMP:CONSTANTSPEED,PUMP CONSTANT SPEED 3,Outlet,1
 Non-Parent Node Connection,NODE 352,PUMP:CONSTANTSPEED,PUMP CONSTANT SPEED 5,Inlet,1
 Non-Parent Node Connection,NODE 358,PUMP:CONSTANTSPEED,PUMP CONSTANT SPEED 5,Outlet,1
 Non-Parent Node Connection,NODE 240,PUMP:CONSTANTSPEED,PUMP CONSTANT SPEED 2,Inlet,1
 Non-Parent Node Connection,NODE 246,PUMP:CONSTANTSPEED,PUMP CONSTANT SPEED 2,Outlet,1
 Non-Parent Node Connection,NODE 322,PUMP:CONSTANTSPEED,PUMP CONSTANT SPEED 4,Inlet,1
 Non-Parent Node Connection,NODE 328,PUMP:CONSTANTSPEED,PUMP CONSTANT SPEED 4,Outlet,1
 Non-Parent Node Connection,NODE 365,PUMP:CONSTANTSPEED,PUMP CONSTANT SPEED 6,Inlet,1
 Non-Parent Node Connection,NODE 371,PUMP:CONSTANTSPEED,PUMP CONSTANT SPEED 6,Outlet,1
 Non-Parent Node Connection,NODE 395,PUMP:CONSTANTSPEED,SERVICE WATER LOOP PUMP,Inlet,1
 Non-Parent Node Connection,NODE 401,PUMP:CONSTANTSPEED,SERVICE WATER LOOP PUMP,Outlet,1
