Program Version,EnergyPlus, Version 8.9.0-eba93e8e1b, YMD=2019.04.04 17:58
! <Version>, Version ID
 Version, 8.9
! <Timesteps per Hour>, #TimeSteps, Minutes per TimeStep {minutes}
 Timesteps per Hour,  6, 10
! <System Convergence Limits>, Minimum System TimeStep {minutes}, Max HVAC Iterations, Minimum Plant Iterations, Maximum Plant Iterations
 System Convergence Limits, 1, 20, 2, 8
! <Simulation Control>, Do Zone Sizing, Do System Sizing, Do Plant Sizing, Do Design Days, Do Weather Simulation, Do HVAC Sizing Simulation
 Simulation Control, Yes, Yes, Yes, Yes, No, No
! <Output Reporting Tolerances>, Tolerance for Time Heating Setpoint Not Met, Tolerance for Zone Cooling Setpoint Not Met Time
 Output Reporting Tolerances, 1.000, 1.000, 
! <Site:GroundTemperature:BuildingSurface>,Jan{C},Feb{C},Mar{C},Apr{C},May{C},Jun{C},Jul{C},Aug{C},Sep{C},Oct{C},Nov{C},Dec{C}
 Site:GroundTemperature:BuildingSurface,  19.53,  19.50,  19.54,  19.60,  20.00,  21.64,  22.23,  22.38,  21.45,  20.12,  19.80,  19.63
! <Site:GroundTemperature:FCfactorMethod>,Jan{C},Feb{C},Mar{C},Apr{C},May{C},Jun{C},Jul{C},Aug{C},Sep{C},Oct{C},Nov{C},Dec{C}
 Site:GroundTemperature:FCfactorMethod, -12.27, -13.66, -11.19,  -7.33,   2.77,  10.57,  15.83,  17.43,  14.70,   8.65,   0.56,  -6.95
! <Site:GroundTemperature:Shallow>,Jan{C},Feb{C},Mar{C},Apr{C},May{C},Jun{C},Jul{C},Aug{C},Sep{C},Oct{C},Nov{C},Dec{C}
 Site:GroundTemperature:Shallow,  13.00,  13.00,  13.00,  13.00,  13.00,  13.00,  13.00,  13.00,  13.00,  13.00,  13.00,  13.00
! <Site:GroundTemperature:Deep>,Jan{C},Feb{C},Mar{C},Apr{C},May{C},Jun{C},Jul{C},Aug{C},Sep{C},Oct{C},Nov{C},Dec{C}
 Site:GroundTemperature:Deep,  16.00,  16.00,  16.00,  16.00,  16.00,  16.00,  16.00,  16.00,  16.00,  16.00,  16.00,  16.00
! <Site:GroundReflectance>,Jan{dimensionless},Feb{dimensionless},Mar{dimensionless},Apr{dimensionless},May{dimensionless},Jun{dimensionless},Jul{dimensionless},Aug{dimensionless},Sep{dimensionless},Oct{dimensionless},Nov{dimensionless},Dec{dimensionless}
 Site:GroundReflectance,  0.20,  0.20,  0.20,  0.20,  0.20,  0.20,  0.20,  0.20,  0.20,  0.20,  0.20,  0.20
! <Site:GroundReflectance:SnowModifier>, Normal, Daylighting {dimensionless}
 Site:GroundReflectance:SnowModifier,   1.000,   1.000
! <Site:GroundReflectance:Snow>,Jan{dimensionless},Feb{dimensionless},Mar{dimensionless},Apr{dimensionless},May{dimensionless},Jun{dimensionless},Jul{dimensionless},Aug{dimensionless},Sep{dimensionless},Oct{dimensionless},Nov{dimensionless},Dec{dimensionless}
 Site:GroundReflectance:Snow,  0.20,  0.20,  0.20,  0.20,  0.20,  0.20,  0.20,  0.20,  0.20,  0.20,  0.20,  0.20
! <Site:GroundReflectance:Snow:Daylighting>,Jan{dimensionless},Feb{dimensionless},Mar{dimensionless},Apr{dimensionless},May{dimensionless},Jun{dimensionless},Jul{dimensionless},Aug{dimensionless},Sep{dimensionless},Oct{dimensionless},Nov{dimensionless},Dec{dimensionless}
 Site:GroundReflectance:Snow:Daylighting,  0.20,  0.20,  0.20,  0.20,  0.20,  0.20,  0.20,  0.20,  0.20,  0.20,  0.20,  0.20
! <Environment:Weather Station>,Wind Sensor Height Above Ground {m},Wind Speed Profile Exponent {},Wind Speed Profile Boundary Layer Thickness {m},Air Temperature Sensor Height Above Ground {m},Wind Speed Modifier Coefficient-Internal,Temperature Modifier Coefficient-Internal
Environment:Weather Station,10.000,0.140,270.000,1.500,1.586,9.750E-003
! <Site:Location>, Location Name, Latitude {N+/S- Deg}, Longitude {E+/W- Deg},  Time Zone Number {GMT+/-}, Elevation {m},  Standard Pressure at Elevation {Pa}, Standard RhoAir at Elevation
Site:Location,Fort McMurray AP AB CAN CWEC2016 WMO#=716890,56.65,-111.22,-7.00,369.10,96969,1.1525
! <Building Information>, Building Name,North Axis {deg},Terrain,  Loads Convergence Tolerance Value,Temperature Convergence Tolerance Value,  Solar Distribution,Maximum Number of Warmup Days,Minimum Number of Warmup Days
 Building Information,Building 1,0.000,Suburbs,4.00000E-002,0.40000,FullExterior,25,6
! <Inside Convection Algorithm>, Algorithm {Simple | TARP | CeilingDiffuser | AdaptiveConvectionAlgorithm}
Inside Convection Algorithm,TARP
! <Outside Convection Algorithm>, Algorithm {SimpleCombined | TARP | MoWitt | DOE-2 | AdaptiveConvectionAlgorithm}
Outside Convection Algorithm,TARP
! <Sky Radiance Distribution>, Value {Anisotropic}
Sky Radiance Distribution,Anisotropic
! <Zone Air Solution Algorithm>, Value {ThirdOrderBackwardDifference | AnalyticalSolution | EulerMethod}
 Zone Air Solution Algorithm, ThirdOrderBackwardDifference
! <Zone Air Carbon Dioxide Balance Simulation>, Simulation {Yes/No}, Carbon Dioxide Concentration
 Zone Air Carbon Dioxide Balance Simulation, No,N/A
! <Zone Air Generic Contaminant Balance Simulation>, Simulation {Yes/No}, Generic Contaminant Concentration
 Zone Air Generic Contaminant Balance Simulation, No,N/A
! <Zone Air Mass Flow Balance Simulation>, Enforce Mass Balance, Adjust Zone Mixing, Adjust Zone Infiltration {AddInfiltration | AdjustInfiltration | None}, Infiltration Zones {MixingSourceZonesOnly | AllZones}
 Zone Air Mass Flow Balance Simulation, No,N/A,N/A,N/A
! <HVACSystemRootFindingAlgorithm>, Value {RegulaFalsi | Bisection | BisectionThenRegulaFalsi | RegulaFalsiThenBisection}
 HVACSystemRootFindingAlgorithm, RegulaFalsi
! <Environment:Site Atmospheric Variation>,Wind Speed Profile Exponent {},Wind Speed Profile Boundary Layer Thickness {m},Air Temperature Gradient Coefficient {K/m}
Environment:Site Atmospheric Variation,0.220,370.000,6.500000E-003
! <Surface Geometry>,Starting Corner,Vertex Input Direction,Coordinate System,Daylight Reference Point Coordinate System,Rectangular (Simple) Surface Coordinate System
 Surface Geometry,UpperLeftCorner,Counterclockwise,RelativeCoordinateSystem,RelativeCoordinateSystem,RelativeToZoneOrigin
! <Surface Heat Transfer Algorithm>, Value {CTF - ConductionTransferFunction | EMPD - MoisturePenetrationDepthConductionTransferFunction | CondFD - ConductionFiniteDifference | HAMT - CombinedHeatAndMoistureFiniteElement} - Description,Inside Surface Max Temperature Limit{C}, Surface Convection Coefficient Lower Limit {W/m2-K}, Surface Convection Coefficient Upper Limit {W/m2-K}
Surface Heat Transfer Algorithm, CTF - ConductionTransferFunction,200,0.10,1000.0
! <Shading Summary>, Number of Fixed Detached Shades, Number of Building Detached Shades, Number of Attached Shades
 Shading Summary,0,0,0
! <Zone Summary>, Number of Zones, Number of Zone Surfaces, Number of SubSurfaces
 Zone Summary,5,30,0
! <Zone Information>,Zone Name,North Axis {deg},Origin X-Coordinate {m},Origin Y-Coordinate {m},Origin Z-Coordinate {m},Centroid X-Coordinate {m},Centroid Y-Coordinate {m},Centroid Z-Coordinate {m},Type,Zone Multiplier,Zone List Multiplier,Minimum X {m},Maximum X {m},Minimum Y {m},Maximum Y {m},Minimum Z {m},Maximum Z {m},Ceiling Height {m},Volume {m3},Zone Inside Convection Algorithm {Simple-Detailed-CeilingDiffuser-TrombeWall},Zone Outside Convection Algorithm {Simple-Detailed-Tarp-MoWitt-DOE-2-BLAST}, Floor Area {m2},Exterior Gross Wall Area {m2},Exterior Net Wall Area {m2},Exterior Window Area {m2}, Number of Surfaces, Number of SubSurfaces, Number of Shading SubSurfaces,  Part of Total Building Area
 Zone Information, ALL_ST=WAREHOUSE - MED/BLK2 - REFRIGERATED_FL=STORY 1_SCH=A,0.0,25.00,25.00,0.00,50.00,50.00,1.90,1,1,1,25.00,75.00,25.00,75.00,0.00,3.80,3.80,9500.00,TARP,TARP,2500.00,0.00,0.00,0.00,6,0,0,Yes
 Zone Information, ALL_ST=WHOLEBUILDING_FL=STORY 1_SCH=B,0.0,75.00,25.00,0.00,89.15,50.00,1.90,1,1,1,75.00,100.00,0.00,100.00,0.00,3.80,3.80,7125.00,TARP,TARP,1875.00,0.00,0.00,0.00,6,0,0,Yes
 Zone Information, ALL_ST=WHOLEBUILDING_FL=STORY 1_SCH=D,0.0,25.00,75.00,0.00,50.00,89.15,1.90,1,1,1,0.00,100.00,75.00,100.00,0.00,3.80,3.80,7125.00,TARP,TARP,1875.00,0.00,0.00,0.00,6,0,0,Yes
 Zone Information, ALL_ST=WHOLEBUILDING_FL=STORY 1_SCH=H,0.0,0.00,0.00,0.00,10.85,50.00,1.90,1,1,1,0.00,25.00,0.00,100.00,0.00,3.80,3.80,7125.00,TARP,TARP,1875.00,0.00,0.00,0.00,6,0,0,Yes
 Zone Information, ALL_ST=WORKSHOP SPACE_FL=STORY 1_SCH=A,0.0,0.00,0.00,0.00,50.00,10.85,1.90,1,1,1,0.00,100.00,0.00,25.00,0.00,3.80,3.80,7125.00,TARP,TARP,1875.00,0.00,0.00,0.00,6,0,0,Yes
! <Zone Internal Gains Nominal>,Zone Name, Floor Area {m2},# Occupants,Area per Occupant {m2/person},Occupant per Area {person/m2},Interior Lighting {W/m2},Electric Load {W/m2},Gas Load {W/m2},Other Load {W/m2},Hot Water Eq {W/m2},Steam Equipment {W/m2},Sum Loads per Area {W/m2},Outdoor Controlled Baseboard Heat
 Zone Internal Gains Nominal, ALL_ST=WAREHOUSE - MED/BLK2 - REFRIGERATED_FL=STORY 1_SCH=A,2500.00,25.0,99.896,1.001E-002,10.200,1.000,0.000,0.000,0.000,0.000,11.200,No
 Zone Internal Gains Nominal, ALL_ST=WHOLEBUILDING_FL=STORY 1_SCH=B,1875.00,187.5,10.000,10.000E-002,8.400,1.000,0.000,0.000,0.000,0.000,9.400,No
 Zone Internal Gains Nominal, ALL_ST=WHOLEBUILDING_FL=STORY 1_SCH=D,1875.00,75.1,24.974,4.004E-002,9.900,7.500,0.000,0.000,0.000,0.000,17.400,No
 Zone Internal Gains Nominal, ALL_ST=WHOLEBUILDING_FL=STORY 1_SCH=H,1875.00,124.9,15.009,6.663E-002,8.300,1.000,0.000,0.000,0.000,0.000,9.300,No
 Zone Internal Gains Nominal, ALL_ST=WORKSHOP SPACE_FL=STORY 1_SCH=A,1875.00,62.6,29.969,3.337E-002,17.100,10.000,0.000,0.000,0.000,0.000,27.100,No
! <People Internal Gains Nominal>,Name,Schedule Name,Zone Name,Zone Floor Area {m2},# Zone Occupants,Number of People {},People/Floor Area {person/m2},Floor Area per person {m2/person},Fraction Radiant,Fraction Convected,Sensible Fraction Calculation,Activity level,ASHRAE 55 Warnings,Carbon Dioxide Generation Rate,Nominal Minimum Number of People,Nominal Maximum Number of People
 People Internal Gains Nominal, ALL_ST=WAREHOUSE - MED/BLK2 - REFRIGERATED_FL=STORY 1_SCH=A SPACE FUNCTION WAREHOUSE - MED/BLK2 - REFRIGERATED PEOPLE,NECB-A-OCCUPANCY,ALL_ST=WAREHOUSE - MED/BLK2 - REFRIGERATED_FL=STORY 1_SCH=A,2500.00,25.0,25.0,1.001E-002,99.896,0.300,0.700,AutoCalculate,NECB-ACTIVITY,No,3.8200E-008,0,23
 People Internal Gains Nominal, ALL_ST=WORKSHOP SPACE_FL=STORY 1_SCH=A SPACE FUNCTION WORKSHOP SPACE PEOPLE,NECB-A-OCCUPANCY,ALL_ST=WORKSHOP SPACE_FL=STORY 1_SCH=A,1875.00,62.6,62.6,3.337E-002,29.969,0.300,0.700,AutoCalculate,NECB-ACTIVITY,No,3.8200E-008,0,56
 People Internal Gains Nominal, ALL_ST=WHOLEBUILDING_FL=STORY 1_SCH=B SPORTS ARENA WHOLEBUILDING PEOPLE,NECB-B-OCCUPANCY,ALL_ST=WHOLEBUILDING_FL=STORY 1_SCH=B,1875.00,187.5,187.5,10.000E-002,10.000,0.300,0.700,AutoCalculate,NECB-ACTIVITY,No,3.8200E-008,0,169
 People Internal Gains Nominal, ALL_ST=WHOLEBUILDING_FL=STORY 1_SCH=D TOWN HALL WHOLEBUILDING PEOPLE,NECB-D-OCCUPANCY,ALL_ST=WHOLEBUILDING_FL=STORY 1_SCH=D,1875.00,75.1,75.1,4.004E-002,24.974,0.300,0.700,AutoCalculate,NECB-ACTIVITY,No,3.8200E-008,0,68
 People Internal Gains Nominal, ALL_ST=WHOLEBUILDING_FL=STORY 1_SCH=H TRANSPORTATION WHOLEBUILDING PEOPLE,NECB-H-OCCUPANCY,ALL_ST=WHOLEBUILDING_FL=STORY 1_SCH=H,1875.00,124.9,124.9,6.663E-002,15.009,0.300,0.700,AutoCalculate,NECB-ACTIVITY,No,3.8200E-008,112,112
! <Lights Internal Gains Nominal>,Name,Schedule Name,Zone Name,Zone Floor Area {m2},# Zone Occupants,Lighting Level {W},Lights/Floor Area {W/m2},Lights per person {W/person},Fraction Return Air,Fraction Radiant,Fraction Short Wave,Fraction Convected,Fraction Replaceable,End-Use Category,Nominal Minimum Lighting Level {W},Nominal Maximum Lighting Level {W}
 Lights Internal Gains Nominal, ALL_ST=WAREHOUSE - MED/BLK2 - REFRIGERATED_FL=STORY 1_SCH=A SPACE FUNCTION WAREHOUSE - MED/BLK2 - REFRIGERATED LIGHTS,NECB-A-LIGHTING,ALL_ST=WAREHOUSE - MED/BLK2 - REFRIGERATED_FL=STORY 1_SCH=A,2500.00,25.0,25499.788,10.200,1018.928,0.000,0.500,0.200,0.300,1.000,General,1274.989,22949.809
 Lights Internal Gains Nominal, ALL_ST=WORKSHOP SPACE_FL=STORY 1_SCH=A SPACE FUNCTION WORKSHOP SPACE LIGHTS,NECB-A-LIGHTING,ALL_ST=WORKSHOP SPACE_FL=STORY 1_SCH=A,1875.00,62.6,32062.233,17.100,512.461,0.000,0.500,0.200,0.300,1.000,General,1603.112,28856.010
 Lights Internal Gains Nominal, ALL_ST=WHOLEBUILDING_FL=STORY 1_SCH=B SPORTS ARENA WHOLEBUILDING LIGHTS,NECB-B-LIGHTING,ALL_ST=WHOLEBUILDING_FL=STORY 1_SCH=B,1875.00,187.5,15749.869,8.400,84.002,0.000,0.500,0.200,0.300,1.000,General,1574.987,14174.882
 Lights Internal Gains Nominal, ALL_ST=WHOLEBUILDING_FL=STORY 1_SCH=D TOWN HALL WHOLEBUILDING LIGHTS,NECB-D-LIGHTING,ALL_ST=WHOLEBUILDING_FL=STORY 1_SCH=D,1875.00,75.1,18562.346,9.900,247.240,0.000,0.500,0.200,0.300,1.000,General,928.117,16706.111
 Lights Internal Gains Nominal, ALL_ST=WHOLEBUILDING_FL=STORY 1_SCH=H TRANSPORTATION WHOLEBUILDING LIGHTS,NECB-H-LIGHTING,ALL_ST=WHOLEBUILDING_FL=STORY 1_SCH=H,1875.00,124.9,15562.370,8.300,124.570,0.000,0.500,0.200,0.300,1.000,General,14006.133,14006.133
! <ElectricEquipment Internal Gains Nominal>,Name,Schedule Name,Zone Name,Zone Floor Area {m2},# Zone Occupants,Equipment Level {W},Equipment/Floor Area {W/m2},Equipment per person {W/person},Fraction Latent,Fraction Radiant,Fraction Lost,Fraction Convected,End-Use SubCategory,Nominal Minimum Equipment Level {W},Nominal Maximum Equipment Level {W}
 ElectricEquipment Internal Gains Nominal, ALL_ST=WAREHOUSE - MED/BLK2 - REFRIGERATED_FL=STORY 1_SCH=A SPACE FUNCTION WAREHOUSE - MED/BLK2 - REFRIGERATED ELEC EQUIP,NECB-A-ELECTRIC-EQUIPMENT,ALL_ST=WAREHOUSE - MED/BLK2 - REFRIGERATED_FL=STORY 1_SCH=A,2500.00,25.0,2499.979,1.000,99.895,0.000,0.500,0.000,0.500,General,499.996,2249.981
 ElectricEquipment Internal Gains Nominal, ALL_ST=WORKSHOP SPACE_FL=STORY 1_SCH=A SPACE FUNCTION WORKSHOP SPACE ELEC EQUIP,NECB-A-ELECTRIC-EQUIPMENT,ALL_ST=WORKSHOP SPACE_FL=STORY 1_SCH=A,1875.00,62.6,18749.844,10.000,299.685,0.000,0.500,0.000,0.500,General,3749.969,16874.860
 ElectricEquipment Internal Gains Nominal, ALL_ST=WHOLEBUILDING_FL=STORY 1_SCH=B SPORTS ARENA WHOLEBUILDING ELEC EQUIP,NECB-B-ELECTRIC-EQUIPMENT,ALL_ST=WHOLEBUILDING_FL=STORY 1_SCH=B,1875.00,187.5,1874.984,1.000,10.000,0.000,0.500,0.000,0.500,General,187.498,1687.486
 ElectricEquipment Internal Gains Nominal, ALL_ST=WHOLEBUILDING_FL=STORY 1_SCH=D TOWN HALL WHOLEBUILDING ELEC EQUIP,NECB-D-ELECTRIC-EQUIPMENT,ALL_ST=WHOLEBUILDING_FL=STORY 1_SCH=D,1875.00,75.1,14062.383,7.500,187.303,0.000,0.500,0.000,0.500,General,703.119,12656.145
 ElectricEquipment Internal Gains Nominal, ALL_ST=WHOLEBUILDING_FL=STORY 1_SCH=H TRANSPORTATION WHOLEBUILDING ELEC EQUIP,NECB-H-ELECTRIC-EQUIPMENT,ALL_ST=WHOLEBUILDING_FL=STORY 1_SCH=H,1875.00,124.9,1874.984,1.000,15.008,0.000,0.500,0.000,0.500,General,1687.486,1687.486
! <Shadowing/Sun Position Calculations Annual Simulations>, Calculation Method, Value {days}, Allowable Number Figures in Shadow Overlap {}, Polygon Clipping Algorithm, Sky Diffuse Modeling Algorithm, External Shading Calculation Method, Output External Shading Calculation Results, Disable Self-Shading Within Shading Zone Groups, Disable Self-Shading From Shading Zone Groups to Other Zones
Shadowing/Sun Position Calculations Annual Simulations,AverageOverDaysInFrequency,20,15000,SutherlandHodgman,SimpleSkyDiffuseModeling,InternalCalculation,No,No,No
! <Water Heater Information>,Type,Name,Volume {m3},Maximum Capacity {W},Standard Rated Recovery Efficiency, Standard Rated Energy Factor
! <RoomAir Model>, Zone Name, Mixing/Mundt/UCSDDV/UCSDCV/UCSDUFI/UCSDUFE/User Defined
RoomAir Model,ALL_ST=WAREHOUSE - MED/BLK2 - REFRIGERATED_FL=STORY 1_SCH=A,Mixing/Well-Stirred
RoomAir Model,ALL_ST=WHOLEBUILDING_FL=STORY 1_SCH=B,Mixing/Well-Stirred
RoomAir Model,ALL_ST=WHOLEBUILDING_FL=STORY 1_SCH=D,Mixing/Well-Stirred
RoomAir Model,ALL_ST=WHOLEBUILDING_FL=STORY 1_SCH=H,Mixing/Well-Stirred
RoomAir Model,ALL_ST=WORKSHOP SPACE_FL=STORY 1_SCH=A,Mixing/Well-Stirred
! <AirflowNetwork Model:Control>, No Multizone or Distribution/Multizone with Distribution/Multizone without Distribution/Multizone with Distribution only during Fan Operation
AirflowNetwork Model:Control,NoMultizoneOrDistribution
! <Zone Volume Capacitance Multiplier>, Sensible Heat Capacity Multiplier, Moisture Capacity Multiplier, Carbon Dioxide Capacity Multiplier, Generic Contaminant Capacity Multiplier
Zone Volume Capacitance Multiplier,   1.000 ,   1.000,   1.000,   1.000
! <Load Timesteps in Zone Design Calculation Averaging Window>, Value
 Load Timesteps in Zone Design Calculation Averaging Window,    6
! <Heating Sizing Factor Information>, Sizing Factor ID, Value
 Heating Sizing Factor Information, Global,   1.3000    
 Heating Sizing Factor Information, Zone ALL_ST=WAREHOUSE - MED/BLK2 - REFRIGERATED_FL=STORY 1_SCH=A,   1.3000    
 Heating Sizing Factor Information, Zone ALL_ST=WHOLEBUILDING_FL=STORY 1_SCH=B,   1.3000    
 Heating Sizing Factor Information, Zone ALL_ST=WHOLEBUILDING_FL=STORY 1_SCH=D,   1.3000    
 Heating Sizing Factor Information, Zone ALL_ST=WHOLEBUILDING_FL=STORY 1_SCH=H,   1.3000    
 Heating Sizing Factor Information, Zone ALL_ST=WORKSHOP SPACE_FL=STORY 1_SCH=A,   1.3000    
! <Cooling Sizing Factor Information>, Sizing Factor ID, Value
 Cooling Sizing Factor Information, Global,   1.1000    
 Cooling Sizing Factor Information, Zone ALL_ST=WAREHOUSE - MED/BLK2 - REFRIGERATED_FL=STORY 1_SCH=A,   1.1000    
 Cooling Sizing Factor Information, Zone ALL_ST=WHOLEBUILDING_FL=STORY 1_SCH=B,   1.1000    
 Cooling Sizing Factor Information, Zone ALL_ST=WHOLEBUILDING_FL=STORY 1_SCH=D,   1.1000    
 Cooling Sizing Factor Information, Zone ALL_ST=WHOLEBUILDING_FL=STORY 1_SCH=H,   1.1000    
 Cooling Sizing Factor Information, Zone ALL_ST=WORKSHOP SPACE_FL=STORY 1_SCH=A,   1.1000    
! <Zone Sizing Information>, Zone Name, Load Type, Calc Des Load {W}, User Des Load {W}, Calc Des Air Flow Rate {m3/s}, User Des Air Flow Rate {m3/s}, Design Day Name, Date/Time of Peak, Temperature at Peak {C}, Humidity Ratio at Peak {kgWater/kgDryAir}, Floor Area {m2}, # Occupants, Calc Outdoor Air Flow Rate {m3/s}, Calc DOAS Heat Addition Rate {W}
 Zone Sizing Information, ALL_ST=WAREHOUSE - MED/BLK2 - REFRIGERATED_FL=STORY 1_SCH=A, Cooling, 19434.88520, 21378.37372, 1.50200, 1.65220, FORT MCMURRAY AP ANN CLG .4% CONDNS DB=>MWB, 7/21 15:10:00, 28.77600, 8.76969E-003, 2500.00000, 25.02609, 0.76200, 0.00000
 Zone Sizing Information, ALL_ST=WAREHOUSE - MED/BLK2 - REFRIGERATED_FL=STORY 1_SCH=A, Heating, 3294.14051, 4282.38266, 0.12972, 0.76200, FORT MCMURRAY AP ANN HTG 99.6% CONDNS DB, 1/21 07:10:00, -36.20000, 1.25811E-004, 2500.00000, 25.02609, 0.76200, 0.00000
 Zone Sizing Information, ALL_ST=WHOLEBUILDING_FL=STORY 1_SCH=B, Cooling, 21687.74535, 23856.51989, 1.67636, 1.84400, FORT MCMURRAY AP ANN CLG .4% CONDNS DB=>MWB, 7/21 13:00:00, 28.28000, 8.76969E-003, 1875.00000, 187.49386, 1.23825, 0.00000
 Zone Sizing Information, ALL_ST=WHOLEBUILDING_FL=STORY 1_SCH=B, Heating, 2794.67283, 3633.07468, 0.10951, 1.23825, FORT MCMURRAY AP ANN HTG 99.6% CONDNS DB, 1/21 09:10:00, -36.20000, 1.25811E-004, 1875.00000, 187.49386, 1.23825, 0.00000
 Zone Sizing Information, ALL_ST=WHOLEBUILDING_FL=STORY 1_SCH=D, Cooling, 26121.31884, 28733.45072, 2.01890, 2.22079, FORT MCMURRAY AP ANN CLG .4% CONDNS DB=>MWB, 7/21 12:00:00, 27.28800, 8.76969E-003, 1875.00000, 75.07828, 0.75248, 0.00000
 Zone Sizing Information, ALL_ST=WHOLEBUILDING_FL=STORY 1_SCH=D, Heating, 2851.83420, 3707.38447, 0.11170, 0.75248, FORT MCMURRAY AP ANN HTG 99.6% CONDNS DB, 1/21 08:10:00, -36.20000, 1.25811E-004, 1875.00000, 75.07828, 0.75248, 0.00000
 Zone Sizing Information, ALL_ST=WHOLEBUILDING_FL=STORY 1_SCH=H, Cooling, 18102.60508, 19912.86559, 1.39924, 1.53916, FORT MCMURRAY AP ANN CLG .4% CONDNS DB=>MWB, 7/21 16:00:00, 28.15600, 8.76969E-003, 1875.00000, 124.92864, 1.00965, 0.00000
 Zone Sizing Information, ALL_ST=WHOLEBUILDING_FL=STORY 1_SCH=H, Heating, 0.00000, 0.00000, 0.00000, 1.00965, FORT MCMURRAY AP ANN HTG 99.6% CONDNS DB, , -36.20000, 1.25811E-004, 1875.00000, 124.92864, 1.00965, 0.00000
 Zone Sizing Information, ALL_ST=WORKSHOP SPACE_FL=STORY 1_SCH=A, Cooling, 39111.57246, 43022.72970, 3.02281, 3.61950, FORT MCMURRAY AP ANN CLG .4% CONDNS DB=>MWB, 7/21 15:10:00, 28.77600, 8.76969E-003, 1875.00000, 62.56523, 3.61950, 0.00000
 Zone Sizing Information, ALL_ST=WORKSHOP SPACE_FL=STORY 1_SCH=A, Heating, 0.00000, 0.00000, 0.00000, 3.61950, FORT MCMURRAY AP ANN HTG 99.6% CONDNS DB, , -36.20000, 1.25811E-004, 1875.00000, 62.56523, 3.61950, 0.00000
! <System Sizing Information>, System Name, Load Type, Peak Load Kind, User Design Capacity, Calc Des Air Flow Rate [m3/s], User Des Air Flow Rate [m3/s], Design Day Name, Date/Time of Peak
 System Sizing Information, SYS_2_MAKE-UP AIR UNIT, Cooling, Sensible, 25262.78, 1.65220, 1.65220, FORT MCMURRAY AP ANN CLG .4% CONDNS DB=>MWB, 7/21 00:00:00
 System Sizing Information, SYS_2_MAKE-UP AIR UNIT, Heating, Sensible, 43507.09, 0.76200, 0.76200, FORT MCMURRAY AP ANN HTG 99.6% CONDNS DB, 1/21 00:10:00
 System Sizing Information, SYS_3_PSZ ALL_ST=WHOLEBUILDING_FL=STORY 1_SCH=B, Cooling, Sensible, 29628.01, 1.84400, 1.84400, FORT MCMURRAY AP ANN CLG .4% CONDNS DB=>MWB, 7/21 05:00:00
 System Sizing Information, SYS_3_PSZ ALL_ST=WHOLEBUILDING_FL=STORY 1_SCH=B, Heating, Sensible, 113577.33, 1.23825, 1.23825, FORT MCMURRAY AP ANN HTG 99.6% CONDNS DB, 1/21 00:10:00
 System Sizing Information, SYS_3_PSZ ALL_ST=WHOLEBUILDING_FL=STORY 1_SCH=D, Cooling, Sensible, 31155.37, 2.22079, 2.22079, FORT MCMURRAY AP ANN CLG .4% CONDNS DB=>MWB, 7/21 05:00:00
 System Sizing Information, SYS_3_PSZ ALL_ST=WHOLEBUILDING_FL=STORY 1_SCH=D, Heating, Sensible, 69020.07, 0.75248, 0.75248, FORT MCMURRAY AP ANN HTG 99.6% CONDNS DB, 1/21 00:10:00
 System Sizing Information, SYS_3_PSZ ALL_ST=WHOLEBUILDING_FL=STORY 1_SCH=H, Cooling, Sensible, 24466.63, 1.53916, 1.53916, FORT MCMURRAY AP ANN CLG .4% CONDNS DB=>MWB, 7/21 05:00:00
 System Sizing Information, SYS_3_PSZ ALL_ST=WHOLEBUILDING_FL=STORY 1_SCH=H, Heating, Sensible, 92609.20, 1.00965, 1.00965, FORT MCMURRAY AP ANN HTG 99.6% CONDNS DB, 1/21 00:10:00
 System Sizing Information, SYS_3_PSZ ALL_ST=WORKSHOP SPACE_FL=STORY 1_SCH=A, Cooling, Sensible, 66130.77, 3.61950, 3.61950, FORT MCMURRAY AP ANN CLG .4% CONDNS DB=>MWB, 7/21 05:00:00
 System Sizing Information, SYS_3_PSZ ALL_ST=WORKSHOP SPACE_FL=STORY 1_SCH=A, Heating, Sensible, 331995.26, 3.61950, 3.61950, FORT MCMURRAY AP ANN HTG 99.6% CONDNS DB, 1/21 00:10:00
! <Component Sizing Information>, Component Type, Component Name, Input Field Description, Value
 Component Sizing Information, ZoneHVAC:FourPipeFanCoil, ZONE HVAC FOUR PIPE FAN COIL 1, Design Size Maximum Supply Air Flow Rate [m3/s], 1.65220
 Component Sizing Information, Fan:ConstantVolume, FAN CONSTANT VOLUME 2, Design Size Maximum Flow Rate [m3/s], 1.65220
 Component Sizing Information, ZoneHVAC:FourPipeFanCoil, ZONE HVAC FOUR PIPE FAN COIL 1, Design Size Maximum Outdoor Air Flow Rate [m3/s], 0.76200
 Component Sizing Information, ZoneHVAC:FourPipeFanCoil, ZONE HVAC FOUR PIPE FAN COIL 1, Design Size Maximum Hot Water Flow [m3/s], 9.92916E-004
 Component Sizing Information, ZoneHVAC:FourPipeFanCoil, ZONE HVAC FOUR PIPE FAN COIL 1, Design Size Maximum Cold Water Flow [m3/s], 1.04628E-003
 Component Sizing Information, Coil:Cooling:Water, COIL COOLING WATER 1, Design Size Design Water Flow Rate [m3/s], 1.04628E-003
 Component Sizing Information, Coil:Cooling:Water, COIL COOLING WATER 1, Design Size Design Air Flow Rate [m3/s], 1.65220
 Component Sizing Information, Coil:Cooling:Water, COIL COOLING WATER 1, User-Specified Design Air Flow Rate [m3/s], 1.65220
 Component Sizing Information, Coil:Cooling:Water, COIL COOLING WATER 1, Design Size Design Inlet Air Temperature [C], 26.20259
 Component Sizing Information, Coil:Cooling:Water, COIL COOLING WATER 1, Design Size Design Inlet Water Temperature [C], 7.00000
 Component Sizing Information, Coil:Cooling:Water, COIL COOLING WATER 1, Design Size Design Inlet Air Humidity Ratio, 8.76026E-003
 Component Sizing Information, Coil:Cooling:Water, COIL COOLING WATER 1, Design Size Design Outlet Air Temperature [C], 13.00000
 Component Sizing Information, Coil:Cooling:Water, COIL COOLING WATER 1, Design Size Design Outlet Air Humidity Ratio, 8.50000E-003
! <Water Cooling Coil Capacity Information>,Component Type,Name,Nominal Total Capacity {W},Nominal Sensible Capacity {W},Nominal Latent Capacity {W},Nominal Sensible Heat Ratio, Nominal Coil UA Value {W/C}, Nominal Coil Surface Area {m2}
Water Cooling Coil Capacity Information,Coil:Cooling:Water,COIL COOLING WATER 1,35218.71,25161.06,10057.65,0.71,3785.09,38.39
 Component Sizing Information, Coil:Heating:Water, COIL HEATING WATER 1, Design Size Rated Capacity [W], 66478.85772
 Component Sizing Information, Coil:Heating:Water, COIL HEATING WATER 1, Design Size Maximum Water Flow Rate [m3/s], 9.92916E-004
 Component Sizing Information, Coil:Heating:Water, COIL HEATING WATER 1, Design Size U-Factor Times Area Value [W/K], 974.48396
! <Water Heating Coil Capacity Information>,Component Type,Name,Nominal Total Capacity {W}
Water Heating Coil Capacity Information,Coil:Heating:Water,COIL HEATING WATER 1,36481.10
 Component Sizing Information, AirTerminal:SingleDuct:Uncontrolled, AIR TERMINAL SINGLE DUCT UNCONTROLLED 1, Design Size Maximum Air Flow Rate [m3/s], 1.65220
 Component Sizing Information, AirTerminal:SingleDuct:Uncontrolled, AIR TERMINAL SINGLE DUCT UNCONTROLLED 3, Design Size Maximum Air Flow Rate [m3/s], 1.84400
 Component Sizing Information, ZoneHVAC:Baseboard:Convective:Water, ZONE HVAC BASEBOARD CONVECTIVE WATER 2, Design Size Maximum Water Flow Rate [m3/s], 5.42629E-005
 Component Sizing Information, ZoneHVAC:Baseboard:Convective:Water, ZONE HVAC BASEBOARD CONVECTIVE WATER 2, Design Size U-Factor Times Area Value [W/K], 76.32580
 Component Sizing Information, AirTerminal:SingleDuct:Uncontrolled, AIR TERMINAL SINGLE DUCT UNCONTROLLED 4, Design Size Maximum Air Flow Rate [m3/s], 2.22079
 Component Sizing Information, ZoneHVAC:Baseboard:Convective:Water, ZONE HVAC BASEBOARD CONVECTIVE WATER 3, Design Size Maximum Water Flow Rate [m3/s], 5.53728E-005
 Component Sizing Information, ZoneHVAC:Baseboard:Convective:Water, ZONE HVAC BASEBOARD CONVECTIVE WATER 3, Design Size U-Factor Times Area Value [W/K], 77.91433
 Component Sizing Information, AirTerminal:SingleDuct:Uncontrolled, AIR TERMINAL SINGLE DUCT UNCONTROLLED 5, Design Size Maximum Air Flow Rate [m3/s], 1.53916
 Component Sizing Information, ZoneHVAC:Baseboard:Convective:Water, ZONE HVAC BASEBOARD CONVECTIVE WATER 4, Design Size Maximum Water Flow Rate [m3/s], 0.00000
 Component Sizing Information, ZoneHVAC:Baseboard:Convective:Water, ZONE HVAC BASEBOARD CONVECTIVE WATER 4, Design Size U-Factor Times Area Value [W/K], 0.00000
 Component Sizing Information, AirTerminal:SingleDuct:Uncontrolled, AIR TERMINAL SINGLE DUCT UNCONTROLLED 2, Design Size Maximum Air Flow Rate [m3/s], 3.61950
 Component Sizing Information, ZoneHVAC:Baseboard:Convective:Water, ZONE HVAC BASEBOARD CONVECTIVE WATER 1, Design Size Maximum Water Flow Rate [m3/s], 0.00000
 Component Sizing Information, ZoneHVAC:Baseboard:Convective:Water, ZONE HVAC BASEBOARD CONVECTIVE WATER 1, Design Size U-Factor Times Area Value [W/K], 0.00000
 Component Sizing Information, AirLoopHVAC, SYS_2_MAKE-UP AIR UNIT, Sum of Air Terminal Maximum Heating Flow Rates [m3/s], 1.65220
 Component Sizing Information, AirLoopHVAC, SYS_2_MAKE-UP AIR UNIT, Sum of Air Terminal Minimum Heating Flow Rates [m3/s], 1.65220
 Component Sizing Information, AirLoopHVAC, SYS_2_MAKE-UP AIR UNIT, Sum of Air Terminal Maximum Flow Rates [m3/s], 1.65220
 Component Sizing Information, AirLoopHVAC, SYS_2_MAKE-UP AIR UNIT, Adjusted Heating Design Air Flow Rate [m3/s], 1.65220
 Component Sizing Information, AirLoopHVAC, SYS_2_MAKE-UP AIR UNIT, Adjusted Cooling Design Air Flow Rate [m3/s], 1.65220
 Component Sizing Information, AirLoopHVAC, SYS_2_MAKE-UP AIR UNIT, Adjusted Main Design Air Flow Rate [m3/s], 1.65220
 Component Sizing Information, AirLoopHVAC, SYS_2_MAKE-UP AIR UNIT, User Heating Air Flow Ratio [], 1.00000
 Component Sizing Information, AirLoopHVAC, SYS_2_MAKE-UP AIR UNIT, Calculated Heating Air Flow Ratio [], 1.00000
 Component Sizing Information, AirLoopHVAC, SYS_3_PSZ ALL_ST=WHOLEBUILDING_FL=STORY 1_SCH=B, Sum of Air Terminal Maximum Heating Flow Rates [m3/s], 1.84400
 Component Sizing Information, AirLoopHVAC, SYS_3_PSZ ALL_ST=WHOLEBUILDING_FL=STORY 1_SCH=B, Sum of Air Terminal Minimum Heating Flow Rates [m3/s], 1.84400
 Component Sizing Information, AirLoopHVAC, SYS_3_PSZ ALL_ST=WHOLEBUILDING_FL=STORY 1_SCH=B, Sum of Air Terminal Maximum Flow Rates [m3/s], 1.84400
 Component Sizing Information, AirLoopHVAC, SYS_3_PSZ ALL_ST=WHOLEBUILDING_FL=STORY 1_SCH=B, Adjusted Heating Design Air Flow Rate [m3/s], 1.84400
 Component Sizing Information, AirLoopHVAC, SYS_3_PSZ ALL_ST=WHOLEBUILDING_FL=STORY 1_SCH=B, Adjusted Cooling Design Air Flow Rate [m3/s], 1.84400
 Component Sizing Information, AirLoopHVAC, SYS_3_PSZ ALL_ST=WHOLEBUILDING_FL=STORY 1_SCH=B, Adjusted Main Design Air Flow Rate [m3/s], 1.84400
 Component Sizing Information, AirLoopHVAC, SYS_3_PSZ ALL_ST=WHOLEBUILDING_FL=STORY 1_SCH=B, User Heating Air Flow Ratio [], 1.00000
 Component Sizing Information, AirLoopHVAC, SYS_3_PSZ ALL_ST=WHOLEBUILDING_FL=STORY 1_SCH=B, Calculated Heating Air Flow Ratio [], 1.00000
 Component Sizing Information, AirLoopHVAC, SYS_3_PSZ ALL_ST=WHOLEBUILDING_FL=STORY 1_SCH=D, Sum of Air Terminal Maximum Heating Flow Rates [m3/s], 2.22079
 Component Sizing Information, AirLoopHVAC, SYS_3_PSZ ALL_ST=WHOLEBUILDING_FL=STORY 1_SCH=D, Sum of Air Terminal Minimum Heating Flow Rates [m3/s], 2.22079
 Component Sizing Information, AirLoopHVAC, SYS_3_PSZ ALL_ST=WHOLEBUILDING_FL=STORY 1_SCH=D, Sum of Air Terminal Maximum Flow Rates [m3/s], 2.22079
 Component Sizing Information, AirLoopHVAC, SYS_3_PSZ ALL_ST=WHOLEBUILDING_FL=STORY 1_SCH=D, Adjusted Heating Design Air Flow Rate [m3/s], 2.22079
 Component Sizing Information, AirLoopHVAC, SYS_3_PSZ ALL_ST=WHOLEBUILDING_FL=STORY 1_SCH=D, Adjusted Cooling Design Air Flow Rate [m3/s], 2.22079
 Component Sizing Information, AirLoopHVAC, SYS_3_PSZ ALL_ST=WHOLEBUILDING_FL=STORY 1_SCH=D, Adjusted Main Design Air Flow Rate [m3/s], 2.22079
 Component Sizing Information, AirLoopHVAC, SYS_3_PSZ ALL_ST=WHOLEBUILDING_FL=STORY 1_SCH=D, User Heating Air Flow Ratio [], 1.00000
 Component Sizing Information, AirLoopHVAC, SYS_3_PSZ ALL_ST=WHOLEBUILDING_FL=STORY 1_SCH=D, Calculated Heating Air Flow Ratio [], 1.00000
 Component Sizing Information, AirLoopHVAC, SYS_3_PSZ ALL_ST=WHOLEBUILDING_FL=STORY 1_SCH=H, Sum of Air Terminal Maximum Heating Flow Rates [m3/s], 1.53916
 Component Sizing Information, AirLoopHVAC, SYS_3_PSZ ALL_ST=WHOLEBUILDING_FL=STORY 1_SCH=H, Sum of Air Terminal Minimum Heating Flow Rates [m3/s], 1.53916
 Component Sizing Information, AirLoopHVAC, SYS_3_PSZ ALL_ST=WHOLEBUILDING_FL=STORY 1_SCH=H, Sum of Air Terminal Maximum Flow Rates [m3/s], 1.53916
 Component Sizing Information, AirLoopHVAC, SYS_3_PSZ ALL_ST=WHOLEBUILDING_FL=STORY 1_SCH=H, Adjusted Heating Design Air Flow Rate [m3/s], 1.53916
 Component Sizing Information, AirLoopHVAC, SYS_3_PSZ ALL_ST=WHOLEBUILDING_FL=STORY 1_SCH=H, Adjusted Cooling Design Air Flow Rate [m3/s], 1.53916
 Component Sizing Information, AirLoopHVAC, SYS_3_PSZ ALL_ST=WHOLEBUILDING_FL=STORY 1_SCH=H, Adjusted Main Design Air Flow Rate [m3/s], 1.53916
 Component Sizing Information, AirLoopHVAC, SYS_3_PSZ ALL_ST=WHOLEBUILDING_FL=STORY 1_SCH=H, User Heating Air Flow Ratio [], 1.00000
 Component Sizing Information, AirLoopHVAC, SYS_3_PSZ ALL_ST=WHOLEBUILDING_FL=STORY 1_SCH=H, Calculated Heating Air Flow Ratio [], 1.00000
 Component Sizing Information, AirLoopHVAC, SYS_3_PSZ ALL_ST=WORKSHOP SPACE_FL=STORY 1_SCH=A, Sum of Air Terminal Maximum Heating Flow Rates [m3/s], 3.61950
 Component Sizing Information, AirLoopHVAC, SYS_3_PSZ ALL_ST=WORKSHOP SPACE_FL=STORY 1_SCH=A, Sum of Air Terminal Minimum Heating Flow Rates [m3/s], 3.61950
 Component Sizing Information, AirLoopHVAC, SYS_3_PSZ ALL_ST=WORKSHOP SPACE_FL=STORY 1_SCH=A, Sum of Air Terminal Maximum Flow Rates [m3/s], 3.61950
 Component Sizing Information, AirLoopHVAC, SYS_3_PSZ ALL_ST=WORKSHOP SPACE_FL=STORY 1_SCH=A, Adjusted Heating Design Air Flow Rate [m3/s], 3.61950
 Component Sizing Information, AirLoopHVAC, SYS_3_PSZ ALL_ST=WORKSHOP SPACE_FL=STORY 1_SCH=A, Adjusted Cooling Design Air Flow Rate [m3/s], 3.61950
 Component Sizing Information, AirLoopHVAC, SYS_3_PSZ ALL_ST=WORKSHOP SPACE_FL=STORY 1_SCH=A, Adjusted Main Design Air Flow Rate [m3/s], 3.61950
 Component Sizing Information, AirLoopHVAC, SYS_3_PSZ ALL_ST=WORKSHOP SPACE_FL=STORY 1_SCH=A, User Heating Air Flow Ratio [], 1.00000
 Component Sizing Information, AirLoopHVAC, SYS_3_PSZ ALL_ST=WORKSHOP SPACE_FL=STORY 1_SCH=A, Calculated Heating Air Flow Ratio [], 1.00000
 Component Sizing Information, AirLoopHVAC, SYS_2_MAKE-UP AIR UNIT, Design Supply Air Flow Rate [m3/s], 1.65220
 Component Sizing Information, AirLoopHVAC, SYS_3_PSZ ALL_ST=WHOLEBUILDING_FL=STORY 1_SCH=B, Design Supply Air Flow Rate [m3/s], 1.84400
 Component Sizing Information, AirLoopHVAC, SYS_3_PSZ ALL_ST=WHOLEBUILDING_FL=STORY 1_SCH=D, Design Supply Air Flow Rate [m3/s], 2.22079
 Component Sizing Information, AirLoopHVAC, SYS_3_PSZ ALL_ST=WHOLEBUILDING_FL=STORY 1_SCH=H, Design Supply Air Flow Rate [m3/s], 1.53916
 Component Sizing Information, AirLoopHVAC, SYS_3_PSZ ALL_ST=WORKSHOP SPACE_FL=STORY 1_SCH=A, Design Supply Air Flow Rate [m3/s], 3.61950
!<Controller:MechanicalVentilation>,Name,Availability Schedule Name,Demand Controlled Ventilation {Yes/No},System Outdoor Air Method,Zone Maximum Outdoor Air Fraction,Number of Zones,Zone Name,DSOA Name,DSZAD Name
 Controller:MechanicalVentilation,CONTROLLER MECHANICAL VENTILATION 1,ALWAYS ON DISCRETE,No,ZoneSum,1.00,1,ALL_ST=WAREHOUSE - MED/BLK2 - REFRIGERATED_FL=STORY 1_SCH=A,SPACE FUNCTION WAREHOUSE - MED/BLK2 - REFRIGERATED VENTILATION,ALL_ST=WAREHOUSE - MED/BLK2 - REFRIGERATED_FL=STORY 1_SCH=A DESIGN SPEC ZONE AIR DIST
 Controller:MechanicalVentilation,CONTROLLER MECHANICAL VENTILATION 3,ALWAYS ON DISCRETE,No,ZoneSum,1.00,1,ALL_ST=WHOLEBUILDING_FL=STORY 1_SCH=B,SPORTS ARENA WHOLEBUILDING VENTILATION,ALL_ST=WHOLEBUILDING_FL=STORY 1_SCH=B DESIGN SPEC ZONE AIR DIST
 Controller:MechanicalVentilation,CONTROLLER MECHANICAL VENTILATION 4,ALWAYS ON DISCRETE,No,ZoneSum,1.00,1,ALL_ST=WHOLEBUILDING_FL=STORY 1_SCH=D,TOWN HALL WHOLEBUILDING VENTILATION,ALL_ST=WHOLEBUILDING_FL=STORY 1_SCH=D DESIGN SPEC ZONE AIR DIST
 Controller:MechanicalVentilation,CONTROLLER MECHANICAL VENTILATION 5,ALWAYS ON DISCRETE,No,ZoneSum,1.00,1,ALL_ST=WHOLEBUILDING_FL=STORY 1_SCH=H,TRANSPORTATION WHOLEBUILDING VENTILATION,ALL_ST=WHOLEBUILDING_FL=STORY 1_SCH=H DESIGN SPEC ZONE AIR DIST
 Controller:MechanicalVentilation,CONTROLLER MECHANICAL VENTILATION 2,ALWAYS ON DISCRETE,No,ZoneSum,1.00,1,ALL_ST=WORKSHOP SPACE_FL=STORY 1_SCH=A,SPACE FUNCTION WORKSHOP SPACE VENTILATION,ALL_ST=WORKSHOP SPACE_FL=STORY 1_SCH=A DESIGN SPEC ZONE AIR DIST
 Component Sizing Information, Controller:OutdoorAir, CONTROLLER OUTDOOR AIR 1, Maximum Outdoor Air Flow Rate [m3/s], 1.65220
 Component Sizing Information, Controller:OutdoorAir, CONTROLLER OUTDOOR AIR 1, Minimum Outdoor Air Flow Rate [m3/s], 0.76200
 Component Sizing Information, Coil:Cooling:DX:SingleSpeed, COIL COOLING DX SINGLE SPEED 1, Design Size Rated Air Flow Rate [m3/s], 1.65220
 Component Sizing Information, Coil:Cooling:DX:SingleSpeed, COIL COOLING DX SINGLE SPEED 1, Design Size Gross Rated Total Cooling Capacity [W], 27349.84556
 Component Sizing Information, Coil:Cooling:DX:SingleSpeed, COIL COOLING DX SINGLE SPEED 1, Design Size Gross Rated Sensible Heat Ratio, 0.80066
! <DX Cooling Coil Standard Rating Information>, Component Type, Component Name, Standard Rating (Net) Cooling Capacity {W}, Standard Rated Net COP {W/W}, EER {Btu/W-h}, SEER {Btu/W-h}, IEER {Btu/W-h}
 DX Cooling Coil Standard Rating Information, Coil:Cooling:DX:SingleSpeed, COIL COOLING DX SINGLE SPEED 1, 26067.1, 2.51, 8.56, 9.04, 8.63
 Component Sizing Information, Coil:Heating:Fuel, COIL HEATING GAS 1, Design Size Nominal Capacity [W], 34957.92199
 Component Sizing Information, Fan:ConstantVolume, FAN CONSTANT VOLUME 1, Design Size Maximum Flow Rate [m3/s], 1.65220
 Component Sizing Information, Controller:OutdoorAir, CONTROLLER OUTDOOR AIR 3, Maximum Outdoor Air Flow Rate [m3/s], 1.84400
 Component Sizing Information, Controller:OutdoorAir, CONTROLLER OUTDOOR AIR 3, Minimum Outdoor Air Flow Rate [m3/s], 1.23825
 Component Sizing Information, Coil:Cooling:DX:SingleSpeed, COIL COOLING DX SINGLE SPEED 3, Design Size Rated Air Flow Rate [m3/s], 1.84400
 Component Sizing Information, Coil:Cooling:DX:SingleSpeed, COIL COOLING DX SINGLE SPEED 3, Design Size Gross Rated Total Cooling Capacity [W], 33273.44071
 Component Sizing Information, Coil:Cooling:DX:SingleSpeed, COIL COOLING DX SINGLE SPEED 3, Design Size Gross Rated Sensible Heat Ratio, 0.80028
 DX Cooling Coil Standard Rating Information, Coil:Cooling:DX:SingleSpeed, COIL COOLING DX SINGLE SPEED 3, 31842.1, 2.54, 8.68, 9.21, 8.89
 Component Sizing Information, Coil:Heating:Fuel, COIL HEATING GAS 3, Design Size Nominal Capacity [W], 128810.87153
 Component Sizing Information, Fan:ConstantVolume, FAN CONSTANT VOLUME 4, Design Size Maximum Flow Rate [m3/s], 1.84400
 Component Sizing Information, Controller:OutdoorAir, CONTROLLER OUTDOOR AIR 4, Maximum Outdoor Air Flow Rate [m3/s], 2.22079
 Component Sizing Information, Controller:OutdoorAir, CONTROLLER OUTDOOR AIR 4, Minimum Outdoor Air Flow Rate [m3/s], 0.75248
 Component Sizing Information, Coil:Cooling:DX:SingleSpeed, COIL COOLING DX SINGLE SPEED 4, Design Size Rated Air Flow Rate [m3/s], 2.22079
 Component Sizing Information, Coil:Cooling:DX:SingleSpeed, COIL COOLING DX SINGLE SPEED 4, Design Size Gross Rated Total Cooling Capacity [W], 36761.96419
 Component Sizing Information, Coil:Cooling:DX:SingleSpeed, COIL COOLING DX SINGLE SPEED 4, Design Size Gross Rated Sensible Heat Ratio, 0.80066
 DX Cooling Coil Standard Rating Information, Coil:Cooling:DX:SingleSpeed, COIL COOLING DX SINGLE SPEED 4, 35038.7, 2.51, 8.56, 9.08, 8.70
 Component Sizing Information, Coil:Heating:Fuel, COIL HEATING GAS 4, Design Size Nominal Capacity [W], 105961.98005
 Component Sizing Information, Fan:ConstantVolume, FAN CONSTANT VOLUME 5, Design Size Maximum Flow Rate [m3/s], 2.22079
 Component Sizing Information, Controller:OutdoorAir, CONTROLLER OUTDOOR AIR 5, Maximum Outdoor Air Flow Rate [m3/s], 1.53916
 Component Sizing Information, Controller:OutdoorAir, CONTROLLER OUTDOOR AIR 5, Minimum Outdoor Air Flow Rate [m3/s], 1.00965
 Component Sizing Information, Coil:Cooling:DX:SingleSpeed, COIL COOLING DX SINGLE SPEED 5, Design Size Rated Air Flow Rate [m3/s], 1.53916
 Component Sizing Information, Coil:Cooling:DX:SingleSpeed, COIL COOLING DX SINGLE SPEED 5, Design Size Gross Rated Total Cooling Capacity [W], 27525.45463
 Component Sizing Information, Coil:Cooling:DX:SingleSpeed, COIL COOLING DX SINGLE SPEED 5, Design Size Gross Rated Sensible Heat Ratio, 0.80031
 DX Cooling Coil Standard Rating Information, Coil:Cooling:DX:SingleSpeed, COIL COOLING DX SINGLE SPEED 5, 26330.8, 2.54, 8.67, 9.20, 8.87
 Component Sizing Information, Coil:Heating:Fuel, COIL HEATING GAS 5, Design Size Nominal Capacity [W], 105487.28645
 Component Sizing Information, Fan:ConstantVolume, FAN CONSTANT VOLUME 6, Design Size Maximum Flow Rate [m3/s], 1.53916
 Component Sizing Information, Controller:OutdoorAir, CONTROLLER OUTDOOR AIR 2, Maximum Outdoor Air Flow Rate [m3/s], 3.61950
 Component Sizing Information, Controller:OutdoorAir, CONTROLLER OUTDOOR AIR 2, Minimum Outdoor Air Flow Rate [m3/s], 3.61950
 Component Sizing Information, Coil:Cooling:DX:SingleSpeed, COIL COOLING DX SINGLE SPEED 2, Design Size Rated Air Flow Rate [m3/s], 3.61950
 Component Sizing Information, Coil:Cooling:DX:SingleSpeed, COIL COOLING DX SINGLE SPEED 2, Design Size Gross Rated Total Cooling Capacity [W], 67722.29119
 Component Sizing Information, Coil:Cooling:DX:SingleSpeed, COIL COOLING DX SINGLE SPEED 2, Design Size Gross Rated Sensible Heat Ratio, 0.80027
 DX Cooling Coil Standard Rating Information, Coil:Cooling:DX:SingleSpeed, COIL COOLING DX SINGLE SPEED 2, 64912.5, 2.56, 8.73, 9.26, 8.97
 Component Sizing Information, Coil:Heating:Fuel, COIL HEATING GAS 2, Design Size Nominal Capacity [W], 331995.25847
 Component Sizing Information, Fan:ConstantVolume, FAN CONSTANT VOLUME 3, Design Size Maximum Flow Rate [m3/s], 3.61950
Water Heater Information,WaterHeater:Mixed,264GAL NATURALGAS WATER HEATER - 178KBTU/HR,0.9976,52128.4,0.542,0.6126
 Component Sizing Information, PlantLoop, CHILLED WATER LOOP, Maximum Loop Flow Rate [m3/s], 1.04628E-003
 Component Sizing Information, PlantLoop, CHILLED WATER LOOP, Plant Loop Volume [m3], 0.12555
 Component Sizing Information, Pump:ConstantSpeed, PUMP CONSTANT SPEED 1, Design Flow Rate [m3/s], 1.04628E-003
 Component Sizing Information, Pump:ConstantSpeed, PUMP CONSTANT SPEED 1, Design Power Consumption [W], 267.31126
 Component Sizing Information, Chiller:Electric:EIR, PRIMARY CHILLER WATERCOOLED SCROLL, Design Size Reference Chilled Water Flow Rate [m3/s], 1.04628E-003
 Component Sizing Information, Chiller:Electric:EIR, PRIMARY CHILLER WATERCOOLED SCROLL, Design Size Reference Capacity [W], 26350.58626
 Component Sizing Information, Chiller:Electric:EIR, PRIMARY CHILLER WATERCOOLED SCROLL, Design Size Reference Condenser Fluid Flow Rate [m3/s], 1.24185E-003
! <Chiller Standard Rating Information>, Component Type, Component Name, IPLV in SI Units {W/W}, IPLV in IP Units {Btu/W-h}
 Chiller Standard Rating Information, Chiller:Electric:EIR, PRIMARY CHILLER WATERCOOLED SCROLL, 7.88, 26.88
 Component Sizing Information, Chiller:Electric:EIR, SECONDARY CHILLER WATERCOOLED SCROLL, Design Size Reference Chilled Water Flow Rate [m3/s], 1.04628E-003
 Component Sizing Information, Chiller:Electric:EIR, SECONDARY CHILLER WATERCOOLED SCROLL, Design Size Reference Capacity [W], 26350.58626
 Component Sizing Information, Chiller:Electric:EIR, SECONDARY CHILLER WATERCOOLED SCROLL, Design Size Reference Condenser Fluid Flow Rate [m3/s], 1.24185E-003
 Chiller Standard Rating Information, Chiller:Electric:EIR, SECONDARY CHILLER WATERCOOLED SCROLL, 7.88, 26.88
 Component Sizing Information, PlantLoop, CONDENSER WATER LOOP, Maximum Loop Flow Rate [m3/s], 2.48371E-003
 Component Sizing Information, PlantLoop, CONDENSER WATER LOOP, Plant Loop Volume [m3], 0.29804
 Component Sizing Information, Pump:ConstantSpeed, PUMP CONSTANT SPEED 2, Design Flow Rate [m3/s], 2.48371E-003
 Component Sizing Information, Pump:ConstantSpeed, PUMP CONSTANT SPEED 2, Design Power Consumption [W], 634.55503
 Component Sizing Information, CoolingTower:SingleSpeed, COOLING TOWER SINGLE SPEED 1, Design Water Flow Rate [m3/s], 2.48371E-003
 Component Sizing Information, CoolingTower:SingleSpeed, COOLING TOWER SINGLE SPEED 1, Fan Power at Design Air Flow Rate [W], 544.96760
 Component Sizing Information, CoolingTower:SingleSpeed, COOLING TOWER SINGLE SPEED 1, Design Air Flow Rate [m3/s], 1.49855
 Component Sizing Information, CoolingTower:SingleSpeed, COOLING TOWER SINGLE SPEED 1, U-Factor Times Area Value at Design Air Flow Rate [W/C], 2676.01335
 Component Sizing Information, CoolingTower:SingleSpeed, COOLING TOWER SINGLE SPEED 1, Free Convection Regime Air Flow Rate [m3/s], 0.14986
 Component Sizing Information, CoolingTower:SingleSpeed, COOLING TOWER SINGLE SPEED 1, Free Convection U-Factor Times Area Value [W/K], 267.60134
 Component Sizing Information, PlantLoop, HOT WATER LOOP, Maximum Loop Flow Rate [m3/s], 1.10255E-003
 Component Sizing Information, PlantLoop, HOT WATER LOOP, Plant Loop Volume [m3], 0.13231
 Component Sizing Information, Pump:VariableSpeed, PUMP VARIABLE SPEED 1, Design Flow Rate [m3/s], 1.10255E-003
 Component Sizing Information, Pump:VariableSpeed, PUMP VARIABLE SPEED 1, Design Power Consumption [W], 281.68777
 Component Sizing Information, Boiler:HotWater, PRIMARY BOILER, Design Size Nominal Capacity [W], 74105.06907
 Component Sizing Information, Boiler:HotWater, PRIMARY BOILER, Design Size Design Water Flow Rate [m3/s], 1.10255E-003
 Component Sizing Information, Boiler:HotWater, SECONDARY BOILER, Design Size Nominal Capacity [W], 74105.06907
 Component Sizing Information, Boiler:HotWater, SECONDARY BOILER, Design Size Design Water Flow Rate [m3/s], 1.10255E-003
 Component Sizing Information, PlantLoop, MAIN SERVICE WATER LOOP, Maximum Loop Flow Rate [m3/s], 2.09676E-004
 Component Sizing Information, PlantLoop, MAIN SERVICE WATER LOOP, Plant Loop Volume [m3], 2.51612E-002
 Component Sizing Information, Pump:ConstantSpeed, SERVICE WATER LOOP PUMP, Design Flow Rate [m3/s], 2.09676E-004
 Component Sizing Information, Pump:ConstantSpeed, SERVICE WATER LOOP PUMP, Design Power Consumption [W], 0.40948
 Component Sizing Information, WaterHeater:Mixed, 264GAL NATURALGAS WATER HEATER - 178KBTU/HR, Use Side Design Flow Rate [m3/s], 2.09676E-004
! <Environment>,Environment Name,Environment Type, Start Date, End Date, Start DayOfWeek, Duration {#days}, Source:Start DayOfWeek,  Use Daylight Saving, Use Holidays, Apply Weekend Holiday Rule,  Use Rain Values, Use Snow Values
! <Environment:Special Days>, Special Day Name, Special Day Type, Source, Start Date, Duration {#days}
! <Environment:Daylight Saving>, Daylight Saving Indicator, Source, Start Date, End Date
! <Environment:WarmupDays>, NumberofWarmupDays
Environment,FORT MCMURRAY AP ANN CLG .4% CONDNS DB=>MWB,SizingPeriod:DesignDay,07/21,07/21,SummerDesignDay,1,N/A,N/A,N/A,N/A,N/A,N/A
Environment:Daylight Saving,No,SizingPeriod:DesignDay
! <Environment:Design Day Data>, Max Dry-Bulb Temp {C}, Temp Range {dC}, Temp Range Ind Type, Hum Ind Value at Max Temp, Hum Ind Type,Pressure {Pa}, Wind Direction {deg CW from N}, Wind Speed {m/s}, Clearness, Rain, Snow
! <Environment:Design Day Misc>,DayOfYear,ASHRAE A Coeff,ASHRAE B Coeff,ASHRAE C Coeff,Solar Constant-Annual Variation,Eq of Time {minutes}, Solar Declination Angle {deg}, Solar Model
Environment:Design Day Data,28.90,12.40,DefaultMultipliers,96969,250,3.7,0.00,No,No
Environment:Design Day Misc,202,1084.4,0.2082,0.1365,1.0,-6.23,20.6,ASHRAETau
Environment:WarmupDays,  6
! <Tabular Report>,Style,Unit Conversion
Tabular Report,HTML,None
! <Warmup Convergence Information>,Zone Name,Environment Type/Name,Average Warmup Temperature Difference {deltaC},Std Dev Warmup Temperature Difference {deltaC},Max Temperature Pass/Fail Convergence,Min Temperature Pass/Fail Convergence,Average Warmup Load Difference {W},Std Dev Warmup Load Difference {W},Heating Load Pass/Fail Convergence,Cooling Load Pass/Fail Convergence
 Warmup Convergence Information,ALL_ST=WAREHOUSE - MED/BLK2 - REFRIGERATED_FL=STORY 1_SCH=A,SizingPeriod: FORT MCMURRAY AP ANN CLG .4% CONDNS DB=>MWB,0.1318698278,0.1119957616,Pass,Pass,3.8347142637E-002,3.6926624623E-002,Pass,Pass
 Warmup Convergence Information,ALL_ST=WHOLEBUILDING_FL=STORY 1_SCH=B,SizingPeriod: FORT MCMURRAY AP ANN CLG .4% CONDNS DB=>MWB,5.0278856208E-002,0.1035349728,Pass,Pass,0.1209257978,0.4680839982,Pass,Pass
 Warmup Convergence Information,ALL_ST=WHOLEBUILDING_FL=STORY 1_SCH=D,SizingPeriod: FORT MCMURRAY AP ANN CLG .4% CONDNS DB=>MWB,3.8884480309E-002,7.7280909126E-002,Pass,Pass,6.2948415069E-002,0.1985436874,Pass,Pass
 Warmup Convergence Information,ALL_ST=WHOLEBUILDING_FL=STORY 1_SCH=H,SizingPeriod: FORT MCMURRAY AP ANN CLG .4% CONDNS DB=>MWB,3.2581778833E-003,5.0669932449E-003,Pass,Pass,4.0050367160E-003,4.5185112568E-003,Pass,Pass
 Warmup Convergence Information,ALL_ST=WORKSHOP SPACE_FL=STORY 1_SCH=A,SizingPeriod: FORT MCMURRAY AP ANN CLG .4% CONDNS DB=>MWB,6.9295293868E-002,0.1841149077,Pass,Pass,4.1097783914E-002,0.1097299185,Pass,Pass
Environment,FORT MCMURRAY AP ANN HTG 99.6% CONDNS DB,SizingPeriod:DesignDay,01/21,01/21,WinterDesignDay,1,N/A,N/A,N/A,N/A,N/A,N/A
Environment:Daylight Saving,No,SizingPeriod:DesignDay
Environment:Design Day Data,-36.20,0.00,DefaultMultipliers,96969,90,1.0,0.00,No,No
Environment:Design Day Misc, 21,1229.0,0.1415,5.7310E-002,1.0,-11.15,-20.1,ASHRAEClearSky
Environment:WarmupDays, 12
 Warmup Convergence Information,ALL_ST=WAREHOUSE - MED/BLK2 - REFRIGERATED_FL=STORY 1_SCH=A,SizingPeriod: FORT MCMURRAY AP ANN HTG 99.6% CONDNS DB,7.4175275505E-002,8.2310882436E-002,Pass,Pass,2.8967618449E-003,3.5663336220E-003,Pass,Pass
 Warmup Convergence Information,ALL_ST=WHOLEBUILDING_FL=STORY 1_SCH=B,SizingPeriod: FORT MCMURRAY AP ANN HTG 99.6% CONDNS DB,6.3578678868E-002,0.2303228981,Pass,Pass,0.5255869334,3.3118643743,Pass,Pass
 Warmup Convergence Information,ALL_ST=WHOLEBUILDING_FL=STORY 1_SCH=D,SizingPeriod: FORT MCMURRAY AP ANN HTG 99.6% CONDNS DB,5.7818896249E-002,0.2334906925,Pass,Pass,0.5611990212,3.3131883938,Pass,Pass
 Warmup Convergence Information,ALL_ST=WHOLEBUILDING_FL=STORY 1_SCH=H,SizingPeriod: FORT MCMURRAY AP ANN HTG 99.6% CONDNS DB,1.4421022017E-002,6.9650635027E-002,Pass,Pass,1.0048962286E-002,3.7709418823E-002,Pass,Pass
 Warmup Convergence Information,ALL_ST=WORKSHOP SPACE_FL=STORY 1_SCH=A,SizingPeriod: FORT MCMURRAY AP ANN HTG 99.6% CONDNS DB,5.5580851535E-002,0.2489819940,Pass,Pass,0.8354799276,4.6523844586,Pass,Pass
! <Program Control Information:Threads/Parallel Sims>, Threading Supported,Maximum Number of Threads, Env Set Threads (OMP_NUM_THREADS), EP Env Set Threads (EP_OMP_NUM_THREADS), IDF Set Threads, Number of Threads Used (Interior Radiant Exchange), Number Nominal Surfaces, Number Parallel Sims
Program Control:Threads/Parallel Sims, No,1, N/A, N/A, N/A, N/A, N/A, N/A
End of Data
