Program Version,EnergyPlus, Version 8.9.0-eba93e8e1b, YMD=2019.04.04 18:00
! <Version>, Version ID
 Version, 8.9
! <Timesteps per Hour>, #TimeSteps, Minutes per TimeStep {minutes}
 Timesteps per Hour,  6, 10
! <System Convergence Limits>, Minimum System TimeStep {minutes}, Max HVAC Iterations, Minimum Plant Iterations, Maximum Plant Iterations
 System Convergence Limits, 1, 20, 2, 8
! <Simulation Control>, Do Zone Sizing, Do System Sizing, Do Plant Sizing, Do Design Days, Do Weather Simulation, Do HVAC Sizing Simulation
 Simulation Control, Yes, No, No, Yes, No, No
! <Output Reporting Tolerances>, Tolerance for Time Heating Setpoint Not Met, Tolerance for Zone Cooling Setpoint Not Met Time
 Output Reporting Tolerances, 0.200, 0.200, 
! <Site:GroundTemperature:BuildingSurface>,Jan{C},Feb{C},Mar{C},Apr{C},May{C},Jun{C},Jul{C},Aug{C},Sep{C},Oct{C},Nov{C},Dec{C}
 Site:GroundTemperature:BuildingSurface,  19.53,  19.50,  19.54,  19.60,  20.00,  21.64,  22.23,  22.38,  21.45,  20.12,  19.80,  19.63
! <Site:GroundTemperature:FCfactorMethod>,Jan{C},Feb{C},Mar{C},Apr{C},May{C},Jun{C},Jul{C},Aug{C},Sep{C},Oct{C},Nov{C},Dec{C}
 Site:GroundTemperature:FCfactorMethod, -12.27, -13.66, -11.19,  -7.33,   2.77,  10.57,  15.83,  17.43,  14.70,   8.65,   0.56,  -6.95
! <Site:GroundTemperature:Shallow>,Jan{C},Feb{C},Mar{C},Apr{C},May{C},Jun{C},Jul{C},Aug{C},Sep{C},Oct{C},Nov{C},Dec{C}
 Site:GroundTemperature:Shallow,  13.00,  13.00,  13.00,  13.00,  13.00,  13.00,  13.00,  13.00,  13.00,  13.00,  13.00,  13.00
! <Site:GroundTemperature:Deep>,Jan{C},Feb{C},Mar{C},Apr{C},May{C},Jun{C},Jul{C},Aug{C},Sep{C},Oct{C},Nov{C},Dec{C}
 Site:GroundTemperature:Deep,  16.00,  16.00,  16.00,  16.00,  16.00,  16.00,  16.00,  16.00,  16.00,  16.00,  16.00,  16.00
! <Site:GroundReflectance>,Jan{dimensionless},Feb{dimensionless},Mar{dimensionless},Apr{dimensionless},May{dimensionless},Jun{dimensionless},Jul{dimensionless},Aug{dimensionless},Sep{dimensionless},Oct{dimensionless},Nov{dimensionless},Dec{dimensionless}
 Site:GroundReflectance,  0.20,  0.20,  0.20,  0.20,  0.20,  0.20,  0.20,  0.20,  0.20,  0.20,  0.20,  0.20
! <Site:GroundReflectance:SnowModifier>, Normal, Daylighting {dimensionless}
 Site:GroundReflectance:SnowModifier,   1.000,   1.000
! <Site:GroundReflectance:Snow>,Jan{dimensionless},Feb{dimensionless},Mar{dimensionless},Apr{dimensionless},May{dimensionless},Jun{dimensionless},Jul{dimensionless},Aug{dimensionless},Sep{dimensionless},Oct{dimensionless},Nov{dimensionless},Dec{dimensionless}
 Site:GroundReflectance:Snow,  0.20,  0.20,  0.20,  0.20,  0.20,  0.20,  0.20,  0.20,  0.20,  0.20,  0.20,  0.20
! <Site:GroundReflectance:Snow:Daylighting>,Jan{dimensionless},Feb{dimensionless},Mar{dimensionless},Apr{dimensionless},May{dimensionless},Jun{dimensionless},Jul{dimensionless},Aug{dimensionless},Sep{dimensionless},Oct{dimensionless},Nov{dimensionless},Dec{dimensionless}
 Site:GroundReflectance:Snow:Daylighting,  0.20,  0.20,  0.20,  0.20,  0.20,  0.20,  0.20,  0.20,  0.20,  0.20,  0.20,  0.20
! <Environment:Weather Station>,Wind Sensor Height Above Ground {m},Wind Speed Profile Exponent {},Wind Speed Profile Boundary Layer Thickness {m},Air Temperature Sensor Height Above Ground {m},Wind Speed Modifier Coefficient-Internal,Temperature Modifier Coefficient-Internal
Environment:Weather Station,10.000,0.140,270.000,1.500,1.586,9.750E-003
! <Site:Location>, Location Name, Latitude {N+/S- Deg}, Longitude {E+/W- Deg},  Time Zone Number {GMT+/-}, Elevation {m},  Standard Pressure at Elevation {Pa}, Standard RhoAir at Elevation
Site:Location,Fort McMurray AP AB CAN CWEC2016 WMO#=716890,56.65,-111.22,-7.00,369.10,96969,1.1525
! <Building Information>, Building Name,North Axis {deg},Terrain,  Loads Convergence Tolerance Value,Temperature Convergence Tolerance Value,  Solar Distribution,Maximum Number of Warmup Days,Minimum Number of Warmup Days
 Building Information,Building 1,0.000,Suburbs,4.00000E-002,0.40000,FullExterior,25,6
! <Inside Convection Algorithm>, Algorithm {Simple | TARP | CeilingDiffuser | AdaptiveConvectionAlgorithm}
Inside Convection Algorithm,TARP
! <Outside Convection Algorithm>, Algorithm {SimpleCombined | TARP | MoWitt | DOE-2 | AdaptiveConvectionAlgorithm}
Outside Convection Algorithm,TARP
! <Sky Radiance Distribution>, Value {Anisotropic}
Sky Radiance Distribution,Anisotropic
! <Zone Air Solution Algorithm>, Value {ThirdOrderBackwardDifference | AnalyticalSolution | EulerMethod}
 Zone Air Solution Algorithm, ThirdOrderBackwardDifference
! <Zone Air Carbon Dioxide Balance Simulation>, Simulation {Yes/No}, Carbon Dioxide Concentration
 Zone Air Carbon Dioxide Balance Simulation, No,N/A
! <Zone Air Generic Contaminant Balance Simulation>, Simulation {Yes/No}, Generic Contaminant Concentration
 Zone Air Generic Contaminant Balance Simulation, No,N/A
! <Zone Air Mass Flow Balance Simulation>, Enforce Mass Balance, Adjust Zone Mixing, Adjust Zone Infiltration {AddInfiltration | AdjustInfiltration | None}, Infiltration Zones {MixingSourceZonesOnly | AllZones}
 Zone Air Mass Flow Balance Simulation, No,N/A,N/A,N/A
! <HVACSystemRootFindingAlgorithm>, Value {RegulaFalsi | Bisection | BisectionThenRegulaFalsi | RegulaFalsiThenBisection}
 HVACSystemRootFindingAlgorithm, RegulaFalsi
! <Environment:Site Atmospheric Variation>,Wind Speed Profile Exponent {},Wind Speed Profile Boundary Layer Thickness {m},Air Temperature Gradient Coefficient {K/m}
Environment:Site Atmospheric Variation,0.220,370.000,6.500000E-003
! <Surface Geometry>,Starting Corner,Vertex Input Direction,Coordinate System,Daylight Reference Point Coordinate System,Rectangular (Simple) Surface Coordinate System
 Surface Geometry,UpperLeftCorner,Counterclockwise,RelativeCoordinateSystem,RelativeCoordinateSystem,RelativeToZoneOrigin
! <Surface Heat Transfer Algorithm>, Value {CTF - ConductionTransferFunction | EMPD - MoisturePenetrationDepthConductionTransferFunction | CondFD - ConductionFiniteDifference | HAMT - CombinedHeatAndMoistureFiniteElement} - Description,Inside Surface Max Temperature Limit{C}, Surface Convection Coefficient Lower Limit {W/m2-K}, Surface Convection Coefficient Upper Limit {W/m2-K}
Surface Heat Transfer Algorithm, CTF - ConductionTransferFunction,200,0.10,1000.0
! <Shading Summary>, Number of Fixed Detached Shades, Number of Building Detached Shades, Number of Attached Shades
 Shading Summary,0,0,0
! <Zone Summary>, Number of Zones, Number of Zone Surfaces, Number of SubSurfaces
 Zone Summary,5,30,0
! <Zone Information>,Zone Name,North Axis {deg},Origin X-Coordinate {m},Origin Y-Coordinate {m},Origin Z-Coordinate {m},Centroid X-Coordinate {m},Centroid Y-Coordinate {m},Centroid Z-Coordinate {m},Type,Zone Multiplier,Zone List Multiplier,Minimum X {m},Maximum X {m},Minimum Y {m},Maximum Y {m},Minimum Z {m},Maximum Z {m},Ceiling Height {m},Volume {m3},Zone Inside Convection Algorithm {Simple-Detailed-CeilingDiffuser-TrombeWall},Zone Outside Convection Algorithm {Simple-Detailed-Tarp-MoWitt-DOE-2-BLAST}, Floor Area {m2},Exterior Gross Wall Area {m2},Exterior Net Wall Area {m2},Exterior Window Area {m2}, Number of Surfaces, Number of SubSurfaces, Number of Shading SubSurfaces,  Part of Total Building Area
 Zone Information, CONVENTION CENTRE EXHIBIT SPACE-SPACE FUNCTION ZN,0.0,0.00,0.00,0.00,50.00,10.85,1.90,1,1,1,0.00,100.00,0.00,25.00,0.00,3.80,3.80,7125.00,TARP,TARP,1875.00,0.00,0.00,0.00,6,0,0,Yes
 Zone Information, DORMITORY LIVING QUARTERS-SPACE FUNCTION ZN,0.0,75.00,25.00,0.00,89.15,50.00,1.90,1,1,1,75.00,100.00,0.00,100.00,0.00,3.80,3.80,7125.00,TARP,TARP,1875.00,0.00,0.00,0.00,6,0,0,Yes
 Zone Information, DWELLING UNITS GENERAL-SPACE FUNCTION ZN,0.0,25.00,75.00,0.00,50.00,89.15,1.90,1,1,1,0.00,100.00,75.00,100.00,0.00,3.80,3.80,7125.00,TARP,TARP,1875.00,0.00,0.00,0.00,6,0,0,Yes
 Zone Information, DWELLING UNITS LONG-TERM-SPACE FUNCTION ZN,0.0,0.00,0.00,0.00,10.85,50.00,1.90,1,1,1,0.00,25.00,0.00,100.00,0.00,3.80,3.80,7125.00,TARP,TARP,1875.00,0.00,0.00,0.00,6,0,0,Yes
 Zone Information, WORKSHOP-SPACE FUNCTION ZN,0.0,25.00,25.00,0.00,50.00,50.00,1.90,1,1,1,25.00,75.00,25.00,75.00,0.00,3.80,3.80,9500.00,TARP,TARP,2500.00,0.00,0.00,0.00,6,0,0,Yes
! <Zone Internal Gains Nominal>,Zone Name, Floor Area {m2},# Occupants,Area per Occupant {m2/person},Occupant per Area {person/m2},Interior Lighting {W/m2},Electric Load {W/m2},Gas Load {W/m2},Other Load {W/m2},Hot Water Eq {W/m2},Steam Equipment {W/m2},Sum Loads per Area {W/m2},Outdoor Controlled Baseboard Heat
 Zone Internal Gains Nominal, CONVENTION CENTRE EXHIBIT SPACE-SPACE FUNCTION ZN,1875.00,187.6,9.996,0.100,15.706,2.501,0.000,0.000,0.000,0.000,18.207,No
 Zone Internal Gains Nominal, DORMITORY LIVING QUARTERS-SPACE FUNCTION ZN,1875.00,75.0,24.991,4.001E-002,4.202,2.501,0.000,0.000,0.000,0.000,6.702,No
 Zone Internal Gains Nominal, DWELLING UNITS GENERAL-SPACE FUNCTION ZN,1875.00,75.0,24.991,4.001E-002,5.002,5.002,0.000,0.000,0.000,0.000,10.004,No
 Zone Internal Gains Nominal, DWELLING UNITS LONG-TERM-SPACE FUNCTION ZN,1875.00,75.0,24.991,4.001E-002,5.002,2.501,0.000,0.000,0.000,0.000,7.503,No
 Zone Internal Gains Nominal, WORKSHOP-SPACE FUNCTION ZN,2500.00,83.4,29.989,3.335E-002,17.206,10.004,0.000,0.000,0.000,0.000,27.210,No
! <People Internal Gains Nominal>,Name,Schedule Name,Zone Name,Zone Floor Area {m2},# Zone Occupants,Number of People {},People/Floor Area {person/m2},Floor Area per person {m2/person},Fraction Radiant,Fraction Convected,Sensible Fraction Calculation,Activity level,ASHRAE 55 Warnings,Carbon Dioxide Generation Rate,Nominal Minimum Number of People,Nominal Maximum Number of People
 People Internal Gains Nominal, CONVENTION CENTRE EXHIBIT SPACE-SPACE FUNCTION ZN SPACE FUNCTION CONVENTION CENTRE EXHIBIT SPACE PEOPLE,NECB-C-OCCUPANCY,CONVENTION CENTRE EXHIBIT SPACE-SPACE FUNCTION ZN,1875.00,187.6,187.6,0.100,9.996,0.300,0.700,AutoCalculate,NECB-ACTIVITY,No,3.8200E-008,0,169
 People Internal Gains Nominal, DORMITORY LIVING QUARTERS-SPACE FUNCTION ZN SPACE FUNCTION DORMITORY LIVING QUARTERS PEOPLE,NECB-G-OCCUPANCY,DORMITORY LIVING QUARTERS-SPACE FUNCTION ZN,1875.00,75.0,75.0,4.001E-002,24.991,0.300,0.700,AutoCalculate,NECB-ACTIVITY,No,3.8200E-008,23,68
 People Internal Gains Nominal, DWELLING UNITS GENERAL-SPACE FUNCTION ZN SPACE FUNCTION DWELLING UNITS GENERAL PEOPLE,NECB-G-OCCUPANCY,DWELLING UNITS GENERAL-SPACE FUNCTION ZN,1875.00,75.0,75.0,4.001E-002,24.991,0.300,0.700,AutoCalculate,NECB-ACTIVITY,No,3.8200E-008,23,68
 People Internal Gains Nominal, DWELLING UNITS LONG-TERM-SPACE FUNCTION ZN SPACE FUNCTION DWELLING UNITS LONG-TERM PEOPLE,NECB-J-OCCUPANCY,DWELLING UNITS LONG-TERM-SPACE FUNCTION ZN,1875.00,75.0,75.0,4.001E-002,24.991,0.300,0.700,AutoCalculate,NECB-ACTIVITY,No,3.8200E-008,45,68
 People Internal Gains Nominal, WORKSHOP-SPACE FUNCTION ZN SPACE FUNCTION WORKSHOP PEOPLE,NECB-A-OCCUPANCY,WORKSHOP-SPACE FUNCTION ZN,2500.00,83.4,83.4,3.335E-002,29.989,0.300,0.700,AutoCalculate,NECB-ACTIVITY,No,3.8200E-008,0,75
! <Lights Internal Gains Nominal>,Name,Schedule Name,Zone Name,Zone Floor Area {m2},# Zone Occupants,Lighting Level {W},Lights/Floor Area {W/m2},Lights per person {W/person},Fraction Return Air,Fraction Radiant,Fraction Short Wave,Fraction Convected,Fraction Replaceable,End-Use Category,Nominal Minimum Lighting Level {W},Nominal Maximum Lighting Level {W}
 Lights Internal Gains Nominal, CONVENTION CENTRE EXHIBIT SPACE-SPACE FUNCTION ZN SPACE FUNCTION CONVENTION CENTRE EXHIBIT SPACE LIGHTS,NECB-C-OCCUPANCY-NECB-C-LIGHTING-0.0-0.0-0.67-LIGHT RULESET,CONVENTION CENTRE EXHIBIT SPACE-SPACE FUNCTION ZN,1875.00,187.6,29448.198,15.706,157.000,0.000,0.500,0.200,0.300,1.000,General,1472.410,26503.378
 Lights Internal Gains Nominal, DORMITORY LIVING QUARTERS-SPACE FUNCTION ZN SPACE FUNCTION DORMITORY LIVING QUARTERS LIGHTS,NECB-G-LIGHTING,DORMITORY LIVING QUARTERS-SPACE FUNCTION ZN,1875.00,75.0,7877.862,4.202,105.000,0.000,0.500,0.200,0.300,1.000,General,0.000,7090.076
 Lights Internal Gains Nominal, DWELLING UNITS GENERAL-SPACE FUNCTION ZN SPACE FUNCTION DWELLING UNITS GENERAL LIGHTS,NECB-G-LIGHTING,DWELLING UNITS GENERAL-SPACE FUNCTION ZN,1875.00,75.0,9378.407,5.002,125.000,0.000,0.500,0.200,0.300,1.000,General,0.000,8440.566
 Lights Internal Gains Nominal, DWELLING UNITS LONG-TERM-SPACE FUNCTION ZN SPACE FUNCTION DWELLING UNITS LONG-TERM LIGHTS,NECB-J-LIGHTING,DWELLING UNITS LONG-TERM-SPACE FUNCTION ZN,1875.00,75.0,9378.407,5.002,125.000,0.000,0.500,0.200,0.300,1.000,General,937.841,6564.885
 Lights Internal Gains Nominal, WORKSHOP-SPACE FUNCTION ZN SPACE FUNCTION WORKSHOP LIGHTS,NECB-A-OCCUPANCY-NECB-A-LIGHTING-0.0-0.0-0.67-LIGHT RULESET,WORKSHOP-SPACE FUNCTION ZN,2500.00,83.4,43015.627,17.206,516.000,0.000,0.500,0.200,0.300,1.000,General,2150.781,38714.064
! <ElectricEquipment Internal Gains Nominal>,Name,Schedule Name,Zone Name,Zone Floor Area {m2},# Zone Occupants,Equipment Level {W},Equipment/Floor Area {W/m2},Equipment per person {W/person},Fraction Latent,Fraction Radiant,Fraction Lost,Fraction Convected,End-Use SubCategory,Nominal Minimum Equipment Level {W},Nominal Maximum Equipment Level {W}
 ElectricEquipment Internal Gains Nominal, CONVENTION CENTRE EXHIBIT SPACE-SPACE FUNCTION ZN SPACE FUNCTION CONVENTION CENTRE EXHIBIT SPACE ELEC EQUIP,NECB-C-ELECTRIC-EQUIPMENT,CONVENTION CENTRE EXHIBIT SPACE-SPACE FUNCTION ZN,1875.00,187.6,4689.204,2.501,25.000,0.000,0.500,0.000,0.500,General,234.460,4220.283
 ElectricEquipment Internal Gains Nominal, DORMITORY LIVING QUARTERS-SPACE FUNCTION ZN SPACE FUNCTION DORMITORY LIVING QUARTERS ELEC EQUIP,NECB-G-ELECTRIC-EQUIPMENT,DORMITORY LIVING QUARTERS-SPACE FUNCTION ZN,1875.00,75.0,4689.204,2.501,62.500,0.000,0.500,0.000,0.500,General,937.841,4220.283
 ElectricEquipment Internal Gains Nominal, DWELLING UNITS GENERAL-SPACE FUNCTION ZN SPACE FUNCTION DWELLING UNITS GENERAL ELEC EQUIP,NECB-G-ELECTRIC-EQUIPMENT,DWELLING UNITS GENERAL-SPACE FUNCTION ZN,1875.00,75.0,9378.407,5.002,125.000,0.000,0.500,0.000,0.500,General,1875.681,8440.566
 ElectricEquipment Internal Gains Nominal, DWELLING UNITS LONG-TERM-SPACE FUNCTION ZN SPACE FUNCTION DWELLING UNITS LONG-TERM ELEC EQUIP,NECB-J-ELECTRIC-EQUIPMENT,DWELLING UNITS LONG-TERM-SPACE FUNCTION ZN,1875.00,75.0,4689.204,2.501,62.500,0.000,0.500,0.000,0.500,General,468.920,3282.442
 ElectricEquipment Internal Gains Nominal, WORKSHOP-SPACE FUNCTION ZN SPACE FUNCTION WORKSHOP ELEC EQUIP,NECB-A-ELECTRIC-EQUIPMENT,WORKSHOP-SPACE FUNCTION ZN,2500.00,83.4,25009.086,10.004,300.000,0.000,0.500,0.000,0.500,General,5001.817,22508.177
! <Shadowing/Sun Position Calculations Annual Simulations>, Calculation Method, Value {days}, Allowable Number Figures in Shadow Overlap {}, Polygon Clipping Algorithm, Sky Diffuse Modeling Algorithm, External Shading Calculation Method, Output External Shading Calculation Results, Disable Self-Shading Within Shading Zone Groups, Disable Self-Shading From Shading Zone Groups to Other Zones
Shadowing/Sun Position Calculations Annual Simulations,AverageOverDaysInFrequency,20,15000,SutherlandHodgman,SimpleSkyDiffuseModeling,InternalCalculation,No,No,No
! <RoomAir Model>, Zone Name, Mixing/Mundt/UCSDDV/UCSDCV/UCSDUFI/UCSDUFE/User Defined
RoomAir Model,CONVENTION CENTRE EXHIBIT SPACE-SPACE FUNCTION ZN,Mixing/Well-Stirred
RoomAir Model,DORMITORY LIVING QUARTERS-SPACE FUNCTION ZN,Mixing/Well-Stirred
RoomAir Model,DWELLING UNITS GENERAL-SPACE FUNCTION ZN,Mixing/Well-Stirred
RoomAir Model,DWELLING UNITS LONG-TERM-SPACE FUNCTION ZN,Mixing/Well-Stirred
RoomAir Model,WORKSHOP-SPACE FUNCTION ZN,Mixing/Well-Stirred
! <AirflowNetwork Model:Control>, No Multizone or Distribution/Multizone with Distribution/Multizone without Distribution/Multizone with Distribution only during Fan Operation
AirflowNetwork Model:Control,NoMultizoneOrDistribution
! <Zone Volume Capacitance Multiplier>, Sensible Heat Capacity Multiplier, Moisture Capacity Multiplier, Carbon Dioxide Capacity Multiplier, Generic Contaminant Capacity Multiplier
Zone Volume Capacitance Multiplier,   1.000 ,   1.000,   1.000,   1.000
! <Load Timesteps in Zone Design Calculation Averaging Window>, Value
 Load Timesteps in Zone Design Calculation Averaging Window,    6
! <Heating Sizing Factor Information>, Sizing Factor ID, Value
 Heating Sizing Factor Information, Global,   1.2500    
 Heating Sizing Factor Information, Zone CONVENTION CENTRE EXHIBIT SPACE-SPACE FUNCTION ZN,   1.2500    
 Heating Sizing Factor Information, Zone DORMITORY LIVING QUARTERS-SPACE FUNCTION ZN,   1.2500    
 Heating Sizing Factor Information, Zone DWELLING UNITS GENERAL-SPACE FUNCTION ZN,   1.2500    
 Heating Sizing Factor Information, Zone DWELLING UNITS LONG-TERM-SPACE FUNCTION ZN,   1.2500    
 Heating Sizing Factor Information, Zone WORKSHOP-SPACE FUNCTION ZN,   1.2500    
! <Cooling Sizing Factor Information>, Sizing Factor ID, Value
 Cooling Sizing Factor Information, Global,   1.1500    
 Cooling Sizing Factor Information, Zone CONVENTION CENTRE EXHIBIT SPACE-SPACE FUNCTION ZN,   1.1500    
 Cooling Sizing Factor Information, Zone DORMITORY LIVING QUARTERS-SPACE FUNCTION ZN,   1.1500    
 Cooling Sizing Factor Information, Zone DWELLING UNITS GENERAL-SPACE FUNCTION ZN,   1.1500    
 Cooling Sizing Factor Information, Zone DWELLING UNITS LONG-TERM-SPACE FUNCTION ZN,   1.1500    
 Cooling Sizing Factor Information, Zone WORKSHOP-SPACE FUNCTION ZN,   1.1500    
! <Zone Sizing Information>, Zone Name, Load Type, Calc Des Load {W}, User Des Load {W}, Calc Des Air Flow Rate {m3/s}, User Des Air Flow Rate {m3/s}, Design Day Name, Date/Time of Peak, Temperature at Peak {C}, Humidity Ratio at Peak {kgWater/kgDryAir}, Floor Area {m2}, # Occupants, Calc Outdoor Air Flow Rate {m3/s}, Calc DOAS Heat Addition Rate {W}
 Zone Sizing Information, CONVENTION CENTRE EXHIBIT SPACE-SPACE FUNCTION ZN, Cooling, 32225.46979, 37059.29026, 2.74003, 3.15103, FORT MCMURRAY AP ANN CLG .4% CONDNS DB=>MWB, 7/21 17:00:00, 27.16400, 8.76969E-003, 1875.00000, 187.56814, 1.61925, 0.00000
 Zone Sizing Information, CONVENTION CENTRE EXHIBIT SPACE-SPACE FUNCTION ZN, Heating, 1538.10829, 1922.63537, 7.05801E-002, 1.61925, FORT MCMURRAY AP ANN HTG 99.6% CONDNS DB, 1/21 08:10:00, -36.20000, 1.25811E-004, 1875.00000, 187.56814, 1.61925, 0.00000
 Zone Sizing Information, DORMITORY LIVING QUARTERS-SPACE FUNCTION ZN, Cooling, 11083.64267, 12746.18907, 0.94239, 1.08375, FORT MCMURRAY AP ANN CLG .4% CONDNS DB=>MWB, 7/21 20:10:00, 22.51400, 8.76969E-003, 1875.00000, 75.02726, 1.04775, 0.00000
 Zone Sizing Information, DORMITORY LIVING QUARTERS-SPACE FUNCTION ZN, Heating, 0.00000, 0.00000, 0.00000, 1.04775, FORT MCMURRAY AP ANN HTG 99.6% CONDNS DB, , -36.20000, 1.25811E-004, 1875.00000, 75.02726, 1.04775, 0.00000
 Zone Sizing Information, DWELLING UNITS GENERAL-SPACE FUNCTION ZN, Cooling, 15210.47116, 17492.04183, 1.29325, 1.48723, FORT MCMURRAY AP ANN CLG .4% CONDNS DB=>MWB, 7/21 20:00:00, 22.70000, 8.76969E-003, 1875.00000, 75.02726, 0.74295, 0.00000
 Zone Sizing Information, DWELLING UNITS GENERAL-SPACE FUNCTION ZN, Heating, 0.00000, 0.00000, 0.00000, 0.74295, FORT MCMURRAY AP ANN HTG 99.6% CONDNS DB, , -36.20000, 1.25811E-004, 1875.00000, 75.02726, 0.74295, 0.00000
 Zone Sizing Information, DWELLING UNITS LONG-TERM-SPACE FUNCTION ZN, Cooling, 9151.22242, 10523.90578, 0.77802, 1.04775, FORT MCMURRAY AP ANN CLG .4% CONDNS DB=>MWB, 7/21 21:00:00, 21.58400, 8.76969E-003, 1875.00000, 75.02726, 1.04775, 0.00000
 Zone Sizing Information, DWELLING UNITS LONG-TERM-SPACE FUNCTION ZN, Heating, 0.00000, 0.00000, 0.00000, 1.04775, FORT MCMURRAY AP ANN HTG 99.6% CONDNS DB, , -36.20000, 1.25811E-004, 1875.00000, 75.02726, 1.04775, 0.00000
 Zone Sizing Information, WORKSHOP-SPACE FUNCTION ZN, Cooling, 50979.79940, 58626.76931, 4.33416, 4.98428, FORT MCMURRAY AP ANN CLG .4% CONDNS DB=>MWB, 7/21 17:00:00, 27.16400, 8.76969E-003, 2500.00000, 83.36362, 4.82600, 0.00000
 Zone Sizing Information, WORKSHOP-SPACE FUNCTION ZN, Heating, 0.00000, 0.00000, 0.00000, 4.82600, FORT MCMURRAY AP ANN HTG 99.6% CONDNS DB, , -36.20000, 1.25811E-004, 2500.00000, 83.36362, 4.82600, 0.00000
! <Component Sizing Information>, Component Type, Component Name, Input Field Description, Value
 Component Sizing Information, ZoneHVAC:IdealLoadsAirSystem, ZONE HVAC IDEAL LOADS AIR SYSTEM 1, User-Specified Maximum Heating Air Flow Rate [m3/s], 0.00000
 Component Sizing Information, ZoneHVAC:IdealLoadsAirSystem, ZONE HVAC IDEAL LOADS AIR SYSTEM 1, User-Specified Maximum Cooling Air Flow Rate [m3/s], 0.00000
 Component Sizing Information, ZoneHVAC:IdealLoadsAirSystem, ZONE HVAC IDEAL LOADS AIR SYSTEM 2, User-Specified Maximum Heating Air Flow Rate [m3/s], 0.00000
 Component Sizing Information, ZoneHVAC:IdealLoadsAirSystem, ZONE HVAC IDEAL LOADS AIR SYSTEM 2, User-Specified Maximum Cooling Air Flow Rate [m3/s], 0.00000
 Component Sizing Information, ZoneHVAC:IdealLoadsAirSystem, ZONE HVAC IDEAL LOADS AIR SYSTEM 3, User-Specified Maximum Heating Air Flow Rate [m3/s], 0.00000
 Component Sizing Information, ZoneHVAC:IdealLoadsAirSystem, ZONE HVAC IDEAL LOADS AIR SYSTEM 3, User-Specified Maximum Cooling Air Flow Rate [m3/s], 0.00000
 Component Sizing Information, ZoneHVAC:IdealLoadsAirSystem, ZONE HVAC IDEAL LOADS AIR SYSTEM 4, User-Specified Maximum Heating Air Flow Rate [m3/s], 0.00000
 Component Sizing Information, ZoneHVAC:IdealLoadsAirSystem, ZONE HVAC IDEAL LOADS AIR SYSTEM 4, User-Specified Maximum Cooling Air Flow Rate [m3/s], 0.00000
 Component Sizing Information, ZoneHVAC:IdealLoadsAirSystem, ZONE HVAC IDEAL LOADS AIR SYSTEM 5, User-Specified Maximum Heating Air Flow Rate [m3/s], 0.00000
 Component Sizing Information, ZoneHVAC:IdealLoadsAirSystem, ZONE HVAC IDEAL LOADS AIR SYSTEM 5, User-Specified Maximum Cooling Air Flow Rate [m3/s], 0.00000
! <Environment>,Environment Name,Environment Type, Start Date, End Date, Start DayOfWeek, Duration {#days}, Source:Start DayOfWeek,  Use Daylight Saving, Use Holidays, Apply Weekend Holiday Rule,  Use Rain Values, Use Snow Values
! <Environment:Special Days>, Special Day Name, Special Day Type, Source, Start Date, Duration {#days}
! <Environment:Daylight Saving>, Daylight Saving Indicator, Source, Start Date, End Date
! <Environment:WarmupDays>, NumberofWarmupDays
Environment,FORT MCMURRAY AP ANN CLG .4% CONDNS DB=>MWB,SizingPeriod:DesignDay,07/21,07/21,SummerDesignDay,1,N/A,N/A,N/A,N/A,N/A,N/A
Environment:Daylight Saving,No,SizingPeriod:DesignDay
! <Environment:Design Day Data>, Max Dry-Bulb Temp {C}, Temp Range {dC}, Temp Range Ind Type, Hum Ind Value at Max Temp, Hum Ind Type,Pressure {Pa}, Wind Direction {deg CW from N}, Wind Speed {m/s}, Clearness, Rain, Snow
! <Environment:Design Day Misc>,DayOfYear,ASHRAE A Coeff,ASHRAE B Coeff,ASHRAE C Coeff,Solar Constant-Annual Variation,Eq of Time {minutes}, Solar Declination Angle {deg}, Solar Model
Environment:Design Day Data,28.90,12.40,DefaultMultipliers,96969,250,3.7,0.00,No,No
Environment:Design Day Misc,202,1084.4,0.2082,0.1365,1.0,-6.23,20.6,ASHRAETau
Environment:WarmupDays,  6
! <Tabular Report>,Style,Unit Conversion
Tabular Report,HTML,None
! <Warmup Convergence Information>,Zone Name,Environment Type/Name,Average Warmup Temperature Difference {deltaC},Std Dev Warmup Temperature Difference {deltaC},Max Temperature Pass/Fail Convergence,Min Temperature Pass/Fail Convergence,Average Warmup Load Difference {W},Std Dev Warmup Load Difference {W},Heating Load Pass/Fail Convergence,Cooling Load Pass/Fail Convergence
 Warmup Convergence Information,CONVENTION CENTRE EXHIBIT SPACE-SPACE FUNCTION ZN,SizingPeriod: FORT MCMURRAY AP ANN CLG .4% CONDNS DB=>MWB,5.8741039616E-002,0.1943651039,Pass,Pass,5.1702739630E-002,0.2056003795,Pass,Pass
 Warmup Convergence Information,DORMITORY LIVING QUARTERS-SPACE FUNCTION ZN,SizingPeriod: FORT MCMURRAY AP ANN CLG .4% CONDNS DB=>MWB,3.2790100568E-002,5.4861594338E-002,Pass,Pass,3.3276360805E-002,8.0413353444E-002,Pass,Pass
 Warmup Convergence Information,DWELLING UNITS GENERAL-SPACE FUNCTION ZN,SizingPeriod: FORT MCMURRAY AP ANN CLG .4% CONDNS DB=>MWB,2.0454305985E-002,4.4637021333E-002,Pass,Pass,4.4470285852E-002,0.1857506467,Pass,Pass
 Warmup Convergence Information,DWELLING UNITS LONG-TERM-SPACE FUNCTION ZN,SizingPeriod: FORT MCMURRAY AP ANN CLG .4% CONDNS DB=>MWB,2.7777777778E-002,4.6918080024E-002,Pass,Pass,2.5012338771E-002,5.7208973743E-002,Pass,Pass
 Warmup Convergence Information,WORKSHOP-SPACE FUNCTION ZN,SizingPeriod: FORT MCMURRAY AP ANN CLG .4% CONDNS DB=>MWB,8.2499062082E-002,0.2507700662,Pass,Pass,5.7533544905E-002,0.1998747192,Pass,Pass
Environment,FORT MCMURRAY AP ANN HTG 99.6% CONDNS DB,SizingPeriod:DesignDay,01/21,01/21,WinterDesignDay,1,N/A,N/A,N/A,N/A,N/A,N/A
Environment:Daylight Saving,No,SizingPeriod:DesignDay
Environment:Design Day Data,-36.20,0.00,DefaultMultipliers,96969,90,1.0,0.00,No,No
Environment:Design Day Misc, 21,1229.0,0.1415,5.7310E-002,1.0,-11.15,-20.1,ASHRAEClearSky
Environment:WarmupDays,  6
 Warmup Convergence Information,CONVENTION CENTRE EXHIBIT SPACE-SPACE FUNCTION ZN,SizingPeriod: FORT MCMURRAY AP ANN HTG 99.6% CONDNS DB,5.6910833227E-002,0.3460503377,Pass,Pass,0.6292994235,3.9752830133,Pass,Pass
 Warmup Convergence Information,DORMITORY LIVING QUARTERS-SPACE FUNCTION ZN,SizingPeriod: FORT MCMURRAY AP ANN HTG 99.6% CONDNS DB,5.9375081920E-002,0.3412560636,Pass,Pass,0.3644726722,1.4078643058,Pass,Pass
 Warmup Convergence Information,DWELLING UNITS GENERAL-SPACE FUNCTION ZN,SizingPeriod: FORT MCMURRAY AP ANN HTG 99.6% CONDNS DB,6.2325171176E-002,0.3440584279,Pass,Pass,0.2420006737,0.9142895268,Pass,Pass
 Warmup Convergence Information,DWELLING UNITS LONG-TERM-SPACE FUNCTION ZN,SizingPeriod: FORT MCMURRAY AP ANN HTG 99.6% CONDNS DB,6.8093678844E-015,6.7056000177E-015,Pass,Pass,4.5208975196E-002,0.1272672200,Pass,Pass
 Warmup Convergence Information,WORKSHOP-SPACE FUNCTION ZN,SizingPeriod: FORT MCMURRAY AP ANN HTG 99.6% CONDNS DB,5.5555555556E-002,0.3732774040,Pass,Pass,0.2748472421,1.3856369426,Pass,Pass
! <Program Control Information:Threads/Parallel Sims>, Threading Supported,Maximum Number of Threads, Env Set Threads (OMP_NUM_THREADS), EP Env Set Threads (EP_OMP_NUM_THREADS), IDF Set Threads, Number of Threads Used (Interior Radiant Exchange), Number Nominal Surfaces, Number Parallel Sims
Program Control:Threads/Parallel Sims, No,1, N/A, N/A, N/A, N/A, N/A, N/A
End of Data
