{
   "completed_at" : "20190328T135407Z",
   "completed_status" : "Success",
   "created_at" : "20190328T135403Z",
   "current_step" : 0,
   "eplusout_err" : "Program Version,EnergyPlus, Version 8.9.0-eba93e8e1b, YMD=2019.03.28 13:54,\n   ************* Beginning Zone Sizing Calculations\n   ** Warning ** ProcessScheduleInput: Schedule:Day:Interval=\"SCHEDULE DAY 1\", Blank Schedule Type Limits Name input -- will not be validated.\n   ** Warning ** ProcessScheduleInput: Schedule:Day:Interval=\"SCHEDULE DAY 2\", Blank Schedule Type Limits Name input -- will not be validated.\n   ** Warning ** ProcessScheduleInput: Schedule:Constant=\"ALWAYS OFF DISCRETE\", Blank Schedule Type Limits Name input -- will not be validated.\n   ** Warning ** ProcessScheduleInput: Schedule:Constant=\"ALWAYS ON CONTINUOUS\", Blank Schedule Type Limits Name input -- will not be validated.\n   ** Warning ** CheckUsedConstructions: There are 27 nominally unused constructions in input.\n   **   ~~~   ** For explicit details on each unused construction, use Output:Diagnostics,DisplayExtraWarnings;\n   ** Warning ** GetInternalHeatGains: People Combination of ZoneList and Object Name generate a name too long.\n   **   ~~~   ** Object Name=\"SPACE FUNCTION GYMNASIUM/FITNESS CENTRE EXERCISE AREA PEOPLE\".\n   **   ~~~   ** ZoneList/Zone Name=\"GYMNASIUM/FITNESS CENTRE EXERCISE AREA-SPACE FUNCTION ZN\".\n   **   ~~~   ** Item length=[116] > Maximum Length=[100]. You may need to shorten the names.\n   **   ~~~   ** Shortening the Object Name by [17] characters will assure uniqueness for this ZoneList.\n   **   ~~~   ** name that will be used (may be needed in reporting)=\"GYMNASIUM/FITNESS CENTRE EXERCISE AREA-SPACE FUNCTION ZN SPACE FUNCTION GYMNASIUM/FITNESS CENTRE EXERCISE AREA PEOPLE\".\n   ** Warning ** GetInternalHeatGains: People Combination of ZoneList and Object Name generate a name too long.\n   **   ~~~   ** Object Name=\"SPACE FUNCTION GYMNASIUM/FITNESS CENTRE PLAYING AREA PEOPLE\".\n   **   ~~~   ** ZoneList/Zone Name=\"GYMNASIUM/FITNESS CENTRE PLAYING AREA-SPACE FUNCTION ZN\".\n   **   ~~~   ** Item length=[114] > Maximum Length=[100]. You may need to shorten the names.\n   **   ~~~   ** Shortening the Object Name by [15] characters will assure uniqueness for this ZoneList.\n   **   ~~~   ** name that will be used (may be needed in reporting)=\"GYMNASIUM/FITNESS CENTRE PLAYING AREA-SPACE FUNCTION ZN SPACE FUNCTION GYMNASIUM/FITNESS CENTRE PLAYING AREA PEOPLE\".\n   ** Warning ** GetInternalHeatGains: People Combination of ZoneList and Object Name generate a name too long.\n   **   ~~~   ** Object Name=\"SPACE FUNCTION HEALTH CARE FACILITY EXAM/TREATMENT ROOM PEOPLE\".\n   **   ~~~   ** ZoneList/Zone Name=\"HEALTH CARE FACILITY EXAM/TREATMENT ROOM-SPACE FUNCTION ZN\".\n   **   ~~~   ** Item length=[120] > Maximum Length=[100]. You may need to shorten the names.\n   **   ~~~   ** Shortening the Object Name by [21] characters will assure uniqueness for this ZoneList.\n   **   ~~~   ** name that will be used (may be needed in reporting)=\"HEALTH CARE FACILITY EXAM/TREATMENT ROOM-SPACE FUNCTION ZN SPACE FUNCTION HEALTH CARE FACILITY EXAM/TREATMENT ROOM PEOPLE\".\n   ** Warning ** GetInternalHeatGains: People Combination of ZoneList and Object Name generate a name too long.\n   **   ~~~   ** Object Name=\"SPACE FUNCTION HEALTH CARE FACILITY IMAGING ROOM PEOPLE\".\n   **   ~~~   ** ZoneList/Zone Name=\"HEALTH CARE FACILITY IMAGING ROOM-SPACE FUNCTION ZN\".\n   **   ~~~   ** Item length=[106] > Maximum Length=[100]. You may need to shorten the names.\n   **   ~~~   ** Shortening the Object Name by [7] characters will assure uniqueness for this ZoneList.\n   **   ~~~   ** name that will be used (may be needed in reporting)=\"HEALTH CARE FACILITY IMAGING ROOM-SPACE FUNCTION ZN SPACE FUNCTION HEALTH CARE FACILITY IMAGING ROOM PEOPLE\".\n   ** Warning ** GetInternalHeatGains: People Combination of ZoneList and Object Name generate a name too long.\n   **   ~~~   ** Object Name=\"SPACE FUNCTION HEALTH CARE FACILITY MEDICAL SUPPLY ROOM PEOPLE\".\n   **   ~~~   ** ZoneList/Zone Name=\"HEALTH CARE FACILITY MEDICAL SUPPLY ROOM-SPACE FUNCTION ZN\".\n   **   ~~~   ** Item length=[120] > Maximum Length=[100]. You may need to shorten the names.\n   **   ~~~   ** Shortening the Object Name by [21] characters will assure uniqueness for this ZoneList.\n   **   ~~~   ** name that will be used (may be needed in reporting)=\"HEALTH CARE FACILITY MEDICAL SUPPLY ROOM-SPACE FUNCTION ZN SPACE FUNCTION HEALTH CARE FACILITY MEDICAL SUPPLY ROOM PEOPLE\".\n   ** Warning ** GetInternalHeatGains: People Combination of ZoneList and Object Name generate a name too long.\n   **   ~~~   ** Object Name=\"SPACE FUNCTION HEALTH CARE FACILITY NURSES STATION PEOPLE\".\n   **   ~~~   ** ZoneList/Zone Name=\"HEALTH CARE FACILITY NURSES STATION-SPACE FUNCTION ZN\".\n   **   ~~~   ** Item length=[110] > Maximum Length=[100]. You may need to shorten the names.\n   **   ~~~   ** Shortening the Object Name by [11] characters will assure uniqueness for this ZoneList.\n   **   ~~~   ** name that will be used (may be needed in reporting)=\"HEALTH CARE FACILITY NURSES STATION-SPACE FUNCTION ZN SPACE FUNCTION HEALTH CARE FACILITY NURSES STATION PEOPLE\".\n   ** Warning ** GetInternalHeatGains: People Combination of ZoneList and Object Name generate a name too long.\n   **   ~~~   ** Object Name=\"SPACE FUNCTION HEALTH CARE FACILITY OPERATING ROOM PEOPLE\".\n   **   ~~~   ** ZoneList/Zone Name=\"HEALTH CARE FACILITY OPERATING ROOM-SPACE FUNCTION ZN\".\n   **   ~~~   ** Item length=[110] > Maximum Length=[100]. You may need to shorten the names.\n   **   ~~~   ** Shortening the Object Name by [11] characters will assure uniqueness for this ZoneList.\n   **   ~~~   ** name that will be used (may be needed in reporting)=\"HEALTH CARE FACILITY OPERATING ROOM-SPACE FUNCTION ZN SPACE FUNCTION HEALTH CARE FACILITY OPERATING ROOM PEOPLE\".\n   ** Warning ** GetInternalHeatGains: People Combination of ZoneList and Object Name generate a name too long.\n   **   ~~~   ** Object Name=\"SPACE FUNCTION HEALTH CARE FACILITY PATIENT ROOM PEOPLE\".\n   **   ~~~   ** ZoneList/Zone Name=\"HEALTH CARE FACILITY PATIENT ROOM-SPACE FUNCTION ZN\".\n   **   ~~~   ** Item length=[106] > Maximum Length=[100]. You may need to shorten the names.\n   **   ~~~   ** Shortening the Object Name by [7] characters will assure uniqueness for this ZoneList.\n   **   ~~~   ** name that will be used (may be needed in reporting)=\"HEALTH CARE FACILITY PATIENT ROOM-SPACE FUNCTION ZN SPACE FUNCTION HEALTH CARE FACILITY PATIENT ROOM PEOPLE\".\n   ** Warning ** GetInternalHeatGains: People Combination of ZoneList and Object Name generate a name too long.\n   **   ~~~   ** Object Name=\"SPACE FUNCTION HEALTH CARE FACILITY PHYSICAL THERAPY ROOM PEOPLE\".\n   **   ~~~   ** ZoneList/Zone Name=\"HEALTH CARE FACILITY PHYSICAL THERAPY ROOM-SPACE FUNCTION ZN\".\n   **   ~~~   ** Item length=[124] > Maximum Length=[100]. You may need to shorten the names.\n   **   ~~~   ** Shortening the Object Name by [25] characters will assure uniqueness for this ZoneList.\n   **   ~~~   ** name that will be used (may be needed in reporting)=\"HEALTH CARE FACILITY PHYSICAL THERAPY ROOM-SPACE FUNCTION ZN SPACE FUNCTION HEALTH CARE FACILITY PHYSICAL THERAPY ROOM PEOPLE\".\n   ** Warning ** GetInternalHeatGains: People Combination of ZoneList and Object Name generate a name too long.\n   **   ~~~   ** Object Name=\"SPACE FUNCTION HEALTH CARE FACILITY RECOVERY ROOM PEOPLE\".\n   **   ~~~   ** ZoneList/Zone Name=\"HEALTH CARE FACILITY RECOVERY ROOM-SPACE FUNCTION ZN\".\n   **   ~~~   ** Item length=[108] > Maximum Length=[100]. You may need to shorten the names.\n   **   ~~~   ** Shortening the Object Name by [9] characters will assure uniqueness for this ZoneList.\n   **   ~~~   ** name that will be used (may be needed in reporting)=\"HEALTH CARE FACILITY RECOVERY ROOM-SPACE FUNCTION ZN SPACE FUNCTION HEALTH CARE FACILITY RECOVERY ROOM PEOPLE\".\n   ** Warning ** GetInternalHeatGains: People Combination of ZoneList and Object Name generate a name too long.\n   **   ~~~   ** Object Name=\"SPACE FUNCTION MANUFACTURING FACILITY DETAILED MANUFACTURING AREA PEOPLE\".\n   **   ~~~   ** ZoneList/Zone Name=\"MANUFACTURING FACILITY DETAILED MANUFACTURING AREA-SPACE FUNCTION ZN\".\n   **   ~~~   ** Item length=[140] > Maximum Length=[100]. You may need to shorten the names.\n   **   ~~~   ** Shortening the Object Name by [41] characters will assure uniqueness for this ZoneList.\n   **   ~~~   ** name that will be used (may be needed in reporting)=\"MANUFACTURING FACILITY DETAILED MANUFACTURING AREA-SPACE FUNCTION ZN SPACE FUNCTION MANUFACTURING FACILITY DETAILED MANUFACTURING AREA PEOPLE\".\n   ** Warning ** GetInternalHeatGains: People Combination of ZoneList and Object Name generate a name too long.\n   **   ~~~   ** Object Name=\"SPACE FUNCTION MANUFACTURING FACILITY EQUIPMENT ROOM PEOPLE\".\n   **   ~~~   ** ZoneList/Zone Name=\"MANUFACTURING FACILITY EQUIPMENT ROOM-SPACE FUNCTION ZN\".\n   **   ~~~   ** Item length=[114] > Maximum Length=[100]. You may need to shorten the names.\n   **   ~~~   ** Shortening the Object Name by [15] characters will assure uniqueness for this ZoneList.\n   **   ~~~   ** name that will be used (may be needed in reporting)=\"MANUFACTURING FACILITY EQUIPMENT ROOM-SPACE FUNCTION ZN SPACE FUNCTION MANUFACTURING FACILITY EQUIPMENT ROOM PEOPLE\".\n   ** Warning ** GetInternalHeatGains: People Combination of ZoneList and Object Name generate a name too long.\n   **   ~~~   ** Object Name=\"SPACE FUNCTION MANUFACTURING FACILITY EXTRA HIGH BAY AREA (> 15 M FLOOR-TO-CEILING HEIGHT) PEOPLE\".\n   **   ~~~   ** ZoneList/Zone Name=\"MANUFACTURING FACILITY EXTRA HIGH BAY AREA (> 15 M FLOOR-TO-CEILING HEIGHT)-SPACE FUNCTION ZN\".\n   **   ~~~   ** Item length=[190] > Maximum Length=[100]. You may need to shorten the names.\n   **   ~~~   ** Shortening the Object Name by [91] characters will assure uniqueness for this ZoneList.\n   **   ~~~   ** name that will be used (may be needed in reporting)=\"MANUFACTURING FACILITY EXTRA HIGH BAY AREA (> 15 M FLOOR-TO-CEILING HEIGHT)-SPACE FUNCTION ZN SPACE FUNCTION MANUFACTURING FACILITY EXTRA HIGH BAY AREA (> 15 M FLOOR-TO-CEILING HEIGHT) PEOPLE\".\n   ** Warning ** GetInternalHeatGains: People Combination of ZoneList and Object Name generate a name too long.\n   **   ~~~   ** Object Name=\"SPACE FUNCTION MANUFACTURING FACILITY HIGH BAY AREA (7.5 TO 15 M FLOOR-TO-CEILING HEIGHT) PEOPLE\".\n   **   ~~~   ** ZoneList/Zone Name=\"MANUFACTURING FACILITY HIGH BAY AREA (7.5 TO 15 M FLOOR-TO-CEILING HEIGHT)-SPACE FUNCTION ZN\".\n   **   ~~~   ** Item length=[188] > Maximum Length=[100]. You may need to shorten the names.\n   **   ~~~   ** Shortening the Object Name by [89] characters will assure uniqueness for this ZoneList.\n   **   ~~~   ** name that will be used (may be needed in reporting)=\"MANUFACTURING FACILITY HIGH BAY AREA (7.5 TO 15 M FLOOR-TO-CEILING HEIGHT)-SPACE FUNCTION ZN SPACE FUNCTION MANUFACTURING FACILITY HIGH BAY AREA (7.5 TO 15 M FLOOR-TO-CEILING HEIGHT) PEOPLE\".\n   ** Warning ** GetInternalHeatGains: People Combination of ZoneList and Object Name generate a name too long.\n   **   ~~~   ** Object Name=\"SPACE FUNCTION MANUFACTURING FACILITY LOW BAY AREA (< 7.5 M FLOOR-TO-CEILING HEIGHT) PEOPLE\".\n   **   ~~~   ** ZoneList/Zone Name=\"MANUFACTURING FACILITY LOW BAY AREA (< 7.5 M FLOOR-TO-CEILING HEIGHT)-SPACE FUNCTION ZN\".\n   **   ~~~   ** Item length=[178] > Maximum Length=[100]. You may need to shorten the names.\n   **   ~~~   ** Shortening the Object Name by [79] characters will assure uniqueness for this ZoneList.\n   **   ~~~   ** name that will be used (may be needed in reporting)=\"MANUFACTURING FACILITY LOW BAY AREA (< 7.5 M FLOOR-TO-CEILING HEIGHT)-SPACE FUNCTION ZN SPACE FUNCTION MANUFACTURING FACILITY LOW BAY AREA (< 7.5 M FLOOR-TO-CEILING HEIGHT) PEOPLE\".\n   ** Warning ** GetInternalHeatGains: Lights Combination of ZoneList and Object Name generate a name too long.\n   **   ~~~   ** Object Name=\"SPACE FUNCTION GYMNASIUM/FITNESS CENTRE EXERCISE AREA LIGHTS\".\n   **   ~~~   ** ZoneList/Zone Name=\"GYMNASIUM/FITNESS CENTRE EXERCISE AREA-SPACE FUNCTION ZN\".\n   **   ~~~   ** Item length=[116] > Maximum Length=[100]. You may need to shorten the names.\n   **   ~~~   ** Shortening the Object Name by [17] characters will assure uniqueness for this ZoneList.\n   **   ~~~   ** name that will be used (may be needed in reporting)=\"GYMNASIUM/FITNESS CENTRE EXERCISE AREA-SPACE FUNCTION ZN SPACE FUNCTION GYMNASIUM/FITNESS CENTRE EXERCISE AREA LIGHTS\".\n   ** Warning ** GetInternalHeatGains: Lights Combination of ZoneList and Object Name generate a name too long.\n   **   ~~~   ** Object Name=\"SPACE FUNCTION GYMNASIUM/FITNESS CENTRE PLAYING AREA LIGHTS\".\n   **   ~~~   ** ZoneList/Zone Name=\"GYMNASIUM/FITNESS CENTRE PLAYING AREA-SPACE FUNCTION ZN\".\n   **   ~~~   ** Item length=[114] > Maximum Length=[100]. You may need to shorten the names.\n   **   ~~~   ** Shortening the Object Name by [15] characters will assure uniqueness for this ZoneList.\n   **   ~~~   ** name that will be used (may be needed in reporting)=\"GYMNASIUM/FITNESS CENTRE PLAYING AREA-SPACE FUNCTION ZN SPACE FUNCTION GYMNASIUM/FITNESS CENTRE PLAYING AREA LIGHTS\".\n   ** Warning ** GetInternalHeatGains: Lights Combination of ZoneList and Object Name generate a name too long.\n   **   ~~~   ** Object Name=\"SPACE FUNCTION HEALTH CARE FACILITY EXAM/TREATMENT ROOM LIGHTS\".\n   **   ~~~   ** ZoneList/Zone Name=\"HEALTH CARE FACILITY EXAM/TREATMENT ROOM-SPACE FUNCTION ZN\".\n   **   ~~~   ** Item length=[120] > Maximum Length=[100]. You may need to shorten the names.\n   **   ~~~   ** Shortening the Object Name by [21] characters will assure uniqueness for this ZoneList.\n   **   ~~~   ** name that will be used (may be needed in reporting)=\"HEALTH CARE FACILITY EXAM/TREATMENT ROOM-SPACE FUNCTION ZN SPACE FUNCTION HEALTH CARE FACILITY EXAM/TREATMENT ROOM LIGHTS\".\n   ** Warning ** GetInternalHeatGains: Lights Combination of ZoneList and Object Name generate a name too long.\n   **   ~~~   ** Object Name=\"SPACE FUNCTION HEALTH CARE FACILITY IMAGING ROOM LIGHTS\".\n   **   ~~~   ** ZoneList/Zone Name=\"HEALTH CARE FACILITY IMAGING ROOM-SPACE FUNCTION ZN\".\n   **   ~~~   ** Item length=[106] > Maximum Length=[100]. You may need to shorten the names.\n   **   ~~~   ** Shortening the Object Name by [7] characters will assure uniqueness for this ZoneList.\n   **   ~~~   ** name that will be used (may be needed in reporting)=\"HEALTH CARE FACILITY IMAGING ROOM-SPACE FUNCTION ZN SPACE FUNCTION HEALTH CARE FACILITY IMAGING ROOM LIGHTS\".\n   ** Warning ** GetInternalHeatGains: Lights Combination of ZoneList and Object Name generate a name too long.\n   **   ~~~   ** Object Name=\"SPACE FUNCTION HEALTH CARE FACILITY MEDICAL SUPPLY ROOM LIGHTS\".\n   **   ~~~   ** ZoneList/Zone Name=\"HEALTH CARE FACILITY MEDICAL SUPPLY ROOM-SPACE FUNCTION ZN\".\n   **   ~~~   ** Item length=[120] > Maximum Length=[100]. You may need to shorten the names.\n   **   ~~~   ** Shortening the Object Name by [21] characters will assure uniqueness for this ZoneList.\n   **   ~~~   ** name that will be used (may be needed in reporting)=\"HEALTH CARE FACILITY MEDICAL SUPPLY ROOM-SPACE FUNCTION ZN SPACE FUNCTION HEALTH CARE FACILITY MEDICAL SUPPLY ROOM LIGHTS\".\n   ** Warning ** GetInternalHeatGains: Lights Combination of ZoneList and Object Name generate a name too long.\n   **   ~~~   ** Object Name=\"SPACE FUNCTION HEALTH CARE FACILITY NURSES STATION LIGHTS\".\n   **   ~~~   ** ZoneList/Zone Name=\"HEALTH CARE FACILITY NURSES STATION-SPACE FUNCTION ZN\".\n   **   ~~~   ** Item length=[110] > Maximum Length=[100]. You may need to shorten the names.\n   **   ~~~   ** Shortening the Object Name by [11] characters will assure uniqueness for this ZoneList.\n   **   ~~~   ** name that will be used (may be needed in reporting)=\"HEALTH CARE FACILITY NURSES STATION-SPACE FUNCTION ZN SPACE FUNCTION HEALTH CARE FACILITY NURSES STATION LIGHTS\".\n   ** Warning ** GetInternalHeatGains: Lights Combination of ZoneList and Object Name generate a name too long.\n   **   ~~~   ** Object Name=\"SPACE FUNCTION HEALTH CARE FACILITY OPERATING ROOM LIGHTS\".\n   **   ~~~   ** ZoneList/Zone Name=\"HEALTH CARE FACILITY OPERATING ROOM-SPACE FUNCTION ZN\".\n   **   ~~~   ** Item length=[110] > Maximum Length=[100]. You may need to shorten the names.\n   **   ~~~   ** Shortening the Object Name by [11] characters will assure uniqueness for this ZoneList.\n   **   ~~~   ** name that will be used (may be needed in reporting)=\"HEALTH CARE FACILITY OPERATING ROOM-SPACE FUNCTION ZN SPACE FUNCTION HEALTH CARE FACILITY OPERATING ROOM LIGHTS\".\n   ** Warning ** GetInternalHeatGains: Lights Combination of ZoneList and Object Name generate a name too long.\n   **   ~~~   ** Object Name=\"SPACE FUNCTION HEALTH CARE FACILITY PATIENT ROOM LIGHTS\".\n   **   ~~~   ** ZoneList/Zone Name=\"HEALTH CARE FACILITY PATIENT ROOM-SPACE FUNCTION ZN\".\n   **   ~~~   ** Item length=[106] > Maximum Length=[100]. You may need to shorten the names.\n   **   ~~~   ** Shortening the Object Name by [7] characters will assure uniqueness for this ZoneList.\n   **   ~~~   ** name that will be used (may be needed in reporting)=\"HEALTH CARE FACILITY PATIENT ROOM-SPACE FUNCTION ZN SPACE FUNCTION HEALTH CARE FACILITY PATIENT ROOM LIGHTS\".\n   ** Warning ** GetInternalHeatGains: Lights Combination of ZoneList and Object Name generate a name too long.\n   **   ~~~   ** Object Name=\"SPACE FUNCTION HEALTH CARE FACILITY PHYSICAL THERAPY ROOM LIGHTS\".\n   **   ~~~   ** ZoneList/Zone Name=\"HEALTH CARE FACILITY PHYSICAL THERAPY ROOM-SPACE FUNCTION ZN\".\n   **   ~~~   ** Item length=[124] > Maximum Length=[100]. You may need to shorten the names.\n   **   ~~~   ** Shortening the Object Name by [25] characters will assure uniqueness for this ZoneList.\n   **   ~~~   ** name that will be used (may be needed in reporting)=\"HEALTH CARE FACILITY PHYSICAL THERAPY ROOM-SPACE FUNCTION ZN SPACE FUNCTION HEALTH CARE FACILITY PHYSICAL THERAPY ROOM LIGHTS\".\n   ** Warning ** GetInternalHeatGains: Lights Combination of ZoneList and Object Name generate a name too long.\n   **   ~~~   ** Object Name=\"SPACE FUNCTION HEALTH CARE FACILITY RECOVERY ROOM LIGHTS\".\n   **   ~~~   ** ZoneList/Zone Name=\"HEALTH CARE FACILITY RECOVERY ROOM-SPACE FUNCTION ZN\".\n   **   ~~~   ** Item length=[108] > Maximum Length=[100]. You may need to shorten the names.\n   **   ~~~   ** Shortening the Object Name by [9] characters will assure uniqueness for this ZoneList.\n   **   ~~~   ** name that will be used (may be needed in reporting)=\"HEALTH CARE FACILITY RECOVERY ROOM-SPACE FUNCTION ZN SPACE FUNCTION HEALTH CARE FACILITY RECOVERY ROOM LIGHTS\".\n   ** Warning ** GetInternalHeatGains: Lights Combination of ZoneList and Object Name generate a name too long.\n   **   ~~~   ** Object Name=\"SPACE FUNCTION MANUFACTURING FACILITY DETAILED MANUFACTURING AREA LIGHTS\".\n   **   ~~~   ** ZoneList/Zone Name=\"MANUFACTURING FACILITY DETAILED MANUFACTURING AREA-SPACE FUNCTION ZN\".\n   **   ~~~   ** Item length=[140] > Maximum Length=[100]. You may need to shorten the names.\n   **   ~~~   ** Shortening the Object Name by [41] characters will assure uniqueness for this ZoneList.\n   **   ~~~   ** name that will be used (may be needed in reporting)=\"MANUFACTURING FACILITY DETAILED MANUFACTURING AREA-SPACE FUNCTION ZN SPACE FUNCTION MANUFACTURING FACILITY DETAILED MANUFACTURING AREA LIGHTS\".\n   ** Warning ** GetInternalHeatGains: Lights Combination of ZoneList and Object Name generate a name too long.\n   **   ~~~   ** Object Name=\"SPACE FUNCTION MANUFACTURING FACILITY EQUIPMENT ROOM LIGHTS\".\n   **   ~~~   ** ZoneList/Zone Name=\"MANUFACTURING FACILITY EQUIPMENT ROOM-SPACE FUNCTION ZN\".\n   **   ~~~   ** Item length=[114] > Maximum Length=[100]. You may need to shorten the names.\n   **   ~~~   ** Shortening the Object Name by [15] characters will assure uniqueness for this ZoneList.\n   **   ~~~   ** name that will be used (may be needed in reporting)=\"MANUFACTURING FACILITY EQUIPMENT ROOM-SPACE FUNCTION ZN SPACE FUNCTION MANUFACTURING FACILITY EQUIPMENT ROOM LIGHTS\".\n   ** Warning ** GetInternalHeatGains: Lights Combination of ZoneList and Object Name generate a name too long.\n   **   ~~~   ** Object Name=\"SPACE FUNCTION MANUFACTURING FACILITY EXTRA HIGH BAY AREA (> 15 M FLOOR-TO-CEILING HEIGHT) LIGHTS\".\n   **   ~~~   ** ZoneList/Zone Name=\"MANUFACTURING FACILITY EXTRA HIGH BAY AREA (> 15 M FLOOR-TO-CEILING HEIGHT)-SPACE FUNCTION ZN\".\n   **   ~~~   ** Item length=[190] > Maximum Length=[100]. You may need to shorten the names.\n   **   ~~~   ** Shortening the Object Name by [91] characters will assure uniqueness for this ZoneList.\n   **   ~~~   ** name that will be used (may be needed in reporting)=\"MANUFACTURING FACILITY EXTRA HIGH BAY AREA (> 15 M FLOOR-TO-CEILING HEIGHT)-SPACE FUNCTION ZN SPACE FUNCTION MANUFACTURING FACILITY EXTRA HIGH BAY AREA (> 15 M FLOOR-TO-CEILING HEIGHT) LIGHTS\".\n   ** Warning ** GetInternalHeatGains: Lights Combination of ZoneList and Object Name generate a name too long.\n   **   ~~~   ** Object Name=\"SPACE FUNCTION MANUFACTURING FACILITY HIGH BAY AREA (7.5 TO 15 M FLOOR-TO-CEILING HEIGHT) LIGHTS\".\n   **   ~~~   ** ZoneList/Zone Name=\"MANUFACTURING FACILITY HIGH BAY AREA (7.5 TO 15 M FLOOR-TO-CEILING HEIGHT)-SPACE FUNCTION ZN\".\n   **   ~~~   ** Item length=[188] > Maximum Length=[100]. You may need to shorten the names.\n   **   ~~~   ** Shortening the Object Name by [89] characters will assure uniqueness for this ZoneList.\n   **   ~~~   ** name that will be used (may be needed in reporting)=\"MANUFACTURING FACILITY HIGH BAY AREA (7.5 TO 15 M FLOOR-TO-CEILING HEIGHT)-SPACE FUNCTION ZN SPACE FUNCTION MANUFACTURING FACILITY HIGH BAY AREA (7.5 TO 15 M FLOOR-TO-CEILING HEIGHT) LIGHTS\".\n   ** Warning ** GetInternalHeatGains: Lights Combination of ZoneList and Object Name generate a name too long.\n   **   ~~~   ** Object Name=\"SPACE FUNCTION MANUFACTURING FACILITY LOW BAY AREA (< 7.5 M FLOOR-TO-CEILING HEIGHT) LIGHTS\".\n   **   ~~~   ** ZoneList/Zone Name=\"MANUFACTURING FACILITY LOW BAY AREA (< 7.5 M FLOOR-TO-CEILING HEIGHT)-SPACE FUNCTION ZN\".\n   **   ~~~   ** Item length=[178] > Maximum Length=[100]. You may need to shorten the names.\n   **   ~~~   ** Shortening the Object Name by [79] characters will assure uniqueness for this ZoneList.\n   **   ~~~   ** name that will be used (may be needed in reporting)=\"MANUFACTURING FACILITY LOW BAY AREA (< 7.5 M FLOOR-TO-CEILING HEIGHT)-SPACE FUNCTION ZN SPACE FUNCTION MANUFACTURING FACILITY LOW BAY AREA (< 7.5 M FLOOR-TO-CEILING HEIGHT) LIGHTS\".\n   ** Warning ** GetInternalHeatGains: ElectricEquipment Combination of ZoneList and Object Name generate a name too long.\n   **   ~~~   ** Object Name=\"SPACE FUNCTION FIRE STATION SLEEPING QUARTERS ELEC EQUIP\".\n   **   ~~~   ** ZoneList/Zone Name=\"FIRE STATION SLEEPING QUARTERS-SPACE FUNCTION ZN\".\n   **   ~~~   ** Item length=[104] > Maximum Length=[100]. You may need to shorten the names.\n   **   ~~~   ** Shortening the Object Name by [5] characters will assure uniqueness for this ZoneList.\n   **   ~~~   ** name that will be used (may be needed in reporting)=\"FIRE STATION SLEEPING QUARTERS-SPACE FUNCTION ZN SPACE FUNCTION FIRE STATION SLEEPING QUARTERS ELEC EQUIP\".\n   ** Warning ** GetInternalHeatGains: ElectricEquipment Combination of ZoneList and Object Name generate a name too long.\n   **   ~~~   ** Object Name=\"SPACE FUNCTION GYMNASIUM/FITNESS CENTRE EXERCISE AREA ELEC EQUIP\".\n   **   ~~~   ** ZoneList/Zone Name=\"GYMNASIUM/FITNESS CENTRE EXERCISE AREA-SPACE FUNCTION ZN\".\n   **   ~~~   ** Item length=[120] > Maximum Length=[100]. You may need to shorten the names.\n   **   ~~~   ** Shortening the Object Name by [21] characters will assure uniqueness for this ZoneList.\n   **   ~~~   ** name that will be used (may be needed in reporting)=\"GYMNASIUM/FITNESS CENTRE EXERCISE AREA-SPACE FUNCTION ZN SPACE FUNCTION GYMNASIUM/FITNESS CENTRE EXERCISE AREA ELEC EQUIP\".\n   ** Warning ** GetInternalHeatGains: ElectricEquipment Combination of ZoneList and Object Name generate a name too long.\n   **   ~~~   ** Object Name=\"SPACE FUNCTION GYMNASIUM/FITNESS CENTRE PLAYING AREA ELEC EQUIP\".\n   **   ~~~   ** ZoneList/Zone Name=\"GYMNASIUM/FITNESS CENTRE PLAYING AREA-SPACE FUNCTION ZN\".\n   **   ~~~   ** Item length=[118] > Maximum Length=[100]. You may need to shorten the names.\n   **   ~~~   ** Shortening the Object Name by [19] characters will assure uniqueness for this ZoneList.\n   **   ~~~   ** name that will be used (may be needed in reporting)=\"GYMNASIUM/FITNESS CENTRE PLAYING AREA-SPACE FUNCTION ZN SPACE FUNCTION GYMNASIUM/FITNESS CENTRE PLAYING AREA ELEC EQUIP\".\n   ** Warning ** GetInternalHeatGains: ElectricEquipment Combination of ZoneList and Object Name generate a name too long.\n   **   ~~~   ** Object Name=\"SPACE FUNCTION HEALTH CARE FACILITY EXAM/TREATMENT ROOM ELEC EQUIP\".\n   **   ~~~   ** ZoneList/Zone Name=\"HEALTH CARE FACILITY EXAM/TREATMENT ROOM-SPACE FUNCTION ZN\".\n   **   ~~~   ** Item length=[124] > Maximum Length=[100]. You may need to shorten the names.\n   **   ~~~   ** Shortening the Object Name by [25] characters will assure uniqueness for this ZoneList.\n   **   ~~~   ** name that will be used (may be needed in reporting)=\"HEALTH CARE FACILITY EXAM/TREATMENT ROOM-SPACE FUNCTION ZN SPACE FUNCTION HEALTH CARE FACILITY EXAM/TREATMENT ROOM ELEC EQUIP\".\n   ** Warning ** GetInternalHeatGains: ElectricEquipment Combination of ZoneList and Object Name generate a name too long.\n   **   ~~~   ** Object Name=\"SPACE FUNCTION HEALTH CARE FACILITY IMAGING ROOM ELEC EQUIP\".\n   **   ~~~   ** ZoneList/Zone Name=\"HEALTH CARE FACILITY IMAGING ROOM-SPACE FUNCTION ZN\".\n   **   ~~~   ** Item length=[110] > Maximum Length=[100]. You may need to shorten the names.\n   **   ~~~   ** Shortening the Object Name by [11] characters will assure uniqueness for this ZoneList.\n   **   ~~~   ** name that will be used (may be needed in reporting)=\"HEALTH CARE FACILITY IMAGING ROOM-SPACE FUNCTION ZN SPACE FUNCTION HEALTH CARE FACILITY IMAGING ROOM ELEC EQUIP\".\n   ** Warning ** GetInternalHeatGains: ElectricEquipment Combination of ZoneList and Object Name generate a name too long.\n   **   ~~~   ** Object Name=\"SPACE FUNCTION HEALTH CARE FACILITY MEDICAL SUPPLY ROOM ELEC EQUIP\".\n   **   ~~~   ** ZoneList/Zone Name=\"HEALTH CARE FACILITY MEDICAL SUPPLY ROOM-SPACE FUNCTION ZN\".\n   **   ~~~   ** Item length=[124] > Maximum Length=[100]. You may need to shorten the names.\n   **   ~~~   ** Shortening the Object Name by [25] characters will assure uniqueness for this ZoneList.\n   **   ~~~   ** name that will be used (may be needed in reporting)=\"HEALTH CARE FACILITY MEDICAL SUPPLY ROOM-SPACE FUNCTION ZN SPACE FUNCTION HEALTH CARE FACILITY MEDICAL SUPPLY ROOM ELEC EQUIP\".\n   ** Warning ** GetInternalHeatGains: ElectricEquipment Combination of ZoneList and Object Name generate a name too long.\n   **   ~~~   ** Object Name=\"SPACE FUNCTION HEALTH CARE FACILITY NURSES STATION ELEC EQUIP\".\n   **   ~~~   ** ZoneList/Zone Name=\"HEALTH CARE FACILITY NURSES STATION-SPACE FUNCTION ZN\".\n   **   ~~~   ** Item length=[114] > Maximum Length=[100]. You may need to shorten the names.\n   **   ~~~   ** Shortening the Object Name by [15] characters will assure uniqueness for this ZoneList.\n   **   ~~~   ** name that will be used (may be needed in reporting)=\"HEALTH CARE FACILITY NURSES STATION-SPACE FUNCTION ZN SPACE FUNCTION HEALTH CARE FACILITY NURSES STATION ELEC EQUIP\".\n   ** Warning ** GetInternalHeatGains: ElectricEquipment Combination of ZoneList and Object Name generate a name too long.\n   **   ~~~   ** Object Name=\"SPACE FUNCTION HEALTH CARE FACILITY OPERATING ROOM ELEC EQUIP\".\n   **   ~~~   ** ZoneList/Zone Name=\"HEALTH CARE FACILITY OPERATING ROOM-SPACE FUNCTION ZN\".\n   **   ~~~   ** Item length=[114] > Maximum Length=[100]. You may need to shorten the names.\n   **   ~~~   ** Shortening the Object Name by [15] characters will assure uniqueness for this ZoneList.\n   **   ~~~   ** name that will be used (may be needed in reporting)=\"HEALTH CARE FACILITY OPERATING ROOM-SPACE FUNCTION ZN SPACE FUNCTION HEALTH CARE FACILITY OPERATING ROOM ELEC EQUIP\".\n   ** Warning ** GetInternalHeatGains: ElectricEquipment Combination of ZoneList and Object Name generate a name too long.\n   **   ~~~   ** Object Name=\"SPACE FUNCTION HEALTH CARE FACILITY PATIENT ROOM ELEC EQUIP\".\n   **   ~~~   ** ZoneList/Zone Name=\"HEALTH CARE FACILITY PATIENT ROOM-SPACE FUNCTION ZN\".\n   **   ~~~   ** Item length=[110] > Maximum Length=[100]. You may need to shorten the names.\n   **   ~~~   ** Shortening the Object Name by [11] characters will assure uniqueness for this ZoneList.\n   **   ~~~   ** name that will be used (may be needed in reporting)=\"HEALTH CARE FACILITY PATIENT ROOM-SPACE FUNCTION ZN SPACE FUNCTION HEALTH CARE FACILITY PATIENT ROOM ELEC EQUIP\".\n   ** Warning ** GetInternalHeatGains: ElectricEquipment Combination of ZoneList and Object Name generate a name too long.\n   **   ~~~   ** Object Name=\"SPACE FUNCTION HEALTH CARE FACILITY PHYSICAL THERAPY ROOM ELEC EQUIP\".\n   **   ~~~   ** ZoneList/Zone Name=\"HEALTH CARE FACILITY PHYSICAL THERAPY ROOM-SPACE FUNCTION ZN\".\n   **   ~~~   ** Item length=[128] > Maximum Length=[100]. You may need to shorten the names.\n   **   ~~~   ** Shortening the Object Name by [29] characters will assure uniqueness for this ZoneList.\n   **   ~~~   ** name that will be used (may be needed in reporting)=\"HEALTH CARE FACILITY PHYSICAL THERAPY ROOM-SPACE FUNCTION ZN SPACE FUNCTION HEALTH CARE FACILITY PHYSICAL THERAPY ROOM ELEC EQUIP\".\n   ** Warning ** GetInternalHeatGains: ElectricEquipment Combination of ZoneList and Object Name generate a name too long.\n   **   ~~~   ** Object Name=\"SPACE FUNCTION HEALTH CARE FACILITY RECOVERY ROOM ELEC EQUIP\".\n   **   ~~~   ** ZoneList/Zone Name=\"HEALTH CARE FACILITY RECOVERY ROOM-SPACE FUNCTION ZN\".\n   **   ~~~   ** Item length=[112] > Maximum Length=[100]. You may need to shorten the names.\n   **   ~~~   ** Shortening the Object Name by [13] characters will assure uniqueness for this ZoneList.\n   **   ~~~   ** name that will be used (may be needed in reporting)=\"HEALTH CARE FACILITY RECOVERY ROOM-SPACE FUNCTION ZN SPACE FUNCTION HEALTH CARE FACILITY RECOVERY ROOM ELEC EQUIP\".\n   ** Warning ** GetInternalHeatGains: ElectricEquipment Combination of ZoneList and Object Name generate a name too long.\n   **   ~~~   ** Object Name=\"SPACE FUNCTION MANUFACTURING FACILITY DETAILED MANUFACTURING AREA ELEC EQUIP\".\n   **   ~~~   ** ZoneList/Zone Name=\"MANUFACTURING FACILITY DETAILED MANUFACTURING AREA-SPACE FUNCTION ZN\".\n   **   ~~~   ** Item length=[144] > Maximum Length=[100]. You may need to shorten the names.\n   **   ~~~   ** Shortening the Object Name by [45] characters will assure uniqueness for this ZoneList.\n   **   ~~~   ** name that will be used (may be needed in reporting)=\"MANUFACTURING FACILITY DETAILED MANUFACTURING AREA-SPACE FUNCTION ZN SPACE FUNCTION MANUFACTURING FACILITY DETAILED MANUFACTURING AREA ELEC EQUIP\".\n   ** Warning ** GetInternalHeatGains: ElectricEquipment Combination of ZoneList and Object Name generate a name too long.\n   **   ~~~   ** Object Name=\"SPACE FUNCTION MANUFACTURING FACILITY EQUIPMENT ROOM ELEC EQUIP\".\n   **   ~~~   ** ZoneList/Zone Name=\"MANUFACTURING FACILITY EQUIPMENT ROOM-SPACE FUNCTION ZN\".\n   **   ~~~   ** Item length=[118] > Maximum Length=[100]. You may need to shorten the names.\n   **   ~~~   ** Shortening the Object Name by [19] characters will assure uniqueness for this ZoneList.\n   **   ~~~   ** name that will be used (may be needed in reporting)=\"MANUFACTURING FACILITY EQUIPMENT ROOM-SPACE FUNCTION ZN SPACE FUNCTION MANUFACTURING FACILITY EQUIPMENT ROOM ELEC EQUIP\".\n   ** Warning ** GetInternalHeatGains: ElectricEquipment Combination of ZoneList and Object Name generate a name too long.\n   **   ~~~   ** Object Name=\"SPACE FUNCTION MANUFACTURING FACILITY EXTRA HIGH BAY AREA (> 15 M FLOOR-TO-CEILING HEIGHT) ELEC EQUIP\".\n   **   ~~~   ** ZoneList/Zone Name=\"MANUFACTURING FACILITY EXTRA HIGH BAY AREA (> 15 M FLOOR-TO-CEILING HEIGHT)-SPACE FUNCTION ZN\".\n   **   ~~~   ** Item length=[194] > Maximum Length=[100]. You may need to shorten the names.\n   **   ~~~   ** Shortening the Object Name by [95] characters will assure uniqueness for this ZoneList.\n   **   ~~~   ** name that will be used (may be needed in reporting)=\"MANUFACTURING FACILITY EXTRA HIGH BAY AREA (> 15 M FLOOR-TO-CEILING HEIGHT)-SPACE FUNCTION ZN SPACE FUNCTION MANUFACTURING FACILITY EXTRA HIGH BAY AREA (> 15 M FLOOR-TO-CEILING HEIGHT) ELEC EQUIP\".\n   ** Warning ** GetInternalHeatGains: ElectricEquipment Combination of ZoneList and Object Name generate a name too long.\n   **   ~~~   ** Object Name=\"SPACE FUNCTION MANUFACTURING FACILITY HIGH BAY AREA (7.5 TO 15 M FLOOR-TO-CEILING HEIGHT) ELEC EQUIP\".\n   **   ~~~   ** ZoneList/Zone Name=\"MANUFACTURING FACILITY HIGH BAY AREA (7.5 TO 15 M FLOOR-TO-CEILING HEIGHT)-SPACE FUNCTION ZN\".\n   **   ~~~   ** Item length=[192] > Maximum Length=[100]. You may need to shorten the names.\n   **   ~~~   ** Shortening the Object Name by [93] characters will assure uniqueness for this ZoneList.\n   **   ~~~   ** name that will be used (may be needed in reporting)=\"MANUFACTURING FACILITY HIGH BAY AREA (7.5 TO 15 M FLOOR-TO-CEILING HEIGHT)-SPACE FUNCTION ZN SPACE FUNCTION MANUFACTURING FACILITY HIGH BAY AREA (7.5 TO 15 M FLOOR-TO-CEILING HEIGHT) ELEC EQUIP\".\n   ** Warning ** GetInternalHeatGains: ElectricEquipment Combination of ZoneList and Object Name generate a name too long.\n   **   ~~~   ** Object Name=\"SPACE FUNCTION MANUFACTURING FACILITY LOW BAY AREA (< 7.5 M FLOOR-TO-CEILING HEIGHT) ELEC EQUIP\".\n   **   ~~~   ** ZoneList/Zone Name=\"MANUFACTURING FACILITY LOW BAY AREA (< 7.5 M FLOOR-TO-CEILING HEIGHT)-SPACE FUNCTION ZN\".\n   **   ~~~   ** Item length=[182] > Maximum Length=[100]. You may need to shorten the names.\n   **   ~~~   ** Shortening the Object Name by [83] characters will assure uniqueness for this ZoneList.\n   **   ~~~   ** name that will be used (may be needed in reporting)=\"MANUFACTURING FACILITY LOW BAY AREA (< 7.5 M FLOOR-TO-CEILING HEIGHT)-SPACE FUNCTION ZN SPACE FUNCTION MANUFACTURING FACILITY LOW BAY AREA (< 7.5 M FLOOR-TO-CEILING HEIGHT) ELEC EQUIP\".\n   ** Warning ** GetInternalHeatGains: ElectricEquipment Combination of ZoneList and Object Name generate a name too long.\n   **   ~~~   ** Object Name=\"SPACE FUNCTION MUSEUM GENERAL EXHIBITION AREA ELEC EQUIP\".\n   **   ~~~   ** ZoneList/Zone Name=\"MUSEUM GENERAL EXHIBITION AREA-SPACE FUNCTION ZN\".\n   **   ~~~   ** Item length=[104] > Maximum Length=[100]. You may need to shorten the names.\n   **   ~~~   ** Shortening the Object Name by [5] characters will assure uniqueness for this ZoneList.\n   **   ~~~   ** name that will be used (may be needed in reporting)=\"MUSEUM GENERAL EXHIBITION AREA-SPACE FUNCTION ZN SPACE FUNCTION MUSEUM GENERAL EXHIBITION AREA ELEC EQUIP\".\n   ** Warning ** Calculated design heating load for zone=HEALTH CARE FACILITY IMAGING ROOM-SPACE FUNCTION ZN is zero.\n   **   ~~~   ** Check Sizing:Zone and ZoneControl:Thermostat inputs.\n   ** Warning ** Calculated design heating load for zone=HEALTH CARE FACILITY NURSES STATION-SPACE FUNCTION ZN is zero.\n   **   ~~~   ** Check Sizing:Zone and ZoneControl:Thermostat inputs.\n   ** Warning ** Calculated design heating load for zone=HEALTH CARE FACILITY OPERATING ROOM-SPACE FUNCTION ZN is zero.\n   **   ~~~   ** Check Sizing:Zone and ZoneControl:Thermostat inputs.\n   ** Warning ** Calculated design heating load for zone=HEALTH CARE FACILITY PATIENT ROOM-SPACE FUNCTION ZN is zero.\n   **   ~~~   ** Check Sizing:Zone and ZoneControl:Thermostat inputs.\n   ** Warning ** Calculated design heating load for zone=HEALTH CARE FACILITY PHYSICAL THERAPY ROOM-SPACE FUNCTION ZN is zero.\n   **   ~~~   ** Check Sizing:Zone and ZoneControl:Thermostat inputs.\n   ** Warning ** Calculated design heating load for zone=HEALTH CARE FACILITY RECOVERY ROOM-SPACE FUNCTION ZN is zero.\n   **   ~~~   ** Check Sizing:Zone and ZoneControl:Thermostat inputs.\n   ** Warning ** Calculated design heating load for zone=LIBRARY READING AREA-SPACE FUNCTION ZN is zero.\n   **   ~~~   ** Check Sizing:Zone and ZoneControl:Thermostat inputs.\n   ** Warning ** Calculated design heating load for zone=LIBRARY STACKS-SPACE FUNCTION ZN is zero.\n   **   ~~~   ** Check Sizing:Zone and ZoneControl:Thermostat inputs.\n   ** Warning ** Calculated design heating load for zone=MANUFACTURING FACILITY EQUIPMENT ROOM-SPACE FUNCTION ZN is zero.\n   **   ~~~   ** Check Sizing:Zone and ZoneControl:Thermostat inputs.\n   ** Warning ** Calculated design heating load for zone=MANUFACTURING FACILITY HIGH BAY AREA (7.5 TO 15 M FLOOR-TO-CEILING HEIGHT)-SPACE FUNCTION ZN is zero.\n   **   ~~~   ** Check Sizing:Zone and ZoneControl:Thermostat inputs.\n   ** Warning ** Calculated design heating load for zone=MANUFACTURING FACILITY LOW BAY AREA (< 7.5 M FLOOR-TO-CEILING HEIGHT)-SPACE FUNCTION ZN is zero.\n   **   ~~~   ** Check Sizing:Zone and ZoneControl:Thermostat inputs.\n   ** Warning ** Calculated design heating load for zone=MUSEUM GENERAL EXHIBITION AREA-SPACE FUNCTION ZN is zero.\n   **   ~~~   ** Check Sizing:Zone and ZoneControl:Thermostat inputs.\n   ** Warning ** Output:Meter: invalid Key Name=\"GAS:FACILITY\" - not found.\n   ** Warning ** Output:Meter:MeterFileOnly: invalid Key Name=\"GAS:FACILITY\" - not found.\n   ** Warning ** Output:Meter:MeterFileOnly requested for \"Electricity:Facility\" (TimeStep), already on \"Output:Meter\". Will report to both eplusout.eso and eplusout.mtr\n   ************* Testing Individual Branch Integrity\n   ************* All Branches passed integrity testing\n   ************* Testing Individual Supply Air Path Integrity\n   ************* All Supply Air Paths passed integrity testing\n   ************* Testing Individual Return Air Path Integrity\n   ************* All Return Air Paths passed integrity testing\n   ************* No node connection errors were found.\n   ************* Beginning Simulation\n   ** Warning ** Output:Table:Monthly requested with SimulationControl Run Simulation for Weather File Run Periods set to No so Output:Table:Monthly will not be generated\n   ************* Simulation Error Summary *************\n   ************* There are 8 unused objects in input.\n   ************* Use Output:Diagnostics,DisplayUnusedObjects; to see them.\n   ************* There are 6 unused schedules in input.\n   ************* There are 6 unused week schedules in input.\n   ************* There are 9 unused day schedules in input.\n   ************* Use Output:Diagnostics,DisplayUnusedSchedules; to see them.\n   *************\n   ************* ===== Final Error Summary =====\n   ************* The following error categories occurred.  Consider correcting or noting.\n   ************* Nominally Unused Constructions\n   ************* ..The nominally unused constructions warning is provided to alert you to potential conditions that can cause\n   ************* ..extra time during simulation. Each construction is calculated by the algorithm indicated in the HeatBalanceAlgorithm\n   ************* ..object. You may remove the constructions indicated (when you use the DisplayExtraWarnings option).\n   *************\n   ************* EnergyPlus Warmup Error Summary. During Warmup: 0 Warning; 0 Severe Errors.\n   ************* EnergyPlus Sizing Error Summary. During Sizing: 64 Warning; 0 Severe Errors.\n   ************* EnergyPlus Completed Successfully-- 68 Warning; 0 Severe Errors; Elapsed Time=00hr 00min  2.20sec\n",
   "hash" : "9795AEB0",
   "seed_file" : "in.osm",
   "started_at" : "20190328T135404Z",
   "steps" : [],
   "updated_at" : "20190328T135407Z",
   "weather_file" : "in.epw"
}
