Program Version,EnergyPlus, Version 8.9.0-eba93e8e1b, YMD=2019.03.28 14:27
! <Version>, Version ID
 Version, 8.9
! <Timesteps per Hour>, #TimeSteps, Minutes per TimeStep {minutes}
 Timesteps per Hour,  6, 10
! <System Convergence Limits>, Minimum System TimeStep {minutes}, Max HVAC Iterations, Minimum Plant Iterations, Maximum Plant Iterations
 System Convergence Limits, 1, 20, 2, 8
! <Simulation Control>, Do Zone Sizing, Do System Sizing, Do Plant Sizing, Do Design Days, Do Weather Simulation, Do HVAC Sizing Simulation
 Simulation Control, Yes, Yes, Yes, Yes, No, No
! <Output Reporting Tolerances>, Tolerance for Time Heating Setpoint Not Met, Tolerance for Zone Cooling Setpoint Not Met Time
 Output Reporting Tolerances, 1.000, 1.000, 
! <Site:GroundTemperature:BuildingSurface>,Jan{C},Feb{C},Mar{C},Apr{C},May{C},Jun{C},Jul{C},Aug{C},Sep{C},Oct{C},Nov{C},Dec{C}
 Site:GroundTemperature:BuildingSurface,  19.53,  19.50,  19.54,  19.60,  20.00,  21.64,  22.23,  22.38,  21.45,  20.12,  19.80,  19.63
! <Site:GroundTemperature:FCfactorMethod>,Jan{C},Feb{C},Mar{C},Apr{C},May{C},Jun{C},Jul{C},Aug{C},Sep{C},Oct{C},Nov{C},Dec{C}
 Site:GroundTemperature:FCfactorMethod, -12.27, -13.66, -11.19,  -7.33,   2.77,  10.57,  15.83,  17.43,  14.70,   8.65,   0.56,  -6.95
! <Site:GroundTemperature:Shallow>,Jan{C},Feb{C},Mar{C},Apr{C},May{C},Jun{C},Jul{C},Aug{C},Sep{C},Oct{C},Nov{C},Dec{C}
 Site:GroundTemperature:Shallow,  13.00,  13.00,  13.00,  13.00,  13.00,  13.00,  13.00,  13.00,  13.00,  13.00,  13.00,  13.00
! <Site:GroundTemperature:Deep>,Jan{C},Feb{C},Mar{C},Apr{C},May{C},Jun{C},Jul{C},Aug{C},Sep{C},Oct{C},Nov{C},Dec{C}
 Site:GroundTemperature:Deep,  16.00,  16.00,  16.00,  16.00,  16.00,  16.00,  16.00,  16.00,  16.00,  16.00,  16.00,  16.00
! <Site:GroundReflectance>,Jan{dimensionless},Feb{dimensionless},Mar{dimensionless},Apr{dimensionless},May{dimensionless},Jun{dimensionless},Jul{dimensionless},Aug{dimensionless},Sep{dimensionless},Oct{dimensionless},Nov{dimensionless},Dec{dimensionless}
 Site:GroundReflectance,  0.20,  0.20,  0.20,  0.20,  0.20,  0.20,  0.20,  0.20,  0.20,  0.20,  0.20,  0.20
! <Site:GroundReflectance:SnowModifier>, Normal, Daylighting {dimensionless}
 Site:GroundReflectance:SnowModifier,   1.000,   1.000
! <Site:GroundReflectance:Snow>,Jan{dimensionless},Feb{dimensionless},Mar{dimensionless},Apr{dimensionless},May{dimensionless},Jun{dimensionless},Jul{dimensionless},Aug{dimensionless},Sep{dimensionless},Oct{dimensionless},Nov{dimensionless},Dec{dimensionless}
 Site:GroundReflectance:Snow,  0.20,  0.20,  0.20,  0.20,  0.20,  0.20,  0.20,  0.20,  0.20,  0.20,  0.20,  0.20
! <Site:GroundReflectance:Snow:Daylighting>,Jan{dimensionless},Feb{dimensionless},Mar{dimensionless},Apr{dimensionless},May{dimensionless},Jun{dimensionless},Jul{dimensionless},Aug{dimensionless},Sep{dimensionless},Oct{dimensionless},Nov{dimensionless},Dec{dimensionless}
 Site:GroundReflectance:Snow:Daylighting,  0.20,  0.20,  0.20,  0.20,  0.20,  0.20,  0.20,  0.20,  0.20,  0.20,  0.20,  0.20
! <Environment:Weather Station>,Wind Sensor Height Above Ground {m},Wind Speed Profile Exponent {},Wind Speed Profile Boundary Layer Thickness {m},Air Temperature Sensor Height Above Ground {m},Wind Speed Modifier Coefficient-Internal,Temperature Modifier Coefficient-Internal
Environment:Weather Station,10.000,0.140,270.000,1.500,1.586,9.750E-003
! <Site:Location>, Location Name, Latitude {N+/S- Deg}, Longitude {E+/W- Deg},  Time Zone Number {GMT+/-}, Elevation {m},  Standard Pressure at Elevation {Pa}, Standard RhoAir at Elevation
Site:Location,Fort McMurray AP AB CAN CWEC2016 WMO#=716890,56.65,-111.22,-7.00,369.10,96969,1.1525
! <Building Information>, Building Name,North Axis {deg},Terrain,  Loads Convergence Tolerance Value,Temperature Convergence Tolerance Value,  Solar Distribution,Maximum Number of Warmup Days,Minimum Number of Warmup Days
 Building Information,Building 1,0.000,Suburbs,4.00000E-002,0.40000,FullExterior,25,6
! <Inside Convection Algorithm>, Algorithm {Simple | TARP | CeilingDiffuser | AdaptiveConvectionAlgorithm}
Inside Convection Algorithm,TARP
! <Outside Convection Algorithm>, Algorithm {SimpleCombined | TARP | MoWitt | DOE-2 | AdaptiveConvectionAlgorithm}
Outside Convection Algorithm,TARP
! <Sky Radiance Distribution>, Value {Anisotropic}
Sky Radiance Distribution,Anisotropic
! <Zone Air Solution Algorithm>, Value {ThirdOrderBackwardDifference | AnalyticalSolution | EulerMethod}
 Zone Air Solution Algorithm, ThirdOrderBackwardDifference
! <Zone Air Carbon Dioxide Balance Simulation>, Simulation {Yes/No}, Carbon Dioxide Concentration
 Zone Air Carbon Dioxide Balance Simulation, No,N/A
! <Zone Air Generic Contaminant Balance Simulation>, Simulation {Yes/No}, Generic Contaminant Concentration
 Zone Air Generic Contaminant Balance Simulation, No,N/A
! <Zone Air Mass Flow Balance Simulation>, Enforce Mass Balance, Adjust Zone Mixing, Adjust Zone Infiltration {AddInfiltration | AdjustInfiltration | None}, Infiltration Zones {MixingSourceZonesOnly | AllZones}
 Zone Air Mass Flow Balance Simulation, No,N/A,N/A,N/A
! <HVACSystemRootFindingAlgorithm>, Value {RegulaFalsi | Bisection | BisectionThenRegulaFalsi | RegulaFalsiThenBisection}
 HVACSystemRootFindingAlgorithm, RegulaFalsi
! <Environment:Site Atmospheric Variation>,Wind Speed Profile Exponent {},Wind Speed Profile Boundary Layer Thickness {m},Air Temperature Gradient Coefficient {K/m}
Environment:Site Atmospheric Variation,0.220,370.000,6.500000E-003
! <Surface Geometry>,Starting Corner,Vertex Input Direction,Coordinate System,Daylight Reference Point Coordinate System,Rectangular (Simple) Surface Coordinate System
 Surface Geometry,UpperLeftCorner,Counterclockwise,RelativeCoordinateSystem,RelativeCoordinateSystem,RelativeToZoneOrigin
! <Surface Heat Transfer Algorithm>, Value {CTF - ConductionTransferFunction | EMPD - MoisturePenetrationDepthConductionTransferFunction | CondFD - ConductionFiniteDifference | HAMT - CombinedHeatAndMoistureFiniteElement} - Description,Inside Surface Max Temperature Limit{C}, Surface Convection Coefficient Lower Limit {W/m2-K}, Surface Convection Coefficient Upper Limit {W/m2-K}
Surface Heat Transfer Algorithm, CTF - ConductionTransferFunction,200,0.10,1000.0
! <Shading Summary>, Number of Fixed Detached Shades, Number of Building Detached Shades, Number of Attached Shades
 Shading Summary,0,0,0
! <Zone Summary>, Number of Zones, Number of Zone Surfaces, Number of SubSurfaces
 Zone Summary,20,137,17
! <Zone Information>,Zone Name,North Axis {deg},Origin X-Coordinate {m},Origin Y-Coordinate {m},Origin Z-Coordinate {m},Centroid X-Coordinate {m},Centroid Y-Coordinate {m},Centroid Z-Coordinate {m},Type,Zone Multiplier,Zone List Multiplier,Minimum X {m},Maximum X {m},Minimum Y {m},Maximum Y {m},Minimum Z {m},Maximum Z {m},Ceiling Height {m},Volume {m3},Zone Inside Convection Algorithm {Simple-Detailed-CeilingDiffuser-TrombeWall},Zone Outside Convection Algorithm {Simple-Detailed-Tarp-MoWitt-DOE-2-BLAST}, Floor Area {m2},Exterior Gross Wall Area {m2},Exterior Net Wall Area {m2},Exterior Window Area {m2}, Number of Surfaces, Number of SubSurfaces, Number of Shading SubSurfaces,  Part of Total Building Area
 Zone Information, SP-FIRE STATION SLEEPING QUARTERS-SPACE FUNCTION SYS-3 FLR-4 SCH-G HPLCMT-NORTH ZN,0.0,25.00,75.00,11.40,50.00,89.15,13.30,1,1,1,0.00,100.00,75.00,100.00,11.40,15.20,3.80,7125.00,TARP,TARP,1875.00,380.00,285.00,132.50,6,2,0,Yes
 Zone Information, SP-GYMNASIUM/FITNESS CENTRE EXERCISE AREA-SPACE FUNCTION SYS-6 FLR-3 SCH-B HPLCMT-CORE ZN,0.0,25.00,25.00,7.60,50.00,50.00,9.50,1,1,1,25.00,75.00,25.00,75.00,7.60,11.40,3.80,9500.00,TARP,TARP,2500.00,0.00,0.00,0.00,6,0,0,Yes
 Zone Information, SP-GYMNASIUM/FITNESS CENTRE PLAYING AREA-SPACE FUNCTION SYS-6 FLR-3 SCH-B HPLCMT-SOUTH ZN,0.0,0.00,0.00,7.60,50.00,10.85,9.50,1,1,1,0.00,100.00,0.00,25.00,7.60,11.40,3.80,7125.00,TARP,TARP,1875.00,380.00,285.00,95.00,6,1,0,Yes
 Zone Information, SP-HEALTH CARE FACILITY EXAM/TREATMENT ROOM-SPACE FUNCTION SYS-3 FLR-3 SCH-C HPLCMT-EAST ZN,0.0,75.00,25.00,7.60,89.15,50.00,9.50,1,1,1,75.00,100.00,0.00,100.00,7.60,11.40,3.80,7125.00,TARP,TARP,1875.00,380.00,285.00,95.00,6,1,0,Yes
 Zone Information, SP-HEALTH CARE FACILITY IMAGING ROOM-SPACE FUNCTION SYS-3 FLR-4 SCH-H HPLCMT-CORE ZN,0.0,25.00,25.00,11.40,50.00,50.00,13.30,1,1,1,25.00,75.00,25.00,75.00,11.40,15.20,3.80,9500.00,TARP,TARP,2500.00,0.00,0.00,50.00,6,1,0,Yes
 Zone Information, SP-HEALTH CARE FACILITY MEDICAL SUPPLY ROOM-SPACE FUNCTION SYS-3 FLR-3 SCH-H HPLCMT-NORTH ZN,0.0,25.00,75.00,7.60,50.00,89.15,9.50,1,1,1,0.00,100.00,75.00,100.00,7.60,11.40,3.80,7125.00,TARP,TARP,1875.00,380.00,285.00,95.00,6,1,0,Yes
 Zone Information, SP-HEALTH CARE FACILITY NURSERY-SPACE FUNCTION SYS-3 FLR-3 SCH-H HPLCMT-WEST ZN,0.0,0.00,0.00,7.60,10.85,50.00,9.50,1,1,1,0.00,25.00,0.00,100.00,7.60,11.40,3.80,7125.00,TARP,TARP,1875.00,380.00,285.00,95.00,6,1,0,Yes
 Zone Information, SP-HEALTH CARE FACILITY NURSES STATION-SPACE FUNCTION SYS-3 FLR-1 SCH-H HPLCMT-WEST ZN,0.0,0.00,0.00,0.00,10.85,50.00,1.90,1,1,1,0.00,25.00,0.00,100.00,0.00,3.80,3.80,7125.00,TARP,TARP,1875.00,0.00,0.00,0.00,6,0,0,Yes
 Zone Information, SP-HEALTH CARE FACILITY OPERATING ROOM-SPACE FUNCTION SYS-3 FLR-4 SCH-H HPLCMT-EAST ZN,0.0,75.00,25.00,11.40,89.15,50.00,13.30,1,1,1,75.00,100.00,0.00,100.00,11.40,15.20,3.80,7125.00,TARP,TARP,1875.00,380.00,285.00,132.50,6,2,0,Yes
 Zone Information, SP-HEALTH CARE FACILITY PATIENT ROOM-SPACE FUNCTION SYS-3 FLR-1 SCH-H HPLCMT-NORTH ZN,0.0,25.00,75.00,0.00,50.00,89.15,1.90,1,1,1,0.00,100.00,75.00,100.00,0.00,3.80,3.80,7125.00,TARP,TARP,1875.00,0.00,0.00,0.00,6,0,0,Yes
 Zone Information, SP-HEALTH CARE FACILITY PHYSICAL THERAPY ROOM-SPACE FUNCTION SYS-3 FLR-1 SCH-C HPLCMT-EAST ZN,0.0,75.00,25.00,0.00,89.15,50.00,1.90,1,1,1,75.00,100.00,0.00,100.00,0.00,3.80,3.80,7125.00,TARP,TARP,1875.00,0.00,0.00,0.00,6,0,0,Yes
 Zone Information, SP-HEALTH CARE FACILITY RECOVERY ROOM-SPACE FUNCTION SYS-3 FLR-4 SCH-H HPLCMT-WEST ZN,0.0,0.00,0.00,11.40,10.85,50.00,13.30,1,1,1,0.00,25.00,0.00,100.00,11.40,15.20,3.80,7125.00,TARP,TARP,1875.00,380.00,285.00,132.50,6,2,0,Yes
 Zone Information, SP-LIBRARY READING AREA-SPACE FUNCTION SYS-6 FLR-1 SCH-C HPLCMT-SOUTH ZN,0.0,0.00,0.00,0.00,50.00,10.85,1.90,1,1,1,0.00,100.00,0.00,25.00,0.00,3.80,3.80,7125.00,TARP,TARP,1875.00,0.00,0.00,0.00,6,0,0,Yes
 Zone Information, SP-LIBRARY STACKS-SPACE FUNCTION SYS-6 FLR-1 SCH-C HPLCMT-CORE ZN,0.0,25.00,25.00,0.00,50.00,50.00,1.90,1,1,1,25.00,75.00,25.00,75.00,0.00,3.80,3.80,9500.00,TARP,TARP,2500.00,0.00,0.00,0.00,6,0,0,Yes
 Zone Information, SP-MANUFACTURING FACILITY DETAILED MANUFACTURING AREA-SPACE FUNCTION SYS-3 FLR-2 SCH-A HPLCMT-NORTH ZN,0.0,25.00,75.00,3.80,50.00,89.15,5.70,1,1,1,0.00,100.00,75.00,100.00,3.80,7.60,3.80,7125.00,TARP,TARP,1875.00,380.00,285.00,95.00,6,1,0,Yes
 Zone Information, SP-MANUFACTURING FACILITY EQUIPMENT ROOM-SPACE FUNCTION SYS-3 FLR-2 SCH-A HPLCMT-EAST ZN,0.0,75.00,25.00,3.80,89.15,50.00,5.70,1,1,1,75.00,100.00,0.00,100.00,3.80,7.60,3.80,7125.00,TARP,TARP,1875.00,380.00,285.00,95.00,6,1,0,Yes
 Zone Information, SP-MANUFACTURING FACILITY EXTRA HIGH BAY AREA (> 15 M FLOOR-TO-CEILING HEIGHT)-SPACE FUNCTION SYS-3 FLR-4 SCH-A HPLCMT-SOUTH ZN,0.0,0.00,0.00,11.40,50.00,10.85,13.30,1,1,1,0.00,100.00,0.00,25.00,11.40,15.20,3.80,7125.00,TARP,TARP,1875.00,380.00,285.00,132.50,6,2,0,Yes
 Zone Information, SP-MANUFACTURING FACILITY HIGH BAY AREA (7.5 TO 15 M FLOOR-TO-CEILING HEIGHT)-SPACE FUNCTION SYS-3 FLR-2 SCH-A HPLCMT-SOUTH ZN,0.0,0.00,0.00,3.80,50.00,10.85,5.70,1,1,1,0.00,100.00,0.00,25.00,3.80,7.60,3.80,7125.00,TARP,TARP,1875.00,380.00,285.00,95.00,6,1,0,Yes
 Zone Information, SP-MANUFACTURING FACILITY LOW BAY AREA (< 7.5 M FLOOR-TO-CEILING HEIGHT)-SPACE FUNCTION SYS-3 FLR-2 SCH-A HPLCMT-WEST ZN,0.0,0.00,0.00,3.80,10.85,50.00,5.70,1,1,1,0.00,25.00,0.00,100.00,3.80,7.60,3.80,7125.00,TARP,TARP,1875.00,380.00,285.00,95.00,6,1,0,Yes
 Zone Information, SP-MUSEUM GENERAL EXHIBITION AREA-SPACE FUNCTION SYS-2 FLR-2 SCH-C HPLCMT-CORE ZN,0.0,25.00,25.00,3.80,50.00,50.00,5.70,1,1,1,25.00,75.00,25.00,75.00,3.80,7.60,3.80,9500.00,TARP,TARP,2500.00,0.00,0.00,0.00,6,0,0,Yes
! <Zone Internal Gains Nominal>,Zone Name, Floor Area {m2},# Occupants,Area per Occupant {m2/person},Occupant per Area {person/m2},Interior Lighting {W/m2},Electric Load {W/m2},Gas Load {W/m2},Other Load {W/m2},Hot Water Eq {W/m2},Steam Equipment {W/m2},Sum Loads per Area {W/m2},Outdoor Controlled Baseboard Heat
 Zone Internal Gains Nominal, SP-FIRE STATION SLEEPING QUARTERS-SPACE FUNCTION SYS-3 FLR-4 SCH-G HPLCMT-NORTH ZN,1875.00,75.0,24.991,4.001E-002,2.200,2.501,0.000,0.000,0.000,0.000,4.701,No
 Zone Internal Gains Nominal, SP-GYMNASIUM/FITNESS CENTRE EXERCISE AREA-SPACE FUNCTION SYS-6 FLR-3 SCH-B HPLCMT-CORE ZN,2500.00,500.2,4.998,0.200,5.400,1.000,0.000,0.000,0.000,0.000,6.400,No
 Zone Internal Gains Nominal, SP-GYMNASIUM/FITNESS CENTRE PLAYING AREA-SPACE FUNCTION SYS-6 FLR-3 SCH-B HPLCMT-SOUTH ZN,1875.00,375.1,4.998,0.200,8.800,1.501,0.000,0.000,0.000,0.000,10.300,No
 Zone Internal Gains Nominal, SP-HEALTH CARE FACILITY EXAM/TREATMENT ROOM-SPACE FUNCTION SYS-3 FLR-3 SCH-C HPLCMT-EAST ZN,1875.00,93.8,19.993,5.002E-002,18.100,10.004,0.000,0.000,0.000,0.000,28.103,No
 Zone Internal Gains Nominal, SP-HEALTH CARE FACILITY IMAGING ROOM-SPACE FUNCTION SYS-3 FLR-4 SCH-H HPLCMT-CORE ZN,2500.00,125.0,19.993,5.002E-002,11.400,10.004,0.000,0.000,0.000,0.000,21.404,No
 Zone Internal Gains Nominal, SP-HEALTH CARE FACILITY MEDICAL SUPPLY ROOM-SPACE FUNCTION SYS-3 FLR-3 SCH-H HPLCMT-NORTH ZN,1875.00,93.8,19.993,5.002E-002,5.800,1.000,0.000,0.000,0.000,0.000,6.800,No
 Zone Internal Gains Nominal, SP-HEALTH CARE FACILITY NURSERY-SPACE FUNCTION SYS-3 FLR-3 SCH-H HPLCMT-WEST ZN,1875.00,93.8,19.993,5.002E-002,10.800,10.004,0.000,0.000,0.000,0.000,20.804,No
 Zone Internal Gains Nominal, SP-HEALTH CARE FACILITY NURSES STATION-SPACE FUNCTION SYS-3 FLR-1 SCH-H HPLCMT-WEST ZN,1875.00,93.8,19.993,5.002E-002,8.700,2.501,0.000,0.000,0.000,0.000,11.201,No
 Zone Internal Gains Nominal, SP-HEALTH CARE FACILITY OPERATING ROOM-SPACE FUNCTION SYS-3 FLR-4 SCH-H HPLCMT-EAST ZN,1875.00,93.8,19.993,5.002E-002,23.400,10.004,0.000,0.000,0.000,0.000,33.403,No
 Zone Internal Gains Nominal, SP-HEALTH CARE FACILITY PATIENT ROOM-SPACE FUNCTION SYS-3 FLR-1 SCH-H HPLCMT-NORTH ZN,1875.00,93.8,19.993,5.002E-002,6.702,10.004,0.000,0.000,0.000,0.000,16.706,No
 Zone Internal Gains Nominal, SP-HEALTH CARE FACILITY PHYSICAL THERAPY ROOM-SPACE FUNCTION SYS-3 FLR-1 SCH-C HPLCMT-EAST ZN,1875.00,93.8,19.993,5.002E-002,9.000,10.004,0.000,0.000,0.000,0.000,19.004,No
 Zone Internal Gains Nominal, SP-HEALTH CARE FACILITY RECOVERY ROOM-SPACE FUNCTION SYS-3 FLR-4 SCH-H HPLCMT-WEST ZN,1875.00,93.8,19.993,5.002E-002,11.100,10.004,0.000,0.000,0.000,0.000,21.104,No
 Zone Internal Gains Nominal, SP-LIBRARY READING AREA-SPACE FUNCTION SYS-6 FLR-1 SCH-C HPLCMT-SOUTH ZN,1875.00,93.8,19.993,5.002E-002,8.800,1.000,0.000,0.000,0.000,0.000,9.800,No
 Zone Internal Gains Nominal, SP-LIBRARY STACKS-SPACE FUNCTION SYS-6 FLR-1 SCH-C HPLCMT-CORE ZN,2500.00,125.0,19.993,5.002E-002,12.900,0.000,0.000,0.000,0.000,0.000,12.900,No
 Zone Internal Gains Nominal, SP-MANUFACTURING FACILITY DETAILED MANUFACTURING AREA-SPACE FUNCTION SYS-3 FLR-2 SCH-A HPLCMT-NORTH ZN,1875.00,62.5,29.989,3.335E-002,10.000,10.004,0.000,0.000,0.000,0.000,20.004,No
 Zone Internal Gains Nominal, SP-MANUFACTURING FACILITY EQUIPMENT ROOM-SPACE FUNCTION SYS-3 FLR-2 SCH-A HPLCMT-EAST ZN,1875.00,62.5,29.989,3.335E-002,7.000,10.004,0.000,0.000,0.000,0.000,17.004,No
 Zone Internal Gains Nominal, SP-MANUFACTURING FACILITY EXTRA HIGH BAY AREA (> 15 M FLOOR-TO-CEILING HEIGHT)-SPACE FUNCTION SYS-3 FLR-4 SCH-A HPLCMT-SOUTH ZN,1875.00,62.5,29.989,3.335E-002,11.304,10.004,0.000,0.000,0.000,0.000,21.308,No
 Zone Internal Gains Nominal, SP-MANUFACTURING FACILITY HIGH BAY AREA (7.5 TO 15 M FLOOR-TO-CEILING HEIGHT)-SPACE FUNCTION SYS-3 FLR-2 SCH-A HPLCMT-SOUTH ZN,1875.00,62.5,29.989,3.335E-002,8.100,10.004,0.000,0.000,0.000,0.000,18.104,No
 Zone Internal Gains Nominal, SP-MANUFACTURING FACILITY LOW BAY AREA (< 7.5 M FLOOR-TO-CEILING HEIGHT)-SPACE FUNCTION SYS-3 FLR-2 SCH-A HPLCMT-WEST ZN,1875.00,62.5,29.989,3.335E-002,10.300,10.004,0.000,0.000,0.000,0.000,20.304,No
 Zone Internal Gains Nominal, SP-MUSEUM GENERAL EXHIBITION AREA-SPACE FUNCTION SYS-2 FLR-2 SCH-C HPLCMT-CORE ZN,2500.00,500.2,4.998,0.200,11.300,2.501,0.000,0.000,0.000,0.000,13.801,No
! <People Internal Gains Nominal>,Name,Schedule Name,Zone Name,Zone Floor Area {m2},# Zone Occupants,Number of People {},People/Floor Area {person/m2},Floor Area per person {m2/person},Fraction Radiant,Fraction Convected,Sensible Fraction Calculation,Activity level,ASHRAE 55 Warnings,Carbon Dioxide Generation Rate,Nominal Minimum Number of People,Nominal Maximum Number of People
 People Internal Gains Nominal, SP-FIRE STATION SLEEPING QUARTERS-SPACE FUNCTION SYS-3 FLR-4 SCH-G HPLCMT-NORTH ZN SPACE FUNCTION FIRE STATION SLEEPING QUARTERS PEOPLE,NECB-G-OCCUPANCY,SP-FIRE STATION SLEEPING QUARTERS-SPACE FUNCTION SYS-3 FLR-4 SCH-G HPLCMT-NORTH ZN,1875.00,75.0,75.0,4.001E-002,24.991,0.300,0.700,AutoCalculate,NECB-ACTIVITY,No,3.8200E-008,23,68
 People Internal Gains Nominal, SP-GYMNASIUM/FITNESS CENTRE EXERCISE AREA-SPACE FUNCTION SYS-6 FLR-3 SCH-B HPLCMT-CORE ZN SPACE FUNCTION GYMNASIUM/FITNESS CENTRE EXERCISE AREA PEOPLE,NECB-B-OCCUPANCY,SP-GYMNASIUM/FITNESS CENTRE EXERCISE AREA-SPACE FUNCTION SYS-6 FLR-3 SCH-B HPLCMT-CORE ZN,2500.00,500.2,500.2,0.200,4.998,0.300,0.700,AutoCalculate,NECB-ACTIVITY,No,3.8200E-008,0,450
 People Internal Gains Nominal, SP-GYMNASIUM/FITNESS CENTRE PLAYING AREA-SPACE FUNCTION SYS-6 FLR-3 SCH-B HPLCMT-SOUTH ZN SPACE FUNCTION GYMNASIUM/FITNESS CENTRE PLAYING AREA PEOPLE,NECB-B-OCCUPANCY,SP-GYMNASIUM/FITNESS CENTRE PLAYING AREA-SPACE FUNCTION SYS-6 FLR-3 SCH-B HPLCMT-SOUTH ZN,1875.00,375.1,375.1,0.200,4.998,0.300,0.700,AutoCalculate,NECB-ACTIVITY,No,3.8200E-008,0,338
 People Internal Gains Nominal, SP-HEALTH CARE FACILITY EXAM/TREATMENT ROOM-SPACE FUNCTION SYS-3 FLR-3 SCH-C HPLCMT-EAST ZN SPACE FUNCTION HEALTH CARE FACILITY EXAM/TREATMENT ROOM PEOPLE,NECB-C-OCCUPANCY,SP-HEALTH CARE FACILITY EXAM/TREATMENT ROOM-SPACE FUNCTION SYS-3 FLR-3 SCH-C HPLCMT-EAST ZN,1875.00,93.8,93.8,5.002E-002,19.993,0.300,0.700,AutoCalculate,NECB-ACTIVITY,No,3.8200E-008,0,84
 People Internal Gains Nominal, SP-HEALTH CARE FACILITY IMAGING ROOM-SPACE FUNCTION SYS-3 FLR-4 SCH-H HPLCMT-CORE ZN SPACE FUNCTION HEALTH CARE FACILITY IMAGING ROOM PEOPLE,NECB-H-OCCUPANCY,SP-HEALTH CARE FACILITY IMAGING ROOM-SPACE FUNCTION SYS-3 FLR-4 SCH-H HPLCMT-CORE ZN,2500.00,125.0,125.0,5.002E-002,19.993,0.300,0.700,AutoCalculate,NECB-ACTIVITY,No,3.8200E-008,113,113
 People Internal Gains Nominal, SP-HEALTH CARE FACILITY MEDICAL SUPPLY ROOM-SPACE FUNCTION SYS-3 FLR-3 SCH-H HPLCMT-NORTH ZN SPACE FUNCTION HEALTH CARE FACILITY MEDICAL SUPPLY ROOM PEOPLE,NECB-H-OCCUPANCY,SP-HEALTH CARE FACILITY MEDICAL SUPPLY ROOM-SPACE FUNCTION SYS-3 FLR-3 SCH-H HPLCMT-NORTH ZN,1875.00,93.8,93.8,5.002E-002,19.993,0.300,0.700,AutoCalculate,NECB-ACTIVITY,No,3.8200E-008,84,84
 People Internal Gains Nominal, SP-HEALTH CARE FACILITY NURSERY-SPACE FUNCTION SYS-3 FLR-3 SCH-H HPLCMT-WEST ZN SPACE FUNCTION HEALTH CARE FACILITY NURSERY PEOPLE,NECB-H-OCCUPANCY,SP-HEALTH CARE FACILITY NURSERY-SPACE FUNCTION SYS-3 FLR-3 SCH-H HPLCMT-WEST ZN,1875.00,93.8,93.8,5.002E-002,19.993,0.300,0.700,AutoCalculate,NECB-ACTIVITY,No,3.8200E-008,84,84
 People Internal Gains Nominal, SP-HEALTH CARE FACILITY NURSES STATION-SPACE FUNCTION SYS-3 FLR-1 SCH-H HPLCMT-WEST ZN SPACE FUNCTION HEALTH CARE FACILITY NURSES STATION PEOPLE,NECB-H-OCCUPANCY,SP-HEALTH CARE FACILITY NURSES STATION-SPACE FUNCTION SYS-3 FLR-1 SCH-H HPLCMT-WEST ZN,1875.00,93.8,93.8,5.002E-002,19.993,0.300,0.700,AutoCalculate,NECB-ACTIVITY,No,3.8200E-008,84,84
 People Internal Gains Nominal, SP-HEALTH CARE FACILITY OPERATING ROOM-SPACE FUNCTION SYS-3 FLR-4 SCH-H HPLCMT-EAST ZN SPACE FUNCTION HEALTH CARE FACILITY OPERATING ROOM PEOPLE,NECB-H-OCCUPANCY,SP-HEALTH CARE FACILITY OPERATING ROOM-SPACE FUNCTION SYS-3 FLR-4 SCH-H HPLCMT-EAST ZN,1875.00,93.8,93.8,5.002E-002,19.993,0.300,0.700,AutoCalculate,NECB-ACTIVITY,No,3.8200E-008,84,84
 People Internal Gains Nominal, SP-HEALTH CARE FACILITY PATIENT ROOM-SPACE FUNCTION SYS-3 FLR-1 SCH-H HPLCMT-NORTH ZN SPACE FUNCTION HEALTH CARE FACILITY PATIENT ROOM PEOPLE,NECB-H-OCCUPANCY,SP-HEALTH CARE FACILITY PATIENT ROOM-SPACE FUNCTION SYS-3 FLR-1 SCH-H HPLCMT-NORTH ZN,1875.00,93.8,93.8,5.002E-002,19.993,0.300,0.700,AutoCalculate,NECB-ACTIVITY,No,3.8200E-008,84,84
 People Internal Gains Nominal, SP-HEALTH CARE FACILITY PHYSICAL THERAPY ROOM-SPACE FUNCTION SYS-3 FLR-1 SCH-C HPLCMT-EAST ZN SPACE FUNCTION HEALTH CARE FACILITY PHYSICAL THERAPY ROOM PEOPLE,NECB-C-OCCUPANCY,SP-HEALTH CARE FACILITY PHYSICAL THERAPY ROOM-SPACE FUNCTION SYS-3 FLR-1 SCH-C HPLCMT-EAST ZN,1875.00,93.8,93.8,5.002E-002,19.993,0.300,0.700,AutoCalculate,NECB-ACTIVITY,No,3.8200E-008,0,84
 People Internal Gains Nominal, SP-HEALTH CARE FACILITY RECOVERY ROOM-SPACE FUNCTION SYS-3 FLR-4 SCH-H HPLCMT-WEST ZN SPACE FUNCTION HEALTH CARE FACILITY RECOVERY ROOM PEOPLE,NECB-H-OCCUPANCY,SP-HEALTH CARE FACILITY RECOVERY ROOM-SPACE FUNCTION SYS-3 FLR-4 SCH-H HPLCMT-WEST ZN,1875.00,93.8,93.8,5.002E-002,19.993,0.300,0.700,AutoCalculate,NECB-ACTIVITY,No,3.8200E-008,84,84
 People Internal Gains Nominal, SP-LIBRARY READING AREA-SPACE FUNCTION SYS-6 FLR-1 SCH-C HPLCMT-SOUTH ZN SPACE FUNCTION LIBRARY READING AREA PEOPLE,NECB-C-OCCUPANCY,SP-LIBRARY READING AREA-SPACE FUNCTION SYS-6 FLR-1 SCH-C HPLCMT-SOUTH ZN,1875.00,93.8,93.8,5.002E-002,19.993,0.300,0.700,AutoCalculate,NECB-ACTIVITY,No,3.8200E-008,0,84
 People Internal Gains Nominal, SP-LIBRARY STACKS-SPACE FUNCTION SYS-6 FLR-1 SCH-C HPLCMT-CORE ZN SPACE FUNCTION LIBRARY STACKS PEOPLE,NECB-C-OCCUPANCY,SP-LIBRARY STACKS-SPACE FUNCTION SYS-6 FLR-1 SCH-C HPLCMT-CORE ZN,2500.00,125.0,125.0,5.002E-002,19.993,0.300,0.700,AutoCalculate,NECB-ACTIVITY,No,3.8200E-008,0,113
 People Internal Gains Nominal, SP-MANUFACTURING FACILITY DETAILED MANUFACTURING AREA-SPACE FUNCTION SYS-3 FLR-2 SCH-A HPLCMT-NORTH ZN SPACE FUNCTION MANUFACTURING FACILITY DETAILED MANUFACTURING AREA PEOPLE,NECB-A-OCCUPANCY,SP-MANUFACTURING FACILITY DETAILED MANUFACTURING AREA-SPACE FUNCTION SYS-3 FLR-2 SCH-A HPLCMT-NORTH ZN,1875.00,62.5,62.5,3.335E-002,29.989,0.300,0.700,AutoCalculate,NECB-ACTIVITY,No,3.8200E-008,0,56
 People Internal Gains Nominal, SP-MANUFACTURING FACILITY EQUIPMENT ROOM-SPACE FUNCTION SYS-3 FLR-2 SCH-A HPLCMT-EAST ZN SPACE FUNCTION MANUFACTURING FACILITY EQUIPMENT ROOM PEOPLE,NECB-A-OCCUPANCY,SP-MANUFACTURING FACILITY EQUIPMENT ROOM-SPACE FUNCTION SYS-3 FLR-2 SCH-A HPLCMT-EAST ZN,1875.00,62.5,62.5,3.335E-002,29.989,0.300,0.700,AutoCalculate,NECB-ACTIVITY,No,3.8200E-008,0,56
 People Internal Gains Nominal, SP-MANUFACTURING FACILITY EXTRA HIGH BAY AREA (> 15 M FLOOR-TO-CEILING HEIGHT)-SPACE FUNCTION SYS-3 FLR-4 SCH-A HPLCMT-SOUTH ZN SPACE FUNCTION MANUFACTURING FACILITY EXTRA HIGH BAY AREA (> 15 M FLOOR-TO-CEILING HEIGHT) PEOPLE,NECB-A-OCCUPANCY,SP-MANUFACTURING FACILITY EXTRA HIGH BAY AREA (> 15 M FLOOR-TO-CEILING HEIGHT)-SPACE FUNCTION SYS-3 FLR-4 SCH-A HPLCMT-SOUTH ZN,1875.00,62.5,62.5,3.335E-002,29.989,0.300,0.700,AutoCalculate,NECB-ACTIVITY,No,3.8200E-008,0,56
 People Internal Gains Nominal, SP-MANUFACTURING FACILITY HIGH BAY AREA (7.5 TO 15 M FLOOR-TO-CEILING HEIGHT)-SPACE FUNCTION SYS-3 FLR-2 SCH-A HPLCMT-SOUTH ZN SPACE FUNCTION MANUFACTURING FACILITY HIGH BAY AREA (7.5 TO 15 M FLOOR-TO-CEILING HEIGHT) PEOPLE,NECB-A-OCCUPANCY,SP-MANUFACTURING FACILITY HIGH BAY AREA (7.5 TO 15 M FLOOR-TO-CEILING HEIGHT)-SPACE FUNCTION SYS-3 FLR-2 SCH-A HPLCMT-SOUTH ZN,1875.00,62.5,62.5,3.335E-002,29.989,0.300,0.700,AutoCalculate,NECB-ACTIVITY,No,3.8200E-008,0,56
 People Internal Gains Nominal, SP-MANUFACTURING FACILITY LOW BAY AREA (< 7.5 M FLOOR-TO-CEILING HEIGHT)-SPACE FUNCTION SYS-3 FLR-2 SCH-A HPLCMT-WEST ZN SPACE FUNCTION MANUFACTURING FACILITY LOW BAY AREA (< 7.5 M FLOOR-TO-CEILING HEIGHT) PEOPLE,NECB-A-OCCUPANCY,SP-MANUFACTURING FACILITY LOW BAY AREA (< 7.5 M FLOOR-TO-CEILING HEIGHT)-SPACE FUNCTION SYS-3 FLR-2 SCH-A HPLCMT-WEST ZN,1875.00,62.5,62.5,3.335E-002,29.989,0.300,0.700,AutoCalculate,NECB-ACTIVITY,No,3.8200E-008,0,56
 People Internal Gains Nominal, SP-MUSEUM GENERAL EXHIBITION AREA-SPACE FUNCTION SYS-2 FLR-2 SCH-C HPLCMT-CORE ZN SPACE FUNCTION MUSEUM GENERAL EXHIBITION AREA PEOPLE,NECB-C-OCCUPANCY,SP-MUSEUM GENERAL EXHIBITION AREA-SPACE FUNCTION SYS-2 FLR-2 SCH-C HPLCMT-CORE ZN,2500.00,500.2,500.2,0.200,4.998,0.300,0.700,AutoCalculate,NECB-ACTIVITY,No,3.8200E-008,0,450
! <Lights Internal Gains Nominal>,Name,Schedule Name,Zone Name,Zone Floor Area {m2},# Zone Occupants,Lighting Level {W},Lights/Floor Area {W/m2},Lights per person {W/person},Fraction Return Air,Fraction Radiant,Fraction Short Wave,Fraction Convected,Fraction Replaceable,End-Use Category,Nominal Minimum Lighting Level {W},Nominal Maximum Lighting Level {W}
 Lights Internal Gains Nominal, SP-FIRE STATION SLEEPING QUARTERS-SPACE FUNCTION SYS-3 FLR-4 SCH-G HPLCMT-NORTH ZN SPACE FUNCTION FIRE STATION SLEEPING QUARTERS LIGHTS,NECB-G-LIGHTING,SP-FIRE STATION SLEEPING QUARTERS-SPACE FUNCTION SYS-3 FLR-4 SCH-G HPLCMT-NORTH ZN,1875.00,75.0,4124.966,2.200,54.980,0.000,0.500,0.200,0.300,1.000,General,0.000,3712.469
 Lights Internal Gains Nominal, SP-GYMNASIUM/FITNESS CENTRE EXERCISE AREA-SPACE FUNCTION SYS-6 FLR-3 SCH-B HPLCMT-CORE ZN SPACE FUNCTION GYMNASIUM/FITNESS CENTRE EXERCISE AREA LIGHTS,NECB-B-LIGHTING,SP-GYMNASIUM/FITNESS CENTRE EXERCISE AREA-SPACE FUNCTION SYS-6 FLR-3 SCH-B HPLCMT-CORE ZN,2500.00,500.2,13499.881,5.400,26.990,0.000,0.500,0.200,0.300,1.000,General,1349.988,12149.893
 Lights Internal Gains Nominal, SP-GYMNASIUM/FITNESS CENTRE PLAYING AREA-SPACE FUNCTION SYS-6 FLR-3 SCH-B HPLCMT-SOUTH ZN SPACE FUNCTION GYMNASIUM/FITNESS CENTRE PLAYING AREA LIGHTS,NECB-B-OCCUPANCY-NECB-B-LIGHTING-0.0-0.0-0.67-LIGHT RULESET,SP-GYMNASIUM/FITNESS CENTRE PLAYING AREA-SPACE FUNCTION SYS-6 FLR-3 SCH-B HPLCMT-SOUTH ZN,1875.00,375.1,16499.864,8.800,43.984,0.000,0.500,0.200,0.300,1.000,General,1649.986,14849.877
 Lights Internal Gains Nominal, SP-HEALTH CARE FACILITY EXAM/TREATMENT ROOM-SPACE FUNCTION SYS-3 FLR-3 SCH-C HPLCMT-EAST ZN SPACE FUNCTION HEALTH CARE FACILITY EXAM/TREATMENT ROOM LIGHTS,NECB-C-OCCUPANCY-NECB-C-LIGHTING-0.3-0.0-0.67-LIGHT RULESET,SP-HEALTH CARE FACILITY EXAM/TREATMENT ROOM-SPACE FUNCTION SYS-3 FLR-3 SCH-C HPLCMT-EAST ZN,1875.00,93.8,33937.217,18.100,361.865,0.000,0.500,0.200,0.300,1.000,General,1355.792,30543.495
 Lights Internal Gains Nominal, SP-HEALTH CARE FACILITY IMAGING ROOM-SPACE FUNCTION SYS-3 FLR-4 SCH-H HPLCMT-CORE ZN SPACE FUNCTION HEALTH CARE FACILITY IMAGING ROOM LIGHTS,NECB-H-OCCUPANCY-NECB-H-LIGHTING-0.0-0.0-0.67-LIGHT RULESET,SP-HEALTH CARE FACILITY IMAGING ROOM-SPACE FUNCTION SYS-3 FLR-4 SCH-H HPLCMT-CORE ZN,2500.00,125.0,28499.767,11.400,227.915,0.000,0.500,0.200,0.300,1.000,General,25649.790,25649.790
 Lights Internal Gains Nominal, SP-HEALTH CARE FACILITY MEDICAL SUPPLY ROOM-SPACE FUNCTION SYS-3 FLR-3 SCH-H HPLCMT-NORTH ZN SPACE FUNCTION HEALTH CARE FACILITY MEDICAL SUPPLY ROOM LIGHTS,NECB-H-LIGHTING,SP-HEALTH CARE FACILITY MEDICAL SUPPLY ROOM-SPACE FUNCTION SYS-3 FLR-3 SCH-H HPLCMT-NORTH ZN,1875.00,93.8,10874.907,5.800,115.957,0.000,0.500,0.200,0.300,1.000,General,9787.416,9787.416
 Lights Internal Gains Nominal, SP-HEALTH CARE FACILITY NURSERY-SPACE FUNCTION SYS-3 FLR-3 SCH-H HPLCMT-WEST ZN SPACE FUNCTION HEALTH CARE FACILITY NURSERY LIGHTS,NECB-H-OCCUPANCY-NECB-H-LIGHTING-0.0-0.0-0.67-LIGHT RULESET,SP-HEALTH CARE FACILITY NURSERY-SPACE FUNCTION SYS-3 FLR-3 SCH-H HPLCMT-WEST ZN,1875.00,93.8,20249.822,10.800,215.920,0.000,0.500,0.200,0.300,1.000,General,18224.840,18224.840
 Lights Internal Gains Nominal, SP-HEALTH CARE FACILITY NURSES STATION-SPACE FUNCTION SYS-3 FLR-1 SCH-H HPLCMT-WEST ZN SPACE FUNCTION HEALTH CARE FACILITY NURSES STATION LIGHTS,NECB-H-OCCUPANCY-NECB-H-LIGHTING-0.0-0.0-0.67-LIGHT RULESET,SP-HEALTH CARE FACILITY NURSES STATION-SPACE FUNCTION SYS-3 FLR-1 SCH-H HPLCMT-WEST ZN,1875.00,93.8,16312.370,8.700,173.935,0.000,0.500,0.200,0.300,1.000,General,14681.133,14681.133
 Lights Internal Gains Nominal, SP-HEALTH CARE FACILITY OPERATING ROOM-SPACE FUNCTION SYS-3 FLR-4 SCH-H HPLCMT-EAST ZN SPACE FUNCTION HEALTH CARE FACILITY OPERATING ROOM LIGHTS,NECB-H-OCCUPANCY-NECB-H-LIGHTING-0.1-0.0-0.67-LIGHT RULESET,SP-HEALTH CARE FACILITY OPERATING ROOM-SPACE FUNCTION SYS-3 FLR-4 SCH-H HPLCMT-EAST ZN,1875.00,93.8,43874.634,23.400,467.826,0.000,0.500,0.200,0.300,1.000,General,39487.171,39487.171
 Lights Internal Gains Nominal, SP-HEALTH CARE FACILITY PATIENT ROOM-SPACE FUNCTION SYS-3 FLR-1 SCH-H HPLCMT-NORTH ZN SPACE FUNCTION HEALTH CARE FACILITY PATIENT ROOM LIGHTS,NECB-H-LIGHTING,SP-HEALTH CARE FACILITY PATIENT ROOM-SPACE FUNCTION SYS-3 FLR-1 SCH-H HPLCMT-NORTH ZN,1875.00,93.8,12567.065,6.702,134.000,0.000,0.500,0.200,0.300,1.000,General,11310.359,11310.359
 Lights Internal Gains Nominal, SP-HEALTH CARE FACILITY PHYSICAL THERAPY ROOM-SPACE FUNCTION SYS-3 FLR-1 SCH-C HPLCMT-EAST ZN SPACE FUNCTION HEALTH CARE FACILITY PHYSICAL THERAPY ROOM LIGHTS,NECB-C-OCCUPANCY-NECB-C-LIGHTING-0.2-0.0-0.67-LIGHT RULESET,SP-HEALTH CARE FACILITY PHYSICAL THERAPY ROOM-SPACE FUNCTION SYS-3 FLR-1 SCH-C HPLCMT-EAST ZN,1875.00,93.8,16874.851,9.000,179.933,0.000,0.500,0.200,0.300,1.000,General,730.681,15187.366
 Lights Internal Gains Nominal, SP-HEALTH CARE FACILITY RECOVERY ROOM-SPACE FUNCTION SYS-3 FLR-4 SCH-H HPLCMT-WEST ZN SPACE FUNCTION HEALTH CARE FACILITY RECOVERY ROOM LIGHTS,NECB-H-OCCUPANCY-NECB-H-LIGHTING-0.0-0.0-0.67-LIGHT RULESET,SP-HEALTH CARE FACILITY RECOVERY ROOM-SPACE FUNCTION SYS-3 FLR-4 SCH-H HPLCMT-WEST ZN,1875.00,93.8,20812.324,11.100,221.917,0.000,0.500,0.200,0.300,1.000,General,18731.091,18731.091
 Lights Internal Gains Nominal, SP-LIBRARY READING AREA-SPACE FUNCTION SYS-6 FLR-1 SCH-C HPLCMT-SOUTH ZN SPACE FUNCTION LIBRARY READING AREA LIGHTS,NECB-C-OCCUPANCY-NECB-C-LIGHTING-0.0-0.0-0.67-LIGHT RULESET,SP-LIBRARY READING AREA-SPACE FUNCTION SYS-6 FLR-1 SCH-C HPLCMT-SOUTH ZN,1875.00,93.8,16499.864,8.800,175.935,0.000,0.500,0.200,0.300,1.000,General,824.993,14849.877
 Lights Internal Gains Nominal, SP-LIBRARY STACKS-SPACE FUNCTION SYS-6 FLR-1 SCH-C HPLCMT-CORE ZN SPACE FUNCTION LIBRARY STACKS LIGHTS,NECB-C-OCCUPANCY-NECB-C-LIGHTING-0.0-0.0-0.67-LIGHT RULESET,SP-LIBRARY STACKS-SPACE FUNCTION SYS-6 FLR-1 SCH-C HPLCMT-CORE ZN,2500.00,125.0,32249.725,12.900,257.904,0.000,0.500,0.200,0.300,1.000,General,1612.486,29024.753
 Lights Internal Gains Nominal, SP-MANUFACTURING FACILITY DETAILED MANUFACTURING AREA-SPACE FUNCTION SYS-3 FLR-2 SCH-A HPLCMT-NORTH ZN SPACE FUNCTION MANUFACTURING FACILITY DETAILED MANUFACTURING AREA LIGHTS,NECB-A-OCCUPANCY-NECB-A-LIGHTING-0.0-0.0-0.67-LIGHT RULESET,SP-MANUFACTURING FACILITY DETAILED MANUFACTURING AREA-SPACE FUNCTION SYS-3 FLR-2 SCH-A HPLCMT-NORTH ZN,1875.00,62.5,18749.851,10.000,299.889,0.000,0.500,0.200,0.300,1.000,General,937.493,16874.866
 Lights Internal Gains Nominal, SP-MANUFACTURING FACILITY EQUIPMENT ROOM-SPACE FUNCTION SYS-3 FLR-2 SCH-A HPLCMT-EAST ZN SPACE FUNCTION MANUFACTURING FACILITY EQUIPMENT ROOM LIGHTS,NECB-A-LIGHTING,SP-MANUFACTURING FACILITY EQUIPMENT ROOM-SPACE FUNCTION SYS-3 FLR-2 SCH-A HPLCMT-EAST ZN,1875.00,62.5,13124.893,7.000,209.922,0.000,0.500,0.200,0.300,1.000,General,656.245,11812.404
 Lights Internal Gains Nominal, SP-MANUFACTURING FACILITY EXTRA HIGH BAY AREA (> 15 M FLOOR-TO-CEILING HEIGHT)-SPACE FUNCTION SYS-3 FLR-4 SCH-A HPLCMT-SOUTH ZN SPACE FUNCTION MANUFACTURING FACILITY EXTRA HIGH BAY AREA (> 15 M FLOOR-TO-CEILING HEIGHT) LIGHTS,NECB-A-OCCUPANCY-NECB-A-LIGHTING-0.0-0.0-0.67-LIGHT RULESET,SP-MANUFACTURING FACILITY EXTRA HIGH BAY AREA (> 15 M FLOOR-TO-CEILING HEIGHT)-SPACE FUNCTION SYS-3 FLR-4 SCH-A HPLCMT-SOUTH ZN,1875.00,62.5,21195.200,11.304,339.000,0.000,0.500,0.200,0.300,1.000,General,1059.760,19075.680
 Lights Internal Gains Nominal, SP-MANUFACTURING FACILITY HIGH BAY AREA (7.5 TO 15 M FLOOR-TO-CEILING HEIGHT)-SPACE FUNCTION SYS-3 FLR-2 SCH-A HPLCMT-SOUTH ZN SPACE FUNCTION MANUFACTURING FACILITY HIGH BAY AREA (7.5 TO 15 M FLOOR-TO-CEILING HEIGHT) LIGHTS,NECB-A-LIGHTING,SP-MANUFACTURING FACILITY HIGH BAY AREA (7.5 TO 15 M FLOOR-TO-CEILING HEIGHT)-SPACE FUNCTION SYS-3 FLR-2 SCH-A HPLCMT-SOUTH ZN,1875.00,62.5,15187.366,8.100,242.910,0.000,0.500,0.200,0.300,1.000,General,759.368,13668.630
 Lights Internal Gains Nominal, SP-MANUFACTURING FACILITY LOW BAY AREA (< 7.5 M FLOOR-TO-CEILING HEIGHT)-SPACE FUNCTION SYS-3 FLR-2 SCH-A HPLCMT-WEST ZN SPACE FUNCTION MANUFACTURING FACILITY LOW BAY AREA (< 7.5 M FLOOR-TO-CEILING HEIGHT) LIGHTS,NECB-A-OCCUPANCY-NECB-A-LIGHTING-0.0-0.0-0.67-LIGHT RULESET,SP-MANUFACTURING FACILITY LOW BAY AREA (< 7.5 M FLOOR-TO-CEILING HEIGHT)-SPACE FUNCTION SYS-3 FLR-2 SCH-A HPLCMT-WEST ZN,1875.00,62.5,19312.332,10.300,308.885,0.000,0.500,0.200,0.300,1.000,General,965.617,17381.099
 Lights Internal Gains Nominal, SP-MUSEUM GENERAL EXHIBITION AREA-SPACE FUNCTION SYS-2 FLR-2 SCH-C HPLCMT-CORE ZN SPACE FUNCTION MUSEUM GENERAL EXHIBITION AREA LIGHTS,NECB-C-OCCUPANCY-NECB-C-LIGHTING-0.2-0.0-0.67-LIGHT RULESET,SP-MUSEUM GENERAL EXHIBITION AREA-SPACE FUNCTION SYS-2 FLR-2 SCH-C HPLCMT-CORE ZN,2500.00,500.2,28249.775,11.300,56.479,0.000,0.500,0.200,0.300,1.000,General,1223.215,25424.798
! <ElectricEquipment Internal Gains Nominal>,Name,Schedule Name,Zone Name,Zone Floor Area {m2},# Zone Occupants,Equipment Level {W},Equipment/Floor Area {W/m2},Equipment per person {W/person},Fraction Latent,Fraction Radiant,Fraction Lost,Fraction Convected,End-Use SubCategory,Nominal Minimum Equipment Level {W},Nominal Maximum Equipment Level {W}
 ElectricEquipment Internal Gains Nominal, SP-FIRE STATION SLEEPING QUARTERS-SPACE FUNCTION SYS-3 FLR-4 SCH-G HPLCMT-NORTH ZN SPACE FUNCTION FIRE STATION SLEEPING QUARTERS ELEC EQUIP,NECB-G-ELECTRIC-EQUIPMENT,SP-FIRE STATION SLEEPING QUARTERS-SPACE FUNCTION SYS-3 FLR-4 SCH-G HPLCMT-NORTH ZN,1875.00,75.0,4689.204,2.501,62.500,0.000,0.500,0.000,0.500,General,937.841,4220.283
 ElectricEquipment Internal Gains Nominal, SP-GYMNASIUM/FITNESS CENTRE EXERCISE AREA-SPACE FUNCTION SYS-6 FLR-3 SCH-B HPLCMT-CORE ZN SPACE FUNCTION GYMNASIUM/FITNESS CENTRE EXERCISE AREA ELEC EQUIP,NECB-B-ELECTRIC-EQUIPMENT,SP-GYMNASIUM/FITNESS CENTRE EXERCISE AREA-SPACE FUNCTION SYS-6 FLR-3 SCH-B HPLCMT-CORE ZN,2500.00,500.2,2500.909,1.000,5.000,0.000,0.500,0.000,0.500,General,250.091,2250.818
 ElectricEquipment Internal Gains Nominal, SP-GYMNASIUM/FITNESS CENTRE PLAYING AREA-SPACE FUNCTION SYS-6 FLR-3 SCH-B HPLCMT-SOUTH ZN SPACE FUNCTION GYMNASIUM/FITNESS CENTRE PLAYING AREA ELEC EQUIP,NECB-B-ELECTRIC-EQUIPMENT,SP-GYMNASIUM/FITNESS CENTRE PLAYING AREA-SPACE FUNCTION SYS-6 FLR-3 SCH-B HPLCMT-SOUTH ZN,1875.00,375.1,2813.522,1.501,7.500,0.000,0.500,0.000,0.500,General,281.352,2532.170
 ElectricEquipment Internal Gains Nominal, SP-HEALTH CARE FACILITY EXAM/TREATMENT ROOM-SPACE FUNCTION SYS-3 FLR-3 SCH-C HPLCMT-EAST ZN SPACE FUNCTION HEALTH CARE FACILITY EXAM/TREATMENT ROOM ELEC EQUIP,NECB-C-ELECTRIC-EQUIPMENT,SP-HEALTH CARE FACILITY EXAM/TREATMENT ROOM-SPACE FUNCTION SYS-3 FLR-3 SCH-C HPLCMT-EAST ZN,1875.00,93.8,18756.814,10.004,200.000,0.000,0.500,0.000,0.500,General,937.841,16881.133
 ElectricEquipment Internal Gains Nominal, SP-HEALTH CARE FACILITY IMAGING ROOM-SPACE FUNCTION SYS-3 FLR-4 SCH-H HPLCMT-CORE ZN SPACE FUNCTION HEALTH CARE FACILITY IMAGING ROOM ELEC EQUIP,NECB-H-ELECTRIC-EQUIPMENT,SP-HEALTH CARE FACILITY IMAGING ROOM-SPACE FUNCTION SYS-3 FLR-4 SCH-H HPLCMT-CORE ZN,2500.00,125.0,25009.086,10.004,200.000,0.000,0.500,0.000,0.500,General,22508.177,22508.177
 ElectricEquipment Internal Gains Nominal, SP-HEALTH CARE FACILITY MEDICAL SUPPLY ROOM-SPACE FUNCTION SYS-3 FLR-3 SCH-H HPLCMT-NORTH ZN SPACE FUNCTION HEALTH CARE FACILITY MEDICAL SUPPLY ROOM ELEC EQUIP,NECB-H-ELECTRIC-EQUIPMENT,SP-HEALTH CARE FACILITY MEDICAL SUPPLY ROOM-SPACE FUNCTION SYS-3 FLR-3 SCH-H HPLCMT-NORTH ZN,1875.00,93.8,1875.681,1.000,20.000,0.000,0.500,0.000,0.500,General,1688.113,1688.113
 ElectricEquipment Internal Gains Nominal, SP-HEALTH CARE FACILITY NURSERY-SPACE FUNCTION SYS-3 FLR-3 SCH-H HPLCMT-WEST ZN SPACE FUNCTION HEALTH CARE FACILITY NURSERY ELEC EQUIP,NECB-H-ELECTRIC-EQUIPMENT,SP-HEALTH CARE FACILITY NURSERY-SPACE FUNCTION SYS-3 FLR-3 SCH-H HPLCMT-WEST ZN,1875.00,93.8,18756.814,10.004,200.000,0.000,0.500,0.000,0.500,General,16881.133,16881.133
 ElectricEquipment Internal Gains Nominal, SP-HEALTH CARE FACILITY NURSES STATION-SPACE FUNCTION SYS-3 FLR-1 SCH-H HPLCMT-WEST ZN SPACE FUNCTION HEALTH CARE FACILITY NURSES STATION ELEC EQUIP,NECB-H-ELECTRIC-EQUIPMENT,SP-HEALTH CARE FACILITY NURSES STATION-SPACE FUNCTION SYS-3 FLR-1 SCH-H HPLCMT-WEST ZN,1875.00,93.8,4689.204,2.501,50.000,0.000,0.500,0.000,0.500,General,4220.283,4220.283
 ElectricEquipment Internal Gains Nominal, SP-HEALTH CARE FACILITY OPERATING ROOM-SPACE FUNCTION SYS-3 FLR-4 SCH-H HPLCMT-EAST ZN SPACE FUNCTION HEALTH CARE FACILITY OPERATING ROOM ELEC EQUIP,NECB-H-ELECTRIC-EQUIPMENT,SP-HEALTH CARE FACILITY OPERATING ROOM-SPACE FUNCTION SYS-3 FLR-4 SCH-H HPLCMT-EAST ZN,1875.00,93.8,18756.814,10.004,200.000,0.000,0.500,0.000,0.500,General,16881.133,16881.133
 ElectricEquipment Internal Gains Nominal, SP-HEALTH CARE FACILITY PATIENT ROOM-SPACE FUNCTION SYS-3 FLR-1 SCH-H HPLCMT-NORTH ZN SPACE FUNCTION HEALTH CARE FACILITY PATIENT ROOM ELEC EQUIP,NECB-H-ELECTRIC-EQUIPMENT,SP-HEALTH CARE FACILITY PATIENT ROOM-SPACE FUNCTION SYS-3 FLR-1 SCH-H HPLCMT-NORTH ZN,1875.00,93.8,18756.814,10.004,200.000,0.000,0.500,0.000,0.500,General,16881.133,16881.133
 ElectricEquipment Internal Gains Nominal, SP-HEALTH CARE FACILITY PHYSICAL THERAPY ROOM-SPACE FUNCTION SYS-3 FLR-1 SCH-C HPLCMT-EAST ZN SPACE FUNCTION HEALTH CARE FACILITY PHYSICAL THERAPY ROOM ELEC EQUIP,NECB-C-ELECTRIC-EQUIPMENT,SP-HEALTH CARE FACILITY PHYSICAL THERAPY ROOM-SPACE FUNCTION SYS-3 FLR-1 SCH-C HPLCMT-EAST ZN,1875.00,93.8,18756.814,10.004,200.000,0.000,0.500,0.000,0.500,General,937.841,16881.133
 ElectricEquipment Internal Gains Nominal, SP-HEALTH CARE FACILITY RECOVERY ROOM-SPACE FUNCTION SYS-3 FLR-4 SCH-H HPLCMT-WEST ZN SPACE FUNCTION HEALTH CARE FACILITY RECOVERY ROOM ELEC EQUIP,NECB-H-ELECTRIC-EQUIPMENT,SP-HEALTH CARE FACILITY RECOVERY ROOM-SPACE FUNCTION SYS-3 FLR-4 SCH-H HPLCMT-WEST ZN,1875.00,93.8,18756.814,10.004,200.000,0.000,0.500,0.000,0.500,General,16881.133,16881.133
 ElectricEquipment Internal Gains Nominal, SP-LIBRARY READING AREA-SPACE FUNCTION SYS-6 FLR-1 SCH-C HPLCMT-SOUTH ZN SPACE FUNCTION LIBRARY READING AREA ELEC EQUIP,NECB-C-ELECTRIC-EQUIPMENT,SP-LIBRARY READING AREA-SPACE FUNCTION SYS-6 FLR-1 SCH-C HPLCMT-SOUTH ZN,1875.00,93.8,1875.681,1.000,20.000,0.000,0.500,0.000,0.500,General,93.784,1688.113
 ElectricEquipment Internal Gains Nominal, SP-MANUFACTURING FACILITY DETAILED MANUFACTURING AREA-SPACE FUNCTION SYS-3 FLR-2 SCH-A HPLCMT-NORTH ZN SPACE FUNCTION MANUFACTURING FACILITY DETAILED MANUFACTURING AREA ELEC EQUIP,NECB-A-ELECTRIC-EQUIPMENT,SP-MANUFACTURING FACILITY DETAILED MANUFACTURING AREA-SPACE FUNCTION SYS-3 FLR-2 SCH-A HPLCMT-NORTH ZN,1875.00,62.5,18756.814,10.004,300.000,0.000,0.500,0.000,0.500,General,3751.363,16881.133
 ElectricEquipment Internal Gains Nominal, SP-MANUFACTURING FACILITY EQUIPMENT ROOM-SPACE FUNCTION SYS-3 FLR-2 SCH-A HPLCMT-EAST ZN SPACE FUNCTION MANUFACTURING FACILITY EQUIPMENT ROOM ELEC EQUIP,NECB-A-ELECTRIC-EQUIPMENT,SP-MANUFACTURING FACILITY EQUIPMENT ROOM-SPACE FUNCTION SYS-3 FLR-2 SCH-A HPLCMT-EAST ZN,1875.00,62.5,18756.814,10.004,300.000,0.000,0.500,0.000,0.500,General,3751.363,16881.133
 ElectricEquipment Internal Gains Nominal, SP-MANUFACTURING FACILITY EXTRA HIGH BAY AREA (> 15 M FLOOR-TO-CEILING HEIGHT)-SPACE FUNCTION SYS-3 FLR-4 SCH-A HPLCMT-SOUTH ZN SPACE FUNCTION MANUFACTURING FACILITY EXTRA HIGH BAY AREA (> 15 M FLOOR-TO-CEILING HEIGHT) ELEC EQUIP,NECB-A-ELECTRIC-EQUIPMENT,SP-MANUFACTURING FACILITY EXTRA HIGH BAY AREA (> 15 M FLOOR-TO-CEILING HEIGHT)-SPACE FUNCTION SYS-3 FLR-4 SCH-A HPLCMT-SOUTH ZN,1875.00,62.5,18756.814,10.004,300.000,0.000,0.500,0.000,0.500,General,3751.363,16881.133
 ElectricEquipment Internal Gains Nominal, SP-MANUFACTURING FACILITY HIGH BAY AREA (7.5 TO 15 M FLOOR-TO-CEILING HEIGHT)-SPACE FUNCTION SYS-3 FLR-2 SCH-A HPLCMT-SOUTH ZN SPACE FUNCTION MANUFACTURING FACILITY HIGH BAY AREA (7.5 TO 15 M FLOOR-TO-CEILING HEIGHT) ELEC EQUIP,NECB-A-ELECTRIC-EQUIPMENT,SP-MANUFACTURING FACILITY HIGH BAY AREA (7.5 TO 15 M FLOOR-TO-CEILING HEIGHT)-SPACE FUNCTION SYS-3 FLR-2 SCH-A HPLCMT-SOUTH ZN,1875.00,62.5,18756.814,10.004,300.000,0.000,0.500,0.000,0.500,General,3751.363,16881.133
 ElectricEquipment Internal Gains Nominal, SP-MANUFACTURING FACILITY LOW BAY AREA (< 7.5 M FLOOR-TO-CEILING HEIGHT)-SPACE FUNCTION SYS-3 FLR-2 SCH-A HPLCMT-WEST ZN SPACE FUNCTION MANUFACTURING FACILITY LOW BAY AREA (< 7.5 M FLOOR-TO-CEILING HEIGHT) ELEC EQUIP,NECB-A-ELECTRIC-EQUIPMENT,SP-MANUFACTURING FACILITY LOW BAY AREA (< 7.5 M FLOOR-TO-CEILING HEIGHT)-SPACE FUNCTION SYS-3 FLR-2 SCH-A HPLCMT-WEST ZN,1875.00,62.5,18756.814,10.004,300.000,0.000,0.500,0.000,0.500,General,3751.363,16881.133
 ElectricEquipment Internal Gains Nominal, SP-MUSEUM GENERAL EXHIBITION AREA-SPACE FUNCTION SYS-2 FLR-2 SCH-C HPLCMT-CORE ZN SPACE FUNCTION MUSEUM GENERAL EXHIBITION AREA ELEC EQUIP,NECB-C-ELECTRIC-EQUIPMENT,SP-MUSEUM GENERAL EXHIBITION AREA-SPACE FUNCTION SYS-2 FLR-2 SCH-C HPLCMT-CORE ZN,2500.00,500.2,6252.271,2.501,12.500,0.000,0.500,0.000,0.500,General,312.614,5627.044
! <Shadowing/Sun Position Calculations Annual Simulations>, Calculation Method, Value {days}, Allowable Number Figures in Shadow Overlap {}, Polygon Clipping Algorithm, Sky Diffuse Modeling Algorithm, External Shading Calculation Method, Output External Shading Calculation Results, Disable Self-Shading Within Shading Zone Groups, Disable Self-Shading From Shading Zone Groups to Other Zones
Shadowing/Sun Position Calculations Annual Simulations,AverageOverDaysInFrequency,20,15000,SutherlandHodgman,SimpleSkyDiffuseModeling,InternalCalculation,No,No,No
! <Water Heater Information>,Type,Name,Volume {m3},Maximum Capacity {W},Standard Rated Recovery Efficiency, Standard Rated Energy Factor
! <ZoneInfiltration Airflow Stats Nominal>,Name,Schedule Name,Zone Name, Zone Floor Area {m2}, # Zone Occupants,Design Volume Flow Rate {m3/s},Volume Flow Rate/Floor Area {m3/s/m2},Volume Flow Rate/Exterior Surface Area {m3/s/m2},ACH - Air Changes per Hour,Equation A - Constant Term Coefficient {},Equation B - Temperature Term Coefficient {1/C},Equation C - Velocity Term Coefficient {s/m}, Equation D - Velocity Squared Term Coefficient {s2/m2}
 ZoneInfiltration Airflow Stats Nominal, FIRE STATION SLEEPING QUARTERS-SPACE FUNCTION INFILTRATION,ALWAYS ON DISCRETE,SP-FIRE STATION SLEEPING QUARTERS-SPACE FUNCTION SYS-3 FLR-4 SCH-G HPLCMT-NORTH ZN,1875.00,75.0,0.564,3.007E-004,2.500E-004,0.285,0.000,0.000,0.224,0.000
 ZoneInfiltration Airflow Stats Nominal, GYMNASIUM/FITNESS CENTRE PLAYING AREA-SPACE FUNCTION INFILTRATION,ALWAYS ON DISCRETE,SP-GYMNASIUM/FITNESS CENTRE PLAYING AREA-SPACE FUNCTION SYS-6 FLR-3 SCH-B HPLCMT-SOUTH ZN,1875.00,375.1,9.500E-002,5.067E-005,2.500E-004,4.800E-002,0.000,0.000,0.224,0.000
 ZoneInfiltration Airflow Stats Nominal, HEALTH CARE FACILITY EXAM/TREATMENT ROOM-SPACE FUNCTION INFILTRATION,ALWAYS ON DISCRETE,SP-HEALTH CARE FACILITY EXAM/TREATMENT ROOM-SPACE FUNCTION SYS-3 FLR-3 SCH-C HPLCMT-EAST ZN,1875.00,93.8,9.500E-002,5.067E-005,2.500E-004,4.800E-002,0.000,0.000,0.224,0.000
 ZoneInfiltration Airflow Stats Nominal, HEALTH CARE FACILITY IMAGING ROOM-SPACE FUNCTION INFILTRATION,ALWAYS ON DISCRETE,SP-HEALTH CARE FACILITY IMAGING ROOM-SPACE FUNCTION SYS-3 FLR-4 SCH-H HPLCMT-CORE ZN,2500.00,125.0,0.625,2.500E-004,2.500E-004,0.237,0.000,0.000,0.224,0.000
 ZoneInfiltration Airflow Stats Nominal, HEALTH CARE FACILITY MEDICAL SUPPLY ROOM-SPACE FUNCTION INFILTRATION,ALWAYS ON DISCRETE,SP-HEALTH CARE FACILITY MEDICAL SUPPLY ROOM-SPACE FUNCTION SYS-3 FLR-3 SCH-H HPLCMT-NORTH ZN,1875.00,93.8,9.500E-002,5.067E-005,2.500E-004,4.800E-002,0.000,0.000,0.224,0.000
 ZoneInfiltration Airflow Stats Nominal, HEALTH CARE FACILITY NURSERY-SPACE FUNCTION INFILTRATION,ALWAYS ON DISCRETE,SP-HEALTH CARE FACILITY NURSERY-SPACE FUNCTION SYS-3 FLR-3 SCH-H HPLCMT-WEST ZN,1875.00,93.8,9.500E-002,5.067E-005,2.500E-004,4.800E-002,0.000,0.000,0.224,0.000
 ZoneInfiltration Airflow Stats Nominal, HEALTH CARE FACILITY OPERATING ROOM-SPACE FUNCTION INFILTRATION,ALWAYS ON DISCRETE,SP-HEALTH CARE FACILITY OPERATING ROOM-SPACE FUNCTION SYS-3 FLR-4 SCH-H HPLCMT-EAST ZN,1875.00,93.8,0.564,3.007E-004,2.500E-004,0.285,0.000,0.000,0.224,0.000
 ZoneInfiltration Airflow Stats Nominal, HEALTH CARE FACILITY RECOVERY ROOM-SPACE FUNCTION INFILTRATION,ALWAYS ON DISCRETE,SP-HEALTH CARE FACILITY RECOVERY ROOM-SPACE FUNCTION SYS-3 FLR-4 SCH-H HPLCMT-WEST ZN,1875.00,93.8,0.564,3.007E-004,2.500E-004,0.285,0.000,0.000,0.224,0.000
 ZoneInfiltration Airflow Stats Nominal, MANUFACTURING FACILITY DETAILED MANUFACTURING AREA-SPACE FUNCTION INFILTRATION,ALWAYS ON DISCRETE,SP-MANUFACTURING FACILITY DETAILED MANUFACTURING AREA-SPACE FUNCTION SYS-3 FLR-2 SCH-A HPLCMT-NORTH ZN,1875.00,62.5,9.500E-002,5.067E-005,2.500E-004,4.800E-002,0.000,0.000,0.224,0.000
 ZoneInfiltration Airflow Stats Nominal, MANUFACTURING FACILITY EQUIPMENT ROOM-SPACE FUNCTION INFILTRATION,ALWAYS ON DISCRETE,SP-MANUFACTURING FACILITY EQUIPMENT ROOM-SPACE FUNCTION SYS-3 FLR-2 SCH-A HPLCMT-EAST ZN,1875.00,62.5,9.500E-002,5.067E-005,2.500E-004,4.800E-002,0.000,0.000,0.224,0.000
 ZoneInfiltration Airflow Stats Nominal, MANUFACTURING FACILITY EXTRA HIGH BAY AREA (> 15 M FLOOR-TO-CEILING HEIGHT)-SPACE FUNCTION INFILTRATION,ALWAYS ON DISCRETE,SP-MANUFACTURING FACILITY EXTRA HIGH BAY AREA (> 15 M FLOOR-TO-CEILING HEIGHT)-SPACE FUNCTION SYS-3 FLR-4 SCH-A HPLCMT-SOUTH ZN,1875.00,62.5,0.564,3.007E-004,2.500E-004,0.285,0.000,0.000,0.224,0.000
 ZoneInfiltration Airflow Stats Nominal, MANUFACTURING FACILITY HIGH BAY AREA (7.5 TO 15 M FLOOR-TO-CEILING HEIGHT)-SPACE FUNCTION INFILTRATION,ALWAYS ON DISCRETE,SP-MANUFACTURING FACILITY HIGH BAY AREA (7.5 TO 15 M FLOOR-TO-CEILING HEIGHT)-SPACE FUNCTION SYS-3 FLR-2 SCH-A HPLCMT-SOUTH ZN,1875.00,62.5,9.500E-002,5.067E-005,2.500E-004,4.800E-002,0.000,0.000,0.224,0.000
 ZoneInfiltration Airflow Stats Nominal, MANUFACTURING FACILITY LOW BAY AREA (< 7.5 M FLOOR-TO-CEILING HEIGHT)-SPACE FUNCTION INFILTRATION,ALWAYS ON DISCRETE,SP-MANUFACTURING FACILITY LOW BAY AREA (< 7.5 M FLOOR-TO-CEILING HEIGHT)-SPACE FUNCTION SYS-3 FLR-2 SCH-A HPLCMT-WEST ZN,1875.00,62.5,9.500E-002,5.067E-005,2.500E-004,4.800E-002,0.000,0.000,0.224,0.000
! <AirFlow Model>, Simple
 AirFlow Model, Simple
! <RoomAir Model>, Zone Name, Mixing/Mundt/UCSDDV/UCSDCV/UCSDUFI/UCSDUFE/User Defined
RoomAir Model,SP-FIRE STATION SLEEPING QUARTERS-SPACE FUNCTION SYS-3 FLR-4 SCH-G HPLCMT-NORTH ZN,Mixing/Well-Stirred
RoomAir Model,SP-GYMNASIUM/FITNESS CENTRE EXERCISE AREA-SPACE FUNCTION SYS-6 FLR-3 SCH-B HPLCMT-CORE ZN,Mixing/Well-Stirred
RoomAir Model,SP-GYMNASIUM/FITNESS CENTRE PLAYING AREA-SPACE FUNCTION SYS-6 FLR-3 SCH-B HPLCMT-SOUTH ZN,Mixing/Well-Stirred
RoomAir Model,SP-HEALTH CARE FACILITY EXAM/TREATMENT ROOM-SPACE FUNCTION SYS-3 FLR-3 SCH-C HPLCMT-EAST ZN,Mixing/Well-Stirred
RoomAir Model,SP-HEALTH CARE FACILITY IMAGING ROOM-SPACE FUNCTION SYS-3 FLR-4 SCH-H HPLCMT-CORE ZN,Mixing/Well-Stirred
RoomAir Model,SP-HEALTH CARE FACILITY MEDICAL SUPPLY ROOM-SPACE FUNCTION SYS-3 FLR-3 SCH-H HPLCMT-NORTH ZN,Mixing/Well-Stirred
RoomAir Model,SP-HEALTH CARE FACILITY NURSERY-SPACE FUNCTION SYS-3 FLR-3 SCH-H HPLCMT-WEST ZN,Mixing/Well-Stirred
RoomAir Model,SP-HEALTH CARE FACILITY NURSES STATION-SPACE FUNCTION SYS-3 FLR-1 SCH-H HPLCMT-WEST ZN,Mixing/Well-Stirred
RoomAir Model,SP-HEALTH CARE FACILITY OPERATING ROOM-SPACE FUNCTION SYS-3 FLR-4 SCH-H HPLCMT-EAST ZN,Mixing/Well-Stirred
RoomAir Model,SP-HEALTH CARE FACILITY PATIENT ROOM-SPACE FUNCTION SYS-3 FLR-1 SCH-H HPLCMT-NORTH ZN,Mixing/Well-Stirred
RoomAir Model,SP-HEALTH CARE FACILITY PHYSICAL THERAPY ROOM-SPACE FUNCTION SYS-3 FLR-1 SCH-C HPLCMT-EAST ZN,Mixing/Well-Stirred
RoomAir Model,SP-HEALTH CARE FACILITY RECOVERY ROOM-SPACE FUNCTION SYS-3 FLR-4 SCH-H HPLCMT-WEST ZN,Mixing/Well-Stirred
RoomAir Model,SP-LIBRARY READING AREA-SPACE FUNCTION SYS-6 FLR-1 SCH-C HPLCMT-SOUTH ZN,Mixing/Well-Stirred
RoomAir Model,SP-LIBRARY STACKS-SPACE FUNCTION SYS-6 FLR-1 SCH-C HPLCMT-CORE ZN,Mixing/Well-Stirred
RoomAir Model,SP-MANUFACTURING FACILITY DETAILED MANUFACTURING AREA-SPACE FUNCTION SYS-3 FLR-2 SCH-A HPLCMT-NORTH ZN,Mixing/Well-Stirred
RoomAir Model,SP-MANUFACTURING FACILITY EQUIPMENT ROOM-SPACE FUNCTION SYS-3 FLR-2 SCH-A HPLCMT-EAST ZN,Mixing/Well-Stirred
RoomAir Model,SP-MANUFACTURING FACILITY EXTRA HIGH BAY AREA (> 15 M FLOOR-TO-CEILING HEIGHT)-SPACE FUNCTION SYS-3 FLR-4 SCH-A HPLCMT-SOUTH ZN,Mixing/Well-Stirred
RoomAir Model,SP-MANUFACTURING FACILITY HIGH BAY AREA (7.5 TO 15 M FLOOR-TO-CEILING HEIGHT)-SPACE FUNCTION SYS-3 FLR-2 SCH-A HPLCMT-SOUTH ZN,Mixing/Well-Stirred
RoomAir Model,SP-MANUFACTURING FACILITY LOW BAY AREA (< 7.5 M FLOOR-TO-CEILING HEIGHT)-SPACE FUNCTION SYS-3 FLR-2 SCH-A HPLCMT-WEST ZN,Mixing/Well-Stirred
RoomAir Model,SP-MUSEUM GENERAL EXHIBITION AREA-SPACE FUNCTION SYS-2 FLR-2 SCH-C HPLCMT-CORE ZN,Mixing/Well-Stirred
! <AirflowNetwork Model:Control>, No Multizone or Distribution/Multizone with Distribution/Multizone without Distribution/Multizone with Distribution only during Fan Operation
AirflowNetwork Model:Control,NoMultizoneOrDistribution
! <Zone Volume Capacitance Multiplier>, Sensible Heat Capacity Multiplier, Moisture Capacity Multiplier, Carbon Dioxide Capacity Multiplier, Generic Contaminant Capacity Multiplier
Zone Volume Capacitance Multiplier,   1.000 ,   1.000,   1.000,   1.000
! <Load Timesteps in Zone Design Calculation Averaging Window>, Value
 Load Timesteps in Zone Design Calculation Averaging Window,    6
! <Heating Sizing Factor Information>, Sizing Factor ID, Value
 Heating Sizing Factor Information, Global,   1.3000    
 Heating Sizing Factor Information, Zone SP-FIRE STATION SLEEPING QUARTERS-SPACE FUNCTION SYS-3 FLR-4 SCH-G HPLCMT-NORTH ZN,   1.3000    
 Heating Sizing Factor Information, Zone SP-GYMNASIUM/FITNESS CENTRE EXERCISE AREA-SPACE FUNCTION SYS-6 FLR-3 SCH-B HPLCMT-CORE ZN,   1.3000    
 Heating Sizing Factor Information, Zone SP-GYMNASIUM/FITNESS CENTRE PLAYING AREA-SPACE FUNCTION SYS-6 FLR-3 SCH-B HPLCMT-SOUTH ZN,   1.3000    
 Heating Sizing Factor Information, Zone SP-HEALTH CARE FACILITY EXAM/TREATMENT ROOM-SPACE FUNCTION SYS-3 FLR-3 SCH-C HPLCMT-EAST ZN,   1.3000    
 Heating Sizing Factor Information, Zone SP-HEALTH CARE FACILITY IMAGING ROOM-SPACE FUNCTION SYS-3 FLR-4 SCH-H HPLCMT-CORE ZN,   1.3000    
 Heating Sizing Factor Information, Zone SP-HEALTH CARE FACILITY MEDICAL SUPPLY ROOM-SPACE FUNCTION SYS-3 FLR-3 SCH-H HPLCMT-NORTH ZN,   1.3000    
 Heating Sizing Factor Information, Zone SP-HEALTH CARE FACILITY NURSERY-SPACE FUNCTION SYS-3 FLR-3 SCH-H HPLCMT-WEST ZN,   1.3000    
 Heating Sizing Factor Information, Zone SP-HEALTH CARE FACILITY NURSES STATION-SPACE FUNCTION SYS-3 FLR-1 SCH-H HPLCMT-WEST ZN,   1.3000    
 Heating Sizing Factor Information, Zone SP-HEALTH CARE FACILITY OPERATING ROOM-SPACE FUNCTION SYS-3 FLR-4 SCH-H HPLCMT-EAST ZN,   1.3000    
 Heating Sizing Factor Information, Zone SP-HEALTH CARE FACILITY PATIENT ROOM-SPACE FUNCTION SYS-3 FLR-1 SCH-H HPLCMT-NORTH ZN,   1.3000    
 Heating Sizing Factor Information, Zone SP-HEALTH CARE FACILITY PHYSICAL THERAPY ROOM-SPACE FUNCTION SYS-3 FLR-1 SCH-C HPLCMT-EAST ZN,   1.3000    
 Heating Sizing Factor Information, Zone SP-HEALTH CARE FACILITY RECOVERY ROOM-SPACE FUNCTION SYS-3 FLR-4 SCH-H HPLCMT-WEST ZN,   1.3000    
 Heating Sizing Factor Information, Zone SP-LIBRARY READING AREA-SPACE FUNCTION SYS-6 FLR-1 SCH-C HPLCMT-SOUTH ZN,   1.3000    
 Heating Sizing Factor Information, Zone SP-LIBRARY STACKS-SPACE FUNCTION SYS-6 FLR-1 SCH-C HPLCMT-CORE ZN,   1.3000    
 Heating Sizing Factor Information, Zone SP-MANUFACTURING FACILITY DETAILED MANUFACTURING AREA-SPACE FUNCTION SYS-3 FLR-2 SCH-A HPLCMT-NORTH ZN,   1.3000    
 Heating Sizing Factor Information, Zone SP-MANUFACTURING FACILITY EQUIPMENT ROOM-SPACE FUNCTION SYS-3 FLR-2 SCH-A HPLCMT-EAST ZN,   1.3000    
 Heating Sizing Factor Information, Zone SP-MANUFACTURING FACILITY EXTRA HIGH BAY AREA (> 15 M FLOOR-TO-CEILING HEIGHT)-SPACE FUNCTION SYS-3 FLR-4 SCH-A HPLCMT-SOUTH ZN,   1.3000    
 Heating Sizing Factor Information, Zone SP-MANUFACTURING FACILITY HIGH BAY AREA (7.5 TO 15 M FLOOR-TO-CEILING HEIGHT)-SPACE FUNCTION SYS-3 FLR-2 SCH-A HPLCMT-SOUTH ZN,   1.3000    
 Heating Sizing Factor Information, Zone SP-MANUFACTURING FACILITY LOW BAY AREA (< 7.5 M FLOOR-TO-CEILING HEIGHT)-SPACE FUNCTION SYS-3 FLR-2 SCH-A HPLCMT-WEST ZN,   1.3000    
 Heating Sizing Factor Information, Zone SP-MUSEUM GENERAL EXHIBITION AREA-SPACE FUNCTION SYS-2 FLR-2 SCH-C HPLCMT-CORE ZN,   1.3000    
! <Cooling Sizing Factor Information>, Sizing Factor ID, Value
 Cooling Sizing Factor Information, Global,   1.1000    
 Cooling Sizing Factor Information, Zone SP-FIRE STATION SLEEPING QUARTERS-SPACE FUNCTION SYS-3 FLR-4 SCH-G HPLCMT-NORTH ZN,   1.1000    
 Cooling Sizing Factor Information, Zone SP-GYMNASIUM/FITNESS CENTRE EXERCISE AREA-SPACE FUNCTION SYS-6 FLR-3 SCH-B HPLCMT-CORE ZN,   1.1000    
 Cooling Sizing Factor Information, Zone SP-GYMNASIUM/FITNESS CENTRE PLAYING AREA-SPACE FUNCTION SYS-6 FLR-3 SCH-B HPLCMT-SOUTH ZN,   1.1000    
 Cooling Sizing Factor Information, Zone SP-HEALTH CARE FACILITY EXAM/TREATMENT ROOM-SPACE FUNCTION SYS-3 FLR-3 SCH-C HPLCMT-EAST ZN,   1.1000    
 Cooling Sizing Factor Information, Zone SP-HEALTH CARE FACILITY IMAGING ROOM-SPACE FUNCTION SYS-3 FLR-4 SCH-H HPLCMT-CORE ZN,   1.1000    
 Cooling Sizing Factor Information, Zone SP-HEALTH CARE FACILITY MEDICAL SUPPLY ROOM-SPACE FUNCTION SYS-3 FLR-3 SCH-H HPLCMT-NORTH ZN,   1.1000    
 Cooling Sizing Factor Information, Zone SP-HEALTH CARE FACILITY NURSERY-SPACE FUNCTION SYS-3 FLR-3 SCH-H HPLCMT-WEST ZN,   1.1000    
 Cooling Sizing Factor Information, Zone SP-HEALTH CARE FACILITY NURSES STATION-SPACE FUNCTION SYS-3 FLR-1 SCH-H HPLCMT-WEST ZN,   1.1000    
 Cooling Sizing Factor Information, Zone SP-HEALTH CARE FACILITY OPERATING ROOM-SPACE FUNCTION SYS-3 FLR-4 SCH-H HPLCMT-EAST ZN,   1.1000    
 Cooling Sizing Factor Information, Zone SP-HEALTH CARE FACILITY PATIENT ROOM-SPACE FUNCTION SYS-3 FLR-1 SCH-H HPLCMT-NORTH ZN,   1.1000    
 Cooling Sizing Factor Information, Zone SP-HEALTH CARE FACILITY PHYSICAL THERAPY ROOM-SPACE FUNCTION SYS-3 FLR-1 SCH-C HPLCMT-EAST ZN,   1.1000    
 Cooling Sizing Factor Information, Zone SP-HEALTH CARE FACILITY RECOVERY ROOM-SPACE FUNCTION SYS-3 FLR-4 SCH-H HPLCMT-WEST ZN,   1.1000    
 Cooling Sizing Factor Information, Zone SP-LIBRARY READING AREA-SPACE FUNCTION SYS-6 FLR-1 SCH-C HPLCMT-SOUTH ZN,   1.1000    
 Cooling Sizing Factor Information, Zone SP-LIBRARY STACKS-SPACE FUNCTION SYS-6 FLR-1 SCH-C HPLCMT-CORE ZN,   1.1000    
 Cooling Sizing Factor Information, Zone SP-MANUFACTURING FACILITY DETAILED MANUFACTURING AREA-SPACE FUNCTION SYS-3 FLR-2 SCH-A HPLCMT-NORTH ZN,   1.1000    
 Cooling Sizing Factor Information, Zone SP-MANUFACTURING FACILITY EQUIPMENT ROOM-SPACE FUNCTION SYS-3 FLR-2 SCH-A HPLCMT-EAST ZN,   1.1000    
 Cooling Sizing Factor Information, Zone SP-MANUFACTURING FACILITY EXTRA HIGH BAY AREA (> 15 M FLOOR-TO-CEILING HEIGHT)-SPACE FUNCTION SYS-3 FLR-4 SCH-A HPLCMT-SOUTH ZN,   1.1000    
 Cooling Sizing Factor Information, Zone SP-MANUFACTURING FACILITY HIGH BAY AREA (7.5 TO 15 M FLOOR-TO-CEILING HEIGHT)-SPACE FUNCTION SYS-3 FLR-2 SCH-A HPLCMT-SOUTH ZN,   1.1000    
 Cooling Sizing Factor Information, Zone SP-MANUFACTURING FACILITY LOW BAY AREA (< 7.5 M FLOOR-TO-CEILING HEIGHT)-SPACE FUNCTION SYS-3 FLR-2 SCH-A HPLCMT-WEST ZN,   1.1000    
 Cooling Sizing Factor Information, Zone SP-MUSEUM GENERAL EXHIBITION AREA-SPACE FUNCTION SYS-2 FLR-2 SCH-C HPLCMT-CORE ZN,   1.1000    
! <Zone Sizing Information>, Zone Name, Load Type, Calc Des Load {W}, User Des Load {W}, Calc Des Air Flow Rate {m3/s}, User Des Air Flow Rate {m3/s}, Design Day Name, Date/Time of Peak, Temperature at Peak {C}, Humidity Ratio at Peak {kgWater/kgDryAir}, Floor Area {m2}, # Occupants, Calc Outdoor Air Flow Rate {m3/s}, Calc DOAS Heat Addition Rate {W}
 Zone Sizing Information, SP-FIRE STATION SLEEPING QUARTERS-SPACE FUNCTION SYS-3 FLR-4 SCH-G HPLCMT-NORTH ZN, Cooling, 31629.10558, 34792.01614, 2.44445, 2.68890, FORT MCMURRAY AP ANN CLG .4% CONDNS DB=>MWB, 7/21 14:00:00, 28.90000, 8.76969E-003, 1875.00000, 75.02726, 1.52400, 0.00000
 Zone Sizing Information, SP-FIRE STATION SLEEPING QUARTERS-SPACE FUNCTION SYS-3 FLR-4 SCH-G HPLCMT-NORTH ZN, Heating, 29447.15209, 38281.29771, 1.16254, 1.52400, FORT MCMURRAY AP ANN HTG 99.6% CONDNS DB, 1/21 09:00:00, -36.20000, 1.25811E-004, 1875.00000, 75.02726, 1.52400, 0.00000
 Zone Sizing Information, SP-GYMNASIUM/FITNESS CENTRE EXERCISE AREA-SPACE FUNCTION SYS-6 FLR-3 SCH-B HPLCMT-CORE ZN, Cooling, 52212.22847, 57433.45132, 4.03646, 10.92200, FORT MCMURRAY AP ANN CLG .4% CONDNS DB=>MWB, 7/21 20:00:00, 22.70000, 8.76969E-003, 2500.00000, 500.18171, 10.92200, 0.00000
 Zone Sizing Information, SP-GYMNASIUM/FITNESS CENTRE EXERCISE AREA-SPACE FUNCTION SYS-6 FLR-3 SCH-B HPLCMT-CORE ZN, Heating, 0.00000, 0.00000, 0.00000, 10.92200, FORT MCMURRAY AP ANN HTG 99.6% CONDNS DB, , -36.20000, 1.25811E-004, 2500.00000, 500.18171, 10.92200, 0.00000
 Zone Sizing Information, SP-GYMNASIUM/FITNESS CENTRE PLAYING AREA-SPACE FUNCTION SYS-6 FLR-3 SCH-B HPLCMT-SOUTH ZN, Cooling, 56004.90008, 61605.39009, 4.32968, 4.76265, FORT MCMURRAY AP ANN CLG .4% CONDNS DB=>MWB, 7/21 13:10:00, 28.38333, 8.76969E-003, 1875.00000, 375.13628, 2.85750, 0.00000
 Zone Sizing Information, SP-GYMNASIUM/FITNESS CENTRE PLAYING AREA-SPACE FUNCTION SYS-6 FLR-3 SCH-B HPLCMT-SOUTH ZN, Heating, 6568.83091, 8539.48019, 0.25693, 2.85750, FORT MCMURRAY AP ANN HTG 99.6% CONDNS DB, 1/21 09:40:00, -36.20000, 1.25811E-004, 1875.00000, 375.13628, 2.85750, 0.00000
 Zone Sizing Information, SP-HEALTH CARE FACILITY EXAM/TREATMENT ROOM-SPACE FUNCTION SYS-3 FLR-3 SCH-C HPLCMT-EAST ZN, Cooling, 62624.97702, 68887.47472, 4.83998, 5.32398, FORT MCMURRAY AP ANN CLG .4% CONDNS DB=>MWB, 7/21 11:00:00, 26.04800, 8.76969E-003, 1875.00000, 93.78407, 2.85750, 0.00000
 Zone Sizing Information, SP-HEALTH CARE FACILITY EXAM/TREATMENT ROOM-SPACE FUNCTION SYS-3 FLR-3 SCH-C HPLCMT-EAST ZN, Heating, 0.00000, 0.00000, 0.00000, 2.85750, FORT MCMURRAY AP ANN HTG 99.6% CONDNS DB, , -36.20000, 1.25811E-004, 1875.00000, 93.78407, 2.85750, 0.00000
 Zone Sizing Information, SP-HEALTH CARE FACILITY IMAGING ROOM-SPACE FUNCTION SYS-3 FLR-4 SCH-H HPLCMT-CORE ZN, Cooling, 77966.38089, 85763.01897, 6.02608, 6.62869, FORT MCMURRAY AP ANN CLG .4% CONDNS DB=>MWB, 7/21 13:50:00, 28.79667, 8.76969E-003, 2500.00000, 125.04543, 5.71500, 0.00000
 Zone Sizing Information, SP-HEALTH CARE FACILITY IMAGING ROOM-SPACE FUNCTION SYS-3 FLR-4 SCH-H HPLCMT-CORE ZN, Heating, 0.00000, 0.00000, 0.00000, 5.71500, FORT MCMURRAY AP ANN HTG 99.6% CONDNS DB, , -36.20000, 1.25811E-004, 2500.00000, 125.04543, 5.71500, 0.00000
 Zone Sizing Information, SP-HEALTH CARE FACILITY MEDICAL SUPPLY ROOM-SPACE FUNCTION SYS-3 FLR-3 SCH-H HPLCMT-NORTH ZN, Cooling, 25939.59929, 28533.55922, 2.00490, 2.85750, FORT MCMURRAY AP ANN CLG .4% CONDNS DB=>MWB, 7/21 20:10:00, 22.51400, 8.76969E-003, 1875.00000, 93.78407, 2.85750, 0.00000
 Zone Sizing Information, SP-HEALTH CARE FACILITY MEDICAL SUPPLY ROOM-SPACE FUNCTION SYS-3 FLR-3 SCH-H HPLCMT-NORTH ZN, Heating, 0.00000, 0.00000, 0.00000, 2.85750, FORT MCMURRAY AP ANN HTG 99.6% CONDNS DB, , -36.20000, 1.25811E-004, 1875.00000, 93.78407, 2.85750, 0.00000
 Zone Sizing Information, SP-HEALTH CARE FACILITY NURSERY-SPACE FUNCTION SYS-3 FLR-3 SCH-H HPLCMT-WEST ZN, Cooling, 63354.92777, 69690.42055, 4.89676, 5.38643, FORT MCMURRAY AP ANN CLG .4% CONDNS DB=>MWB, 7/21 18:20:00, 25.30400, 8.76968E-003, 1875.00000, 93.78407, 2.85750, 0.00000
 Zone Sizing Information, SP-HEALTH CARE FACILITY NURSERY-SPACE FUNCTION SYS-3 FLR-3 SCH-H HPLCMT-WEST ZN, Heating, 0.00000, 0.00000, 0.00000, 2.85750, FORT MCMURRAY AP ANN HTG 99.6% CONDNS DB, , -36.20000, 1.25811E-004, 1875.00000, 93.78407, 2.85750, 0.00000
 Zone Sizing Information, SP-HEALTH CARE FACILITY NURSES STATION-SPACE FUNCTION SYS-3 FLR-1 SCH-H HPLCMT-WEST ZN, Cooling, 25388.84735, 27927.73209, 1.96234, 2.85750, FORT MCMURRAY AP ANN CLG .4% CONDNS DB=>MWB, 7/21 20:10:00, 22.51400, 8.76969E-003, 1875.00000, 93.78407, 2.85750, 0.00000
 Zone Sizing Information, SP-HEALTH CARE FACILITY NURSES STATION-SPACE FUNCTION SYS-3 FLR-1 SCH-H HPLCMT-WEST ZN, Heating, 0.00000, 0.00000, 0.00000, 2.85750, FORT MCMURRAY AP ANN HTG 99.6% CONDNS DB, , -36.20000, 1.25811E-004, 1875.00000, 93.78407, 2.85750, 0.00000
 Zone Sizing Information, SP-HEALTH CARE FACILITY OPERATING ROOM-SPACE FUNCTION SYS-3 FLR-4 SCH-H HPLCMT-EAST ZN, Cooling, 94175.60136, 103593.16149, 7.27889, 8.57250, FORT MCMURRAY AP ANN CLG .4% CONDNS DB=>MWB, 7/21 09:50:00, 23.83667, 8.76969E-003, 1875.00000, 93.78407, 8.57250, 0.00000
 Zone Sizing Information, SP-HEALTH CARE FACILITY OPERATING ROOM-SPACE FUNCTION SYS-3 FLR-4 SCH-H HPLCMT-EAST ZN, Heating, 0.00000, 0.00000, 0.00000, 8.57250, FORT MCMURRAY AP ANN HTG 99.6% CONDNS DB, , -36.20000, 1.25811E-004, 1875.00000, 93.78407, 8.57250, 0.00000
 Zone Sizing Information, SP-HEALTH CARE FACILITY PATIENT ROOM-SPACE FUNCTION SYS-3 FLR-1 SCH-H HPLCMT-NORTH ZN, Cooling, 29777.22718, 32754.94990, 2.30152, 2.85750, FORT MCMURRAY AP ANN CLG .4% CONDNS DB=>MWB, 7/21 18:40:00, 24.68400, 8.76969E-003, 1875.00000, 93.78407, 2.85750, 0.00000
 Zone Sizing Information, SP-HEALTH CARE FACILITY PATIENT ROOM-SPACE FUNCTION SYS-3 FLR-1 SCH-H HPLCMT-NORTH ZN, Heating, 0.00000, 0.00000, 0.00000, 2.85750, FORT MCMURRAY AP ANN HTG 99.6% CONDNS DB, , -36.20000, 1.25811E-004, 1875.00000, 93.78407, 2.85750, 0.00000
 Zone Sizing Information, SP-HEALTH CARE FACILITY PHYSICAL THERAPY ROOM-SPACE FUNCTION SYS-3 FLR-1 SCH-C HPLCMT-EAST ZN, Cooling, 33460.25817, 36806.28398, 2.58613, 4.28625, FORT MCMURRAY AP ANN CLG .4% CONDNS DB=>MWB, 7/21 17:00:00, 27.16400, 8.76969E-003, 1875.00000, 93.78407, 4.28625, 0.00000
 Zone Sizing Information, SP-HEALTH CARE FACILITY PHYSICAL THERAPY ROOM-SPACE FUNCTION SYS-3 FLR-1 SCH-C HPLCMT-EAST ZN, Heating, 0.00000, 0.00000, 0.00000, 4.28625, FORT MCMURRAY AP ANN HTG 99.6% CONDNS DB, , -36.20000, 1.25811E-004, 1875.00000, 93.78407, 4.28625, 0.00000
 Zone Sizing Information, SP-HEALTH CARE FACILITY RECOVERY ROOM-SPACE FUNCTION SYS-3 FLR-4 SCH-H HPLCMT-WEST ZN, Cooling, 81386.98161, 89525.67977, 6.29045, 8.57250, FORT MCMURRAY AP ANN CLG .4% CONDNS DB=>MWB, 7/21 16:40:00, 27.49467, 8.76969E-003, 1875.00000, 93.78407, 8.57250, 0.00000
 Zone Sizing Information, SP-HEALTH CARE FACILITY RECOVERY ROOM-SPACE FUNCTION SYS-3 FLR-4 SCH-H HPLCMT-WEST ZN, Heating, 0.00000, 0.00000, 0.00000, 8.57250, FORT MCMURRAY AP ANN HTG 99.6% CONDNS DB, , -36.20000, 1.25811E-004, 1875.00000, 93.78407, 8.57250, 0.00000
 Zone Sizing Information, SP-LIBRARY READING AREA-SPACE FUNCTION SYS-6 FLR-1 SCH-C HPLCMT-SOUTH ZN, Cooling, 21327.80627, 23460.58690, 1.64842, 1.81326, FORT MCMURRAY AP ANN CLG .4% CONDNS DB=>MWB, 7/21 17:00:00, 27.16400, 8.76969E-003, 1875.00000, 93.78407, 1.61925, 0.00000
 Zone Sizing Information, SP-LIBRARY READING AREA-SPACE FUNCTION SYS-6 FLR-1 SCH-C HPLCMT-SOUTH ZN, Heating, 0.00000, 0.00000, 0.00000, 1.61925, FORT MCMURRAY AP ANN HTG 99.6% CONDNS DB, , -36.20000, 1.25811E-004, 1875.00000, 93.78407, 1.61925, 0.00000
 Zone Sizing Information, SP-LIBRARY STACKS-SPACE FUNCTION SYS-6 FLR-1 SCH-C HPLCMT-CORE ZN, Cooling, 28801.08609, 31681.19470, 2.22603, 2.44863, FORT MCMURRAY AP ANN CLG .4% CONDNS DB=>MWB, 7/21 17:00:00, 27.16400, 8.76969E-003, 2500.00000, 125.04543, 2.15900, 0.00000
 Zone Sizing Information, SP-LIBRARY STACKS-SPACE FUNCTION SYS-6 FLR-1 SCH-C HPLCMT-CORE ZN, Heating, 0.00000, 0.00000, 0.00000, 2.15900, FORT MCMURRAY AP ANN HTG 99.6% CONDNS DB, , -36.20000, 1.25811E-004, 2500.00000, 125.04543, 2.15900, 0.00000
 Zone Sizing Information, SP-MANUFACTURING FACILITY DETAILED MANUFACTURING AREA-SPACE FUNCTION SYS-3 FLR-2 SCH-A HPLCMT-NORTH ZN, Cooling, 36113.70923, 39725.08015, 2.79116, 3.07027, FORT MCMURRAY AP ANN CLG .4% CONDNS DB=>MWB, 7/21 16:30:00, 27.66000, 8.76969E-003, 1875.00000, 62.52271, 2.38125, 0.00000
 Zone Sizing Information, SP-MANUFACTURING FACILITY DETAILED MANUFACTURING AREA-SPACE FUNCTION SYS-3 FLR-2 SCH-A HPLCMT-NORTH ZN, Heating, 0.00000, 0.00000, 0.00000, 2.38125, FORT MCMURRAY AP ANN HTG 99.6% CONDNS DB, , -36.20000, 1.25811E-004, 1875.00000, 62.52271, 2.38125, 0.00000
 Zone Sizing Information, SP-MANUFACTURING FACILITY EQUIPMENT ROOM-SPACE FUNCTION SYS-3 FLR-2 SCH-A HPLCMT-EAST ZN, Cooling, 49823.09203, 54805.40123, 3.85066, 4.23573, FORT MCMURRAY AP ANN CLG .4% CONDNS DB=>MWB, 7/21 10:00:00, 24.18800, 8.76969E-003, 1875.00000, 62.52271, 2.38125, 0.00000
 Zone Sizing Information, SP-MANUFACTURING FACILITY EQUIPMENT ROOM-SPACE FUNCTION SYS-3 FLR-2 SCH-A HPLCMT-EAST ZN, Heating, 0.00000, 0.00000, 0.00000, 2.38125, FORT MCMURRAY AP ANN HTG 99.6% CONDNS DB, , -36.20000, 1.25811E-004, 1875.00000, 62.52271, 2.38125, 0.00000
 Zone Sizing Information, SP-MANUFACTURING FACILITY EXTRA HIGH BAY AREA (> 15 M FLOOR-TO-CEILING HEIGHT)-SPACE FUNCTION SYS-3 FLR-4 SCH-A HPLCMT-SOUTH ZN, Cooling, 77225.42988, 84947.97287, 5.96846, 6.56531, FORT MCMURRAY AP ANN CLG .4% CONDNS DB=>MWB, 7/21 13:30:00, 28.59000, 8.76969E-003, 1875.00000, 62.52271, 2.38125, 0.00000
 Zone Sizing Information, SP-MANUFACTURING FACILITY EXTRA HIGH BAY AREA (> 15 M FLOOR-TO-CEILING HEIGHT)-SPACE FUNCTION SYS-3 FLR-4 SCH-A HPLCMT-SOUTH ZN, Heating, 29801.93137, 38742.51079, 1.17696, 2.38125, FORT MCMURRAY AP ANN HTG 99.6% CONDNS DB, 1/21 08:00:00, -36.20000, 1.25811E-004, 1875.00000, 62.52271, 2.38125, 0.00000
 Zone Sizing Information, SP-MANUFACTURING FACILITY HIGH BAY AREA (7.5 TO 15 M FLOOR-TO-CEILING HEIGHT)-SPACE FUNCTION SYS-3 FLR-2 SCH-A HPLCMT-SOUTH ZN, Cooling, 43514.65207, 47866.11728, 3.36307, 3.69938, FORT MCMURRAY AP ANN CLG .4% CONDNS DB=>MWB, 7/21 14:30:00, 28.90000, 8.76969E-003, 1875.00000, 62.52271, 2.38125, 0.00000
 Zone Sizing Information, SP-MANUFACTURING FACILITY HIGH BAY AREA (7.5 TO 15 M FLOOR-TO-CEILING HEIGHT)-SPACE FUNCTION SYS-3 FLR-2 SCH-A HPLCMT-SOUTH ZN, Heating, 0.00000, 0.00000, 0.00000, 2.38125, FORT MCMURRAY AP ANN HTG 99.6% CONDNS DB, , -36.20000, 1.25811E-004, 1875.00000, 62.52271, 2.38125, 0.00000
 Zone Sizing Information, SP-MANUFACTURING FACILITY LOW BAY AREA (< 7.5 M FLOOR-TO-CEILING HEIGHT)-SPACE FUNCTION SYS-3 FLR-2 SCH-A HPLCMT-WEST ZN, Cooling, 52811.23851, 58092.36236, 4.08168, 4.48985, FORT MCMURRAY AP ANN CLG .4% CONDNS DB=>MWB, 7/21 17:30:00, 26.54400, 8.76969E-003, 1875.00000, 62.52271, 2.38125, 0.00000
 Zone Sizing Information, SP-MANUFACTURING FACILITY LOW BAY AREA (< 7.5 M FLOOR-TO-CEILING HEIGHT)-SPACE FUNCTION SYS-3 FLR-2 SCH-A HPLCMT-WEST ZN, Heating, 0.00000, 0.00000, 0.00000, 2.38125, FORT MCMURRAY AP ANN HTG 99.6% CONDNS DB, , -36.20000, 1.25811E-004, 1875.00000, 62.52271, 2.38125, 0.00000
 Zone Sizing Information, SP-MUSEUM GENERAL EXHIBITION AREA-SPACE FUNCTION SYS-2 FLR-2 SCH-C HPLCMT-CORE ZN, Cooling, 52507.88381, 57758.67219, 4.05949, 4.57200, FORT MCMURRAY AP ANN CLG .4% CONDNS DB=>MWB, 7/21 17:00:00, 27.16400, 8.76969E-003, 2500.00000, 500.18171, 4.57200, 0.00000
 Zone Sizing Information, SP-MUSEUM GENERAL EXHIBITION AREA-SPACE FUNCTION SYS-2 FLR-2 SCH-C HPLCMT-CORE ZN, Heating, 0.00000, 0.00000, 0.00000, 4.57200, FORT MCMURRAY AP ANN HTG 99.6% CONDNS DB, , -36.20000, 1.25811E-004, 2500.00000, 500.18171, 4.57200, 0.00000
! <System Sizing Information>, System Name, Load Type, Peak Load Kind, User Design Capacity, Calc Des Air Flow Rate [m3/s], User Des Air Flow Rate [m3/s], Design Day Name, Date/Time of Peak
 System Sizing Information, SYS_2_MAKE-UP AIR UNIT, Cooling, Sensible, 74998.10, 4.57200, 4.57200, FORT MCMURRAY AP ANN CLG .4% CONDNS DB=>MWB, 7/21 00:00:00
 System Sizing Information, SYS_2_MAKE-UP AIR UNIT, Heating, Sensible, 261042.52, 4.57200, 4.57200, FORT MCMURRAY AP ANN HTG 99.6% CONDNS DB, 1/21 00:10:00
 System Sizing Information, SYS_3_PSZ SP-FIRE STATION SLEEPING QUARTERS-SPACE FUNCTION SYS-3 FLR-4 SCH-G HPLCMT-NORTH ZN, Cooling, Sensible, 42903.10, 2.68890, 2.68890, FORT MCMURRAY AP ANN CLG .4% CONDNS DB=>MWB, 7/21 05:00:00
 System Sizing Information, SYS_3_PSZ SP-FIRE STATION SLEEPING QUARTERS-SPACE FUNCTION SYS-3 FLR-4 SCH-G HPLCMT-NORTH ZN, Heating, Sensible, 139787.48, 1.52400, 1.52400, FORT MCMURRAY AP ANN HTG 99.6% CONDNS DB, 1/21 00:10:00
 System Sizing Information, SYS_3_PSZ SP-HEALTH CARE FACILITY EXAM/TREATMENT ROOM-SPACE FUNCTION SYS-3 FLR-3 SCH-C HPLCMT-EAST ZN, Cooling, Sensible, 74601.10, 5.32398, 5.32398, FORT MCMURRAY AP ANN CLG .4% CONDNS DB=>MWB, 7/21 05:00:00
 System Sizing Information, SYS_3_PSZ SP-HEALTH CARE FACILITY EXAM/TREATMENT ROOM-SPACE FUNCTION SYS-3 FLR-3 SCH-C HPLCMT-EAST ZN, Heating, Sensible, 262101.52, 2.85750, 2.85750, FORT MCMURRAY AP ANN HTG 99.6% CONDNS DB, 1/21 00:10:00
 System Sizing Information, SYS_3_PSZ SP-HEALTH CARE FACILITY IMAGING ROOM-SPACE FUNCTION SYS-3 FLR-4 SCH-H HPLCMT-CORE ZN, Cooling, Sensible, 116192.49, 6.62869, 6.62869, FORT MCMURRAY AP ANN CLG .4% CONDNS DB=>MWB, 7/21 05:00:00
 System Sizing Information, SYS_3_PSZ SP-HEALTH CARE FACILITY IMAGING ROOM-SPACE FUNCTION SYS-3 FLR-4 SCH-H HPLCMT-CORE ZN, Heating, Sensible, 524203.04, 5.71500, 5.71500, FORT MCMURRAY AP ANN HTG 99.6% CONDNS DB, 1/21 00:10:00
 System Sizing Information, SYS_3_PSZ SP-HEALTH CARE FACILITY MEDICAL SUPPLY ROOM-SPACE FUNCTION SYS-3 FLR-3 SCH-H HPLCMT-NORTH ZN, Cooling, Sensible, 31485.28, 2.85750, 2.85750, FORT MCMURRAY AP ANN CLG .4% CONDNS DB=>MWB, 7/21 05:00:00
 System Sizing Information, SYS_3_PSZ SP-HEALTH CARE FACILITY MEDICAL SUPPLY ROOM-SPACE FUNCTION SYS-3 FLR-3 SCH-H HPLCMT-NORTH ZN, Heating, Sensible, 262101.52, 2.85750, 2.85750, FORT MCMURRAY AP ANN HTG 99.6% CONDNS DB, 1/21 00:10:00
 System Sizing Information, SYS_3_PSZ SP-HEALTH CARE FACILITY NURSERY-SPACE FUNCTION SYS-3 FLR-3 SCH-H HPLCMT-WEST ZN, Cooling, Sensible, 72932.13, 5.38643, 5.38643, FORT MCMURRAY AP ANN CLG .4% CONDNS DB=>MWB, 7/21 05:00:00
 System Sizing Information, SYS_3_PSZ SP-HEALTH CARE FACILITY NURSERY-SPACE FUNCTION SYS-3 FLR-3 SCH-H HPLCMT-WEST ZN, Heating, Sensible, 262101.52, 2.85750, 2.85750, FORT MCMURRAY AP ANN HTG 99.6% CONDNS DB, 1/21 00:10:00
 System Sizing Information, SYS_3_PSZ SP-HEALTH CARE FACILITY NURSES STATION-SPACE FUNCTION SYS-3 FLR-1 SCH-H HPLCMT-WEST ZN, Cooling, Sensible, 31485.28, 2.85750, 2.85750, FORT MCMURRAY AP ANN CLG .4% CONDNS DB=>MWB, 7/21 05:00:00
 System Sizing Information, SYS_3_PSZ SP-HEALTH CARE FACILITY NURSES STATION-SPACE FUNCTION SYS-3 FLR-1 SCH-H HPLCMT-WEST ZN, Heating, Sensible, 262101.52, 2.85750, 2.85750, FORT MCMURRAY AP ANN HTG 99.6% CONDNS DB, 1/21 00:10:00
 System Sizing Information, SYS_3_PSZ SP-HEALTH CARE FACILITY OPERATING ROOM-SPACE FUNCTION SYS-3 FLR-4 SCH-H HPLCMT-EAST ZN, Cooling, Sensible, 107587.38, 8.57250, 8.57250, FORT MCMURRAY AP ANN CLG .4% CONDNS DB=>MWB, 7/21 05:00:00
 System Sizing Information, SYS_3_PSZ SP-HEALTH CARE FACILITY OPERATING ROOM-SPACE FUNCTION SYS-3 FLR-4 SCH-H HPLCMT-EAST ZN, Heating, Sensible, 786304.56, 8.57250, 8.57250, FORT MCMURRAY AP ANN HTG 99.6% CONDNS DB, 1/21 00:10:00
 System Sizing Information, SYS_3_PSZ SP-HEALTH CARE FACILITY PATIENT ROOM-SPACE FUNCTION SYS-3 FLR-1 SCH-H HPLCMT-NORTH ZN, Cooling, Sensible, 38666.59, 2.85750, 2.85750, FORT MCMURRAY AP ANN CLG .4% CONDNS DB=>MWB, 7/21 05:00:00
 System Sizing Information, SYS_3_PSZ SP-HEALTH CARE FACILITY PATIENT ROOM-SPACE FUNCTION SYS-3 FLR-1 SCH-H HPLCMT-NORTH ZN, Heating, Sensible, 262101.52, 2.85750, 2.85750, FORT MCMURRAY AP ANN HTG 99.6% CONDNS DB, 1/21 00:10:00
 System Sizing Information, SYS_3_PSZ SP-HEALTH CARE FACILITY PHYSICAL THERAPY ROOM-SPACE FUNCTION SYS-3 FLR-1 SCH-C HPLCMT-EAST ZN, Cooling, Sensible, 70310.72, 4.28625, 4.28625, FORT MCMURRAY AP ANN CLG .4% CONDNS DB=>MWB, 7/21 05:00:00
 System Sizing Information, SYS_3_PSZ SP-HEALTH CARE FACILITY PHYSICAL THERAPY ROOM-SPACE FUNCTION SYS-3 FLR-1 SCH-C HPLCMT-EAST ZN, Heating, Sensible, 393152.28, 4.28625, 4.28625, FORT MCMURRAY AP ANN HTG 99.6% CONDNS DB, 1/21 00:10:00
 System Sizing Information, SYS_3_PSZ SP-HEALTH CARE FACILITY RECOVERY ROOM-SPACE FUNCTION SYS-3 FLR-4 SCH-H HPLCMT-WEST ZN, Cooling, Sensible, 143904.32, 8.57250, 8.57250, FORT MCMURRAY AP ANN CLG .4% CONDNS DB=>MWB, 7/21 05:00:00
 System Sizing Information, SYS_3_PSZ SP-HEALTH CARE FACILITY RECOVERY ROOM-SPACE FUNCTION SYS-3 FLR-4 SCH-H HPLCMT-WEST ZN, Heating, Sensible, 786304.56, 8.57250, 8.57250, FORT MCMURRAY AP ANN HTG 99.6% CONDNS DB, 1/21 00:10:00
 System Sizing Information, SYS_3_PSZ SP-MANUFACTURING FACILITY DETAILED MANUFACTURING AREA-SPACE FUNCTION SYS-3 FLR-2 SCH-A HPLCMT-NORTH ZN, Cooling, Sensible, 49206.54, 3.07027, 3.07027, FORT MCMURRAY AP ANN CLG .4% CONDNS DB=>MWB, 7/21 05:00:00
 System Sizing Information, SYS_3_PSZ SP-MANUFACTURING FACILITY DETAILED MANUFACTURING AREA-SPACE FUNCTION SYS-3 FLR-2 SCH-A HPLCMT-NORTH ZN, Heating, Sensible, 218417.93, 2.38125, 2.38125, FORT MCMURRAY AP ANN HTG 99.6% CONDNS DB, 1/21 00:10:00
 System Sizing Information, SYS_3_PSZ SP-MANUFACTURING FACILITY EQUIPMENT ROOM-SPACE FUNCTION SYS-3 FLR-2 SCH-A HPLCMT-EAST ZN, Cooling, Sensible, 54478.05, 4.23573, 4.23573, FORT MCMURRAY AP ANN CLG .4% CONDNS DB=>MWB, 7/21 05:00:00
 System Sizing Information, SYS_3_PSZ SP-MANUFACTURING FACILITY EQUIPMENT ROOM-SPACE FUNCTION SYS-3 FLR-2 SCH-A HPLCMT-EAST ZN, Heating, Sensible, 218417.93, 2.38125, 2.38125, FORT MCMURRAY AP ANN HTG 99.6% CONDNS DB, 1/21 00:10:00
 System Sizing Information, SYS_3_PSZ SP-MANUFACTURING FACILITY EXTRA HIGH BAY AREA (> 15 M FLOOR-TO-CEILING HEIGHT)-SPACE FUNCTION SYS-3 FLR-4 SCH-A HPLCMT-SOUTH ZN, Cooling, Sensible, 96294.17, 6.56531, 6.56531, FORT MCMURRAY AP ANN CLG .4% CONDNS DB=>MWB, 7/21 05:00:00
 System Sizing Information, SYS_3_PSZ SP-MANUFACTURING FACILITY EXTRA HIGH BAY AREA (> 15 M FLOOR-TO-CEILING HEIGHT)-SPACE FUNCTION SYS-3 FLR-4 SCH-A HPLCMT-SOUTH ZN, Heating, Sensible, 218417.93, 2.38125, 2.38125, FORT MCMURRAY AP ANN HTG 99.6% CONDNS DB, 1/21 00:10:00
 System Sizing Information, SYS_3_PSZ SP-MANUFACTURING FACILITY HIGH BAY AREA (7.5 TO 15 M FLOOR-TO-CEILING HEIGHT)-SPACE FUNCTION SYS-3 FLR-2 SCH-A HPLCMT-SOUTH ZN, Cooling, Sensible, 60640.52, 3.69938, 3.69938, FORT MCMURRAY AP ANN CLG .4% CONDNS DB=>MWB, 7/21 05:00:00
 System Sizing Information, SYS_3_PSZ SP-MANUFACTURING FACILITY HIGH BAY AREA (7.5 TO 15 M FLOOR-TO-CEILING HEIGHT)-SPACE FUNCTION SYS-3 FLR-2 SCH-A HPLCMT-SOUTH ZN, Heating, Sensible, 218417.93, 2.38125, 2.38125, FORT MCMURRAY AP ANN HTG 99.6% CONDNS DB, 1/21 00:10:00
 System Sizing Information, SYS_3_PSZ SP-MANUFACTURING FACILITY LOW BAY AREA (< 7.5 M FLOOR-TO-CEILING HEIGHT)-SPACE FUNCTION SYS-3 FLR-2 SCH-A HPLCMT-WEST ZN, Cooling, Sensible, 64212.15, 4.48985, 4.48985, FORT MCMURRAY AP ANN CLG .4% CONDNS DB=>MWB, 7/21 05:00:00
 System Sizing Information, SYS_3_PSZ SP-MANUFACTURING FACILITY LOW BAY AREA (< 7.5 M FLOOR-TO-CEILING HEIGHT)-SPACE FUNCTION SYS-3 FLR-2 SCH-A HPLCMT-WEST ZN, Heating, Sensible, 218417.93, 2.38125, 2.38125, FORT MCMURRAY AP ANN HTG 99.6% CONDNS DB, 1/21 00:10:00
 System Sizing Information, SYS_6_VAV WITH REHEAT, Cooling, Sensible, 68138.40, 4.26190, 4.26190, FORT MCMURRAY AP ANN CLG .4% CONDNS DB=>MWB, 7/21 00:00:00
 System Sizing Information, SYS_6_VAV WITH REHEAT, Heating, Sensible, 215722.64, 3.77825, 3.77825, FORT MCMURRAY AP ANN HTG 99.6% CONDNS DB, 1/21 00:10:00
 System Sizing Information, SYS_6_VAV WITH REHEAT 1, Cooling, Sensible, 206599.80, 15.68465, 15.68465, FORT MCMURRAY AP ANN CLG .4% CONDNS DB=>MWB, 7/21 00:00:00
 System Sizing Information, SYS_6_VAV WITH REHEAT 1, Heating, Sensible, 786753.16, 13.77950, 13.77950, FORT MCMURRAY AP ANN HTG 99.6% CONDNS DB, 1/21 00:10:00
! <Component Sizing Information>, Component Type, Component Name, Input Field Description, Value
 Component Sizing Information, AirTerminal:SingleDuct:Uncontrolled, AIR TERMINAL SINGLE DUCT UNCONTROLLED 12, Design Size Maximum Air Flow Rate [m3/s], 2.68890
 Component Sizing Information, ZoneHVAC:Baseboard:Convective:Water, ZONE HVAC BASEBOARD CONVECTIVE WATER 11, Design Size Maximum Water Flow Rate [m3/s], 5.71762E-004
 Component Sizing Information, ZoneHVAC:Baseboard:Convective:Water, ZONE HVAC BASEBOARD CONVECTIVE WATER 11, Design Size U-Factor Times Area Value [W/K], 1166.58481
 Component Sizing Information, AirTerminal:SingleDuct:VAV:Reheat, AIR TERMINAL SINGLE DUCT VAV REHEAT 3, Design Size Maximum Air Flow Rate [m3/s], 10.92200
 Component Sizing Information, AirTerminal:SingleDuct:VAV:Reheat, AIR TERMINAL SINGLE DUCT VAV REHEAT 3, Design Size Constant Minimum Air Flow Fraction, 0.17442
 Component Sizing Information, AirTerminal:SingleDuct:VAV:Reheat, AIR TERMINAL SINGLE DUCT VAV REHEAT 3, User-Specified Constant Minimum Air Flow Fraction, 0.30000
 Component Sizing Information, AirTerminal:SingleDuct:VAV:Reheat, AIR TERMINAL SINGLE DUCT VAV REHEAT 3, Design Size Minimum Air Flow Rate [m3/s], 3.27660
 Component Sizing Information, AirTerminal:SingleDuct:VAV:Reheat, AIR TERMINAL SINGLE DUCT VAV REHEAT 3, Design Size Maximum Flow per Zone Floor Area during Reheat [m3/s-m2], 1.31064E-003
 Component Sizing Information, AirTerminal:SingleDuct:VAV:Reheat, AIR TERMINAL SINGLE DUCT VAV REHEAT 3, Design Size Maximum Flow Fraction during Reheat [], 0.30000
 Component Sizing Information, AirTerminal:SingleDuct:VAV:Reheat, AIR TERMINAL SINGLE DUCT VAV REHEAT 3, Design Size Maximum Reheat Water Flow Rate [m3/s], 5.20579E-004
 Component Sizing Information, AirTerminal:SingleDuct:VAV:Reheat, AIR TERMINAL SINGLE DUCT VAV REHEAT 3, Design Size Reheat Coil Sizing Air Volume Flow Rate [m3/s], 3.27660
 Component Sizing Information, AirTerminal:SingleDuct:VAV:Reheat, AIR TERMINAL SINGLE DUCT VAV REHEAT 3, Design Size Reheat Coil Sizing Inlet Air Temperature [C], 13.10000
 Component Sizing Information, AirTerminal:SingleDuct:VAV:Reheat, AIR TERMINAL SINGLE DUCT VAV REHEAT 3, Design Size Reheat Coil Sizing Inlet Air Humidity Ratio [kgWater/kgDryAir], 8.00000E-003
 Component Sizing Information, Coil:Heating:Water, COIL HEATING WATER 6, Design Size Rated Capacity [W], 34854.41457
 Component Sizing Information, Coil:Heating:Water, COIL HEATING WATER 6, Design Size Maximum Water Flow Rate [m3/s], 5.20579E-004
 Component Sizing Information, Coil:Heating:Water, COIL HEATING WATER 6, Design Size U-Factor Times Area Value [W/K], 628.43669
! <Water Heating Coil Capacity Information>,Component Type,Name,Nominal Total Capacity {W}
Water Heating Coil Capacity Information,Coil:Heating:Water,COIL HEATING WATER 6,32680.85
 Component Sizing Information, ZoneHVAC:Baseboard:Convective:Water, ZONE HVAC BASEBOARD CONVECTIVE WATER 18, Design Size Maximum Water Flow Rate [m3/s], 0.00000
 Component Sizing Information, ZoneHVAC:Baseboard:Convective:Water, ZONE HVAC BASEBOARD CONVECTIVE WATER 18, Design Size U-Factor Times Area Value [W/K], 0.00000
 Component Sizing Information, AirTerminal:SingleDuct:VAV:Reheat, AIR TERMINAL SINGLE DUCT VAV REHEAT 4, Design Size Maximum Air Flow Rate [m3/s], 4.76265
 Component Sizing Information, AirTerminal:SingleDuct:VAV:Reheat, AIR TERMINAL SINGLE DUCT VAV REHEAT 4, Design Size Constant Minimum Air Flow Fraction, 0.29999
 Component Sizing Information, AirTerminal:SingleDuct:VAV:Reheat, AIR TERMINAL SINGLE DUCT VAV REHEAT 4, User-Specified Constant Minimum Air Flow Fraction, 0.30000
[...]
 Component Sizing Information, Chiller:Electric:EIR, PRIMARY CHILLER WATERCOOLED SCROLL, Design Size Reference Chilled Water Flow Rate [m3/s], 3.19732E-003
 Component Sizing Information, Chiller:Electric:EIR, PRIMARY CHILLER WATERCOOLED SCROLL, Design Size Reference Capacity [W], 80524.41867
 Component Sizing Information, Chiller:Electric:EIR, PRIMARY CHILLER WATERCOOLED SCROLL, Design Size Reference Condenser Fluid Flow Rate [m3/s], 3.79496E-003
! <Chiller Standard Rating Information>, Component Type, Component Name, IPLV in SI Units {W/W}, IPLV in IP Units {Btu/W-h}
 Chiller Standard Rating Information, Chiller:Electric:EIR, PRIMARY CHILLER WATERCOOLED SCROLL, 7.88, 26.88
 Component Sizing Information, Chiller:Electric:EIR, SECONDARY CHILLER WATERCOOLED SCROLL, Design Size Reference Chilled Water Flow Rate [m3/s], 3.19732E-003
 Component Sizing Information, Chiller:Electric:EIR, SECONDARY CHILLER WATERCOOLED SCROLL, Design Size Reference Capacity [W], 80524.41867
 Component Sizing Information, Chiller:Electric:EIR, SECONDARY CHILLER WATERCOOLED SCROLL, Design Size Reference Condenser Fluid Flow Rate [m3/s], 3.79496E-003
 Chiller Standard Rating Information, Chiller:Electric:EIR, SECONDARY CHILLER WATERCOOLED SCROLL, 7.88, 26.88
 Component Sizing Information, PlantLoop, CHILLED WATER LOOP 1, Maximum Loop Flow Rate [m3/s], 1.35892E-002
 Component Sizing Information, PlantLoop, CHILLED WATER LOOP 1, Plant Loop Volume [m3], 1.63070
 Component Sizing Information, Pump:ConstantSpeed, PUMP CONSTANT SPEED 3, Design Flow Rate [m3/s], 1.35892E-002
 Component Sizing Information, Pump:ConstantSpeed, PUMP CONSTANT SPEED 3, Design Power Consumption [W], 3471.85835
 Component Sizing Information, Chiller:Electric:EIR, PRIMARY CHILLER WATERCOOLED SCROLL 1, Design Size Reference Chilled Water Flow Rate [m3/s], 1.35892E-002
 Component Sizing Information, Chiller:Electric:EIR, PRIMARY CHILLER WATERCOOLED SCROLL 1, Design Size Reference Capacity [W], 342243.35768
 Component Sizing Information, Chiller:Electric:EIR, PRIMARY CHILLER WATERCOOLED SCROLL 1, Design Size Reference Condenser Fluid Flow Rate [m3/s], 1.61293E-002
 Chiller Standard Rating Information, Chiller:Electric:EIR, PRIMARY CHILLER WATERCOOLED SCROLL 1, 7.88, 26.88
 Component Sizing Information, Chiller:Electric:EIR, SECONDARY CHILLER WATERCOOLED SCROLL 1, Design Size Reference Chilled Water Flow Rate [m3/s], 1.35892E-002
 Component Sizing Information, Chiller:Electric:EIR, SECONDARY CHILLER WATERCOOLED SCROLL 1, Design Size Reference Capacity [W], 342243.35768
 Component Sizing Information, Chiller:Electric:EIR, SECONDARY CHILLER WATERCOOLED SCROLL 1, Design Size Reference Condenser Fluid Flow Rate [m3/s], 1.61293E-002
 Chiller Standard Rating Information, Chiller:Electric:EIR, SECONDARY CHILLER WATERCOOLED SCROLL 1, 7.88, 26.88
 Component Sizing Information, PlantLoop, CONDENSER WATER LOOP, Maximum Loop Flow Rate [m3/s], 7.58993E-003
 Component Sizing Information, PlantLoop, CONDENSER WATER LOOP, Plant Loop Volume [m3], 0.91079
 Component Sizing Information, Pump:ConstantSpeed, PUMP CONSTANT SPEED 2, Design Flow Rate [m3/s], 7.58993E-003
 Component Sizing Information, Pump:ConstantSpeed, PUMP CONSTANT SPEED 2, Design Power Consumption [W], 1939.12859
 Component Sizing Information, CoolingTower:SingleSpeed, COOLING TOWER SINGLE SPEED 1, Design Water Flow Rate [m3/s], 7.58993E-003
 Component Sizing Information, CoolingTower:SingleSpeed, COOLING TOWER SINGLE SPEED 1, Fan Power at Design Air Flow Rate [W], 1665.35951
 Component Sizing Information, CoolingTower:SingleSpeed, COOLING TOWER SINGLE SPEED 1, Design Air Flow Rate [m3/s], 4.57941
 Component Sizing Information, CoolingTower:SingleSpeed, COOLING TOWER SINGLE SPEED 1, U-Factor Times Area Value at Design Air Flow Rate [W/C], 8177.59490
 Component Sizing Information, CoolingTower:SingleSpeed, COOLING TOWER SINGLE SPEED 1, Free Convection Regime Air Flow Rate [m3/s], 0.45794
 Component Sizing Information, CoolingTower:SingleSpeed, COOLING TOWER SINGLE SPEED 1, Free Convection U-Factor Times Area Value [W/K], 817.75949
 Component Sizing Information, PlantLoop, CONDENSER WATER LOOP 1, Maximum Loop Flow Rate [m3/s], 3.22586E-002
 Component Sizing Information, PlantLoop, CONDENSER WATER LOOP 1, Plant Loop Volume [m3], 3.87103
 Component Sizing Information, Pump:ConstantSpeed, PUMP CONSTANT SPEED 4, Design Flow Rate [m3/s], 3.22586E-002
 Component Sizing Information, Pump:ConstantSpeed, PUMP CONSTANT SPEED 4, Design Power Consumption [W], 8241.64756
 Component Sizing Information, CoolingTower:SingleSpeed, COOLING TOWER SINGLE SPEED 2, Design Water Flow Rate [m3/s], 3.22586E-002
 Component Sizing Information, CoolingTower:SingleSpeed, COOLING TOWER SINGLE SPEED 2, Fan Power at Design Air Flow Rate [W], 7078.07943
 Component Sizing Information, CoolingTower:SingleSpeed, COOLING TOWER SINGLE SPEED 2, Design Air Flow Rate [m3/s], 19.46330
 Component Sizing Information, CoolingTower:SingleSpeed, COOLING TOWER SINGLE SPEED 2, U-Factor Times Area Value at Design Air Flow Rate [W/C], 34756.25880
 Component Sizing Information, CoolingTower:SingleSpeed, COOLING TOWER SINGLE SPEED 2, Free Convection Regime Air Flow Rate [m3/s], 1.94633
 Component Sizing Information, CoolingTower:SingleSpeed, COOLING TOWER SINGLE SPEED 2, Free Convection U-Factor Times Area Value [W/K], 3475.62588
 Component Sizing Information, PlantLoop, HOT WATER LOOP, Maximum Loop Flow Rate [m3/s], 1.32999E-002
 Component Sizing Information, PlantLoop, HOT WATER LOOP, Plant Loop Volume [m3], 1.59599
 Component Sizing Information, Pump:VariableSpeed, PUMP VARIABLE SPEED 1, Design Flow Rate [m3/s], 1.32999E-002
 Component Sizing Information, Pump:VariableSpeed, PUMP VARIABLE SPEED 1, Design Power Consumption [W], 3397.94995
 Component Sizing Information, Boiler:HotWater, PRIMARY BOILER, Design Size Nominal Capacity [W], 893916.39939
 Component Sizing Information, Boiler:HotWater, PRIMARY BOILER, Design Size Design Water Flow Rate [m3/s], 1.32999E-002
 Component Sizing Information, Boiler:HotWater, SECONDARY BOILER, Design Size Nominal Capacity [W], 893916.39939
 Component Sizing Information, Boiler:HotWater, SECONDARY BOILER, Design Size Design Water Flow Rate [m3/s], 1.32999E-002
 Component Sizing Information, PlantLoop, MAIN SERVICE WATER LOOP, Maximum Loop Flow Rate [m3/s], 1.50872E-003
 Component Sizing Information, PlantLoop, MAIN SERVICE WATER LOOP, Plant Loop Volume [m3], 0.18105
 Component Sizing Information, Pump:ConstantSpeed, SERVICE WATER LOOP PUMP, Design Flow Rate [m3/s], 1.50872E-003
 Component Sizing Information, Pump:ConstantSpeed, SERVICE WATER LOOP PUMP, Design Power Consumption [W], 2749.96541
 Component Sizing Information, WaterHeater:Mixed, 1027GAL NATURALGAS WATER HEATER - 2437KBTU/HR, Use Side Design Flow Rate [m3/s], 1.50872E-003
! <Environment>,Environment Name,Environment Type, Start Date, End Date, Start DayOfWeek, Duration {#days}, Source:Start DayOfWeek,  Use Daylight Saving, Use Holidays, Apply Weekend Holiday Rule,  Use Rain Values, Use Snow Values
! <Environment:Special Days>, Special Day Name, Special Day Type, Source, Start Date, Duration {#days}
! <Environment:Daylight Saving>, Daylight Saving Indicator, Source, Start Date, End Date
! <Environment:WarmupDays>, NumberofWarmupDays
Environment,FORT MCMURRAY AP ANN CLG .4% CONDNS DB=>MWB,SizingPeriod:DesignDay,07/21,07/21,SummerDesignDay,1,N/A,N/A,N/A,N/A,N/A,N/A
Environment:Daylight Saving,No,SizingPeriod:DesignDay
! <Environment:Design Day Data>, Max Dry-Bulb Temp {C}, Temp Range {dC}, Temp Range Ind Type, Hum Ind Value at Max Temp, Hum Ind Type,Pressure {Pa}, Wind Direction {deg CW from N}, Wind Speed {m/s}, Clearness, Rain, Snow
! <Environment:Design Day Misc>,DayOfYear,ASHRAE A Coeff,ASHRAE B Coeff,ASHRAE C Coeff,Solar Constant-Annual Variation,Eq of Time {minutes}, Solar Declination Angle {deg}, Solar Model
Environment:Design Day Data,28.90,12.40,DefaultMultipliers,96969,250,3.7,0.00,No,No
Environment:Design Day Misc,202,1084.4,0.2082,0.1365,1.0,-6.23,20.6,ASHRAETau
Environment:WarmupDays,  6
! <Tabular Report>,Style,Unit Conversion
Tabular Report,HTML,None
! <Warmup Convergence Information>,Zone Name,Environment Type/Name,Average Warmup Temperature Difference {deltaC},Std Dev Warmup Temperature Difference {deltaC},Max Temperature Pass/Fail Convergence,Min Temperature Pass/Fail Convergence,Average Warmup Load Difference {W},Std Dev Warmup Load Difference {W},Heating Load Pass/Fail Convergence,Cooling Load Pass/Fail Convergence
 Warmup Convergence Information,SP-FIRE STATION SLEEPING QUARTERS-SPACE FUNCTION SYS-3 FLR-4 SCH-G HPLCMT-NORTH ZN,SizingPeriod: FORT MCMURRAY AP ANN CLG .4% CONDNS DB=>MWB,1.4977804606E-002,2.6301091363E-002,Pass,Pass,2.3591860905E-002,3.5150216034E-002,Pass,Pass
 Warmup Convergence Information,SP-GYMNASIUM/FITNESS CENTRE EXERCISE AREA-SPACE FUNCTION SYS-6 FLR-3 SCH-B HPLCMT-CORE ZN,SizingPeriod: FORT MCMURRAY AP ANN CLG .4% CONDNS DB=>MWB,5.7657230434E-002,8.2534113587E-002,Pass,Pass,1.6711034034E-002,6.3504544115E-002,Pass,Pass
 Warmup Convergence Information,SP-GYMNASIUM/FITNESS CENTRE PLAYING AREA-SPACE FUNCTION SYS-6 FLR-3 SCH-B HPLCMT-SOUTH ZN,SizingPeriod: FORT MCMURRAY AP ANN CLG .4% CONDNS DB=>MWB,2.2291856615E-002,5.7964398455E-002,Pass,Pass,2.2525246242E-002,6.2781258366E-002,Pass,Pass
 Warmup Convergence Information,SP-HEALTH CARE FACILITY EXAM/TREATMENT ROOM-SPACE FUNCTION SYS-3 FLR-3 SCH-C HPLCMT-EAST ZN,SizingPeriod: FORT MCMURRAY AP ANN CLG .4% CONDNS DB=>MWB,3.2314440839E-002,7.3007600514E-002,Pass,Pass,3.2348971397E-002,0.1766675794,Pass,Pass
 Warmup Convergence Information,SP-HEALTH CARE FACILITY IMAGING ROOM-SPACE FUNCTION SYS-3 FLR-4 SCH-H HPLCMT-CORE ZN,SizingPeriod: FORT MCMURRAY AP ANN CLG .4% CONDNS DB=>MWB,6.5714944296E-003,1.6283682642E-002,Pass,Pass,7.9257794847E-003,6.3867570153E-003,Pass,Pass
 Warmup Convergence Information,SP-HEALTH CARE FACILITY MEDICAL SUPPLY ROOM-SPACE FUNCTION SYS-3 FLR-3 SCH-H HPLCMT-NORTH ZN,SizingPeriod: FORT MCMURRAY AP ANN CLG .4% CONDNS DB=>MWB,8.1596805178E-003,1.8807695887E-002,Pass,Pass,8.9486625308E-003,1.4429435514E-002,Pass,Pass
 Warmup Convergence Information,SP-HEALTH CARE FACILITY NURSERY-SPACE FUNCTION SYS-3 FLR-3 SCH-H HPLCMT-WEST ZN,SizingPeriod: FORT MCMURRAY AP ANN CLG .4% CONDNS DB=>MWB,5.9143122092E-005,1.4227986021E-004,Pass,Pass,6.3128685113E-003,4.9356015079E-003,Pass,Pass
 Warmup Convergence Information,SP-HEALTH CARE FACILITY NURSES STATION-SPACE FUNCTION SYS-3 FLR-1 SCH-H HPLCMT-WEST ZN,SizingPeriod: FORT MCMURRAY AP ANN CLG .4% CONDNS DB=>MWB,2.4284095625E-003,6.9765847790E-003,Pass,Pass,2.7860751627E-003,3.2663007369E-003,Pass,Pass
 Warmup Convergence Information,SP-HEALTH CARE FACILITY OPERATING ROOM-SPACE FUNCTION SYS-3 FLR-4 SCH-H HPLCMT-EAST ZN,SizingPeriod: FORT MCMURRAY AP ANN CLG .4% CONDNS DB=>MWB,1.6417001700E-002,3.3366914034E-002,Pass,Pass,7.4104870478E-003,7.4804333312E-003,Pass,Pass
 Warmup Convergence Information,SP-HEALTH CARE FACILITY PATIENT ROOM-SPACE FUNCTION SYS-3 FLR-1 SCH-H HPLCMT-NORTH ZN,SizingPeriod: FORT MCMURRAY AP ANN CLG .4% CONDNS DB=>MWB,7.1694211951E-005,2.0458136675E-004,Pass,Pass,1.1029987378E-003,5.6774670154E-004,Pass,Pass
 Warmup Convergence Information,SP-HEALTH CARE FACILITY PHYSICAL THERAPY ROOM-SPACE FUNCTION SYS-3 FLR-1 SCH-C HPLCMT-EAST ZN,SizingPeriod: FORT MCMURRAY AP ANN CLG .4% CONDNS DB=>MWB,4.1606996468E-002,7.0903898747E-002,Pass,Pass,2.9760727951E-002,8.8981998181E-002,Pass,Pass
 Warmup Convergence Information,SP-HEALTH CARE FACILITY RECOVERY ROOM-SPACE FUNCTION SYS-3 FLR-4 SCH-H HPLCMT-WEST ZN,SizingPeriod: FORT MCMURRAY AP ANN CLG .4% CONDNS DB=>MWB,3.0315540085E-002,5.4061408652E-002,Pass,Pass,1.1823240574E-002,1.2891970024E-002,Pass,Pass
 Warmup Convergence Information,SP-LIBRARY READING AREA-SPACE FUNCTION SYS-6 FLR-1 SCH-C HPLCMT-SOUTH ZN,SizingPeriod: FORT MCMURRAY AP ANN CLG .4% CONDNS DB=>MWB,1.1494647474E-002,2.5145407096E-002,Pass,Pass,1.6054735114E-002,6.9166366275E-002,Pass,Pass
 Warmup Convergence Information,SP-LIBRARY STACKS-SPACE FUNCTION SYS-6 FLR-1 SCH-C HPLCMT-CORE ZN,SizingPeriod: FORT MCMURRAY AP ANN CLG .4% CONDNS DB=>MWB,1.7517509833E-002,3.7462129137E-002,Pass,Pass,1.6698538525E-002,6.3600426155E-002,Pass,Pass
 Warmup Convergence Information,SP-MANUFACTURING FACILITY DETAILED MANUFACTURING AREA-SPACE FUNCTION SYS-3 FLR-2 SCH-A HPLCMT-NORTH ZN,SizingPeriod: FORT MCMURRAY AP ANN CLG .4% CONDNS DB=>MWB,2.2824025444E-002,4.5815392404E-002,Pass,Pass,2.7990778919E-002,0.1123115826,Pass,Pass
 Warmup Convergence Information,SP-MANUFACTURING FACILITY EQUIPMENT ROOM-SPACE FUNCTION SYS-3 FLR-2 SCH-A HPLCMT-EAST ZN,SizingPeriod: FORT MCMURRAY AP ANN CLG .4% CONDNS DB=>MWB,2.5022160607E-002,4.9966345820E-002,Pass,Pass,2.6112556986E-002,0.1138232455,Pass,Pass
 Warmup Convergence Information,SP-MANUFACTURING FACILITY EXTRA HIGH BAY AREA (> 15 M FLOOR-TO-CEILING HEIGHT)-SPACE FUNCTION SYS-3 FLR-4 SCH-A HPLCMT-SOUTH ZN,SizingPeriod: FORT MCMURRAY AP ANN CLG .4% CONDNS DB=>MWB,3.4090556602E-002,5.5896179443E-002,Pass,Pass,3.6370251206E-002,0.1171021567,Pass,Pass
 Warmup Convergence Information,SP-MANUFACTURING FACILITY HIGH BAY AREA (7.5 TO 15 M FLOOR-TO-CEILING HEIGHT)-SPACE FUNCTION SYS-3 FLR-2 SCH-A HPLCMT-SOUTH ZN,SizingPeriod: FORT MCMURRAY AP ANN CLG .4% CONDNS DB=>MWB,2.6187287523E-002,4.8304894812E-002,Pass,Pass,3.3316993103E-002,0.1206587437,Pass,Pass
 Warmup Convergence Information,SP-MANUFACTURING FACILITY LOW BAY AREA (< 7.5 M FLOOR-TO-CEILING HEIGHT)-SPACE FUNCTION SYS-3 FLR-2 SCH-A HPLCMT-WEST ZN,SizingPeriod: FORT MCMURRAY AP ANN CLG .4% CONDNS DB=>MWB,2.4578324469E-002,6.6430945871E-002,Pass,Pass,3.1207722211E-002,0.1333744554,Pass,Pass
 Warmup Convergence Information,SP-MUSEUM GENERAL EXHIBITION AREA-SPACE FUNCTION SYS-2 FLR-2 SCH-C HPLCMT-CORE ZN,SizingPeriod: FORT MCMURRAY AP ANN CLG .4% CONDNS DB=>MWB,6.2309914400E-002,7.1814413846E-002,Pass,Pass,3.9113939086E-002,7.6491401661E-002,Pass,Pass
Environment,FORT MCMURRAY AP ANN HTG 99.6% CONDNS DB,SizingPeriod:DesignDay,01/21,01/21,WinterDesignDay,1,N/A,N/A,N/A,N/A,N/A,N/A
Environment:Daylight Saving,No,SizingPeriod:DesignDay
Environment:Design Day Data,-36.20,0.00,DefaultMultipliers,96969,90,1.0,0.00,No,No
Environment:Design Day Misc, 21,1229.0,0.1415,5.7310E-002,1.0,-11.15,-20.1,ASHRAEClearSky
Environment:WarmupDays,  6
 Warmup Convergence Information,SP-FIRE STATION SLEEPING QUARTERS-SPACE FUNCTION SYS-3 FLR-4 SCH-G HPLCMT-NORTH ZN,SizingPeriod: FORT MCMURRAY AP ANN HTG 99.6% CONDNS DB,5.5686418926E-002,0.2638686839,Pass,Pass,9.8695628819E-002,0.4737352035,Pass,Pass
 Warmup Convergence Information,SP-GYMNASIUM/FITNESS CENTRE EXERCISE AREA-SPACE FUNCTION SYS-6 FLR-3 SCH-B HPLCMT-CORE ZN,SizingPeriod: FORT MCMURRAY AP ANN HTG 99.6% CONDNS DB,6.0348210927E-002,7.8875488753E-002,Pass,Pass,6.5098923237E-003,9.0761517344E-003,Pass,Pass
 Warmup Convergence Information,SP-GYMNASIUM/FITNESS CENTRE PLAYING AREA-SPACE FUNCTION SYS-6 FLR-3 SCH-B HPLCMT-SOUTH ZN,SizingPeriod: FORT MCMURRAY AP ANN HTG 99.6% CONDNS DB,7.6165052450E-002,9.1947505823E-002,Pass,Pass,1.0005818223E-002,1.2455336325E-002,Pass,Pass
 Warmup Convergence Information,SP-HEALTH CARE FACILITY EXAM/TREATMENT ROOM-SPACE FUNCTION SYS-3 FLR-3 SCH-C HPLCMT-EAST ZN,SizingPeriod: FORT MCMURRAY AP ANN HTG 99.6% CONDNS DB,5.5564438814E-002,0.2799528916,Pass,Pass,0.1530117169,0.6544173358,Pass,Pass
 Warmup Convergence Information,SP-HEALTH CARE FACILITY IMAGING ROOM-SPACE FUNCTION SYS-3 FLR-4 SCH-H HPLCMT-CORE ZN,SizingPeriod: FORT MCMURRAY AP ANN HTG 99.6% CONDNS DB,5.5576493281E-002,0.2715211846,Pass,Pass,0.2316441492,1.4343019315,Pass,Pass
 Warmup Convergence Information,SP-HEALTH CARE FACILITY MEDICAL SUPPLY ROOM-SPACE FUNCTION SYS-3 FLR-3 SCH-H HPLCMT-NORTH ZN,SizingPeriod: FORT MCMURRAY AP ANN HTG 99.6% CONDNS DB,5.6074978546E-002,0.2289378311,Pass,Pass,0.4029644569,3.2388114327,Pass,Pass
 Warmup Convergence Information,SP-HEALTH CARE FACILITY NURSERY-SPACE FUNCTION SYS-3 FLR-3 SCH-H HPLCMT-WEST ZN,SizingPeriod: FORT MCMURRAY AP ANN HTG 99.6% CONDNS DB,5.3290331190E-002,0.2437077853,Pass,Pass,0.2261443481,1.8493960813,Pass,Pass
 Warmup Convergence Information,SP-HEALTH CARE FACILITY NURSES STATION-SPACE FUNCTION SYS-3 FLR-1 SCH-H HPLCMT-WEST ZN,SizingPeriod: FORT MCMURRAY AP ANN HTG 99.6% CONDNS DB,3.5397757071E-002,0.1621449277,Pass,Pass,5.6252779345E-002,0.3409758637,Pass,Pass
 Warmup Convergence Information,SP-HEALTH CARE FACILITY OPERATING ROOM-SPACE FUNCTION SYS-3 FLR-4 SCH-H HPLCMT-EAST ZN,SizingPeriod: FORT MCMURRAY AP ANN HTG 99.6% CONDNS DB,5.5605757916E-002,0.2905102570,Pass,Pass,0.1197349733,0.6202383924,Pass,Pass
 Warmup Convergence Information,SP-HEALTH CARE FACILITY PATIENT ROOM-SPACE FUNCTION SYS-3 FLR-1 SCH-H HPLCMT-NORTH ZN,SizingPeriod: FORT MCMURRAY AP ANN HTG 99.6% CONDNS DB,2.0260857328E-002,0.1198687422,Pass,Pass,2.7957219570E-002,0.1639179795,Pass,Pass
 Warmup Convergence Information,SP-HEALTH CARE FACILITY PHYSICAL THERAPY ROOM-SPACE FUNCTION SYS-3 FLR-1 SCH-C HPLCMT-EAST ZN,SizingPeriod: FORT MCMURRAY AP ANN HTG 99.6% CONDNS DB,5.5562994247E-002,0.2565985820,Pass,Pass,0.2576649207,1.3011899879,Pass,Pass
 Warmup Convergence Information,SP-HEALTH CARE FACILITY RECOVERY ROOM-SPACE FUNCTION SYS-3 FLR-4 SCH-H HPLCMT-WEST ZN,SizingPeriod: FORT MCMURRAY AP ANN HTG 99.6% CONDNS DB,5.5571162062E-002,0.3050785581,Pass,Pass,0.4260715205,2.0804422615,Pass,Pass
 Warmup Convergence Information,SP-LIBRARY READING AREA-SPACE FUNCTION SYS-6 FLR-1 SCH-C HPLCMT-SOUTH ZN,SizingPeriod: FORT MCMURRAY AP ANN HTG 99.6% CONDNS DB,3.4596044281E-002,3.5375283049E-002,Pass,Pass,2.2693800039E-003,2.7004320143E-003,Pass,Pass
 Warmup Convergence Information,SP-LIBRARY STACKS-SPACE FUNCTION SYS-6 FLR-1 SCH-C HPLCMT-CORE ZN,SizingPeriod: FORT MCMURRAY AP ANN HTG 99.6% CONDNS DB,3.7861438613E-002,3.9722722272E-002,Pass,Pass,2.4796498954E-003,3.0553431268E-003,Pass,Pass
 Warmup Convergence Information,SP-MANUFACTURING FACILITY DETAILED MANUFACTURING AREA-SPACE FUNCTION SYS-3 FLR-2 SCH-A HPLCMT-NORTH ZN,SizingPeriod: FORT MCMURRAY AP ANN HTG 99.6% CONDNS DB,5.5592710643E-002,0.2332685960,Pass,Pass,0.2198820967,0.9379875349,Pass,Pass
 Warmup Convergence Information,SP-MANUFACTURING FACILITY EQUIPMENT ROOM-SPACE FUNCTION SYS-3 FLR-2 SCH-A HPLCMT-EAST ZN,SizingPeriod: FORT MCMURRAY AP ANN HTG 99.6% CONDNS DB,5.5562647938E-002,0.2546194887,Pass,Pass,0.6529739114,5.6207483702,Pass,Pass
 Warmup Convergence Information,SP-MANUFACTURING FACILITY EXTRA HIGH BAY AREA (> 15 M FLOOR-TO-CEILING HEIGHT)-SPACE FUNCTION SYS-3 FLR-4 SCH-A HPLCMT-SOUTH ZN,SizingPeriod: FORT MCMURRAY AP ANN HTG 99.6% CONDNS DB,5.5567344284E-002,0.3202866840,Pass,Pass,7.3033151362E-002,0.2649388413,Pass,Pass
 Warmup Convergence Information,SP-MANUFACTURING FACILITY HIGH BAY AREA (7.5 TO 15 M FLOOR-TO-CEILING HEIGHT)-SPACE FUNCTION SYS-3 FLR-2 SCH-A HPLCMT-SOUTH ZN,SizingPeriod: FORT MCMURRAY AP ANN HTG 99.6% CONDNS DB,5.5575602254E-002,0.2663098559,Pass,Pass,0.1935938212,0.8141680004,Pass,Pass
 Warmup Convergence Information,SP-MANUFACTURING FACILITY LOW BAY AREA (< 7.5 M FLOOR-TO-CEILING HEIGHT)-SPACE FUNCTION SYS-3 FLR-2 SCH-A HPLCMT-WEST ZN,SizingPeriod: FORT MCMURRAY AP ANN HTG 99.6% CONDNS DB,5.5566222534E-002,0.2593020056,Pass,Pass,0.4470247642,2.2801597299,Pass,Pass
 Warmup Convergence Information,SP-MUSEUM GENERAL EXHIBITION AREA-SPACE FUNCTION SYS-2 FLR-2 SCH-C HPLCMT-CORE ZN,SizingPeriod: FORT MCMURRAY AP ANN HTG 99.6% CONDNS DB,6.3238553857E-002,0.2263530294,Pass,Pass,0.4070844049,1.1144160068,Pass,Pass
! <Program Control Information:Threads/Parallel Sims>, Threading Supported,Maximum Number of Threads, Env Set Threads (OMP_NUM_THREADS), EP Env Set Threads (EP_OMP_NUM_THREADS), IDF Set Threads, Number of Threads Used (Interior Radiant Exchange), Number Nominal Surfaces, Number Parallel Sims
Program Control:Threads/Parallel Sims, No,1, N/A, N/A, N/A, N/A, N/A, N/A
End of Data
