{
   "completed_at" : "20190328T135333Z",
   "completed_status" : "Success",
   "created_at" : "20190328T134835Z",
   "current_step" : 0,
   "eplusout_err" : "Program Version,EnergyPlus, Version 8.9.0-eba93e8e1b, YMD=2019.03.28 13:48,\n   ************* Beginning Zone Sizing Calculations\n   ** Warning ** ProcessScheduleInput: Schedule:Day:Interval=\"ECONOMIZER MAX OA FRACTION 100 PCT DEFAULT\", Blank Schedule Type Limits Name input -- will not be validated.\n   ** Warning ** ProcessScheduleInput: Schedule:Day:Interval=\"SCHEDULE DAY 1\", Blank Schedule Type Limits Name input -- will not be validated.\n   ** Warning ** ProcessScheduleInput: Schedule:Day:Interval=\"SCHEDULE DAY 10\", Blank Schedule Type Limits Name input -- will not be validated.\n   ** Warning ** ProcessScheduleInput: Schedule:Day:Interval=\"SCHEDULE DAY 11\", Blank Schedule Type Limits Name input -- will not be validated.\n   ** Warning ** ProcessScheduleInput: Schedule:Day:Interval=\"SCHEDULE DAY 12\", Blank Schedule Type Limits Name input -- will not be validated.\n   ** Warning ** ProcessScheduleInput: Schedule:Day:Interval=\"SCHEDULE DAY 13\", Blank Schedule Type Limits Name input -- will not be validated.\n   ** Warning ** ProcessScheduleInput: Schedule:Day:Interval=\"SCHEDULE DAY 14\", Blank Schedule Type Limits Name input -- will not be validated.\n   ** Warning ** ProcessScheduleInput: Schedule:Day:Interval=\"SCHEDULE DAY 15\", Blank Schedule Type Limits Name input -- will not be validated.\n   ** Warning ** ProcessScheduleInput: Schedule:Day:Interval=\"SCHEDULE DAY 16\", Blank Schedule Type Limits Name input -- will not be validated.\n   ** Warning ** ProcessScheduleInput: Schedule:Day:Interval=\"SCHEDULE DAY 17\", Blank Schedule Type Limits Name input -- will not be validated.\n   ** Warning ** ProcessScheduleInput: Schedule:Day:Interval=\"SCHEDULE DAY 18\", Blank Schedule Type Limits Name input -- will not be validated.\n   ** Warning ** ProcessScheduleInput: Schedule:Day:Interval=\"SCHEDULE DAY 19\", Blank Schedule Type Limits Name input -- will not be validated.\n   ** Warning ** ProcessScheduleInput: Schedule:Day:Interval=\"SCHEDULE DAY 2\", Blank Schedule Type Limits Name input -- will not be validated.\n   ** Warning ** ProcessScheduleInput: Schedule:Day:Interval=\"SCHEDULE DAY 20\", Blank Schedule Type Limits Name input -- will not be validated.\n   ** Warning ** ProcessScheduleInput: Schedule:Day:Interval=\"SCHEDULE DAY 21\", Blank Schedule Type Limits Name input -- will not be validated.\n   ** Warning ** ProcessScheduleInput: Schedule:Day:Interval=\"SCHEDULE DAY 22\", Blank Schedule Type Limits Name input -- will not be validated.\n   ** Warning ** ProcessScheduleInput: Schedule:Day:Interval=\"SCHEDULE DAY 23\", Blank Schedule Type Limits Name input -- will not be validated.\n   ** Warning ** ProcessScheduleInput: Schedule:Day:Interval=\"SCHEDULE DAY 24\", Blank Schedule Type Limits Name input -- will not be validated.\n   ** Warning ** ProcessScheduleInput: Schedule:Day:Interval=\"SCHEDULE DAY 25\", Blank Schedule Type Limits Name input -- will not be validated.\n   ** Warning ** ProcessScheduleInput: Schedule:Day:Interval=\"SCHEDULE DAY 26\", Blank Schedule Type Limits Name input -- will not be validated.\n   ** Warning ** ProcessScheduleInput: Schedule:Day:Interval=\"SCHEDULE DAY 27\", Blank Schedule Type Limits Name input -- will not be validated.\n   ** Warning ** ProcessScheduleInput: Schedule:Day:Interval=\"SCHEDULE DAY 28\", Blank Schedule Type Limits Name input -- will not be validated.\n   ** Warning ** ProcessScheduleInput: Schedule:Day:Interval=\"SCHEDULE DAY 29\", Blank Schedule Type Limits Name input -- will not be validated.\n   ** Warning ** ProcessScheduleInput: Schedule:Day:Interval=\"SCHEDULE DAY 30\", Blank Schedule Type Limits Name input -- will not be validated.\n   ** Warning ** ProcessScheduleInput: Schedule:Day:Interval=\"SCHEDULE DAY 31\", Blank Schedule Type Limits Name input -- will not be validated.\n   ** Warning ** ProcessScheduleInput: Schedule:Day:Interval=\"SCHEDULE DAY 32\", Blank Schedule Type Limits Name input -- will not be validated.\n   ** Warning ** ProcessScheduleInput: Schedule:Day:Interval=\"SCHEDULE DAY 33\", Blank Schedule Type Limits Name input -- will not be validated.\n   ** Warning ** ProcessScheduleInput: Schedule:Day:Interval=\"SCHEDULE DAY 34\", Blank Schedule Type Limits Name input -- will not be validated.\n   ** Warning ** ProcessScheduleInput: Schedule:Day:Interval=\"SCHEDULE DAY 35\", Blank Schedule Type Limits Name input -- will not be validated.\n   ** Warning ** ProcessScheduleInput: Schedule:Day:Interval=\"SCHEDULE DAY 36\", Blank Schedule Type Limits Name input -- will not be validated.\n   ** Warning ** ProcessScheduleInput: Schedule:Day:Interval=\"SCHEDULE DAY 37\", Blank Schedule Type Limits Name input -- will not be validated.\n   ** Warning ** ProcessScheduleInput: Schedule:Day:Interval=\"SCHEDULE DAY 38\", Blank Schedule Type Limits Name input -- will not be validated.\n   ** Warning ** ProcessScheduleInput: Schedule:Day:Interval=\"SCHEDULE DAY 39\", Blank Schedule Type Limits Name input -- will not be validated.\n   ** Warning ** ProcessScheduleInput: Schedule:Day:Interval=\"SCHEDULE DAY 40\", Blank Schedule Type Limits Name input -- will not be validated.\n   ** Warning ** ProcessScheduleInput: Schedule:Day:Interval=\"SCHEDULE DAY 41\", Blank Schedule Type Limits Name input -- will not be validated.\n   ** Warning ** ProcessScheduleInput: Schedule:Day:Interval=\"SCHEDULE DAY 42\", Blank Schedule Type Limits Name input -- will not be validated.\n   ** Warning ** ProcessScheduleInput: Schedule:Day:Interval=\"SCHEDULE DAY 43\", Blank Schedule Type Limits Name input -- will not be validated.\n   ** Warning ** ProcessScheduleInput: Schedule:Day:Interval=\"SCHEDULE DAY 44\", Blank Schedule Type Limits Name input -- will not be validated.\n   ** Warning ** ProcessScheduleInput: Schedule:Day:Interval=\"SCHEDULE DAY 45\", Blank Schedule Type Limits Name input -- will not be validated.\n   ** Warning ** ProcessScheduleInput: Schedule:Day:Interval=\"SCHEDULE DAY 46\", Blank Schedule Type Limits Name input -- will not be validated.\n   ** Warning ** ProcessScheduleInput: Schedule:Day:Interval=\"SCHEDULE DAY 47\", Blank Schedule Type Limits Name input -- will not be validated.\n   ** Warning ** ProcessScheduleInput: Schedule:Day:Interval=\"SCHEDULE DAY 48\", Blank Schedule Type Limits Name input -- will not be validated.\n   ** Warning ** ProcessScheduleInput: Schedule:Day:Interval=\"SCHEDULE DAY 49\", Blank Schedule Type Limits Name input -- will not be validated.\n   ** Warning ** ProcessScheduleInput: Schedule:Day:Interval=\"SCHEDULE DAY 50\", Blank Schedule Type Limits Name input -- will not be validated.\n   ** Warning ** ProcessScheduleInput: Schedule:Day:Interval=\"SCHEDULE DAY 51\", Blank Schedule Type Limits Name input -- will not be validated.\n   ** Warning ** ProcessScheduleInput: Schedule:Day:Interval=\"SCHEDULE DAY 52\", Blank Schedule Type Limits Name input -- will not be validated.\n   ** Warning ** ProcessScheduleInput: Schedule:Day:Interval=\"SCHEDULE DAY 53\", Blank Schedule Type Limits Name input -- will not be validated.\n   ** Warning ** ProcessScheduleInput: Schedule:Day:Interval=\"SCHEDULE DAY 54\", Blank Schedule Type Limits Name input -- will not be validated.\n   ** Warning ** ProcessScheduleInput: Schedule:Day:Interval=\"SCHEDULE DAY 55\", Blank Schedule Type Limits Name input -- will not be validated.\n   ** Warning ** ProcessScheduleInput: Schedule:Day:Interval=\"SCHEDULE DAY 56\", Blank Schedule Type Limits Name input -- will not be validated.\n   ** Warning ** ProcessScheduleInput: Schedule:Day:Interval=\"SCHEDULE DAY 57\", Blank Schedule Type Limits Name input -- will not be validated.\n   ** Warning ** ProcessScheduleInput: Schedule:Day:Interval=\"SCHEDULE DAY 58\", Blank Schedule Type Limits Name input -- will not be validated.\n   ** Warning ** ProcessScheduleInput: Schedule:Day:Interval=\"SCHEDULE DAY 59\", Blank Schedule Type Limits Name input -- will not be validated.\n   ** Warning ** ProcessScheduleInput: Schedule:Day:Interval=\"SCHEDULE DAY 60\", Blank Schedule Type Limits Name input -- will not be validated.\n   ** Warning ** ProcessScheduleInput: Schedule:Day:Interval=\"SCHEDULE DAY 61\", Blank Schedule Type Limits Name input -- will not be validated.\n   ** Warning ** ProcessScheduleInput: Schedule:Day:Interval=\"SCHEDULE DAY 62\", Blank Schedule Type Limits Name input -- will not be validated.\n   ** Warning ** ProcessScheduleInput: Schedule:Day:Interval=\"SCHEDULE DAY 63\", Blank Schedule Type Limits Name input -- will not be validated.\n   ** Warning ** ProcessScheduleInput: Schedule:Day:Interval=\"SCHEDULE DAY 64\", Blank Schedule Type Limits Name input -- will not be validated.\n   ** Warning ** ProcessScheduleInput: Schedule:Day:Interval=\"SCHEDULE DAY 65\", Blank Schedule Type Limits Name input -- will not be validated.\n   ** Warning ** ProcessScheduleInput: Schedule:Day:Interval=\"SCHEDULE DAY 66\", Blank Schedule Type Limits Name input -- will not be validated.\n   ** Warning ** ProcessScheduleInput: Schedule:Day:Interval=\"SCHEDULE DAY 67\", Blank Schedule Type Limits Name input -- will not be validated.\n   ** Warning ** ProcessScheduleInput: Schedule:Day:Interval=\"SCHEDULE DAY 68\", Blank Schedule Type Limits Name input -- will not be validated.\n   ** Warning ** ProcessScheduleInput: Schedule:Day:Interval=\"SCHEDULE DAY 69\", Blank Schedule Type Limits Name input -- will not be validated.\n   ** Warning ** ProcessScheduleInput: Schedule:Day:Interval=\"SCHEDULE DAY 7\", Blank Schedule Type Limits Name input -- will not be validated.\n   ** Warning ** ProcessScheduleInput: Schedule:Day:Interval=\"SCHEDULE DAY 70\", Blank Schedule Type Limits Name input -- will not be validated.\n   ** Warning ** ProcessScheduleInput: Schedule:Day:Interval=\"SCHEDULE DAY 71\", Blank Schedule Type Limits Name input -- will not be validated.\n   ** Warning ** ProcessScheduleInput: Schedule:Day:Interval=\"SCHEDULE DAY 72\", Blank Schedule Type Limits Name input -- will not be validated.\n   ** Warning ** ProcessScheduleInput: Schedule:Day:Interval=\"SCHEDULE DAY 73\", Blank Schedule Type Limits Name input -- will not be validated.\n   ** Warning ** ProcessScheduleInput: Schedule:Day:Interval=\"SCHEDULE DAY 74\", Blank Schedule Type Limits Name input -- will not be validated.\n   ** Warning ** ProcessScheduleInput: Schedule:Day:Interval=\"SCHEDULE DAY 75\", Blank Schedule Type Limits Name input -- will not be validated.\n   ** Warning ** ProcessScheduleInput: Schedule:Day:Interval=\"SCHEDULE DAY 76\", Blank Schedule Type Limits Name input -- will not be validated.\n   ** Warning ** ProcessScheduleInput: Schedule:Day:Interval=\"SCHEDULE DAY 77\", Blank Schedule Type Limits Name input -- will not be validated.\n   ** Warning ** ProcessScheduleInput: Schedule:Day:Interval=\"SCHEDULE DAY 78\", Blank Schedule Type Limits Name input -- will not be validated.\n   ** Warning ** ProcessScheduleInput: Schedule:Day:Interval=\"SCHEDULE DAY 79\", Blank Schedule Type Limits Name input -- will not be validated.\n   ** Warning ** ProcessScheduleInput: Schedule:Day:Interval=\"SCHEDULE DAY 8\", Blank Schedule Type Limits Name input -- will not be validated.\n   ** Warning ** ProcessScheduleInput: Schedule:Day:Interval=\"SCHEDULE DAY 80\", Blank Schedule Type Limits Name input -- will not be validated.\n   ** Warning ** ProcessScheduleInput: Schedule:Day:Interval=\"SCHEDULE DAY 81\", Blank Schedule Type Limits Name input -- will not be validated.\n   ** Warning ** ProcessScheduleInput: Schedule:Day:Interval=\"SCHEDULE DAY 82\", Blank Schedule Type Limits Name input -- will not be validated.\n   ** Warning ** ProcessScheduleInput: Schedule:Day:Interval=\"SCHEDULE DAY 83\", Blank Schedule Type Limits Name input -- will not be validated.\n   ** Warning ** ProcessScheduleInput: Schedule:Day:Interval=\"SCHEDULE DAY 84\", Blank Schedule Type Limits Name input -- will not be validated.\n   ** Warning ** ProcessScheduleInput: Schedule:Day:Interval=\"SCHEDULE DAY 85\", Blank Schedule Type Limits Name input -- will not be validated.\n   ** Warning ** ProcessScheduleInput: Schedule:Day:Interval=\"SCHEDULE DAY 86\", Blank Schedule Type Limits Name input -- will not be validated.\n   ** Warning ** ProcessScheduleInput: Schedule:Day:Interval=\"SCHEDULE DAY 87\", Blank Schedule Type Limits Name input -- will not be validated.\n   ** Warning ** ProcessScheduleInput: Schedule:Day:Interval=\"SCHEDULE DAY 88\", Blank Schedule Type Limits Name input -- will not be validated.\n   ** Warning ** ProcessScheduleInput: Schedule:Day:Interval=\"SCHEDULE DAY 89\", Blank Schedule Type Limits Name input -- will not be validated.\n   ** Warning ** ProcessScheduleInput: Schedule:Day:Interval=\"SCHEDULE DAY 9\", Blank Schedule Type Limits Name input -- will not be validated.\n   ** Warning ** ProcessScheduleInput: Schedule:Day:Interval=\"SCHEDULE DAY 90\", Blank Schedule Type Limits Name input -- will not be validated.\n   ** Warning ** ProcessScheduleInput: Schedule:Day:Interval=\"SCHEDULE DAY 91\", Blank Schedule Type Limits Name input -- will not be validated.\n   ** Warning ** ProcessScheduleInput: Schedule:Day:Interval=\"SCHEDULE DAY 92\", Blank Schedule Type Limits Name input -- will not be validated.\n   ** Warning ** ProcessScheduleInput: Schedule:Day:Interval=\"SCHEDULE DAY 93\", Blank Schedule Type Limits Name input -- will not be validated.\n   ** Warning ** ProcessScheduleInput: Schedule:Day:Interval=\"SCHEDULE DAY 94\", Blank Schedule Type Limits Name input -- will not be validated.\n   ** Warning ** ProcessScheduleInput: Schedule:Year=\"ECONOMIZER MAX OA FRACTION 100 PCT\", Blank Schedule Type Limits Name input -- will not be validated.\n   ** Warning ** ProcessScheduleInput: Schedule:Year=\"SCHEDULE RULESET 10\", Blank Schedule Type Limits Name input -- will not be validated.\n   ** Warning ** ProcessScheduleInput: Schedule:Year=\"SCHEDULE RULESET 11\", Blank Schedule Type Limits Name input -- will not be validated.\n   ** Warning ** ProcessScheduleInput: Schedule:Year=\"SCHEDULE RULESET 12\", Blank Schedule Type Limits Name input -- will not be validated.\n   ** Warning ** ProcessScheduleInput: Schedule:Year=\"SCHEDULE RULESET 13\", Blank Schedule Type Limits Name input -- will not be validated.\n   ** Warning ** ProcessScheduleInput: Schedule:Year=\"SCHEDULE RULESET 14\", Blank Schedule Type Limits Name input -- will not be validated.\n   ** Warning ** ProcessScheduleInput: Schedule:Year=\"SCHEDULE RULESET 15\", Blank Schedule Type Limits Name input -- will not be validated.\n   ** Warning ** ProcessScheduleInput: Schedule:Year=\"SCHEDULE RULESET 16\", Blank Schedule Type Limits Name input -- will not be validated.\n   ** Warning ** ProcessScheduleInput: Schedule:Year=\"SCHEDULE RULESET 17\", Blank Schedule Type Limits Name input -- will not be validated.\n   ** Warning ** ProcessScheduleInput: Schedule:Year=\"SCHEDULE RULESET 18\", Blank Schedule Type Limits Name input -- will not be validated.\n   ** Warning ** ProcessScheduleInput: Schedule:Year=\"SCHEDULE RULESET 19\", Blank Schedule Type Limits Name input -- will not be validated.\n   ** Warning ** ProcessScheduleInput: Schedule:Year=\"SCHEDULE RULESET 20\", Blank Schedule Type Limits Name input -- will not be validated.\n   ** Warning ** ProcessScheduleInput: Schedule:Year=\"SCHEDULE RULESET 21\", Blank Schedule Type Limits Name input -- will not be validated.\n   ** Warning ** ProcessScheduleInput: Schedule:Year=\"SCHEDULE RULESET 22\", Blank Schedule Type Limits Name input -- will not be validated.\n   ** Warning ** ProcessScheduleInput: Schedule:Year=\"SCHEDULE RULESET 23\", Blank Schedule Type Limits Name input -- will not be validated.\n   ** Warning ** ProcessScheduleInput: Schedule:Year=\"SCHEDULE RULESET 24\", Blank Schedule Type Limits Name input -- will not be validated.\n   ** Warning ** ProcessScheduleInput: Schedule:Year=\"SCHEDULE RULESET 25\", Blank Schedule Type Limits Name input -- will not be validated.\n   ** Warning ** ProcessScheduleInput: Schedule:Year=\"SCHEDULE RULESET 26\", Blank Schedule Type Limits Name input -- will not be validated.\n   ** Warning ** ProcessScheduleInput: Schedule:Year=\"SCHEDULE RULESET 27\", Blank Schedule Type Limits Name input -- will not be validated.\n   ** Warning ** ProcessScheduleInput: Schedule:Year=\"SCHEDULE RULESET 28\", Blank Schedule Type Limits Name input -- will not be validated.\n   ** Warning ** ProcessScheduleInput: Schedule:Year=\"SCHEDULE RULESET 29\", Blank Schedule Type Limits Name input -- will not be validated.\n   ** Warning ** ProcessScheduleInput: Schedule:Year=\"SCHEDULE RULESET 3\", Blank Schedule Type Limits Name input -- will not be validated.\n   ** Warning ** ProcessScheduleInput: Schedule:Year=\"SCHEDULE RULESET 30\", Blank Schedule Type Limits Name input -- will not be validated.\n   ** Warning ** ProcessScheduleInput: Schedule:Year=\"SCHEDULE RULESET 31\", Blank Schedule Type Limits Name input -- will not be validated.\n   ** Warning ** ProcessScheduleInput: Schedule:Year=\"SCHEDULE RULESET 32\", Blank Schedule Type Limits Name input -- will not be validated.\n   ** Warning ** ProcessScheduleInput: Schedule:Year=\"SCHEDULE RULESET 33\", Blank Schedule Type Limits Name input -- will not be validated.\n   ** Warning ** ProcessScheduleInput: Schedule:Year=\"SCHEDULE RULESET 34\", Blank Schedule Type Limits Name input -- will not be validated.\n   ** Warning ** ProcessScheduleInput: Schedule:Year=\"SCHEDULE RULESET 35\", Blank Schedule Type Limits Name input -- will not be validated.\n   ** Warning ** ProcessScheduleInput: Schedule:Year=\"SCHEDULE RULESET 36\", Blank Schedule Type Limits Name input -- will not be validated.\n   ** Warning ** ProcessScheduleInput: Schedule:Year=\"SCHEDULE RULESET 37\", Blank Schedule Type Limits Name input -- will not be validated.\n   ** Warning ** ProcessScheduleInput: Schedule:Year=\"SCHEDULE RULESET 38\", Blank Schedule Type Limits Name input -- will not be validated.\n   ** Warning ** ProcessScheduleInput: Schedule:Year=\"SCHEDULE RULESET 39\", Blank Schedule Type Limits Name input -- will not be validated.\n   ** Warning ** ProcessScheduleInput: Schedule:Year=\"SCHEDULE RULESET 4\", Blank Schedule Type Limits Name input -- will not be validated.\n   ** Warning ** ProcessScheduleInput: Schedule:Year=\"SCHEDULE RULESET 40\", Blank Schedule Type Limits Name input -- will not be validated.\n   ** Warning ** ProcessScheduleInput: Schedule:Year=\"SCHEDULE RULESET 41\", Blank Schedule Type Limits Name input -- will not be validated.\n   ** Warning ** ProcessScheduleInput: Schedule:Year=\"SCHEDULE RULESET 42\", Blank Schedule Type Limits Name input -- will not be validated.\n   ** Warning ** ProcessScheduleInput: Schedule:Year=\"SCHEDULE RULESET 43\", Blank Schedule Type Limits Name input -- will not be validated.\n   ** Warning ** ProcessScheduleInput: Schedule:Year=\"SCHEDULE RULESET 44\", Blank Schedule Type Limits Name input -- will not be validated.\n   ** Warning ** ProcessScheduleInput: Schedule:Year=\"SCHEDULE RULESET 45\", Blank Schedule Type Limits Name input -- will not be validated.\n   ** Warning ** ProcessScheduleInput: Schedule:Year=\"SCHEDULE RULESET 46\", Blank Schedule Type Limits Name input -- will not be validated.\n   ** Warning ** ProcessScheduleInput: Schedule:Year=\"SCHEDULE RULESET 47\", Blank Schedule Type Limits Name input -- will not be validated.\n   ** Warning ** ProcessScheduleInput: Schedule:Year=\"SCHEDULE RULESET 48\", Blank Schedule Type Limits Name input -- will not be validated.\n   ** Warning ** ProcessScheduleInput: Schedule:Year=\"SCHEDULE RULESET 49\", Blank Schedule Type Limits Name input -- will not be validated.\n   ** Warning ** ProcessScheduleInput: Schedule:Year=\"SCHEDULE RULESET 5\", Blank Schedule Type Limits Name input -- will not be validated.\n   ** Warning ** ProcessScheduleInput: Schedule:Year=\"SCHEDULE RULESET 50\", Blank Schedule Type Limits Name input -- will not be validated.\n   ** Warning ** ProcessScheduleInput: Schedule:Year=\"SCHEDULE RULESET 51\", Blank Schedule Type Limits Name input -- will not be validated.\n   ** Warning ** ProcessScheduleInput: Schedule:Year=\"SCHEDULE RULESET 52\", Blank Schedule Type Limits Name input -- will not be validated.\n   ** Warning ** ProcessScheduleInput: Schedule:Year=\"SCHEDULE RULESET 53\", Blank Schedule Type Limits Name input -- will not be validated.\n   ** Warning ** ProcessScheduleInput: Schedule:Year=\"SCHEDULE RULESET 54\", Blank Schedule Type Limits Name input -- will not be validated.\n   ** Warning ** ProcessScheduleInput: Schedule:Year=\"SCHEDULE RULESET 55\", Blank Schedule Type Limits Name input -- will not be validated.\n   ** Warning ** ProcessScheduleInput: Schedule:Year=\"SCHEDULE RULESET 56\", Blank Schedule Type Limits Name input -- will not be validated.\n   ** Warning ** ProcessScheduleInput: Schedule:Year=\"SCHEDULE RULESET 6\", Blank Schedule Type Limits Name input -- will not be validated.\n   ** Warning ** ProcessScheduleInput: Schedule:Year=\"SCHEDULE RULESET 7\", Blank Schedule Type Limits Name input -- will not be validated.\n   ** Warning ** ProcessScheduleInput: Schedule:Year=\"SCHEDULE RULESET 8\", Blank Schedule Type Limits Name input -- will not be validated.\n   ** Warning ** ProcessScheduleInput: Schedule:Year=\"SCHEDULE RULESET 9\", Blank Schedule Type Limits Name input -- will not be validated.\n   ** Warning ** ProcessScheduleInput: Schedule:Constant=\"ALWAYS OFF DISCRETE\", Blank Schedule Type Limits Name input -- will not be validated.\n   ** Warning ** ProcessScheduleInput: Schedule:Constant=\"ALWAYS ON CONTINUOUS\", Blank Schedule Type Limits Name input -- will not be validated.\n   ** Warning ** CheckUsedConstructions: There are 27 nominally unused constructions in input.\n   **   ~~~   ** For explicit details on each unused construction, use Output:Diagnostics,DisplayExtraWarnings;\n   ** Warning ** GetInternalHeatGains: People Combination of ZoneList and Object Name generate a name too long.\n   **   ~~~   ** Object Name=\"SPACE FUNCTION LOCKER ROOM-SCH-J PEOPLE\".\n   **   ~~~   ** ZoneList/Zone Name=\"SP-LOCKER ROOM-SCH-J-SPACE FUNCTION SYS-6 FLR-4 SCH-J HPLCMT-CORE ZN\".\n   **   ~~~   ** Item length=[107] > Maximum Length=[100]. You may need to shorten the names.\n   **   ~~~   ** Shortening the Object Name by [8] characters will assure uniqueness for this ZoneList.\n   **   ~~~   ** name that will be used (may be needed in reporting)=\"SP-LOCKER ROOM-SCH-J-SPACE FUNCTION SYS-6 FLR-4 SCH-J HPLCMT-CORE ZN SPACE FUNCTION LOCKER ROOM-SCH-J PEOPLE\".\n   ** Warning ** GetInternalHeatGains: People Combination of ZoneList and Object Name generate a name too long.\n   **   ~~~   ** Object Name=\"SPACE FUNCTION LOCKER ROOM-SCH-K PEOPLE\".\n   **   ~~~   ** ZoneList/Zone Name=\"SP-LOCKER ROOM-SCH-K-SPACE FUNCTION SYS-6 FLR-4 SCH-K HPLCMT-SOUTH ZN\".\n   **   ~~~   ** Item length=[108] > Maximum Length=[100]. You may need to shorten the names.\n   **   ~~~   ** Shortening the Object Name by [9] characters will assure uniqueness for this ZoneList.\n   **   ~~~   ** name that will be used (may be needed in reporting)=\"SP-LOCKER ROOM-SCH-K-SPACE FUNCTION SYS-6 FLR-4 SCH-K HPLCMT-SOUTH ZN SPACE FUNCTION LOCKER ROOM-SCH-K PEOPLE\".\n   ** Warning ** GetInternalHeatGains: People Combination of ZoneList and Object Name generate a name too long.\n   **   ~~~   ** Object Name=\"SPACE FUNCTION LOUNGE/BREAK ROOM - HEALTH CARE FACILITY PEOPLE\".\n   **   ~~~   ** ZoneList/Zone Name=\"SP-LOUNGE/BREAK ROOM - HEALTH CARE FACILITY-SPACE FUNCTION SYS-3 FLR-4 SCH-B HPLCMT-EAST ZN\".\n   **   ~~~   ** Item length=[153] > Maximum Length=[100]. You may need to shorten the names.\n   **   ~~~   ** Shortening the Object Name by [54] characters will assure uniqueness for this ZoneList.\n   **   ~~~   ** name that will be used (may be needed in reporting)=\"SP-LOUNGE/BREAK ROOM - HEALTH CARE FACILITY-SPACE FUNCTION SYS-3 FLR-4 SCH-B HPLCMT-EAST ZN SPACE FUNCTION LOUNGE/BREAK ROOM - HEALTH CARE FACILITY PEOPLE\".\n   ** Warning ** GetInternalHeatGains: People Combination of ZoneList and Object Name generate a name too long.\n   **   ~~~   ** Object Name=\"SPACE FUNCTION LOUNGE/BREAK ROOM - OTHER PEOPLE\".\n   **   ~~~   ** ZoneList/Zone Name=\"SP-LOUNGE/BREAK ROOM - OTHER-SPACE FUNCTION SYS-3 FLR-3 SCH-B HPLCMT-SOUTH ZN\".\n   **   ~~~   ** Item length=[124] > Maximum Length=[100]. You may need to shorten the names.\n   **   ~~~   ** Shortening the Object Name by [25] characters will assure uniqueness for this ZoneList.\n   **   ~~~   ** name that will be used (may be needed in reporting)=\"SP-LOUNGE/BREAK ROOM - OTHER-SPACE FUNCTION SYS-3 FLR-3 SCH-B HPLCMT-SOUTH ZN SPACE FUNCTION LOUNGE/BREAK ROOM - OTHER PEOPLE\".\n   ** Warning ** GetInternalHeatGains: People Combination of ZoneList and Object Name generate a name too long.\n   **   ~~~   ** Object Name=\"SPACE FUNCTION OFFICE ENCLOSED <= 25 M2 PEOPLE\".\n   **   ~~~   ** ZoneList/Zone Name=\"SP-OFFICE ENCLOSED <= 25 M2-SPACE FUNCTION SYS-6 FLR-3 SCH-A HPLCMT-EAST ZN\".\n   **   ~~~   ** Item length=[121] > Maximum Length=[100]. You may need to shorten the names.\n   **   ~~~   ** Shortening the Object Name by [22] characters will assure uniqueness for this ZoneList.\n   **   ~~~   ** name that will be used (may be needed in reporting)=\"SP-OFFICE ENCLOSED <= 25 M2-SPACE FUNCTION SYS-6 FLR-3 SCH-A HPLCMT-EAST ZN SPACE FUNCTION OFFICE ENCLOSED <= 25 M2 PEOPLE\".\n   ** Warning ** GetInternalHeatGains: People Combination of ZoneList and Object Name generate a name too long.\n   **   ~~~   ** Object Name=\"SPACE FUNCTION OFFICE ENCLOSED > 25 M2 PEOPLE\".\n   **   ~~~   ** ZoneList/Zone Name=\"SP-OFFICE ENCLOSED > 25 M2-SPACE FUNCTION SYS-6 FLR-3 SCH-A HPLCMT-WEST ZN\".\n   **   ~~~   ** Item length=[119] > Maximum Length=[100]. You may need to shorten the names.\n   **   ~~~   ** Shortening the Object Name by [20] characters will assure uniqueness for this ZoneList.\n   **   ~~~   ** name that will be used (may be needed in reporting)=\"SP-OFFICE ENCLOSED > 25 M2-SPACE FUNCTION SYS-6 FLR-3 SCH-A HPLCMT-WEST ZN SPACE FUNCTION OFFICE ENCLOSED > 25 M2 PEOPLE\".\n   ** Warning ** GetInternalHeatGains: People Combination of ZoneList and Object Name generate a name too long.\n   **   ~~~   ** Object Name=\"SPACE FUNCTION OFFICE OPEN PLAN PEOPLE\".\n   **   ~~~   ** ZoneList/Zone Name=\"SP-OFFICE OPEN PLAN-SPACE FUNCTION SYS-6 FLR-1 SCH-A HPLCMT-WEST ZN\".\n   **   ~~~   ** Item length=[105] > Maximum Length=[100]. You may need to shorten the names.\n   **   ~~~   ** Shortening the Object Name by [6] characters will assure uniqueness for this ZoneList.\n   **   ~~~   ** name that will be used (may be needed in reporting)=\"SP-OFFICE OPEN PLAN-SPACE FUNCTION SYS-6 FLR-1 SCH-A HPLCMT-WEST ZN SPACE FUNCTION OFFICE OPEN PLAN PEOPLE\".\n   ** Warning ** GetInternalHeatGains: People Combination of ZoneList and Object Name generate a name too long.\n   **   ~~~   ** Object Name=\"SPACE FUNCTION SEATING AREA GENERAL-SCH-A PEOPLE\".\n   **   ~~~   ** ZoneList/Zone Name=\"SP-SEATING AREA GENERAL-SCH-A-SPACE FUNCTION SYS-3 FLR-4 SCH-A HPLCMT-WEST ZN\".\n   **   ~~~   ** Item length=[125] > Maximum Length=[100]. You may need to shorten the names.\n   **   ~~~   ** Shortening the Object Name by [26] characters will assure uniqueness for this ZoneList.\n   **   ~~~   ** name that will be used (may be needed in reporting)=\"SP-SEATING AREA GENERAL-SCH-A-SPACE FUNCTION SYS-3 FLR-4 SCH-A HPLCMT-WEST ZN SPACE FUNCTION SEATING AREA GENERAL-SCH-A PEOPLE\".\n   ** Warning ** GetInternalHeatGains: People Combination of ZoneList and Object Name generate a name too long.\n   **   ~~~   ** Object Name=\"SPACE FUNCTION SEATING AREA GENERAL-SCH-B PEOPLE\".\n   **   ~~~   ** ZoneList/Zone Name=\"SP-SEATING AREA GENERAL-SCH-B-SPACE FUNCTION SYS-3 FLR-1 SCH-B HPLCMT-SOUTH ZN\".\n   **   ~~~   ** Item length=[126] > Maximum Length=[100]. You may need to shorten the names.\n   **   ~~~   ** Shortening the Object Name by [27] characters will assure uniqueness for this ZoneList.\n   **   ~~~   ** name that will be used (may be needed in reporting)=\"SP-SEATING AREA GENERAL-SCH-B-SPACE FUNCTION SYS-3 FLR-1 SCH-B HPLCMT-SOUTH ZN SPACE FUNCTION SEATING AREA GENERAL-SCH-B PEOPLE\".\n   ** Warning ** GetInternalHeatGains: People Combination of ZoneList and Object Name generate a name too long.\n   **   ~~~   ** Object Name=\"SPACE FUNCTION SEATING AREA GENERAL-SCH-C PEOPLE\".\n   **   ~~~   ** ZoneList/Zone Name=\"SP-SEATING AREA GENERAL-SCH-C-SPACE FUNCTION SYS-3 FLR-1 SCH-C HPLCMT-EAST ZN\".\n   **   ~~~   ** Item length=[125] > Maximum Length=[100]. You may need to shorten the names.\n   **   ~~~   ** Shortening the Object Name by [26] characters will assure uniqueness for this ZoneList.\n   **   ~~~   ** name that will be used (may be needed in reporting)=\"SP-SEATING AREA GENERAL-SCH-C-SPACE FUNCTION SYS-3 FLR-1 SCH-C HPLCMT-EAST ZN SPACE FUNCTION SEATING AREA GENERAL-SCH-C PEOPLE\".\n   ** Warning ** GetInternalHeatGains: People Combination of ZoneList and Object Name generate a name too long.\n   **   ~~~   ** Object Name=\"SPACE FUNCTION SEATING AREA GENERAL-SCH-D PEOPLE\".\n   **   ~~~   ** ZoneList/Zone Name=\"SP-SEATING AREA GENERAL-SCH-D-SPACE FUNCTION SYS-3 FLR-3 SCH-D HPLCMT-NORTH ZN\".\n   **   ~~~   ** Item length=[126] > Maximum Length=[100]. You may need to shorten the names.\n   **   ~~~   ** Shortening the Object Name by [27] characters will assure uniqueness for this ZoneList.\n   **   ~~~   ** name that will be used (may be needed in reporting)=\"SP-SEATING AREA GENERAL-SCH-D-SPACE FUNCTION SYS-3 FLR-3 SCH-D HPLCMT-NORTH ZN SPACE FUNCTION SEATING AREA GENERAL-SCH-D PEOPLE\".\n   ** Warning ** GetInternalHeatGains: People Combination of ZoneList and Object Name generate a name too long.\n   **   ~~~   ** Object Name=\"SPACE FUNCTION SEATING AREA GENERAL-SCH-E PEOPLE\".\n   **   ~~~   ** ZoneList/Zone Name=\"SP-SEATING AREA GENERAL-SCH-E-SPACE FUNCTION SYS-3 FLR-2 SCH-E HPLCMT-SOUTH ZN\".\n   **   ~~~   ** Item length=[126] > Maximum Length=[100]. You may need to shorten the names.\n   **   ~~~   ** Shortening the Object Name by [27] characters will assure uniqueness for this ZoneList.\n   **   ~~~   ** name that will be used (may be needed in reporting)=\"SP-SEATING AREA GENERAL-SCH-E-SPACE FUNCTION SYS-3 FLR-2 SCH-E HPLCMT-SOUTH ZN SPACE FUNCTION SEATING AREA GENERAL-SCH-E PEOPLE\".\n   ** Warning ** GetInternalHeatGains: People Combination of ZoneList and Object Name generate a name too long.\n   **   ~~~   ** Object Name=\"SPACE FUNCTION SEATING AREA GENERAL-SCH-F PEOPLE\".\n   **   ~~~   ** ZoneList/Zone Name=\"SP-SEATING AREA GENERAL-SCH-F-SPACE FUNCTION SYS-3 FLR-2 SCH-F HPLCMT-WEST ZN\".\n   **   ~~~   ** Item length=[125] > Maximum Length=[100]. You may need to shorten the names.\n   **   ~~~   ** Shortening the Object Name by [26] characters will assure uniqueness for this ZoneList.\n   **   ~~~   ** name that will be used (may be needed in reporting)=\"SP-SEATING AREA GENERAL-SCH-F-SPACE FUNCTION SYS-3 FLR-2 SCH-F HPLCMT-WEST ZN SPACE FUNCTION SEATING AREA GENERAL-SCH-F PEOPLE\".\n   ** Warning ** GetInternalHeatGains: People Combination of ZoneList and Object Name generate a name too long.\n   **   ~~~   ** Object Name=\"SPACE FUNCTION SEATING AREA GENERAL-SCH-G PEOPLE\".\n   **   ~~~   ** ZoneList/Zone Name=\"SP-SEATING AREA GENERAL-SCH-G-SPACE FUNCTION SYS-3 FLR-2 SCH-G HPLCMT-EAST ZN\".\n   **   ~~~   ** Item length=[125] > Maximum Length=[100]. You may need to shorten the names.\n   **   ~~~   ** Shortening the Object Name by [26] characters will assure uniqueness for this ZoneList.\n   **   ~~~   ** name that will be used (may be needed in reporting)=\"SP-SEATING AREA GENERAL-SCH-G-SPACE FUNCTION SYS-3 FLR-2 SCH-G HPLCMT-EAST ZN SPACE FUNCTION SEATING AREA GENERAL-SCH-G PEOPLE\".\n   ** Warning ** GetInternalHeatGains: People Combination of ZoneList and Object Name generate a name too long.\n   **   ~~~   ** Object Name=\"SPACE FUNCTION SEATING AREA GENERAL-SCH-H PEOPLE\".\n   **   ~~~   ** ZoneList/Zone Name=\"SP-SEATING AREA GENERAL-SCH-H-SPACE FUNCTION SYS-3 FLR-3 SCH-H HPLCMT-CORE ZN\".\n   **   ~~~   ** Item length=[125] > Maximum Length=[100]. You may need to shorten the names.\n   **   ~~~   ** Shortening the Object Name by [26] characters will assure uniqueness for this ZoneList.\n   **   ~~~   ** name that will be used (may be needed in reporting)=\"SP-SEATING AREA GENERAL-SCH-H-SPACE FUNCTION SYS-3 FLR-3 SCH-H HPLCMT-CORE ZN SPACE FUNCTION SEATING AREA GENERAL-SCH-H PEOPLE\".\n   ** Warning ** GetInternalHeatGains: People Combination of ZoneList and Object Name generate a name too long.\n   **   ~~~   ** Object Name=\"SPACE FUNCTION SEATING AREA GENERAL-SCH-I PEOPLE\".\n   **   ~~~   ** ZoneList/Zone Name=\"SP-SEATING AREA GENERAL-SCH-I-SPACE FUNCTION SYS-3 FLR-2 SCH-I HPLCMT-NORTH ZN\".\n   **   ~~~   ** Item length=[126] > Maximum Length=[100]. You may need to shorten the names.\n   **   ~~~   ** Shortening the Object Name by [27] characters will assure uniqueness for this ZoneList.\n   **   ~~~   ** name that will be used (may be needed in reporting)=\"SP-SEATING AREA GENERAL-SCH-I-SPACE FUNCTION SYS-3 FLR-2 SCH-I HPLCMT-NORTH ZN SPACE FUNCTION SEATING AREA GENERAL-SCH-I PEOPLE\".\n   ** Warning ** GetInternalHeatGains: People Combination of ZoneList and Object Name generate a name too long.\n   **   ~~~   ** Object Name=\"SPACE FUNCTION SEATING AREA GENERAL-SCH-J PEOPLE\".\n   **   ~~~   ** ZoneList/Zone Name=\"SP-SEATING AREA GENERAL-SCH-J-SPACE FUNCTION SYS-3 FLR-1 SCH-J HPLCMT-CORE ZN\".\n   **   ~~~   ** Item length=[125] > Maximum Length=[100]. You may need to shorten the names.\n   **   ~~~   ** Shortening the Object Name by [26] characters will assure uniqueness for this ZoneList.\n   **   ~~~   ** name that will be used (may be needed in reporting)=\"SP-SEATING AREA GENERAL-SCH-J-SPACE FUNCTION SYS-3 FLR-1 SCH-J HPLCMT-CORE ZN SPACE FUNCTION SEATING AREA GENERAL-SCH-J PEOPLE\".\n   ** Warning ** GetInternalHeatGains: People Combination of ZoneList and Object Name generate a name too long.\n   **   ~~~   ** Object Name=\"SPACE FUNCTION SEATING AREA GENERAL-SCH-K PEOPLE\".\n   **   ~~~   ** ZoneList/Zone Name=\"SP-SEATING AREA GENERAL-SCH-K-SPACE FUNCTION SYS-3 FLR-2 SCH-K HPLCMT-CORE ZN\".\n   **   ~~~   ** Item length=[125] > Maximum Length=[100]. You may need to shorten the names.\n   **   ~~~   ** Shortening the Object Name by [26] characters will assure uniqueness for this ZoneList.\n   **   ~~~   ** name that will be used (may be needed in reporting)=\"SP-SEATING AREA GENERAL-SCH-K-SPACE FUNCTION SYS-3 FLR-2 SCH-K HPLCMT-CORE ZN SPACE FUNCTION SEATING AREA GENERAL-SCH-K PEOPLE\".\n   ** Warning ** GetInternalHeatGains: Lights Combination of ZoneList and Object Name generate a name too long.\n   **   ~~~   ** Object Name=\"SPACE FUNCTION LOCKER ROOM-SCH-J LIGHTS\".\n   **   ~~~   ** ZoneList/Zone Name=\"SP-LOCKER ROOM-SCH-J-SPACE FUNCTION SYS-6 FLR-4 SCH-J HPLCMT-CORE ZN\".\n   **   ~~~   ** Item length=[107] > Maximum Length=[100]. You may need to shorten the names.\n   **   ~~~   ** Shortening the Object Name by [8] characters will assure uniqueness for this ZoneList.\n   **   ~~~   ** name that will be used (may be needed in reporting)=\"SP-LOCKER ROOM-SCH-J-SPACE FUNCTION SYS-6 FLR-4 SCH-J HPLCMT-CORE ZN SPACE FUNCTION LOCKER ROOM-SCH-J LIGHTS\".\n   ** Warning ** GetInternalHeatGains: Lights Combination of ZoneList and Object Name generate a name too long.\n   **   ~~~   ** Object Name=\"SPACE FUNCTION LOCKER ROOM-SCH-K LIGHTS\".\n   **   ~~~   ** ZoneList/Zone Name=\"SP-LOCKER ROOM-SCH-K-SPACE FUNCTION SYS-6 FLR-4 SCH-K HPLCMT-SOUTH ZN\".\n   **   ~~~   ** Item length=[108] > Maximum Length=[100]. You may need to shorten the names.\n   **   ~~~   ** Shortening the Object Name by [9] characters will assure uniqueness for this ZoneList.\n   **   ~~~   ** name that will be used (may be needed in reporting)=\"SP-LOCKER ROOM-SCH-K-SPACE FUNCTION SYS-6 FLR-4 SCH-K HPLCMT-SOUTH ZN SPACE FUNCTION LOCKER ROOM-SCH-K LIGHTS\".\n   ** Warning ** GetInternalHeatGains: Lights Combination of ZoneList and Object Name generate a name too long.\n   **   ~~~   ** Object Name=\"SPACE FUNCTION LOUNGE/BREAK ROOM - HEALTH CARE FACILITY LIGHTS\".\n   **   ~~~   ** ZoneList/Zone Name=\"SP-LOUNGE/BREAK ROOM - HEALTH CARE FACILITY-SPACE FUNCTION SYS-3 FLR-4 SCH-B HPLCMT-EAST ZN\".\n   **   ~~~   ** Item length=[153] > Maximum Length=[100]. You may need to shorten the names.\n   **   ~~~   ** Shortening the Object Name by [54] characters will assure uniqueness for this ZoneList.\n   **   ~~~   ** name that will be used (may be needed in reporting)=\"SP-LOUNGE/BREAK ROOM - HEALTH CARE FACILITY-SPACE FUNCTION SYS-3 FLR-4 SCH-B HPLCMT-EAST ZN SPACE FUNCTION LOUNGE/BREAK ROOM - HEALTH CARE FACILITY LIGHTS\".\n   ** Warning ** GetInternalHeatGains: Lights Combination of ZoneList and Object Name generate a name too long.\n   **   ~~~   ** Object Name=\"SPACE FUNCTION LOUNGE/BREAK ROOM - OTHER LIGHTS\".\n   **   ~~~   ** ZoneList/Zone Name=\"SP-LOUNGE/BREAK ROOM - OTHER-SPACE FUNCTION SYS-3 FLR-3 SCH-B HPLCMT-SOUTH ZN\".\n   **   ~~~   ** Item length=[124] > Maximum Length=[100]. You may need to shorten the names.\n   **   ~~~   ** Shortening the Object Name by [25] characters will assure uniqueness for this ZoneList.\n   **   ~~~   ** name that will be used (may be needed in reporting)=\"SP-LOUNGE/BREAK ROOM - OTHER-SPACE FUNCTION SYS-3 FLR-3 SCH-B HPLCMT-SOUTH ZN SPACE FUNCTION LOUNGE/BREAK ROOM - OTHER LIGHTS\".\n   ** Warning ** GetInternalHeatGains: Lights Combination of ZoneList and Object Name generate a name too long.\n   **   ~~~   ** Object Name=\"SPACE FUNCTION OFFICE ENCLOSED <= 25 M2 LIGHTS\".\n   **   ~~~   ** ZoneList/Zone Name=\"SP-OFFICE ENCLOSED <= 25 M2-SPACE FUNCTION SYS-6 FLR-3 SCH-A HPLCMT-EAST ZN\".\n   **   ~~~   ** Item length=[121] > Maximum Length=[100]. You may need to shorten the names.\n   **   ~~~   ** Shortening the Object Name by [22] characters will assure uniqueness for this ZoneList.\n   **   ~~~   ** name that will be used (may be needed in reporting)=\"SP-OFFICE ENCLOSED <= 25 M2-SPACE FUNCTION SYS-6 FLR-3 SCH-A HPLCMT-EAST ZN SPACE FUNCTION OFFICE ENCLOSED <= 25 M2 LIGHTS\".\n   ** Warning ** GetInternalHeatGains: Lights Combination of ZoneList and Object Name generate a name too long.\n   **   ~~~   ** Object Name=\"SPACE FUNCTION OFFICE ENCLOSED > 25 M2 LIGHTS\".\n   **   ~~~   ** ZoneList/Zone Name=\"SP-OFFICE ENCLOSED > 25 M2-SPACE FUNCTION SYS-6 FLR-3 SCH-A HPLCMT-WEST ZN\".\n   **   ~~~   ** Item length=[119] > Maximum Length=[100]. You may need to shorten the names.\n   **   ~~~   ** Shortening the Object Name by [20] characters will assure uniqueness for this ZoneList.\n   **   ~~~   ** name that will be used (may be needed in reporting)=\"SP-OFFICE ENCLOSED > 25 M2-SPACE FUNCTION SYS-6 FLR-3 SCH-A HPLCMT-WEST ZN SPACE FUNCTION OFFICE ENCLOSED > 25 M2 LIGHTS\".\n   ** Warning ** GetInternalHeatGains: Lights Combination of ZoneList and Object Name generate a name too long.\n   **   ~~~   ** Object Name=\"SPACE FUNCTION OFFICE OPEN PLAN LIGHTS\".\n   **   ~~~   ** ZoneList/Zone Name=\"SP-OFFICE OPEN PLAN-SPACE FUNCTION SYS-6 FLR-1 SCH-A HPLCMT-WEST ZN\".\n   **   ~~~   ** Item length=[105] > Maximum Length=[100]. You may need to shorten the names.\n   **   ~~~   ** Shortening the Object Name by [6] characters will assure uniqueness for this ZoneList.\n   **   ~~~   ** name that will be used (may be needed in reporting)=\"SP-OFFICE OPEN PLAN-SPACE FUNCTION SYS-6 FLR-1 SCH-A HPLCMT-WEST ZN SPACE FUNCTION OFFICE OPEN PLAN LIGHTS\".\n   ** Warning ** GetInternalHeatGains: Lights Combination of ZoneList and Object Name generate a name too long.\n   **   ~~~   ** Object Name=\"SPACE FUNCTION SEATING AREA GENERAL-SCH-A LIGHTS\".\n   **   ~~~   ** ZoneList/Zone Name=\"SP-SEATING AREA GENERAL-SCH-A-SPACE FUNCTION SYS-3 FLR-4 SCH-A HPLCMT-WEST ZN\".\n   **   ~~~   ** Item length=[125] > Maximum Length=[100]. You may need to shorten the names.\n   **   ~~~   ** Shortening the Object Name by [26] characters will assure uniqueness for this ZoneList.\n   **   ~~~   ** name that will be used (may be needed in reporting)=\"SP-SEATING AREA GENERAL-SCH-A-SPACE FUNCTION SYS-3 FLR-4 SCH-A HPLCMT-WEST ZN SPACE FUNCTION SEATING AREA GENERAL-SCH-A LIGHTS\".\n   ** Warning ** GetInternalHeatGains: Lights Combination of ZoneList and Object Name generate a name too long.\n   **   ~~~   ** Object Name=\"SPACE FUNCTION SEATING AREA GENERAL-SCH-B LIGHTS\".\n   **   ~~~   ** ZoneList/Zone Name=\"SP-SEATING AREA GENERAL-SCH-B-SPACE FUNCTION SYS-3 FLR-1 SCH-B HPLCMT-SOUTH ZN\".\n   **   ~~~   ** Item length=[126] > Maximum Length=[100]. You may need to shorten the names.\n   **   ~~~   ** Shortening the Object Name by [27] characters will assure uniqueness for this ZoneList.\n   **   ~~~   ** name that will be used (may be needed in reporting)=\"SP-SEATING AREA GENERAL-SCH-B-SPACE FUNCTION SYS-3 FLR-1 SCH-B HPLCMT-SOUTH ZN SPACE FUNCTION SEATING AREA GENERAL-SCH-B LIGHTS\".\n   ** Warning ** GetInternalHeatGains: Lights Combination of ZoneList and Object Name generate a name too long.\n   **   ~~~   ** Object Name=\"SPACE FUNCTION SEATING AREA GENERAL-SCH-C LIGHTS\".\n   **   ~~~   ** ZoneList/Zone Name=\"SP-SEATING AREA GENERAL-SCH-C-SPACE FUNCTION SYS-3 FLR-1 SCH-C HPLCMT-EAST ZN\".\n   **   ~~~   ** Item length=[125] > Maximum Length=[100]. You may need to shorten the names.\n   **   ~~~   ** Shortening the Object Name by [26] characters will assure uniqueness for this ZoneList.\n   **   ~~~   ** name that will be used (may be needed in reporting)=\"SP-SEATING AREA GENERAL-SCH-C-SPACE FUNCTION SYS-3 FLR-1 SCH-C HPLCMT-EAST ZN SPACE FUNCTION SEATING AREA GENERAL-SCH-C LIGHTS\".\n   ** Warning ** GetInternalHeatGains: Lights Combination of ZoneList and Object Name generate a name too long.\n   **   ~~~   ** Object Name=\"SPACE FUNCTION SEATING AREA GENERAL-SCH-D LIGHTS\".\n   **   ~~~   ** ZoneList/Zone Name=\"SP-SEATING AREA GENERAL-SCH-D-SPACE FUNCTION SYS-3 FLR-3 SCH-D HPLCMT-NORTH ZN\".\n   **   ~~~   ** Item length=[126] > Maximum Length=[100]. You may need to shorten the names.\n   **   ~~~   ** Shortening the Object Name by [27] characters will assure uniqueness for this ZoneList.\n   **   ~~~   ** name that will be used (may be needed in reporting)=\"SP-SEATING AREA GENERAL-SCH-D-SPACE FUNCTION SYS-3 FLR-3 SCH-D HPLCMT-NORTH ZN SPACE FUNCTION SEATING AREA GENERAL-SCH-D LIGHTS\".\n   ** Warning ** GetInternalHeatGains: Lights Combination of ZoneList and Object Name generate a name too long.\n   **   ~~~   ** Object Name=\"SPACE FUNCTION SEATING AREA GENERAL-SCH-E LIGHTS\".\n   **   ~~~   ** ZoneList/Zone Name=\"SP-SEATING AREA GENERAL-SCH-E-SPACE FUNCTION SYS-3 FLR-2 SCH-E HPLCMT-SOUTH ZN\".\n   **   ~~~   ** Item length=[126] > Maximum Length=[100]. You may need to shorten the names.\n   **   ~~~   ** Shortening the Object Name by [27] characters will assure uniqueness for this ZoneList.\n   **   ~~~   ** name that will be used (may be needed in reporting)=\"SP-SEATING AREA GENERAL-SCH-E-SPACE FUNCTION SYS-3 FLR-2 SCH-E HPLCMT-SOUTH ZN SPACE FUNCTION SEATING AREA GENERAL-SCH-E LIGHTS\".\n   ** Warning ** GetInternalHeatGains: Lights Combination of ZoneList and Object Name generate a name too long.\n   **   ~~~   ** Object Name=\"SPACE FUNCTION SEATING AREA GENERAL-SCH-F LIGHTS\".\n   **   ~~~   ** ZoneList/Zone Name=\"SP-SEATING AREA GENERAL-SCH-F-SPACE FUNCTION SYS-3 FLR-2 SCH-F HPLCMT-WEST ZN\".\n   **   ~~~   ** Item length=[125] > Maximum Length=[100]. You may need to shorten the names.\n   **   ~~~   ** Shortening the Object Name by [26] characters will assure uniqueness for this ZoneList.\n   **   ~~~   ** name that will be used (may be needed in reporting)=\"SP-SEATING AREA GENERAL-SCH-F-SPACE FUNCTION SYS-3 FLR-2 SCH-F HPLCMT-WEST ZN SPACE FUNCTION SEATING AREA GENERAL-SCH-F LIGHTS\".\n   ** Warning ** GetInternalHeatGains: Lights Combination of ZoneList and Object Name generate a name too long.\n   **   ~~~   ** Object Name=\"SPACE FUNCTION SEATING AREA GENERAL-SCH-G LIGHTS\".\n   **   ~~~   ** ZoneList/Zone Name=\"SP-SEATING AREA GENERAL-SCH-G-SPACE FUNCTION SYS-3 FLR-2 SCH-G HPLCMT-EAST ZN\".\n   **   ~~~   ** Item length=[125] > Maximum Length=[100]. You may need to shorten the names.\n   **   ~~~   ** Shortening the Object Name by [26] characters will assure uniqueness for this ZoneList.\n   **   ~~~   ** name that will be used (may be needed in reporting)=\"SP-SEATING AREA GENERAL-SCH-G-SPACE FUNCTION SYS-3 FLR-2 SCH-G HPLCMT-EAST ZN SPACE FUNCTION SEATING AREA GENERAL-SCH-G LIGHTS\".\n   ** Warning ** GetInternalHeatGains: Lights Combination of ZoneList and Object Name generate a name too long.\n   **   ~~~   ** Object Name=\"SPACE FUNCTION SEATING AREA GENERAL-SCH-H LIGHTS\".\n   **   ~~~   ** ZoneList/Zone Name=\"SP-SEATING AREA GENERAL-SCH-H-SPACE FUNCTION SYS-3 FLR-3 SCH-H HPLCMT-CORE ZN\".\n   **   ~~~   ** Item length=[125] > Maximum Length=[100]. You may need to shorten the names.\n   **   ~~~   ** Shortening the Object Name by [26] characters will assure uniqueness for this ZoneList.\n   **   ~~~   ** name that will be used (may be needed in reporting)=\"SP-SEATING AREA GENERAL-SCH-H-SPACE FUNCTION SYS-3 FLR-3 SCH-H HPLCMT-CORE ZN SPACE FUNCTION SEATING AREA GENERAL-SCH-H LIGHTS\".\n   ** Warning ** GetInternalHeatGains: Lights Combination of ZoneList and Object Name generate a name too long.\n   **   ~~~   ** Object Name=\"SPACE FUNCTION SEATING AREA GENERAL-SCH-I LIGHTS\".\n   **   ~~~   ** ZoneList/Zone Name=\"SP-SEATING AREA GENERAL-SCH-I-SPACE FUNCTION SYS-3 FLR-2 SCH-I HPLCMT-NORTH ZN\".\n   **   ~~~   ** Item length=[126] > Maximum Length=[100]. You may need to shorten the names.\n   **   ~~~   ** Shortening the Object Name by [27] characters will assure uniqueness for this ZoneList.\n   **   ~~~   ** name that will be used (may be needed in reporting)=\"SP-SEATING AREA GENERAL-SCH-I-SPACE FUNCTION SYS-3 FLR-2 SCH-I HPLCMT-NORTH ZN SPACE FUNCTION SEATING AREA GENERAL-SCH-I LIGHTS\".\n   ** Warning ** GetInternalHeatGains: Lights Combination of ZoneList and Object Name generate a name too long.\n   **   ~~~   ** Object Name=\"SPACE FUNCTION SEATING AREA GENERAL-SCH-J LIGHTS\".\n   **   ~~~   ** ZoneList/Zone Name=\"SP-SEATING AREA GENERAL-SCH-J-SPACE FUNCTION SYS-3 FLR-1 SCH-J HPLCMT-CORE ZN\".\n   **   ~~~   ** Item length=[125] > Maximum Length=[100]. You may need to shorten the names.\n   **   ~~~   ** Shortening the Object Name by [26] characters will assure uniqueness for this ZoneList.\n   **   ~~~   ** name that will be used (may be needed in reporting)=\"SP-SEATING AREA GENERAL-SCH-J-SPACE FUNCTION SYS-3 FLR-1 SCH-J HPLCMT-CORE ZN SPACE FUNCTION SEATING AREA GENERAL-SCH-J LIGHTS\".\n   ** Warning ** GetInternalHeatGains: Lights Combination of ZoneList and Object Name generate a name too long.\n   **   ~~~   ** Object Name=\"SPACE FUNCTION SEATING AREA GENERAL-SCH-K LIGHTS\".\n   **   ~~~   ** ZoneList/Zone Name=\"SP-SEATING AREA GENERAL-SCH-K-SPACE FUNCTION SYS-3 FLR-2 SCH-K HPLCMT-CORE ZN\".\n   **   ~~~   ** Item length=[125] > Maximum Length=[100]. You may need to shorten the names.\n   **   ~~~   ** Shortening the Object Name by [26] characters will assure uniqueness for this ZoneList.\n   **   ~~~   ** name that will be used (may be needed in reporting)=\"SP-SEATING AREA GENERAL-SCH-K-SPACE FUNCTION SYS-3 FLR-2 SCH-K HPLCMT-CORE ZN SPACE FUNCTION SEATING AREA GENERAL-SCH-K LIGHTS\".\n   ** Warning ** GetInternalHeatGains: ElectricEquipment Combination of ZoneList and Object Name generate a name too long.\n   **   ~~~   ** Object Name=\"SPACE FUNCTION LOCKER ROOM-SCH-J ELEC EQUIP\".\n   **   ~~~   ** ZoneList/Zone Name=\"SP-LOCKER ROOM-SCH-J-SPACE FUNCTION SYS-6 FLR-4 SCH-J HPLCMT-CORE ZN\".\n   **   ~~~   ** Item length=[111] > Maximum Length=[100]. You may need to shorten the names.\n   **   ~~~   ** Shortening the Object Name by [12] characters will assure uniqueness for this ZoneList.\n   **   ~~~   ** name that will be used (may be needed in reporting)=\"SP-LOCKER ROOM-SCH-J-SPACE FUNCTION SYS-6 FLR-4 SCH-J HPLCMT-CORE ZN SPACE FUNCTION LOCKER ROOM-SCH-J ELEC EQUIP\".\n   ** Warning ** GetInternalHeatGains: ElectricEquipment Combination of ZoneList and Object Name generate a name too long.\n   **   ~~~   ** Object Name=\"SPACE FUNCTION LOCKER ROOM-SCH-K ELEC EQUIP\".\n   **   ~~~   ** ZoneList/Zone Name=\"SP-LOCKER ROOM-SCH-K-SPACE FUNCTION SYS-6 FLR-4 SCH-K HPLCMT-SOUTH ZN\".\n   **   ~~~   ** Item length=[112] > Maximum Length=[100]. You may need to shorten the names.\n   **   ~~~   ** Shortening the Object Name by [13] characters will assure uniqueness for this ZoneList.\n   **   ~~~   ** name that will be used (may be needed in reporting)=\"SP-LOCKER ROOM-SCH-K-SPACE FUNCTION SYS-6 FLR-4 SCH-K HPLCMT-SOUTH ZN SPACE FUNCTION LOCKER ROOM-SCH-K ELEC EQUIP\".\n   ** Warning ** GetInternalHeatGains: ElectricEquipment Combination of ZoneList and Object Name generate a name too long.\n   **   ~~~   ** Object Name=\"SPACE FUNCTION LOUNGE/BREAK ROOM - HEALTH CARE FACILITY ELEC EQUIP\".\n   **   ~~~   ** ZoneList/Zone Name=\"SP-LOUNGE/BREAK ROOM - HEALTH CARE FACILITY-SPACE FUNCTION SYS-3 FLR-4 SCH-B HPLCMT-EAST ZN\".\n   **   ~~~   ** Item length=[157] > Maximum Length=[100]. You may need to shorten the names.\n   **   ~~~   ** Shortening the Object Name by [58] characters will assure uniqueness for this ZoneList.\n   **   ~~~   ** name that will be used (may be needed in reporting)=\"SP-LOUNGE/BREAK ROOM - HEALTH CARE FACILITY-SPACE FUNCTION SYS-3 FLR-4 SCH-B HPLCMT-EAST ZN SPACE FUNCTION LOUNGE/BREAK ROOM - HEALTH CARE FACILITY ELEC EQUIP\".\n   ** Warning ** GetInternalHeatGains: ElectricEquipment Combination of ZoneList and Object Name generate a name too long.\n   **   ~~~   ** Object Name=\"SPACE FUNCTION LOUNGE/BREAK ROOM - OTHER ELEC EQUIP\".\n   **   ~~~   ** ZoneList/Zone Name=\"SP-LOUNGE/BREAK ROOM - OTHER-SPACE FUNCTION SYS-3 FLR-3 SCH-B HPLCMT-SOUTH ZN\".\n   **   ~~~   ** Item length=[128] > Maximum Length=[100]. You may need to shorten the names.\n   **   ~~~   ** Shortening the Object Name by [29] characters will assure uniqueness for this ZoneList.\n   **   ~~~   ** name that will be used (may be needed in reporting)=\"SP-LOUNGE/BREAK ROOM - OTHER-SPACE FUNCTION SYS-3 FLR-3 SCH-B HPLCMT-SOUTH ZN SPACE FUNCTION LOUNGE/BREAK ROOM - OTHER ELEC EQUIP\".\n   ** Warning ** GetInternalHeatGains: ElectricEquipment Combination of ZoneList and Object Name generate a name too long.\n   **   ~~~   ** Object Name=\"SPACE FUNCTION OFFICE ENCLOSED <= 25 M2 ELEC EQUIP\".\n   **   ~~~   ** ZoneList/Zone Name=\"SP-OFFICE ENCLOSED <= 25 M2-SPACE FUNCTION SYS-6 FLR-3 SCH-A HPLCMT-EAST ZN\".\n   **   ~~~   ** Item length=[125] > Maximum Length=[100]. You may need to shorten the names.\n   **   ~~~   ** Shortening the Object Name by [26] characters will assure uniqueness for this ZoneList.\n   **   ~~~   ** name that will be used (may be needed in reporting)=\"SP-OFFICE ENCLOSED <= 25 M2-SPACE FUNCTION SYS-6 FLR-3 SCH-A HPLCMT-EAST ZN SPACE FUNCTION OFFICE ENCLOSED <= 25 M2 ELEC EQUIP\".\n   ** Warning ** GetInternalHeatGains: ElectricEquipment Combination of ZoneList and Object Name generate a name too long.\n   **   ~~~   ** Object Name=\"SPACE FUNCTION OFFICE ENCLOSED > 25 M2 ELEC EQUIP\".\n   **   ~~~   ** ZoneList/Zone Name=\"SP-OFFICE ENCLOSED > 25 M2-SPACE FUNCTION SYS-6 FLR-3 SCH-A HPLCMT-WEST ZN\".\n   **   ~~~   ** Item length=[123] > Maximum Length=[100]. You may need to shorten the names.\n   **   ~~~   ** Shortening the Object Name by [24] characters will assure uniqueness for this ZoneList.\n   **   ~~~   ** name that will be used (may be needed in reporting)=\"SP-OFFICE ENCLOSED > 25 M2-SPACE FUNCTION SYS-6 FLR-3 SCH-A HPLCMT-WEST ZN SPACE FUNCTION OFFICE ENCLOSED > 25 M2 ELEC EQUIP\".\n   ** Warning ** GetInternalHeatGains: ElectricEquipment Combination of ZoneList and Object Name generate a name too long.\n   **   ~~~   ** Object Name=\"SPACE FUNCTION OFFICE OPEN PLAN ELEC EQUIP\".\n   **   ~~~   ** ZoneList/Zone Name=\"SP-OFFICE OPEN PLAN-SPACE FUNCTION SYS-6 FLR-1 SCH-A HPLCMT-WEST ZN\".\n   **   ~~~   ** Item length=[109] > Maximum Length=[100]. You may need to shorten the names.\n   **   ~~~   ** Shortening the Object Name by [10] characters will assure uniqueness for this ZoneList.\n   **   ~~~   ** name that will be used (may be needed in reporting)=\"SP-OFFICE OPEN PLAN-SPACE FUNCTION SYS-6 FLR-1 SCH-A HPLCMT-WEST ZN SPACE FUNCTION OFFICE OPEN PLAN ELEC EQUIP\".\n   ** Warning ** GetInternalHeatGains: ElectricEquipment Combination of ZoneList and Object Name generate a name too long.\n   **   ~~~   ** Object Name=\"SPACE FUNCTION PHARMACY AREA ELEC EQUIP\".\n   **   ~~~   ** ZoneList/Zone Name=\"SP-PHARMACY AREA-SPACE FUNCTION SYS-3 FLR-4 SCH-C HPLCMT-NORTH ZN\".\n   **   ~~~   ** Item length=[104] > Maximum Length=[100]. You may need to shorten the names.\n   **   ~~~   ** Shortening the Object Name by [5] characters will assure uniqueness for this ZoneList.\n   **   ~~~   ** name that will be used (may be needed in reporting)=\"SP-PHARMACY AREA-SPACE FUNCTION SYS-3 FLR-4 SCH-C HPLCMT-NORTH ZN SPACE FUNCTION PHARMACY AREA ELEC EQUIP\".\n   ** Warning ** Calculated design cooling load for zone=SP-LOCKER ROOM-SCH-K-SPACE FUNCTION SYS-6 FLR-4 SCH-K HPLCMT-SOUTH ZN is zero.\n   **   ~~~   ** Check Sizing:Zone and ZoneControl:Thermostat inputs.\n   ** Warning ** Calculated design heating load for zone=SP-LOCKER ROOM-SCH-K-SPACE FUNCTION SYS-6 FLR-4 SCH-K HPLCMT-SOUTH ZN is zero.\n   **   ~~~   ** Check Sizing:Zone and ZoneControl:Thermostat inputs.\n   ** Warning ** Calculated design heating load for zone=SP-OFFICE OPEN PLAN-SPACE FUNCTION SYS-6 FLR-1 SCH-A HPLCMT-WEST ZN is zero.\n   **   ~~~   ** Check Sizing:Zone and ZoneControl:Thermostat inputs.\n   ** Warning ** Calculated design heating load for zone=SP-SALES AREA-SPACE FUNCTION SYS-6 FLR-1 SCH-C HPLCMT-NORTH ZN is zero.\n   **   ~~~   ** Check Sizing:Zone and ZoneControl:Thermostat inputs.\n   ** Warning ** Calculated design heating load for zone=SP-SEATING AREA GENERAL-SCH-B-SPACE FUNCTION SYS-3 FLR-1 SCH-B HPLCMT-SOUTH ZN is zero.\n   **   ~~~   ** Check Sizing:Zone and ZoneControl:Thermostat inputs.\n   ** Warning ** Calculated design heating load for zone=SP-SEATING AREA GENERAL-SCH-C-SPACE FUNCTION SYS-3 FLR-1 SCH-C HPLCMT-EAST ZN is zero.\n   **   ~~~   ** Check Sizing:Zone and ZoneControl:Thermostat inputs.\n   ** Warning ** Calculated design heating load for zone=SP-SEATING AREA GENERAL-SCH-H-SPACE FUNCTION SYS-3 FLR-3 SCH-H HPLCMT-CORE ZN is zero.\n   **   ~~~   ** Check Sizing:Zone and ZoneControl:Thermostat inputs.\n   ** Warning ** Calculated design heating load for zone=SP-SEATING AREA GENERAL-SCH-J-SPACE FUNCTION SYS-3 FLR-1 SCH-J HPLCMT-CORE ZN is zero.\n   **   ~~~   ** Check Sizing:Zone and ZoneControl:Thermostat inputs.\n   ** Warning ** Calculated design cooling load for zone=SP-SEATING AREA GENERAL-SCH-K-SPACE FUNCTION SYS-3 FLR-2 SCH-K HPLCMT-CORE ZN is zero.\n   **   ~~~   ** Check Sizing:Zone and ZoneControl:Thermostat inputs.\n   ** Warning ** Calculated design heating load for zone=SP-SEATING AREA GENERAL-SCH-K-SPACE FUNCTION SYS-3 FLR-2 SCH-K HPLCMT-CORE ZN is zero.\n   **   ~~~   ** Check Sizing:Zone and ZoneControl:Thermostat inputs.\n   ************* Beginning System Sizing Calculations\n   ** Warning ** Since Zone Minimum Air Flow Input Method = CONSTANT, input for Fixed Minimum Air Flow Rate will be ignored.\n   **   ~~~   ** Occurs in AirTerminal:SingleDuct:VAV:Reheat = AIR TERMINAL SINGLE DUCT VAV REHEAT 5\n   ** Warning ** Since Damper Heating Action = NORMAL, input for Maximum Flow Fraction During Reheat will be ignored.\n   **   ~~~   ** Occurs in AirTerminal:SingleDuct:VAV:Reheat = AIR TERMINAL SINGLE DUCT VAV REHEAT 5\n   ** Warning ** Since Zone Minimum Air Flow Input Method = CONSTANT, input for Fixed Minimum Air Flow Rate will be ignored.\n   **   ~~~   ** Occurs in AirTerminal:SingleDuct:VAV:Reheat = AIR TERMINAL SINGLE DUCT VAV REHEAT 6\n   ** Warning ** Since Damper Heating Action = NORMAL, input for Maximum Flow Fraction During Reheat will be ignored.\n   **   ~~~   ** Occurs in AirTerminal:SingleDuct:VAV:Reheat = AIR TERMINAL SINGLE DUCT VAV REHEAT 6\n   ** Warning ** Since Zone Minimum Air Flow Input Method = CONSTANT, input for Fixed Minimum Air Flow Rate will be ignored.\n   **   ~~~   ** Occurs in AirTerminal:SingleDuct:VAV:Reheat = AIR TERMINAL SINGLE DUCT VAV REHEAT 3\n   ** Warning ** Since Damper Heating Action = NORMAL, input for Maximum Flow Fraction During Reheat will be ignored.\n   **   ~~~   ** Occurs in AirTerminal:SingleDuct:VAV:Reheat = AIR TERMINAL SINGLE DUCT VAV REHEAT 3\n   ** Warning ** Since Zone Minimum Air Flow Input Method = CONSTANT, input for Fixed Minimum Air Flow Rate will be ignored.\n   **   ~~~   ** Occurs in AirTerminal:SingleDuct:VAV:Reheat = AIR TERMINAL SINGLE DUCT VAV REHEAT 4\n   ** Warning ** Since Damper Heating Action = NORMAL, input for Maximum Flow Fraction During Reheat will be ignored.\n   **   ~~~   ** Occurs in AirTerminal:SingleDuct:VAV:Reheat = AIR TERMINAL SINGLE DUCT VAV REHEAT 4\n   ** Warning ** Since Zone Minimum Air Flow Input Method = CONSTANT, input for Fixed Minimum Air Flow Rate will be ignored.\n   **   ~~~   ** Occurs in AirTerminal:SingleDuct:VAV:Reheat = AIR TERMINAL SINGLE DUCT VAV REHEAT 1\n   ** Warning ** Since Damper Heating Action = NORMAL, input for Maximum Flow Fraction During Reheat will be ignored.\n   **   ~~~   ** Occurs in AirTerminal:SingleDuct:VAV:Reheat = AIR TERMINAL SINGLE DUCT VAV REHEAT 1\n   ** Warning ** Since Zone Minimum Air Flow Input Method = CONSTANT, input for Fixed Minimum Air Flow Rate will be ignored.\n   **   ~~~   ** Occurs in AirTerminal:SingleDuct:VAV:Reheat = AIR TERMINAL SINGLE DUCT VAV REHEAT 2\n   ** Warning ** Since Damper Heating Action = NORMAL, input for Maximum Flow Fraction During Reheat will be ignored.\n   **   ~~~   ** Occurs in AirTerminal:SingleDuct:VAV:Reheat = AIR TERMINAL SINGLE DUCT VAV REHEAT 2\n   ************* Beginning Plant Sizing Calculations\n   ** Warning ** GetDXCoils: Coil:Cooling:DX:SingleSpeed=\"COIL COOLING DX SINGLE SPEED 12 361KBTU/HR 8.21EER\", invalid\n   **   ~~~   ** ...Part Load Fraction Correlation Curve Name = DXCOOL-NECB2011-REF-COOLPLFFPLR has out of range value.\n   **   ~~~   ** ...Curve maximum must be <= 1.0, curve max at PLR = 0.99 is 1.015\n   **   ~~~   ** ...Setting curve maximum to 1.0 and simulation continues.\n   ** Warning ** The Standard Ratings is calculated for Coil:Cooling:DX:SingleSpeed = COIL COOLING DX SINGLE SPEED 12 361KBTU/HR 8.21EER but not at the AHRI test condition due to curve out of bound.\n   **   ~~~   **  Review the Standard Ratings calculations in the Engineering Reference for this coil type. Also, use Output:Diagnostics, DisplayExtraWarnings for further guidance.\n   ** Warning ** The Standard Ratings is calculated for Coil:Cooling:DX:SingleSpeed = COIL COOLING DX SINGLE SPEED 9 240KBTU/HR 8.21EER but not at the AHRI test condition due to curve out of bound.\n   **   ~~~   **  Review the Standard Ratings calculations in the Engineering Reference for this coil type. Also, use Output:Diagnostics, DisplayExtraWarnings for further guidance.\n   ** Warning ** The Standard Ratings is calculated for Coil:Cooling:DX:SingleSpeed = COIL COOLING DX SINGLE SPEED 14 353KBTU/HR 8.21EER but not at the AHRI test condition due to curve out of bound.\n   **   ~~~   **  Review the Standard Ratings calculations in the Engineering Reference for this coil type. Also, use Output:Diagnostics, DisplayExtraWarnings for further guidance.\n   ** Warning ** The Standard Ratings is calculated for Coil:Cooling:DX:SingleSpeed = COIL COOLING DX SINGLE SPEED 13 463KBTU/HR 8.21EER but not at the AHRI test condition due to curve out of bound.\n   **   ~~~   **  Review the Standard Ratings calculations in the Engineering Reference for this coil type. Also, use Output:Diagnostics, DisplayExtraWarnings for further guidance.\n   ** Warning ** The Standard Ratings is calculated for Coil:Cooling:DX:SingleSpeed = COIL COOLING DX SINGLE SPEED 2 429KBTU/HR 8.21EER but not at the AHRI test condition due to curve out of bound.\n   **   ~~~   **  Review the Standard Ratings calculations in the Engineering Reference for this coil type. Also, use Output:Diagnostics, DisplayExtraWarnings for further guidance.\n   ** Warning ** The Standard Ratings is calculated for Coil:Cooling:DX:SingleSpeed = COIL COOLING DX SINGLE SPEED 3 440KBTU/HR 8.21EER but not at the AHRI test condition due to curve out of bound.\n   **   ~~~   **  Review the Standard Ratings calculations in the Engineering Reference for this coil type. Also, use Output:Diagnostics, DisplayExtraWarnings for further guidance.\n   ** Warning ** The Standard Ratings is calculated for Coil:Cooling:DX:SingleSpeed = COIL COOLING DX SINGLE SPEED 10 468KBTU/HR 8.21EER but not at the AHRI test condition due to curve out of bound.\n   **   ~~~   **  Review the Standard Ratings calculations in the Engineering Reference for this coil type. Also, use Output:Diagnostics, DisplayExtraWarnings for further guidance.\n   ** Warning ** The Standard Ratings is calculated for Coil:Cooling:DX:SingleSpeed = COIL COOLING DX SINGLE SPEED 5 482KBTU/HR 8.21EER but not at the AHRI test condition due to curve out of bound.\n   **   ~~~   **  Review the Standard Ratings calculations in the Engineering Reference for this coil type. Also, use Output:Diagnostics, DisplayExtraWarnings for further guidance.\n   ** Warning ** The Standard Ratings is calculated for Coil:Cooling:DX:SingleSpeed = COIL COOLING DX SINGLE SPEED 6 429KBTU/HR 8.21EER but not at the AHRI test condition due to curve out of bound.\n   **   ~~~   **  Review the Standard Ratings calculations in the Engineering Reference for this coil type. Also, use Output:Diagnostics, DisplayExtraWarnings for further guidance.\n   ** Warning ** The Standard Ratings is calculated for Coil:Cooling:DX:SingleSpeed = COIL COOLING DX SINGLE SPEED 7 429KBTU/HR 8.21EER but not at the AHRI test condition due to curve out of bound.\n   **   ~~~   **  Review the Standard Ratings calculations in the Engineering Reference for this coil type. Also, use Output:Diagnostics, DisplayExtraWarnings for further guidance.\n   ** Warning ** The Standard Ratings is calculated for Coil:Cooling:DX:SingleSpeed = COIL COOLING DX SINGLE SPEED 11 572KBTU/HR 8.21EER but not at the AHRI test condition due to curve out of bound.\n   **   ~~~   **  Review the Standard Ratings calculations in the Engineering Reference for this coil type. Also, use Output:Diagnostics, DisplayExtraWarnings for further guidance.\n   ** Warning ** The Standard Ratings is calculated for Coil:Cooling:DX:SingleSpeed = COIL COOLING DX SINGLE SPEED 8 429KBTU/HR 8.21EER but not at the AHRI test condition due to curve out of bound.\n   **   ~~~   **  Review the Standard Ratings calculations in the Engineering Reference for this coil type. Also, use Output:Diagnostics, DisplayExtraWarnings for further guidance.\n   ** Warning ** The Standard Ratings is calculated for Coil:Cooling:DX:SingleSpeed = COIL COOLING DX SINGLE SPEED 1 572KBTU/HR 8.21EER but not at the AHRI test condition due to curve out of bound.\n   **   ~~~   **  Review the Standard Ratings calculations in the Engineering Reference for this coil type. Also, use Output:Diagnostics, DisplayExtraWarnings for further guidance.\n   ** Warning ** The Standard Ratings is calculated for Coil:Cooling:DX:SingleSpeed = COIL COOLING DX SINGLE SPEED 4 651KBTU/HR 8.21EER but not at the AHRI test condition due to curve out of bound.\n   **   ~~~   **  Review the Standard Ratings calculations in the Engineering Reference for this coil type. Also, use Output:Diagnostics, DisplayExtraWarnings for further guidance.\n   ** Warning ** Missing temperature setpoint for LeavingSetpointModulated mode chiller named PRIMARY CHILLER WATERCOOLED SCROLL 124TONS 0.8KW/TON\n   **   ~~~   **   A temperature setpoint is needed at the outlet node of a chiller in variable flow mode, use a SetpointManager\n   **   ~~~   **   The overall loop setpoint will be assumed for chiller. The simulation continues ... \n   ** Warning ** Missing temperature setpoint for LeavingSetpointModulated mode chiller named SECONDARY CHILLER WATERCOOLED SCROLL 0TONS 0.8KW/TON\n   **   ~~~   **   A temperature setpoint is needed at the outlet node of a chiller in variable flow mode, use a SetpointManager\n   **   ~~~   **   The overall loop setpoint will be assumed for chiller. The simulation continues ... \n   ** Warning ** Error when autosizing the load for cooling tower = COOLING TOWER SINGLE SPEED 1. Tower Design Range Temperature is different from the Design Loop Delta Temperature.\n   **   ~~~   ** Tower Design Range Temperature specified in tower = COOLING TOWER SINGLE SPEED 1\n   **   ~~~   ** is inconsistent with Design Loop Delta Temperature specified in Sizing:Plant object = CONDENSER WATER LOOP.\n   **   ~~~   ** ..The Design Range Temperature specified in tower is = 5.00\n   **   ~~~   ** ..The Design Loop Delta Temperature specified in plant sizing data is = 6.00\n   ** Warning ** Error when autosizing the load for cooling tower = COOLING TOWER SINGLE SPEED 1. Tower Design Range Temperature is different from the Design Loop Delta Temperature.\n   **   ~~~   ** Tower Design Range Temperature specified in tower = COOLING TOWER SINGLE SPEED 1\n   **   ~~~   ** is inconsistent with Design Loop Delta Temperature specified in Sizing:Plant object = CONDENSER WATER LOOP.\n   **   ~~~   ** ..The Design Range Temperature specified in tower is = 5.00\n   **   ~~~   ** ..The Design Loop Delta Temperature specified in plant sizing data is = 6.00\n   ** Warning ** Error when autosizing the load for cooling tower = COOLING TOWER SINGLE SPEED 1. Tower Design Range Temperature is different from the Design Loop Delta Temperature.\n   **   ~~~   ** Tower Design Range Temperature specified in tower = COOLING TOWER SINGLE SPEED 1\n   **   ~~~   ** is inconsistent with Design Loop Delta Temperature specified in Sizing:Plant object = CONDENSER WATER LOOP.\n   **   ~~~   ** ..The Design Range Temperature specified in tower is = 5.00\n   **   ~~~   ** ..The Design Loop Delta Temperature specified in plant sizing data is = 6.00\n   ** Warning ** Error when autosizing the load for cooling tower = COOLING TOWER SINGLE SPEED 1. Tower Design Range Temperature is different from the Design Loop Delta Temperature.\n   **   ~~~   ** Tower Design Range Temperature specified in tower = COOLING TOWER SINGLE SPEED 1\n   **   ~~~   ** is inconsistent with Design Loop Delta Temperature specified in Sizing:Plant object = CONDENSER WATER LOOP.\n   **   ~~~   ** ..The Design Range Temperature specified in tower is = 5.00\n   **   ~~~   ** ..The Design Loop Delta Temperature specified in plant sizing data is = 6.00\n   ** Warning ** Error when autosizing the load for cooling tower = COOLING TOWER SINGLE SPEED 1. Tower Design Range Temperature is different from the Design Loop Delta Temperature.\n   **   ~~~   ** Tower Design Range Temperature specified in tower = COOLING TOWER SINGLE SPEED 1\n   **   ~~~   ** is inconsistent with Design Loop Delta Temperature specified in Sizing:Plant object = CONDENSER WATER LOOP.\n   **   ~~~   ** ..The Design Range Temperature specified in tower is = 5.00\n   **   ~~~   ** ..The Design Loop Delta Temperature specified in plant sizing data is = 6.00\n   ** Warning ** Error when autosizing the load for cooling tower = COOLING TOWER SINGLE SPEED 1. Tower Design Range Temperature is different from the Design Loop Delta Temperature.\n   **   ~~~   ** Tower Design Range Temperature specified in tower = COOLING TOWER SINGLE SPEED 1\n   **   ~~~   ** is inconsistent with Design Loop Delta Temperature specified in Sizing:Plant object = CONDENSER WATER LOOP.\n   **   ~~~   ** ..The Design Range Temperature specified in tower is = 5.00\n   **   ~~~   ** ..The Design Loop Delta Temperature specified in plant sizing data is = 6.00\n   ** Warning ** Missing temperature setpoint for LeavingSetpointModulated mode Boiler named PRIMARY BOILER 2897KBTU/HR 0.833 COMBUSTION EFF\n   **   ~~~   **   A temperature setpoint is needed at the outlet node of a boiler in variable flow mode, use a SetpointManager\n   **   ~~~   **   The overall loop setpoint will be assumed for Boiler. The simulation continues ... \n   ** Warning ** Output:Meter: invalid Key Name=\"DISTRICTCOOLING:FACILITY\" - not found.\n   ** Warning ** Output:Meter: invalid Key Name=\"DISTRICTHEATING:FACILITY\" - not found.\n   ** Warning ** Output:Meter:MeterFileOnly requested for \"Electricity:Facility\" (TimeStep), already on \"Output:Meter\". Will report to both eplusout.eso and eplusout.mtr\n   ************* Testing Individual Branch Integrity\n   ************* All Branches passed integrity testing\n   ************* Testing Individual Supply Air Path Integrity\n   ************* All Supply Air Paths passed integrity testing\n   ************* Testing Individual Return Air Path Integrity\n   ************* All Return Air Paths passed integrity testing\n   ************* No node connection errors were found.\n   ************* Beginning Simulation\n   ** Severe  ** CheckWarmupConvergence: Loads Initialization, Zone=\"SP-LOCKER ROOM-SCH-J-SPACE FUNCTION SYS-6 FLR-4 SCH-J HPLCMT-CORE ZN\" did not converge after 25 warmup days.\n   **   ~~~   ** See Warmup Convergence Information in .eio file for details.\n   **   ~~~   ** ...Environment(RunPeriod)=\"RUN PERIOD 1\"\n   **   ~~~   ** ..Max Temp Comparison = 0.17 vs Temperature Convergence Tolerance=0.40 - Pass Convergence\n   **   ~~~   ** ..Min Temp Comparison = 0.48 vs Temperature Convergence Tolerance=0.40 - Fail Convergence\n   **   ~~~   ** ..Max Heat Load Comparison = 0.4313 vs Loads Convergence Tolerance=4.00E-002 - Fail Convergence\n   **   ~~~   ** ..Max Cool Load Comparison = 0.1019 vs Loads Convergence Tolerance=4.00E-002 - Fail Convergence\n   ** Severe  ** CheckWarmupConvergence: Loads Initialization, Zone=\"SP-LOCKER ROOM-SCH-K-SPACE FUNCTION SYS-6 FLR-4 SCH-K HPLCMT-SOUTH ZN\" did not converge after 25 warmup days.\n   **   ~~~   ** ...Environment(RunPeriod)=\"RUN PERIOD 1\"\n   **   ~~~   ** ..Max Temp Comparison = 1.54 vs Temperature Convergence Tolerance=0.40 - Fail Convergence\n   **   ~~~   ** ..Min Temp Comparison = 6.20E-002 vs Temperature Convergence Tolerance=0.40 - Pass Convergence\n   **   ~~~   ** ..Max Heat Load Comparison = 0.1073 vs Loads Convergence Tolerance=4.00E-002 - Fail Convergence\n   **   ~~~   ** ..Max Cool Load Comparison = 8.8887E-002 vs Loads Convergence Tolerance=4.00E-002 - Fail Convergence\n   ** Severe  ** CheckWarmupConvergence: Loads Initialization, Zone=\"SP-LOUNGE/BREAK ROOM - HEALTH CARE FACILITY-SPACE FUNCTION SYS-3 FLR-4 SCH-B HPLCMT-EAST ZN\" did not converge after 25 warmup days.\n   **   ~~~   ** ...Environment(RunPeriod)=\"RUN PERIOD 1\"\n   **   ~~~   ** ..Max Temp Comparison = 0.13 vs Temperature Convergence Tolerance=0.40 - Pass Convergence\n   **   ~~~   ** ..Min Temp Comparison = 2.58E-005 vs Temperature Convergence Tolerance=0.40 - Pass Convergence\n   **   ~~~   ** ..Max Heat Load Comparison = 1.2496E-002 vs Loads Convergence Tolerance=4.00E-002 - Pass Convergence\n   **   ~~~   ** ..Max Cool Load Comparison = 0.3330 vs Loads Convergence Tolerance=4.00E-002 - Fail Convergence\n   ** Severe  ** CheckWarmupConvergence: Loads Initialization, Zone=\"SP-LOUNGE/BREAK ROOM - OTHER-SPACE FUNCTION SYS-3 FLR-3 SCH-B HPLCMT-SOUTH ZN\" did not converge after 25 warmup days.\n   **   ~~~   ** ...Environment(RunPeriod)=\"RUN PERIOD 1\"\n   **   ~~~   ** ..Max Temp Comparison = 0.14 vs Temperature Convergence Tolerance=0.40 - Pass Convergence\n   **   ~~~   ** ..Min Temp Comparison = 2.73E-002 vs Temperature Convergence Tolerance=0.40 - Pass Convergence\n   **   ~~~   ** ..Max Heat Load Comparison = 1.3040 vs Loads Convergence Tolerance=4.00E-002 - Fail Convergence\n   **   ~~~   ** ..Max Cool Load Comparison = 3.0690E-003 vs Loads Convergence Tolerance=4.00E-002 - Pass Convergence\n   ** Severe  ** CheckWarmupConvergence: Loads Initialization, Zone=\"SP-OFFICE OPEN PLAN-SPACE FUNCTION SYS-6 FLR-1 SCH-A HPLCMT-WEST ZN\" did not converge after 25 warmup days.\n   **   ~~~   ** ...Environment(RunPeriod)=\"RUN PERIOD 1\"\n   **   ~~~   ** ..Max Temp Comparison = 0.21 vs Temperature Convergence Tolerance=0.40 - Pass Convergence\n   **   ~~~   ** ..Min Temp Comparison = 1.10E-002 vs Temperature Convergence Tolerance=0.40 - Pass Convergence\n   **   ~~~   ** ..Max Heat Load Comparison = 0.2883 vs Loads Convergence Tolerance=4.00E-002 - Fail Convergence\n   **   ~~~   ** ..Max Cool Load Comparison = 2.0967E-002 vs Loads Convergence Tolerance=4.00E-002 - Pass Convergence\n   ** Severe  ** CheckWarmupConvergence: Loads Initialization, Zone=\"SP-PHARMACY AREA-SPACE FUNCTION SYS-3 FLR-4 SCH-C HPLCMT-NORTH ZN\" did not converge after 25 warmup days.\n   **   ~~~   ** ...Environment(RunPeriod)=\"RUN PERIOD 1\"\n   **   ~~~   ** ..Max Temp Comparison = 4.72E-003 vs Temperature Convergence Tolerance=0.40 - Pass Convergence\n   **   ~~~   ** ..Min Temp Comparison = 4.70E-005 vs Temperature Convergence Tolerance=0.40 - Pass Convergence\n   **   ~~~   ** ..Max Heat Load Comparison = 3.5430E-003 vs Loads Convergence Tolerance=4.00E-002 - Pass Convergence\n   **   ~~~   ** ..Max Cool Load Comparison = 1.3201 vs Loads Convergence Tolerance=4.00E-002 - Fail Convergence\n   ** Severe  ** CheckWarmupConvergence: Loads Initialization, Zone=\"SP-SEATING AREA GENERAL-SCH-B-SPACE FUNCTION SYS-3 FLR-1 SCH-B HPLCMT-SOUTH ZN\" did not converge after 25 warmup days.\n   **   ~~~   ** ...Environment(RunPeriod)=\"RUN PERIOD 1\"\n   **   ~~~   ** ..Max Temp Comparison = 8.26E-003 vs Temperature Convergence Tolerance=0.40 - Pass Convergence\n   **   ~~~   ** ..Min Temp Comparison = 8.68E-006 vs Temperature Convergence Tolerance=0.40 - Pass Convergence\n   **   ~~~   ** ..Max Heat Load Comparison = 0.7023 vs Loads Convergence Tolerance=4.00E-002 - Fail Convergence\n   **   ~~~   ** ..Max Cool Load Comparison = 3.5133E-002 vs Loads Convergence Tolerance=4.00E-002 - Pass Convergence\n   ** Severe  ** CheckWarmupConvergence: Loads Initialization, Zone=\"SP-SEATING AREA GENERAL-SCH-C-SPACE FUNCTION SYS-3 FLR-1 SCH-C HPLCMT-EAST ZN\" did not converge after 25 warmup days.\n   **   ~~~   ** ...Environment(RunPeriod)=\"RUN PERIOD 1\"\n   **   ~~~   ** ..Max Temp Comparison = 2.78E-004 vs Temperature Convergence Tolerance=0.40 - Pass Convergence\n   **   ~~~   ** ..Min Temp Comparison = 1.04E-004 vs Temperature Convergence Tolerance=0.40 - Pass Convergence\n   **   ~~~   ** ..Max Heat Load Comparison = 0.7825 vs Loads Convergence Tolerance=4.00E-002 - Fail Convergence\n   **   ~~~   ** ..Max Cool Load Comparison = 0.3662 vs Loads Convergence Tolerance=4.00E-002 - Fail Convergence\n   ** Severe  ** CheckWarmupConvergence: Loads Initialization, Zone=\"SP-SEATING AREA GENERAL-SCH-F-SPACE FUNCTION SYS-3 FLR-2 SCH-F HPLCMT-WEST ZN\" did not converge after 25 warmup days.\n   **   ~~~   ** ...Environment(RunPeriod)=\"RUN PERIOD 1\"\n   **   ~~~   ** ..Max Temp Comparison = 4.94E-003 vs Temperature Convergence Tolerance=0.40 - Pass Convergence\n   **   ~~~   ** ..Min Temp Comparison = 7.47E-006 vs Temperature Convergence Tolerance=0.40 - Pass Convergence\n   **   ~~~   ** ..Max Heat Load Comparison = 0.1519 vs Loads Convergence Tolerance=4.00E-002 - Fail Convergence\n   **   ~~~   ** ..Max Cool Load Comparison = 6.9031E-004 vs Loads Convergence Tolerance=4.00E-002 - Pass Convergence\n   ** Severe  ** CheckWarmupConvergence: Loads Initialization, Zone=\"SP-SEATING AREA GENERAL-SCH-G-SPACE FUNCTION SYS-3 FLR-2 SCH-G HPLCMT-EAST ZN\" did not converge after 25 warmup days.\n   **   ~~~   ** ...Environment(RunPeriod)=\"RUN PERIOD 1\"\n   **   ~~~   ** ..Max Temp Comparison = 2.63E-005 vs Temperature Convergence Tolerance=0.40 - Pass Convergence\n   **   ~~~   ** ..Min Temp Comparison = 1.30E-005 vs Temperature Convergence Tolerance=0.40 - Pass Convergence\n   **   ~~~   ** ..Max Heat Load Comparison = 1.5161 vs Loads Convergence Tolerance=4.00E-002 - Fail Convergence\n   **   ~~~   ** ..Max Cool Load Comparison = 4.3842E-006 vs Loads Convergence Tolerance=4.00E-002 - Pass Convergence\n   ** Severe  ** CheckWarmupConvergence: Loads Initialization, Zone=\"SP-SEATING AREA GENERAL-SCH-I-SPACE FUNCTION SYS-3 FLR-2 SCH-I HPLCMT-NORTH ZN\" did not converge after 25 warmup days.\n   **   ~~~   ** ...Environment(RunPeriod)=\"RUN PERIOD 1\"\n   **   ~~~   ** ..Max Temp Comparison = 1.17E-004 vs Temperature Convergence Tolerance=0.40 - Pass Convergence\n   **   ~~~   ** ..Min Temp Comparison = 1.74E-002 vs Temperature Convergence Tolerance=0.40 - Pass Convergence\n   **   ~~~   ** ..Max Heat Load Comparison = 0.7271 vs Loads Convergence Tolerance=4.00E-002 - Fail Convergence\n   **   ~~~   ** ..Max Cool Load Comparison = 6.0518E-003 vs Loads Convergence Tolerance=4.00E-002 - Pass Convergence\n   ** Severe  ** CheckWarmupConvergence: Loads Initialization, Zone=\"SP-SEATING AREA GENERAL-SCH-K-SPACE FUNCTION SYS-3 FLR-2 SCH-K HPLCMT-CORE ZN\" did not converge after 25 warmup days.\n   **   ~~~   ** ...Environment(RunPeriod)=\"RUN PERIOD 1\"\n   **   ~~~   ** ..Max Temp Comparison = 1.33E-002 vs Temperature Convergence Tolerance=0.40 - Pass Convergence\n   **   ~~~   ** ..Min Temp Comparison = 2.82E-003 vs Temperature Convergence Tolerance=0.40 - Pass Convergence\n   **   ~~~   ** ..Max Heat Load Comparison = 0.0000 vs Loads Convergence Tolerance=4.00E-002 - Pass Convergence\n   **   ~~~   ** ..Max Cool Load Comparison = 5.9836E-002 vs Loads Convergence Tolerance=4.00E-002 - Fail Convergence\n   ** Warning ** Processing Monthly Tabular Reports: Variable names not valid for this simulation\n   **   ~~~   ** ...use Output:Diagnostics,DisplayExtraWarnings; to show more details on individual variables.\n   ** Warning ** HeatExchanger:AirToAir:SensibleAndLatent \"SYS_3_PSZ SP-LOUNGE/BREAK ROOM - HEALTH CARE FACILITY-SPACE FUNCTION SYS-3 FLR-4 SCH-B HPLCMT-EAST ZN ERV\"\n   **   ~~~   ** Average air volume flow rate is <50% or >130% of the nominal HX supply air volume flow rate.\n   **   ~~~   ** Air volume flow rate ratio = 2.684. Environment=RUN PERIOD 1, at Simulation time=01/01 01:03 - 01:04\n   ** Warning ** CalcDoe2DXCoil: Coil:Cooling:DX:SingleSpeed \"COIL COOLING DX SINGLE SPEED 12 361KBTU/HR 8.21EER\" - Air-cooled condenser inlet dry-bulb temperature below 0 C. Outdoor dry-bulb temperature = -13.17\n   **   ~~~   **  ... Occurrence info = RUN PERIOD 1, 01/01 01:03 - 01:04\n   **   ~~~   ** ... Operation at low ambient temperatures may require special performance curves.\n   ** Warning ** CalcDoe2DXCoil: Coil:Cooling:DX:SingleSpeed \"COIL COOLING DX SINGLE SPEED 12 361KBTU/HR 8.21EER\" - Full load outlet air dry-bulb temperature < 2C. This indicates the possibility of coil frost/freeze. Outlet temperature = 1.76 C.\n   **   ~~~   **  ...Occurrence info = RUN PERIOD 1, 01/01 01:03 - 01:04\n   **   ~~~   ** ... Possible reasons for low outlet air dry-bulb temperatures are: This DX coil\n   **   ~~~   **    1) may have a low inlet air dry-bulb temperature. Inlet air temperature = 14.853 C.\n   **   ~~~   **    2) may have a low air flow rate per watt of cooling capacity. Check inputs.\n   **   ~~~   **    3) is used as part of a HX assisted cooling coil which uses a high sensible effectiv
[...]
 temperature = 1.55 C.\n   **   ~~~   **  ...Occurrence info = RUN PERIOD 1, 04/28 06:50 - 07:00\n   **   ~~~   ** ... Possible reasons for low outlet air dry-bulb temperatures are: This DX coil\n   **   ~~~   **    1) may have a low inlet air dry-bulb temperature. Inlet air temperature = 12.100 C.\n   **   ~~~   **    2) may have a low air flow rate per watt of cooling capacity. Check inputs.\n   **   ~~~   **    3) is used as part of a HX assisted cooling coil which uses a high sensible effectiveness. Check inputs.\n   ** Warning ** CalcDoe2DXCoil: Coil:Cooling:DX:SingleSpeed \"COIL COOLING DX SINGLE SPEED 7 429KBTU/HR 8.21EER\" - Full load outlet air dry-bulb temperature < 2C. This indicates the possibility of coil frost/freeze. Outlet temperature = 1.55 C.\n   **   ~~~   **  ...Occurrence info = RUN PERIOD 1, 04/28 06:50 - 07:00\n   **   ~~~   ** ... Possible reasons for low outlet air dry-bulb temperatures are: This DX coil\n   **   ~~~   **    1) may have a low inlet air dry-bulb temperature. Inlet air temperature = 12.100 C.\n   **   ~~~   **    2) may have a low air flow rate per watt of cooling capacity. Check inputs.\n   **   ~~~   **    3) is used as part of a HX assisted cooling coil which uses a high sensible effectiveness. Check inputs.\n   ** Warning ** CalcDoe2DXCoil: Coil:Cooling:DX:SingleSpeed \"COIL COOLING DX SINGLE SPEED 5 482KBTU/HR 8.21EER\" - Full load outlet air dry-bulb temperature < 2C. This indicates the possibility of coil frost/freeze. Outlet temperature = 0.38 C.\n   **   ~~~   **  ...Occurrence info = RUN PERIOD 1, 04/29 13:30 - 13:33\n   **   ~~~   ** ... Possible reasons for low outlet air dry-bulb temperatures are: This DX coil\n   **   ~~~   **    1) may have a low inlet air dry-bulb temperature. Inlet air temperature = 16.200 C.\n   **   ~~~   **    2) may have a low air flow rate per watt of cooling capacity. Check inputs.\n   **   ~~~   **    3) is used as part of a HX assisted cooling coil which uses a high sensible effectiveness. Check inputs.\n   ** Warning ** CalcDoe2DXCoil: Coil:Cooling:DX:SingleSpeed \"COIL COOLING DX SINGLE SPEED 9 240KBTU/HR 8.21EER\" - Full load outlet air dry-bulb temperature < 2C. This indicates the possibility of coil frost/freeze. Outlet temperature = -1.58 C.\n   **   ~~~   **  ...Occurrence info = RUN PERIOD 1, 04/30 09:57 - 10:00\n   **   ~~~   ** ... Possible reasons for low outlet air dry-bulb temperatures are: This DX coil\n   **   ~~~   **    1) may have a low inlet air dry-bulb temperature. Inlet air temperature = 12.800 C.\n   **   ~~~   **    2) may have a low air flow rate per watt of cooling capacity. Check inputs.\n   **   ~~~   **    3) is used as part of a HX assisted cooling coil which uses a high sensible effectiveness. Check inputs.\n   ** Warning ** CalcDoe2DXCoil: Coil:Cooling:DX:SingleSpeed \"COIL COOLING DX SINGLE SPEED 10 468KBTU/HR 8.21EER\" - Full load outlet air dry-bulb temperature < 2C. This indicates the possibility of coil frost/freeze. Outlet temperature = 1.90 C.\n   **   ~~~   **  ...Occurrence info = RUN PERIOD 1, 05/29 13:20 - 13:30\n   **   ~~~   ** ... Possible reasons for low outlet air dry-bulb temperatures are: This DX coil\n   **   ~~~   **    1) may have a low inlet air dry-bulb temperature. Inlet air temperature = 17.250 C.\n   **   ~~~   **    2) may have a low air flow rate per watt of cooling capacity. Check inputs.\n   **   ~~~   **    3) is used as part of a HX assisted cooling coil which uses a high sensible effectiveness. Check inputs.\n   ** Warning ** SimHVAC: Maximum iterations (20) exceeded for all HVAC loops, at RUN PERIOD 1, 10/25 15:13 - 15:17\n   **   ~~~   ** The solution for one or more of the Air Loop HVAC systems did not appear to converge\n   ** Warning ** SimHVAC: Maximum iterations (20) exceeded for all HVAC loops, at RUN PERIOD 1, 10/30 06:02 - 06:03\n   **   ~~~   ** The solution for one or more of the Air Loop HVAC systems did not appear to converge\n   ** Warning ** SimHVAC: Maximum iterations (20) exceeded for all HVAC loops, at RUN PERIOD 1, 10/30 06:10 - 06:11\n   **   ~~~   ** The solution for one or more of the Air Loop HVAC systems did not appear to converge\n   ** Warning ** SimHVAC: Maximum iterations (20) exceeded for all HVAC loops, at RUN PERIOD 1, 11/01 19:08 - 19:10\n   **   ~~~   ** The solution for one or more of the Air Loop HVAC systems did not appear to converge\n   ** Warning ** The resource referenced by LifeCycleCost:UsePriceEscalation= \"U.S. AVG  COMMERCIAL-ELECTRICITY\" has no energy cost. \n   **   ~~~   ** ... It is likely that the wrong resource is used. The resource should match the meter used in Utility:Tariff.\n   ** Warning ** The resource referenced by LifeCycleCost:UsePriceEscalation= \"U.S. AVG  COMMERCIAL-DISTILLATE OIL\" has no energy cost. \n   **   ~~~   ** ... It is likely that the wrong resource is used. The resource should match the meter used in Utility:Tariff.\n   ** Warning ** The resource referenced by LifeCycleCost:UsePriceEscalation= \"U.S. AVG  COMMERCIAL-RESIDUAL OIL\" has no energy cost. \n   **   ~~~   ** ... It is likely that the wrong resource is used. The resource should match the meter used in Utility:Tariff.\n   ** Warning ** The resource referenced by LifeCycleCost:UsePriceEscalation= \"U.S. AVG  COMMERCIAL-NATURAL GAS\" has no energy cost. \n   **   ~~~   ** ... It is likely that the wrong resource is used. The resource should match the meter used in Utility:Tariff.\n   ** Warning ** The resource referenced by LifeCycleCost:UsePriceEscalation= \"U.S. AVG  COMMERCIAL-COAL\" has no energy cost. \n   **   ~~~   ** ... It is likely that the wrong resource is used. The resource should match the meter used in Utility:Tariff.\n   ************* Simulation Error Summary *************\n   ************* There are 15 unused schedules in input.\n   ************* There are 15 unused week schedules in input.\n   ************* There are 76 unused day schedules in input.\n   ************* Use Output:Diagnostics,DisplayUnusedSchedules; to see them.\n   *************\n   ************* ===== Recurring Error Summary =====\n   ************* The following recurring error messages occurred.\n   *************\n   *************  ** Warning ** HeatExchanger:AirToAir:SensibleAndLatent \"SYS_3_PSZ SP-LOUNGE/BREAK ROOM - HEALTH CARE FACILITY-SPACE FUNCTION SYS-3 FLR-4 SCH-B HPLCMT-EAST ZN ERV\":  Average air volume flow rate is <50% or >130% warning continues. Air flow rate ratio statistics follow.\n   *************  **   ~~~   **   This error occurred 34208 total times;\n   *************  **   ~~~   **   during Warmup 0 times;\n   *************  **   ~~~   **   during Sizing 0 times.\n   *************  **   ~~~   **   Max=2.756385  Min=4.164986E-004\n   *************\n   *************  ** Warning ** CalcDoe2DXCoil: Coil:Cooling:DX:SingleSpeed=\"COIL COOLING DX SINGLE SPEED 12 361KBTU/HR 8.21EER\" - Low condenser dry-bulb temperature error continues...\n   *************  **   ~~~   **   This error occurred 68 total times;\n   *************  **   ~~~   **   during Warmup 0 times;\n   *************  **   ~~~   **   during Sizing 0 times.\n   *************  **   ~~~   **   Max=-0.233333 [C]  Min=-20.833333 [C]\n   *************\n   *************  ** Warning ** CalcDoe2DXCoil: Coil:Cooling:DX:SingleSpeed=\"COIL COOLING DX SINGLE SPEED 12 361KBTU/HR 8.21EER\" - Full load outlet temperature indicates a possibility of frost/freeze error continues. Outlet air temperature statistics follow:\n   *************  **   ~~~   **   This error occurred 83 total times;\n   *************  **   ~~~   **   during Warmup 0 times;\n   *************  **   ~~~   **   during Sizing 0 times.\n   *************  **   ~~~   **   Max=1.969366  Min=-1.375412\n   *************\n   *************  ** Warning ** HeatExchanger:AirToAir:SensibleAndLatent \"SYS_3_PSZ SP-PHARMACY AREA-SPACE FUNCTION SYS-3 FLR-4 SCH-C HPLCMT-NORTH ZN ERV\":  Average air volume flow rate is <50% or >130% warning continues. Air flow rate ratio statistics follow.\n   *************  **   ~~~   **   This error occurred 35435 total times;\n   *************  **   ~~~   **   during Warmup 0 times;\n   *************  **   ~~~   **   during Sizing 0 times.\n   *************  **   ~~~   **   Max=2.974811  Min=5.576020E-004\n   *************\n   *************  ** Warning ** CalcDoe2DXCoil: Coil:Cooling:DX:SingleSpeed=\"COIL COOLING DX SINGLE SPEED 14 353KBTU/HR 8.21EER\" - Low condenser dry-bulb temperature error continues...\n   *************  **   ~~~   **   This error occurred 37 total times;\n   *************  **   ~~~   **   during Warmup 0 times;\n   *************  **   ~~~   **   during Sizing 0 times.\n   *************  **   ~~~   **   Max=-0.15 [C]  Min=-19.883333 [C]\n   *************\n   *************  ** Warning ** CalcDoe2DXCoil: Coil:Cooling:DX:SingleSpeed=\"COIL COOLING DX SINGLE SPEED 14 353KBTU/HR 8.21EER\" - Full load outlet temperature indicates a possibility of frost/freeze error continues. Outlet air temperature statistics follow:\n   *************  **   ~~~   **   This error occurred 30 total times;\n   *************  **   ~~~   **   during Warmup 0 times;\n   *************  **   ~~~   **   during Sizing 0 times.\n   *************  **   ~~~   **   Max=1.99033  Min=-1.342317\n   *************\n   *************  ** Warning ** HeatExchanger:AirToAir:SensibleAndLatent \"SYS_3_PSZ SP-SEATING AREA GENERAL-SCH-F-SPACE FUNCTION SYS-3 FLR-2 SCH-F HPLCMT-WEST ZN ERV\":  Average air volume flow rate is <50% or >130% warning continues. Air flow rate ratio statistics follow.\n   *************  **   ~~~   **   This error occurred 1694 total times;\n   *************  **   ~~~   **   during Warmup 0 times;\n   *************  **   ~~~   **   during Sizing 0 times.\n   *************  **   ~~~   **   Max=0.499316  Min=1.182286E-004\n   *************\n   *************  ** Warning ** HeatExchanger:AirToAir:SensibleAndLatent \"SYS_3_PSZ SP-SEATING AREA GENERAL-SCH-A-SPACE FUNCTION SYS-3 FLR-4 SCH-A HPLCMT-WEST ZN ERV\":  Average air volume flow rate is <50% or >130% warning continues. Air flow rate ratio statistics follow.\n   *************  **   ~~~   **   This error occurred 2813 total times;\n   *************  **   ~~~   **   during Warmup 0 times;\n   *************  **   ~~~   **   during Sizing 0 times.\n   *************  **   ~~~   **   Max=0.472213  Min=1.197814E-004\n   *************\n   *************  ** Warning ** HeatExchanger:AirToAir:SensibleAndLatent \"SYS_3_PSZ SP-SEATING AREA GENERAL-SCH-D-SPACE FUNCTION SYS-3 FLR-3 SCH-D HPLCMT-NORTH ZN ERV\":  Average air volume flow rate is <50% or >130% warning continues. Air flow rate ratio statistics follow.\n   *************  **   ~~~   **   This error occurred 2954 total times;\n   *************  **   ~~~   **   during Warmup 0 times;\n   *************  **   ~~~   **   during Sizing 0 times.\n   *************  **   ~~~   **   Max=0.3435  Min=1.192400E-004\n   *************\n   *************  ** Warning ** HeatExchanger:AirToAir:SensibleAndLatent \"SYS_3_PSZ SP-SEATING AREA GENERAL-SCH-C-SPACE FUNCTION SYS-3 FLR-1 SCH-C HPLCMT-EAST ZN ERV\":  Average air volume flow rate is <50% or >130% warning continues. Air flow rate ratio statistics follow.\n   *************  **   ~~~   **   This error occurred 479 total times;\n   *************  **   ~~~   **   during Warmup 0 times;\n   *************  **   ~~~   **   during Sizing 0 times.\n   *************  **   ~~~   **   Max=0.206255  Min=2.066906E-004\n   *************\n   *************  ** Warning ** HeatExchanger:AirToAir:SensibleAndLatent \"SYS_6_VAV WITH REHEAT ERV\":  Average air volume flow rate is <50% or >130% warning continues. Air flow rate ratio statistics follow.\n   *************  **   ~~~   **   This error occurred 61304 total times;\n   *************  **   ~~~   **   during Warmup 0 times;\n   *************  **   ~~~   **   during Sizing 0 times.\n   *************  **   ~~~   **   Max=1.593238  Min=1.300501\n   *************\n   *************  ** Warning ** HeatExchanger:AirToAir:SensibleAndLatent \"SYS_3_PSZ SP-SEATING AREA GENERAL-SCH-I-SPACE FUNCTION SYS-3 FLR-2 SCH-I HPLCMT-NORTH ZN ERV\":  Average air volume flow rate is <50% or >130% warning continues. Air flow rate ratio statistics follow.\n   *************  **   ~~~   **   This error occurred 2288 total times;\n   *************  **   ~~~   **   during Warmup 0 times;\n   *************  **   ~~~   **   during Sizing 0 times.\n   *************  **   ~~~   **   Max=0.48677  Min=1.317208E-004\n   *************\n   *************  ** Warning ** CalcDoe2DXCoil: Coil:Cooling:DX:SingleSpeed=\"COIL COOLING DX SINGLE SPEED 4 651KBTU/HR 8.21EER\" - Full load outlet temperature indicates a possibility of frost/freeze error continues. Outlet air temperature statistics follow:\n   *************  **   ~~~   **   This error occurred 360 total times;\n   *************  **   ~~~   **   during Warmup 0 times;\n   *************  **   ~~~   **   during Sizing 0 times.\n   *************  **   ~~~   **   Max=1.996212  Min=-4.253374\n   *************\n   *************  ** Warning ** HeatExchanger:AirToAir:SensibleAndLatent \"SYS_3_PSZ SP-SEATING AREA GENERAL-SCH-B-SPACE FUNCTION SYS-3 FLR-1 SCH-B HPLCMT-SOUTH ZN ERV\":  Average air volume flow rate is <50% or >130% warning continues. Air flow rate ratio statistics follow.\n   *************  **   ~~~   **   This error occurred 323 total times;\n   *************  **   ~~~   **   during Warmup 0 times;\n   *************  **   ~~~   **   during Sizing 0 times.\n   *************  **   ~~~   **   Max=0.419267  Min=2.229031E-003\n   *************\n   *************  ** Warning ** HeatExchanger:AirToAir:SensibleAndLatent \"SYS_3_PSZ SP-SEATING AREA GENERAL-SCH-E-SPACE FUNCTION SYS-3 FLR-2 SCH-E HPLCMT-SOUTH ZN ERV\":  Average air volume flow rate is <50% or >130% warning continues. Air flow rate ratio statistics follow.\n   *************  **   ~~~   **   This error occurred 281 total times;\n   *************  **   ~~~   **   during Warmup 0 times;\n   *************  **   ~~~   **   during Sizing 0 times.\n   *************  **   ~~~   **   Max=0.328571  Min=1.737941E-004\n   *************\n   *************  ** Warning ** Plant loop falling below lower temperature limit, PlantLoop=\"MAIN SERVICE WATER LOOP\"\n   *************  **   ~~~   **   This error occurred 5 total times;\n   *************  **   ~~~   **   during Warmup 0 times;\n   *************  **   ~~~   **   during Sizing 0 times.\n   *************  **   ~~~   **   Min=0.\n   *************\n   *************  ** Warning ** CalcDoe2DXCoil: Coil:Cooling:DX:SingleSpeed=\"COIL COOLING DX SINGLE SPEED 13 463KBTU/HR 8.21EER\" - Full load outlet temperature indicates a possibility of frost/freeze error continues. Outlet air temperature statistics follow:\n   *************  **   ~~~   **   This error occurred 85 total times;\n   *************  **   ~~~   **   during Warmup 0 times;\n   *************  **   ~~~   **   during Sizing 0 times.\n   *************  **   ~~~   **   Max=1.97631  Min=-0.372236\n   *************\n   *************  ** Warning ** CalcDoe2DXCoil: Coil:Cooling:DX:SingleSpeed=\"COIL COOLING DX SINGLE SPEED 6 429KBTU/HR 8.21EER\" - Full load outlet temperature indicates a possibility of frost/freeze error continues. Outlet air temperature statistics follow:\n   *************  **   ~~~   **   This error occurred 1 total times;\n   *************  **   ~~~   **   during Warmup 0 times;\n   *************  **   ~~~   **   during Sizing 0 times.\n   *************  **   ~~~   **   Max=1.549477  Min=1.549477\n   *************\n   *************  ** Warning ** CalcDoe2DXCoil: Coil:Cooling:DX:SingleSpeed=\"COIL COOLING DX SINGLE SPEED 7 429KBTU/HR 8.21EER\" - Full load outlet temperature indicates a possibility of frost/freeze error continues. Outlet air temperature statistics follow:\n   *************  **   ~~~   **   This error occurred 1 total times;\n   *************  **   ~~~   **   during Warmup 0 times;\n   *************  **   ~~~   **   during Sizing 0 times.\n   *************  **   ~~~   **   Max=1.549477  Min=1.549477\n   *************\n   *************  ** Warning ** CalcDoe2DXCoil: Coil:Cooling:DX:SingleSpeed=\"COIL COOLING DX SINGLE SPEED 5 482KBTU/HR 8.21EER\" - Full load outlet temperature indicates a possibility of frost/freeze error continues. Outlet air temperature statistics follow:\n   *************  **   ~~~   **   This error occurred 6 total times;\n   *************  **   ~~~   **   during Warmup 0 times;\n   *************  **   ~~~   **   during Sizing 0 times.\n   *************  **   ~~~   **   Max=1.88847  Min=0.376844\n   *************\n   *************  ** Warning ** CalcDoe2DXCoil: Coil:Cooling:DX:SingleSpeed=\"COIL COOLING DX SINGLE SPEED 9 240KBTU/HR 8.21EER\" - Full load outlet temperature indicates a possibility of frost/freeze error continues. Outlet air temperature statistics follow:\n   *************  **   ~~~   **   This error occurred 8 total times;\n   *************  **   ~~~   **   during Warmup 0 times;\n   *************  **   ~~~   **   during Sizing 0 times.\n   *************  **   ~~~   **   Max=1.615989  Min=-1.576851\n   *************\n   *************  ** Warning ** CalcDoe2DXCoil: Coil:Cooling:DX:SingleSpeed=\"COIL COOLING DX SINGLE SPEED 10 468KBTU/HR 8.21EER\" - Full load outlet temperature indicates a possibility of frost/freeze error continues. Outlet air temperature statistics follow:\n   *************  **   ~~~   **   This error occurred 2 total times;\n   *************  **   ~~~   **   during Warmup 0 times;\n   *************  **   ~~~   **   during Sizing 0 times.\n   *************  **   ~~~   **   Max=1.899979  Min=1.265651\n   *************\n   *************  ** Warning ** SimHVAC: Exceeding Maximum iterations for all HVAC loops, during RUN PERIOD 1 continues\n   *************  **   ~~~   **   This error occurred 4 total times;\n   *************  **   ~~~   **   during Warmup 0 times;\n   *************  **   ~~~   **   during Sizing 0 times.\n   *************\n   *************\n   ************* ===== Final Error Summary =====\n   ************* The following error categories occurred.  Consider correcting or noting.\n   ************* Loads Initialization did not Converge\n   ************* ..1) very high thermal mass such as very thick concrete (solution: increase max number of warmup\n   ************* ..   days in the BUILDING object);\n   ************* ..2) moderate mass and inadequate space conditioning such that the building keeps getting warmer\n   ************* ..   and warmer on successive days (solution: add HVAC, check building thermal properties,\n   ************* ..   check if infiltration is included, make sure HVAC properly controlled);\n   ************* ..3) a soil layer modeled below the concrete slab - (solution remove this layer and read about\n   ************* ..   ground temperatures in the Auxiliary Programs document).\n   ************* ..4) unreasonable (too small) limits in the BUILDING object for temperature (.4 default) or\n   ************* ..   loads tolerances (.04 default)\n   ************* Nominally Unused Constructions\n   ************* ..The nominally unused constructions warning is provided to alert you to potential conditions that can cause\n   ************* ..extra time during simulation. Each construction is calculated by the algorithm indicated in the HeatBalanceAlgorithm\n   ************* ..object. You may remove the constructions indicated (when you use the DisplayExtraWarnings option).\n   *************\n   ************* EnergyPlus Warmup Error Summary. During Warmup: 0 Warning; 12 Severe Errors.\n   ************* EnergyPlus Sizing Error Summary. During Sizing: 215 Warning; 0 Severe Errors.\n   ************* EnergyPlus Completed Successfully-- 142741 Warning; 12 Severe Errors; Elapsed Time=00hr 04min 48.80sec\n",
   "hash" : "CACC6C89",
   "seed_file" : "in.osm",
   "started_at" : "20190328T134838Z",
   "steps" : [],
   "updated_at" : "20190328T135333Z",
   "weather_file" : "in.epw"
}
