{
   "completed_at" : "20190404T180001Z",
   "completed_status" : "Success",
   "created_at" : "20190404T175957Z",
   "current_step" : 0,
   "eplusout_err" : "Program Version,EnergyPlus, Version 8.9.0-eba93e8e1b, YMD=2019.04.04 18:00,\n   ************* Beginning Zone Sizing Calculations\n   ** Warning ** ProcessScheduleInput: Schedule:Day:Interval=\"SCHEDULE DAY 1\", Blank Schedule Type Limits Name input -- will not be validated.\n   ** Warning ** ProcessScheduleInput: Schedule:Day:Interval=\"SCHEDULE DAY 2\", Blank Schedule Type Limits Name input -- will not be validated.\n   ** Warning ** ProcessScheduleInput: Schedule:Constant=\"ALWAYS ON DISCRETE\", Blank Schedule Type Limits Name input -- will not be validated.\n   ** Warning ** ProcessScheduleInput: Schedule:Constant=\"ALWAYS OFF DISCRETE\", Blank Schedule Type Limits Name input -- will not be validated.\n   ** Warning ** ProcessScheduleInput: Schedule:Constant=\"ALWAYS ON CONTINUOUS\", Blank Schedule Type Limits Name input -- will not be validated.\n   ** Warning ** CheckUsedConstructions: There are 32 nominally unused constructions in input.\n   **   ~~~   ** For explicit details on each unused construction, use Output:Diagnostics,DisplayExtraWarnings;\n   ** Warning ** GetInternalHeatGains: People Combination of ZoneList and Object Name generate a name too long.\n   **   ~~~   ** Object Name=\"SPACE FUNCTION AUDIENCE SEATING AREA PERMANENT - OTHER-SCH-C PEOPLE\".\n   **   ~~~   ** ZoneList/Zone Name=\"AUDIENCE SEATING AREA PERMANENT - OTHER-SCH-C-SPACE FUNCTION ZN\".\n   **   ~~~   ** Item length=[130] > Maximum Length=[100]. You may need to shorten the names.\n   **   ~~~   ** Shortening the Object Name by [31] characters will assure uniqueness for this ZoneList.\n   **   ~~~   ** name that will be used (may be needed in reporting)=\"AUDIENCE SEATING AREA PERMANENT - OTHER-SCH-C-SPACE FUNCTION ZN SPACE FUNCTION AUDIENCE SEATING AREA PERMANENT - OTHER-SCH-C PEOPLE\".\n   ** Warning ** GetInternalHeatGains: People Combination of ZoneList and Object Name generate a name too long.\n   **   ~~~   ** Object Name=\"SPACE FUNCTION AUDIENCE SEATING AREA PERMANENT - OTHER-SCH-D PEOPLE\".\n   **   ~~~   ** ZoneList/Zone Name=\"AUDIENCE SEATING AREA PERMANENT - OTHER-SCH-D-SPACE FUNCTION ZN\".\n   **   ~~~   ** Item length=[130] > Maximum Length=[100]. You may need to shorten the names.\n   **   ~~~   ** Shortening the Object Name by [31] characters will assure uniqueness for this ZoneList.\n   **   ~~~   ** name that will be used (may be needed in reporting)=\"AUDIENCE SEATING AREA PERMANENT - OTHER-SCH-D-SPACE FUNCTION ZN SPACE FUNCTION AUDIENCE SEATING AREA PERMANENT - OTHER-SCH-D PEOPLE\".\n   ** Warning ** GetInternalHeatGains: People Combination of ZoneList and Object Name generate a name too long.\n   **   ~~~   ** Object Name=\"SPACE FUNCTION AUDIENCE SEATING AREA PERMANENT - OTHER-SCH-E PEOPLE\".\n   **   ~~~   ** ZoneList/Zone Name=\"AUDIENCE SEATING AREA PERMANENT - OTHER-SCH-E-SPACE FUNCTION ZN\".\n   **   ~~~   ** Item length=[130] > Maximum Length=[100]. You may need to shorten the names.\n   **   ~~~   ** Shortening the Object Name by [31] characters will assure uniqueness for this ZoneList.\n   **   ~~~   ** name that will be used (may be needed in reporting)=\"AUDIENCE SEATING AREA PERMANENT - OTHER-SCH-E-SPACE FUNCTION ZN SPACE FUNCTION AUDIENCE SEATING AREA PERMANENT - OTHER-SCH-E PEOPLE\".\n   ** Warning ** GetInternalHeatGains: People Combination of ZoneList and Object Name generate a name too long.\n   **   ~~~   ** Object Name=\"SPACE FUNCTION AUDIENCE SEATING AREA PERMANENT - OTHER-SCH-F PEOPLE\".\n   **   ~~~   ** ZoneList/Zone Name=\"AUDIENCE SEATING AREA PERMANENT - OTHER-SCH-F-SPACE FUNCTION ZN\".\n   **   ~~~   ** Item length=[130] > Maximum Length=[100]. You may need to shorten the names.\n   **   ~~~   ** Shortening the Object Name by [31] characters will assure uniqueness for this ZoneList.\n   **   ~~~   ** name that will be used (may be needed in reporting)=\"AUDIENCE SEATING AREA PERMANENT - OTHER-SCH-F-SPACE FUNCTION ZN SPACE FUNCTION AUDIENCE SEATING AREA PERMANENT - OTHER-SCH-F PEOPLE\".\n   ** Warning ** GetInternalHeatGains: People Combination of ZoneList and Object Name generate a name too long.\n   **   ~~~   ** Object Name=\"SPACE FUNCTION AUDIENCE SEATING AREA PERMANENT - OTHER-SCH-G PEOPLE\".\n   **   ~~~   ** ZoneList/Zone Name=\"AUDIENCE SEATING AREA PERMANENT - OTHER-SCH-G-SPACE FUNCTION ZN\".\n   **   ~~~   ** Item length=[130] > Maximum Length=[100]. You may need to shorten the names.\n   **   ~~~   ** Shortening the Object Name by [31] characters will assure uniqueness for this ZoneList.\n   **   ~~~   ** name that will be used (may be needed in reporting)=\"AUDIENCE SEATING AREA PERMANENT - OTHER-SCH-G-SPACE FUNCTION ZN SPACE FUNCTION AUDIENCE SEATING AREA PERMANENT - OTHER-SCH-G PEOPLE\".\n   ** Warning ** GetInternalHeatGains: Lights Combination of ZoneList and Object Name generate a name too long.\n   **   ~~~   ** Object Name=\"SPACE FUNCTION AUDIENCE SEATING AREA PERMANENT - OTHER-SCH-C LIGHTS\".\n   **   ~~~   ** ZoneList/Zone Name=\"AUDIENCE SEATING AREA PERMANENT - OTHER-SCH-C-SPACE FUNCTION ZN\".\n   **   ~~~   ** Item length=[130] > Maximum Length=[100]. You may need to shorten the names.\n   **   ~~~   ** Shortening the Object Name by [31] characters will assure uniqueness for this ZoneList.\n   **   ~~~   ** name that will be used (may be needed in reporting)=\"AUDIENCE SEATING AREA PERMANENT - OTHER-SCH-C-SPACE FUNCTION ZN SPACE FUNCTION AUDIENCE SEATING AREA PERMANENT - OTHER-SCH-C LIGHTS\".\n   ** Warning ** GetInternalHeatGains: Lights Combination of ZoneList and Object Name generate a name too long.\n   **   ~~~   ** Object Name=\"SPACE FUNCTION AUDIENCE SEATING AREA PERMANENT - OTHER-SCH-D LIGHTS\".\n   **   ~~~   ** ZoneList/Zone Name=\"AUDIENCE SEATING AREA PERMANENT - OTHER-SCH-D-SPACE FUNCTION ZN\".\n   **   ~~~   ** Item length=[130] > Maximum Length=[100]. You may need to shorten the names.\n   **   ~~~   ** Shortening the Object Name by [31] characters will assure uniqueness for this ZoneList.\n   **   ~~~   ** name that will be used (may be needed in reporting)=\"AUDIENCE SEATING AREA PERMANENT - OTHER-SCH-D-SPACE FUNCTION ZN SPACE FUNCTION AUDIENCE SEATING AREA PERMANENT - OTHER-SCH-D LIGHTS\".\n   ** Warning ** GetInternalHeatGains: Lights Combination of ZoneList and Object Name generate a name too long.\n   **   ~~~   ** Object Name=\"SPACE FUNCTION AUDIENCE SEATING AREA PERMANENT - OTHER-SCH-E LIGHTS\".\n   **   ~~~   ** ZoneList/Zone Name=\"AUDIENCE SEATING AREA PERMANENT - OTHER-SCH-E-SPACE FUNCTION ZN\".\n   **   ~~~   ** Item length=[130] > Maximum Length=[100]. You may need to shorten the names.\n   **   ~~~   ** Shortening the Object Name by [31] characters will assure uniqueness for this ZoneList.\n   **   ~~~   ** name that will be used (may be needed in reporting)=\"AUDIENCE SEATING AREA PERMANENT - OTHER-SCH-E-SPACE FUNCTION ZN SPACE FUNCTION AUDIENCE SEATING AREA PERMANENT - OTHER-SCH-E LIGHTS\".\n   ** Warning ** GetInternalHeatGains: Lights Combination of ZoneList and Object Name generate a name too long.\n   **   ~~~   ** Object Name=\"SPACE FUNCTION AUDIENCE SEATING AREA PERMANENT - OTHER-SCH-F LIGHTS\".\n   **   ~~~   ** ZoneList/Zone Name=\"AUDIENCE SEATING AREA PERMANENT - OTHER-SCH-F-SPACE FUNCTION ZN\".\n   **   ~~~   ** Item length=[130] > Maximum Length=[100]. You may need to shorten the names.\n   **   ~~~   ** Shortening the Object Name by [31] characters will assure uniqueness for this ZoneList.\n   **   ~~~   ** name that will be used (may be needed in reporting)=\"AUDIENCE SEATING AREA PERMANENT - OTHER-SCH-F-SPACE FUNCTION ZN SPACE FUNCTION AUDIENCE SEATING AREA PERMANENT - OTHER-SCH-F LIGHTS\".\n   ** Warning ** GetInternalHeatGains: Lights Combination of ZoneList and Object Name generate a name too long.\n   **   ~~~   ** Object Name=\"SPACE FUNCTION AUDIENCE SEATING AREA PERMANENT - OTHER-SCH-G LIGHTS\".\n   **   ~~~   ** ZoneList/Zone Name=\"AUDIENCE SEATING AREA PERMANENT - OTHER-SCH-G-SPACE FUNCTION ZN\".\n   **   ~~~   ** Item length=[130] > Maximum Length=[100]. You may need to shorten the names.\n   **   ~~~   ** Shortening the Object Name by [31] characters will assure uniqueness for this ZoneList.\n   **   ~~~   ** name that will be used (may be needed in reporting)=\"AUDIENCE SEATING AREA PERMANENT - OTHER-SCH-G-SPACE FUNCTION ZN SPACE FUNCTION AUDIENCE SEATING AREA PERMANENT - OTHER-SCH-G LIGHTS\".\n   ** Warning ** GetInternalHeatGains: ElectricEquipment Combination of ZoneList and Object Name generate a name too long.\n   **   ~~~   ** Object Name=\"SPACE FUNCTION AUDIENCE SEATING AREA PERMANENT - OTHER-SCH-C ELEC EQUIP\".\n   **   ~~~   ** ZoneList/Zone Name=\"AUDIENCE SEATING AREA PERMANENT - OTHER-SCH-C-SPACE FUNCTION ZN\".\n   **   ~~~   ** Item length=[134] > Maximum Length=[100]. You may need to shorten the names.\n   **   ~~~   ** Shortening the Object Name by [35] characters will assure uniqueness for this ZoneList.\n   **   ~~~   ** name that will be used (may be needed in reporting)=\"AUDIENCE SEATING AREA PERMANENT - OTHER-SCH-C-SPACE FUNCTION ZN SPACE FUNCTION AUDIENCE SEATING AREA PERMANENT - OTHER-SCH-C ELEC EQUIP\".\n   ** Warning ** GetInternalHeatGains: ElectricEquipment Combination of ZoneList and Object Name generate a name too long.\n   **   ~~~   ** Object Name=\"SPACE FUNCTION AUDIENCE SEATING AREA PERMANENT - OTHER-SCH-D ELEC EQUIP\".\n   **   ~~~   ** ZoneList/Zone Name=\"AUDIENCE SEATING AREA PERMANENT - OTHER-SCH-D-SPACE FUNCTION ZN\".\n   **   ~~~   ** Item length=[134] > Maximum Length=[100]. You may need to shorten the names.\n   **   ~~~   ** Shortening the Object Name by [35] characters will assure uniqueness for this ZoneList.\n   **   ~~~   ** name that will be used (may be needed in reporting)=\"AUDIENCE SEATING AREA PERMANENT - OTHER-SCH-D-SPACE FUNCTION ZN SPACE FUNCTION AUDIENCE SEATING AREA PERMANENT - OTHER-SCH-D ELEC EQUIP\".\n   ** Warning ** GetInternalHeatGains: ElectricEquipment Combination of ZoneList and Object Name generate a name too long.\n   **   ~~~   ** Object Name=\"SPACE FUNCTION AUDIENCE SEATING AREA PERMANENT - OTHER-SCH-E ELEC EQUIP\".\n   **   ~~~   ** ZoneList/Zone Name=\"AUDIENCE SEATING AREA PERMANENT - OTHER-SCH-E-SPACE FUNCTION ZN\".\n   **   ~~~   ** Item length=[134] > Maximum Length=[100]. You may need to shorten the names.\n   **   ~~~   ** Shortening the Object Name by [35] characters will assure uniqueness for this ZoneList.\n   **   ~~~   ** name that will be used (may be needed in reporting)=\"AUDIENCE SEATING AREA PERMANENT - OTHER-SCH-E-SPACE FUNCTION ZN SPACE FUNCTION AUDIENCE SEATING AREA PERMANENT - OTHER-SCH-E ELEC EQUIP\".\n   ** Warning ** GetInternalHeatGains: ElectricEquipment Combination of ZoneList and Object Name generate a name too long.\n   **   ~~~   ** Object Name=\"SPACE FUNCTION AUDIENCE SEATING AREA PERMANENT - OTHER-SCH-F ELEC EQUIP\".\n   **   ~~~   ** ZoneList/Zone Name=\"AUDIENCE SEATING AREA PERMANENT - OTHER-SCH-F-SPACE FUNCTION ZN\".\n   **   ~~~   ** Item length=[134] > Maximum Length=[100]. You may need to shorten the names.\n   **   ~~~   ** Shortening the Object Name by [35] characters will assure uniqueness for this ZoneList.\n   **   ~~~   ** name that will be used (may be needed in reporting)=\"AUDIENCE SEATING AREA PERMANENT - OTHER-SCH-F-SPACE FUNCTION ZN SPACE FUNCTION AUDIENCE SEATING AREA PERMANENT - OTHER-SCH-F ELEC EQUIP\".\n   ** Warning ** GetInternalHeatGains: ElectricEquipment Combination of ZoneList and Object Name generate a name too long.\n   **   ~~~   ** Object Name=\"SPACE FUNCTION AUDIENCE SEATING AREA PERMANENT - OTHER-SCH-G ELEC EQUIP\".\n   **   ~~~   ** ZoneList/Zone Name=\"AUDIENCE SEATING AREA PERMANENT - OTHER-SCH-G-SPACE FUNCTION ZN\".\n   **   ~~~   ** Item length=[134] > Maximum Length=[100]. You may need to shorten the names.\n   **   ~~~   ** Shortening the Object Name by [35] characters will assure uniqueness for this ZoneList.\n   **   ~~~   ** name that will be used (may be needed in reporting)=\"AUDIENCE SEATING AREA PERMANENT - OTHER-SCH-G-SPACE FUNCTION ZN SPACE FUNCTION AUDIENCE SEATING AREA PERMANENT - OTHER-SCH-G ELEC EQUIP\".\n   ** Warning ** Calculated design heating load for zone=AUDIENCE SEATING AREA PERMANENT - OTHER-SCH-F-SPACE FUNCTION ZN is zero.\n   **   ~~~   ** Check Sizing:Zone and ZoneControl:Thermostat inputs.\n   ** Warning ** Calculated design heating load for zone=AUDIENCE SEATING AREA PERMANENT - OTHER-SCH-G-SPACE FUNCTION ZN is zero.\n   **   ~~~   ** Check Sizing:Zone and ZoneControl:Thermostat inputs.\n   ** Warning ** Output:Meter: invalid Key Name=\"GAS:FACILITY\" - not found.\n   ** Warning ** Output:Meter:MeterFileOnly: invalid Key Name=\"GAS:FACILITY\" - not found.\n   ** Warning ** Output:Meter:MeterFileOnly requested for \"Electricity:Facility\" (TimeStep), already on \"Output:Meter\". Will report to both eplusout.eso and eplusout.mtr\n   ************* Testing Individual Branch Integrity\n   ************* All Branches passed integrity testing\n   ************* Testing Individual Supply Air Path Integrity\n   ************* All Supply Air Paths passed integrity testing\n   ************* Testing Individual Return Air Path Integrity\n   ************* All Return Air Paths passed integrity testing\n   ************* No node connection errors were found.\n   ************* Beginning Simulation\n   ** Warning ** Output:Table:Monthly requested with SimulationControl Run Simulation for Weather File Run Periods set to No so Output:Table:Monthly will not be generated\n   ************* Simulation Error Summary *************\n   ************* There are 8 unused objects in input.\n   ************* Use Output:Diagnostics,DisplayUnusedObjects; to see them.\n   ************* There are 7 unused schedules in input.\n   ************* There are 7 unused week schedules in input.\n   ************* There are 10 unused day schedules in input.\n   ************* Use Output:Diagnostics,DisplayUnusedSchedules; to see them.\n   *************\n   ************* ===== Final Error Summary =====\n   ************* The following error categories occurred.  Consider correcting or noting.\n   ************* Nominally Unused Constructions\n   ************* ..The nominally unused constructions warning is provided to alert you to potential conditions that can cause\n   ************* ..extra time during simulation. Each construction is calculated by the algorithm indicated in the HeatBalanceAlgorithm\n   ************* ..object. You may remove the constructions indicated (when you use the DisplayExtraWarnings option).\n   *************\n   ************* EnergyPlus Warmup Error Summary. During Warmup: 0 Warning; 0 Severe Errors.\n   ************* EnergyPlus Sizing Error Summary. During Sizing: 23 Warning; 0 Severe Errors.\n   ************* EnergyPlus Completed Successfully-- 27 Warning; 0 Severe Errors; Elapsed Time=00hr 00min  1.18sec\n",
   "hash" : "F769BE4F",
   "seed_file" : "in.osm",
   "started_at" : "20190404T175959Z",
   "steps" : [],
   "updated_at" : "20190404T180001Z",
   "weather_file" : "in.epw"
}
