Program Version,EnergyPlus, Version 8.9.0-eba93e8e1b, YMD=2019.03.19 18:36
! <Version>, Version ID
 Version, 8.9
! <Timesteps per Hour>, #TimeSteps, Minutes per TimeStep {minutes}
 Timesteps per Hour,  6, 10
! <System Convergence Limits>, Minimum System TimeStep {minutes}, Max HVAC Iterations, Minimum Plant Iterations, Maximum Plant Iterations
 System Convergence Limits, 1, 20, 2, 8
! <Simulation Control>, Do Zone Sizing, Do System Sizing, Do Plant Sizing, Do Design Days, Do Weather Simulation, Do HVAC Sizing Simulation
 Simulation Control, Yes, No, No, Yes, No, No
! <Output Reporting Tolerances>, Tolerance for Time Heating Setpoint Not Met, Tolerance for Zone Cooling Setpoint Not Met Time
 Output Reporting Tolerances, 0.200, 0.200, 
! <Site:GroundTemperature:BuildingSurface>,Jan{C},Feb{C},Mar{C},Apr{C},May{C},Jun{C},Jul{C},Aug{C},Sep{C},Oct{C},Nov{C},Dec{C}
 Site:GroundTemperature:BuildingSurface,  19.53,  19.50,  19.54,  19.60,  20.00,  21.64,  22.23,  22.38,  21.45,  20.12,  19.80,  19.63
! <Site:GroundTemperature:FCfactorMethod>,Jan{C},Feb{C},Mar{C},Apr{C},May{C},Jun{C},Jul{C},Aug{C},Sep{C},Oct{C},Nov{C},Dec{C}
 Site:GroundTemperature:FCfactorMethod, -12.27, -13.66, -11.19,  -7.33,   2.77,  10.57,  15.83,  17.43,  14.70,   8.65,   0.56,  -6.95
! <Site:GroundTemperature:Shallow>,Jan{C},Feb{C},Mar{C},Apr{C},May{C},Jun{C},Jul{C},Aug{C},Sep{C},Oct{C},Nov{C},Dec{C}
 Site:GroundTemperature:Shallow,  13.00,  13.00,  13.00,  13.00,  13.00,  13.00,  13.00,  13.00,  13.00,  13.00,  13.00,  13.00
! <Site:GroundTemperature:Deep>,Jan{C},Feb{C},Mar{C},Apr{C},May{C},Jun{C},Jul{C},Aug{C},Sep{C},Oct{C},Nov{C},Dec{C}
 Site:GroundTemperature:Deep,  16.00,  16.00,  16.00,  16.00,  16.00,  16.00,  16.00,  16.00,  16.00,  16.00,  16.00,  16.00
! <Site:GroundReflectance>,Jan{dimensionless},Feb{dimensionless},Mar{dimensionless},Apr{dimensionless},May{dimensionless},Jun{dimensionless},Jul{dimensionless},Aug{dimensionless},Sep{dimensionless},Oct{dimensionless},Nov{dimensionless},Dec{dimensionless}
 Site:GroundReflectance,  0.20,  0.20,  0.20,  0.20,  0.20,  0.20,  0.20,  0.20,  0.20,  0.20,  0.20,  0.20
! <Site:GroundReflectance:SnowModifier>, Normal, Daylighting {dimensionless}
 Site:GroundReflectance:SnowModifier,   1.000,   1.000
! <Site:GroundReflectance:Snow>,Jan{dimensionless},Feb{dimensionless},Mar{dimensionless},Apr{dimensionless},May{dimensionless},Jun{dimensionless},Jul{dimensionless},Aug{dimensionless},Sep{dimensionless},Oct{dimensionless},Nov{dimensionless},Dec{dimensionless}
 Site:GroundReflectance:Snow,  0.20,  0.20,  0.20,  0.20,  0.20,  0.20,  0.20,  0.20,  0.20,  0.20,  0.20,  0.20
! <Site:GroundReflectance:Snow:Daylighting>,Jan{dimensionless},Feb{dimensionless},Mar{dimensionless},Apr{dimensionless},May{dimensionless},Jun{dimensionless},Jul{dimensionless},Aug{dimensionless},Sep{dimensionless},Oct{dimensionless},Nov{dimensionless},Dec{dimensionless}
 Site:GroundReflectance:Snow:Daylighting,  0.20,  0.20,  0.20,  0.20,  0.20,  0.20,  0.20,  0.20,  0.20,  0.20,  0.20,  0.20
! <Environment:Weather Station>,Wind Sensor Height Above Ground {m},Wind Speed Profile Exponent {},Wind Speed Profile Boundary Layer Thickness {m},Air Temperature Sensor Height Above Ground {m},Wind Speed Modifier Coefficient-Internal,Temperature Modifier Coefficient-Internal
Environment:Weather Station,10.000,0.140,270.000,1.500,1.586,9.750E-003
! <Site:Location>, Location Name, Latitude {N+/S- Deg}, Longitude {E+/W- Deg},  Time Zone Number {GMT+/-}, Elevation {m},  Standard Pressure at Elevation {Pa}, Standard RhoAir at Elevation
Site:Location,Fort McMurray AP AB CAN CWEC2016 WMO#=716890,56.65,-111.22,-7.00,369.10,96969,1.1525
! <Building Information>, Building Name,North Axis {deg},Terrain,  Loads Convergence Tolerance Value,Temperature Convergence Tolerance Value,  Solar Distribution,Maximum Number of Warmup Days,Minimum Number of Warmup Days
 Building Information,Building 1,0.000,Suburbs,4.00000E-002,0.40000,FullExterior,25,6
! <Inside Convection Algorithm>, Algorithm {Simple | TARP | CeilingDiffuser | AdaptiveConvectionAlgorithm}
Inside Convection Algorithm,TARP
! <Outside Convection Algorithm>, Algorithm {SimpleCombined | TARP | MoWitt | DOE-2 | AdaptiveConvectionAlgorithm}
Outside Convection Algorithm,TARP
! <Sky Radiance Distribution>, Value {Anisotropic}
Sky Radiance Distribution,Anisotropic
! <Zone Air Solution Algorithm>, Value {ThirdOrderBackwardDifference | AnalyticalSolution | EulerMethod}
 Zone Air Solution Algorithm, ThirdOrderBackwardDifference
! <Zone Air Carbon Dioxide Balance Simulation>, Simulation {Yes/No}, Carbon Dioxide Concentration
 Zone Air Carbon Dioxide Balance Simulation, No,N/A
! <Zone Air Generic Contaminant Balance Simulation>, Simulation {Yes/No}, Generic Contaminant Concentration
 Zone Air Generic Contaminant Balance Simulation, No,N/A
! <Zone Air Mass Flow Balance Simulation>, Enforce Mass Balance, Adjust Zone Mixing, Adjust Zone Infiltration {AddInfiltration | AdjustInfiltration | None}, Infiltration Zones {MixingSourceZonesOnly | AllZones}
 Zone Air Mass Flow Balance Simulation, No,N/A,N/A,N/A
! <HVACSystemRootFindingAlgorithm>, Value {RegulaFalsi | Bisection | BisectionThenRegulaFalsi | RegulaFalsiThenBisection}
 HVACSystemRootFindingAlgorithm, RegulaFalsi
! <Environment:Site Atmospheric Variation>,Wind Speed Profile Exponent {},Wind Speed Profile Boundary Layer Thickness {m},Air Temperature Gradient Coefficient {K/m}
Environment:Site Atmospheric Variation,0.220,370.000,6.500000E-003
! <Surface Geometry>,Starting Corner,Vertex Input Direction,Coordinate System,Daylight Reference Point Coordinate System,Rectangular (Simple) Surface Coordinate System
 Surface Geometry,UpperLeftCorner,Counterclockwise,RelativeCoordinateSystem,RelativeCoordinateSystem,RelativeToZoneOrigin
! <Surface Heat Transfer Algorithm>, Value {CTF - ConductionTransferFunction | EMPD - MoisturePenetrationDepthConductionTransferFunction | CondFD - ConductionFiniteDifference | HAMT - CombinedHeatAndMoistureFiniteElement} - Description,Inside Surface Max Temperature Limit{C}, Surface Convection Coefficient Lower Limit {W/m2-K}, Surface Convection Coefficient Upper Limit {W/m2-K}
Surface Heat Transfer Algorithm, CTF - ConductionTransferFunction,200,0.10,1000.0
! <Shading Summary>, Number of Fixed Detached Shades, Number of Building Detached Shades, Number of Attached Shades
 Shading Summary,0,0,0
! <Zone Summary>, Number of Zones, Number of Zone Surfaces, Number of SubSurfaces
 Zone Summary,20,137,17
! <Zone Information>,Zone Name,North Axis {deg},Origin X-Coordinate {m},Origin Y-Coordinate {m},Origin Z-Coordinate {m},Centroid X-Coordinate {m},Centroid Y-Coordinate {m},Centroid Z-Coordinate {m},Type,Zone Multiplier,Zone List Multiplier,Minimum X {m},Maximum X {m},Minimum Y {m},Maximum Y {m},Minimum Z {m},Maximum Z {m},Ceiling Height {m},Volume {m3},Zone Inside Convection Algorithm {Simple-Detailed-CeilingDiffuser-TrombeWall},Zone Outside Convection Algorithm {Simple-Detailed-Tarp-MoWitt-DOE-2-BLAST}, Floor Area {m2},Exterior Gross Wall Area {m2},Exterior Net Wall Area {m2},Exterior Window Area {m2}, Number of Surfaces, Number of SubSurfaces, Number of Shading SubSurfaces,  Part of Total Building Area
 Zone Information, DINING - BAR LOUNGE/LEISURE-SPACE FUNCTION ZN,0.0,25.00,25.00,11.40,50.00,50.00,13.30,1,1,1,25.00,75.00,25.00,75.00,11.40,15.20,3.80,9500.00,TARP,TARP,2500.00,0.00,0.00,125.00,6,1,0,Yes
 Zone Information, DINING - FAMILY SPACE-SPACE FUNCTION ZN,0.0,75.00,25.00,11.40,89.15,50.00,13.30,1,1,1,75.00,100.00,0.00,100.00,11.40,15.20,3.80,7125.00,TARP,TARP,1875.00,380.00,285.00,188.75,6,2,0,Yes
 Zone Information, DINING - OTHER-SPACE FUNCTION ZN,0.0,25.00,75.00,11.40,50.00,89.15,13.30,1,1,1,0.00,100.00,75.00,100.00,11.40,15.20,3.80,7125.00,TARP,TARP,1875.00,380.00,285.00,188.75,6,2,0,Yes
 Zone Information, DORMITORY - LIVING QUARTERS-SPACE FUNCTION ZN,0.0,25.00,25.00,7.60,50.00,50.00,9.50,1,1,1,25.00,75.00,25.00,75.00,7.60,11.40,3.80,9500.00,TARP,TARP,2500.00,0.00,0.00,0.00,6,0,0,Yes
 Zone Information, DRESS./FITT. - PERFORMANCE ARTS-SPACE FUNCTION ZN,0.0,0.00,0.00,7.60,10.85,50.00,9.50,1,1,1,0.00,25.00,0.00,100.00,7.60,11.40,3.80,7125.00,TARP,TARP,1875.00,380.00,285.00,95.00,6,1,0,Yes
 Zone Information, DWELLING UNIT(S)-SPACE FUNCTION ZN,0.0,0.00,0.00,7.60,50.00,10.85,9.50,1,1,1,0.00,100.00,0.00,25.00,7.60,11.40,3.80,7125.00,TARP,TARP,1875.00,380.00,285.00,95.00,6,1,0,Yes
 Zone Information, ELECTRICAL/MECHANICAL-SCH-A-SPACE FUNCTION ZN,0.0,0.00,0.00,0.00,10.85,50.00,1.90,1,1,1,0.00,25.00,0.00,100.00,0.00,3.80,3.80,7125.00,TARP,TARP,1875.00,0.00,0.00,0.00,6,0,0,Yes
 Zone Information, ELECTRICAL/MECHANICAL-SCH-B-SPACE FUNCTION ZN,0.0,0.00,0.00,11.40,50.00,10.85,13.30,1,1,1,0.00,100.00,0.00,25.00,11.40,15.20,3.80,7125.00,TARP,TARP,1875.00,380.00,285.00,188.75,6,2,0,Yes
 Zone Information, ELECTRICAL/MECHANICAL-SCH-C-SPACE FUNCTION ZN,0.0,75.00,25.00,0.00,89.15,50.00,1.90,1,1,1,75.00,100.00,0.00,100.00,0.00,3.80,3.80,7125.00,TARP,TARP,1875.00,0.00,0.00,0.00,6,0,0,Yes
 Zone Information, ELECTRICAL/MECHANICAL-SCH-D-SPACE FUNCTION ZN,0.0,0.00,0.00,0.00,50.00,10.85,1.90,1,1,1,0.00,100.00,0.00,25.00,0.00,3.80,3.80,7125.00,TARP,TARP,1875.00,0.00,0.00,0.00,6,0,0,Yes
 Zone Information, ELECTRICAL/MECHANICAL-SCH-E-SPACE FUNCTION ZN,0.0,25.00,25.00,0.00,50.00,50.00,1.90,1,1,1,25.00,75.00,25.00,75.00,0.00,3.80,3.80,9500.00,TARP,TARP,2500.00,0.00,0.00,0.00,6,0,0,Yes
 Zone Information, ELECTRICAL/MECHANICAL-SCH-F-SPACE FUNCTION ZN,0.0,25.00,75.00,0.00,50.00,89.15,1.90,1,1,1,0.00,100.00,75.00,100.00,0.00,3.80,3.80,7125.00,TARP,TARP,1875.00,0.00,0.00,0.00,6,0,0,Yes
 Zone Information, ELECTRICAL/MECHANICAL-SCH-G-SPACE FUNCTION ZN,0.0,0.00,0.00,3.80,10.85,50.00,5.70,1,1,1,0.00,25.00,0.00,100.00,3.80,7.60,3.80,7125.00,TARP,TARP,1875.00,380.00,285.00,95.00,6,1,0,Yes
 Zone Information, ELECTRICAL/MECHANICAL-SCH-H-SPACE FUNCTION ZN,0.0,25.00,75.00,7.60,50.00,89.15,9.50,1,1,1,0.00,100.00,75.00,100.00,7.60,11.40,3.80,7125.00,TARP,TARP,1875.00,380.00,285.00,95.00,6,1,0,Yes
 Zone Information, ELECTRICAL/MECHANICAL-SCH-I-SPACE FUNCTION ZN,0.0,75.00,25.00,3.80,89.15,50.00,5.70,1,1,1,75.00,100.00,0.00,100.00,3.80,7.60,3.80,7125.00,TARP,TARP,1875.00,380.00,285.00,95.00,6,1,0,Yes
 Zone Information, FIRE STATION - ENGINE ROOM-SPACE FUNCTION ZN,0.0,25.00,75.00,3.80,50.00,89.15,5.70,1,1,1,0.00,100.00,75.00,100.00,3.80,7.60,3.80,7125.00,TARP,TARP,1875.00,380.00,285.00,95.00,6,1,0,Yes
 Zone Information, FIRE STATION - QUARTERS-SPACE FUNCTION ZN,0.0,0.00,0.00,11.40,10.85,50.00,13.30,1,1,1,0.00,25.00,0.00,100.00,11.40,15.20,3.80,7125.00,TARP,TARP,1875.00,380.00,285.00,188.75,6,2,0,Yes
 Zone Information, FOOD PREPARATION - VENTED-SPACE FUNCTION ZN,0.0,0.00,0.00,3.80,50.00,10.85,5.70,1,1,1,0.00,100.00,0.00,25.00,3.80,7.60,3.80,7125.00,TARP,TARP,1875.00,380.00,285.00,95.00,6,1,0,Yes
 Zone Information, FOOD PREPARATION-SPACE FUNCTION ZN,0.0,75.00,25.00,7.60,89.15,50.00,9.50,1,1,1,75.00,100.00,0.00,100.00,7.60,11.40,3.80,7125.00,TARP,TARP,1875.00,380.00,285.00,95.00,6,1,0,Yes
 Zone Information, GYM - AUDIENCE-SPACE FUNCTION ZN,0.0,25.00,25.00,3.80,50.00,50.00,5.70,1,1,1,25.00,75.00,25.00,75.00,3.80,7.60,3.80,9500.00,TARP,TARP,2500.00,0.00,0.00,0.00,6,0,0,Yes
! <Zone Internal Gains Nominal>,Zone Name, Floor Area {m2},# Occupants,Area per Occupant {m2/person},Occupant per Area {person/m2},Interior Lighting {W/m2},Electric Load {W/m2},Gas Load {W/m2},Other Load {W/m2},Hot Water Eq {W/m2},Steam Equipment {W/m2},Sum Loads per Area {W/m2},Outdoor Controlled Baseboard Heat
 Zone Internal Gains Nominal, DINING - BAR LOUNGE/LEISURE-SPACE FUNCTION ZN,2500.00,250.0,10.000,10.000E-002,14.100,1.000,0.000,0.000,0.000,0.000,15.100,No
 Zone Internal Gains Nominal, DINING - FAMILY SPACE-SPACE FUNCTION ZN,1875.00,187.5,10.000,10.000E-002,9.600,1.000,0.000,0.000,0.000,0.000,10.600,No
 Zone Internal Gains Nominal, DINING - OTHER-SPACE FUNCTION ZN,1875.00,187.5,10.000,10.000E-002,7.000,1.000,0.000,0.000,0.000,0.000,8.000,No
 Zone Internal Gains Nominal, DORMITORY - LIVING QUARTERS-SPACE FUNCTION ZN,2500.00,100.1,24.974,4.004E-002,4.100,2.500,0.000,0.000,0.000,0.000,6.600,No
 Zone Internal Gains Nominal, DRESS./FITT. - PERFORMANCE ARTS-SPACE FUNCTION ZN,1875.00,62.6,29.969,3.337E-002,3.870,2.500,0.000,0.000,0.000,0.000,6.370,No
 Zone Internal Gains Nominal, DWELLING UNIT(S)-SPACE FUNCTION ZN,1875.00,31.3,59.937,1.668E-002,5.000,5.000,0.000,0.000,0.000,0.000,10.000,No
 Zone Internal Gains Nominal, ELECTRICAL/MECHANICAL-SCH-A-SPACE FUNCTION ZN,1875.00,9.3,201.963,4.951E-003,13.300,1.000,0.000,0.000,0.000,0.000,14.300,No
 Zone Internal Gains Nominal, ELECTRICAL/MECHANICAL-SCH-B-SPACE FUNCTION ZN,1875.00,9.3,201.963,4.951E-003,13.300,1.000,0.000,0.000,0.000,0.000,14.300,No
 Zone Internal Gains Nominal, ELECTRICAL/MECHANICAL-SCH-C-SPACE FUNCTION ZN,1875.00,9.3,201.963,4.951E-003,13.300,1.000,0.000,0.000,0.000,0.000,14.300,No
 Zone Internal Gains Nominal, ELECTRICAL/MECHANICAL-SCH-D-SPACE FUNCTION ZN,1875.00,9.3,201.963,4.951E-003,13.300,1.000,0.000,0.000,0.000,0.000,14.300,No
 Zone Internal Gains Nominal, ELECTRICAL/MECHANICAL-SCH-E-SPACE FUNCTION ZN,2500.00,12.4,201.963,4.951E-003,13.300,1.000,0.000,0.000,0.000,0.000,14.300,No
 Zone Internal Gains Nominal, ELECTRICAL/MECHANICAL-SCH-F-SPACE FUNCTION ZN,1875.00,9.3,201.963,4.951E-003,13.300,1.000,0.000,0.000,0.000,0.000,14.300,No
 Zone Internal Gains Nominal, ELECTRICAL/MECHANICAL-SCH-G-SPACE FUNCTION ZN,1875.00,9.3,201.963,4.951E-003,13.300,1.000,0.000,0.000,0.000,0.000,14.300,No
 Zone Internal Gains Nominal, ELECTRICAL/MECHANICAL-SCH-H-SPACE FUNCTION ZN,1875.00,9.3,201.963,4.951E-003,13.300,1.000,0.000,0.000,0.000,0.000,14.300,No
 Zone Internal Gains Nominal, ELECTRICAL/MECHANICAL-SCH-I-SPACE FUNCTION ZN,1875.00,9.3,201.963,4.951E-003,13.300,1.000,0.000,0.000,0.000,0.000,14.300,No
 Zone Internal Gains Nominal, FIRE STATION - ENGINE ROOM-SPACE FUNCTION ZN,1875.00,75.1,24.974,4.004E-002,6.000,2.500,0.000,0.000,0.000,0.000,8.500,No
 Zone Internal Gains Nominal, FIRE STATION - QUARTERS-SPACE FUNCTION ZN,1875.00,75.1,24.974,4.004E-002,3.400,2.500,0.000,0.000,0.000,0.000,5.900,No
 Zone Internal Gains Nominal, FOOD PREPARATION - VENTED-SPACE FUNCTION ZN,1875.00,93.8,19.979,5.005E-002,10.700,10.000,0.000,0.000,0.000,0.000,20.700,No
 Zone Internal Gains Nominal, FOOD PREPARATION-SPACE FUNCTION ZN,1875.00,93.8,19.979,5.005E-002,10.700,10.000,0.000,0.000,0.000,0.000,20.700,No
 Zone Internal Gains Nominal, GYM - AUDIENCE-SPACE FUNCTION ZN,2500.00,500.0,5.000,0.200,4.600,0.000,0.000,0.000,0.000,0.000,4.600,No
! <People Internal Gains Nominal>,Name,Schedule Name,Zone Name,Zone Floor Area {m2},# Zone Occupants,Number of People {},People/Floor Area {person/m2},Floor Area per person {m2/person},Fraction Radiant,Fraction Convected,Sensible Fraction Calculation,Activity level,ASHRAE 55 Warnings,Carbon Dioxide Generation Rate,Nominal Minimum Number of People,Nominal Maximum Number of People
 People Internal Gains Nominal, DINING - BAR LOUNGE/LEISURE-SPACE FUNCTION ZN SPACE FUNCTION DINING - BAR LOUNGE/LEISURE PEOPLE,NECB-B-OCCUPANCY,DINING - BAR LOUNGE/LEISURE-SPACE FUNCTION ZN,2500.00,250.0,250.0,10.000E-002,10.000,0.300,0.700,AutoCalculate,NECB-ACTIVITY,No,3.8200E-008,0,225
 People Internal Gains Nominal, DINING - FAMILY SPACE-SPACE FUNCTION ZN SPACE FUNCTION DINING - FAMILY SPACE PEOPLE,NECB-B-OCCUPANCY,DINING - FAMILY SPACE-SPACE FUNCTION ZN,1875.00,187.5,187.5,10.000E-002,10.000,0.300,0.700,AutoCalculate,NECB-ACTIVITY,No,3.8200E-008,0,169
 People Internal Gains Nominal, DINING - OTHER-SPACE FUNCTION ZN SPACE FUNCTION DINING - OTHER PEOPLE,NECB-B-OCCUPANCY,DINING - OTHER-SPACE FUNCTION ZN,1875.00,187.5,187.5,10.000E-002,10.000,0.300,0.700,AutoCalculate,NECB-ACTIVITY,No,3.8200E-008,0,169
 People Internal Gains Nominal, DORMITORY - LIVING QUARTERS-SPACE FUNCTION ZN SPACE FUNCTION DORMITORY - LIVING QUARTERS PEOPLE,NECB-G-OCCUPANCY,DORMITORY - LIVING QUARTERS-SPACE FUNCTION ZN,2500.00,100.1,100.1,4.004E-002,24.974,0.300,0.700,AutoCalculate,NECB-ACTIVITY,No,3.8200E-008,30,90
 People Internal Gains Nominal, DRESS./FITT. - PERFORMANCE ARTS-SPACE FUNCTION ZN SPACE FUNCTION DRESS./FITT. - PERFORMANCE ARTS PEOPLE,NECB-C-OCCUPANCY,DRESS./FITT. - PERFORMANCE ARTS-SPACE FUNCTION ZN,1875.00,62.6,62.6,3.337E-002,29.969,0.300,0.700,AutoCalculate,NECB-ACTIVITY,No,3.8200E-008,0,56
 People Internal Gains Nominal, DWELLING UNIT(S)-SPACE FUNCTION ZN SPACE FUNCTION DWELLING UNIT(S) PEOPLE,NECB-G-OCCUPANCY,DWELLING UNIT(S)-SPACE FUNCTION ZN,1875.00,31.3,31.3,1.668E-002,59.937,0.300,0.700,AutoCalculate,NECB-ACTIVITY,No,3.8200E-008,9,28
 People Internal Gains Nominal, ELECTRICAL/MECHANICAL-SCH-A-SPACE FUNCTION ZN SPACE FUNCTION ELECTRICAL/MECHANICAL-SCH-A PEOPLE,NECB-A-OCCUPANCY,ELECTRICAL/MECHANICAL-SCH-A-SPACE FUNCTION ZN,1875.00,9.3,9.3,4.951E-003,201.963,0.300,0.700,AutoCalculate,NECB-ACTIVITY,No,3.8200E-008,0,8
 People Internal Gains Nominal, ELECTRICAL/MECHANICAL-SCH-B-SPACE FUNCTION ZN SPACE FUNCTION ELECTRICAL/MECHANICAL-SCH-B PEOPLE,NECB-B-OCCUPANCY,ELECTRICAL/MECHANICAL-SCH-B-SPACE FUNCTION ZN,1875.00,9.3,9.3,4.951E-003,201.963,0.300,0.700,AutoCalculate,NECB-ACTIVITY,No,3.8200E-008,0,8
 People Internal Gains Nominal, ELECTRICAL/MECHANICAL-SCH-C-SPACE FUNCTION ZN SPACE FUNCTION ELECTRICAL/MECHANICAL-SCH-C PEOPLE,NECB-C-OCCUPANCY,ELECTRICAL/MECHANICAL-SCH-C-SPACE FUNCTION ZN,1875.00,9.3,9.3,4.951E-003,201.963,0.300,0.700,AutoCalculate,NECB-ACTIVITY,No,3.8200E-008,0,8
 People Internal Gains Nominal, ELECTRICAL/MECHANICAL-SCH-D-SPACE FUNCTION ZN SPACE FUNCTION ELECTRICAL/MECHANICAL-SCH-D PEOPLE,NECB-D-OCCUPANCY,ELECTRICAL/MECHANICAL-SCH-D-SPACE FUNCTION ZN,1875.00,9.3,9.3,4.951E-003,201.963,0.300,0.700,AutoCalculate,NECB-ACTIVITY,No,3.8200E-008,0,8
 People Internal Gains Nominal, ELECTRICAL/MECHANICAL-SCH-E-SPACE FUNCTION ZN SPACE FUNCTION ELECTRICAL/MECHANICAL-SCH-E PEOPLE,NECB-E-OCCUPANCY,ELECTRICAL/MECHANICAL-SCH-E-SPACE FUNCTION ZN,2500.00,12.4,12.4,4.951E-003,201.963,0.300,0.700,AutoCalculate,NECB-ACTIVITY,No,3.8200E-008,0,11
 People Internal Gains Nominal, ELECTRICAL/MECHANICAL-SCH-F-SPACE FUNCTION ZN SPACE FUNCTION ELECTRICAL/MECHANICAL-SCH-F PEOPLE,NECB-F-OCCUPANCY,ELECTRICAL/MECHANICAL-SCH-F-SPACE FUNCTION ZN,1875.00,9.3,9.3,4.951E-003,201.963,0.300,0.700,AutoCalculate,NECB-ACTIVITY,No,3.8200E-008,2,8
 People Internal Gains Nominal, ELECTRICAL/MECHANICAL-SCH-G-SPACE FUNCTION ZN SPACE FUNCTION ELECTRICAL/MECHANICAL-SCH-G PEOPLE,NECB-G-OCCUPANCY,ELECTRICAL/MECHANICAL-SCH-G-SPACE FUNCTION ZN,1875.00,9.3,9.3,4.951E-003,201.963,0.300,0.700,AutoCalculate,NECB-ACTIVITY,No,3.8200E-008,3,8
 People Internal Gains Nominal, ELECTRICAL/MECHANICAL-SCH-H-SPACE FUNCTION ZN SPACE FUNCTION ELECTRICAL/MECHANICAL-SCH-H PEOPLE,NECB-H-OCCUPANCY,ELECTRICAL/MECHANICAL-SCH-H-SPACE FUNCTION ZN,1875.00,9.3,9.3,4.951E-003,201.963,0.300,0.700,AutoCalculate,NECB-ACTIVITY,No,3.8200E-008,8,8
 People Internal Gains Nominal, ELECTRICAL/MECHANICAL-SCH-I-SPACE FUNCTION ZN SPACE FUNCTION ELECTRICAL/MECHANICAL-SCH-I PEOPLE,NECB-I-OCCUPANCY,ELECTRICAL/MECHANICAL-SCH-I-SPACE FUNCTION ZN,1875.00,9.3,9.3,4.951E-003,201.963,0.300,0.700,AutoCalculate,NECB-ACTIVITY,No,3.8200E-008,0,7
 People Internal Gains Nominal, FIRE STATION - ENGINE ROOM-SPACE FUNCTION ZN SPACE FUNCTION FIRE STATION - ENGINE ROOM PEOPLE,NECB-H-OCCUPANCY,FIRE STATION - ENGINE ROOM-SPACE FUNCTION ZN,1875.00,75.1,75.1,4.004E-002,24.974,0.300,0.700,AutoCalculate,NECB-ACTIVITY,No,3.8200E-008,68,68
 People Internal Gains Nominal, FIRE STATION - QUARTERS-SPACE FUNCTION ZN SPACE FUNCTION FIRE STATION - QUARTERS PEOPLE,NECB-G-OCCUPANCY,FIRE STATION - QUARTERS-SPACE FUNCTION ZN,1875.00,75.1,75.1,4.004E-002,24.974,0.300,0.700,AutoCalculate,NECB-ACTIVITY,No,3.8200E-008,23,68
 People Internal Gains Nominal, FOOD PREPARATION-SPACE FUNCTION ZN SPACE FUNCTION FOOD PREPARATION PEOPLE,NECB-B-OCCUPANCY,FOOD PREPARATION-SPACE FUNCTION ZN,1875.00,93.8,93.8,5.005E-002,19.979,0.300,0.700,AutoCalculate,NECB-ACTIVITY,No,3.8200E-008,0,84
 People Internal Gains Nominal, FOOD PREPARATION - VENTED-SPACE FUNCTION ZN SPACE FUNCTION FOOD PREPARATION - VENTED PEOPLE,NECB-B-OCCUPANCY,FOOD PREPARATION - VENTED-SPACE FUNCTION ZN,1875.00,93.8,93.8,5.005E-002,19.979,0.300,0.700,AutoCalculate,NECB-ACTIVITY,No,3.8200E-008,0,84
 People Internal Gains Nominal, GYM - AUDIENCE-SPACE FUNCTION ZN SPACE FUNCTION GYM - AUDIENCE PEOPLE,NECB-B-OCCUPANCY,GYM - AUDIENCE-SPACE FUNCTION ZN,2500.00,500.0,500.0,0.200,5.000,0.300,0.700,AutoCalculate,NECB-ACTIVITY,No,3.8200E-008,0,450
! <Lights Internal Gains Nominal>,Name,Schedule Name,Zone Name,Zone Floor Area {m2},# Zone Occupants,Lighting Level {W},Lights/Floor Area {W/m2},Lights per person {W/person},Fraction Return Air,Fraction Radiant,Fraction Short Wave,Fraction Convected,Fraction Replaceable,End-Use Category,Nominal Minimum Lighting Level {W},Nominal Maximum Lighting Level {W}
 Lights Internal Gains Nominal, DINING - BAR LOUNGE/LEISURE-SPACE FUNCTION ZN SPACE FUNCTION DINING - BAR LOUNGE/LEISURE LIGHTS,NECB-B-LIGHTING,DINING - BAR LOUNGE/LEISURE-SPACE FUNCTION ZN,2500.00,250.0,35249.707,14.100,141.003,0.000,0.500,0.200,0.300,1.000,General,3524.971,31724.736
 Lights Internal Gains Nominal, DINING - FAMILY SPACE-SPACE FUNCTION ZN SPACE FUNCTION DINING - FAMILY SPACE LIGHTS,NECB-B-LIGHTING,DINING - FAMILY SPACE-SPACE FUNCTION ZN,1875.00,187.5,17999.850,9.600,96.002,0.000,0.500,0.200,0.300,1.000,General,1799.985,16199.865
 Lights Internal Gains Nominal, DINING - OTHER-SPACE FUNCTION ZN SPACE FUNCTION DINING - OTHER LIGHTS,NECB-B-LIGHTING,DINING - OTHER-SPACE FUNCTION ZN,1875.00,187.5,13124.891,7.000,70.002,0.000,0.500,0.200,0.300,1.000,General,1312.489,11812.402
 Lights Internal Gains Nominal, DORMITORY - LIVING QUARTERS-SPACE FUNCTION ZN SPACE FUNCTION DORMITORY - LIVING QUARTERS LIGHTS,NECB-G-LIGHTING,DORMITORY - LIVING QUARTERS-SPACE FUNCTION ZN,2500.00,100.1,10249.915,4.100,102.392,0.000,0.500,0.200,0.300,1.000,General,0.000,9224.923
 Lights Internal Gains Nominal, DRESS./FITT. - PERFORMANCE ARTS-SPACE FUNCTION ZN SPACE FUNCTION DRESS./FITT. - PERFORMANCE ARTS LIGHTS,NECB-C-LIGHTING,DRESS./FITT. - PERFORMANCE ARTS-SPACE FUNCTION ZN,1875.00,62.6,7256.190,3.870,115.978,0.000,0.500,0.200,0.300,1.000,General,362.809,6530.571
 Lights Internal Gains Nominal, DWELLING UNIT(S)-SPACE FUNCTION ZN SPACE FUNCTION DWELLING UNIT(S) LIGHTS,NECB-G-LIGHTING,DWELLING UNIT(S)-SPACE FUNCTION ZN,1875.00,31.3,9374.922,5.000,299.685,0.000,0.500,0.200,0.300,1.000,General,0.000,8437.430
 Lights Internal Gains Nominal, ELECTRICAL/MECHANICAL-SCH-A-SPACE FUNCTION ZN SPACE FUNCTION ELECTRICAL/MECHANICAL-SCH-A LIGHTS,NECB-A-LIGHTING,ELECTRICAL/MECHANICAL-SCH-A-SPACE FUNCTION ZN,1875.00,9.3,24937.292,13.300,2686.087,0.000,0.500,0.200,0.300,1.000,General,1246.865,22443.563
 Lights Internal Gains Nominal, ELECTRICAL/MECHANICAL-SCH-B-SPACE FUNCTION ZN SPACE FUNCTION ELECTRICAL/MECHANICAL-SCH-B LIGHTS,NECB-B-LIGHTING,ELECTRICAL/MECHANICAL-SCH-B-SPACE FUNCTION ZN,1875.00,9.3,24937.292,13.300,2686.087,0.000,0.500,0.200,0.300,1.000,General,2493.729,22443.563
 Lights Internal Gains Nominal, ELECTRICAL/MECHANICAL-SCH-C-SPACE FUNCTION ZN SPACE FUNCTION ELECTRICAL/MECHANICAL-SCH-C LIGHTS,NECB-C-LIGHTING,ELECTRICAL/MECHANICAL-SCH-C-SPACE FUNCTION ZN,1875.00,9.3,24937.292,13.300,2686.087,0.000,0.500,0.200,0.300,1.000,General,1246.865,22443.563
 Lights Internal Gains Nominal, ELECTRICAL/MECHANICAL-SCH-D-SPACE FUNCTION ZN SPACE FUNCTION ELECTRICAL/MECHANICAL-SCH-D LIGHTS,NECB-D-LIGHTING,ELECTRICAL/MECHANICAL-SCH-D-SPACE FUNCTION ZN,1875.00,9.3,24937.292,13.300,2686.087,0.000,0.500,0.200,0.300,1.000,General,1246.865,22443.563
 Lights Internal Gains Nominal, ELECTRICAL/MECHANICAL-SCH-E-SPACE FUNCTION ZN SPACE FUNCTION ELECTRICAL/MECHANICAL-SCH-E LIGHTS,NECB-E-LIGHTING,ELECTRICAL/MECHANICAL-SCH-E-SPACE FUNCTION ZN,2500.00,12.4,33249.723,13.300,2686.087,0.000,0.500,0.200,0.300,1.000,General,1662.486,29924.751
 Lights Internal Gains Nominal, ELECTRICAL/MECHANICAL-SCH-F-SPACE FUNCTION ZN SPACE FUNCTION ELECTRICAL/MECHANICAL-SCH-F LIGHTS,NECB-F-LIGHTING,ELECTRICAL/MECHANICAL-SCH-F-SPACE FUNCTION ZN,1875.00,9.3,24937.292,13.300,2686.087,0.000,0.500,0.200,0.300,1.000,General,2493.729,22443.563
 Lights Internal Gains Nominal, ELECTRICAL/MECHANICAL-SCH-G-SPACE FUNCTION ZN SPACE FUNCTION ELECTRICAL/MECHANICAL-SCH-G LIGHTS,NECB-G-LIGHTING,ELECTRICAL/MECHANICAL-SCH-G-SPACE FUNCTION ZN,1875.00,9.3,24937.292,13.300,2686.087,0.000,0.500,0.200,0.300,1.000,General,0.000,22443.563
 Lights Internal Gains Nominal, ELECTRICAL/MECHANICAL-SCH-H-SPACE FUNCTION ZN SPACE FUNCTION ELECTRICAL/MECHANICAL-SCH-H LIGHTS,NECB-H-LIGHTING,ELECTRICAL/MECHANICAL-SCH-H-SPACE FUNCTION ZN,1875.00,9.3,24937.292,13.300,2686.087,0.000,0.500,0.200,0.300,1.000,General,22443.563,22443.563
 Lights Internal Gains Nominal, ELECTRICAL/MECHANICAL-SCH-I-SPACE FUNCTION ZN SPACE FUNCTION ELECTRICAL/MECHANICAL-SCH-I LIGHTS,NECB-I-LIGHTING,ELECTRICAL/MECHANICAL-SCH-I-SPACE FUNCTION ZN,1875.00,9.3,24937.292,13.300,2686.087,0.000,0.500,0.200,0.300,1.000,General,1246.865,22443.563
 Lights Internal Gains Nominal, FIRE STATION - ENGINE ROOM-SPACE FUNCTION ZN SPACE FUNCTION FIRE STATION - ENGINE ROOM LIGHTS,NECB-H-LIGHTING,FIRE STATION - ENGINE ROOM-SPACE FUNCTION ZN,1875.00,75.1,11249.906,6.000,149.842,0.000,0.500,0.200,0.300,1.000,General,10124.916,10124.916
 Lights Internal Gains Nominal, FIRE STATION - QUARTERS-SPACE FUNCTION ZN SPACE FUNCTION FIRE STATION - QUARTERS LIGHTS,NECB-G-LIGHTING,FIRE STATION - QUARTERS-SPACE FUNCTION ZN,1875.00,75.1,6374.947,3.400,84.911,0.000,0.500,0.200,0.300,1.000,General,0.000,5737.452
 Lights Internal Gains Nominal, FOOD PREPARATION-SPACE FUNCTION ZN SPACE FUNCTION FOOD PREPARATION LIGHTS,NECB-B-LIGHTING,FOOD PREPARATION-SPACE FUNCTION ZN,1875.00,93.8,20062.333,10.700,213.775,0.000,0.500,0.200,0.300,1.000,General,2006.233,18056.100
 Lights Internal Gains Nominal, FOOD PREPARATION - VENTED-SPACE FUNCTION ZN SPACE FUNCTION FOOD PREPARATION - VENTED LIGHTS,NECB-B-LIGHTING,FOOD PREPARATION - VENTED-SPACE FUNCTION ZN,1875.00,93.8,20062.333,10.700,213.775,0.000,0.500,0.200,0.300,1.000,General,2006.233,18056.100
 Lights Internal Gains Nominal, GYM - AUDIENCE-SPACE FUNCTION ZN SPACE FUNCTION GYM - AUDIENCE LIGHTS,NECB-B-LIGHTING,GYM - AUDIENCE-SPACE FUNCTION ZN,2500.00,500.0,11499.904,4.600,23.001,0.000,0.500,0.200,0.300,1.000,General,1149.990,10349.914
! <ElectricEquipment Internal Gains Nominal>,Name,Schedule Name,Zone Name,Zone Floor Area {m2},# Zone Occupants,Equipment Level {W},Equipment/Floor Area {W/m2},Equipment per person {W/person},Fraction Latent,Fraction Radiant,Fraction Lost,Fraction Convected,End-Use SubCategory,Nominal Minimum Equipment Level {W},Nominal Maximum Equipment Level {W}
 ElectricEquipment Internal Gains Nominal, DINING - BAR LOUNGE/LEISURE-SPACE FUNCTION ZN SPACE FUNCTION DINING - BAR LOUNGE/LEISURE ELEC EQUIP,NECB-B-ELECTRIC-EQUIPMENT,DINING - BAR LOUNGE/LEISURE-SPACE FUNCTION ZN,2500.00,250.0,2499.979,1.000,10.000,0.000,0.500,0.000,0.500,General,249.998,2249.981
 ElectricEquipment Internal Gains Nominal, DINING - FAMILY SPACE-SPACE FUNCTION ZN SPACE FUNCTION DINING - FAMILY SPACE ELEC EQUIP,NECB-B-ELECTRIC-EQUIPMENT,DINING - FAMILY SPACE-SPACE FUNCTION ZN,1875.00,187.5,1874.984,1.000,10.000,0.000,0.500,0.000,0.500,General,187.498,1687.486
 ElectricEquipment Internal Gains Nominal, DINING - OTHER-SPACE FUNCTION ZN SPACE FUNCTION DINING - OTHER ELEC EQUIP,NECB-B-ELECTRIC-EQUIPMENT,DINING - OTHER-SPACE FUNCTION ZN,1875.00,187.5,1874.984,1.000,10.000,0.000,0.500,0.000,0.500,General,187.498,1687.486
 ElectricEquipment Internal Gains Nominal, DORMITORY - LIVING QUARTERS-SPACE FUNCTION ZN SPACE FUNCTION DORMITORY - LIVING QUARTERS ELEC EQUIP,NECB-G-ELECTRIC-EQUIPMENT,DORMITORY - LIVING QUARTERS-SPACE FUNCTION ZN,2500.00,100.1,6249.948,2.500,62.434,0.000,0.500,0.000,0.500,General,1249.990,5624.953
 ElectricEquipment Internal Gains Nominal, DRESS./FITT. - PERFORMANCE ARTS-SPACE FUNCTION ZN SPACE FUNCTION DRESS./FITT. - PERFORMANCE ARTS ELEC EQUIP,NECB-C-ELECTRIC-EQUIPMENT,DRESS./FITT. - PERFORMANCE ARTS-SPACE FUNCTION ZN,1875.00,62.6,4687.461,2.500,74.921,0.000,0.500,0.000,0.500,General,234.373,4218.715
 ElectricEquipment Internal Gains Nominal, DWELLING UNIT(S)-SPACE FUNCTION ZN SPACE FUNCTION DWELLING UNIT(S) ELEC EQUIP,NECB-G-ELECTRIC-EQUIPMENT,DWELLING UNIT(S)-SPACE FUNCTION ZN,1875.00,31.3,9374.922,5.000,299.685,0.000,0.500,0.000,0.500,General,1874.984,8437.430
 ElectricEquipment Internal Gains Nominal, ELECTRICAL/MECHANICAL-SCH-A-SPACE FUNCTION ZN SPACE FUNCTION ELECTRICAL/MECHANICAL-SCH-A ELEC EQUIP,NECB-A-ELECTRIC-EQUIPMENT,ELECTRICAL/MECHANICAL-SCH-A-SPACE FUNCTION ZN,1875.00,9.3,1874.984,1.000,201.961,0.000,0.500,0.000,0.500,General,374.997,1687.486
 ElectricEquipment Internal Gains Nominal, ELECTRICAL/MECHANICAL-SCH-B-SPACE FUNCTION ZN SPACE FUNCTION ELECTRICAL/MECHANICAL-SCH-B ELEC EQUIP,NECB-B-ELECTRIC-EQUIPMENT,ELECTRICAL/MECHANICAL-SCH-B-SPACE FUNCTION ZN,1875.00,9.3,1874.984,1.000,201.961,0.000,0.500,0.000,0.500,General,187.498,1687.486
 ElectricEquipment Internal Gains Nominal, ELECTRICAL/MECHANICAL-SCH-C-SPACE FUNCTION ZN SPACE FUNCTION ELECTRICAL/MECHANICAL-SCH-C ELEC EQUIP,NECB-C-ELECTRIC-EQUIPMENT,ELECTRICAL/MECHANICAL-SCH-C-SPACE FUNCTION ZN,1875.00,9.3,1874.984,1.000,201.961,0.000,0.500,0.000,0.500,General,93.749,1687.486
 ElectricEquipment Internal Gains Nominal, ELECTRICAL/MECHANICAL-SCH-D-SPACE FUNCTION ZN SPACE FUNCTION ELECTRICAL/MECHANICAL-SCH-D ELEC EQUIP,NECB-D-ELECTRIC-EQUIPMENT,ELECTRICAL/MECHANICAL-SCH-D-SPACE FUNCTION ZN,1875.00,9.3,1874.984,1.000,201.961,0.000,0.500,0.000,0.500,General,93.749,1687.486
 ElectricEquipment Internal Gains Nominal, ELECTRICAL/MECHANICAL-SCH-E-SPACE FUNCTION ZN SPACE FUNCTION ELECTRICAL/MECHANICAL-SCH-E ELEC EQUIP,NECB-E-ELECTRIC-EQUIPMENT,ELECTRICAL/MECHANICAL-SCH-E-SPACE FUNCTION ZN,2500.00,12.4,2499.979,1.000,201.961,0.000,0.500,0.000,0.500,General,124.999,2249.981
 ElectricEquipment Internal Gains Nominal, ELECTRICAL/MECHANICAL-SCH-F-SPACE FUNCTION ZN SPACE FUNCTION ELECTRICAL/MECHANICAL-SCH-F ELEC EQUIP,NECB-F-ELECTRIC-EQUIPMENT,ELECTRICAL/MECHANICAL-SCH-F-SPACE FUNCTION ZN,1875.00,9.3,1874.984,1.000,201.961,0.000,0.500,0.000,0.500,General,187.498,1687.486
 ElectricEquipment Internal Gains Nominal, ELECTRICAL/MECHANICAL-SCH-G-SPACE FUNCTION ZN SPACE FUNCTION ELECTRICAL/MECHANICAL-SCH-G ELEC EQUIP,NECB-G-ELECTRIC-EQUIPMENT,ELECTRICAL/MECHANICAL-SCH-G-SPACE FUNCTION ZN,1875.00,9.3,1874.984,1.000,201.961,0.000,0.500,0.000,0.500,General,374.997,1687.486
 ElectricEquipment Internal Gains Nominal, ELECTRICAL/MECHANICAL-SCH-H-SPACE FUNCTION ZN SPACE FUNCTION ELECTRICAL/MECHANICAL-SCH-H ELEC EQUIP,NECB-H-ELECTRIC-EQUIPMENT,ELECTRICAL/MECHANICAL-SCH-H-SPACE FUNCTION ZN,1875.00,9.3,1874.984,1.000,201.961,0.000,0.500,0.000,0.500,General,1687.486,1687.486
 ElectricEquipment Internal Gains Nominal, ELECTRICAL/MECHANICAL-SCH-I-SPACE FUNCTION ZN SPACE FUNCTION ELECTRICAL/MECHANICAL-SCH-I ELEC EQUIP,NECB-I-ELECTRIC-EQUIPMENT,ELECTRICAL/MECHANICAL-SCH-I-SPACE FUNCTION ZN,1875.00,9.3,1874.984,1.000,201.961,0.000,0.500,0.000,0.500,General,187.498,1499.988
 ElectricEquipment Internal Gains Nominal, FIRE STATION - ENGINE ROOM-SPACE FUNCTION ZN SPACE FUNCTION FIRE STATION - ENGINE ROOM ELEC EQUIP,NECB-H-ELECTRIC-EQUIPMENT,FIRE STATION - ENGINE ROOM-SPACE FUNCTION ZN,1875.00,75.1,4687.461,2.500,62.434,0.000,0.500,0.000,0.500,General,4218.715,4218.715
 ElectricEquipment Internal Gains Nominal, FIRE STATION - QUARTERS-SPACE FUNCTION ZN SPACE FUNCTION FIRE STATION - QUARTERS ELEC EQUIP,NECB-G-ELECTRIC-EQUIPMENT,FIRE STATION - QUARTERS-SPACE FUNCTION ZN,1875.00,75.1,4687.461,2.500,62.434,0.000,0.500,0.000,0.500,General,937.492,4218.715
 ElectricEquipment Internal Gains Nominal, FOOD PREPARATION-SPACE FUNCTION ZN SPACE FUNCTION FOOD PREPARATION ELEC EQUIP,NECB-B-ELECTRIC-EQUIPMENT,FOOD PREPARATION-SPACE FUNCTION ZN,1875.00,93.8,18749.844,10.000,199.790,0.000,0.500,0.000,0.500,General,1874.984,16874.860
 ElectricEquipment Internal Gains Nominal, FOOD PREPARATION - VENTED-SPACE FUNCTION ZN SPACE FUNCTION FOOD PREPARATION - VENTED ELEC EQUIP,NECB-B-ELECTRIC-EQUIPMENT,FOOD PREPARATION - VENTED-SPACE FUNCTION ZN,1875.00,93.8,18749.844,10.000,199.790,0.000,0.500,0.000,0.500,General,1874.984,16874.860
! <Shadowing/Sun Position Calculations Annual Simulations>, Calculation Method, Value {days}, Allowable Number Figures in Shadow Overlap {}, Polygon Clipping Algorithm, Sky Diffuse Modeling Algorithm, External Shading Calculation Method, Output External Shading Calculation Results, Disable Self-Shading Within Shading Zone Groups, Disable Self-Shading From Shading Zone Groups to Other Zones
Shadowing/Sun Position Calculations Annual Simulations,AverageOverDaysInFrequency,20,15000,SutherlandHodgman,SimpleSkyDiffuseModeling,InternalCalculation,No,No,No
! <ZoneInfiltration Airflow Stats Nominal>,Name,Schedule Name,Zone Name, Zone Floor Area {m2}, # Zone Occupants,Design Volume Flow Rate {m3/s},Volume Flow Rate/Floor Area {m3/s/m2},Volume Flow Rate/Exterior Surface Area {m3/s/m2},ACH - Air Changes per Hour,Equation A - Constant Term Coefficient {},Equation B - Temperature Term Coefficient {1/C},Equation C - Velocity Term Coefficient {s/m}, Equation D - Velocity Squared Term Coefficient {s2/m2}
 ZoneInfiltration Airflow Stats Nominal, DINING - BAR LOUNGE/LEISURE-SPACE FUNCTION INFILTRATION,ALWAYS ON DISCRETE,DINING - BAR LOUNGE/LEISURE-SPACE FUNCTION ZN,2500.00,250.0,0.625,2.500E-004,2.500E-004,0.237,0.000,0.000,0.224,0.000
 ZoneInfiltration Airflow Stats Nominal, DINING - FAMILY SPACE-SPACE FUNCTION INFILTRATION,ALWAYS ON DISCRETE,DINING - FAMILY SPACE-SPACE FUNCTION ZN,1875.00,187.5,0.564,3.007E-004,2.500E-004,0.285,0.000,0.000,0.224,0.000
 ZoneInfiltration Airflow Stats Nominal, DINING - OTHER-SPACE FUNCTION INFILTRATION,ALWAYS ON DISCRETE,DINING - OTHER-SPACE FUNCTION ZN,1875.00,187.5,0.564,3.007E-004,2.500E-004,0.285,0.000,0.000,0.224,0.000
 ZoneInfiltration Airflow Stats Nominal, DRESS./FITT. - PERFORMANCE ARTS-SPACE FUNCTION INFILTRATION,ALWAYS ON DISCRETE,DRESS./FITT. - PERFORMANCE ARTS-SPACE FUNCTION ZN,1875.00,62.6,9.500E-002,5.067E-005,2.500E-004,4.800E-002,0.000,0.000,0.224,0.000
 ZoneInfiltration Airflow Stats Nominal, DWELLING UNIT(S)-SPACE FUNCTION INFILTRATION,ALWAYS ON DISCRETE,DWELLING UNIT(S)-SPACE FUNCTION ZN,1875.00,31.3,9.500E-002,5.067E-005,2.500E-004,4.800E-002,0.000,0.000,0.224,0.000
 ZoneInfiltration Airflow Stats Nominal, ELECTRICAL/MECHANICAL-SCH-B-SPACE FUNCTION INFILTRATION,ALWAYS ON DISCRETE,ELECTRICAL/MECHANICAL-SCH-B-SPACE FUNCTION ZN,1875.00,9.3,0.564,3.007E-004,2.500E-004,0.285,0.000,0.000,0.224,0.000
 ZoneInfiltration Airflow Stats Nominal, ELECTRICAL/MECHANICAL-SCH-G-SPACE FUNCTION INFILTRATION,ALWAYS ON DISCRETE,ELECTRICAL/MECHANICAL-SCH-G-SPACE FUNCTION ZN,1875.00,9.3,9.500E-002,5.067E-005,2.500E-004,4.800E-002,0.000,0.000,0.224,0.000
 ZoneInfiltration Airflow Stats Nominal, ELECTRICAL/MECHANICAL-SCH-H-SPACE FUNCTION INFILTRATION,ALWAYS ON DISCRETE,ELECTRICAL/MECHANICAL-SCH-H-SPACE FUNCTION ZN,1875.00,9.3,9.500E-002,5.067E-005,2.500E-004,4.800E-002,0.000,0.000,0.224,0.000
 ZoneInfiltration Airflow Stats Nominal, ELECTRICAL/MECHANICAL-SCH-I-SPACE FUNCTION INFILTRATION,ALWAYS ON DISCRETE,ELECTRICAL/MECHANICAL-SCH-I-SPACE FUNCTION ZN,1875.00,9.3,9.500E-002,5.067E-005,2.500E-004,4.800E-002,0.000,0.000,0.224,0.000
 ZoneInfiltration Airflow Stats Nominal, FIRE STATION - ENGINE ROOM-SPACE FUNCTION INFILTRATION,ALWAYS ON DISCRETE,FIRE STATION - ENGINE ROOM-SPACE FUNCTION ZN,1875.00,75.1,9.500E-002,5.067E-005,2.500E-004,4.800E-002,0.000,0.000,0.224,0.000
 ZoneInfiltration Airflow Stats Nominal, FIRE STATION - QUARTERS-SPACE FUNCTION INFILTRATION,ALWAYS ON DISCRETE,FIRE STATION - QUARTERS-SPACE FUNCTION ZN,1875.00,75.1,0.564,3.007E-004,2.500E-004,0.285,0.000,0.000,0.224,0.000
 ZoneInfiltration Airflow Stats Nominal, FOOD PREPARATION - VENTED-SPACE FUNCTION INFILTRATION,ALWAYS ON DISCRETE,FOOD PREPARATION - VENTED-SPACE FUNCTION ZN,1875.00,93.8,9.500E-002,5.067E-005,2.500E-004,4.800E-002,0.000,0.000,0.224,0.000
 ZoneInfiltration Airflow Stats Nominal, FOOD PREPARATION-SPACE FUNCTION INFILTRATION,ALWAYS ON DISCRETE,FOOD PREPARATION-SPACE FUNCTION ZN,1875.00,93.8,9.500E-002,5.067E-005,2.500E-004,4.800E-002,0.000,0.000,0.224,0.000
! <AirFlow Model>, Simple
 AirFlow Model, Simple
! <RoomAir Model>, Zone Name, Mixing/Mundt/UCSDDV/UCSDCV/UCSDUFI/UCSDUFE/User Defined
RoomAir Model,DINING - BAR LOUNGE/LEISURE-SPACE FUNCTION ZN,Mixing/Well-Stirred
RoomAir Model,DINING - FAMILY SPACE-SPACE FUNCTION ZN,Mixing/Well-Stirred
RoomAir Model,DINING - OTHER-SPACE FUNCTION ZN,Mixing/Well-Stirred
RoomAir Model,DORMITORY - LIVING QUARTERS-SPACE FUNCTION ZN,Mixing/Well-Stirred
RoomAir Model,DRESS./FITT. - PERFORMANCE ARTS-SPACE FUNCTION ZN,Mixing/Well-Stirred
RoomAir Model,DWELLING UNIT(S)-SPACE FUNCTION ZN,Mixing/Well-Stirred
RoomAir Model,ELECTRICAL/MECHANICAL-SCH-A-SPACE FUNCTION ZN,Mixing/Well-Stirred
RoomAir Model,ELECTRICAL/MECHANICAL-SCH-B-SPACE FUNCTION ZN,Mixing/Well-Stirred
RoomAir Model,ELECTRICAL/MECHANICAL-SCH-C-SPACE FUNCTION ZN,Mixing/Well-Stirred
RoomAir Model,ELECTRICAL/MECHANICAL-SCH-D-SPACE FUNCTION ZN,Mixing/Well-Stirred
RoomAir Model,ELECTRICAL/MECHANICAL-SCH-E-SPACE FUNCTION ZN,Mixing/Well-Stirred
RoomAir Model,ELECTRICAL/MECHANICAL-SCH-F-SPACE FUNCTION ZN,Mixing/Well-Stirred
RoomAir Model,ELECTRICAL/MECHANICAL-SCH-G-SPACE FUNCTION ZN,Mixing/Well-Stirred
RoomAir Model,ELECTRICAL/MECHANICAL-SCH-H-SPACE FUNCTION ZN,Mixing/Well-Stirred
RoomAir Model,ELECTRICAL/MECHANICAL-SCH-I-SPACE FUNCTION ZN,Mixing/Well-Stirred
RoomAir Model,FIRE STATION - ENGINE ROOM-SPACE FUNCTION ZN,Mixing/Well-Stirred
RoomAir Model,FIRE STATION - QUARTERS-SPACE FUNCTION ZN,Mixing/Well-Stirred
RoomAir Model,FOOD PREPARATION - VENTED-SPACE FUNCTION ZN,Mixing/Well-Stirred
RoomAir Model,FOOD PREPARATION-SPACE FUNCTION ZN,Mixing/Well-Stirred
RoomAir Model,GYM - AUDIENCE-SPACE FUNCTION ZN,Mixing/Well-Stirred
! <AirflowNetwork Model:Control>, No Multizone or Distribution/Multizone with Distribution/Multizone without Distribution/Multizone with Distribution only during Fan Operation
AirflowNetwork Model:Control,NoMultizoneOrDistribution
! <Zone Volume Capacitance Multiplier>, Sensible Heat Capacity Multiplier, Moisture Capacity Multiplier, Carbon Dioxide Capacity Multiplier, Generic Contaminant Capacity Multiplier
Zone Volume Capacitance Multiplier,   1.000 ,   1.000,   1.000,   1.000
! <Load Timesteps in Zone Design Calculation Averaging Window>, Value
 Load Timesteps in Zone Design Calculation Averaging Window,    6
! <Heating Sizing Factor Information>, Sizing Factor ID, Value
 Heating Sizing Factor Information, Global,   1.2500    
 Heating Sizing Factor Information, Zone DINING - BAR LOUNGE/LEISURE-SPACE FUNCTION ZN,   1.2500    
 Heating Sizing Factor Information, Zone DINING - FAMILY SPACE-SPACE FUNCTION ZN,   1.2500    
 Heating Sizing Factor Information, Zone DINING - OTHER-SPACE FUNCTION ZN,   1.2500    
 Heating Sizing Factor Information, Zone DORMITORY - LIVING QUARTERS-SPACE FUNCTION ZN,   1.2500    
 Heating Sizing Factor Information, Zone DRESS./FITT. - PERFORMANCE ARTS-SPACE FUNCTION ZN,   1.2500    
 Heating Sizing Factor Information, Zone DWELLING UNIT(S)-SPACE FUNCTION ZN,   1.2500    
 Heating Sizing Factor Information, Zone ELECTRICAL/MECHANICAL-SCH-A-SPACE FUNCTION ZN,   1.2500    
 Heating Sizing Factor Information, Zone ELECTRICAL/MECHANICAL-SCH-B-SPACE FUNCTION ZN,   1.2500    
 Heating Sizing Factor Information, Zone ELECTRICAL/MECHANICAL-SCH-C-SPACE FUNCTION ZN,   1.2500    
 Heating Sizing Factor Information, Zone ELECTRICAL/MECHANICAL-SCH-D-SPACE FUNCTION ZN,   1.2500    
 Heating Sizing Factor Information, Zone ELECTRICAL/MECHANICAL-SCH-E-SPACE FUNCTION ZN,   1.2500    
 Heating Sizing Factor Information, Zone ELECTRICAL/MECHANICAL-SCH-F-SPACE FUNCTION ZN,   1.2500    
 Heating Sizing Factor Information, Zone ELECTRICAL/MECHANICAL-SCH-G-SPACE FUNCTION ZN,   1.2500    
 Heating Sizing Factor Information, Zone ELECTRICAL/MECHANICAL-SCH-H-SPACE FUNCTION ZN,   1.2500    
 Heating Sizing Factor Information, Zone ELECTRICAL/MECHANICAL-SCH-I-SPACE FUNCTION ZN,   1.2500    
 Heating Sizing Factor Information, Zone FIRE STATION - ENGINE ROOM-SPACE FUNCTION ZN,   1.2500    
 Heating Sizing Factor Information, Zone FIRE STATION - QUARTERS-SPACE FUNCTION ZN,   1.2500    
 Heating Sizing Factor Information, Zone FOOD PREPARATION - VENTED-SPACE FUNCTION ZN,   1.2500    
 Heating Sizing Factor Information, Zone FOOD PREPARATION-SPACE FUNCTION ZN,   1.2500    
 Heating Sizing Factor Information, Zone GYM - AUDIENCE-SPACE FUNCTION ZN,   1.2500    
! <Cooling Sizing Factor Information>, Sizing Factor ID, Value
 Cooling Sizing Factor Information, Global,   1.1500    
 Cooling Sizing Factor Information, Zone DINING - BAR LOUNGE/LEISURE-SPACE FUNCTION ZN,   1.1500    
 Cooling Sizing Factor Information, Zone DINING - FAMILY SPACE-SPACE FUNCTION ZN,   1.1500    
 Cooling Sizing Factor Information, Zone DINING - OTHER-SPACE FUNCTION ZN,   1.1500    
 Cooling Sizing Factor Information, Zone DORMITORY - LIVING QUARTERS-SPACE FUNCTION ZN,   1.1500    
 Cooling Sizing Factor Information, Zone DRESS./FITT. - PERFORMANCE ARTS-SPACE FUNCTION ZN,   1.1500    
 Cooling Sizing Factor Information, Zone DWELLING UNIT(S)-SPACE FUNCTION ZN,   1.1500    
 Cooling Sizing Factor Information, Zone ELECTRICAL/MECHANICAL-SCH-A-SPACE FUNCTION ZN,   1.1500    
 Cooling Sizing Factor Information, Zone ELECTRICAL/MECHANICAL-SCH-B-SPACE FUNCTION ZN,   1.1500    
 Cooling Sizing Factor Information, Zone ELECTRICAL/MECHANICAL-SCH-C-SPACE FUNCTION ZN,   1.1500    
 Cooling Sizing Factor Information, Zone ELECTRICAL/MECHANICAL-SCH-D-SPACE FUNCTION ZN,   1.1500    
 Cooling Sizing Factor Information, Zone ELECTRICAL/MECHANICAL-SCH-E-SPACE FUNCTION ZN,   1.1500    
 Cooling Sizing Factor Information, Zone ELECTRICAL/MECHANICAL-SCH-F-SPACE FUNCTION ZN,   1.1500    
 Cooling Sizing Factor Information, Zone ELECTRICAL/MECHANICAL-SCH-G-SPACE FUNCTION ZN,   1.1500    
 Cooling Sizing Factor Information, Zone ELECTRICAL/MECHANICAL-SCH-H-SPACE FUNCTION ZN,   1.1500    
 Cooling Sizing Factor Information, Zone ELECTRICAL/MECHANICAL-SCH-I-SPACE FUNCTION ZN,   1.1500    
 Cooling Sizing Factor Information, Zone FIRE STATION - ENGINE ROOM-SPACE FUNCTION ZN,   1.1500    
 Cooling Sizing Factor Information, Zone FIRE STATION - QUARTERS-SPACE FUNCTION ZN,   1.1500    
 Cooling Sizing Factor Information, Zone FOOD PREPARATION - VENTED-SPACE FUNCTION ZN,   1.1500    
 Cooling Sizing Factor Information, Zone FOOD PREPARATION-SPACE FUNCTION ZN,   1.1500    
 Cooling Sizing Factor Information, Zone GYM - AUDIENCE-SPACE FUNCTION ZN,   1.1500    
! <Zone Sizing Information>, Zone Name, Load Type, Calc Des Load {W}, User Des Load {W}, Calc Des Air Flow Rate {m3/s}, User Des Air Flow Rate {m3/s}, Design Day Name, Date/Time of Peak, Temperature at Peak {C}, Humidity Ratio at Peak {kgWater/kgDryAir}, Floor Area {m2}, # Occupants, Calc Outdoor Air Flow Rate {m3/s}, Calc DOAS Heat Addition Rate {W}
 Zone Sizing Information, DINING - BAR LOUNGE/LEISURE-SPACE FUNCTION ZN, Cooling, 88171.49127, 101397.21496, 7.49678, 8.95350, FORT MCMURRAY AP ANN CLG .4% CONDNS DB=>MWB, 7/21 13:10:00, 28.38333, 8.76969E-003, 2500.00000, 249.99182, 8.95350, 0.00000
 Zone Sizing Information, DINING - BAR LOUNGE/LEISURE-SPACE FUNCTION ZN, Heating, 35172.24180, 43965.30225, 1.51499, 8.95350, FORT MCMURRAY AP ANN HTG 99.6% CONDNS DB, 1/21 09:20:00, -36.20000, 1.25811E-004, 2500.00000, 249.99182, 8.95350, 0.00000
 Zone Sizing Information, DINING - FAMILY SPACE-SPACE FUNCTION ZN, Cooling, 89663.00480, 103112.45552, 6.57674, 7.56325, FORT MCMURRAY AP ANN CLG .4% CONDNS DB=>MWB, 7/21 09:00:00, 22.08000, 8.76969E-003, 1875.00000, 187.49386, 6.71513, 0.00000
 Zone Sizing Information, DINING - FAMILY SPACE-SPACE FUNCTION ZN, Heating, 44506.10902, 55632.63628, 2.05987, 6.71513, FORT MCMURRAY AP ANN HTG 99.6% CONDNS DB, 1/21 10:00:00, -36.20000, 1.25811E-004, 1875.00000, 187.49386, 6.71513, 0.00000
 Zone Sizing Information, DINING - OTHER-SPACE FUNCTION ZN, Cooling, 64934.40319, 74674.56367, 5.52110, 6.71513, FORT MCMURRAY AP ANN CLG .4% CONDNS DB=>MWB, 7/21 13:20:00, 28.48667, 8.76969E-003, 1875.00000, 187.49386, 6.71513, 0.00000
 Zone Sizing Information, DINING - OTHER-SPACE FUNCTION ZN, Heating, 43834.77403, 54793.46754, 2.02847, 6.71513, FORT MCMURRAY AP ANN HTG 99.6% CONDNS DB, 1/21 10:00:00, -36.20000, 1.25811E-004, 1875.00000, 187.49386, 6.71513, 0.00000
 Zone Sizing Information, DORMITORY - LIVING QUARTERS-SPACE FUNCTION ZN, Cooling, 28750.38124, 33062.93842, 2.44430, 2.81094, FORT MCMURRAY AP ANN CLG .4% CONDNS DB=>MWB, 7/21 20:00:00, 22.70000, 8.76969E-003, 2500.00000, 100.10437, 1.39700, 0.00000
 Zone Sizing Information, DORMITORY - LIVING QUARTERS-SPACE FUNCTION ZN, Heating, 0.00000, 0.00000, 0.00000, 1.39700, FORT MCMURRAY AP ANN HTG 99.6% CONDNS DB, , -36.20000, 1.25811E-004, 2500.00000, 100.10437, 1.39700, 0.00000
 Zone Sizing Information, DRESS./FITT. - PERFORMANCE ARTS-SPACE FUNCTION ZN, Cooling, 38988.03439, 44836.23955, 3.31462, 3.81181, FORT MCMURRAY AP ANN CLG .4% CONDNS DB=>MWB, 7/21 18:00:00, 25.92400, 8.76969E-003, 1875.00000, 62.56523, 2.21933, 0.00000
 Zone Sizing Information, DRESS./FITT. - PERFORMANCE ARTS-SPACE FUNCTION ZN, Heating, 26965.96961, 33707.46201, 1.23528, 2.21933, FORT MCMURRAY AP ANN HTG 99.6% CONDNS DB, 1/21 09:00:00, -36.20000, 1.25811E-004, 1875.00000, 62.56523, 2.21933, 0.00000
 Zone Sizing Information, DWELLING UNIT(S)-SPACE FUNCTION ZN, Cooling, 30744.78836, 35356.50661, 2.61373, 3.00579, FORT MCMURRAY AP ANN CLG .4% CONDNS DB=>MWB, 7/21 20:00:00, 22.70000, 8.76969E-003, 1875.00000, 31.28261, 0.64770, 0.00000
 Zone Sizing Information, DWELLING UNIT(S)-SPACE FUNCTION ZN, Heating, 12402.73096, 15503.41370, 0.57302, 0.71628, FORT MCMURRAY AP ANN HTG 99.6% CONDNS DB, 1/21 09:00:00, -36.20000, 1.25811E-004, 1875.00000, 31.28261, 0.64770, 0.00000
 Zone Sizing Information, ELECTRICAL/MECHANICAL-SCH-A-SPACE FUNCTION ZN, Cooling, 18695.46758, 21499.78772, 1.58933, 1.82773, FORT MCMURRAY AP ANN CLG .4% CONDNS DB=>MWB, 7/21 17:00:00, 27.16400, 8.76969E-003, 1875.00000, 9.28387, 0.57150, 0.00000
 Zone Sizing Information, ELECTRICAL/MECHANICAL-SCH-A-SPACE FUNCTION ZN, Heating, 0.00000, 0.00000, 0.00000, 0.57150, FORT MCMURRAY AP ANN HTG 99.6% CONDNS DB, , -36.20000, 1.25811E-004, 1875.00000, 9.28387, 0.57150, 0.00000
 Zone Sizing Information, ELECTRICAL/MECHANICAL-SCH-B-SPACE FUNCTION ZN, Cooling, 78307.10912, 90053.17548, 6.65704, 7.65560, FORT MCMURRAY AP ANN CLG .4% CONDNS DB=>MWB, 7/21 13:30:00, 28.59000, 8.76969E-003, 1875.00000, 9.28387, 0.57150, 0.00000
 Zone Sizing Information, ELECTRICAL/MECHANICAL-SCH-B-SPACE FUNCTION ZN, Heating, 45218.32408, 56522.90510, 2.09314, 2.61643, FORT MCMURRAY AP ANN HTG 99.6% CONDNS DB, 1/21 10:00:00, -36.20000, 1.25811E-004, 1875.00000, 9.28387, 0.57150, 0.00000
 Zone Sizing Information, ELECTRICAL/MECHANICAL-SCH-C-SPACE FUNCTION ZN, Cooling, 24088.22270, 27701.45611, 2.04777, 2.35493, FORT MCMURRAY AP ANN CLG .4% CONDNS DB=>MWB, 7/21 14:40:00, 28.90000, 8.76969E-003, 1875.00000, 9.28387, 0.57150, 0.00000
 Zone Sizing Information, ELECTRICAL/MECHANICAL-SCH-C-SPACE FUNCTION ZN, Heating, 0.00000, 0.00000, 0.00000, 0.57150, FORT MCMURRAY AP ANN HTG 99.6% CONDNS DB, , -36.20000, 1.25811E-004, 1875.00000, 9.28387, 0.57150, 0.00000
 Zone Sizing Information, ELECTRICAL/MECHANICAL-SCH-D-SPACE FUNCTION ZN, Cooling, 21560.67457, 24794.77575, 1.83291, 2.10784, FORT MCMURRAY AP ANN CLG .4% CONDNS DB=>MWB, 7/21 16:00:00, 28.15600, 8.76969E-003, 1875.00000, 9.28387, 0.57150, 0.00000
 Zone Sizing Information, ELECTRICAL/MECHANICAL-SCH-D-SPACE FUNCTION ZN, Heating, 0.00000, 0.00000, 0.00000, 0.57150, FORT MCMURRAY AP ANN HTG 99.6% CONDNS DB, , -36.20000, 1.25811E-004, 1875.00000, 9.28387, 0.57150, 0.00000
 Zone Sizing Information, ELECTRICAL/MECHANICAL-SCH-E-SPACE FUNCTION ZN, Cooling, 22881.54998, 26313.78248, 1.94520, 2.23698, FORT MCMURRAY AP ANN CLG .4% CONDNS DB=>MWB, 7/21 18:00:00, 25.92400, 8.76969E-003, 2500.00000, 12.37850, 0.76200, 0.00000
 Zone Sizing Information, ELECTRICAL/MECHANICAL-SCH-E-SPACE FUNCTION ZN, Heating, 0.00000, 0.00000, 0.00000, 0.76200, FORT MCMURRAY AP ANN HTG 99.6% CONDNS DB, , -36.20000, 1.25811E-004, 2500.00000, 12.37850, 0.76200, 0.00000
 Zone Sizing Information, ELECTRICAL/MECHANICAL-SCH-F-SPACE FUNCTION ZN, Cooling, 16345.09977, 18796.86473, 1.38952, 1.59795, FORT MCMURRAY AP ANN CLG .4% CONDNS DB=>MWB, 7/21 22:00:00, 20.46800, 8.76969E-003, 1875.00000, 9.28387, 0.57150, 0.00000
 Zone Sizing Information, ELECTRICAL/MECHANICAL-SCH-F-SPACE FUNCTION ZN, Heating, 0.00000, 0.00000, 0.00000, 0.57150, FORT MCMURRAY AP ANN HTG 99.6% CONDNS DB, , -36.20000, 1.25811E-004, 1875.00000, 9.28387, 0.57150, 0.00000
 Zone Sizing Information, ELECTRICAL/MECHANICAL-SCH-G-SPACE FUNCTION ZN, Cooling, 31719.99637, 36477.99582, 2.69657, 3.10106, FORT MCMURRAY AP ANN CLG .4% CONDNS DB=>MWB, 7/21 20:00:00, 22.70000, 8.76969E-003, 1875.00000, 9.28387, 0.57150, 0.00000
 Zone Sizing Information, ELECTRICAL/MECHANICAL-SCH-G-SPACE FUNCTION ZN, Heating, 9316.08093, 11645.10116, 0.44038, 0.57150, FORT MCMURRAY AP ANN HTG 99.6% CONDNS DB, 1/21 10:20:00, -36.20000, 1.25811E-004, 1875.00000, 9.28387, 0.57150, 0.00000
 Zone Sizing Information, ELECTRICAL/MECHANICAL-SCH-H-SPACE FUNCTION ZN, Cooling, 30825.57230, 35449.40814, 2.62054, 3.01362, FORT MCMURRAY AP ANN CLG .4% CONDNS DB=>MWB, 7/21 16:50:00, 27.32933, 8.76969E-003, 1875.00000, 9.28387, 0.57150, 0.00000
 Zone Sizing Information, ELECTRICAL/MECHANICAL-SCH-H-SPACE FUNCTION ZN, Heating, 0.00000, 0.00000, 0.00000, 0.57150, FORT MCMURRAY AP ANN HTG 99.6% CONDNS DB, , -36.20000, 1.25811E-004, 1875.00000, 9.28387, 0.57150, 0.00000
 Zone Sizing Information, ELECTRICAL/MECHANICAL-SCH-I-SPACE FUNCTION ZN, Cooling, 44309.62161, 50956.06485, 3.33640, 3.83686, FORT MCMURRAY AP ANN CLG .4% CONDNS DB=>MWB, 7/21 15:00:00, 28.90000, 8.76969E-003, 1875.00000, 9.28387, 0.57150, 0.00000
 Zone Sizing Information, ELECTRICAL/MECHANICAL-SCH-I-SPACE FUNCTION ZN, Heating, 5607.83624, 7009.79530, 0.25572, 0.57150, FORT MCMURRAY AP ANN HTG 99.6% CONDNS DB, 1/21 15:40:00, -36.20000, 1.25811E-004, 1875.00000, 9.28387, 0.57150, 0.00000
 Zone Sizing Information, FIRE STATION - ENGINE ROOM-SPACE FUNCTION ZN, Cooling, 22662.80371, 26062.22426, 1.92676, 2.38125, FORT MCMURRAY AP ANN CLG .4% CONDNS DB=>MWB, 7/21 20:20:00, 22.32800, 8.76969E-003, 1875.00000, 75.07828, 2.38125, 0.00000
 Zone Sizing Information, FIRE STATION - ENGINE ROOM-SPACE FUNCTION ZN, Heating, 0.00000, 0.00000, 0.00000, 2.38125, FORT MCMURRAY AP ANN HTG 99.6% CONDNS DB, , -36.20000, 1.25811E-004, 1875.00000, 75.07828, 2.38125, 0.00000
 Zone Sizing Information, FIRE STATION - QUARTERS-SPACE FUNCTION ZN, Cooling, 58439.94370, 67205.93525, 4.96818, 5.71341, FORT MCMURRAY AP ANN CLG .4% CONDNS DB=>MWB, 7/21 16:10:00, 27.99067, 8.76969E-003, 1875.00000, 75.07828, 1.52400, 0.00000
 Zone Sizing Information, FIRE STATION - QUARTERS-SPACE FUNCTION ZN, Heating, 50418.02723, 63022.53403, 2.34063, 2.92579, FORT MCMURRAY AP ANN HTG 99.6% CONDNS DB, 1/21 09:00:00, -36.20000, 1.25811E-004, 1875.00000, 75.07828, 1.52400, 0.00000
 Zone Sizing Information, FOOD PREPARATION - VENTED-SPACE FUNCTION ZN, Cooling, 46308.74378, 53255.05534, 3.93711, 4.52768, FORT MCMURRAY AP ANN CLG .4% CONDNS DB=>MWB, 7/21 13:30:00, 28.59000, 8.76969E-003, 1875.00000, 93.84784, 2.57175, 0.00000
 Zone Sizing Information, FOOD PREPARATION - VENTED-SPACE FUNCTION ZN, Heating, 1620.29509, 2025.36887, 7.48395E-002, 2.57175, FORT MCMURRAY AP ANN HTG 99.6% CONDNS DB, 1/21 09:10:00, -36.20000, 1.25811E-004, 1875.00000, 93.84784, 2.57175, 0.00000
 Zone Sizing Information, FOOD PREPARATION-SPACE FUNCTION ZN, Cooling, 62253.04393, 71591.00052, 4.68786, 5.39104, FORT MCMURRAY AP ANN CLG .4% CONDNS DB=>MWB, 7/21 09:00:00, 22.08000, 8.76969E-003, 1875.00000, 93.84784, 2.57175, 0.00000
 Zone Sizing Information, FOOD PREPARATION-SPACE FUNCTION ZN, Heating, 11335.78856, 14169.73571, 0.50542, 2.57175, FORT MCMURRAY AP ANN HTG 99.6% CONDNS DB, 1/21 10:00:00, -36.20000, 1.25811E-004, 1875.00000, 93.84784, 2.57175, 0.00000
 Zone Sizing Information, GYM - AUDIENCE-SPACE FUNCTION ZN, Cooling, 39676.54982, 45628.03230, 3.37390, 10.28700, FORT MCMURRAY AP ANN CLG .4% CONDNS DB=>MWB, 7/21 22:00:00, 20.46800, 8.76969E-003, 2500.00000, 499.98364, 10.28700, 0.00000
 Zone Sizing Information, GYM - AUDIENCE-SPACE FUNCTION ZN, Heating, 0.00000, 0.00000, 0.00000, 10.28700, FORT MCMURRAY AP ANN HTG 99.6% CONDNS DB, , -36.20000, 1.25811E-004, 2500.00000, 499.98364, 10.28700, 0.00000
! <Component Sizing Information>, Component Type, Component Name, Input Field Description, Value
 Component Sizing Information, ZoneHVAC:IdealLoadsAirSystem, ZONE HVAC IDEAL LOADS AIR SYSTEM 1, User-Specified Maximum Heating Air Flow Rate [m3/s], 0.00000
 Component Sizing Information, ZoneHVAC:IdealLoadsAirSystem, ZONE HVAC IDEAL LOADS AIR SYSTEM 1, User-Specified Maximum Cooling Air Flow Rate [m3/s], 0.00000
 Component Sizing Information, ZoneHVAC:IdealLoadsAirSystem, ZONE HVAC IDEAL LOADS AIR SYSTEM 2, User-Specified Maximum Heating Air Flow Rate [m3/s], 0.00000
 Component Sizing Information, ZoneHVAC:IdealLoadsAirSystem, ZONE HVAC IDEAL LOADS AIR SYSTEM 2, User-Specified Maximum Cooling Air Flow Rate [m3/s], 0.00000
 Component Sizing Information, ZoneHVAC:IdealLoadsAirSystem, ZONE HVAC IDEAL LOADS AIR SYSTEM 3, User-Specified Maximum Heating Air Flow Rate [m3/s], 0.00000
 Component Sizing Information, ZoneHVAC:IdealLoadsAirSystem, ZONE HVAC IDEAL LOADS AIR SYSTEM 3, User-Specified Maximum Cooling Air Flow Rate [m3/s], 0.00000
 Component Sizing Information, ZoneHVAC:IdealLoadsAirSystem, ZONE HVAC IDEAL LOADS AIR SYSTEM 4, User-Specified Maximum Heating Air Flow Rate [m3/s], 0.00000
 Component Sizing Information, ZoneHVAC:IdealLoadsAirSystem, ZONE HVAC IDEAL LOADS AIR SYSTEM 4, User-Specified Maximum Cooling Air Flow Rate [m3/s], 0.00000
 Component Sizing Information, ZoneHVAC:IdealLoadsAirSystem, ZONE HVAC IDEAL LOADS AIR SYSTEM 5, User-Specified Maximum Heating Air Flow Rate [m3/s], 0.00000
 Component Sizing Information, ZoneHVAC:IdealLoadsAirSystem, ZONE HVAC IDEAL LOADS AIR SYSTEM 5, User-Specified Maximum Cooling Air Flow Rate [m3/s], 0.00000
 Component Sizing Information, ZoneHVAC:IdealLoadsAirSystem, ZONE HVAC IDEAL LOADS AIR SYSTEM 6, User-Specified Maximum Heating Air Flow Rate [m3/s], 0.00000
 Component Sizing Information, ZoneHVAC:IdealLoadsAirSystem, ZONE HVAC IDEAL LOADS AIR SYSTEM 6, User-Specified Maximum Cooling Air Flow Rate [m3/s], 0.00000
 Component Sizing Information, ZoneHVAC:IdealLoadsAirSystem, ZONE HVAC IDEAL LOADS AIR SYSTEM 7, User-Specified Maximum Heating Air Flow Rate [m3/s], 0.00000
 Component Sizing Information, ZoneHVAC:IdealLoadsAirSystem, ZONE HVAC IDEAL LOADS AIR SYSTEM 7, User-Specified Maximum Cooling Air Flow Rate [m3/s], 0.00000
 Component Sizing Information, ZoneHVAC:IdealLoadsAirSystem, ZONE HVAC IDEAL LOADS AIR SYSTEM 8, User-Specified Maximum Heating Air Flow Rate [m3/s], 0.00000
 Component Sizing Information, ZoneHVAC:IdealLoadsAirSystem, ZONE HVAC IDEAL LOADS AIR SYSTEM 8, User-Specified Maximum Cooling Air Flow Rate [m3/s], 0.00000
 Component Sizing Information, ZoneHVAC:IdealLoadsAirSystem, ZONE HVAC IDEAL LOADS AIR SYSTEM 9, User-Specified Maximum Heating Air Flow Rate [m3/s], 0.00000
 Component Sizing Information, ZoneHVAC:IdealLoadsAirSystem, ZONE HVAC IDEAL LOADS AIR SYSTEM 9, User-Specified Maximum Cooling Air Flow Rate [m3/s], 0.00000
 Component Sizing Information, ZoneHVAC:IdealLoadsAirSystem, ZONE HVAC IDEAL LOADS AIR SYSTEM 10, User-Specified Maximum Heating Air Flow Rate [m3/s], 0.00000
 Component Sizing Information, ZoneHVAC:IdealLoadsAirSystem, ZONE HVAC IDEAL LOADS AIR SYSTEM 10, User-Specified Maximum Cooling Air Flow Rate [m3/s], 0.00000
 Component Sizing Information, ZoneHVAC:IdealLoadsAirSystem, ZONE HVAC IDEAL LOADS AIR SYSTEM 11, User-Specified Maximum Heating Air Flow Rate [m3/s], 0.00000
 Component Sizing Information, ZoneHVAC:IdealLoadsAirSystem, ZONE HVAC IDEAL LOADS AIR SYSTEM 11, User-Specified Maximum Cooling Air Flow Rate [m3/s], 0.00000
 Component Sizing Information, ZoneHVAC:IdealLoadsAirSystem, ZONE HVAC IDEAL LOADS AIR SYSTEM 12, User-Specified Maximum Heating Air Flow Rate [m3/s], 0.00000
 Component Sizing Information, ZoneHVAC:IdealLoadsAirSystem, ZONE HVAC IDEAL LOADS AIR SYSTEM 12, User-Specified Maximum Cooling Air Flow Rate [m3/s], 0.00000
 Component Sizing Information, ZoneHVAC:IdealLoadsAirSystem, ZONE HVAC IDEAL LOADS AIR SYSTEM 13, User-Specified Maximum Heating Air Flow Rate [m3/s], 0.00000
 Component Sizing Information, ZoneHVAC:IdealLoadsAirSystem, ZONE HVAC IDEAL LOADS AIR SYSTEM 13, User-Specified Maximum Cooling Air Flow Rate [m3/s], 0.00000
 Component Sizing Information, ZoneHVAC:IdealLoadsAirSystem, ZONE HVAC IDEAL LOADS AIR SYSTEM 14, User-Specified Maximum Heating Air Flow Rate [m3/s], 0.00000
 Component Sizing Information, ZoneHVAC:IdealLoadsAirSystem, ZONE HVAC IDEAL LOADS AIR SYSTEM 14, User-Specified Maximum Cooling Air Flow Rate [m3/s], 0.00000
 Component Sizing Information, ZoneHVAC:IdealLoadsAirSystem, ZONE HVAC IDEAL LOADS AIR SYSTEM 15, User-Specified Maximum Heating Air Flow Rate [m3/s], 0.00000
 Component Sizing Information, ZoneHVAC:IdealLoadsAirSystem, ZONE HVAC IDEAL LOADS AIR SYSTEM 15, User-Specified Maximum Cooling Air Flow Rate [m3/s], 0.00000
 Component Sizing Information, ZoneHVAC:IdealLoadsAirSystem, ZONE HVAC IDEAL LOADS AIR SYSTEM 16, User-Specified Maximum Heating Air Flow Rate [m3/s], 0.00000
 Component Sizing Information, ZoneHVAC:IdealLoadsAirSystem, ZONE HVAC IDEAL LOADS AIR SYSTEM 16, User-Specified Maximum Cooling Air Flow Rate [m3/s], 0.00000
 Component Sizing Information, ZoneHVAC:IdealLoadsAirSystem, ZONE HVAC IDEAL LOADS AIR SYSTEM 17, User-Specified Maximum Heating Air Flow Rate [m3/s], 0.00000
 Component Sizing Information, ZoneHVAC:IdealLoadsAirSystem, ZONE HVAC IDEAL LOADS AIR SYSTEM 17, User-Specified Maximum Cooling Air Flow Rate [m3/s], 0.00000
 Component Sizing Information, ZoneHVAC:IdealLoadsAirSystem, ZONE HVAC IDEAL LOADS AIR SYSTEM 18, User-Specified Maximum Heating Air Flow Rate [m3/s], 0.00000
 Component Sizing Information, ZoneHVAC:IdealLoadsAirSystem, ZONE HVAC IDEAL LOADS AIR SYSTEM 18, User-Specified Maximum Cooling Air Flow Rate [m3/s], 0.00000
 Component Sizing Information, ZoneHVAC:IdealLoadsAirSystem, ZONE HVAC IDEAL LOADS AIR SYSTEM 19, User-Specified Maximum Heating Air Flow Rate [m3/s], 0.00000
 Component Sizing Information, ZoneHVAC:IdealLoadsAirSystem, ZONE HVAC IDEAL LOADS AIR SYSTEM 19, User-Specified Maximum Cooling Air Flow Rate [m3/s], 0.00000
 Component Sizing Information, ZoneHVAC:IdealLoadsAirSystem, ZONE HVAC IDEAL LOADS AIR SYSTEM 20, User-Specified Maximum Heating Air Flow Rate [m3/s], 0.00000
 Component Sizing Information, ZoneHVAC:IdealLoadsAirSystem, ZONE HVAC IDEAL LOADS AIR SYSTEM 20, User-Specified Maximum Cooling Air Flow Rate [m3/s], 0.00000
! <Environment>,Environment Name,Environment Type, Start Date, End Date, Start DayOfWeek, Duration {#days}, Source:Start DayOfWeek,  Use Daylight Saving, Use Holidays, Apply Weekend Holiday Rule,  Use Rain Values, Use Snow Values
! <Environment:Special Days>, Special Day Name, Special Day Type, Source, Start Date, Duration {#days}
! <Environment:Daylight Saving>, Daylight Saving Indicator, Source, Start Date, End Date
! <Environment:WarmupDays>, NumberofWarmupDays
Environment,FORT MCMURRAY AP ANN CLG .4% CONDNS DB=>MWB,SizingPeriod:DesignDay,07/21,07/21,SummerDesignDay,1,N/A,N/A,N/A,N/A,N/A,N/A
Environment:Daylight Saving,No,SizingPeriod:DesignDay
! <Environment:Design Day Data>, Max Dry-Bulb Temp {C}, Temp Range {dC}, Temp Range Ind Type, Hum Ind Value at Max Temp, Hum Ind Type,Pressure {Pa}, Wind Direction {deg CW from N}, Wind Speed {m/s}, Clearness, Rain, Snow
! <Environment:Design Day Misc>,DayOfYear,ASHRAE A Coeff,ASHRAE B Coeff,ASHRAE C Coeff,Solar Constant-Annual Variation,Eq of Time {minutes}, Solar Declination Angle {deg}, Solar Model
Environment:Design Day Data,28.90,12.40,DefaultMultipliers,96969,250,3.7,0.00,No,No
Environment:Design Day Misc,202,1084.4,0.2082,0.1365,1.0,-6.23,20.6,ASHRAETau
Environment:WarmupDays,  6
! <Tabular Report>,Style,Unit Conversion
Tabular Report,HTML,None
! <Warmup Convergence Information>,Zone Name,Environment Type/Name,Average Warmup Temperature Difference {deltaC},Std Dev Warmup Temperature Difference {deltaC},Max Temperature Pass/Fail Convergence,Min Temperature Pass/Fail Convergence,Average Warmup Load Difference {W},Std Dev Warmup Load Difference {W},Heating Load Pass/Fail Convergence,Cooling Load Pass/Fail Convergence
 Warmup Convergence Information,DINING - BAR LOUNGE/LEISURE-SPACE FUNCTION ZN,SizingPeriod: FORT MCMURRAY AP ANN CLG .4% CONDNS DB=>MWB,6.6882144483E-002,0.1222634205,Pass,Pass,3.0488938744E-002,6.5082134097E-002,Pass,Pass
 Warmup Convergence Information,DINING - FAMILY SPACE-SPACE FUNCTION ZN,SizingPeriod: FORT MCMURRAY AP ANN CLG .4% CONDNS DB=>MWB,6.1963852257E-002,0.1060872834,Pass,Pass,2.6810361417E-002,4.5442710905E-002,Pass,Pass
 Warmup Convergence Information,DINING - OTHER-SPACE FUNCTION ZN,SizingPeriod: FORT MCMURRAY AP ANN CLG .4% CONDNS DB=>MWB,6.4212155030E-002,0.1199992649,Pass,Pass,3.2387758003E-002,5.8471629929E-002,Pass,Pass
 Warmup Convergence Information,DORMITORY - LIVING QUARTERS-SPACE FUNCTION ZN,SizingPeriod: FORT MCMURRAY AP ANN CLG .4% CONDNS DB=>MWB,3.3045392580E-003,1.1113004092E-002,Pass,Pass,2.3756133504E-002,5.9526489917E-002,Pass,Pass
 Warmup Convergence Information,DRESS./FITT. - PERFORMANCE ARTS-SPACE FUNCTION ZN,SizingPeriod: FORT MCMURRAY AP ANN CLG .4% CONDNS DB=>MWB,3.0649035747E-002,5.6764308662E-002,Pass,Pass,3.5623464289E-002,0.1295761405,Pass,Pass
 Warmup Convergence Information,DWELLING UNIT(S)-SPACE FUNCTION ZN,SizingPeriod: FORT MCMURRAY AP ANN CLG .4% CONDNS DB=>MWB,3.5527136788E-014,3.0532904997E-014,Pass,Pass,1.9980478269E-002,3.4511015429E-002,Pass,Pass
 Warmup Convergence Information,ELECTRICAL/MECHANICAL-SCH-A-SPACE FUNCTION ZN,SizingPeriod: FORT MCMURRAY AP ANN CLG .4% CONDNS DB=>MWB,1.2912042509E-002,3.7309105328E-002,Pass,Pass,4.6038667744E-002,0.3221273353,Pass,Pass
 Warmup Convergence Information,ELECTRICAL/MECHANICAL-SCH-B-SPACE FUNCTION ZN,SizingPeriod: FORT MCMURRAY AP ANN CLG .4% CONDNS DB=>MWB,4.3311679253E-002,0.1305841331,Pass,Pass,4.8867915636E-002,0.2396365886,Pass,Pass
 Warmup Convergence Information,ELECTRICAL/MECHANICAL-SCH-C-SPACE FUNCTION ZN,SizingPeriod: FORT MCMURRAY AP ANN CLG .4% CONDNS DB=>MWB,1.5754881781E-002,4.7466975931E-002,Pass,Pass,8.6456874224E-002,0.5169657764,Pass,Pass
 Warmup Convergence Information,ELECTRICAL/MECHANICAL-SCH-D-SPACE FUNCTION ZN,SizingPeriod: FORT MCMURRAY AP ANN CLG .4% CONDNS DB=>MWB,9.3461797589E-003,2.6985760768E-002,Pass,Pass,4.6677641502E-002,0.2157817218,Pass,Pass
 Warmup Convergence Information,ELECTRICAL/MECHANICAL-SCH-E-SPACE FUNCTION ZN,SizingPeriod: FORT MCMURRAY AP ANN CLG .4% CONDNS DB=>MWB,1.7461461750E-002,3.2333323297E-002,Pass,Pass,0.1560908980,1.3835141142,Pass,Pass
 Warmup Convergence Information,ELECTRICAL/MECHANICAL-SCH-F-SPACE FUNCTION ZN,SizingPeriod: FORT MCMURRAY AP ANN CLG .4% CONDNS DB=>MWB,1.6061226423E-014,1.4424926286E-014,Pass,Pass,2.1184906809E-002,5.8892089620E-002,Pass,Pass
 Warmup Convergence Information,ELECTRICAL/MECHANICAL-SCH-G-SPACE FUNCTION ZN,SizingPeriod: FORT MCMURRAY AP ANN CLG .4% CONDNS DB=>MWB,2.3240668649E-014,2.4524287998E-014,Pass,Pass,2.7480733768E-002,6.4009318371E-002,Pass,Pass
 Warmup Convergence Information,ELECTRICAL/MECHANICAL-SCH-H-SPACE FUNCTION ZN,SizingPeriod: FORT MCMURRAY AP ANN CLG .4% CONDNS DB=>MWB,4.1102923534E-014,3.3959590318E-014,Pass,Pass,6.5795220704E-003,3.6560599986E-003,Pass,Pass
 Warmup Convergence Information,ELECTRICAL/MECHANICAL-SCH-I-SPACE FUNCTION ZN,SizingPeriod: FORT MCMURRAY AP ANN CLG .4% CONDNS DB=>MWB,7.6051413851E-002,0.3722184998,Pass,Pass,0.1445581529,0.5269408348,Pass,Pass
 Warmup Convergence Information,FIRE STATION - ENGINE ROOM-SPACE FUNCTION ZN,SizingPeriod: FORT MCMURRAY AP ANN CLG .4% CONDNS DB=>MWB,3.3114281891E-003,8.0128923461E-003,Pass,Pass,4.5061022441E-003,5.2894074983E-003,Pass,Pass
 Warmup Convergence Information,FIRE STATION - QUARTERS-SPACE FUNCTION ZN,SizingPeriod: FORT MCMURRAY AP ANN CLG .4% CONDNS DB=>MWB,2.3506438618E-002,4.5369254992E-002,Pass,Pass,2.7842277576E-002,3.7359209926E-002,Pass,Pass
 Warmup Convergence Information,FOOD PREPARATION - VENTED-SPACE FUNCTION ZN,SizingPeriod: FORT MCMURRAY AP ANN CLG .4% CONDNS DB=>MWB,2.0955688341E-002,4.7142244506E-002,Pass,Pass,2.4312365653E-002,6.7891347691E-002,Pass,Pass
 Warmup Convergence Information,FOOD PREPARATION-SPACE FUNCTION ZN,SizingPeriod: FORT MCMURRAY AP ANN CLG .4% CONDNS DB=>MWB,3.4973991336E-002,0.1017675128,Pass,Pass,2.1790611695E-002,7.8753863645E-002,Pass,Pass
 Warmup Convergence Information,GYM - AUDIENCE-SPACE FUNCTION ZN,SizingPeriod: FORT MCMURRAY AP ANN CLG .4% CONDNS DB=>MWB,5.6570030337E-002,0.1004508870,Pass,Pass,5.5111339554E-002,0.1103891525,Pass,Pass
Environment,FORT MCMURRAY AP ANN HTG 99.6% CONDNS DB,SizingPeriod:DesignDay,01/21,01/21,WinterDesignDay,1,N/A,N/A,N/A,N/A,N/A,N/A
Environment:Daylight Saving,No,SizingPeriod:DesignDay
Environment:Design Day Data,-36.20,0.00,DefaultMultipliers,96969,90,1.0,0.00,No,No
Environment:Design Day Misc, 21,1229.0,0.1415,5.7310E-002,1.0,-11.15,-20.1,ASHRAEClearSky
Environment:WarmupDays,  6
 Warmup Convergence Information,DINING - BAR LOUNGE/LEISURE-SPACE FUNCTION ZN,SizingPeriod: FORT MCMURRAY AP ANN HTG 99.6% CONDNS DB,5.5555555556E-002,0.3881834602,Pass,Pass,0.1936675253,0.5168837030,Pass,Pass
 Warmup Convergence Information,DINING - FAMILY SPACE-SPACE FUNCTION ZN,SizingPeriod: FORT MCMURRAY AP ANN HTG 99.6% CONDNS DB,5.5555555556E-002,0.3883830062,Pass,Pass,7.1148269956E-002,0.2102946550,Pass,Pass
 Warmup Convergence Information,DINING - OTHER-SPACE FUNCTION ZN,SizingPeriod: FORT MCMURRAY AP ANN HTG 99.6% CONDNS DB,5.5555555556E-002,0.3884133417,Pass,Pass,6.9269120716E-002,0.2124682465,Pass,Pass
 Warmup Convergence Information,DORMITORY - LIVING QUARTERS-SPACE FUNCTION ZN,SizingPeriod: FORT MCMURRAY AP ANN HTG 99.6% CONDNS DB,5.9589479967E-002,0.3273076140,Pass,Pass,0.1374507551,0.4848677709,Pass,Pass
 Warmup Convergence Information,DRESS./FITT. - PERFORMANCE ARTS-SPACE FUNCTION ZN,SizingPeriod: FORT MCMURRAY AP ANN HTG 99.6% CONDNS DB,5.5692077336E-002,0.3615110375,Pass,Pass,0.2065466731,1.1224076161,Pass,Pass
 Warmup Convergence Information,DWELLING UNIT(S)-SPACE FUNCTION ZN,SizingPeriod: FORT MCMURRAY AP ANN HTG 99.6% CONDNS DB,6.1439486574E-002,0.3157870725,Pass,Pass,0.1912182327,0.9549757024,Pass,Pass
 Warmup Convergence Information,ELECTRICAL/MECHANICAL-SCH-A-SPACE FUNCTION ZN,SizingPeriod: FORT MCMURRAY AP ANN HTG 99.6% CONDNS DB,6.3791695430E-002,0.3142748935,Pass,Pass,0.3635471306,1.2801989090,Pass,Pass
 Warmup Convergence Information,ELECTRICAL/MECHANICAL-SCH-B-SPACE FUNCTION ZN,SizingPeriod: FORT MCMURRAY AP ANN HTG 99.6% CONDNS DB,5.8057211042E-002,0.3268813959,Pass,Pass,7.2113075007E-002,0.2455345907,Pass,Pass
 Warmup Convergence Information,ELECTRICAL/MECHANICAL-SCH-C-SPACE FUNCTION ZN,SizingPeriod: FORT MCMURRAY AP ANN HTG 99.6% CONDNS DB,6.3689020139E-002,0.3146547256,Pass,Pass,0.7173624319,4.2437215723,Pass,Pass
 Warmup Convergence Information,ELECTRICAL/MECHANICAL-SCH-D-SPACE FUNCTION ZN,SizingPeriod: FORT MCMURRAY AP ANN HTG 99.6% CONDNS DB,6.3373718505E-002,0.3063301565,Pass,Pass,0.1647902401,0.6929654957,Pass,Pass
 Warmup Convergence Information,ELECTRICAL/MECHANICAL-SCH-E-SPACE FUNCTION ZN,SizingPeriod: FORT MCMURRAY AP ANN HTG 99.6% CONDNS DB,6.3565063434E-002,0.3069148331,Pass,Pass,0.4310790148,2.8264752876,Pass,Pass
 Warmup Convergence Information,ELECTRICAL/MECHANICAL-SCH-F-SPACE FUNCTION ZN,SizingPeriod: FORT MCMURRAY AP ANN HTG 99.6% CONDNS DB,6.4156585208E-002,0.3080887819,Pass,Pass,1.4319856618,14.4318467992,Pass,Pass
 Warmup Convergence Information,ELECTRICAL/MECHANICAL-SCH-G-SPACE FUNCTION ZN,SizingPeriod: FORT MCMURRAY AP ANN HTG 99.6% CONDNS DB,6.2483447693E-002,0.3160396099,Pass,Pass,0.2118912589,0.8760178228,Pass,Pass
 Warmup Convergence Information,ELECTRICAL/MECHANICAL-SCH-H-SPACE FUNCTION ZN,SizingPeriod: FORT MCMURRAY AP ANN HTG 99.6% CONDNS DB,6.3370071936E-002,0.3052836548,Pass,Pass,9.5184894563E-002,0.3357108514,Pass,Pass
 Warmup Convergence Information,ELECTRICAL/MECHANICAL-SCH-I-SPACE FUNCTION ZN,SizingPeriod: FORT MCMURRAY AP ANN HTG 99.6% CONDNS DB,6.2120854161E-002,0.3063683011,Pass,Pass,0.1190849318,0.3677693705,Pass,Pass
 Warmup Convergence Information,FIRE STATION - ENGINE ROOM-SPACE FUNCTION ZN,SizingPeriod: FORT MCMURRAY AP ANN HTG 99.6% CONDNS DB,5.5823608097E-002,0.3607249893,Pass,Pass,0.2520786366,1.1005990607,Pass,Pass
 Warmup Convergence Information,FIRE STATION - QUARTERS-SPACE FUNCTION ZN,SizingPeriod: FORT MCMURRAY AP ANN HTG 99.6% CONDNS DB,5.5935123984E-002,0.3548624296,Pass,Pass,6.1379965104E-002,0.2461312699,Pass,Pass
 Warmup Convergence Information,FOOD PREPARATION - VENTED-SPACE FUNCTION ZN,SizingPeriod: FORT MCMURRAY AP ANN HTG 99.6% CONDNS DB,5.5555555556E-002,0.3647108680,Pass,Pass,0.1441443851,0.4388958717,Pass,Pass
 Warmup Convergence Information,FOOD PREPARATION-SPACE FUNCTION ZN,SizingPeriod: FORT MCMURRAY AP ANN HTG 99.6% CONDNS DB,5.5555555556E-002,0.3645922028,Pass,Pass,0.3659267953,1.9552956482,Pass,Pass
 Warmup Convergence Information,GYM - AUDIENCE-SPACE FUNCTION ZN,SizingPeriod: FORT MCMURRAY AP ANN HTG 99.6% CONDNS DB,5.5555555556E-002,0.3893852716,Pass,Pass,0.4177216739,1.7512334826,Pass,Pass
! <Program Control Information:Threads/Parallel Sims>, Threading Supported,Maximum Number of Threads, Env Set Threads (OMP_NUM_THREADS), EP Env Set Threads (EP_OMP_NUM_THREADS), IDF Set Threads, Number of Threads Used (Interior Radiant Exchange), Number Nominal Surfaces, Number Parallel Sims
Program Control:Threads/Parallel Sims, No,1, N/A, N/A, N/A, N/A, N/A, N/A
End of Data
