Program Version,EnergyPlus, Version 8.9.0-eba93e8e1b, YMD=2019.03.19 18:40
! <Version>, Version ID
 Version, 8.9
! <Timesteps per Hour>, #TimeSteps, Minutes per TimeStep {minutes}
 Timesteps per Hour,  6, 10
! <System Convergence Limits>, Minimum System TimeStep {minutes}, Max HVAC Iterations, Minimum Plant Iterations, Maximum Plant Iterations
 System Convergence Limits, 1, 20, 2, 8
! <Simulation Control>, Do Zone Sizing, Do System Sizing, Do Plant Sizing, Do Design Days, Do Weather Simulation, Do HVAC Sizing Simulation
 Simulation Control, Yes, Yes, Yes, No, Yes, No
! <Output Reporting Tolerances>, Tolerance for Time Heating Setpoint Not Met, Tolerance for Zone Cooling Setpoint Not Met Time
 Output Reporting Tolerances, 1.000, 1.000, 
! <Site:GroundTemperature:BuildingSurface>,Jan{C},Feb{C},Mar{C},Apr{C},May{C},Jun{C},Jul{C},Aug{C},Sep{C},Oct{C},Nov{C},Dec{C}
 Site:GroundTemperature:BuildingSurface,  19.53,  19.50,  19.54,  19.60,  20.00,  21.64,  22.23,  22.38,  21.45,  20.12,  19.80,  19.63
! <Site:GroundTemperature:FCfactorMethod>,Jan{C},Feb{C},Mar{C},Apr{C},May{C},Jun{C},Jul{C},Aug{C},Sep{C},Oct{C},Nov{C},Dec{C}
 Site:GroundTemperature:FCfactorMethod, -12.27, -13.66, -11.19,  -7.33,   2.77,  10.57,  15.83,  17.43,  14.70,   8.65,   0.56,  -6.95
! <Site:GroundTemperature:Shallow>,Jan{C},Feb{C},Mar{C},Apr{C},May{C},Jun{C},Jul{C},Aug{C},Sep{C},Oct{C},Nov{C},Dec{C}
 Site:GroundTemperature:Shallow,  13.00,  13.00,  13.00,  13.00,  13.00,  13.00,  13.00,  13.00,  13.00,  13.00,  13.00,  13.00
! <Site:GroundTemperature:Deep>,Jan{C},Feb{C},Mar{C},Apr{C},May{C},Jun{C},Jul{C},Aug{C},Sep{C},Oct{C},Nov{C},Dec{C}
 Site:GroundTemperature:Deep,  16.00,  16.00,  16.00,  16.00,  16.00,  16.00,  16.00,  16.00,  16.00,  16.00,  16.00,  16.00
! <Site:GroundReflectance>,Jan{dimensionless},Feb{dimensionless},Mar{dimensionless},Apr{dimensionless},May{dimensionless},Jun{dimensionless},Jul{dimensionless},Aug{dimensionless},Sep{dimensionless},Oct{dimensionless},Nov{dimensionless},Dec{dimensionless}
 Site:GroundReflectance,  0.20,  0.20,  0.20,  0.20,  0.20,  0.20,  0.20,  0.20,  0.20,  0.20,  0.20,  0.20
! <Site:GroundReflectance:SnowModifier>, Normal, Daylighting {dimensionless}
 Site:GroundReflectance:SnowModifier,   1.000,   1.000
! <Site:GroundReflectance:Snow>,Jan{dimensionless},Feb{dimensionless},Mar{dimensionless},Apr{dimensionless},May{dimensionless},Jun{dimensionless},Jul{dimensionless},Aug{dimensionless},Sep{dimensionless},Oct{dimensionless},Nov{dimensionless},Dec{dimensionless}
 Site:GroundReflectance:Snow,  0.20,  0.20,  0.20,  0.20,  0.20,  0.20,  0.20,  0.20,  0.20,  0.20,  0.20,  0.20
! <Site:GroundReflectance:Snow:Daylighting>,Jan{dimensionless},Feb{dimensionless},Mar{dimensionless},Apr{dimensionless},May{dimensionless},Jun{dimensionless},Jul{dimensionless},Aug{dimensionless},Sep{dimensionless},Oct{dimensionless},Nov{dimensionless},Dec{dimensionless}
 Site:GroundReflectance:Snow:Daylighting,  0.20,  0.20,  0.20,  0.20,  0.20,  0.20,  0.20,  0.20,  0.20,  0.20,  0.20,  0.20
! <Environment:Weather Station>,Wind Sensor Height Above Ground {m},Wind Speed Profile Exponent {},Wind Speed Profile Boundary Layer Thickness {m},Air Temperature Sensor Height Above Ground {m},Wind Speed Modifier Coefficient-Internal,Temperature Modifier Coefficient-Internal
Environment:Weather Station,10.000,0.140,270.000,1.500,1.586,9.750E-003
! <Site:Location>, Location Name, Latitude {N+/S- Deg}, Longitude {E+/W- Deg},  Time Zone Number {GMT+/-}, Elevation {m},  Standard Pressure at Elevation {Pa}, Standard RhoAir at Elevation
Site:Location,Fort McMurray AP AB CAN CWEC2016 WMO#=716890,56.65,-111.22,-7.00,369.10,96969,1.1525
! <Building Information>, Building Name,North Axis {deg},Terrain,  Loads Convergence Tolerance Value,Temperature Convergence Tolerance Value,  Solar Distribution,Maximum Number of Warmup Days,Minimum Number of Warmup Days
 Building Information,Building 1,0.000,Suburbs,4.00000E-002,0.40000,FullExterior,25,6
! <Inside Convection Algorithm>, Algorithm {Simple | TARP | CeilingDiffuser | AdaptiveConvectionAlgorithm}
Inside Convection Algorithm,TARP
! <Outside Convection Algorithm>, Algorithm {SimpleCombined | TARP | MoWitt | DOE-2 | AdaptiveConvectionAlgorithm}
Outside Convection Algorithm,TARP
! <Sky Radiance Distribution>, Value {Anisotropic}
Sky Radiance Distribution,Anisotropic
! <Zone Air Solution Algorithm>, Value {ThirdOrderBackwardDifference | AnalyticalSolution | EulerMethod}
 Zone Air Solution Algorithm, ThirdOrderBackwardDifference
! <Zone Air Carbon Dioxide Balance Simulation>, Simulation {Yes/No}, Carbon Dioxide Concentration
 Zone Air Carbon Dioxide Balance Simulation, No,N/A
! <Zone Air Generic Contaminant Balance Simulation>, Simulation {Yes/No}, Generic Contaminant Concentration
 Zone Air Generic Contaminant Balance Simulation, No,N/A
! <Zone Air Mass Flow Balance Simulation>, Enforce Mass Balance, Adjust Zone Mixing, Adjust Zone Infiltration {AddInfiltration | AdjustInfiltration | None}, Infiltration Zones {MixingSourceZonesOnly | AllZones}
 Zone Air Mass Flow Balance Simulation, No,N/A,N/A,N/A
! <HVACSystemRootFindingAlgorithm>, Value {RegulaFalsi | Bisection | BisectionThenRegulaFalsi | RegulaFalsiThenBisection}
 HVACSystemRootFindingAlgorithm, RegulaFalsi
! <Environment:Site Atmospheric Variation>,Wind Speed Profile Exponent {},Wind Speed Profile Boundary Layer Thickness {m},Air Temperature Gradient Coefficient {K/m}
Environment:Site Atmospheric Variation,0.220,370.000,6.500000E-003
! <Surface Geometry>,Starting Corner,Vertex Input Direction,Coordinate System,Daylight Reference Point Coordinate System,Rectangular (Simple) Surface Coordinate System
 Surface Geometry,UpperLeftCorner,Counterclockwise,RelativeCoordinateSystem,RelativeCoordinateSystem,RelativeToZoneOrigin
! <Surface Heat Transfer Algorithm>, Value {CTF - ConductionTransferFunction | EMPD - MoisturePenetrationDepthConductionTransferFunction | CondFD - ConductionFiniteDifference | HAMT - CombinedHeatAndMoistureFiniteElement} - Description,Inside Surface Max Temperature Limit{C}, Surface Convection Coefficient Lower Limit {W/m2-K}, Surface Convection Coefficient Upper Limit {W/m2-K}
Surface Heat Transfer Algorithm, CTF - ConductionTransferFunction,200,0.10,1000.0
! <Shading Summary>, Number of Fixed Detached Shades, Number of Building Detached Shades, Number of Attached Shades
 Shading Summary,0,0,0
! <Zone Summary>, Number of Zones, Number of Zone Surfaces, Number of SubSurfaces
 Zone Summary,20,137,17
! <Zone Information>,Zone Name,North Axis {deg},Origin X-Coordinate {m},Origin Y-Coordinate {m},Origin Z-Coordinate {m},Centroid X-Coordinate {m},Centroid Y-Coordinate {m},Centroid Z-Coordinate {m},Type,Zone Multiplier,Zone List Multiplier,Minimum X {m},Maximum X {m},Minimum Y {m},Maximum Y {m},Minimum Z {m},Maximum Z {m},Ceiling Height {m},Volume {m3},Zone Inside Convection Algorithm {Simple-Detailed-CeilingDiffuser-TrombeWall},Zone Outside Convection Algorithm {Simple-Detailed-Tarp-MoWitt-DOE-2-BLAST}, Floor Area {m2},Exterior Gross Wall Area {m2},Exterior Net Wall Area {m2},Exterior Window Area {m2}, Number of Surfaces, Number of SubSurfaces, Number of Shading SubSurfaces,  Part of Total Building Area
 Zone Information, ALL_ST=GYM - FITNESS_FL=STORY 4_SCH=B,0.0,0.00,0.00,11.40,50.00,10.85,13.30,1,1,1,0.00,100.00,0.00,25.00,11.40,15.20,3.80,7125.00,TARP,TARP,1875.00,380.00,285.00,188.75,6,2,0,Yes
 Zone Information, ALL_ST=GYM - PLAY_FL=STORY 4_SCH=B,0.0,75.00,25.00,11.40,89.15,50.00,13.30,1,1,1,75.00,100.00,0.00,100.00,11.40,15.20,3.80,7125.00,TARP,TARP,1875.00,380.00,285.00,188.75,6,2,0,Yes
 Zone Information, ALL_ST=HOSPITAL - EMERGENCY_FL=STORY 4_SCH=H,0.0,0.00,0.00,11.40,10.85,50.00,13.30,1,1,1,0.00,25.00,0.00,100.00,11.40,15.20,3.80,7125.00,TARP,TARP,1875.00,380.00,285.00,188.75,6,2,0,Yes
 Zone Information, ALL_ST=HOSPITAL - EXAM_FL=STORY 3_SCH=C,0.0,25.00,75.00,7.60,50.00,89.15,9.50,1,1,1,0.00,100.00,75.00,100.00,7.60,11.40,3.80,7125.00,TARP,TARP,1875.00,380.00,285.00,95.00,6,1,0,Yes
 Zone Information, ALL_ST=HOSPITAL - LAUNDRY/WASHING_FL=STORY 3_SCH=C,0.0,0.00,0.00,7.60,10.85,50.00,9.50,1,1,1,0.00,25.00,0.00,100.00,7.60,11.40,3.80,7125.00,TARP,TARP,1875.00,380.00,285.00,95.00,6,1,0,Yes
 Zone Information, ALL_ST=HOSPITAL - LOUNGE/RECREATION_FL=STORY 4_SCH=B,0.0,25.00,75.00,11.40,50.00,89.15,13.30,1,1,1,0.00,100.00,75.00,100.00,11.40,15.20,3.80,7125.00,TARP,TARP,1875.00,380.00,285.00,188.75,6,2,0,Yes
 Zone Information, ALL_ST=HOSPITAL - MEDICAL SUPPLY - OCCSENS_FL=STORY 1_SCH=H,0.0,0.00,0.00,0.00,10.85,50.00,1.90,1,1,1,0.00,25.00,0.00,100.00,0.00,3.80,3.80,7125.00,TARP,TARP,1875.00,0.00,0.00,0.00,6,0,0,Yes
 Zone Information, ALL_ST=HOSPITAL - MEDICAL SUPPLY_FL=STORY 3_SCH=H,0.0,0.00,0.00,7.60,50.00,10.85,9.50,1,1,1,0.00,100.00,0.00,25.00,7.60,11.40,3.80,7125.00,TARP,TARP,1875.00,380.00,285.00,95.00,6,1,0,Yes
 Zone Information, ALL_ST=HOSPITAL - NURSERY_FL=STORY 3_SCH=H,0.0,75.00,25.00,7.60,89.15,50.00,9.50,1,1,1,75.00,100.00,0.00,100.00,7.60,11.40,3.80,7125.00,TARP,TARP,1875.00,380.00,285.00,95.00,6,1,0,Yes
 Zone Information, ALL_ST=HOSPITAL - NURSES STATION_FL=STORY 1_SCH=H,0.0,25.00,75.00,0.00,50.00,89.15,1.90,1,1,1,0.00,100.00,75.00,100.00,0.00,3.80,3.80,7125.00,TARP,TARP,1875.00,0.00,0.00,0.00,6,0,0,Yes
 Zone Information, ALL_ST=HOSPITAL - OPERATING ROOM_FL=STORY 4_SCH=H,0.0,25.00,25.00,11.40,50.00,50.00,13.30,1,1,1,25.00,75.00,25.00,75.00,11.40,15.20,3.80,9500.00,TARP,TARP,2500.00,0.00,0.00,125.00,6,1,0,Yes
 Zone Information, ALL_ST=HOSPITAL - PATIENT ROOM_FL=STORY 1_SCH=H,0.0,75.00,25.00,0.00,89.15,50.00,1.90,1,1,1,75.00,100.00,0.00,100.00,0.00,3.80,3.80,7125.00,TARP,TARP,1875.00,0.00,0.00,0.00,6,0,0,Yes
 Zone Information, ALL_ST=HOSPITAL - PHARMACY_FL=STORY 1_SCH=C,0.0,0.00,0.00,0.00,50.00,10.85,1.90,1,1,1,0.00,100.00,0.00,25.00,0.00,3.80,3.80,7125.00,TARP,TARP,1875.00,0.00,0.00,0.00,6,0,0,Yes
 Zone Information, ALL_ST=HOSPITAL - PHYSICAL THERAPY_FL=STORY 1_SCH=C,0.0,25.00,25.00,0.00,50.00,50.00,1.90,1,1,1,25.00,75.00,25.00,75.00,0.00,3.80,3.80,9500.00,TARP,TARP,2500.00,0.00,0.00,0.00,6,0,0,Yes
 Zone Information, ALL_ST=HOSPITAL - RADIOLOGY/IMAGING_FL=STORY 2_SCH=H,0.0,0.00,0.00,3.80,10.85,50.00,5.70,1,1,1,0.00,25.00,0.00,100.00,3.80,7.60,3.80,7125.00,TARP,TARP,1875.00,380.00,285.00,95.00,6,1,0,Yes
 Zone Information, ALL_ST=HOSPITAL - RECOVERY_FL=STORY 2_SCH=H,0.0,75.00,25.00,3.80,89.15,50.00,5.70,1,1,1,75.00,100.00,0.00,100.00,3.80,7.60,3.80,7125.00,TARP,TARP,1875.00,380.00,285.00,95.00,6,1,0,Yes
 Zone Information, WILD_ST=HOSPITAL CORR. < 2.4M-SCH-A_FL=STORY 2_SCH=H,0.0,25.00,75.00,3.80,50.00,89.15,5.70,1,1,1,0.00,100.00,75.00,100.00,3.80,7.60,3.80,7125.00,TARP,TARP,1875.00,380.00,285.00,95.00,6,1,0,Yes
 Zone Information, WILD_ST=HOSPITAL CORR. < 2.4M-SCH-B_FL=STORY 2_SCH=H,0.0,0.00,0.00,3.80,50.00,10.85,5.70,1,1,1,0.00,100.00,0.00,25.00,3.80,7.60,3.80,7125.00,TARP,TARP,1875.00,380.00,285.00,95.00,6,1,0,Yes
 Zone Information, WILD_ST=HOSPITAL CORR. < 2.4M-SCH-C_FL=STORY 3_SCH=H,0.0,25.00,25.00,7.60,50.00,50.00,9.50,1,1,1,25.00,75.00,25.00,75.00,7.60,11.40,3.80,9500.00,TARP,TARP,2500.00,0.00,0.00,0.00,6,0,0,Yes
 Zone Information, WILD_ST=HOSPITAL CORR. < 2.4M-SCH-D_FL=STORY 2_SCH=H,0.0,25.00,25.00,3.80,50.00,50.00,5.70,1,1,1,25.00,75.00,25.00,75.00,3.80,7.60,3.80,9500.00,TARP,TARP,2500.00,0.00,0.00,0.00,6,0,0,Yes
! <Zone Internal Gains Nominal>,Zone Name, Floor Area {m2},# Occupants,Area per Occupant {m2/person},Occupant per Area {person/m2},Interior Lighting {W/m2},Electric Load {W/m2},Gas Load {W/m2},Other Load {W/m2},Hot Water Eq {W/m2},Steam Equipment {W/m2},Sum Loads per Area {W/m2},Outdoor Controlled Baseboard Heat
 Zone Internal Gains Nominal, ALL_ST=GYM - FITNESS_FL=STORY 4_SCH=B,1875.00,375.0,5.000,0.200,9.800,1.000,0.000,0.000,0.000,0.000,10.800,No
 Zone Internal Gains Nominal, ALL_ST=GYM - PLAY_FL=STORY 4_SCH=B,1875.00,375.0,5.000,0.200,12.900,1.500,0.000,0.000,0.000,0.000,14.400,No
 Zone Internal Gains Nominal, ALL_ST=HOSPITAL - EMERGENCY_FL=STORY 4_SCH=H,1875.00,93.8,19.979,5.005E-002,24.300,10.000,0.000,0.000,0.000,0.000,34.300,No
 Zone Internal Gains Nominal, ALL_ST=HOSPITAL - EXAM_FL=STORY 3_SCH=C,1875.00,93.8,19.979,5.005E-002,17.900,10.000,0.000,0.000,0.000,0.000,27.900,No
 Zone Internal Gains Nominal, ALL_ST=HOSPITAL - LAUNDRY/WASHING_FL=STORY 3_SCH=C,1875.00,93.8,19.979,5.005E-002,8.000,20.000,0.000,0.000,0.000,0.000,28.000,No
 Zone Internal Gains Nominal, ALL_ST=HOSPITAL - LOUNGE/RECREATION_FL=STORY 4_SCH=B,1875.00,187.5,10.000,10.000E-002,11.500,1.000,0.000,0.000,0.000,0.000,12.500,No
 Zone Internal Gains Nominal, ALL_ST=HOSPITAL - MEDICAL SUPPLY - OCCSENS_FL=STORY 1_SCH=H,1875.00,93.8,19.979,5.005E-002,12.330,1.000,0.000,0.000,0.000,0.000,13.330,No
 Zone Internal Gains Nominal, ALL_ST=HOSPITAL - MEDICAL SUPPLY_FL=STORY 3_SCH=H,1875.00,93.8,19.979,5.005E-002,13.700,1.000,0.000,0.000,0.000,0.000,14.700,No
 Zone Internal Gains Nominal, ALL_ST=HOSPITAL - NURSERY_FL=STORY 3_SCH=H,1875.00,93.8,19.979,5.005E-002,9.500,10.000,0.000,0.000,0.000,0.000,19.500,No
 Zone Internal Gains Nominal, ALL_ST=HOSPITAL - NURSES STATION_FL=STORY 1_SCH=H,1875.00,93.8,19.979,5.005E-002,9.400,2.500,0.000,0.000,0.000,0.000,11.900,No
 Zone Internal Gains Nominal, ALL_ST=HOSPITAL - OPERATING ROOM_FL=STORY 4_SCH=H,2500.00,125.1,19.979,5.005E-002,20.300,10.000,0.000,0.000,0.000,0.000,30.300,No
 Zone Internal Gains Nominal, ALL_ST=HOSPITAL - PATIENT ROOM_FL=STORY 1_SCH=H,1875.00,93.8,19.979,5.005E-002,6.700,10.000,0.000,0.000,0.000,0.000,16.700,No
 Zone Internal Gains Nominal, ALL_ST=HOSPITAL - PHARMACY_FL=STORY 1_SCH=C,1875.00,93.8,19.979,5.005E-002,12.300,2.500,0.000,0.000,0.000,0.000,14.800,No
 Zone Internal Gains Nominal, ALL_ST=HOSPITAL - PHYSICAL THERAPY_FL=STORY 1_SCH=C,2500.00,125.1,19.979,5.005E-002,9.800,10.000,0.000,0.000,0.000,0.000,19.800,No
 Zone Internal Gains Nominal, ALL_ST=HOSPITAL - RADIOLOGY/IMAGING_FL=STORY 2_SCH=H,1875.00,93.8,19.979,5.005E-002,14.200,10.000,0.000,0.000,0.000,0.000,24.200,No
 Zone Internal Gains Nominal, ALL_ST=HOSPITAL - RECOVERY_FL=STORY 2_SCH=H,1875.00,93.8,19.979,5.005E-002,12.400,10.000,0.000,0.000,0.000,0.000,22.400,No
 Zone Internal Gains Nominal, WILD_ST=HOSPITAL CORR. < 2.4M-SCH-A_FL=STORY 2_SCH=H,1875.00,18.8,99.896,1.001E-002,11.700,0.000,0.000,0.000,0.000,0.000,11.700,No
 Zone Internal Gains Nominal, WILD_ST=HOSPITAL CORR. < 2.4M-SCH-B_FL=STORY 2_SCH=H,1875.00,18.8,99.896,1.001E-002,11.700,0.000,0.000,0.000,0.000,0.000,11.700,No
 Zone Internal Gains Nominal, WILD_ST=HOSPITAL CORR. < 2.4M-SCH-C_FL=STORY 3_SCH=H,2500.00,25.0,99.896,1.001E-002,11.700,0.000,0.000,0.000,0.000,0.000,11.700,No
 Zone Internal Gains Nominal, WILD_ST=HOSPITAL CORR. < 2.4M-SCH-D_FL=STORY 2_SCH=H,2500.00,25.0,99.896,1.001E-002,11.700,0.000,0.000,0.000,0.000,0.000,11.700,No
! <People Internal Gains Nominal>,Name,Schedule Name,Zone Name,Zone Floor Area {m2},# Zone Occupants,Number of People {},People/Floor Area {person/m2},Floor Area per person {m2/person},Fraction Radiant,Fraction Convected,Sensible Fraction Calculation,Activity level,ASHRAE 55 Warnings,Carbon Dioxide Generation Rate,Nominal Minimum Number of People,Nominal Maximum Number of People
 People Internal Gains Nominal, ALL_ST=GYM - FITNESS_FL=STORY 4_SCH=B SPACE FUNCTION GYM - FITNESS PEOPLE,NECB-B-OCCUPANCY,ALL_ST=GYM - FITNESS_FL=STORY 4_SCH=B,1875.00,375.0,375.0,0.200,5.000,0.300,0.700,AutoCalculate,NECB-ACTIVITY,No,3.8200E-008,0,337
 People Internal Gains Nominal, ALL_ST=GYM - PLAY_FL=STORY 4_SCH=B SPACE FUNCTION GYM - PLAY PEOPLE,NECB-B-OCCUPANCY,ALL_ST=GYM - PLAY_FL=STORY 4_SCH=B,1875.00,375.0,375.0,0.200,5.000,0.300,0.700,AutoCalculate,NECB-ACTIVITY,No,3.8200E-008,0,337
 People Internal Gains Nominal, ALL_ST=HOSPITAL - EMERGENCY_FL=STORY 4_SCH=H SPACE FUNCTION HOSPITAL - EMERGENCY PEOPLE,NECB-H-OCCUPANCY,ALL_ST=HOSPITAL - EMERGENCY_FL=STORY 4_SCH=H,1875.00,93.8,93.8,5.005E-002,19.979,0.300,0.700,AutoCalculate,NECB-ACTIVITY,No,3.8200E-008,84,84
 People Internal Gains Nominal, ALL_ST=HOSPITAL - EXAM_FL=STORY 3_SCH=C SPACE FUNCTION HOSPITAL - EXAM PEOPLE,NECB-C-OCCUPANCY,ALL_ST=HOSPITAL - EXAM_FL=STORY 3_SCH=C,1875.00,93.8,93.8,5.005E-002,19.979,0.300,0.700,AutoCalculate,NECB-ACTIVITY,No,3.8200E-008,0,84
 People Internal Gains Nominal, ALL_ST=HOSPITAL - LAUNDRY/WASHING_FL=STORY 3_SCH=C SPACE FUNCTION HOSPITAL - LAUNDRY/WASHING PEOPLE,NECB-C-OCCUPANCY,ALL_ST=HOSPITAL - LAUNDRY/WASHING_FL=STORY 3_SCH=C,1875.00,93.8,93.8,5.005E-002,19.979,0.300,0.700,AutoCalculate,NECB-ACTIVITY,No,3.8200E-008,0,84
 People Internal Gains Nominal, ALL_ST=HOSPITAL - LOUNGE/RECREATION_FL=STORY 4_SCH=B SPACE FUNCTION HOSPITAL - LOUNGE/RECREATION PEOPLE,NECB-B-OCCUPANCY,ALL_ST=HOSPITAL - LOUNGE/RECREATION_FL=STORY 4_SCH=B,1875.00,187.5,187.5,10.000E-002,10.000,0.300,0.700,AutoCalculate,NECB-ACTIVITY,No,3.8200E-008,0,169
 People Internal Gains Nominal, ALL_ST=HOSPITAL - MEDICAL SUPPLY_FL=STORY 3_SCH=H SPACE FUNCTION HOSPITAL - MEDICAL SUPPLY PEOPLE,NECB-H-OCCUPANCY,ALL_ST=HOSPITAL - MEDICAL SUPPLY_FL=STORY 3_SCH=H,1875.00,93.8,93.8,5.005E-002,19.979,0.300,0.700,AutoCalculate,NECB-ACTIVITY,No,3.8200E-008,84,84
 People Internal Gains Nominal, ALL_ST=HOSPITAL - MEDICAL SUPPLY - OCCSENS_FL=STORY 1_SCH=H SPACE FUNCTION HOSPITAL - MEDICAL SUPPLY - OCCSENS PEOPLE,NECB-H-OCCUPANCY,ALL_ST=HOSPITAL - MEDICAL SUPPLY - OCCSENS_FL=STORY 1_SCH=H,1875.00,93.8,93.8,5.005E-002,19.979,0.300,0.700,AutoCalculate,NECB-ACTIVITY,No,3.8200E-008,84,84
 People Internal Gains Nominal, ALL_ST=HOSPITAL - NURSERY_FL=STORY 3_SCH=H SPACE FUNCTION HOSPITAL - NURSERY PEOPLE,NECB-H-OCCUPANCY,ALL_ST=HOSPITAL - NURSERY_FL=STORY 3_SCH=H,1875.00,93.8,93.8,5.005E-002,19.979,0.300,0.700,AutoCalculate,NECB-ACTIVITY,No,3.8200E-008,84,84
 People Internal Gains Nominal, ALL_ST=HOSPITAL - NURSES STATION_FL=STORY 1_SCH=H SPACE FUNCTION HOSPITAL - NURSES STATION PEOPLE,NECB-H-OCCUPANCY,ALL_ST=HOSPITAL - NURSES STATION_FL=STORY 1_SCH=H,1875.00,93.8,93.8,5.005E-002,19.979,0.300,0.700,AutoCalculate,NECB-ACTIVITY,No,3.8200E-008,84,84
 People Internal Gains Nominal, ALL_ST=HOSPITAL - OPERATING ROOM_FL=STORY 4_SCH=H SPACE FUNCTION HOSPITAL - OPERATING ROOM PEOPLE,NECB-H-OCCUPANCY,ALL_ST=HOSPITAL - OPERATING ROOM_FL=STORY 4_SCH=H,2500.00,125.1,125.1,5.005E-002,19.979,0.300,0.700,AutoCalculate,NECB-ACTIVITY,No,3.8200E-008,113,113
 People Internal Gains Nominal, ALL_ST=HOSPITAL - PATIENT ROOM_FL=STORY 1_SCH=H SPACE FUNCTION HOSPITAL - PATIENT ROOM PEOPLE,NECB-H-OCCUPANCY,ALL_ST=HOSPITAL - PATIENT ROOM_FL=STORY 1_SCH=H,1875.00,93.8,93.8,5.005E-002,19.979,0.300,0.700,AutoCalculate,NECB-ACTIVITY,No,3.8200E-008,84,84
 People Internal Gains Nominal, ALL_ST=HOSPITAL - PHARMACY_FL=STORY 1_SCH=C SPACE FUNCTION HOSPITAL - PHARMACY PEOPLE,NECB-C-OCCUPANCY,ALL_ST=HOSPITAL - PHARMACY_FL=STORY 1_SCH=C,1875.00,93.8,93.8,5.005E-002,19.979,0.300,0.700,AutoCalculate,NECB-ACTIVITY,No,3.8200E-008,0,84
 People Internal Gains Nominal, ALL_ST=HOSPITAL - PHYSICAL THERAPY_FL=STORY 1_SCH=C SPACE FUNCTION HOSPITAL - PHYSICAL THERAPY PEOPLE,NECB-C-OCCUPANCY,ALL_ST=HOSPITAL - PHYSICAL THERAPY_FL=STORY 1_SCH=C,2500.00,125.1,125.1,5.005E-002,19.979,0.300,0.700,AutoCalculate,NECB-ACTIVITY,No,3.8200E-008,0,113
 People Internal Gains Nominal, ALL_ST=HOSPITAL - RADIOLOGY/IMAGING_FL=STORY 2_SCH=H SPACE FUNCTION HOSPITAL - RADIOLOGY/IMAGING PEOPLE,NECB-H-OCCUPANCY,ALL_ST=HOSPITAL - RADIOLOGY/IMAGING_FL=STORY 2_SCH=H,1875.00,93.8,93.8,5.005E-002,19.979,0.300,0.700,AutoCalculate,NECB-ACTIVITY,No,3.8200E-008,84,84
 People Internal Gains Nominal, ALL_ST=HOSPITAL - RECOVERY_FL=STORY 2_SCH=H SPACE FUNCTION HOSPITAL - RECOVERY PEOPLE,NECB-H-OCCUPANCY,ALL_ST=HOSPITAL - RECOVERY_FL=STORY 2_SCH=H,1875.00,93.8,93.8,5.005E-002,19.979,0.300,0.700,AutoCalculate,NECB-ACTIVITY,No,3.8200E-008,84,84
 People Internal Gains Nominal, WILD_ST=HOSPITAL CORR. < 2.4M-SCH-A_FL=STORY 2_SCH=H SPACE FUNCTION HOSPITAL CORR. < 2.4M-SCH-H PEOPLE,NECB-H-OCCUPANCY,WILD_ST=HOSPITAL CORR. < 2.4M-SCH-A_FL=STORY 2_SCH=H,1875.00,18.8,18.8,1.001E-002,99.896,0.300,0.700,AutoCalculate,NECB-ACTIVITY,No,3.8200E-008,17,17
 People Internal Gains Nominal, WILD_ST=HOSPITAL CORR. < 2.4M-SCH-B_FL=STORY 2_SCH=H SPACE FUNCTION HOSPITAL CORR. < 2.4M-SCH-H PEOPLE,NECB-H-OCCUPANCY,WILD_ST=HOSPITAL CORR. < 2.4M-SCH-B_FL=STORY 2_SCH=H,1875.00,18.8,18.8,1.001E-002,99.896,0.300,0.700,AutoCalculate,NECB-ACTIVITY,No,3.8200E-008,17,17
 People Internal Gains Nominal, WILD_ST=HOSPITAL CORR. < 2.4M-SCH-C_FL=STORY 3_SCH=H SPACE FUNCTION HOSPITAL CORR. < 2.4M-SCH-H PEOPLE,NECB-H-OCCUPANCY,WILD_ST=HOSPITAL CORR. < 2.4M-SCH-C_FL=STORY 3_SCH=H,2500.00,25.0,25.0,1.001E-002,99.896,0.300,0.700,AutoCalculate,NECB-ACTIVITY,No,3.8200E-008,23,23
 People Internal Gains Nominal, WILD_ST=HOSPITAL CORR. < 2.4M-SCH-D_FL=STORY 2_SCH=H SPACE FUNCTION HOSPITAL CORR. < 2.4M-SCH-H PEOPLE,NECB-H-OCCUPANCY,WILD_ST=HOSPITAL CORR. < 2.4M-SCH-D_FL=STORY 2_SCH=H,2500.00,25.0,25.0,1.001E-002,99.896,0.300,0.700,AutoCalculate,NECB-ACTIVITY,No,3.8200E-008,23,23
! <Lights Internal Gains Nominal>,Name,Schedule Name,Zone Name,Zone Floor Area {m2},# Zone Occupants,Lighting Level {W},Lights/Floor Area {W/m2},Lights per person {W/person},Fraction Return Air,Fraction Radiant,Fraction Short Wave,Fraction Convected,Fraction Replaceable,End-Use Category,Nominal Minimum Lighting Level {W},Nominal Maximum Lighting Level {W}
 Lights Internal Gains Nominal, ALL_ST=GYM - FITNESS_FL=STORY 4_SCH=B SPACE FUNCTION GYM - FITNESS LIGHTS,NECB-B-LIGHTING,ALL_ST=GYM - FITNESS_FL=STORY 4_SCH=B,1875.00,375.0,18374.847,9.800,49.001,0.000,0.500,0.200,0.300,1.000,General,1837.485,16537.362
 Lights Internal Gains Nominal, ALL_ST=GYM - PLAY_FL=STORY 4_SCH=B SPACE FUNCTION GYM - PLAY LIGHTS,NECB-B-LIGHTING,ALL_ST=GYM - PLAY_FL=STORY 4_SCH=B,1875.00,375.0,24187.299,12.900,64.502,0.000,0.500,0.200,0.300,1.000,General,2418.730,21768.569
 Lights Internal Gains Nominal, ALL_ST=HOSPITAL - EMERGENCY_FL=STORY 4_SCH=H SPACE FUNCTION HOSPITAL - EMERGENCY LIGHTS,NECB-H-LIGHTING,ALL_ST=HOSPITAL - EMERGENCY_FL=STORY 4_SCH=H,1875.00,93.8,45562.121,24.300,485.489,0.000,0.500,0.200,0.300,1.000,General,41005.909,41005.909
 Lights Internal Gains Nominal, ALL_ST=HOSPITAL - EXAM_FL=STORY 3_SCH=C SPACE FUNCTION HOSPITAL - EXAM LIGHTS,NECB-C-LIGHTING,ALL_ST=HOSPITAL - EXAM_FL=STORY 3_SCH=C,1875.00,93.8,33562.221,17.900,357.624,0.000,0.500,0.200,0.300,1.000,General,1678.111,30205.999
 Lights Internal Gains Nominal, ALL_ST=HOSPITAL - LAUNDRY/WASHING_FL=STORY 3_SCH=C SPACE FUNCTION HOSPITAL - LAUNDRY/WASHING LIGHTS,NECB-C-LIGHTING,ALL_ST=HOSPITAL - LAUNDRY/WASHING_FL=STORY 3_SCH=C,1875.00,93.8,14999.875,8.000,159.832,0.000,0.500,0.200,0.300,1.000,General,749.994,13499.888
 Lights Internal Gains Nominal, ALL_ST=HOSPITAL - LOUNGE/RECREATION_FL=STORY 4_SCH=B SPACE FUNCTION HOSPITAL - LOUNGE/RECREATION LIGHTS,NECB-B-LIGHTING,ALL_ST=HOSPITAL - LOUNGE/RECREATION_FL=STORY 4_SCH=B,1875.00,187.5,21562.321,11.500,115.003,0.000,0.500,0.200,0.300,1.000,General,2156.232,19406.088
 Lights Internal Gains Nominal, ALL_ST=HOSPITAL - MEDICAL SUPPLY_FL=STORY 3_SCH=H SPACE FUNCTION HOSPITAL - MEDICAL SUPPLY LIGHTS,NECB-H-LIGHTING,ALL_ST=HOSPITAL - MEDICAL SUPPLY_FL=STORY 3_SCH=H,1875.00,93.8,25687.286,13.700,273.712,0.000,0.500,0.200,0.300,1.000,General,23118.558,23118.558
 Lights Internal Gains Nominal, ALL_ST=HOSPITAL - MEDICAL SUPPLY - OCCSENS_FL=STORY 1_SCH=H SPACE FUNCTION HOSPITAL - MEDICAL SUPPLY - OCCSENS LIGHTS,NECB-H-LIGHTING,ALL_ST=HOSPITAL - MEDICAL SUPPLY - OCCSENS_FL=STORY 1_SCH=H,1875.00,93.8,23118.558,12.330,246.341,0.000,0.500,0.200,0.300,1.000,General,20806.702,20806.702
 Lights Internal Gains Nominal, ALL_ST=HOSPITAL - NURSERY_FL=STORY 3_SCH=H SPACE FUNCTION HOSPITAL - NURSERY LIGHTS,NECB-H-LIGHTING,ALL_ST=HOSPITAL - NURSERY_FL=STORY 3_SCH=H,1875.00,93.8,17812.352,9.500,189.800,0.000,0.500,0.200,0.300,1.000,General,16031.117,16031.117
 Lights Internal Gains Nominal, ALL_ST=HOSPITAL - NURSES STATION_FL=STORY 1_SCH=H SPACE FUNCTION HOSPITAL - NURSES STATION LIGHTS,NECB-H-LIGHTING,ALL_ST=HOSPITAL - NURSES STATION_FL=STORY 1_SCH=H,1875.00,93.8,17624.853,9.400,187.802,0.000,0.500,0.200,0.300,1.000,General,15862.368,15862.368
 Lights Internal Gains Nominal, ALL_ST=HOSPITAL - OPERATING ROOM_FL=STORY 4_SCH=H SPACE FUNCTION HOSPITAL - OPERATING ROOM LIGHTS,NECB-H-LIGHTING,ALL_ST=HOSPITAL - OPERATING ROOM_FL=STORY 4_SCH=H,2500.00,125.1,50749.578,20.300,405.573,0.000,0.500,0.200,0.300,1.000,General,45674.620,45674.620
 Lights Internal Gains Nominal, ALL_ST=HOSPITAL - PATIENT ROOM_FL=STORY 1_SCH=H SPACE FUNCTION HOSPITAL - PATIENT ROOM LIGHTS,NECB-H-LIGHTING,ALL_ST=HOSPITAL - PATIENT ROOM_FL=STORY 1_SCH=H,1875.00,93.8,12562.395,6.700,133.859,0.000,0.500,0.200,0.300,1.000,General,11306.156,11306.156
 Lights Internal Gains Nominal, ALL_ST=HOSPITAL - PHARMACY_FL=STORY 1_SCH=C SPACE FUNCTION HOSPITAL - PHARMACY LIGHTS,NECB-C-LIGHTING,ALL_ST=HOSPITAL - PHARMACY_FL=STORY 1_SCH=C,1875.00,93.8,23062.308,12.300,245.741,0.000,0.500,0.200,0.300,1.000,General,1153.115,20756.077
 Lights Internal Gains Nominal, ALL_ST=HOSPITAL - PHYSICAL THERAPY_FL=STORY 1_SCH=C SPACE FUNCTION HOSPITAL - PHYSICAL THERAPY LIGHTS,NECB-C-LIGHTING,ALL_ST=HOSPITAL - PHYSICAL THERAPY_FL=STORY 1_SCH=C,2500.00,125.1,24499.796,9.800,195.794,0.000,0.500,0.200,0.300,1.000,General,1224.990,22049.816
 Lights Internal Gains Nominal, ALL_ST=HOSPITAL - RADIOLOGY/IMAGING_FL=STORY 2_SCH=H SPACE FUNCTION HOSPITAL - RADIOLOGY/IMAGING LIGHTS,NECB-H-LIGHTING,ALL_ST=HOSPITAL - RADIOLOGY/IMAGING_FL=STORY 2_SCH=H,1875.00,93.8,26624.778,14.200,283.702,0.000,0.500,0.200,0.300,1.000,General,23962.301,23962.301
 Lights Internal Gains Nominal, ALL_ST=HOSPITAL - RECOVERY_FL=STORY 2_SCH=H SPACE FUNCTION HOSPITAL - RECOVERY LIGHTS,NECB-H-LIGHTING,ALL_ST=HOSPITAL - RECOVERY_FL=STORY 2_SCH=H,1875.00,93.8,23249.807,12.400,247.739,0.000,0.500,0.200,0.300,1.000,General,20924.826,20924.826
 Lights Internal Gains Nominal, WILD_ST=HOSPITAL CORR. < 2.4M-SCH-A_FL=STORY 2_SCH=H SPACE FUNCTION HOSPITAL CORR. < 2.4M-SCH-H LIGHTS,NECB-H-LIGHTING,WILD_ST=HOSPITAL CORR. < 2.4M-SCH-A_FL=STORY 2_SCH=H,1875.00,18.8,21937.317,11.700,1168.770,0.000,0.500,0.200,0.300,1.000,General,19743.586,19743.586
 Lights Internal Gains Nominal, WILD_ST=HOSPITAL CORR. < 2.4M-SCH-B_FL=STORY 2_SCH=H SPACE FUNCTION HOSPITAL CORR. < 2.4M-SCH-H LIGHTS,NECB-H-LIGHTING,WILD_ST=HOSPITAL CORR. < 2.4M-SCH-B_FL=STORY 2_SCH=H,1875.00,18.8,21937.317,11.700,1168.770,0.000,0.500,0.200,0.300,1.000,General,19743.586,19743.586
 Lights Internal Gains Nominal, WILD_ST=HOSPITAL CORR. < 2.4M-SCH-C_FL=STORY 3_SCH=H SPACE FUNCTION HOSPITAL CORR. < 2.4M-SCH-H LIGHTS,NECB-H-LIGHTING,WILD_ST=HOSPITAL CORR. < 2.4M-SCH-C_FL=STORY 3_SCH=H,2500.00,25.0,29249.757,11.700,1168.770,0.000,0.500,0.200,0.300,1.000,General,26324.781,26324.781
 Lights Internal Gains Nominal, WILD_ST=HOSPITAL CORR. < 2.4M-SCH-D_FL=STORY 2_SCH=H SPACE FUNCTION HOSPITAL CORR. < 2.4M-SCH-H LIGHTS,NECB-H-LIGHTING,WILD_ST=HOSPITAL CORR. < 2.4M-SCH-D_FL=STORY 2_SCH=H,2500.00,25.0,29249.757,11.700,1168.770,0.000,0.500,0.200,0.300,1.000,General,26324.781,26324.781
! <ElectricEquipment Internal Gains Nominal>,Name,Schedule Name,Zone Name,Zone Floor Area {m2},# Zone Occupants,Equipment Level {W},Equipment/Floor Area {W/m2},Equipment per person {W/person},Fraction Latent,Fraction Radiant,Fraction Lost,Fraction Convected,End-Use SubCategory,Nominal Minimum Equipment Level {W},Nominal Maximum Equipment Level {W}
 ElectricEquipment Internal Gains Nominal, ALL_ST=GYM - FITNESS_FL=STORY 4_SCH=B SPACE FUNCTION GYM - FITNESS ELEC EQUIP,NECB-B-ELECTRIC-EQUIPMENT,ALL_ST=GYM - FITNESS_FL=STORY 4_SCH=B,1875.00,375.0,1874.984,1.000,5.000,0.000,0.500,0.000,0.500,General,187.498,1687.486
 ElectricEquipment Internal Gains Nominal, ALL_ST=GYM - PLAY_FL=STORY 4_SCH=B SPACE FUNCTION GYM - PLAY ELEC EQUIP,NECB-B-ELECTRIC-EQUIPMENT,ALL_ST=GYM - PLAY_FL=STORY 4_SCH=B,1875.00,375.0,2812.477,1.500,7.500,0.000,0.500,0.000,0.500,General,281.248,2531.229
 ElectricEquipment Internal Gains Nominal, ALL_ST=HOSPITAL - EMERGENCY_FL=STORY 4_SCH=H SPACE FUNCTION HOSPITAL - EMERGENCY ELEC EQUIP,NECB-H-ELECTRIC-EQUIPMENT,ALL_ST=HOSPITAL - EMERGENCY_FL=STORY 4_SCH=H,1875.00,93.8,18749.844,10.000,199.790,0.000,0.500,0.000,0.500,General,16874.860,16874.860
 ElectricEquipment Internal Gains Nominal, ALL_ST=HOSPITAL - EXAM_FL=STORY 3_SCH=C SPACE FUNCTION HOSPITAL - EXAM ELEC EQUIP,NECB-C-ELECTRIC-EQUIPMENT,ALL_ST=HOSPITAL - EXAM_FL=STORY 3_SCH=C,1875.00,93.8,18749.844,10.000,199.790,0.000,0.500,0.000,0.500,General,937.492,16874.860
 ElectricEquipment Internal Gains Nominal, ALL_ST=HOSPITAL - LAUNDRY/WASHING_FL=STORY 3_SCH=C SPACE FUNCTION HOSPITAL - LAUNDRY/WASHING ELEC EQUIP,NECB-C-ELECTRIC-EQUIPMENT,ALL_ST=HOSPITAL - LAUNDRY/WASHING_FL=STORY 3_SCH=C,1875.00,93.8,37499.688,20.000,399.580,0.000,0.500,0.000,0.500,General,1874.984,33749.719
 ElectricEquipment Internal Gains Nominal, ALL_ST=HOSPITAL - LOUNGE/RECREATION_FL=STORY 4_SCH=B SPACE FUNCTION HOSPITAL - LOUNGE/RECREATION ELEC EQUIP,NECB-B-ELECTRIC-EQUIPMENT,ALL_ST=HOSPITAL - LOUNGE/RECREATION_FL=STORY 4_SCH=B,1875.00,187.5,1874.984,1.000,10.000,0.000,0.500,0.000,0.500,General,187.498,1687.486
 ElectricEquipment Internal Gains Nominal, ALL_ST=HOSPITAL - MEDICAL SUPPLY_FL=STORY 3_SCH=H SPACE FUNCTION HOSPITAL - MEDICAL SUPPLY ELEC EQUIP,NECB-H-ELECTRIC-EQUIPMENT,ALL_ST=HOSPITAL - MEDICAL SUPPLY_FL=STORY 3_SCH=H,1875.00,93.8,1874.984,1.000,19.979,0.000,0.500,0.000,0.500,General,1687.486,1687.486
 ElectricEquipment Internal Gains Nominal, ALL_ST=HOSPITAL - MEDICAL SUPPLY - OCCSENS_FL=STORY 1_SCH=H SPACE FUNCTION HOSPITAL - MEDICAL SUPPLY - OCCSENS ELEC EQUIP,NECB-H-ELECTRIC-EQUIPMENT,ALL_ST=HOSPITAL - MEDICAL SUPPLY - OCCSENS_FL=STORY 1_SCH=H,1875.00,93.8,1874.984,1.000,19.979,0.000,0.500,0.000,0.500,General,1687.486,1687.486
 ElectricEquipment Internal Gains Nominal, ALL_ST=HOSPITAL - NURSERY_FL=STORY 3_SCH=H SPACE FUNCTION HOSPITAL - NURSERY ELEC EQUIP,NECB-H-ELECTRIC-EQUIPMENT,ALL_ST=HOSPITAL - NURSERY_FL=STORY 3_SCH=H,1875.00,93.8,18749.844,10.000,199.790,0.000,0.500,0.000,0.500,General,16874.860,16874.860
 ElectricEquipment Internal Gains Nominal, ALL_ST=HOSPITAL - NURSES STATION_FL=STORY 1_SCH=H SPACE FUNCTION HOSPITAL - NURSES STATION ELEC EQUIP,NECB-H-ELECTRIC-EQUIPMENT,ALL_ST=HOSPITAL - NURSES STATION_FL=STORY 1_SCH=H,1875.00,93.8,4687.461,2.500,49.947,0.000,0.500,0.000,0.500,General,4218.715,4218.715
 ElectricEquipment Internal Gains Nominal, ALL_ST=HOSPITAL - OPERATING ROOM_FL=STORY 4_SCH=H SPACE FUNCTION HOSPITAL - OPERATING ROOM ELEC EQUIP,NECB-H-ELECTRIC-EQUIPMENT,ALL_ST=HOSPITAL - OPERATING ROOM_FL=STORY 4_SCH=H,2500.00,125.1,24999.792,10.000,199.790,0.000,0.500,0.000,0.500,General,22499.813,22499.813
 ElectricEquipment Internal Gains Nominal, ALL_ST=HOSPITAL - PATIENT ROOM_FL=STORY 1_SCH=H SPACE FUNCTION HOSPITAL - PATIENT ROOM ELEC EQUIP,NECB-H-ELECTRIC-EQUIPMENT,ALL_ST=HOSPITAL - PATIENT ROOM_FL=STORY 1_SCH=H,1875.00,93.8,18749.844,10.000,199.790,0.000,0.500,0.000,0.500,General,16874.860,16874.860
 ElectricEquipment Internal Gains Nominal, ALL_ST=HOSPITAL - PHARMACY_FL=STORY 1_SCH=C SPACE FUNCTION HOSPITAL - PHARMACY ELEC EQUIP,NECB-C-ELECTRIC-EQUIPMENT,ALL_ST=HOSPITAL - PHARMACY_FL=STORY 1_SCH=C,1875.00,93.8,4687.461,2.500,49.947,0.000,0.500,0.000,0.500,General,234.373,4218.715
 ElectricEquipment Internal Gains Nominal, ALL_ST=HOSPITAL - PHYSICAL THERAPY_FL=STORY 1_SCH=C SPACE FUNCTION HOSPITAL - PHYSICAL THERAPY ELEC EQUIP,NECB-C-ELECTRIC-EQUIPMENT,ALL_ST=HOSPITAL - PHYSICAL THERAPY_FL=STORY 1_SCH=C,2500.00,125.1,24999.792,10.000,199.790,0.000,0.500,0.000,0.500,General,1249.990,22499.813
 ElectricEquipment Internal Gains Nominal, ALL_ST=HOSPITAL - RADIOLOGY/IMAGING_FL=STORY 2_SCH=H SPACE FUNCTION HOSPITAL - RADIOLOGY/IMAGING ELEC EQUIP,NECB-H-ELECTRIC-EQUIPMENT,ALL_ST=HOSPITAL - RADIOLOGY/IMAGING_FL=STORY 2_SCH=H,1875.00,93.8,18749.844,10.000,199.790,0.000,0.500,0.000,0.500,General,16874.860,16874.860
 ElectricEquipment Internal Gains Nominal, ALL_ST=HOSPITAL - RECOVERY_FL=STORY 2_SCH=H SPACE FUNCTION HOSPITAL - RECOVERY ELEC EQUIP,NECB-H-ELECTRIC-EQUIPMENT,ALL_ST=HOSPITAL - RECOVERY_FL=STORY 2_SCH=H,1875.00,93.8,18749.844,10.000,199.790,0.000,0.500,0.000,0.500,General,16874.860,16874.860
! <Shadowing/Sun Position Calculations Annual Simulations>, Calculation Method, Value {days}, Allowable Number Figures in Shadow Overlap {}, Polygon Clipping Algorithm, Sky Diffuse Modeling Algorithm, External Shading Calculation Method, Output External Shading Calculation Results, Disable Self-Shading Within Shading Zone Groups, Disable Self-Shading From Shading Zone Groups to Other Zones
Shadowing/Sun Position Calculations Annual Simulations,AverageOverDaysInFrequency,20,15000,SutherlandHodgman,SimpleSkyDiffuseModeling,InternalCalculation,No,No,No
! <Water Heater Information>,Type,Name,Volume {m3},Maximum Capacity {W},Standard Rated Recovery Efficiency, Standard Rated Energy Factor
! <ZoneInfiltration Airflow Stats Nominal>,Name,Schedule Name,Zone Name, Zone Floor Area {m2}, # Zone Occupants,Design Volume Flow Rate {m3/s},Volume Flow Rate/Floor Area {m3/s/m2},Volume Flow Rate/Exterior Surface Area {m3/s/m2},ACH - Air Changes per Hour,Equation A - Constant Term Coefficient {},Equation B - Temperature Term Coefficient {1/C},Equation C - Velocity Term Coefficient {s/m}, Equation D - Velocity Squared Term Coefficient {s2/m2}
 ZoneInfiltration Airflow Stats Nominal, GYM - FITNESS-SPACE FUNCTION INFILTRATION,ALWAYS ON DISCRETE,ALL_ST=GYM - FITNESS_FL=STORY 4_SCH=B,1875.00,375.0,0.564,3.007E-004,2.500E-004,0.285,0.000,0.000,0.224,0.000
 ZoneInfiltration Airflow Stats Nominal, GYM - PLAY-SPACE FUNCTION INFILTRATION,ALWAYS ON DISCRETE,ALL_ST=GYM - PLAY_FL=STORY 4_SCH=B,1875.00,375.0,0.564,3.007E-004,2.500E-004,0.285,0.000,0.000,0.224,0.000
 ZoneInfiltration Airflow Stats Nominal, HOSPITAL - EMERGENCY-SPACE FUNCTION INFILTRATION,ALWAYS ON DISCRETE,ALL_ST=HOSPITAL - EMERGENCY_FL=STORY 4_SCH=H,1875.00,93.8,0.564,3.007E-004,2.500E-004,0.285,0.000,0.000,0.224,0.000
 ZoneInfiltration Airflow Stats Nominal, HOSPITAL - EXAM-SPACE FUNCTION INFILTRATION,ALWAYS ON DISCRETE,ALL_ST=HOSPITAL - EXAM_FL=STORY 3_SCH=C,1875.00,93.8,9.500E-002,5.067E-005,2.500E-004,4.800E-002,0.000,0.000,0.224,0.000
 ZoneInfiltration Airflow Stats Nominal, HOSPITAL - LAUNDRY/WASHING-SPACE FUNCTION INFILTRATION,ALWAYS ON DISCRETE,ALL_ST=HOSPITAL - LAUNDRY/WASHING_FL=STORY 3_SCH=C,1875.00,93.8,9.500E-002,5.067E-005,2.500E-004,4.800E-002,0.000,0.000,0.224,0.000
 ZoneInfiltration Airflow Stats Nominal, HOSPITAL - LOUNGE/RECREATION-SPACE FUNCTION INFILTRATION,ALWAYS ON DISCRETE,ALL_ST=HOSPITAL - LOUNGE/RECREATION_FL=STORY 4_SCH=B,1875.00,187.5,0.564,3.007E-004,2.500E-004,0.285,0.000,0.000,0.224,0.000
 ZoneInfiltration Airflow Stats Nominal, HOSPITAL - MEDICAL SUPPLY-SPACE FUNCTION INFILTRATION,ALWAYS ON DISCRETE,ALL_ST=HOSPITAL - MEDICAL SUPPLY_FL=STORY 3_SCH=H,1875.00,93.8,9.500E-002,5.067E-005,2.500E-004,4.800E-002,0.000,0.000,0.224,0.000
 ZoneInfiltration Airflow Stats Nominal, HOSPITAL - NURSERY-SPACE FUNCTION INFILTRATION,ALWAYS ON DISCRETE,ALL_ST=HOSPITAL - NURSERY_FL=STORY 3_SCH=H,1875.00,93.8,9.500E-002,5.067E-005,2.500E-004,4.800E-002,0.000,0.000,0.224,0.000
 ZoneInfiltration Airflow Stats Nominal, HOSPITAL - OPERATING ROOM-SPACE FUNCTION INFILTRATION,ALWAYS ON DISCRETE,ALL_ST=HOSPITAL - OPERATING ROOM_FL=STORY 4_SCH=H,2500.00,125.1,0.625,2.500E-004,2.500E-004,0.237,0.000,0.000,0.224,0.000
 ZoneInfiltration Airflow Stats Nominal, HOSPITAL - RADIOLOGY/IMAGING-SPACE FUNCTION INFILTRATION,ALWAYS ON DISCRETE,ALL_ST=HOSPITAL - RADIOLOGY/IMAGING_FL=STORY 2_SCH=H,1875.00,93.8,9.500E-002,5.067E-005,2.500E-004,4.800E-002,0.000,0.000,0.224,0.000
 ZoneInfiltration Airflow Stats Nominal, HOSPITAL - RECOVERY-SPACE FUNCTION INFILTRATION,ALWAYS ON DISCRETE,ALL_ST=HOSPITAL - RECOVERY_FL=STORY 2_SCH=H,1875.00,93.8,9.500E-002,5.067E-005,2.500E-004,4.800E-002,0.000,0.000,0.224,0.000
 ZoneInfiltration Airflow Stats Nominal, HOSPITAL CORR. < 2.4M-SCH-A-SPACE FUNCTION INFILTRATION,ALWAYS ON DISCRETE,WILD_ST=HOSPITAL CORR. < 2.4M-SCH-A_FL=STORY 2_SCH=H,1875.00,18.8,9.500E-002,5.067E-005,2.500E-004,4.800E-002,0.000,0.000,0.224,0.000
 ZoneInfiltration Airflow Stats Nominal, HOSPITAL CORR. < 2.4M-SCH-B-SPACE FUNCTION INFILTRATION,ALWAYS ON DISCRETE,WILD_ST=HOSPITAL CORR. < 2.4M-SCH-B_FL=STORY 2_SCH=H,1875.00,18.8,9.500E-002,5.067E-005,2.500E-004,4.800E-002,0.000,0.000,0.224,0.000
 ZoneInfiltration Airflow Stats Nominal, WILD_ST=HOSPITAL CORR. < 2.4M-SCH-A_FL=STORY 2_SCH=H SPACE FUNCTION HOSPITAL CORR. < 2.4M-SCH-H INFILTRATION,ALWAYS ON,WILD_ST=HOSPITAL CORR. < 2.4M-SCH-A_FL=STORY 2_SCH=H,1875.00,18.8,9.502E-002,5.068E-005,2.501E-004,4.801E-002,1.000,0.000,0.000,0.000
 ZoneInfiltration Airflow Stats Nominal, WILD_ST=HOSPITAL CORR. < 2.4M-SCH-B_FL=STORY 2_SCH=H SPACE FUNCTION HOSPITAL CORR. < 2.4M-SCH-H INFILTRATION,ALWAYS ON,WILD_ST=HOSPITAL CORR. < 2.4M-SCH-B_FL=STORY 2_SCH=H,1875.00,18.8,9.502E-002,5.068E-005,2.501E-004,4.801E-002,1.000,0.000,0.000,0.000
 ZoneInfiltration Airflow Stats Nominal, WILD_ST=HOSPITAL CORR. < 2.4M-SCH-C_FL=STORY 3_SCH=H SPACE FUNCTION HOSPITAL CORR. < 2.4M-SCH-H INFILTRATION,ALWAYS ON,WILD_ST=HOSPITAL CORR. < 2.4M-SCH-C_FL=STORY 3_SCH=H,2500.00,25.0,0.000,0.000,N/A,0.000,1.000,0.000,0.000,0.000
 ZoneInfiltration Airflow Stats Nominal, WILD_ST=HOSPITAL CORR. < 2.4M-SCH-D_FL=STORY 2_SCH=H SPACE FUNCTION HOSPITAL CORR. < 2.4M-SCH-H INFILTRATION,ALWAYS ON,WILD_ST=HOSPITAL CORR. < 2.4M-SCH-D_FL=STORY 2_SCH=H,2500.00,25.0,0.000,0.000,N/A,0.000,1.000,0.000,0.000,0.000
! <AirFlow Model>, Simple
 AirFlow Model, Simple
! <RoomAir Model>, Zone Name, Mixing/Mundt/UCSDDV/UCSDCV/UCSDUFI/UCSDUFE/User Defined
RoomAir Model,ALL_ST=GYM - FITNESS_FL=STORY 4_SCH=B,Mixing/Well-Stirred
RoomAir Model,ALL_ST=GYM - PLAY_FL=STORY 4_SCH=B,Mixing/Well-Stirred
RoomAir Model,ALL_ST=HOSPITAL - EMERGENCY_FL=STORY 4_SCH=H,Mixing/Well-Stirred
RoomAir Model,ALL_ST=HOSPITAL - EXAM_FL=STORY 3_SCH=C,Mixing/Well-Stirred
RoomAir Model,ALL_ST=HOSPITAL - LAUNDRY/WASHING_FL=STORY 3_SCH=C,Mixing/Well-Stirred
RoomAir Model,ALL_ST=HOSPITAL - LOUNGE/RECREATION_FL=STORY 4_SCH=B,Mixing/Well-Stirred
RoomAir Model,ALL_ST=HOSPITAL - MEDICAL SUPPLY - OCCSENS_FL=STORY 1_SCH=H,Mixing/Well-Stirred
RoomAir Model,ALL_ST=HOSPITAL - MEDICAL SUPPLY_FL=STORY 3_SCH=H,Mixing/Well-Stirred
RoomAir Model,ALL_ST=HOSPITAL - NURSERY_FL=STORY 3_SCH=H,Mixing/Well-Stirred
RoomAir Model,ALL_ST=HOSPITAL - NURSES STATION_FL=STORY 1_SCH=H,Mixing/Well-Stirred
RoomAir Model,ALL_ST=HOSPITAL - OPERATING ROOM_FL=STORY 4_SCH=H,Mixing/Well-Stirred
RoomAir Model,ALL_ST=HOSPITAL - PATIENT ROOM_FL=STORY 1_SCH=H,Mixing/Well-Stirred
RoomAir Model,ALL_ST=HOSPITAL - PHARMACY_FL=STORY 1_SCH=C,Mixing/Well-Stirred
RoomAir Model,ALL_ST=HOSPITAL - PHYSICAL THERAPY_FL=STORY 1_SCH=C,Mixing/Well-Stirred
RoomAir Model,ALL_ST=HOSPITAL - RADIOLOGY/IMAGING_FL=STORY 2_SCH=H,Mixing/Well-Stirred
RoomAir Model,ALL_ST=HOSPITAL - RECOVERY_FL=STORY 2_SCH=H,Mixing/Well-Stirred
RoomAir Model,WILD_ST=HOSPITAL CORR. < 2.4M-SCH-A_FL=STORY 2_SCH=H,Mixing/Well-Stirred
RoomAir Model,WILD_ST=HOSPITAL CORR. < 2.4M-SCH-B_FL=STORY 2_SCH=H,Mixing/Well-Stirred
RoomAir Model,WILD_ST=HOSPITAL CORR. < 2.4M-SCH-C_FL=STORY 3_SCH=H,Mixing/Well-Stirred
RoomAir Model,WILD_ST=HOSPITAL CORR. < 2.4M-SCH-D_FL=STORY 2_SCH=H,Mixing/Well-Stirred
! <AirflowNetwork Model:Control>, No Multizone or Distribution/Multizone with Distribution/Multizone without Distribution/Multizone with Distribution only during Fan Operation
AirflowNetwork Model:Control,NoMultizoneOrDistribution
! <Zone Volume Capacitance Multiplier>, Sensible Heat Capacity Multiplier, Moisture Capacity Multiplier, Carbon Dioxide Capacity Multiplier, Generic Contaminant Capacity Multiplier
Zone Volume Capacitance Multiplier,   1.000 ,   1.000,   1.000,   1.000
! <Load Timesteps in Zone Design Calculation Averaging Window>, Value
 Load Timesteps in Zone Design Calculation Averaging Window,    6
! <Heating Sizing Factor Information>, Sizing Factor ID, Value
 Heating Sizing Factor Information, Global,   1.3000    
 Heating Sizing Factor Information, Zone ALL_ST=GYM - FITNESS_FL=STORY 4_SCH=B,   1.3000    
 Heating Sizing Factor Information, Zone ALL_ST=GYM - PLAY_FL=STORY 4_SCH=B,   1.3000    
 Heating Sizing Factor Information, Zone ALL_ST=HOSPITAL - EMERGENCY_FL=STORY 4_SCH=H,   1.3000    
 Heating Sizing Factor Information, Zone ALL_ST=HOSPITAL - EXAM_FL=STORY 3_SCH=C,   1.3000    
 Heating Sizing Factor Information, Zone ALL_ST=HOSPITAL - LAUNDRY/WASHING_FL=STORY 3_SCH=C,   1.3000    
 Heating Sizing Factor Information, Zone ALL_ST=HOSPITAL - LOUNGE/RECREATION_FL=STORY 4_SCH=B,   1.3000    
 Heating Sizing Factor Information, Zone ALL_ST=HOSPITAL - MEDICAL SUPPLY - OCCSENS_FL=STORY 1_SCH=H,   1.3000    
 Heating Sizing Factor Information, Zone ALL_ST=HOSPITAL - MEDICAL SUPPLY_FL=STORY 3_SCH=H,   1.3000    
 Heating Sizing Factor Information, Zone ALL_ST=HOSPITAL - NURSERY_FL=STORY 3_SCH=H,   1.3000    
 Heating Sizing Factor Information, Zone ALL_ST=HOSPITAL - NURSES STATION_FL=STORY 1_SCH=H,   1.3000    
 Heating Sizing Factor Information, Zone ALL_ST=HOSPITAL - OPERATING ROOM_FL=STORY 4_SCH=H,   1.3000    
 Heating Sizing Factor Information, Zone ALL_ST=HOSPITAL - PATIENT ROOM_FL=STORY 1_SCH=H,   1.3000    
 Heating Sizing Factor Information, Zone ALL_ST=HOSPITAL - PHARMACY_FL=STORY 1_SCH=C,   1.3000    
 Heating Sizing Factor Information, Zone ALL_ST=HOSPITAL - PHYSICAL THERAPY_FL=STORY 1_SCH=C,   1.3000    
 Heating Sizing Factor Information, Zone ALL_ST=HOSPITAL - RADIOLOGY/IMAGING_FL=STORY 2_SCH=H,   1.3000    
 Heating Sizing Factor Information, Zone ALL_ST=HOSPITAL - RECOVERY_FL=STORY 2_SCH=H,   1.3000    
 Heating Sizing Factor Information, Zone WILD_ST=HOSPITAL CORR. < 2.4M-SCH-A_FL=STORY 2_SCH=H,   1.3000    
 Heating Sizing Factor Information, Zone WILD_ST=HOSPITAL CORR. < 2.4M-SCH-B_FL=STORY 2_SCH=H,   1.3000    
 Heating Sizing Factor Information, Zone WILD_ST=HOSPITAL CORR. < 2.4M-SCH-C_FL=STORY 3_SCH=H,   1.3000    
 Heating Sizing Factor Information, Zone WILD_ST=HOSPITAL CORR. < 2.4M-SCH-D_FL=STORY 2_SCH=H,   1.3000    
! <Cooling Sizing Factor Information>, Sizing Factor ID, Value
 Cooling Sizing Factor Information, Global,   1.1000    
 Cooling Sizing Factor Information, Zone ALL_ST=GYM - FITNESS_FL=STORY 4_SCH=B,   1.1000    
 Cooling Sizing Factor Information, Zone ALL_ST=GYM - PLAY_FL=STORY 4_SCH=B,   1.1000    
 Cooling Sizing Factor Information, Zone ALL_ST=HOSPITAL - EMERGENCY_FL=STORY 4_SCH=H,   1.1000    
 Cooling Sizing Factor Information, Zone ALL_ST=HOSPITAL - EXAM_FL=STORY 3_SCH=C,   1.1000    
 Cooling Sizing Factor Information, Zone ALL_ST=HOSPITAL - LAUNDRY/WASHING_FL=STORY 3_SCH=C,   1.1000    
 Cooling Sizing Factor Information, Zone ALL_ST=HOSPITAL - LOUNGE/RECREATION_FL=STORY 4_SCH=B,   1.1000    
 Cooling Sizing Factor Information, Zone ALL_ST=HOSPITAL - MEDICAL SUPPLY - OCCSENS_FL=STORY 1_SCH=H,   1.1000    
 Cooling Sizing Factor Information, Zone ALL_ST=HOSPITAL - MEDICAL SUPPLY_FL=STORY 3_SCH=H,   1.1000    
 Cooling Sizing Factor Information, Zone ALL_ST=HOSPITAL - NURSERY_FL=STORY 3_SCH=H,   1.1000    
 Cooling Sizing Factor Information, Zone ALL_ST=HOSPITAL - NURSES STATION_FL=STORY 1_SCH=H,   1.1000    
 Cooling Sizing Factor Information, Zone ALL_ST=HOSPITAL - OPERATING ROOM_FL=STORY 4_SCH=H,   1.1000    
 Cooling Sizing Factor Information, Zone ALL_ST=HOSPITAL - PATIENT ROOM_FL=STORY 1_SCH=H,   1.1000    
 Cooling Sizing Factor Information, Zone ALL_ST=HOSPITAL - PHARMACY_FL=STORY 1_SCH=C,   1.1000    
 Cooling Sizing Factor Information, Zone ALL_ST=HOSPITAL - PHYSICAL THERAPY_FL=STORY 1_SCH=C,   1.1000    
 Cooling Sizing Factor Information, Zone ALL_ST=HOSPITAL - RADIOLOGY/IMAGING_FL=STORY 2_SCH=H,   1.1000    
 Cooling Sizing Factor Information, Zone ALL_ST=HOSPITAL - RECOVERY_FL=STORY 2_SCH=H,   1.1000    
 Cooling Sizing Factor Information, Zone WILD_ST=HOSPITAL CORR. < 2.4M-SCH-A_FL=STORY 2_SCH=H,   1.1000    
 Cooling Sizing Factor Information, Zone WILD_ST=HOSPITAL CORR. < 2.4M-SCH-B_FL=STORY 2_SCH=H,   1.1000    
 Cooling Sizing Factor Information, Zone WILD_ST=HOSPITAL CORR. < 2.4M-SCH-C_FL=STORY 3_SCH=H,   1.1000    
 Cooling Sizing Factor Information, Zone WILD_ST=HOSPITAL CORR. < 2.4M-SCH-D_FL=STORY 2_SCH=H,   1.1000    
! <Zone Sizing Information>, Zone Name, Load Type, Calc Des Load {W}, User Des Load {W}, Calc Des Air Flow Rate {m3/s}, User Des Air Flow Rate {m3/s}, Design Day Name, Date/Time of Peak, Temperature at Peak {C}, Humidity Ratio at Peak {kgWater/kgDryAir}, Floor Area {m2}, # Occupants, Calc Outdoor Air Flow Rate {m3/s}, Calc DOAS Heat Addition Rate {W}
 Zone Sizing Information, ALL_ST=GYM - FITNESS_FL=STORY 4_SCH=B, Cooling, 98699.53775, 108569.49152, 7.63029, 8.39331, FORT MCMURRAY AP ANN CLG .4% CONDNS DB=>MWB, 7/21 13:10:00, 28.38333, 8.76969E-003, 1875.00000, 374.98773, 8.19150, 0.00000
 Zone Sizing Information, ALL_ST=GYM - FITNESS_FL=STORY 4_SCH=B, Heating, 34173.80921, 44425.95198, 1.23828, 8.19150, FORT MCMURRAY AP ANN HTG 99.6% CONDNS DB, 1/21 09:00:00, -36.20000, 1.25811E-004, 1875.00000, 374.98773, 8.19150, 0.00000
 Zone Sizing Information, ALL_ST=GYM - PLAY_FL=STORY 4_SCH=B, Cooling, 92620.28277, 101882.31104, 6.18615, 6.80477, FORT MCMURRAY AP ANN CLG .4% CONDNS DB=>MWB, 7/21 09:00:00, 22.08000, 8.76969E-003, 1875.00000, 374.98773, 2.85750, 0.00000
 Zone Sizing Information, ALL_ST=GYM - PLAY_FL=STORY 4_SCH=B, Heating, 33531.75292, 43591.27880, 1.21460, 2.85750, FORT MCMURRAY AP ANN HTG 99.6% CONDNS DB, 1/21 09:00:00, -36.20000, 1.25811E-004, 1875.00000, 374.98773, 2.85750, 0.00000
 Zone Sizing Information, ALL_ST=HOSPITAL - EMERGENCY_FL=STORY 4_SCH=H, Cooling, 113208.17413, 124528.99154, 8.74992, 9.62491, FORT MCMURRAY AP ANN CLG .4% CONDNS DB=>MWB, 7/21 16:10:00, 27.99067, 8.76969E-003, 1875.00000, 93.84784, 5.71500, 0.00000
 Zone Sizing Information, ALL_ST=HOSPITAL - EMERGENCY_FL=STORY 4_SCH=H, Heating, 0.00000, 0.00000, 0.00000, 5.71500, FORT MCMURRAY AP ANN HTG 99.6% CONDNS DB, , -36.20000, 1.25811E-004, 1875.00000, 93.84784, 5.71500, 0.00000
 Zone Sizing Information, ALL_ST=HOSPITAL - EXAM_FL=STORY 3_SCH=C, Cooling, 53403.54348, 58743.89783, 4.12753, 4.54028, FORT MCMURRAY AP ANN CLG .4% CONDNS DB=>MWB, 7/21 17:00:00, 27.16400, 8.76969E-003, 1875.00000, 93.84784, 2.85750, 0.00000
 Zone Sizing Information, ALL_ST=HOSPITAL - EXAM_FL=STORY 3_SCH=C, Heating, 3572.73112, 4644.55046, 0.13890, 2.85750, FORT MCMURRAY AP ANN HTG 99.6% CONDNS DB, 1/21 08:10:00, -36.20000, 1.25811E-004, 1875.00000, 93.84784, 2.85750, 0.00000
 Zone Sizing Information, ALL_ST=HOSPITAL - LAUNDRY/WASHING_FL=STORY 3_SCH=C, Cooling, 79191.01636, 87110.11800, 6.12063, 6.73270, FORT MCMURRAY AP ANN CLG .4% CONDNS DB=>MWB, 7/21 18:00:00, 25.92400, 8.76969E-003, 1875.00000, 93.84784, 4.28625, 0.00000
 Zone Sizing Information, ALL_ST=HOSPITAL - LAUNDRY/WASHING_FL=STORY 3_SCH=C, Heating, 0.00000, 0.00000, 0.00000, 4.28625, FORT MCMURRAY AP ANN HTG 99.6% CONDNS DB, , -36.20000, 1.25811E-004, 1875.00000, 93.84784, 4.28625, 0.00000
 Zone Sizing Information, ALL_ST=HOSPITAL - LOUNGE/RECREATION_FL=STORY 4_SCH=B, Cooling, 74491.60547, 81940.76602, 5.75791, 6.33370, FORT MCMURRAY AP ANN CLG .4% CONDNS DB=>MWB, 7/21 13:20:00, 28.48667, 8.76969E-003, 1875.00000, 187.49386, 2.38125, 0.00000
 Zone Sizing Information, ALL_ST=HOSPITAL - LOUNGE/RECREATION_FL=STORY 4_SCH=B, Heating, 37415.78927, 48640.52605, 1.39286, 2.38125, FORT MCMURRAY AP ANN HTG 99.6% CONDNS DB, 1/21 09:10:00, -36.20000, 1.25811E-004, 1875.00000, 187.49386, 2.38125, 0.00000
 Zone Sizing Information, ALL_ST=HOSPITAL - MEDICAL SUPPLY - OCCSENS_FL=STORY 1_SCH=H, Cooling, 29094.54860, 32004.00346, 2.24876, 2.85750, FORT MCMURRAY AP ANN CLG .4% CONDNS DB=>MWB, 7/21 20:40:00, 21.95600, 8.76969E-003, 1875.00000, 93.84784, 2.85750, 0.00000
 Zone Sizing Information, ALL_ST=HOSPITAL - MEDICAL SUPPLY - OCCSENS_FL=STORY 1_SCH=H, Heating, 0.00000, 0.00000, 0.00000, 2.85750, FORT MCMURRAY AP ANN HTG 99.6% CONDNS DB, , -36.20000, 1.25811E-004, 1875.00000, 93.84784, 2.85750, 0.00000
 Zone Sizing Information, ALL_ST=HOSPITAL - MEDICAL SUPPLY_FL=STORY 3_SCH=H, Cooling, 49209.46514, 54130.41166, 3.80345, 4.18379, FORT MCMURRAY AP ANN CLG .4% CONDNS DB=>MWB, 7/21 14:20:00, 28.90000, 8.76969E-003, 1875.00000, 93.84784, 2.85750, 0.00000
 Zone Sizing Information, ALL_ST=HOSPITAL - MEDICAL SUPPLY_FL=STORY 3_SCH=H, Heating, 0.00000, 0.00000, 0.00000, 2.85750, FORT MCMURRAY AP ANN HTG 99.6% CONDNS DB, , -36.20000, 1.25811E-004, 1875.00000, 93.84784, 2.85750, 0.00000
 Zone Sizing Information, ALL_ST=HOSPITAL - NURSERY_FL=STORY 3_SCH=H, Cooling, 60673.27929, 66740.60721, 4.68949, 5.15844, FORT MCMURRAY AP ANN CLG .4% CONDNS DB=>MWB, 7/21 09:40:00, 23.48533, 8.76969E-003, 1875.00000, 93.84784, 2.85750, 0.00000
 Zone Sizing Information, ALL_ST=HOSPITAL - NURSERY_FL=STORY 3_SCH=H, Heating, 0.00000, 0.00000, 0.00000, 2.85750, FORT MCMURRAY AP ANN HTG 99.6% CONDNS DB, , -36.20000, 1.25811E-004, 1875.00000, 93.84784, 2.85750, 0.00000
 Zone Sizing Information, ALL_ST=HOSPITAL - NURSES STATION_FL=STORY 1_SCH=H, Cooling, 23265.72891, 25592.30180, 1.79824, 2.85750, FORT MCMURRAY AP ANN CLG .4% CONDNS DB=>MWB, 7/21 21:00:00, 21.58400, 8.76969E-003, 1875.00000, 93.84784, 2.85750, 0.00000
 Zone Sizing Information, ALL_ST=HOSPITAL - NURSES STATION_FL=STORY 1_SCH=H, Heating, 0.00000, 0.00000, 0.00000, 2.85750, FORT MCMURRAY AP ANN HTG 99.6% CONDNS DB, , -36.20000, 1.25811E-004, 1875.00000, 93.84784, 2.85750, 0.00000
 Zone Sizing Information, ALL_ST=HOSPITAL - OPERATING ROOM_FL=STORY 4_SCH=H, Cooling, 116377.11955, 128014.83150, 8.99487, 11.43000, FORT MCMURRAY AP ANN CLG .4% CONDNS DB=>MWB, 7/21 13:40:00, 28.69333, 8.76969E-003, 2500.00000, 125.13046, 11.43000, 0.00000
 Zone Sizing Information, ALL_ST=HOSPITAL - OPERATING ROOM_FL=STORY 4_SCH=H, Heating, 0.00000, 0.00000, 0.00000, 11.43000, FORT MCMURRAY AP ANN HTG 99.6% CONDNS DB, , -36.20000, 1.25811E-004, 2500.00000, 125.13046, 11.43000, 0.00000
 Zone Sizing Information, ALL_ST=HOSPITAL - PATIENT ROOM_FL=STORY 1_SCH=H, Cooling, 33493.89195, 36843.28114, 2.58879, 2.85750, FORT MCMURRAY AP ANN CLG .4% CONDNS DB=>MWB, 7/21 12:10:00, 27.45333, 8.76969E-003, 1875.00000, 93.84784, 2.85750, 0.00000
 Zone Sizing Information, ALL_ST=HOSPITAL - PATIENT ROOM_FL=STORY 1_SCH=H, Heating, 0.00000, 0.00000, 0.00000, 2.85750, FORT MCMURRAY AP ANN HTG 99.6% CONDNS DB, , -36.20000, 1.25811E-004, 1875.00000, 93.84784, 2.85750, 0.00000
 Zone Sizing Information, ALL_ST=HOSPITAL - PHARMACY_FL=STORY 1_SCH=C, Cooling, 26600.45477, 29260.50025, 2.05594, 4.28625, FORT MCMURRAY AP ANN CLG .4% CONDNS DB=>MWB, 7/21 17:00:00, 27.16400, 8.76969E-003, 1875.00000, 93.84784, 4.28625, 0.00000
 Zone Sizing Information, ALL_ST=HOSPITAL - PHARMACY_FL=STORY 1_SCH=C, Heating, 0.00000, 0.00000, 0.00000, 4.28625, FORT MCMURRAY AP ANN HTG 99.6% CONDNS DB, , -36.20000, 1.25811E-004, 1875.00000, 93.84784, 4.28625, 0.00000
 Zone Sizing Information, ALL_ST=HOSPITAL - PHYSICAL THERAPY_FL=STORY 1_SCH=C, Cooling, 40732.78888, 44806.06777, 3.14823, 5.71500, FORT MCMURRAY AP ANN CLG .4% CONDNS DB=>MWB, 7/21 17:00:00, 27.16400, 8.76969E-003, 2500.00000, 125.13046, 5.71500, 0.00000
 Zone Sizing Information, ALL_ST=HOSPITAL - PHYSICAL THERAPY_FL=STORY 1_SCH=C, Heating, 0.00000, 0.00000, 0.00000, 5.71500, FORT MCMURRAY AP ANN HTG 99.6% CONDNS DB, , -36.20000, 1.25811E-004, 2500.00000, 125.13046, 5.71500, 0.00000
 Zone Sizing Information, ALL_ST=HOSPITAL - RADIOLOGY/IMAGING_FL=STORY 2_SCH=H, Cooling, 62978.63283, 69276.49611, 4.86767, 5.35444, FORT MCMURRAY AP ANN CLG .4% CONDNS DB=>MWB, 7/21 18:20:00, 25.30400, 8.76968E-003, 1875.00000, 93.84784, 4.28625, 0.00000
 Zone Sizing Information, ALL_ST=HOSPITAL - RADIOLOGY/IMAGING_FL=STORY 2_SCH=H, Heating, 0.00000, 0.00000, 0.00000, 4.28625, FORT MCMURRAY AP ANN HTG 99.6% CONDNS DB, , -36.20000, 1.25811E-004, 1875.00000, 93.84784, 4.28625, 0.00000
 Zone Sizing Information, ALL_ST=HOSPITAL - RECOVERY_FL=STORY 2_SCH=H, Cooling, 57371.01358, 63108.11494, 4.43419, 8.57250, FORT MCMURRAY AP ANN CLG .4% CONDNS DB=>MWB, 7/21 09:20:00, 22.78267, 8.76969E-003, 1875.00000, 93.84784, 8.57250, 0.00000
 Zone Sizing Information, ALL_ST=HOSPITAL - RECOVERY_FL=STORY 2_SCH=H, Heating, 0.00000, 0.00000, 0.00000, 8.57250, FORT MCMURRAY AP ANN HTG 99.6% CONDNS DB, , -36.20000, 1.25811E-004, 1875.00000, 93.84784, 8.57250, 0.00000
 Zone Sizing Information, WILD_ST=HOSPITAL CORR. < 2.4M-SCH-A_FL=STORY 2_SCH=H, Cooling, 26958.66137, 29654.52751, 2.08348, 2.29183, FORT MCMURRAY AP ANN CLG .4% CONDNS DB=>MWB, 7/21 15:30:00, 28.52800, 8.76969E-003, 1875.00000, 18.76957, 1.42875, 0.00000
 Zone Sizing Information, WILD_ST=HOSPITAL CORR. < 2.4M-SCH-A_FL=STORY 2_SCH=H, Heating, 0.00000, 0.00000, 0.00000, 1.42875, FORT MCMURRAY AP ANN HTG 99.6% CONDNS DB, , -36.20000, 1.25811E-004, 1875.00000, 18.76957, 1.42875, 0.00000
 Zone Sizing Information, WILD_ST=HOSPITAL CORR. < 2.4M-SCH-B_FL=STORY 2_SCH=H, Cooling, 35653.16232, 39218.47855, 2.75543, 3.03097, FORT MCMURRAY AP ANN CLG .4% CONDNS DB=>MWB, 7/21 13:50:00, 28.79667, 8.76969E-003, 1875.00000, 18.76957, 1.42875, 0.00000
 Zone Sizing Information, WILD_ST=HOSPITAL CORR. < 2.4M-SCH-B_FL=STORY 2_SCH=H, Heating, 0.00000, 0.00000, 0.00000, 1.42875, FORT MCMURRAY AP ANN HTG 99.6% CONDNS DB, , -36.20000, 1.25811E-004, 1875.00000, 18.76957, 1.42875, 0.00000
 Zone Sizing Information, WILD_ST=HOSPITAL CORR. < 2.4M-SCH-C_FL=STORY 3_SCH=H, Cooling, 41533.12345, 45686.43579, 3.20986, 3.53084, FORT MCMURRAY AP ANN CLG .4% CONDNS DB=>MWB, 7/21 17:30:00, 26.54400, 8.76969E-003, 2500.00000, 25.02609, 1.90500, 0.00000
 Zone Sizing Information, WILD_ST=HOSPITAL CORR. < 2.4M-SCH-C_FL=STORY 3_SCH=H, Heating, 0.00000, 0.00000, 0.00000, 1.90500, FORT MCMURRAY AP ANN HTG 99.6% CONDNS DB, , -36.20000, 1.25811E-004, 2500.00000, 25.02609, 1.90500, 0.00000
 Zone Sizing Information, WILD_ST=HOSPITAL CORR. < 2.4M-SCH-D_FL=STORY 2_SCH=H, Cooling, 31089.51928, 34198.47121, 2.40273, 2.64300, FORT MCMURRAY AP ANN CLG .4% CONDNS DB=>MWB, 7/21 20:00:00, 22.70000, 8.76969E-003, 2500.00000, 25.02609, 1.90500, 0.00000
 Zone Sizing Information, WILD_ST=HOSPITAL CORR. < 2.4M-SCH-D_FL=STORY 2_SCH=H, Heating, 0.00000, 0.00000, 0.00000, 1.90500, FORT MCMURRAY AP ANN HTG 99.6% CONDNS DB, , -36.20000, 1.25811E-004, 2500.00000, 25.02609, 1.90500, 0.00000
! <System Sizing Information>, System Name, Load Type, Peak Load Kind, User Design Capacity, Calc Des Air Flow Rate [m3/s], User Des Air Flow Rate [m3/s], Design Day Name, Date/Time of Peak
 System Sizing Information, SYS_3_PSZ ALL_ST=HOSPITAL - EMERGENCY_FL=STORY 4_SCH=H, Cooling, Sensible, 149024.07, 9.62491, 9.62491, FORT MCMURRAY AP ANN CLG .4% CONDNS DB=>MWB, 7/21 05:00:00
 System Sizing Information, SYS_3_PSZ ALL_ST=HOSPITAL - EMERGENCY_FL=STORY 4_SCH=H, Heating, Sensible, 524203.04, 5.71500, 5.71500, FORT MCMURRAY AP ANN HTG 99.6% CONDNS DB, 1/21 00:10:00
 System Sizing Information, SYS_3_PSZ ALL_ST=HOSPITAL - EXAM_FL=STORY 3_SCH=C, Cooling, Sensible, 68309.59, 4.54028, 4.54028, FORT MCMURRAY AP ANN CLG .4% CONDNS DB=>MWB, 7/21 05:00:00
 System Sizing Information, SYS_3_PSZ ALL_ST=HOSPITAL - EXAM_FL=STORY 3_SCH=C, Heating, Sensible, 262101.52, 2.85750, 2.85750, FORT MCMURRAY AP ANN HTG 99.6% CONDNS DB, 1/21 00:10:00
 System Sizing Information, SYS_3_PSZ ALL_ST=HOSPITAL - LAUNDRY/WASHING_FL=STORY 3_SCH=C, Cooling, Sensible, 95318.86, 6.73270, 6.73270, FORT MCMURRAY AP ANN CLG .4% CONDNS DB=>MWB, 7/21 05:00:00
 System Sizing Information, SYS_3_PSZ ALL_ST=HOSPITAL - LAUNDRY/WASHING_FL=STORY 3_SCH=C, Heating, Sensible, 393152.28, 4.28625, 4.28625, FORT MCMURRAY AP ANN HTG 99.6% CONDNS DB, 1/21 00:10:00
 System Sizing Information, SYS_3_PSZ ALL_ST=HOSPITAL - LOUNGE/RECREATION_FL=STORY 4_SCH=B, Cooling, Sensible, 93052.37, 6.33370, 6.33370, FORT MCMURRAY AP ANN CLG .4% CONDNS DB=>MWB, 7/21 05:00:00
 System Sizing Information, SYS_3_PSZ ALL_ST=HOSPITAL - LOUNGE/RECREATION_FL=STORY 4_SCH=B, Heating, Sensible, 218417.93, 2.38125, 2.38125, FORT MCMURRAY AP ANN HTG 99.6% CONDNS DB, 1/21 00:10:00
 System Sizing Information, SYS_3_PSZ ALL_ST=HOSPITAL - MEDICAL SUPPLY - OCCSENS_FL=STORY 1_SCH=H, Cooling, Sensible, 29638.65, 2.85750, 2.85750, FORT MCMURRAY AP ANN CLG .4% CONDNS DB=>MWB, 7/21 05:00:00
 System Sizing Information, SYS_3_PSZ ALL_ST=HOSPITAL - MEDICAL SUPPLY - OCCSENS_FL=STORY 1_SCH=H, Heating, Sensible, 262101.52, 2.85750, 2.85750, FORT MCMURRAY AP ANN HTG 99.6% CONDNS DB, 1/21 00:10:00
 System Sizing Information, SYS_3_PSZ ALL_ST=HOSPITAL - MEDICAL SUPPLY_FL=STORY 3_SCH=H, Cooling, Sensible, 69513.25, 4.18379, 4.18379, FORT MCMURRAY AP ANN CLG .4% CONDNS DB=>MWB, 7/21 05:00:00
 System Sizing Information, SYS_3_PSZ ALL_ST=HOSPITAL - MEDICAL SUPPLY_FL=STORY 3_SCH=H, Heating, Sensible, 262101.52, 2.85750, 2.85750, FORT MCMURRAY AP ANN HTG 99.6% CONDNS DB, 1/21 00:10:00
 System Sizing Information, SYS_3_PSZ ALL_ST=HOSPITAL - NURSERY_FL=STORY 3_SCH=H, Cooling, Sensible, 64009.33, 5.15844, 5.15844, FORT MCMURRAY AP ANN CLG .4% CONDNS DB=>MWB, 7/21 05:00:00
 System Sizing Information, SYS_3_PSZ ALL_ST=HOSPITAL - NURSERY_FL=STORY 3_SCH=H, Heating, Sensible, 262101.52, 2.85750, 2.85750, FORT MCMURRAY AP ANN HTG 99.6% CONDNS DB, 1/21 00:10:00
 System Sizing Information, SYS_3_PSZ ALL_ST=HOSPITAL - NURSES STATION_FL=STORY 1_SCH=H, Cooling, Sensible, 28407.57, 2.85750, 2.85750, FORT MCMURRAY AP ANN CLG .4% CONDNS DB=>MWB, 7/21 05:00:00
 System Sizing Information, SYS_3_PSZ ALL_ST=HOSPITAL - NURSES STATION_FL=STORY 1_SCH=H, Heating, Sensible, 262101.52, 2.85750, 2.85750, FORT MCMURRAY AP ANN HTG 99.6% CONDNS DB, 1/21 00:10:00
 System Sizing Information, SYS_3_PSZ ALL_ST=HOSPITAL - OPERATING ROOM_FL=STORY 4_SCH=H, Cooling, Sensible, 207739.72, 11.43000, 11.43000, FORT MCMURRAY AP ANN CLG .4% CONDNS DB=>MWB, 7/21 05:00:00
 System Sizing Information, SYS_3_PSZ ALL_ST=HOSPITAL - OPERATING ROOM_FL=STORY 4_SCH=H, Heating, Sensible, 1048406.08, 11.43000, 11.43000, FORT MCMURRAY AP ANN HTG 99.6% CONDNS DB, 1/21 00:10:00
 System Sizing Information, SYS_3_PSZ ALL_ST=HOSPITAL - PATIENT ROOM_FL=STORY 1_SCH=H, Cooling, Sensible, 47831.32, 2.85750, 2.85750, FORT MCMURRAY AP ANN CLG .4% CONDNS DB=>MWB, 7/21 05:00:00
 System Sizing Information, SYS_3_PSZ ALL_ST=HOSPITAL - PATIENT ROOM_FL=STORY 1_SCH=H, Heating, Sensible, 262101.52, 2.85750, 2.85750, FORT MCMURRAY AP ANN HTG 99.6% CONDNS DB, 1/21 00:10:00
 System Sizing Information, SYS_3_PSZ ALL_ST=HOSPITAL - PHARMACY_FL=STORY 1_SCH=C, Cooling, Sensible, 70310.72, 4.28625, 4.28625, FORT MCMURRAY AP ANN CLG .4% CONDNS DB=>MWB, 7/21 05:00:00
 System Sizing Information, SYS_3_PSZ ALL_ST=HOSPITAL - PHARMACY_FL=STORY 1_SCH=C, Heating, Sensible, 393152.28, 4.28625, 4.28625, FORT MCMURRAY AP ANN HTG 99.6% CONDNS DB, 1/21 00:10:00
 System Sizing Information, SYS_3_PSZ ALL_ST=HOSPITAL - PHYSICAL THERAPY_FL=STORY 1_SCH=C, Cooling, Sensible, 93747.62, 5.71500, 5.71500, FORT MCMURRAY AP ANN CLG .4% CONDNS DB=>MWB, 7/21 05:00:00
 System Sizing Information, SYS_3_PSZ ALL_ST=HOSPITAL - PHYSICAL THERAPY_FL=STORY 1_SCH=C, Heating, Sensible, 524203.04, 5.71500, 5.71500, FORT MCMURRAY AP ANN HTG 99.6% CONDNS DB, 1/21 00:10:00
 System Sizing Information, SYS_3_PSZ ALL_ST=HOSPITAL - RADIOLOGY/IMAGING_FL=STORY 2_SCH=H, Cooling, Sensible, 74684.29, 5.35444, 5.35444, FORT MCMURRAY AP ANN CLG .4% CONDNS DB=>MWB, 7/21 05:00:00
 System Sizing Information, SYS_3_PSZ ALL_ST=HOSPITAL - RADIOLOGY/IMAGING_FL=STORY 2_SCH=H, Heating, Sensible, 393152.28, 4.28625, 4.28625, FORT MCMURRAY AP ANN HTG 99.6% CONDNS DB, 1/21 00:10:00
 System Sizing Information, SYS_3_PSZ ALL_ST=HOSPITAL - RECOVERY_FL=STORY 2_SCH=H, Cooling, Sensible, 97123.17, 8.57250, 8.57250, FORT MCMURRAY AP ANN CLG .4% CONDNS DB=>MWB, 7/21 05:00:00
 System Sizing Information, SYS_3_PSZ ALL_ST=HOSPITAL - RECOVERY_FL=STORY 2_SCH=H, Heating, Sensible, 786304.56, 8.57250, 8.57250, FORT MCMURRAY AP ANN HTG 99.6% CONDNS DB, 1/21 00:10:00
 System Sizing Information, SYS_4_PSZ_WILD_ST=HOSPITAL CORR. < 2.4M-SCH-A_FL=STORY 2_SCH=H, Cooling, Sensible, 166920.09, 11.49665, 11.49665, FORT MCMURRAY AP ANN CLG .4% CONDNS DB=>MWB, 7/21 05:00:00
 System Sizing Information, SYS_4_PSZ_WILD_ST=HOSPITAL CORR. < 2.4M-SCH-A_FL=STORY 2_SCH=H, Heating, Sensible, 611570.21, 6.66750, 6.66750, FORT MCMURRAY AP ANN HTG 99.6% CONDNS DB, 1/21 00:10:00
 System Sizing Information, SYS_6_VAV WITH REHEAT, Cooling, Sensible, 213725.52, 15.19808, 15.19808, FORT MCMURRAY AP ANN CLG .4% CONDNS DB=>MWB, 7/21 00:00:00
 System Sizing Information, SYS_6_VAV WITH REHEAT, Heating, Sensible, 630852.77, 11.04900, 11.04900, FORT MCMURRAY AP ANN HTG 99.6% CONDNS DB, 1/21 07:50:00
! <Component Sizing Information>, Component Type, Component Name, Input Field Description, Value
 Component Sizing Information, AirTerminal:SingleDuct:VAV:Reheat, AIR TERMINAL SINGLE DUCT VAV REHEAT 1, Design Size Maximum Air Flow Rate [m3/s], 8.39331
 Component Sizing Information, AirTerminal:SingleDuct:VAV:Reheat, AIR TERMINAL SINGLE DUCT VAV REHEAT 1, Design Size Constant Minimum Air Flow Fraction, 0.17022
 Component Sizing Information, AirTerminal:SingleDuct:VAV:Reheat, AIR TERMINAL SINGLE DUCT VAV REHEAT 1, User-Specified Constant Minimum Air Flow Fraction, 0.30000
 Component Sizing Information, AirTerminal:SingleDuct:VAV:Reheat, AIR TERMINAL SINGLE DUCT VAV REHEAT 1, Design Size Minimum Air Flow Rate [m3/s], 2.51799
 Component Sizing Information, AirTerminal:SingleDuct:VAV:Reheat, AIR TERMINAL SINGLE DUCT VAV REHEAT 1, Design Size Maximum Flow per Zone Floor Area during Reheat [m3/s-m2], 1.34293E-003
 Component Sizing Information, AirTerminal:SingleDuct:VAV:Reheat, AIR TERMINAL SINGLE DUCT VAV REHEAT 1, Design Size Maximum Flow Fraction during Reheat [], 0.30000
 Component Sizing Information, AirTerminal:SingleDuct:VAV:Reheat, AIR TERMINAL SINGLE DUCT VAV REHEAT 1, Design Size Maximum Reheat Water Flow Rate [m3/s], 9.84707E-004
 Component Sizing Information, AirTerminal:SingleDuct:VAV:Reheat, AIR TERMINAL SINGLE DUCT VAV REHEAT 1, Design Size Reheat Coil Sizing Air Volume Flow Rate [m3/s], 2.51799
 Component Sizing Information, AirTerminal:SingleDuct:VAV:Reheat, AIR TERMINAL SINGLE DUCT VAV REHEAT 1, Design Size Reheat Coil Sizing Inlet Air Temperature [C], 13.10000
 Component Sizing Information, AirTerminal:SingleDuct:VAV:Reheat, AIR TERMINAL SINGLE DUCT VAV REHEAT 1, Design Size Reheat Coil Sizing Inlet Air Humidity Ratio [kgWater/kgDryAir], 8.00000E-003
 Component Sizing Information, Coil:Heating:Water, COIL HEATING WATER 2, Design Size Rated Capacity [W], 65929.24943
 Component Sizing Information, Coil:Heating:Water, COIL HEATING WATER 2, Design Size Maximum Water Flow Rate [m3/s], 9.84707E-004
 Component Sizing Information, Coil:Heating:Water, COIL HEATING WATER 2, Design Size U-Factor Times Area Value [W/K], 1373.90666
! <Water Heating Coil Capacity Information>,Component Type,Name,Nominal Total Capacity {W}
Water Heating Coil Capacity Information,Coil:Heating:Water,COIL HEATING WATER 2,61852.89
 Component Sizing Information, ZoneHVAC:Baseboard:Convective:Water, ZONE HVAC BASEBOARD CONVECTIVE WATER 5, Design Size Maximum Water Flow Rate [m3/s], 6.63538E-004
 Component Sizing Information, ZoneHVAC:Baseboard:Convective:Water, ZONE HVAC BASEBOARD CONVECTIVE WATER 5, Design Size U-Factor Times Area Value [W/K], 1275.58277
 Component Sizing Information, AirTerminal:SingleDuct:VAV:Reheat, AIR TERMINAL SINGLE DUCT VAV REHEAT 2, Design Size Maximum Air Flow Rate [m3/s], 6.80477
 Component Sizing Information, AirTerminal:SingleDuct:VAV:Reheat, AIR TERMINAL SINGLE DUCT VAV REHEAT 2, Design Size Constant Minimum Air Flow Fraction, 0.20996
 Component Sizing Information, AirTerminal:SingleDuct:VAV:Reheat, AIR TERMINAL SINGLE DUCT VAV REHEAT 2, User-Specified Constant Minimum Air Flow Fraction, 0.30000
 Component Sizing Information, AirTerminal:SingleDuct:VAV:Reheat, AIR TERMINAL SINGLE DUCT VAV REHEAT 2, Design Size Minimum Air Flow Rate [m3/s], 2.04143
 Component Sizing Information, AirTerminal:SingleDuct:VAV:Reheat, AIR TERMINAL SINGLE DUCT VAV REHEAT 2, Design Size Maximum Flow per Zone Floor Area during Reheat [m3/s-m2], 1.08876E-003
 Component Sizing Information, AirTerminal:SingleDuct:VAV:Reheat, AIR TERMINAL SINGLE DUCT VAV REHEAT 2, Design Size Maximum Flow Fraction during Reheat [], 0.30000
 Component Sizing Information, AirTerminal:SingleDuct:VAV:Reheat, AIR TERMINAL SINGLE DUCT VAV REHEAT 2, Design Size Maximum Reheat Water Flow Rate [m3/s], 9.13524E-004
 Component Sizing Information, AirTerminal:SingleDuct:VAV:Reheat, AIR TERMINAL SINGLE DUCT VAV REHEAT 2, Design Size Reheat Coil Sizing Air Volume Flow Rate [m3/s], 2.04143
 Component Sizing Information, AirTerminal:SingleDuct:VAV:Reheat, AIR TERMINAL SINGLE DUCT VAV REHEAT 2, Design Size Reheat Coil Sizing Inlet Air Temperature [C], 13.10000
 Component Sizing Information, AirTerminal:SingleDuct:VAV:Reheat, AIR TERMINAL SINGLE DUCT VAV REHEAT 2, Design Size Reheat Coil Sizing Inlet Air Humidity Ratio [kgWater/kgDryAir], 8.00000E-003
 Component Sizing Information, Coil:Heating:Water, COIL HEATING WATER 3, Design Size Rated Capacity [W], 61163.29519
 Component Sizing Information, Coil:Heating:Water, COIL HEATING WATER 3, Design Size Maximum Water Flow Rate [m3/s], 9.13524E-004
 Component Sizing Information, Coil:Heating:Water, COIL HEATING WATER 3, Design Size U-Factor Times Area Value [W/K], 1315.29240
Water Heating Coil Capacity Information,Coil:Heating:Water,COIL HEATING WATER 3,57368.91
 Component Sizing Information, ZoneHVAC:Baseboard:Convective:Water, ZONE HVAC BASEBOARD CONVECTIVE WATER 6, Design Size Maximum Water Flow Rate [m3/s], 6.51071E-004
 Component Sizing Information, ZoneHVAC:Baseboard:Convective:Water, ZONE HVAC BASEBOARD CONVECTIVE WATER 6, Design Size U-Factor Times Area Value [W/K], 1251.28293
 Component Sizing Information, AirTerminal:SingleDuct:Uncontrolled, AIR TERMINAL SINGLE DUCT UNCONTROLLED 5, Design Size Maximum Air Flow Rate [m3/s], 9.62491
 Component Sizing Information, ZoneHVAC:Baseboard:Convective:Water, ZONE HVAC BASEBOARD CONVECTIVE WATER 7, Design Size Maximum Water Flow Rate [m3/s], 0.00000
 Component Sizing Information, ZoneHVAC:Baseboard:Convective:Water, ZONE HVAC BASEBOARD CONVECTIVE WATER 7, Design Size U-Factor Times Area Value [W/K], 0.00000
 Component Sizing Information, AirTerminal:SingleDuct:Uncontrolled, AIR TERMINAL SINGLE DUCT UNCONTROLLED 6, Design Size Maximum Air Flow Rate [m3/s], 4.54028
 Component Sizing Information, ZoneHVAC:Baseboard:Convective:Water, ZONE HVAC BASEBOARD CONVECTIVE WATER 8, Design Size Maximum Water Flow Rate [m3/s], 6.93701E-005
 Component Sizing Information, ZoneHVAC:Baseboard:Convective:Water, ZONE HVAC BASEBOARD CONVECTIVE WATER 8, Design Size U-Factor Times Area Value [W/K], 90.05341
 Component Sizing Information, AirTerminal:SingleDuct:Uncontrolled, AIR TERMINAL SINGLE DUCT UNCONTROLLED 7, Design Size Maximum Air Flow Rate [m3/s], 6.73270
 Component Sizing Information, ZoneHVAC:Baseboard:Convective:Water, ZONE HVAC BASEBOARD CONVECTIVE WATER 9, Design Size Maximum Water Flow Rate [m3/s], 0.00000
 Component Sizing Information, ZoneHVAC:Baseboard:Convective:Water, ZONE HVAC BASEBOARD CONVECTIVE WATER 9, Design Size U-Factor Times Area Value [W/K], 0.00000
 Component Sizing Information, AirTerminal:SingleDuct:Uncontrolled, AIR TERMINAL SINGLE DUCT UNCONTROLLED 8, Design Size Maximum Air Flow Rate [m3/s], 6.33370
 Component Sizing Information, ZoneHVAC:Baseboard:Convective:Water, ZONE HVAC BASEBOARD CONVECTIVE WATER 10, Design Size Maximum Water Flow Rate [m3/s], 7.26486E-004
 Component Sizing Information, ZoneHVAC:Baseboard:Convective:Water, ZONE HVAC BASEBOARD CONVECTIVE WATER 10, Design Size U-Factor Times Area Value [W/K], 1068.07632
 Component Sizing Information, AirTerminal:SingleDuct:Uncontrolled, AIR TERMINAL SINGLE DUCT UNCONTROLLED 10, Design Size Maximum Air Flow Rate [m3/s], 2.85750
 Component Sizing Information, ZoneHVAC:Baseboard:Convective:Water, ZONE HVAC BASEBOARD CONVECTIVE WATER 12, Design Size Maximum Water Flow Rate [m3/s], 0.00000
 Component Sizing Information, ZoneHVAC:Baseboard:Convective:Water, ZONE HVAC BASEBOARD CONVECTIVE WATER 12, Design Size U-Factor Times Area Value [W/K], 0.00000
 Component Sizing Information, AirTerminal:SingleDuct:Uncontrolled, AIR TERMINAL SINGLE DUCT UNCONTROLLED 9, Design Size Maximum Air Flow Rate [m3/s], 4.18379
 Component Sizing Information, ZoneHVAC:Baseboard:Convective:Water, ZONE HVAC BASEBOARD CONVECTIVE WATER 11, Design Size Maximum Water Flow Rate [m3/s], 0.00000
 Component Sizing Information, ZoneHVAC:Baseboard:Convective:Water, ZONE HVAC BASEBOARD CONVECTIVE WATER 11, Design Size U-Factor Times Area Value [W/K], 0.00000
 Component Sizing Information, AirTerminal:SingleDuct:Uncontrolled, AIR TERMINAL SINGLE DUCT UNCONTROLLED 11, Design Size Maximum Air Flow Rate [m3/s], 5.15844
 Component Sizing Information, ZoneHVAC:Baseboard:Convective:Water, ZONE HVAC BASEBOARD CONVECTIVE WATER 13, Design Size Maximum Water Flow Rate [m3/s], 0.00000
 Component Sizing Information, ZoneHVAC:Baseboard:Convective:Water, ZONE HVAC BASEBOARD CONVECTIVE WATER 13, Design Size U-Factor Times Area Value [W/K], 0.00000
 Component Sizing Information, AirTerminal:SingleDuct:Uncontrolled, AIR TERMINAL SINGLE DUCT UNCONTROLLED 12, Design Size Maximum Air Flow Rate [m3/s], 2.85750
 Component Sizing Information, ZoneHVAC:Baseboard:Convective:Water, ZONE HVAC BASEBOARD CONVECTIVE WATER 14, Design Size Maximum Water Flow Rate [m3/s], 0.00000
 Component Sizing Information, ZoneHVAC:Baseboard:Convective:Water, ZONE HVAC BASEBOARD CONVECTIVE WATER 14, Design Size U-Factor Times Area Value [W/K], 0.00000
 Component Sizing Information, AirTerminal:SingleDuct:Uncontrolled, AIR TERMINAL SINGLE DUCT UNCONTROLLED 13, Design Size Maximum Air Flow Rate [m3/s], 11.43000
 Component Sizing Information, ZoneHVAC:Baseboard:Convective:Water, ZONE HVAC BASEBOARD CONVECTIVE WATER 15, Design Size Maximum Water Flow Rate [m3/s], 0.00000
 Component Sizing Information, ZoneHVAC:Baseboard:Convective:Water, ZONE HVAC BASEBOARD CONVECTIVE WATER 15, Design Size U-Factor Times Area Value [W/K], 0.00000
 Component Sizing Information, AirTerminal:SingleDuct:Uncontrolled, AIR TERMINAL SINGLE DUCT UNCONTROLLED 14, Design Size Maximum Air Flow Rate [m3/s], 2.85750
 Component Sizing Information, ZoneHVAC:Baseboard:Convective:Water, ZONE HVAC BASEBOARD CONVECTIVE WATER 16, Design Size Maximum Water Flow Rate [m3/s], 0.00000
 Component Sizing Information, ZoneHVAC:Baseboard:Convective:Water, ZONE HVAC BASEBOARD CONVECTIVE WATER 16, Design Size U-Factor Times Area Value [W/K], 0.00000
 Component Sizing Information, AirTerminal:SingleDuct:Uncontrolled, AIR TERMINAL SINGLE DUCT UNCONTROLLED 15, Design Size Maximum Air Flow Rate [m3/s], 4.28625
 Component Sizing Information, ZoneHVAC:Baseboard:Convective:Water, ZONE HVAC BASEBOARD CONVECTIVE WATER 17, Design Size Maximum Water Flow Rate [m3/s], 0.00000
 Component Sizing Information, ZoneHVAC:Baseboard:Convective:Water, ZONE HVAC BASEBOARD CONVECTIVE WATER 17, Design Size U-Factor Times Area Value [W/K], 0.00000
 Component Sizing Information, AirTerminal:SingleDuct:Uncontrolled, AIR TERMINAL SINGLE DUCT UNCONTROLLED 16, Design Size Maximum Air Flow Rate [m3/s], 5.71500
 Component Sizing Information, ZoneHVAC:Baseboard:Convective:Water, ZONE HVAC BASEBOARD CONVECTIVE WATER 18, Design Size Maximum Water Flow Rate [m3/s], 0.00000
 Component Sizing Information, ZoneHVAC:Baseboard:Convective:Water, ZONE HVAC BASEBOARD CONVECTIVE WATER 18, Design Size U-Factor Times Area Value [W/K], 0.00000
 Component Sizing Information, AirTerminal:SingleDuct:Uncontrolled, AIR TERMINAL SINGLE DUCT UNCONTROLLED 17, Design Size Maximum Air Flow Rate [m3/s], 5.35444
 Component Sizing Information, ZoneHVAC:Baseboard:Convective:Water, ZONE HVAC BASEBOARD CONVECTIVE WATER 19, Design Size Maximum Water Flow Rate [m3/s], 0.00000
 Component Sizing Information, ZoneHVAC:Baseboard:Convective:Water, ZONE HVAC BASEBOARD CONVECTIVE WATER 19, Design Size U-Factor Times Area Value [W/K], 0.00000
 Component Sizing Information, AirTerminal:SingleDuct:Uncontrolled, AIR TERMINAL SINGLE DUCT UNCONTROLLED 18, Design Size Maximum Air Flow Rate [m3/s], 8.57250
 Component Sizing Information, ZoneHVAC:Baseboard:Convective:Water, ZONE HVAC BASEBOARD CONVECTIVE WATER 20, Design Size Maximum Water Flow Rate [m3/s], 0.00000
 Component Sizing Information, ZoneHVAC:Baseboard:Convective:Water, ZONE HVAC BASEBOARD CONVECTIVE WATER 20, Design Size U-Factor Times Area Value [W/K], 0.00000
 Component Sizing Information, AirTerminal:SingleDuct:Uncontrolled, AIR TERMINAL SINGLE DUCT UNCONTROLLED 1, Design Size Maximum Air Flow Rate [m3/s], 2.29183
 Component Sizing Information, ZoneHVAC:Baseboard:Convective:Water, ZONE HVAC BASEBOARD CONVECTIVE WATER 1, Design Size Maximum Water Flow Rate [m3/s], 0.00000
 Component Sizing Information, ZoneHVAC:Baseboard:Convective:Water, ZONE HVAC BASEBOARD CONVECTIVE WATER 1, Design Size U-Factor Times Area Value [W/K], 0.00000
 Component Sizing Information, AirTerminal:SingleDuct:Uncontrolled, AIR TERMINAL SINGLE DUCT UNCONTROLLED 2, Design Size Maximum Air Flow Rate [m3/s], 3.03097
 Component Sizing Information, ZoneHVAC:Baseboard:Convective:Water, ZONE HVAC BASEBOARD CONVECTIVE WATER 2, Design Size Maximum Water Flow Rate [m3/s], 0.00000
 Component Sizing Information, ZoneHVAC:Baseboard:Convective:Water, ZONE HVAC BASEBOARD CONVECTIVE WATER 2, Design Size U-Factor Times Area Value [W/K], 0.00000
 Component Sizing Information, AirTerminal:SingleDuct:Uncontrolled, AIR TERMINAL SINGLE DUCT UNCONTROLLED 3, Design Size Maximum Air Flow Rate [m3/s], 3.53084
 Component Sizing Information, ZoneHVAC:Baseboard:Convective:Water, ZONE HVAC BASEBOARD CONVECTIVE WATER 3, Design Size Maximum Water Flow Rate [m3/s], 0.00000
 Component Sizing Information, ZoneHVAC:Baseboard:Convective:Water, ZONE HVAC BASEBOARD CONVECTIVE WATER 3, Design Size U-Factor Times Area Value [W/K], 0.00000
 Component Sizing Information, AirTerminal:SingleDuct:Uncontrolled, AIR TERMINAL SINGLE DUCT UNCONTROLLED 4, Design Size Maximum Air Flow Rate [m3/s], 2.64300
 Component Sizing Information, ZoneHVAC:Baseboard:Convective:Water, ZONE HVAC BASEBOARD CONVECTIVE WATER 4, Design Size Maximum Water Flow Rate [m3/s], 0.00000
 Component Sizing Information, ZoneHVAC:Baseboard:Convective:Water, ZONE HVAC BASEBOARD CONVECTIVE WATER 4, Design Size U-Factor Times Area Value [W/K], 0.00000
 Component Sizing Information, AirLoopHVAC, SYS_3_PSZ ALL_ST=HOSPITAL - EMERGENCY_FL=STORY 4_SCH=H, Sum of Air Terminal Maximum Heating Flow Rates [m3/s], 9.62491
 Component Sizing Information, AirLoopHVAC, SYS_3_PSZ ALL_ST=HOSPITAL - EMERGENCY_FL=STORY 4_SCH=H, Sum of Air Terminal Minimum Heating Flow Rates [m3/s], 9.62491
 Component Sizing Information, AirLoopHVAC, SYS_3_PSZ ALL_ST=HOSPITAL - EMERGENCY_FL=STORY 4_SCH=H, Sum of Air Terminal Maximum Flow Rates [m3/s], 9.62491
 Component Sizing Information, AirLoopHVAC, SYS_3_PSZ ALL_ST=HOSPITAL - EMERGENCY_FL=STORY 4_SCH=H, Adjusted Heating Design Air Flow Rate [m3/s], 9.62491
 Component Sizing Information, AirLoopHVAC, SYS_3_PSZ ALL_ST=HOSPITAL - EMERGENCY_FL=STORY 4_SCH=H, Adjusted Cooling Design Air Flow Rate [m3/s], 9.62491
 Component Sizing Information, AirLoopHVAC, SYS_3_PSZ ALL_ST=HOSPITAL - EMERGENCY_FL=STORY 4_SCH=H, Adjusted Main Design Air Flow Rate [m3/s], 9.62491
 Component Sizing Information, AirLoopHVAC, SYS_3_PSZ ALL_ST=HOSPITAL - EMERGENCY_FL=STORY 4_SCH=H, User Heating Air Flow Ratio [], 1.00000
 Component Sizing Information, AirLoopHVAC, SYS_3_PSZ ALL_ST=HOSPITAL - EMERGENCY_FL=STORY 4_SCH=H, Calculated Heating Air Flow Ratio [], 1.00000
 Component Sizing Information, AirLoopHVAC, SYS_3_PSZ ALL_ST=HOSPITAL - EXAM_FL=STORY 3_SCH=C, Sum of Air Terminal Maximum Heating Flow Rates [m3/s], 4.54028
 Component Sizing Information, AirLoopHVAC, SYS_3_PSZ ALL_ST=HOSPITAL - EXAM_FL=STORY 3_SCH=C, Sum of Air Terminal Minimum Heating Flow Rates [m3/s], 4.54028
 Component Sizing Information, AirLoopHVAC, SYS_3_PSZ ALL_ST=HOSPITAL - EXAM_FL=STORY 3_SCH=C, Sum of Air Terminal Maximum Flow Rates [m3/s], 4.54028
 Component Sizing Information, AirLoopHVAC, SYS_3_PSZ ALL_ST=HOSPITAL - EXAM_FL=STORY 3_SCH=C, Adjusted Heating Design Air Flow Rate [m3/s], 4.54028
 Component Sizing Information, AirLoopHVAC, SYS_3_PSZ ALL_ST=HOSPITAL - EXAM_FL=STORY 3_SCH=C, Adjusted Cooling Design Air Flow Rate [m3/s], 4.54028
 Component Sizing Information, AirLoopHVAC, SYS_3_PSZ ALL_ST=HOSPITAL - EXAM_FL=STORY 3_SCH=C, Adjusted Main Design Air Flow Rate [m3/s], 4.54028
 Component Sizing Information, AirLoopHVAC, SYS_3_PSZ ALL_ST=HOSPITAL - EXAM_FL=STORY 3_SCH=C, User Heating Air Flow Ratio [], 1.00000
 Component Sizing Information, AirLoopHVAC, SYS_3_PSZ ALL_ST=HOSPITAL - EXAM_FL=STORY 3_SCH=C, Calculated Heating Air Flow Ratio [], 1.00000
 Component Sizing Information, AirLoopHVAC, SYS_3_PSZ ALL_ST=HOSPITAL - LAUNDRY/WASHING_FL=STORY 3_SCH=C, Sum of Air Terminal Maximum Heating Flow Rates [m3/s], 6.73270
 Component Sizing Information, AirLoopHVAC, SYS_3_PSZ ALL_ST=HOSPITAL - LAUNDRY/WASHING_FL=STORY 3_SCH=C, Sum of Air Terminal Minimum Heating Flow Rates [m3/s], 6.73270
 Component Sizing Information, AirLoopHVAC, SYS_3_PSZ ALL_ST=HOSPITAL - LAUNDRY/WASHING_FL=STORY 3_SCH=C, Sum of Air Terminal Maximum Flow Rates [m3/s], 6.73270
 Component Sizing Information, AirLoopHVAC, SYS_3_PSZ ALL_ST=HOSPITAL - LAUNDRY/WASHING_FL=STORY 3_SCH=C, Adjusted Heating Design Air Flow Rate [m3/s], 6.73270
 Component Sizing Information, AirLoopHVAC, SYS_3_PSZ ALL_ST=HOSPITAL - LAUNDRY/WASHING_FL=STORY 3_SCH=C, Adjusted Cooling Design Air Flow Rate [m3/s], 6.73270
 Component Sizing Information, AirLoopHVAC, SYS_3_PSZ ALL_ST=HOSPITAL - LAUNDRY/WASHING_FL=STORY 3_SCH=C, Adjusted Main Design Air Flow Rate [m3/s], 6.73270
 Component Sizing Information, AirLoopHVAC, SYS_3_PSZ ALL_ST=HOSPITAL - LAUNDRY/WASHING_FL=STORY 3_SCH=C, User Heating Air Flow Ratio [], 1.00000
 Component Sizing Information, AirLoopHVAC, SYS_3_PSZ ALL_ST=HOSPITAL - LAUNDRY/WASHING_FL=STORY 3_SCH=C, Calculated Heating Air Flow Ratio [], 1.00000
 Component Sizing Information, AirLoopHVAC, SYS_3_PSZ ALL_ST=HOSPITAL - LOUNGE/RECREATION_FL=STORY 4_SCH=B, Sum of Air Terminal Maximum Heating Flow Rates [m3/s], 6.33370
 Component Sizing Information, AirLoopHVAC, SYS_3_PSZ ALL_ST=HOSPITAL - LOUNGE/RECREATION_FL=STORY 4_SCH=B, Sum of Air Terminal Minimum Heating Flow Rates [m3/s], 6.33370
 Component Sizing Information, AirLoopHVAC, SYS_3_PSZ ALL_ST=HOSPITAL - LOUNGE/RECREATION_FL=STORY 4_SCH=B, Sum of Air Terminal Maximum Flow Rates [m3/s], 6.33370
 Component Sizing Information, AirLoopHVAC, SYS_3_PSZ ALL_ST=HOSPITAL - LOUNGE/RECREATION_FL=STORY 4_SCH=B, Adjusted Heating Design Air Flow Rate [m3/s], 6.33370
 Component Sizing Information, AirLoopHVAC, SYS_3_PSZ ALL_ST=HOSPITAL - LOUNGE/RECREATION_FL=STORY 4_SCH=B, Adjusted Cooling Design Air Flow Rate [m3/s], 6.33370
 Component Sizing Information, AirLoopHVAC, SYS_3_PSZ ALL_ST=HOSPITAL - LOUNGE/RECREATION_FL=STORY 4_SCH=B, Adjusted Main Design Air Flow Rate [m3/s], 6.33370
 Component Sizing Information, AirLoopHVAC, SYS_3_PSZ ALL_ST=HOSPITAL - LOUNGE/RECREATION_FL=STORY 4_SCH=B, User Heating Air Flow Ratio [], 1.00000
 Component Sizing Information, AirLoopHVAC, SYS_3_PSZ ALL_ST=HOSPITAL - LOUNGE/RECREATION_FL=STORY 4_SCH=B, Calculated Heating Air Flow Ratio [], 1.00000
 Component Sizing Information, AirLoopHVAC, SYS_3_PSZ ALL_ST=HOSPITAL - MEDICAL SUPPLY - OCCSENS_FL=STORY 1_SCH=H, Sum of Air Terminal Maximum Heating Flow Rates [m3/s], 2.85750
 Component Sizing Information, AirLoopHVAC, SYS_3_PSZ ALL_ST=HOSPITAL - MEDICAL SUPPLY - OCCSENS_FL=STORY 1_SCH=H, Sum of Air Terminal Minimum Heating Flow Rates [m3/s], 2.85750
 Component Sizing Information, AirLoopHVAC, SYS_3_PSZ ALL_ST=HOSPITAL - MEDICAL SUPPLY - OCCSENS_FL=STORY 1_SCH=H, Sum of Air Terminal Maximum Flow Rates [m3/s], 2.85750
[...]
 Component Sizing Information, Controller:OutdoorAir, CONTROLLER OUTDOOR AIR 13, Minimum Outdoor Air Flow Rate [m3/s], 4.28625
 Component Sizing Information, HeatExchanger:AirToAir:SensibleAndLatent, SYS_3_PSZ ALL_ST=HOSPITAL - PHARMACY_FL=STORY 1_SCH=C ERV, Design Size Nominal Supply Air Flow Rate [m3/s], 4.28625
 Component Sizing Information, Coil:Cooling:DX:SingleSpeed, COIL COOLING DX SINGLE SPEED 12 249KBTU/HR 9.7EER, Design Size Rated Air Flow Rate [m3/s], 4.28625
 Component Sizing Information, Coil:Cooling:DX:SingleSpeed, COIL COOLING DX SINGLE SPEED 12 249KBTU/HR 9.7EER, Design Size Gross Rated Total Cooling Capacity [W], 78315.45457
 Component Sizing Information, Coil:Cooling:DX:SingleSpeed, COIL COOLING DX SINGLE SPEED 12 249KBTU/HR 9.7EER, Design Size Gross Rated Sensible Heat Ratio, 0.80009
 DX Cooling Coil Standard Rating Information, Coil:Cooling:DX:SingleSpeed, COIL COOLING DX SINGLE SPEED 12 249KBTU/HR 9.7EER, 74981.9, 2.90, 9.88, 10.43, 9.92
 Component Sizing Information, Coil:Heating:Fuel, COIL HEATING GAS 12, Design Size Nominal Capacity [W], 393152.27976
 Component Sizing Information, Fan:ConstantVolume, FAN CONSTANT VOLUME 12, Design Size Maximum Flow Rate [m3/s], 4.28625
 Component Sizing Information, Controller:OutdoorAir, CONTROLLER OUTDOOR AIR 14, Maximum Outdoor Air Flow Rate [m3/s], 5.71500
 Component Sizing Information, Controller:OutdoorAir, CONTROLLER OUTDOOR AIR 14, Minimum Outdoor Air Flow Rate [m3/s], 5.71500
 Component Sizing Information, HeatExchanger:AirToAir:SensibleAndLatent, SYS_3_PSZ ALL_ST=HOSPITAL - PHYSICAL THERAPY_FL=STORY 1_SCH=C ERV, Design Size Nominal Supply Air Flow Rate [m3/s], 5.71500
 Component Sizing Information, Coil:Cooling:DX:SingleSpeed, COIL COOLING DX SINGLE SPEED 13 332KBTU/HR 8.21EER, Design Size Rated Air Flow Rate [m3/s], 5.71500
 Component Sizing Information, Coil:Cooling:DX:SingleSpeed, COIL COOLING DX SINGLE SPEED 13 332KBTU/HR 8.21EER, Design Size Gross Rated Total Cooling Capacity [W], 104420.60609
 Component Sizing Information, Coil:Cooling:DX:SingleSpeed, COIL COOLING DX SINGLE SPEED 13 332KBTU/HR 8.21EER, Design Size Gross Rated Sensible Heat Ratio, 0.80009
 DX Cooling Coil Standard Rating Information, Coil:Cooling:DX:SingleSpeed, COIL COOLING DX SINGLE SPEED 13 332KBTU/HR 8.21EER, 99975.8, 2.54, 8.67, 9.16, 8.81
 Component Sizing Information, Coil:Heating:Fuel, COIL HEATING GAS 13, Design Size Nominal Capacity [W], 524203.03968
 Component Sizing Information, Fan:ConstantVolume, FAN CONSTANT VOLUME 13, Design Size Maximum Flow Rate [m3/s], 5.71500
 Component Sizing Information, Controller:OutdoorAir, CONTROLLER OUTDOOR AIR 15, Maximum Outdoor Air Flow Rate [m3/s], 5.35444
 Component Sizing Information, Controller:OutdoorAir, CONTROLLER OUTDOOR AIR 15, Minimum Outdoor Air Flow Rate [m3/s], 4.28625
 Component Sizing Information, HeatExchanger:AirToAir:SensibleAndLatent, SYS_3_PSZ ALL_ST=HOSPITAL - RADIOLOGY/IMAGING_FL=STORY 2_SCH=H ERV, Design Size Nominal Supply Air Flow Rate [m3/s], 4.28625
 Component Sizing Information, Coil:Cooling:DX:SingleSpeed, COIL COOLING DX SINGLE SPEED 14 302KBTU/HR 8.21EER, Design Size Rated Air Flow Rate [m3/s], 5.35444
 Component Sizing Information, Coil:Cooling:DX:SingleSpeed, COIL COOLING DX SINGLE SPEED 14 302KBTU/HR 8.21EER, Design Size Gross Rated Total Cooling Capacity [W], 88635.00428
 Component Sizing Information, Coil:Cooling:DX:SingleSpeed, COIL COOLING DX SINGLE SPEED 14 302KBTU/HR 8.21EER, Design Size Gross Rated Sensible Heat Ratio, 0.80066
 DX Cooling Coil Standard Rating Information, Coil:Cooling:DX:SingleSpeed, COIL COOLING DX SINGLE SPEED 14 302KBTU/HR 8.21EER, 84472.9, 2.49, 8.48, 8.96, 8.56
 Component Sizing Information, Coil:Heating:Fuel, COIL HEATING GAS 14, Design Size Nominal Capacity [W], 419131.50342
 Component Sizing Information, Fan:ConstantVolume, FAN CONSTANT VOLUME 14, Design Size Maximum Flow Rate [m3/s], 5.35444
 Component Sizing Information, Controller:OutdoorAir, CONTROLLER OUTDOOR AIR 16, Maximum Outdoor Air Flow Rate [m3/s], 8.57250
 Component Sizing Information, Controller:OutdoorAir, CONTROLLER OUTDOOR AIR 16, Minimum Outdoor Air Flow Rate [m3/s], 8.57250
 Component Sizing Information, HeatExchanger:AirToAir:SensibleAndLatent, SYS_3_PSZ ALL_ST=HOSPITAL - RECOVERY_FL=STORY 2_SCH=H ERV, Design Size Nominal Supply Air Flow Rate [m3/s], 8.57250
 Component Sizing Information, Coil:Cooling:DX:SingleSpeed, COIL COOLING DX SINGLE SPEED 15 484KBTU/HR 8.21EER, Design Size Rated Air Flow Rate [m3/s], 8.57250
 Component Sizing Information, Coil:Cooling:DX:SingleSpeed, COIL COOLING DX SINGLE SPEED 15 484KBTU/HR 8.21EER, Design Size Gross Rated Total Cooling Capacity [W], 141905.31369
 Component Sizing Information, Coil:Cooling:DX:SingleSpeed, COIL COOLING DX SINGLE SPEED 15 484KBTU/HR 8.21EER, Design Size Gross Rated Sensible Heat Ratio, 0.80066
 DX Cooling Coil Standard Rating Information, Coil:Cooling:DX:SingleSpeed, COIL COOLING DX SINGLE SPEED 15 484KBTU/HR 8.21EER, 135241.8, 2.57, 8.77, 9.27, 8.82
 Component Sizing Information, Coil:Heating:Fuel, COIL HEATING GAS 15, Design Size Nominal Capacity [W], 786304.55953
 Component Sizing Information, Fan:ConstantVolume, FAN CONSTANT VOLUME 15, Design Size Maximum Flow Rate [m3/s], 8.57250
 Component Sizing Information, Controller:OutdoorAir, CONTROLLER OUTDOOR AIR 1, Maximum Outdoor Air Flow Rate [m3/s], 11.49665
 Component Sizing Information, Controller:OutdoorAir, CONTROLLER OUTDOOR AIR 1, Minimum Outdoor Air Flow Rate [m3/s], 6.66750
 Component Sizing Information, HeatExchanger:AirToAir:SensibleAndLatent, SYS_4_PSZ_WILD_ST=HOSPITAL CORR. < 2.4M-SCH-A_FL=STORY 2_SCH=H ERV, Design Size Nominal Supply Air Flow Rate [m3/s], 6.66750
 Component Sizing Information, Coil:Cooling:DX:SingleSpeed, COIL COOLING DX SINGLE SPEED 1 649KBTU/HR 8.21EER, Design Size Rated Air Flow Rate [m3/s], 11.49665
 Component Sizing Information, Coil:Cooling:DX:SingleSpeed, COIL COOLING DX SINGLE SPEED 1 649KBTU/HR 8.21EER, Design Size Gross Rated Total Cooling Capacity [W], 190626.44494
 Component Sizing Information, Coil:Cooling:DX:SingleSpeed, COIL COOLING DX SINGLE SPEED 1 649KBTU/HR 8.21EER, Design Size Gross Rated Sensible Heat Ratio, 0.80005
 DX Cooling Coil Standard Rating Information, Coil:Cooling:DX:SingleSpeed, COIL COOLING DX SINGLE SPEED 1 649KBTU/HR 8.21EER, 181689.8, 2.65, 9.04, 9.54, 9.06
 Component Sizing Information, Coil:Heating:Fuel, COIL HEATING GAS 1, Design Size Nominal Capacity [W], 729018.89770
 Component Sizing Information, Fan:ConstantVolume, FAN CONSTANT VOLUME 1, Design Size Maximum Flow Rate [m3/s], 11.49665
 Component Sizing Information, Fan:VariableVolume, SYS6 RETURN FAN, Design Size Maximum Flow Rate [m3/s], 15.19808
 Component Sizing Information, Controller:OutdoorAir, CONTROLLER OUTDOOR AIR 2, Maximum Outdoor Air Flow Rate [m3/s], 15.19808
 Component Sizing Information, Controller:OutdoorAir, CONTROLLER OUTDOOR AIR 2, Minimum Outdoor Air Flow Rate [m3/s], 11.04900
 Component Sizing Information, HeatExchanger:AirToAir:SensibleAndLatent, SYS_6_VAV WITH REHEAT ERV, Design Size Nominal Supply Air Flow Rate [m3/s], 11.04900
 Component Sizing Information, Coil:Cooling:Water, COIL COOLING WATER 1, Design Size Design Coil Load [W], 263287.41762
 Component Sizing Information, Coil:Cooling:Water, COIL COOLING WATER 1, Design Size Design Water Flow Rate [m3/s], 1.04540E-002
 Component Sizing Information, Coil:Cooling:Water, COIL COOLING WATER 1, Design Size Design Air Flow Rate [m3/s], 15.19808
 Component Sizing Information, Coil:Cooling:Water, COIL COOLING WATER 1, Design Size Design Inlet Air Temperature [C], 25.14254
 Component Sizing Information, Coil:Cooling:Water, COIL COOLING WATER 1, Design Size Design Inlet Water Temperature [C], 7.00000
 Component Sizing Information, Coil:Cooling:Water, COIL COOLING WATER 1, Design Size Design Outlet Air Temperature [C], 13.00000
 Component Sizing Information, Coil:Cooling:Water, COIL COOLING WATER 1, Design Size Design Inlet Air Humidity Ratio, 8.83865E-003
 Component Sizing Information, Coil:Cooling:Water, COIL COOLING WATER 1, Design Size Design Outlet Air Humidity Ratio, 8.76847E-003
! <Water Cooling Coil Capacity Information>,Component Type,Name,Nominal Total Capacity {W},Nominal Sensible Capacity {W},Nominal Latent Capacity {W},Nominal Sensible Heat Ratio, Nominal Coil UA Value {W/C}, Nominal Coil Surface Area {m2}
Water Cooling Coil Capacity Information,Coil:Cooling:Water,COIL COOLING WATER 1,340144.84,239235.60,100909.24,0.70,37185.86,377.16
 Component Sizing Information, Coil:Heating:Water, COIL HEATING WATER 1, Design Size Rated Capacity [W], 260324.55270
 Component Sizing Information, Coil:Heating:Water, COIL HEATING WATER 1, Design Size Maximum Water Flow Rate [m3/s], 3.88816E-003
 Component Sizing Information, Coil:Heating:Water, COIL HEATING WATER 1, Design Size U-Factor Times Area Value [W/K], 3176.72286
Water Heating Coil Capacity Information,Coil:Heating:Water,COIL HEATING WATER 1,145041.05
 Component Sizing Information, Fan:VariableVolume, SYS6 SUPPLY FAN, Design Size Maximum Flow Rate [m3/s], 15.19808
 Component Sizing Information, Controller:WaterCoil, CONTROLLER WATER COIL 2, Maximum Actuated Flow [m3/s], 1.04540E-002
 Component Sizing Information, Controller:WaterCoil, CONTROLLER WATER COIL 2, Controller Convergence Tolerance, 4.55512E-005
 Component Sizing Information, Controller:WaterCoil, CONTROLLER WATER COIL 1, Maximum Actuated Flow [m3/s], 3.88816E-003
Water Heater Information,WaterHeater:Mixed,833GAL NATURALGAS WATER HEATER - 2809KBTU/HR 0.802 THERM EFF,3.1517,823179.9,0.221,0.1781
 Component Sizing Information, PlantLoop, CHILLED WATER LOOP, Maximum Loop Flow Rate [m3/s], 1.04540E-002
 Component Sizing Information, PlantLoop, CHILLED WATER LOOP, Plant Loop Volume [m3], 1.25447
 Component Sizing Information, Pump:ConstantSpeed, PUMP CONSTANT SPEED 1, Design Flow Rate [m3/s], 1.04540E-002
 Component Sizing Information, Pump:ConstantSpeed, PUMP CONSTANT SPEED 1, Design Power Consumption [W], 2685.77302
 Component Sizing Information, Chiller:Electric:EIR, PRIMARY CHILLER WATERCOOLED SCROLL 75TONS 0.8KW/TON, Design Size Reference Chilled Water Flow Rate [m3/s], 1.04540E-002
 Component Sizing Information, Chiller:Electric:EIR, PRIMARY CHILLER WATERCOOLED SCROLL 75TONS 0.8KW/TON, Design Size Reference Capacity [W], 263283.02740
 Component Sizing Information, Chiller:Electric:EIR, PRIMARY CHILLER WATERCOOLED SCROLL 75TONS 0.8KW/TON, User-Specified Reference Capacity [W], 264758.78290
 Component Sizing Information, Chiller:Electric:EIR, PRIMARY CHILLER WATERCOOLED SCROLL 75TONS 0.8KW/TON, Design Size Reference Condenser Fluid Flow Rate [m3/s], 1.28815E-002
! <Chiller Standard Rating Information>, Component Type, Component Name, IPLV in SI Units {W/W}, IPLV in IP Units {Btu/W-h}
 Chiller Standard Rating Information, Chiller:Electric:EIR, PRIMARY CHILLER WATERCOOLED SCROLL 75TONS 0.8KW/TON, 5.66, 19.31
 Component Sizing Information, Chiller:Electric:EIR, SECONDARY CHILLER WATERCOOLED SCROLL 0TONS 0.8KW/TON, Design Size Reference Chilled Water Flow Rate [m3/s], 1.04540E-002
 Component Sizing Information, Chiller:Electric:EIR, SECONDARY CHILLER WATERCOOLED SCROLL 0TONS 0.8KW/TON, Design Size Reference Capacity [W], 263283.02740
 Component Sizing Information, Chiller:Electric:EIR, SECONDARY CHILLER WATERCOOLED SCROLL 0TONS 0.8KW/TON, User-Specified Reference Capacity [W], 1.00000E-003
 Component Sizing Information, Chiller:Electric:EIR, SECONDARY CHILLER WATERCOOLED SCROLL 0TONS 0.8KW/TON, Design Size Reference Condenser Fluid Flow Rate [m3/s], 4.87330E-011
 Chiller Standard Rating Information, Chiller:Electric:EIR, SECONDARY CHILLER WATERCOOLED SCROLL 0TONS 0.8KW/TON, 5.61, 19.14
 Component Sizing Information, PlantLoop, CONDENSER WATER LOOP, Maximum Loop Flow Rate [m3/s], 1.28815E-002
 Component Sizing Information, PlantLoop, CONDENSER WATER LOOP, Plant Loop Volume [m3], 1.54578
 Component Sizing Information, Pump:ConstantSpeed, PUMP CONSTANT SPEED 2, Design Flow Rate [m3/s], 1.28815E-002
 Component Sizing Information, Pump:ConstantSpeed, PUMP CONSTANT SPEED 2, Design Power Consumption [W], 3230.04108
 Component Sizing Information, CoolingTower:SingleSpeed, COOLING TOWER SINGLE SPEED 1, Design Water Flow Rate [m3/s], 1.28815E-002
 Component Sizing Information, CoolingTower:SingleSpeed, COOLING TOWER SINGLE SPEED 1, Design Air Flow Rate [m3/s], 13.32382
 Component Sizing Information, CoolingTower:SingleSpeed, COOLING TOWER SINGLE SPEED 1, U-Factor Times Area Value at Design Air Flow Rate [W/C], 11270.99193
 Component Sizing Information, CoolingTower:SingleSpeed, COOLING TOWER SINGLE SPEED 1, Free Convection Regime Air Flow Rate [m3/s], 1.33238
 Component Sizing Information, CoolingTower:SingleSpeed, COOLING TOWER SINGLE SPEED 1, Free Convection U-Factor Times Area Value [W/K], 1127.09919
 Component Sizing Information, PlantLoop, HOT WATER LOOP, Maximum Loop Flow Rate [m3/s], 7.89685E-003
 Component Sizing Information, PlantLoop, HOT WATER LOOP, Plant Loop Volume [m3], 0.94762
 Component Sizing Information, Pump:VariableSpeed, PUMP VARIABLE SPEED 1, Design Flow Rate [m3/s], 7.89685E-003
 Component Sizing Information, Pump:VariableSpeed, PUMP VARIABLE SPEED 1, Design Power Consumption [W], 2028.81614
 Component Sizing Information, Boiler:HotWater, PRIMARY BOILER 1811KBTU/HR 0.83 THERMAL EFF, Design Size Nominal Capacity [W], 530766.06037
 Component Sizing Information, Boiler:HotWater, PRIMARY BOILER 1811KBTU/HR 0.83 THERMAL EFF, User-Specified Nominal Capacity [W], 530766.06037
 Component Sizing Information, Boiler:HotWater, PRIMARY BOILER 1811KBTU/HR 0.83 THERMAL EFF, Design Size Design Water Flow Rate [m3/s], 7.89685E-003
 Component Sizing Information, Boiler:HotWater, SECONDARY BOILER 0KBTU/HR 0.85 AFUE, Design Size Nominal Capacity [W], 530766.06037
 Component Sizing Information, Boiler:HotWater, SECONDARY BOILER 0KBTU/HR 0.85 AFUE, User-Specified Nominal Capacity [W], 1.00000E-003
 Component Sizing Information, Boiler:HotWater, SECONDARY BOILER 0KBTU/HR 0.85 AFUE, Design Size Design Water Flow Rate [m3/s], 7.89685E-003
 Component Sizing Information, PlantLoop, MAIN SERVICE WATER LOOP, Maximum Loop Flow Rate [m3/s], 1.09442E-003
 Component Sizing Information, PlantLoop, MAIN SERVICE WATER LOOP, Plant Loop Volume [m3], 0.13133
 Component Sizing Information, Pump:ConstantSpeed, SERVICE WATER LOOP PUMP, Design Flow Rate [m3/s], 1.09442E-003
 Component Sizing Information, Pump:ConstantSpeed, SERVICE WATER LOOP PUMP, Design Power Consumption [W], 1232.79449
 Component Sizing Information, WaterHeater:Mixed, 833GAL NATURALGAS WATER HEATER - 2809KBTU/HR 0.802 THERM EFF, Use Side Design Flow Rate [m3/s], 1.09442E-003
! <Environment>,Environment Name,Environment Type, Start Date, End Date, Start DayOfWeek, Duration {#days}, Source:Start DayOfWeek,  Use Daylight Saving, Use Holidays, Apply Weekend Holiday Rule,  Use Rain Values, Use Snow Values
! <Environment:Special Days>, Special Day Name, Special Day Type, Source, Start Date, Duration {#days}
! <Environment:Daylight Saving>, Daylight Saving Indicator, Source, Start Date, End Date
! <Environment:WarmupDays>, NumberofWarmupDays
Environment,RUN PERIOD 1,WeatherFileRunPeriod,01/01,12/31,Sunday,365,Use RunPeriod Specified Day,No,No,No,Yes,Yes
Environment:Daylight Saving,No,RunPeriod Object
Environment:WarmupDays, 10
! <Tabular Report>,Style,Unit Conversion
Tabular Report,HTML,None
! <Warmup Convergence Information>,Zone Name,Environment Type/Name,Average Warmup Temperature Difference {deltaC},Std Dev Warmup Temperature Difference {deltaC},Max Temperature Pass/Fail Convergence,Min Temperature Pass/Fail Convergence,Average Warmup Load Difference {W},Std Dev Warmup Load Difference {W},Heating Load Pass/Fail Convergence,Cooling Load Pass/Fail Convergence
 Warmup Convergence Information,ALL_ST=GYM - FITNESS_FL=STORY 4_SCH=B,RunPeriod: RUN PERIOD 1,0.1506971046,0.2521231947,Pass,Pass,1.2889925905,4.4020835621,Pass,Pass
 Warmup Convergence Information,ALL_ST=GYM - PLAY_FL=STORY 4_SCH=B,RunPeriod: RUN PERIOD 1,0.1378374686,0.2533054319,Pass,Pass,1.6111507208,5.8212472632,Pass,Pass
 Warmup Convergence Information,ALL_ST=HOSPITAL - EMERGENCY_FL=STORY 4_SCH=H,RunPeriod: RUN PERIOD 1,5.9485222635E-002,0.2908159642,Pass,Pass,4.2435389104E-002,0.1295685410,Pass,Pass
 Warmup Convergence Information,ALL_ST=HOSPITAL - EXAM_FL=STORY 3_SCH=C,RunPeriod: RUN PERIOD 1,3.1484722419E-002,8.7379046743E-002,Pass,Pass,2.1946922460E-002,0.1276353787,Pass,Pass
 Warmup Convergence Information,ALL_ST=HOSPITAL - LAUNDRY/WASHING_FL=STORY 3_SCH=C,RunPeriod: RUN PERIOD 1,4.8163981310E-002,0.1365081979,Pass,Pass,1.9642611020E-002,8.8171469586E-002,Pass,Pass
 Warmup Convergence Information,ALL_ST=HOSPITAL - LOUNGE/RECREATION_FL=STORY 4_SCH=B,RunPeriod: RUN PERIOD 1,8.7888914342E-002,0.2594154335,Pass,Pass,0.2619463087,0.7174864981,Pass,Pass
 Warmup Convergence Information,ALL_ST=HOSPITAL - MEDICAL SUPPLY - OCCSENS_FL=STORY 1_SCH=H,RunPeriod: RUN PERIOD 1,1.1089267135E-002,6.5237242892E-002,Pass,Pass,6.0945650276E-003,3.0502845914E-002,Pass,Pass
 Warmup Convergence Information,ALL_ST=HOSPITAL - MEDICAL SUPPLY_FL=STORY 3_SCH=H,RunPeriod: RUN PERIOD 1,3.8184851232E-002,0.1629559785,Pass,Pass,2.6401530900E-002,9.7876153218E-002,Pass,Pass
 Warmup Convergence Information,ALL_ST=HOSPITAL - NURSERY_FL=STORY 3_SCH=H,RunPeriod: RUN PERIOD 1,3.6032572098E-002,0.1797488380,Pass,Pass,2.2781571572E-002,8.2304187271E-002,Pass,Pass
 Warmup Convergence Information,ALL_ST=HOSPITAL - NURSES STATION_FL=STORY 1_SCH=H,RunPeriod: RUN PERIOD 1,1.6746066177E-002,0.1023119537,Pass,Pass,1.1752577845E-002,6.3317030528E-002,Pass,Pass
 Warmup Convergence Information,ALL_ST=HOSPITAL - OPERATING ROOM_FL=STORY 4_SCH=H,RunPeriod: RUN PERIOD 1,5.5251108753E-002,0.2549341629,Pass,Pass,3.5749914633E-002,0.1223822989,Pass,Pass
 Warmup Convergence Information,ALL_ST=HOSPITAL - PATIENT ROOM_FL=STORY 1_SCH=H,RunPeriod: RUN PERIOD 1,4.7732013825E-003,2.7776570029E-002,Pass,Pass,3.0294066659E-003,1.3861294915E-002,Pass,Pass
 Warmup Convergence Information,ALL_ST=HOSPITAL - PHARMACY_FL=STORY 1_SCH=C,RunPeriod: RUN PERIOD 1,3.7708915527E-002,0.1422078316,Pass,Pass,4.2254663970E-002,0.2754069896,Pass,Pass
 Warmup Convergence Information,ALL_ST=HOSPITAL - PHYSICAL THERAPY_FL=STORY 1_SCH=C,RunPeriod: RUN PERIOD 1,4.5872661691E-002,0.1600808907,Pass,Pass,4.2616648077E-002,0.2647911201,Pass,Pass
 Warmup Convergence Information,ALL_ST=HOSPITAL - RADIOLOGY/IMAGING_FL=STORY 2_SCH=H,RunPeriod: RUN PERIOD 1,2.2727389312E-002,0.1380003970,Pass,Pass,1.3366433109E-002,5.9256397012E-002,Pass,Pass
 Warmup Convergence Information,ALL_ST=HOSPITAL - RECOVERY_FL=STORY 2_SCH=H,RunPeriod: RUN PERIOD 1,4.8699724885E-002,0.2371806875,Pass,Pass,3.0791608246E-002,0.1231612941,Pass,Pass
 Warmup Convergence Information,WILD_ST=HOSPITAL CORR. < 2.4M-SCH-A_FL=STORY 2_SCH=H,RunPeriod: RUN PERIOD 1,2.7265541083E-002,0.1399641595,Pass,Pass,4.5283116980E-002,0.1998085703,Pass,Pass
 Warmup Convergence Information,WILD_ST=HOSPITAL CORR. < 2.4M-SCH-B_FL=STORY 2_SCH=H,RunPeriod: RUN PERIOD 1,5.3749605087E-002,0.1760020279,Pass,Pass,4.5376923698E-002,0.1871782046,Pass,Pass
 Warmup Convergence Information,WILD_ST=HOSPITAL CORR. < 2.4M-SCH-C_FL=STORY 3_SCH=H,RunPeriod: RUN PERIOD 1,3.8801339031E-002,0.1602679180,Pass,Pass,2.8957134447E-002,0.1191866306,Pass,Pass
 Warmup Convergence Information,WILD_ST=HOSPITAL CORR. < 2.4M-SCH-D_FL=STORY 2_SCH=H,RunPeriod: RUN PERIOD 1,3.0094945712E-002,0.1254995012,Pass,Pass,2.6006125060E-002,0.1075335160,Pass,Pass
! <Program Control Information:Threads/Parallel Sims>, Threading Supported,Maximum Number of Threads, Env Set Threads (OMP_NUM_THREADS), EP Env Set Threads (EP_OMP_NUM_THREADS), IDF Set Threads, Number of Threads Used (Interior Radiant Exchange), Number Nominal Surfaces, Number Parallel Sims
Program Control:Threads/Parallel Sims, No,1, N/A, N/A, N/A, N/A, N/A, N/A
End of Data
