Program Version,EnergyPlus, Version 8.9.0-eba93e8e1b, YMD=2019.03.28 13:56
! <Version>, Version ID
 Version, 8.9
! <Timesteps per Hour>, #TimeSteps, Minutes per TimeStep {minutes}
 Timesteps per Hour,  6, 10
! <System Convergence Limits>, Minimum System TimeStep {minutes}, Max HVAC Iterations, Minimum Plant Iterations, Maximum Plant Iterations
 System Convergence Limits, 1, 20, 2, 8
! <Simulation Control>, Do Zone Sizing, Do System Sizing, Do Plant Sizing, Do Design Days, Do Weather Simulation, Do HVAC Sizing Simulation
 Simulation Control, Yes, Yes, Yes, No, Yes, No
! <Output Reporting Tolerances>, Tolerance for Time Heating Setpoint Not Met, Tolerance for Zone Cooling Setpoint Not Met Time
 Output Reporting Tolerances, 1.000, 1.000, 
! <Site:GroundTemperature:BuildingSurface>,Jan{C},Feb{C},Mar{C},Apr{C},May{C},Jun{C},Jul{C},Aug{C},Sep{C},Oct{C},Nov{C},Dec{C}
 Site:GroundTemperature:BuildingSurface,  19.53,  19.50,  19.54,  19.60,  20.00,  21.64,  22.23,  22.38,  21.45,  20.12,  19.80,  19.63
! <Site:GroundTemperature:FCfactorMethod>,Jan{C},Feb{C},Mar{C},Apr{C},May{C},Jun{C},Jul{C},Aug{C},Sep{C},Oct{C},Nov{C},Dec{C}
 Site:GroundTemperature:FCfactorMethod, -12.27, -13.66, -11.19,  -7.33,   2.77,  10.57,  15.83,  17.43,  14.70,   8.65,   0.56,  -6.95
! <Site:GroundTemperature:Shallow>,Jan{C},Feb{C},Mar{C},Apr{C},May{C},Jun{C},Jul{C},Aug{C},Sep{C},Oct{C},Nov{C},Dec{C}
 Site:GroundTemperature:Shallow,  13.00,  13.00,  13.00,  13.00,  13.00,  13.00,  13.00,  13.00,  13.00,  13.00,  13.00,  13.00
! <Site:GroundTemperature:Deep>,Jan{C},Feb{C},Mar{C},Apr{C},May{C},Jun{C},Jul{C},Aug{C},Sep{C},Oct{C},Nov{C},Dec{C}
 Site:GroundTemperature:Deep,  16.00,  16.00,  16.00,  16.00,  16.00,  16.00,  16.00,  16.00,  16.00,  16.00,  16.00,  16.00
! <Site:GroundReflectance>,Jan{dimensionless},Feb{dimensionless},Mar{dimensionless},Apr{dimensionless},May{dimensionless},Jun{dimensionless},Jul{dimensionless},Aug{dimensionless},Sep{dimensionless},Oct{dimensionless},Nov{dimensionless},Dec{dimensionless}
 Site:GroundReflectance,  0.20,  0.20,  0.20,  0.20,  0.20,  0.20,  0.20,  0.20,  0.20,  0.20,  0.20,  0.20
! <Site:GroundReflectance:SnowModifier>, Normal, Daylighting {dimensionless}
 Site:GroundReflectance:SnowModifier,   1.000,   1.000
! <Site:GroundReflectance:Snow>,Jan{dimensionless},Feb{dimensionless},Mar{dimensionless},Apr{dimensionless},May{dimensionless},Jun{dimensionless},Jul{dimensionless},Aug{dimensionless},Sep{dimensionless},Oct{dimensionless},Nov{dimensionless},Dec{dimensionless}
 Site:GroundReflectance:Snow,  0.20,  0.20,  0.20,  0.20,  0.20,  0.20,  0.20,  0.20,  0.20,  0.20,  0.20,  0.20
! <Site:GroundReflectance:Snow:Daylighting>,Jan{dimensionless},Feb{dimensionless},Mar{dimensionless},Apr{dimensionless},May{dimensionless},Jun{dimensionless},Jul{dimensionless},Aug{dimensionless},Sep{dimensionless},Oct{dimensionless},Nov{dimensionless},Dec{dimensionless}
 Site:GroundReflectance:Snow:Daylighting,  0.20,  0.20,  0.20,  0.20,  0.20,  0.20,  0.20,  0.20,  0.20,  0.20,  0.20,  0.20
! <Environment:Weather Station>,Wind Sensor Height Above Ground {m},Wind Speed Profile Exponent {},Wind Speed Profile Boundary Layer Thickness {m},Air Temperature Sensor Height Above Ground {m},Wind Speed Modifier Coefficient-Internal,Temperature Modifier Coefficient-Internal
Environment:Weather Station,10.000,0.140,270.000,1.500,1.586,9.750E-003
! <Site:Location>, Location Name, Latitude {N+/S- Deg}, Longitude {E+/W- Deg},  Time Zone Number {GMT+/-}, Elevation {m},  Standard Pressure at Elevation {Pa}, Standard RhoAir at Elevation
Site:Location,Fort McMurray AP AB CAN CWEC2016 WMO#=716890,56.65,-111.22,-7.00,369.10,96969,1.1525
! <Building Information>, Building Name,North Axis {deg},Terrain,  Loads Convergence Tolerance Value,Temperature Convergence Tolerance Value,  Solar Distribution,Maximum Number of Warmup Days,Minimum Number of Warmup Days
 Building Information,Building 1,0.000,Suburbs,4.00000E-002,0.40000,FullExterior,25,6
! <Inside Convection Algorithm>, Algorithm {Simple | TARP | CeilingDiffuser | AdaptiveConvectionAlgorithm}
Inside Convection Algorithm,TARP
! <Outside Convection Algorithm>, Algorithm {SimpleCombined | TARP | MoWitt | DOE-2 | AdaptiveConvectionAlgorithm}
Outside Convection Algorithm,TARP
! <Sky Radiance Distribution>, Value {Anisotropic}
Sky Radiance Distribution,Anisotropic
! <Zone Air Solution Algorithm>, Value {ThirdOrderBackwardDifference | AnalyticalSolution | EulerMethod}
 Zone Air Solution Algorithm, ThirdOrderBackwardDifference
! <Zone Air Carbon Dioxide Balance Simulation>, Simulation {Yes/No}, Carbon Dioxide Concentration
 Zone Air Carbon Dioxide Balance Simulation, No,N/A
! <Zone Air Generic Contaminant Balance Simulation>, Simulation {Yes/No}, Generic Contaminant Concentration
 Zone Air Generic Contaminant Balance Simulation, No,N/A
! <Zone Air Mass Flow Balance Simulation>, Enforce Mass Balance, Adjust Zone Mixing, Adjust Zone Infiltration {AddInfiltration | AdjustInfiltration | None}, Infiltration Zones {MixingSourceZonesOnly | AllZones}
 Zone Air Mass Flow Balance Simulation, No,N/A,N/A,N/A
! <HVACSystemRootFindingAlgorithm>, Value {RegulaFalsi | Bisection | BisectionThenRegulaFalsi | RegulaFalsiThenBisection}
 HVACSystemRootFindingAlgorithm, RegulaFalsi
! <Environment:Site Atmospheric Variation>,Wind Speed Profile Exponent {},Wind Speed Profile Boundary Layer Thickness {m},Air Temperature Gradient Coefficient {K/m}
Environment:Site Atmospheric Variation,0.220,370.000,6.500000E-003
! <Surface Geometry>,Starting Corner,Vertex Input Direction,Coordinate System,Daylight Reference Point Coordinate System,Rectangular (Simple) Surface Coordinate System
 Surface Geometry,UpperLeftCorner,Counterclockwise,RelativeCoordinateSystem,RelativeCoordinateSystem,RelativeToZoneOrigin
! <Surface Heat Transfer Algorithm>, Value {CTF - ConductionTransferFunction | EMPD - MoisturePenetrationDepthConductionTransferFunction | CondFD - ConductionFiniteDifference | HAMT - CombinedHeatAndMoistureFiniteElement} - Description,Inside Surface Max Temperature Limit{C}, Surface Convection Coefficient Lower Limit {W/m2-K}, Surface Convection Coefficient Upper Limit {W/m2-K}
Surface Heat Transfer Algorithm, CTF - ConductionTransferFunction,200,0.10,1000.0
! <Shading Summary>, Number of Fixed Detached Shades, Number of Building Detached Shades, Number of Attached Shades
 Shading Summary,0,0,0
! <Zone Summary>, Number of Zones, Number of Zone Surfaces, Number of SubSurfaces
 Zone Summary,20,134,14
! <Zone Information>,Zone Name,North Axis {deg},Origin X-Coordinate {m},Origin Y-Coordinate {m},Origin Z-Coordinate {m},Centroid X-Coordinate {m},Centroid Y-Coordinate {m},Centroid Z-Coordinate {m},Type,Zone Multiplier,Zone List Multiplier,Minimum X {m},Maximum X {m},Minimum Y {m},Maximum Y {m},Minimum Z {m},Maximum Z {m},Ceiling Height {m},Volume {m3},Zone Inside Convection Algorithm {Simple-Detailed-CeilingDiffuser-TrombeWall},Zone Outside Convection Algorithm {Simple-Detailed-Tarp-MoWitt-DOE-2-BLAST}, Floor Area {m2},Exterior Gross Wall Area {m2},Exterior Net Wall Area {m2},Exterior Window Area {m2}, Number of Surfaces, Number of SubSurfaces, Number of Shading SubSurfaces,  Part of Total Building Area
 Zone Information, SP-CONVENTION CENTRE EXHIBIT SPACE-SPACE FUNCTION SYS-3 FLR-2 SCH-C HPLCMT-NORTH ZN,0.0,25.00,75.00,3.80,50.00,89.15,5.70,1,1,1,0.00,100.00,75.00,100.00,3.80,7.60,3.80,7125.00,TARP,TARP,1875.00,380.00,285.00,95.00,6,1,0,Yes
 Zone Information, SP-DORMITORY LIVING QUARTERS-SPACE FUNCTION SYS-3 FLR-2 SCH-G HPLCMT-EAST ZN,0.0,75.00,25.00,3.80,89.15,50.00,5.70,1,1,1,75.00,100.00,0.00,100.00,3.80,7.60,3.80,7125.00,TARP,TARP,1875.00,380.00,285.00,95.00,6,1,0,Yes
 Zone Information, SP-DWELLING UNITS GENERAL-SPACE FUNCTION SYS-1 FLR-2 SCH-G HPLCMT-WEST ZN,0.0,0.00,0.00,3.80,10.85,50.00,5.70,1,1,1,0.00,25.00,0.00,100.00,3.80,7.60,3.80,7125.00,TARP,TARP,1875.00,380.00,285.00,95.00,6,1,0,Yes
 Zone Information, SP-DWELLING UNITS LONG-TERM-SPACE FUNCTION SYS-1 FLR-2 SCH-J HPLCMT-SOUTH ZN,0.0,0.00,0.00,3.80,50.00,10.85,5.70,1,1,1,0.00,100.00,0.00,25.00,3.80,7.60,3.80,7125.00,TARP,TARP,1875.00,380.00,285.00,95.00,6,1,0,Yes
 Zone Information, SP-STORAGE ROOM <= 5 M2 <= 100 M2-SCH-I-SPACE FUNCTION SYS-4 FLR-4 SCH-I HPLCMT-SOUTH ZN,0.0,0.00,0.00,11.40,50.00,10.85,13.30,1,1,1,0.00,100.00,0.00,25.00,11.40,15.20,3.80,7125.00,TARP,TARP,1875.00,380.00,285.00,188.75,6,2,0,Yes
 Zone Information, SP-STORAGE ROOM <= 5 M2 <= 100 M2-SCH-J-SPACE FUNCTION SYS-4 FLR-4 SCH-J HPLCMT-EAST ZN,0.0,75.00,25.00,11.40,89.15,50.00,13.30,1,1,1,75.00,100.00,0.00,100.00,11.40,15.20,3.80,7125.00,TARP,TARP,1875.00,380.00,285.00,188.75,6,2,0,Yes
 Zone Information, SP-STORAGE ROOM <= 5 M2 <= 100 M2-SCH-K-SPACE FUNCTION SYS-4 FLR-4 SCH-K HPLCMT-NORTH ZN,0.0,25.00,75.00,11.40,50.00,89.15,13.30,1,1,1,0.00,100.00,75.00,100.00,11.40,15.20,3.80,7125.00,TARP,TARP,1875.00,380.00,380.00,0.00,6,0,0,Yes
 Zone Information, SP-STORAGE ROOM > 100 M2-SCH-A-SPACE FUNCTION SYS-4 FLR-3 SCH-A HPLCMT-CORE ZN,0.0,25.00,25.00,7.60,50.00,50.00,9.50,1,1,1,25.00,75.00,25.00,75.00,7.60,11.40,3.80,9500.00,TARP,TARP,2500.00,0.00,0.00,0.00,6,0,0,Yes
 Zone Information, SP-STORAGE ROOM > 100 M2-SCH-B-SPACE FUNCTION SYS-4 FLR-3 SCH-B HPLCMT-EAST ZN,0.0,75.00,25.00,7.60,89.15,50.00,9.50,1,1,1,75.00,100.00,0.00,100.00,7.60,11.40,3.80,7125.00,TARP,TARP,1875.00,380.00,285.00,95.00,6,1,0,Yes
 Zone Information, SP-STORAGE ROOM > 100 M2-SCH-C-SPACE FUNCTION SYS-4 FLR-3 SCH-C HPLCMT-NORTH ZN,0.0,25.00,75.00,7.60,50.00,89.15,9.50,1,1,1,0.00,100.00,75.00,100.00,7.60,11.40,3.80,7125.00,TARP,TARP,1875.00,380.00,285.00,95.00,6,1,0,Yes
 Zone Information, SP-STORAGE ROOM > 100 M2-SCH-D-SPACE FUNCTION SYS-4 FLR-1 SCH-D HPLCMT-WEST ZN,0.0,0.00,0.00,0.00,10.85,50.00,1.90,1,1,1,0.00,25.00,0.00,100.00,0.00,3.80,3.80,7125.00,TARP,TARP,1875.00,0.00,0.00,0.00,6,0,0,Yes
 Zone Information, SP-STORAGE ROOM > 100 M2-SCH-E-SPACE FUNCTION SYS-4 FLR-1 SCH-E HPLCMT-EAST ZN,0.0,75.00,25.00,0.00,89.15,50.00,1.90,1,1,1,75.00,100.00,0.00,100.00,0.00,3.80,3.80,7125.00,TARP,TARP,1875.00,0.00,0.00,0.00,6,0,0,Yes
 Zone Information, SP-STORAGE ROOM > 100 M2-SCH-F-SPACE FUNCTION SYS-4 FLR-4 SCH-F HPLCMT-WEST ZN,0.0,0.00,0.00,11.40,10.85,50.00,13.30,1,1,1,0.00,25.00,0.00,100.00,11.40,15.20,3.80,7125.00,TARP,TARP,1875.00,380.00,285.00,188.75,6,2,0,Yes
 Zone Information, SP-STORAGE ROOM > 100 M2-SCH-G-SPACE FUNCTION SYS-4 FLR-1 SCH-G HPLCMT-SOUTH ZN,0.0,0.00,0.00,0.00,50.00,10.85,1.90,1,1,1,0.00,100.00,0.00,25.00,0.00,3.80,3.80,7125.00,TARP,TARP,1875.00,0.00,0.00,0.00,6,0,0,Yes
 Zone Information, SP-STORAGE ROOM > 100 M2-SCH-H-SPACE FUNCTION SYS-4 FLR-3 SCH-H HPLCMT-SOUTH ZN,0.0,0.00,0.00,7.60,50.00,10.85,9.50,1,1,1,0.00,100.00,0.00,25.00,7.60,11.40,3.80,7125.00,TARP,TARP,1875.00,380.00,285.00,95.00,6,1,0,Yes
 Zone Information, SP-STORAGE ROOM > 100 M2-SCH-I-SPACE FUNCTION SYS-4 FLR-1 SCH-I HPLCMT-NORTH ZN,0.0,25.00,75.00,0.00,50.00,89.15,1.90,1,1,1,0.00,100.00,75.00,100.00,0.00,3.80,3.80,7125.00,TARP,TARP,1875.00,0.00,0.00,0.00,6,0,0,Yes
 Zone Information, SP-STORAGE ROOM > 100 M2-SCH-J-SPACE FUNCTION SYS-4 FLR-1 SCH-J HPLCMT-CORE ZN,0.0,25.00,25.00,0.00,50.00,50.00,1.90,1,1,1,25.00,75.00,25.00,75.00,0.00,3.80,3.80,9500.00,TARP,TARP,2500.00,0.00,0.00,0.00,6,0,0,Yes
 Zone Information, SP-STORAGE ROOM > 100 M2-SCH-K-SPACE FUNCTION SYS-4 FLR-4 SCH-K HPLCMT-CORE ZN,0.0,25.00,25.00,11.40,50.00,50.00,13.30,1,1,1,25.00,75.00,25.00,75.00,11.40,15.20,3.80,9500.00,TARP,TARP,2500.00,0.00,0.00,0.00,6,0,0,Yes
 Zone Information, SP-VEHICLE MAINTENANCE AREA-SPACE FUNCTION SYS-4 FLR-3 SCH-E HPLCMT-WEST ZN,0.0,0.00,0.00,7.60,10.85,50.00,9.50,1,1,1,0.00,25.00,0.00,100.00,7.60,11.40,3.80,7125.00,TARP,TARP,1875.00,380.00,285.00,95.00,6,1,0,Yes
 Zone Information, SP-WORKSHOP-SPACE FUNCTION SYS-3 FLR-2 SCH-A HPLCMT-CORE ZN,0.0,25.00,25.00,3.80,50.00,50.00,5.70,1,1,1,25.00,75.00,25.00,75.00,3.80,7.60,3.80,9500.00,TARP,TARP,2500.00,0.00,0.00,0.00,6,0,0,Yes
! <Zone Internal Gains Nominal>,Zone Name, Floor Area {m2},# Occupants,Area per Occupant {m2/person},Occupant per Area {person/m2},Interior Lighting {W/m2},Electric Load {W/m2},Gas Load {W/m2},Other Load {W/m2},Hot Water Eq {W/m2},Steam Equipment {W/m2},Sum Loads per Area {W/m2},Outdoor Controlled Baseboard Heat
 Zone Internal Gains Nominal, SP-CONVENTION CENTRE EXHIBIT SPACE-SPACE FUNCTION SYS-3 FLR-2 SCH-C HPLCMT-NORTH ZN,1875.00,187.6,9.996,0.100,15.706,2.501,0.000,0.000,0.000,0.000,18.207,No
 Zone Internal Gains Nominal, SP-DORMITORY LIVING QUARTERS-SPACE FUNCTION SYS-3 FLR-2 SCH-G HPLCMT-EAST ZN,1875.00,75.0,24.991,4.001E-002,4.202,2.501,0.000,0.000,0.000,0.000,6.702,No
 Zone Internal Gains Nominal, SP-DWELLING UNITS GENERAL-SPACE FUNCTION SYS-1 FLR-2 SCH-G HPLCMT-WEST ZN,1875.00,75.0,24.991,4.001E-002,5.002,5.002,0.000,0.000,0.000,0.000,10.004,No
 Zone Internal Gains Nominal, SP-DWELLING UNITS LONG-TERM-SPACE FUNCTION SYS-1 FLR-2 SCH-J HPLCMT-SOUTH ZN,1875.00,75.0,24.991,4.001E-002,5.002,2.501,0.000,0.000,0.000,0.000,7.503,No
 Zone Internal Gains Nominal, SP-STORAGE ROOM <= 5 M2 <= 100 M2-SCH-I-SPACE FUNCTION SYS-4 FLR-4 SCH-I HPLCMT-SOUTH ZN,1875.00,18.8,99.964,1.000E-002,6.802,0.000,0.000,0.000,0.000,0.000,6.802,No
 Zone Internal Gains Nominal, SP-STORAGE ROOM <= 5 M2 <= 100 M2-SCH-J-SPACE FUNCTION SYS-4 FLR-4 SCH-J HPLCMT-EAST ZN,1875.00,18.8,99.964,1.000E-002,6.802,0.000,0.000,0.000,0.000,0.000,6.802,No
 Zone Internal Gains Nominal, SP-STORAGE ROOM <= 5 M2 <= 100 M2-SCH-K-SPACE FUNCTION SYS-4 FLR-4 SCH-K HPLCMT-NORTH ZN,1875.00,18.8,99.964,1.000E-002,6.802,0.000,0.000,0.000,0.000,0.000,6.802,No
 Zone Internal Gains Nominal, SP-STORAGE ROOM > 100 M2-SCH-A-SPACE FUNCTION SYS-4 FLR-3 SCH-A HPLCMT-CORE ZN,2500.00,25.0,99.964,1.000E-002,6.802,0.000,0.000,0.000,0.000,0.000,6.802,No
 Zone Internal Gains Nominal, SP-STORAGE ROOM > 100 M2-SCH-B-SPACE FUNCTION SYS-4 FLR-3 SCH-B HPLCMT-EAST ZN,1875.00,18.8,99.964,1.000E-002,6.802,0.000,0.000,0.000,0.000,0.000,6.802,No
 Zone Internal Gains Nominal, SP-STORAGE ROOM > 100 M2-SCH-C-SPACE FUNCTION SYS-4 FLR-3 SCH-C HPLCMT-NORTH ZN,1875.00,18.8,99.964,1.000E-002,6.802,0.000,0.000,0.000,0.000,0.000,6.802,No
 Zone Internal Gains Nominal, SP-STORAGE ROOM > 100 M2-SCH-D-SPACE FUNCTION SYS-4 FLR-1 SCH-D HPLCMT-WEST ZN,1875.00,18.8,99.964,1.000E-002,6.802,0.000,0.000,0.000,0.000,0.000,6.802,No
 Zone Internal Gains Nominal, SP-STORAGE ROOM > 100 M2-SCH-E-SPACE FUNCTION SYS-4 FLR-1 SCH-E HPLCMT-EAST ZN,1875.00,18.8,99.964,1.000E-002,6.802,0.000,0.000,0.000,0.000,0.000,6.802,No
 Zone Internal Gains Nominal, SP-STORAGE ROOM > 100 M2-SCH-F-SPACE FUNCTION SYS-4 FLR-4 SCH-F HPLCMT-WEST ZN,1875.00,18.8,99.964,1.000E-002,6.802,0.000,0.000,0.000,0.000,0.000,6.802,No
 Zone Internal Gains Nominal, SP-STORAGE ROOM > 100 M2-SCH-G-SPACE FUNCTION SYS-4 FLR-1 SCH-G HPLCMT-SOUTH ZN,1875.00,18.8,99.964,1.000E-002,6.802,0.000,0.000,0.000,0.000,0.000,6.802,No
 Zone Internal Gains Nominal, SP-STORAGE ROOM > 100 M2-SCH-H-SPACE FUNCTION SYS-4 FLR-3 SCH-H HPLCMT-SOUTH ZN,1875.00,18.8,99.964,1.000E-002,6.802,0.000,0.000,0.000,0.000,0.000,6.802,No
 Zone Internal Gains Nominal, SP-STORAGE ROOM > 100 M2-SCH-I-SPACE FUNCTION SYS-4 FLR-1 SCH-I HPLCMT-NORTH ZN,1875.00,18.8,99.964,1.000E-002,6.802,0.000,0.000,0.000,0.000,0.000,6.802,No
 Zone Internal Gains Nominal, SP-STORAGE ROOM > 100 M2-SCH-J-SPACE FUNCTION SYS-4 FLR-1 SCH-J HPLCMT-CORE ZN,2500.00,25.0,99.964,1.000E-002,6.802,0.000,0.000,0.000,0.000,0.000,6.802,No
 Zone Internal Gains Nominal, SP-STORAGE ROOM > 100 M2-SCH-K-SPACE FUNCTION SYS-4 FLR-4 SCH-K HPLCMT-CORE ZN,2500.00,25.0,99.964,1.000E-002,6.802,0.000,0.000,0.000,0.000,0.000,6.802,No
 Zone Internal Gains Nominal, SP-VEHICLE MAINTENANCE AREA-SPACE FUNCTION SYS-4 FLR-3 SCH-E HPLCMT-WEST ZN,1875.00,93.8,19.993,5.002E-002,6.802,5.002,0.000,0.000,0.000,0.000,11.804,No
 Zone Internal Gains Nominal, SP-WORKSHOP-SPACE FUNCTION SYS-3 FLR-2 SCH-A HPLCMT-CORE ZN,2500.00,83.4,29.989,3.335E-002,17.206,10.004,0.000,0.000,0.000,0.000,27.210,No
! <People Internal Gains Nominal>,Name,Schedule Name,Zone Name,Zone Floor Area {m2},# Zone Occupants,Number of People {},People/Floor Area {person/m2},Floor Area per person {m2/person},Fraction Radiant,Fraction Convected,Sensible Fraction Calculation,Activity level,ASHRAE 55 Warnings,Carbon Dioxide Generation Rate,Nominal Minimum Number of People,Nominal Maximum Number of People
 People Internal Gains Nominal, SP-CONVENTION CENTRE EXHIBIT SPACE-SPACE FUNCTION SYS-3 FLR-2 SCH-C HPLCMT-NORTH ZN SPACE FUNCTION CONVENTION CENTRE EXHIBIT SPACE PEOPLE,NECB-C-OCCUPANCY,SP-CONVENTION CENTRE EXHIBIT SPACE-SPACE FUNCTION SYS-3 FLR-2 SCH-C HPLCMT-NORTH ZN,1875.00,187.6,187.6,0.100,9.996,0.300,0.700,AutoCalculate,NECB-ACTIVITY,No,3.8200E-008,0,169
 People Internal Gains Nominal, SP-DORMITORY LIVING QUARTERS-SPACE FUNCTION SYS-3 FLR-2 SCH-G HPLCMT-EAST ZN SPACE FUNCTION DORMITORY LIVING QUARTERS PEOPLE,NECB-G-OCCUPANCY,SP-DORMITORY LIVING QUARTERS-SPACE FUNCTION SYS-3 FLR-2 SCH-G HPLCMT-EAST ZN,1875.00,75.0,75.0,4.001E-002,24.991,0.300,0.700,AutoCalculate,NECB-ACTIVITY,No,3.8200E-008,23,68
 People Internal Gains Nominal, SP-DWELLING UNITS GENERAL-SPACE FUNCTION SYS-1 FLR-2 SCH-G HPLCMT-WEST ZN SPACE FUNCTION DWELLING UNITS GENERAL PEOPLE,NECB-G-OCCUPANCY,SP-DWELLING UNITS GENERAL-SPACE FUNCTION SYS-1 FLR-2 SCH-G HPLCMT-WEST ZN,1875.00,75.0,75.0,4.001E-002,24.991,0.300,0.700,AutoCalculate,NECB-ACTIVITY,No,3.8200E-008,23,68
 People Internal Gains Nominal, SP-DWELLING UNITS LONG-TERM-SPACE FUNCTION SYS-1 FLR-2 SCH-J HPLCMT-SOUTH ZN SPACE FUNCTION DWELLING UNITS LONG-TERM PEOPLE,NECB-J-OCCUPANCY,SP-DWELLING UNITS LONG-TERM-SPACE FUNCTION SYS-1 FLR-2 SCH-J HPLCMT-SOUTH ZN,1875.00,75.0,75.0,4.001E-002,24.991,0.300,0.700,AutoCalculate,NECB-ACTIVITY,No,3.8200E-008,45,68
 People Internal Gains Nominal, SP-STORAGE ROOM <= 5 M2 <= 100 M2-SCH-I-SPACE FUNCTION SYS-4 FLR-4 SCH-I HPLCMT-SOUTH ZN SPACE FUNCTION STORAGE ROOM <= 5 M2 <= 100 M2-SCH-I PEOPLE,NECB-I-OCCUPANCY,SP-STORAGE ROOM <= 5 M2 <= 100 M2-SCH-I-SPACE FUNCTION SYS-4 FLR-4 SCH-I HPLCMT-SOUTH ZN,1875.00,18.8,18.8,1.000E-002,99.964,0.300,0.700,AutoCalculate,NECB-ACTIVITY,No,3.8200E-008,0,15
 People Internal Gains Nominal, SP-STORAGE ROOM <= 5 M2 <= 100 M2-SCH-J-SPACE FUNCTION SYS-4 FLR-4 SCH-J HPLCMT-EAST ZN SPACE FUNCTION STORAGE ROOM <= 5 M2 <= 100 M2-SCH-J PEOPLE,NECB-J-OCCUPANCY,SP-STORAGE ROOM <= 5 M2 <= 100 M2-SCH-J-SPACE FUNCTION SYS-4 FLR-4 SCH-J HPLCMT-EAST ZN,1875.00,18.8,18.8,1.000E-002,99.964,0.300,0.700,AutoCalculate,NECB-ACTIVITY,No,3.8200E-008,11,17
 People Internal Gains Nominal, SP-STORAGE ROOM <= 5 M2 <= 100 M2-SCH-K-SPACE FUNCTION SYS-4 FLR-4 SCH-K HPLCMT-NORTH ZN SPACE FUNCTION STORAGE ROOM <= 5 M2 <= 100 M2-SCH-K PEOPLE,NECB-K-OCCUPANCY,SP-STORAGE ROOM <= 5 M2 <= 100 M2-SCH-K-SPACE FUNCTION SYS-4 FLR-4 SCH-K HPLCMT-NORTH ZN,1875.00,18.8,18.8,1.000E-002,99.964,0.300,0.700,AutoCalculate,NECB-ACTIVITY,No,3.8200E-008,0,17
 People Internal Gains Nominal, SP-STORAGE ROOM > 100 M2-SCH-A-SPACE FUNCTION SYS-4 FLR-3 SCH-A HPLCMT-CORE ZN SPACE FUNCTION STORAGE ROOM > 100 M2-SCH-A PEOPLE,NECB-A-OCCUPANCY,SP-STORAGE ROOM > 100 M2-SCH-A-SPACE FUNCTION SYS-4 FLR-3 SCH-A HPLCMT-CORE ZN,2500.00,25.0,25.0,1.000E-002,99.964,0.300,0.700,AutoCalculate,NECB-ACTIVITY,No,3.8200E-008,0,23
 People Internal Gains Nominal, SP-STORAGE ROOM > 100 M2-SCH-B-SPACE FUNCTION SYS-4 FLR-3 SCH-B HPLCMT-EAST ZN SPACE FUNCTION STORAGE ROOM > 100 M2-SCH-B PEOPLE,NECB-B-OCCUPANCY,SP-STORAGE ROOM > 100 M2-SCH-B-SPACE FUNCTION SYS-4 FLR-3 SCH-B HPLCMT-EAST ZN,1875.00,18.8,18.8,1.000E-002,99.964,0.300,0.700,AutoCalculate,NECB-ACTIVITY,No,3.8200E-008,0,17
 People Internal Gains Nominal, SP-STORAGE ROOM > 100 M2-SCH-C-SPACE FUNCTION SYS-4 FLR-3 SCH-C HPLCMT-NORTH ZN SPACE FUNCTION STORAGE ROOM > 100 M2-SCH-C PEOPLE,NECB-C-OCCUPANCY,SP-STORAGE ROOM > 100 M2-SCH-C-SPACE FUNCTION SYS-4 FLR-3 SCH-C HPLCMT-NORTH ZN,1875.00,18.8,18.8,1.000E-002,99.964,0.300,0.700,AutoCalculate,NECB-ACTIVITY,No,3.8200E-008,0,17
 People Internal Gains Nominal, SP-STORAGE ROOM > 100 M2-SCH-D-SPACE FUNCTION SYS-4 FLR-1 SCH-D HPLCMT-WEST ZN SPACE FUNCTION STORAGE ROOM > 100 M2-SCH-D PEOPLE,NECB-D-OCCUPANCY,SP-STORAGE ROOM > 100 M2-SCH-D-SPACE FUNCTION SYS-4 FLR-1 SCH-D HPLCMT-WEST ZN,1875.00,18.8,18.8,1.000E-002,99.964,0.300,0.700,AutoCalculate,NECB-ACTIVITY,No,3.8200E-008,0,17
 People Internal Gains Nominal, SP-STORAGE ROOM > 100 M2-SCH-E-SPACE FUNCTION SYS-4 FLR-1 SCH-E HPLCMT-EAST ZN SPACE FUNCTION STORAGE ROOM > 100 M2-SCH-E PEOPLE,NECB-E-OCCUPANCY,SP-STORAGE ROOM > 100 M2-SCH-E-SPACE FUNCTION SYS-4 FLR-1 SCH-E HPLCMT-EAST ZN,1875.00,18.8,18.8,1.000E-002,99.964,0.300,0.700,AutoCalculate,NECB-ACTIVITY,No,3.8200E-008,0,17
 People Internal Gains Nominal, SP-STORAGE ROOM > 100 M2-SCH-F-SPACE FUNCTION SYS-4 FLR-4 SCH-F HPLCMT-WEST ZN SPACE FUNCTION STORAGE ROOM > 100 M2-SCH-F PEOPLE,NECB-F-OCCUPANCY,SP-STORAGE ROOM > 100 M2-SCH-F-SPACE FUNCTION SYS-4 FLR-4 SCH-F HPLCMT-WEST ZN,1875.00,18.8,18.8,1.000E-002,99.964,0.300,0.700,AutoCalculate,NECB-ACTIVITY,No,3.8200E-008,3,12
 People Internal Gains Nominal, SP-STORAGE ROOM > 100 M2-SCH-G-SPACE FUNCTION SYS-4 FLR-1 SCH-G HPLCMT-SOUTH ZN SPACE FUNCTION STORAGE ROOM > 100 M2-SCH-G PEOPLE,NECB-G-OCCUPANCY,SP-STORAGE ROOM > 100 M2-SCH-G-SPACE FUNCTION SYS-4 FLR-1 SCH-G HPLCMT-SOUTH ZN,1875.00,18.8,18.8,1.000E-002,99.964,0.300,0.700,AutoCalculate,NECB-ACTIVITY,No,3.8200E-008,6,17
 People Internal Gains Nominal, SP-STORAGE ROOM > 100 M2-SCH-H-SPACE FUNCTION SYS-4 FLR-3 SCH-H HPLCMT-SOUTH ZN SPACE FUNCTION STORAGE ROOM > 100 M2-SCH-H PEOPLE,NECB-H-OCCUPANCY,SP-STORAGE ROOM > 100 M2-SCH-H-SPACE FUNCTION SYS-4 FLR-3 SCH-H HPLCMT-SOUTH ZN,1875.00,18.8,18.8,1.000E-002,99.964,0.300,0.700,AutoCalculate,NECB-ACTIVITY,No,3.8200E-008,17,17
 People Internal Gains Nominal, SP-STORAGE ROOM > 100 M2-SCH-I-SPACE FUNCTION SYS-4 FLR-1 SCH-I HPLCMT-NORTH ZN SPACE FUNCTION STORAGE ROOM > 100 M2-SCH-I PEOPLE,NECB-I-OCCUPANCY,SP-STORAGE ROOM > 100 M2-SCH-I-SPACE FUNCTION SYS-4 FLR-1 SCH-I HPLCMT-NORTH ZN,1875.00,18.8,18.8,1.000E-002,99.964,0.300,0.700,AutoCalculate,NECB-ACTIVITY,No,3.8200E-008,0,15
 People Internal Gains Nominal, SP-STORAGE ROOM > 100 M2-SCH-J-SPACE FUNCTION SYS-4 FLR-1 SCH-J HPLCMT-CORE ZN SPACE FUNCTION STORAGE ROOM > 100 M2-SCH-J PEOPLE,NECB-J-OCCUPANCY,SP-STORAGE ROOM > 100 M2-SCH-J-SPACE FUNCTION SYS-4 FLR-1 SCH-J HPLCMT-CORE ZN,2500.00,25.0,25.0,1.000E-002,99.964,0.300,0.700,AutoCalculate,NECB-ACTIVITY,No,3.8200E-008,15,23
 People Internal Gains Nominal, SP-STORAGE ROOM > 100 M2-SCH-K-SPACE FUNCTION SYS-4 FLR-4 SCH-K HPLCMT-CORE ZN SPACE FUNCTION STORAGE ROOM > 100 M2-SCH-K PEOPLE,NECB-K-OCCUPANCY,SP-STORAGE ROOM > 100 M2-SCH-K-SPACE FUNCTION SYS-4 FLR-4 SCH-K HPLCMT-CORE ZN,2500.00,25.0,25.0,1.000E-002,99.964,0.300,0.700,AutoCalculate,NECB-ACTIVITY,No,3.8200E-008,0,23
 People Internal Gains Nominal, SP-VEHICLE MAINTENANCE AREA-SPACE FUNCTION SYS-4 FLR-3 SCH-E HPLCMT-WEST ZN SPACE FUNCTION VEHICLE MAINTENANCE AREA PEOPLE,NECB-E-OCCUPANCY,SP-VEHICLE MAINTENANCE AREA-SPACE FUNCTION SYS-4 FLR-3 SCH-E HPLCMT-WEST ZN,1875.00,93.8,93.8,5.002E-002,19.993,0.300,0.700,AutoCalculate,NECB-ACTIVITY,No,3.8200E-008,0,84
 People Internal Gains Nominal, SP-WORKSHOP-SPACE FUNCTION SYS-3 FLR-2 SCH-A HPLCMT-CORE ZN SPACE FUNCTION WORKSHOP PEOPLE,NECB-A-OCCUPANCY,SP-WORKSHOP-SPACE FUNCTION SYS-3 FLR-2 SCH-A HPLCMT-CORE ZN,2500.00,83.4,83.4,3.335E-002,29.989,0.300,0.700,AutoCalculate,NECB-ACTIVITY,No,3.8200E-008,0,75
! <Lights Internal Gains Nominal>,Name,Schedule Name,Zone Name,Zone Floor Area {m2},# Zone Occupants,Lighting Level {W},Lights/Floor Area {W/m2},Lights per person {W/person},Fraction Return Air,Fraction Radiant,Fraction Short Wave,Fraction Convected,Fraction Replaceable,End-Use Category,Nominal Minimum Lighting Level {W},Nominal Maximum Lighting Level {W}
 Lights Internal Gains Nominal, SP-CONVENTION CENTRE EXHIBIT SPACE-SPACE FUNCTION SYS-3 FLR-2 SCH-C HPLCMT-NORTH ZN SPACE FUNCTION CONVENTION CENTRE EXHIBIT SPACE LIGHTS,NECB-C-OCCUPANCY-NECB-C-LIGHTING-0.0-0.0-0.67-LIGHT RULESET,SP-CONVENTION CENTRE EXHIBIT SPACE-SPACE FUNCTION SYS-3 FLR-2 SCH-C HPLCMT-NORTH ZN,1875.00,187.6,29448.198,15.706,157.000,0.000,0.500,0.200,0.300,1.000,General,1472.410,26503.378
 Lights Internal Gains Nominal, SP-DORMITORY LIVING QUARTERS-SPACE FUNCTION SYS-3 FLR-2 SCH-G HPLCMT-EAST ZN SPACE FUNCTION DORMITORY LIVING QUARTERS LIGHTS,NECB-G-LIGHTING,SP-DORMITORY LIVING QUARTERS-SPACE FUNCTION SYS-3 FLR-2 SCH-G HPLCMT-EAST ZN,1875.00,75.0,7877.862,4.202,105.000,0.000,0.500,0.200,0.300,1.000,General,0.000,7090.076
 Lights Internal Gains Nominal, SP-DWELLING UNITS GENERAL-SPACE FUNCTION SYS-1 FLR-2 SCH-G HPLCMT-WEST ZN SPACE FUNCTION DWELLING UNITS GENERAL LIGHTS,NECB-G-LIGHTING,SP-DWELLING UNITS GENERAL-SPACE FUNCTION SYS-1 FLR-2 SCH-G HPLCMT-WEST ZN,1875.00,75.0,9378.407,5.002,125.000,0.000,0.500,0.200,0.300,1.000,General,0.000,8440.566
 Lights Internal Gains Nominal, SP-DWELLING UNITS LONG-TERM-SPACE FUNCTION SYS-1 FLR-2 SCH-J HPLCMT-SOUTH ZN SPACE FUNCTION DWELLING UNITS LONG-TERM LIGHTS,NECB-J-LIGHTING,SP-DWELLING UNITS LONG-TERM-SPACE FUNCTION SYS-1 FLR-2 SCH-J HPLCMT-SOUTH ZN,1875.00,75.0,9378.407,5.002,125.000,0.000,0.500,0.200,0.300,1.000,General,937.841,6564.885
 Lights Internal Gains Nominal, SP-STORAGE ROOM <= 5 M2 <= 100 M2-SCH-I-SPACE FUNCTION SYS-4 FLR-4 SCH-I HPLCMT-SOUTH ZN SPACE FUNCTION STORAGE ROOM <= 5 M2 <= 100 M2-SCH-I LIGHTS,NECB-I-LIGHTING,SP-STORAGE ROOM <= 5 M2 <= 100 M2-SCH-I-SPACE FUNCTION SYS-4 FLR-4 SCH-I HPLCMT-SOUTH ZN,1875.00,18.8,12754.634,6.802,680.000,0.000,0.500,0.200,0.300,1.000,General,637.732,11479.170
 Lights Internal Gains Nominal, SP-STORAGE ROOM <= 5 M2 <= 100 M2-SCH-J-SPACE FUNCTION SYS-4 FLR-4 SCH-J HPLCMT-EAST ZN SPACE FUNCTION STORAGE ROOM <= 5 M2 <= 100 M2-SCH-J LIGHTS,NECB-J-LIGHTING,SP-STORAGE ROOM <= 5 M2 <= 100 M2-SCH-J-SPACE FUNCTION SYS-4 FLR-4 SCH-J HPLCMT-EAST ZN,1875.00,18.8,12754.634,6.802,680.000,0.000,0.500,0.200,0.300,1.000,General,1275.463,8928.244
 Lights Internal Gains Nominal, SP-STORAGE ROOM <= 5 M2 <= 100 M2-SCH-K-SPACE FUNCTION SYS-4 FLR-4 SCH-K HPLCMT-NORTH ZN SPACE FUNCTION STORAGE ROOM <= 5 M2 <= 100 M2-SCH-K LIGHTS,NECB-K-LIGHTING,SP-STORAGE ROOM <= 5 M2 <= 100 M2-SCH-K-SPACE FUNCTION SYS-4 FLR-4 SCH-K HPLCMT-NORTH ZN,1875.00,18.8,12754.634,6.802,680.000,0.000,0.500,0.200,0.300,1.000,General,11479.170,11479.170
 Lights Internal Gains Nominal, SP-STORAGE ROOM > 100 M2-SCH-A-SPACE FUNCTION SYS-4 FLR-3 SCH-A HPLCMT-CORE ZN SPACE FUNCTION STORAGE ROOM > 100 M2-SCH-A LIGHTS,NECB-A-LIGHTING,SP-STORAGE ROOM > 100 M2-SCH-A-SPACE FUNCTION SYS-4 FLR-3 SCH-A HPLCMT-CORE ZN,2500.00,25.0,17006.178,6.802,680.000,0.000,0.500,0.200,0.300,1.000,General,850.309,15305.560
 Lights Internal Gains Nominal, SP-STORAGE ROOM > 100 M2-SCH-B-SPACE FUNCTION SYS-4 FLR-3 SCH-B HPLCMT-EAST ZN SPACE FUNCTION STORAGE ROOM > 100 M2-SCH-B LIGHTS,NECB-B-LIGHTING,SP-STORAGE ROOM > 100 M2-SCH-B-SPACE FUNCTION SYS-4 FLR-3 SCH-B HPLCMT-EAST ZN,1875.00,18.8,12754.634,6.802,680.000,0.000,0.500,0.200,0.300,1.000,General,1275.463,11479.170
 Lights Internal Gains Nominal, SP-STORAGE ROOM > 100 M2-SCH-C-SPACE FUNCTION SYS-4 FLR-3 SCH-C HPLCMT-NORTH ZN SPACE FUNCTION STORAGE ROOM > 100 M2-SCH-C LIGHTS,NECB-C-LIGHTING,SP-STORAGE ROOM > 100 M2-SCH-C-SPACE FUNCTION SYS-4 FLR-3 SCH-C HPLCMT-NORTH ZN,1875.00,18.8,12754.634,6.802,680.000,0.000,0.500,0.200,0.300,1.000,General,637.732,11479.170
 Lights Internal Gains Nominal, SP-STORAGE ROOM > 100 M2-SCH-D-SPACE FUNCTION SYS-4 FLR-1 SCH-D HPLCMT-WEST ZN SPACE FUNCTION STORAGE ROOM > 100 M2-SCH-D LIGHTS,NECB-D-LIGHTING,SP-STORAGE ROOM > 100 M2-SCH-D-SPACE FUNCTION SYS-4 FLR-1 SCH-D HPLCMT-WEST ZN,1875.00,18.8,12754.634,6.802,680.000,0.000,0.500,0.200,0.300,1.000,General,637.732,11479.170
 Lights Internal Gains Nominal, SP-STORAGE ROOM > 100 M2-SCH-E-SPACE FUNCTION SYS-4 FLR-1 SCH-E HPLCMT-EAST ZN SPACE FUNCTION STORAGE ROOM > 100 M2-SCH-E LIGHTS,NECB-E-LIGHTING,SP-STORAGE ROOM > 100 M2-SCH-E-SPACE FUNCTION SYS-4 FLR-1 SCH-E HPLCMT-EAST ZN,1875.00,18.8,12754.634,6.802,680.000,0.000,0.500,0.200,0.300,1.000,General,637.732,11479.170
 Lights Internal Gains Nominal, SP-STORAGE ROOM > 100 M2-SCH-F-SPACE FUNCTION SYS-4 FLR-4 SCH-F HPLCMT-WEST ZN SPACE FUNCTION STORAGE ROOM > 100 M2-SCH-F LIGHTS,NECB-F-LIGHTING,SP-STORAGE ROOM > 100 M2-SCH-F-SPACE FUNCTION SYS-4 FLR-4 SCH-F HPLCMT-WEST ZN,1875.00,18.8,12754.634,6.802,680.000,0.000,0.500,0.200,0.300,1.000,General,892.824,8035.419
 Lights Internal Gains Nominal, SP-STORAGE ROOM > 100 M2-SCH-G-SPACE FUNCTION SYS-4 FLR-1 SCH-G HPLCMT-SOUTH ZN SPACE FUNCTION STORAGE ROOM > 100 M2-SCH-G LIGHTS,NECB-G-LIGHTING,SP-STORAGE ROOM > 100 M2-SCH-G-SPACE FUNCTION SYS-4 FLR-1 SCH-G HPLCMT-SOUTH ZN,1875.00,18.8,12754.634,6.802,680.000,0.000,0.500,0.200,0.300,1.000,General,0.000,11479.170
 Lights Internal Gains Nominal, SP-STORAGE ROOM > 100 M2-SCH-H-SPACE FUNCTION SYS-4 FLR-3 SCH-H HPLCMT-SOUTH ZN SPACE FUNCTION STORAGE ROOM > 100 M2-SCH-H LIGHTS,NECB-H-LIGHTING,SP-STORAGE ROOM > 100 M2-SCH-H-SPACE FUNCTION SYS-4 FLR-3 SCH-H HPLCMT-SOUTH ZN,1875.00,18.8,12754.634,6.802,680.000,0.000,0.500,0.200,0.300,1.000,General,11479.170,11479.170
 Lights Internal Gains Nominal, SP-STORAGE ROOM > 100 M2-SCH-I-SPACE FUNCTION SYS-4 FLR-1 SCH-I HPLCMT-NORTH ZN SPACE FUNCTION STORAGE ROOM > 100 M2-SCH-I LIGHTS,NECB-I-LIGHTING,SP-STORAGE ROOM > 100 M2-SCH-I-SPACE FUNCTION SYS-4 FLR-1 SCH-I HPLCMT-NORTH ZN,1875.00,18.8,12754.634,6.802,680.000,0.000,0.500,0.200,0.300,1.000,General,637.732,11479.170
 Lights Internal Gains Nominal, SP-STORAGE ROOM > 100 M2-SCH-J-SPACE FUNCTION SYS-4 FLR-1 SCH-J HPLCMT-CORE ZN SPACE FUNCTION STORAGE ROOM > 100 M2-SCH-J LIGHTS,NECB-J-LIGHTING,SP-STORAGE ROOM > 100 M2-SCH-J-SPACE FUNCTION SYS-4 FLR-1 SCH-J HPLCMT-CORE ZN,2500.00,25.0,17006.178,6.802,680.000,0.000,0.500,0.200,0.300,1.000,General,1700.618,11904.325
 Lights Internal Gains Nominal, SP-STORAGE ROOM > 100 M2-SCH-K-SPACE FUNCTION SYS-4 FLR-4 SCH-K HPLCMT-CORE ZN SPACE FUNCTION STORAGE ROOM > 100 M2-SCH-K LIGHTS,NECB-K-LIGHTING,SP-STORAGE ROOM > 100 M2-SCH-K-SPACE FUNCTION SYS-4 FLR-4 SCH-K HPLCMT-CORE ZN,2500.00,25.0,17006.178,6.802,680.000,0.000,0.500,0.200,0.300,1.000,General,15305.560,15305.560
 Lights Internal Gains Nominal, SP-VEHICLE MAINTENANCE AREA-SPACE FUNCTION SYS-4 FLR-3 SCH-E HPLCMT-WEST ZN SPACE FUNCTION VEHICLE MAINTENANCE AREA LIGHTS,NECB-E-LIGHTING,SP-VEHICLE MAINTENANCE AREA-SPACE FUNCTION SYS-4 FLR-3 SCH-E HPLCMT-WEST ZN,1875.00,93.8,12754.634,6.802,136.000,0.000,0.500,0.200,0.300,1.000,General,637.732,11479.170
 Lights Internal Gains Nominal, SP-WORKSHOP-SPACE FUNCTION SYS-3 FLR-2 SCH-A HPLCMT-CORE ZN SPACE FUNCTION WORKSHOP LIGHTS,NECB-A-OCCUPANCY-NECB-A-LIGHTING-0.0-0.0-0.67-LIGHT RULESET,SP-WORKSHOP-SPACE FUNCTION SYS-3 FLR-2 SCH-A HPLCMT-CORE ZN,2500.00,83.4,43015.627,17.206,516.000,0.000,0.500,0.200,0.300,1.000,General,2150.781,38714.064
! <ElectricEquipment Internal Gains Nominal>,Name,Schedule Name,Zone Name,Zone Floor Area {m2},# Zone Occupants,Equipment Level {W},Equipment/Floor Area {W/m2},Equipment per person {W/person},Fraction Latent,Fraction Radiant,Fraction Lost,Fraction Convected,End-Use SubCategory,Nominal Minimum Equipment Level {W},Nominal Maximum Equipment Level {W}
 ElectricEquipment Internal Gains Nominal, SP-CONVENTION CENTRE EXHIBIT SPACE-SPACE FUNCTION SYS-3 FLR-2 SCH-C HPLCMT-NORTH ZN SPACE FUNCTION CONVENTION CENTRE EXHIBIT SPACE ELEC EQUIP,NECB-C-ELECTRIC-EQUIPMENT,SP-CONVENTION CENTRE EXHIBIT SPACE-SPACE FUNCTION SYS-3 FLR-2 SCH-C HPLCMT-NORTH ZN,1875.00,187.6,4689.204,2.501,25.000,0.000,0.500,0.000,0.500,General,234.460,4220.283
 ElectricEquipment Internal Gains Nominal, SP-DORMITORY LIVING QUARTERS-SPACE FUNCTION SYS-3 FLR-2 SCH-G HPLCMT-EAST ZN SPACE FUNCTION DORMITORY LIVING QUARTERS ELEC EQUIP,NECB-G-ELECTRIC-EQUIPMENT,SP-DORMITORY LIVING QUARTERS-SPACE FUNCTION SYS-3 FLR-2 SCH-G HPLCMT-EAST ZN,1875.00,75.0,4689.204,2.501,62.500,0.000,0.500,0.000,0.500,General,937.841,4220.283
 ElectricEquipment Internal Gains Nominal, SP-DWELLING UNITS GENERAL-SPACE FUNCTION SYS-1 FLR-2 SCH-G HPLCMT-WEST ZN SPACE FUNCTION DWELLING UNITS GENERAL ELEC EQUIP,NECB-G-ELECTRIC-EQUIPMENT,SP-DWELLING UNITS GENERAL-SPACE FUNCTION SYS-1 FLR-2 SCH-G HPLCMT-WEST ZN,1875.00,75.0,9378.407,5.002,125.000,0.000,0.500,0.000,0.500,General,1875.681,8440.566
 ElectricEquipment Internal Gains Nominal, SP-DWELLING UNITS LONG-TERM-SPACE FUNCTION SYS-1 FLR-2 SCH-J HPLCMT-SOUTH ZN SPACE FUNCTION DWELLING UNITS LONG-TERM ELEC EQUIP,NECB-J-ELECTRIC-EQUIPMENT,SP-DWELLING UNITS LONG-TERM-SPACE FUNCTION SYS-1 FLR-2 SCH-J HPLCMT-SOUTH ZN,1875.00,75.0,4689.204,2.501,62.500,0.000,0.500,0.000,0.500,General,468.920,3282.442
 ElectricEquipment Internal Gains Nominal, SP-VEHICLE MAINTENANCE AREA-SPACE FUNCTION SYS-4 FLR-3 SCH-E HPLCMT-WEST ZN SPACE FUNCTION VEHICLE MAINTENANCE AREA ELEC EQUIP,NECB-E-ELECTRIC-EQUIPMENT,SP-VEHICLE MAINTENANCE AREA-SPACE FUNCTION SYS-4 FLR-3 SCH-E HPLCMT-WEST ZN,1875.00,93.8,9378.407,5.002,100.000,0.000,0.500,0.000,0.500,General,468.920,8440.566
 ElectricEquipment Internal Gains Nominal, SP-WORKSHOP-SPACE FUNCTION SYS-3 FLR-2 SCH-A HPLCMT-CORE ZN SPACE FUNCTION WORKSHOP ELEC EQUIP,NECB-A-ELECTRIC-EQUIPMENT,SP-WORKSHOP-SPACE FUNCTION SYS-3 FLR-2 SCH-A HPLCMT-CORE ZN,2500.00,83.4,25009.086,10.004,300.000,0.000,0.500,0.000,0.500,General,5001.817,22508.177
! <Shadowing/Sun Position Calculations Annual Simulations>, Calculation Method, Value {days}, Allowable Number Figures in Shadow Overlap {}, Polygon Clipping Algorithm, Sky Diffuse Modeling Algorithm, External Shading Calculation Method, Output External Shading Calculation Results, Disable Self-Shading Within Shading Zone Groups, Disable Self-Shading From Shading Zone Groups to Other Zones
Shadowing/Sun Position Calculations Annual Simulations,AverageOverDaysInFrequency,20,15000,SutherlandHodgman,SimpleSkyDiffuseModeling,InternalCalculation,No,No,No
! <Water Heater Information>,Type,Name,Volume {m3},Maximum Capacity {W},Standard Rated Recovery Efficiency, Standard Rated Energy Factor
! <ZoneInfiltration Airflow Stats Nominal>,Name,Schedule Name,Zone Name, Zone Floor Area {m2}, # Zone Occupants,Design Volume Flow Rate {m3/s},Volume Flow Rate/Floor Area {m3/s/m2},Volume Flow Rate/Exterior Surface Area {m3/s/m2},ACH - Air Changes per Hour,Equation A - Constant Term Coefficient {},Equation B - Temperature Term Coefficient {1/C},Equation C - Velocity Term Coefficient {s/m}, Equation D - Velocity Squared Term Coefficient {s2/m2}
 ZoneInfiltration Airflow Stats Nominal, CONVENTION CENTRE EXHIBIT SPACE-SPACE FUNCTION INFILTRATION,ALWAYS ON DISCRETE,SP-CONVENTION CENTRE EXHIBIT SPACE-SPACE FUNCTION SYS-3 FLR-2 SCH-C HPLCMT-NORTH ZN,1875.00,187.6,9.500E-002,5.067E-005,2.500E-004,4.800E-002,0.000,0.000,0.224,0.000
 ZoneInfiltration Airflow Stats Nominal, DORMITORY LIVING QUARTERS-SPACE FUNCTION INFILTRATION,ALWAYS ON DISCRETE,SP-DORMITORY LIVING QUARTERS-SPACE FUNCTION SYS-3 FLR-2 SCH-G HPLCMT-EAST ZN,1875.00,75.0,9.500E-002,5.067E-005,2.500E-004,4.800E-002,0.000,0.000,0.224,0.000
 ZoneInfiltration Airflow Stats Nominal, DWELLING UNITS GENERAL-SPACE FUNCTION INFILTRATION,ALWAYS ON DISCRETE,SP-DWELLING UNITS GENERAL-SPACE FUNCTION SYS-1 FLR-2 SCH-G HPLCMT-WEST ZN,1875.00,75.0,9.500E-002,5.067E-005,2.500E-004,4.800E-002,0.000,0.000,0.224,0.000
 ZoneInfiltration Airflow Stats Nominal, DWELLING UNITS LONG-TERM-SPACE FUNCTION INFILTRATION,ALWAYS ON DISCRETE,SP-DWELLING UNITS LONG-TERM-SPACE FUNCTION SYS-1 FLR-2 SCH-J HPLCMT-SOUTH ZN,1875.00,75.0,9.500E-002,5.067E-005,2.500E-004,4.800E-002,0.000,0.000,0.224,0.000
 ZoneInfiltration Airflow Stats Nominal, STORAGE ROOM <= 5 M2 <= 100 M2-SCH-I-SPACE FUNCTION INFILTRATION,ALWAYS ON DISCRETE,SP-STORAGE ROOM <= 5 M2 <= 100 M2-SCH-I-SPACE FUNCTION SYS-4 FLR-4 SCH-I HPLCMT-SOUTH ZN,1875.00,18.8,0.564,3.007E-004,2.500E-004,0.285,0.000,0.000,0.224,0.000
 ZoneInfiltration Airflow Stats Nominal, STORAGE ROOM <= 5 M2 <= 100 M2-SCH-J-SPACE FUNCTION INFILTRATION,ALWAYS ON DISCRETE,SP-STORAGE ROOM <= 5 M2 <= 100 M2-SCH-J-SPACE FUNCTION SYS-4 FLR-4 SCH-J HPLCMT-EAST ZN,1875.00,18.8,0.564,3.007E-004,2.500E-004,0.285,0.000,0.000,0.224,0.000
 ZoneInfiltration Airflow Stats Nominal, STORAGE ROOM <= 5 M2 <= 100 M2-SCH-K-SPACE FUNCTION INFILTRATION,ALWAYS ON DISCRETE,SP-STORAGE ROOM <= 5 M2 <= 100 M2-SCH-K-SPACE FUNCTION SYS-4 FLR-4 SCH-K HPLCMT-NORTH ZN,1875.00,18.8,0.564,3.007E-004,2.500E-004,0.285,0.000,0.000,0.224,0.000
 ZoneInfiltration Airflow Stats Nominal, STORAGE ROOM > 100 M2-SCH-B-SPACE FUNCTION INFILTRATION,ALWAYS ON DISCRETE,SP-STORAGE ROOM > 100 M2-SCH-B-SPACE FUNCTION SYS-4 FLR-3 SCH-B HPLCMT-EAST ZN,1875.00,18.8,9.500E-002,5.067E-005,2.500E-004,4.800E-002,0.000,0.000,0.224,0.000
 ZoneInfiltration Airflow Stats Nominal, STORAGE ROOM > 100 M2-SCH-C-SPACE FUNCTION INFILTRATION,ALWAYS ON DISCRETE,SP-STORAGE ROOM > 100 M2-SCH-C-SPACE FUNCTION SYS-4 FLR-3 SCH-C HPLCMT-NORTH ZN,1875.00,18.8,9.500E-002,5.067E-005,2.500E-004,4.800E-002,0.000,0.000,0.224,0.000
 ZoneInfiltration Airflow Stats Nominal, STORAGE ROOM > 100 M2-SCH-F-SPACE FUNCTION INFILTRATION,ALWAYS ON DISCRETE,SP-STORAGE ROOM > 100 M2-SCH-F-SPACE FUNCTION SYS-4 FLR-4 SCH-F HPLCMT-WEST ZN,1875.00,18.8,0.564,3.007E-004,2.500E-004,0.285,0.000,0.000,0.224,0.000
 ZoneInfiltration Airflow Stats Nominal, STORAGE ROOM > 100 M2-SCH-H-SPACE FUNCTION INFILTRATION,ALWAYS ON DISCRETE,SP-STORAGE ROOM > 100 M2-SCH-H-SPACE FUNCTION SYS-4 FLR-3 SCH-H HPLCMT-SOUTH ZN,1875.00,18.8,9.500E-002,5.067E-005,2.500E-004,4.800E-002,0.000,0.000,0.224,0.000
 ZoneInfiltration Airflow Stats Nominal, STORAGE ROOM > 100 M2-SCH-K-SPACE FUNCTION INFILTRATION,ALWAYS ON DISCRETE,SP-STORAGE ROOM > 100 M2-SCH-K-SPACE FUNCTION SYS-4 FLR-4 SCH-K HPLCMT-CORE ZN,2500.00,25.0,0.625,2.500E-004,2.500E-004,0.237,0.000,0.000,0.224,0.000
 ZoneInfiltration Airflow Stats Nominal, VEHICLE MAINTENANCE AREA-SPACE FUNCTION INFILTRATION,ALWAYS ON DISCRETE,SP-VEHICLE MAINTENANCE AREA-SPACE FUNCTION SYS-4 FLR-3 SCH-E HPLCMT-WEST ZN,1875.00,93.8,9.500E-002,5.067E-005,2.500E-004,4.800E-002,0.000,0.000,0.224,0.000
! <AirFlow Model>, Simple
 AirFlow Model, Simple
! <RoomAir Model>, Zone Name, Mixing/Mundt/UCSDDV/UCSDCV/UCSDUFI/UCSDUFE/User Defined
RoomAir Model,SP-CONVENTION CENTRE EXHIBIT SPACE-SPACE FUNCTION SYS-3 FLR-2 SCH-C HPLCMT-NORTH ZN,Mixing/Well-Stirred
RoomAir Model,SP-DORMITORY LIVING QUARTERS-SPACE FUNCTION SYS-3 FLR-2 SCH-G HPLCMT-EAST ZN,Mixing/Well-Stirred
RoomAir Model,SP-DWELLING UNITS GENERAL-SPACE FUNCTION SYS-1 FLR-2 SCH-G HPLCMT-WEST ZN,Mixing/Well-Stirred
RoomAir Model,SP-DWELLING UNITS LONG-TERM-SPACE FUNCTION SYS-1 FLR-2 SCH-J HPLCMT-SOUTH ZN,Mixing/Well-Stirred
RoomAir Model,SP-STORAGE ROOM <= 5 M2 <= 100 M2-SCH-I-SPACE FUNCTION SYS-4 FLR-4 SCH-I HPLCMT-SOUTH ZN,Mixing/Well-Stirred
RoomAir Model,SP-STORAGE ROOM <= 5 M2 <= 100 M2-SCH-J-SPACE FUNCTION SYS-4 FLR-4 SCH-J HPLCMT-EAST ZN,Mixing/Well-Stirred
RoomAir Model,SP-STORAGE ROOM <= 5 M2 <= 100 M2-SCH-K-SPACE FUNCTION SYS-4 FLR-4 SCH-K HPLCMT-NORTH ZN,Mixing/Well-Stirred
RoomAir Model,SP-STORAGE ROOM > 100 M2-SCH-A-SPACE FUNCTION SYS-4 FLR-3 SCH-A HPLCMT-CORE ZN,Mixing/Well-Stirred
RoomAir Model,SP-STORAGE ROOM > 100 M2-SCH-B-SPACE FUNCTION SYS-4 FLR-3 SCH-B HPLCMT-EAST ZN,Mixing/Well-Stirred
RoomAir Model,SP-STORAGE ROOM > 100 M2-SCH-C-SPACE FUNCTION SYS-4 FLR-3 SCH-C HPLCMT-NORTH ZN,Mixing/Well-Stirred
RoomAir Model,SP-STORAGE ROOM > 100 M2-SCH-D-SPACE FUNCTION SYS-4 FLR-1 SCH-D HPLCMT-WEST ZN,Mixing/Well-Stirred
RoomAir Model,SP-STORAGE ROOM > 100 M2-SCH-E-SPACE FUNCTION SYS-4 FLR-1 SCH-E HPLCMT-EAST ZN,Mixing/Well-Stirred
RoomAir Model,SP-STORAGE ROOM > 100 M2-SCH-F-SPACE FUNCTION SYS-4 FLR-4 SCH-F HPLCMT-WEST ZN,Mixing/Well-Stirred
RoomAir Model,SP-STORAGE ROOM > 100 M2-SCH-G-SPACE FUNCTION SYS-4 FLR-1 SCH-G HPLCMT-SOUTH ZN,Mixing/Well-Stirred
RoomAir Model,SP-STORAGE ROOM > 100 M2-SCH-H-SPACE FUNCTION SYS-4 FLR-3 SCH-H HPLCMT-SOUTH ZN,Mixing/Well-Stirred
RoomAir Model,SP-STORAGE ROOM > 100 M2-SCH-I-SPACE FUNCTION SYS-4 FLR-1 SCH-I HPLCMT-NORTH ZN,Mixing/Well-Stirred
RoomAir Model,SP-STORAGE ROOM > 100 M2-SCH-J-SPACE FUNCTION SYS-4 FLR-1 SCH-J HPLCMT-CORE ZN,Mixing/Well-Stirred
RoomAir Model,SP-STORAGE ROOM > 100 M2-SCH-K-SPACE FUNCTION SYS-4 FLR-4 SCH-K HPLCMT-CORE ZN,Mixing/Well-Stirred
RoomAir Model,SP-VEHICLE MAINTENANCE AREA-SPACE FUNCTION SYS-4 FLR-3 SCH-E HPLCMT-WEST ZN,Mixing/Well-Stirred
RoomAir Model,SP-WORKSHOP-SPACE FUNCTION SYS-3 FLR-2 SCH-A HPLCMT-CORE ZN,Mixing/Well-Stirred
! <AirflowNetwork Model:Control>, No Multizone or Distribution/Multizone with Distribution/Multizone without Distribution/Multizone with Distribution only during Fan Operation
AirflowNetwork Model:Control,NoMultizoneOrDistribution
! <Zone Volume Capacitance Multiplier>, Sensible Heat Capacity Multiplier, Moisture Capacity Multiplier, Carbon Dioxide Capacity Multiplier, Generic Contaminant Capacity Multiplier
Zone Volume Capacitance Multiplier,   1.000 ,   1.000,   1.000,   1.000
! <Load Timesteps in Zone Design Calculation Averaging Window>, Value
 Load Timesteps in Zone Design Calculation Averaging Window,    6
! <Heating Sizing Factor Information>, Sizing Factor ID, Value
 Heating Sizing Factor Information, Global,   1.3000    
 Heating Sizing Factor Information, Zone SP-CONVENTION CENTRE EXHIBIT SPACE-SPACE FUNCTION SYS-3 FLR-2 SCH-C HPLCMT-NORTH ZN,   1.3000    
 Heating Sizing Factor Information, Zone SP-DORMITORY LIVING QUARTERS-SPACE FUNCTION SYS-3 FLR-2 SCH-G HPLCMT-EAST ZN,   1.3000    
 Heating Sizing Factor Information, Zone SP-DWELLING UNITS GENERAL-SPACE FUNCTION SYS-1 FLR-2 SCH-G HPLCMT-WEST ZN,   1.3000    
 Heating Sizing Factor Information, Zone SP-DWELLING UNITS LONG-TERM-SPACE FUNCTION SYS-1 FLR-2 SCH-J HPLCMT-SOUTH ZN,   1.3000    
 Heating Sizing Factor Information, Zone SP-STORAGE ROOM <= 5 M2 <= 100 M2-SCH-I-SPACE FUNCTION SYS-4 FLR-4 SCH-I HPLCMT-SOUTH ZN,   1.3000    
 Heating Sizing Factor Information, Zone SP-STORAGE ROOM <= 5 M2 <= 100 M2-SCH-J-SPACE FUNCTION SYS-4 FLR-4 SCH-J HPLCMT-EAST ZN,   1.3000    
 Heating Sizing Factor Information, Zone SP-STORAGE ROOM <= 5 M2 <= 100 M2-SCH-K-SPACE FUNCTION SYS-4 FLR-4 SCH-K HPLCMT-NORTH ZN,   1.3000    
 Heating Sizing Factor Information, Zone SP-STORAGE ROOM > 100 M2-SCH-A-SPACE FUNCTION SYS-4 FLR-3 SCH-A HPLCMT-CORE ZN,   1.3000    
 Heating Sizing Factor Information, Zone SP-STORAGE ROOM > 100 M2-SCH-B-SPACE FUNCTION SYS-4 FLR-3 SCH-B HPLCMT-EAST ZN,   1.3000    
 Heating Sizing Factor Information, Zone SP-STORAGE ROOM > 100 M2-SCH-C-SPACE FUNCTION SYS-4 FLR-3 SCH-C HPLCMT-NORTH ZN,   1.3000    
 Heating Sizing Factor Information, Zone SP-STORAGE ROOM > 100 M2-SCH-D-SPACE FUNCTION SYS-4 FLR-1 SCH-D HPLCMT-WEST ZN,   1.3000    
 Heating Sizing Factor Information, Zone SP-STORAGE ROOM > 100 M2-SCH-E-SPACE FUNCTION SYS-4 FLR-1 SCH-E HPLCMT-EAST ZN,   1.3000    
 Heating Sizing Factor Information, Zone SP-STORAGE ROOM > 100 M2-SCH-F-SPACE FUNCTION SYS-4 FLR-4 SCH-F HPLCMT-WEST ZN,   1.3000    
 Heating Sizing Factor Information, Zone SP-STORAGE ROOM > 100 M2-SCH-G-SPACE FUNCTION SYS-4 FLR-1 SCH-G HPLCMT-SOUTH ZN,   1.3000    
 Heating Sizing Factor Information, Zone SP-STORAGE ROOM > 100 M2-SCH-H-SPACE FUNCTION SYS-4 FLR-3 SCH-H HPLCMT-SOUTH ZN,   1.3000    
 Heating Sizing Factor Information, Zone SP-STORAGE ROOM > 100 M2-SCH-I-SPACE FUNCTION SYS-4 FLR-1 SCH-I HPLCMT-NORTH ZN,   1.3000    
 Heating Sizing Factor Information, Zone SP-STORAGE ROOM > 100 M2-SCH-J-SPACE FUNCTION SYS-4 FLR-1 SCH-J HPLCMT-CORE ZN,   1.3000    
 Heating Sizing Factor Information, Zone SP-STORAGE ROOM > 100 M2-SCH-K-SPACE FUNCTION SYS-4 FLR-4 SCH-K HPLCMT-CORE ZN,   1.3000    
 Heating Sizing Factor Information, Zone SP-VEHICLE MAINTENANCE AREA-SPACE FUNCTION SYS-4 FLR-3 SCH-E HPLCMT-WEST ZN,   1.3000    
 Heating Sizing Factor Information, Zone SP-WORKSHOP-SPACE FUNCTION SYS-3 FLR-2 SCH-A HPLCMT-CORE ZN,   1.3000    
! <Cooling Sizing Factor Information>, Sizing Factor ID, Value
 Cooling Sizing Factor Information, Global,   1.1000    
 Cooling Sizing Factor Information, Zone SP-CONVENTION CENTRE EXHIBIT SPACE-SPACE FUNCTION SYS-3 FLR-2 SCH-C HPLCMT-NORTH ZN,   1.1000    
 Cooling Sizing Factor Information, Zone SP-DORMITORY LIVING QUARTERS-SPACE FUNCTION SYS-3 FLR-2 SCH-G HPLCMT-EAST ZN,   1.1000    
 Cooling Sizing Factor Information, Zone SP-DWELLING UNITS GENERAL-SPACE FUNCTION SYS-1 FLR-2 SCH-G HPLCMT-WEST ZN,   1.1000    
 Cooling Sizing Factor Information, Zone SP-DWELLING UNITS LONG-TERM-SPACE FUNCTION SYS-1 FLR-2 SCH-J HPLCMT-SOUTH ZN,   1.1000    
 Cooling Sizing Factor Information, Zone SP-STORAGE ROOM <= 5 M2 <= 100 M2-SCH-I-SPACE FUNCTION SYS-4 FLR-4 SCH-I HPLCMT-SOUTH ZN,   1.1000    
 Cooling Sizing Factor Information, Zone SP-STORAGE ROOM <= 5 M2 <= 100 M2-SCH-J-SPACE FUNCTION SYS-4 FLR-4 SCH-J HPLCMT-EAST ZN,   1.1000    
 Cooling Sizing Factor Information, Zone SP-STORAGE ROOM <= 5 M2 <= 100 M2-SCH-K-SPACE FUNCTION SYS-4 FLR-4 SCH-K HPLCMT-NORTH ZN,   1.1000    
 Cooling Sizing Factor Information, Zone SP-STORAGE ROOM > 100 M2-SCH-A-SPACE FUNCTION SYS-4 FLR-3 SCH-A HPLCMT-CORE ZN,   1.1000    
 Cooling Sizing Factor Information, Zone SP-STORAGE ROOM > 100 M2-SCH-B-SPACE FUNCTION SYS-4 FLR-3 SCH-B HPLCMT-EAST ZN,   1.1000    
 Cooling Sizing Factor Information, Zone SP-STORAGE ROOM > 100 M2-SCH-C-SPACE FUNCTION SYS-4 FLR-3 SCH-C HPLCMT-NORTH ZN,   1.1000    
 Cooling Sizing Factor Information, Zone SP-STORAGE ROOM > 100 M2-SCH-D-SPACE FUNCTION SYS-4 FLR-1 SCH-D HPLCMT-WEST ZN,   1.1000    
 Cooling Sizing Factor Information, Zone SP-STORAGE ROOM > 100 M2-SCH-E-SPACE FUNCTION SYS-4 FLR-1 SCH-E HPLCMT-EAST ZN,   1.1000    
 Cooling Sizing Factor Information, Zone SP-STORAGE ROOM > 100 M2-SCH-F-SPACE FUNCTION SYS-4 FLR-4 SCH-F HPLCMT-WEST ZN,   1.1000    
 Cooling Sizing Factor Information, Zone SP-STORAGE ROOM > 100 M2-SCH-G-SPACE FUNCTION SYS-4 FLR-1 SCH-G HPLCMT-SOUTH ZN,   1.1000    
 Cooling Sizing Factor Information, Zone SP-STORAGE ROOM > 100 M2-SCH-H-SPACE FUNCTION SYS-4 FLR-3 SCH-H HPLCMT-SOUTH ZN,   1.1000    
 Cooling Sizing Factor Information, Zone SP-STORAGE ROOM > 100 M2-SCH-I-SPACE FUNCTION SYS-4 FLR-1 SCH-I HPLCMT-NORTH ZN,   1.1000    
 Cooling Sizing Factor Information, Zone SP-STORAGE ROOM > 100 M2-SCH-J-SPACE FUNCTION SYS-4 FLR-1 SCH-J HPLCMT-CORE ZN,   1.1000    
 Cooling Sizing Factor Information, Zone SP-STORAGE ROOM > 100 M2-SCH-K-SPACE FUNCTION SYS-4 FLR-4 SCH-K HPLCMT-CORE ZN,   1.1000    
 Cooling Sizing Factor Information, Zone SP-VEHICLE MAINTENANCE AREA-SPACE FUNCTION SYS-4 FLR-3 SCH-E HPLCMT-WEST ZN,   1.1000    
 Cooling Sizing Factor Information, Zone SP-WORKSHOP-SPACE FUNCTION SYS-3 FLR-2 SCH-A HPLCMT-CORE ZN,   1.1000    
! <Zone Sizing Information>, Zone Name, Load Type, Calc Des Load {W}, User Des Load {W}, Calc Des Air Flow Rate {m3/s}, User Des Air Flow Rate {m3/s}, Design Day Name, Date/Time of Peak, Temperature at Peak {C}, Humidity Ratio at Peak {kgWater/kgDryAir}, Floor Area {m2}, # Occupants, Calc Outdoor Air Flow Rate {m3/s}, Calc DOAS Heat Addition Rate {W}
 Zone Sizing Information, SP-CONVENTION CENTRE EXHIBIT SPACE-SPACE FUNCTION SYS-3 FLR-2 SCH-C HPLCMT-NORTH ZN, Cooling, 36844.80289, 40529.28318, 2.84798, 3.13277, FORT MCMURRAY AP ANN CLG .4% CONDNS DB=>MWB, 7/21 17:00:00, 27.16400, 8.76969E-003, 1875.00000, 187.56814, 1.61925, 0.00000
 Zone Sizing Information, SP-CONVENTION CENTRE EXHIBIT SPACE-SPACE FUNCTION SYS-3 FLR-2 SCH-C HPLCMT-NORTH ZN, Heating, 17102.07163, 22232.69311, 0.66299, 1.61925, FORT MCMURRAY AP ANN HTG 99.6% CONDNS DB, 1/21 09:00:00, -36.20000, 1.25811E-004, 1875.00000, 187.56814, 1.61925, 0.00000
 Zone Sizing Information, SP-DORMITORY LIVING QUARTERS-SPACE FUNCTION SYS-3 FLR-2 SCH-G HPLCMT-EAST ZN, Cooling, 27189.93323, 29908.92655, 2.10141, 2.31155, FORT MCMURRAY AP ANN CLG .4% CONDNS DB=>MWB, 7/21 08:50:00, 21.68733, 8.76969E-003, 1875.00000, 75.02726, 1.04775, 0.00000
 Zone Sizing Information, SP-DORMITORY LIVING QUARTERS-SPACE FUNCTION SYS-3 FLR-2 SCH-G HPLCMT-EAST ZN, Heating, 12276.78724, 15959.82341, 0.48818, 1.04775, FORT MCMURRAY AP ANN HTG 99.6% CONDNS DB, 1/21 09:00:00, -36.20000, 1.25811E-004, 1875.00000, 75.02726, 1.04775, 0.00000
 Zone Sizing Information, SP-DWELLING UNITS GENERAL-SPACE FUNCTION SYS-1 FLR-2 SCH-G HPLCMT-WEST ZN, Cooling, 32996.12464, 36295.73711, 2.55013, 2.80514, FORT MCMURRAY AP ANN CLG .4% CONDNS DB=>MWB, 7/21 20:00:00, 22.70000, 8.76969E-003, 1875.00000, 75.02726, 0.74295, 0.00000
 Zone Sizing Information, SP-DWELLING UNITS GENERAL-SPACE FUNCTION SYS-1 FLR-2 SCH-G HPLCMT-WEST ZN, Heating, 9701.78347, 12612.31852, 0.39315, 0.74295, FORT MCMURRAY AP ANN HTG 99.6% CONDNS DB, 1/21 10:10:00, -36.20000, 1.25811E-004, 1875.00000, 75.02726, 0.74295, 0.00000
 Zone Sizing Information, SP-DWELLING UNITS LONG-TERM-SPACE FUNCTION SYS-1 FLR-2 SCH-J HPLCMT-SOUTH ZN, Cooling, 23675.46329, 26043.00962, 1.82982, 2.01281, FORT MCMURRAY AP ANN CLG .4% CONDNS DB=>MWB, 7/21 13:50:00, 28.79667, 8.76969E-003, 1875.00000, 75.02726, 1.04775, 0.00000
 Zone Sizing Information, SP-DWELLING UNITS LONG-TERM-SPACE FUNCTION SYS-1 FLR-2 SCH-J HPLCMT-SOUTH ZN, Heating, 5717.77667, 7433.10967, 0.23169, 1.04775, FORT MCMURRAY AP ANN HTG 99.6% CONDNS DB, 1/21 05:00:00, -36.20000, 1.25811E-004, 1875.00000, 75.02726, 1.04775, 0.00000
 Zone Sizing Information, SP-STORAGE ROOM <= 5 M2 <= 100 M2-SCH-I-SPACE FUNCTION SYS-4 FLR-4 SCH-I HPLCMT-SOUTH ZN, Cooling, 118814.58198, 130696.04017, 7.44121, 8.18533, FORT MCMURRAY AP ANN CLG .4% CONDNS DB=>MWB, 7/21 15:00:00, 28.90000, 8.76969E-003, 1875.00000, 18.75681, 0.66675, 0.00000
 Zone Sizing Information, SP-STORAGE ROOM <= 5 M2 <= 100 M2-SCH-I-SPACE FUNCTION SYS-4 FLR-4 SCH-I HPLCMT-SOUTH ZN, Heating, 51254.19613, 66630.45497, 2.04408, 2.65730, FORT MCMURRAY AP ANN HTG 99.6% CONDNS DB, 1/21 16:00:00, -36.20000, 1.25811E-004, 1875.00000, 18.75681, 0.66675, 0.00000
 Zone Sizing Information, SP-STORAGE ROOM <= 5 M2 <= 100 M2-SCH-J-SPACE FUNCTION SYS-4 FLR-4 SCH-J HPLCMT-EAST ZN, Cooling, 59624.33270, 65586.76597, 4.60797, 5.06877, FORT MCMURRAY AP ANN CLG .4% CONDNS DB=>MWB, 7/21 10:20:00, 24.80800, 8.76969E-003, 1875.00000, 18.75681, 0.66675, 0.00000
 Zone Sizing Information, SP-STORAGE ROOM <= 5 M2 <= 100 M2-SCH-J-SPACE FUNCTION SYS-4 FLR-4 SCH-J HPLCMT-EAST ZN, Heating, 42823.11089, 55670.04416, 1.73505, 2.25556, FORT MCMURRAY AP ANN HTG 99.6% CONDNS DB, 1/21 05:00:00, -36.20000, 1.25811E-004, 1875.00000, 18.75681, 0.66675, 0.00000
 Zone Sizing Information, SP-STORAGE ROOM <= 5 M2 <= 100 M2-SCH-K-SPACE FUNCTION SYS-4 FLR-4 SCH-K HPLCMT-NORTH ZN, Cooling, 0.00000, 0.00000, 0.00000, 0.66675, FORT MCMURRAY AP ANN CLG .4% CONDNS DB=>MWB, , 28.90000, 8.76969E-003, 1875.00000, 18.75681, 0.66675, 0.00000
 Zone Sizing Information, SP-STORAGE ROOM <= 5 M2 <= 100 M2-SCH-K-SPACE FUNCTION SYS-4 FLR-4 SCH-K HPLCMT-NORTH ZN, Heating, 0.00000, 0.00000, 0.00000, 0.66675, FORT MCMURRAY AP ANN HTG 99.6% CONDNS DB, , -36.20000, 1.25811E-004, 1875.00000, 18.75681, 0.66675, 0.00000
 Zone Sizing Information, SP-STORAGE ROOM > 100 M2-SCH-A-SPACE FUNCTION SYS-4 FLR-3 SCH-A HPLCMT-CORE ZN, Cooling, 43117.61568, 47429.37724, 3.02219, 3.32440, FORT MCMURRAY AP ANN CLG .4% CONDNS DB=>MWB, 7/21 07:00:00, 17.61600, 8.76969E-003, 2500.00000, 25.00909, 0.88900, 0.00000
 Zone Sizing Information, SP-STORAGE ROOM > 100 M2-SCH-A-SPACE FUNCTION SYS-4 FLR-3 SCH-A HPLCMT-CORE ZN, Heating, 6941.93836, 9024.51987, 0.27784, 0.88900, FORT MCMURRAY AP ANN HTG 99.6% CONDNS DB, 1/21 08:00:00, -36.20000, 1.25811E-004, 2500.00000, 25.00909, 0.88900, 0.00000
 Zone Sizing Information, SP-STORAGE ROOM > 100 M2-SCH-B-SPACE FUNCTION SYS-4 FLR-3 SCH-B HPLCMT-EAST ZN, Cooling, 40634.40491, 44697.84540, 2.84228, 3.12650, FORT MCMURRAY AP ANN CLG .4% CONDNS DB=>MWB, 7/21 09:00:00, 22.08000, 8.76969E-003, 1875.00000, 18.75681, 0.66675, 0.00000
 Zone Sizing Information, SP-STORAGE ROOM > 100 M2-SCH-B-SPACE FUNCTION SYS-4 FLR-3 SCH-B HPLCMT-EAST ZN, Heating, 25011.48650, 32514.93245, 0.98367, 1.27877, FORT MCMURRAY AP ANN HTG 99.6% CONDNS DB, 1/21 10:00:00, -36.20000, 1.25811E-004, 1875.00000, 18.75681, 0.66675, 0.00000
 Zone Sizing Information, SP-STORAGE ROOM > 100 M2-SCH-C-SPACE FUNCTION SYS-4 FLR-3 SCH-C HPLCMT-NORTH ZN, Cooling, 32493.84799, 35743.23279, 2.31004, 2.54104, FORT MCMURRAY AP ANN CLG .4% CONDNS DB=>MWB, 7/21 08:00:00, 19.72400, 8.76969E-003, 1875.00000, 18.75681, 0.66675, 0.00000
 Zone Sizing Information, SP-STORAGE ROOM > 100 M2-SCH-C-SPACE FUNCTION SYS-4 FLR-3 SCH-C HPLCMT-NORTH ZN, Heating, 37058.54916, 48176.11391, 1.47051, 1.91166, FORT MCMURRAY AP ANN HTG 99.6% CONDNS DB, 1/21 09:00:00, -36.20000, 1.25811E-004, 1875.00000, 18.75681, 0.66675, 0.00000
 Zone Sizing Information, SP-STORAGE ROOM > 100 M2-SCH-D-SPACE FUNCTION SYS-4 FLR-1 SCH-D HPLCMT-WEST ZN, Cooling, 10471.35500, 11518.49050, 0.80927, 0.89020, FORT MCMURRAY AP ANN CLG .4% CONDNS DB=>MWB, 7/21 16:00:00, 28.15600, 8.76969E-003, 1875.00000, 18.75681, 0.66675, 0.00000
 Zone Sizing Information, SP-STORAGE ROOM > 100 M2-SCH-D-SPACE FUNCTION SYS-4 FLR-1 SCH-D HPLCMT-WEST ZN, Heating, 3109.84527, 4042.79885, 0.12439, 0.66675, FORT MCMURRAY AP ANN HTG 99.6% CONDNS DB, 1/21 09:00:00, -36.20000, 1.25811E-004, 1875.00000, 18.75681, 0.66675, 0.00000
 Zone Sizing Information, SP-STORAGE ROOM > 100 M2-SCH-E-SPACE FUNCTION SYS-4 FLR-1 SCH-E HPLCMT-EAST ZN, Cooling, 11340.33852, 12474.37237, 0.87643, 0.96407, FORT MCMURRAY AP ANN CLG .4% CONDNS DB=>MWB, 7/21 12:40:00, 27.94933, 8.76969E-003, 1875.00000, 18.75681, 0.66675, 0.00000
 Zone Sizing Information, SP-STORAGE ROOM > 100 M2-SCH-E-SPACE FUNCTION SYS-4 FLR-1 SCH-E HPLCMT-EAST ZN, Heating, 3517.49829, 4572.74778, 0.14013, 0.66675, FORT MCMURRAY AP ANN HTG 99.6% CONDNS DB, 1/21 09:00:00, -36.20000, 1.25811E-004, 1875.00000, 18.75681, 0.66675, 0.00000
 Zone Sizing Information, SP-STORAGE ROOM > 100 M2-SCH-F-SPACE FUNCTION SYS-4 FLR-4 SCH-F HPLCMT-WEST ZN, Cooling, 59674.67921, 65642.14713, 4.61185, 5.07303, FORT MCMURRAY AP ANN CLG .4% CONDNS DB=>MWB, 7/21 16:10:00, 27.99067, 8.76969E-003, 1875.00000, 18.75681, 0.66675, 0.00000
 Zone Sizing Information, SP-STORAGE ROOM > 100 M2-SCH-F-SPACE FUNCTION SYS-4 FLR-4 SCH-F HPLCMT-WEST ZN, Heating, 57234.53370, 74404.89381, 2.28566, 2.97136, FORT MCMURRAY AP ANN HTG 99.6% CONDNS DB, 1/21 09:00:00, -36.20000, 1.25811E-004, 1875.00000, 18.75681, 0.66675, 0.00000
 Zone Sizing Information, SP-STORAGE ROOM > 100 M2-SCH-G-SPACE FUNCTION SYS-4 FLR-1 SCH-G HPLCMT-SOUTH ZN, Cooling, 9734.23730, 10707.66103, 0.75230, 0.82753, FORT MCMURRAY AP ANN CLG .4% CONDNS DB=>MWB, 7/21 22:00:00, 20.46800, 8.76969E-003, 1875.00000, 18.75681, 0.66675, 0.00000
 Zone Sizing Information, SP-STORAGE ROOM > 100 M2-SCH-G-SPACE FUNCTION SYS-4 FLR-1 SCH-G HPLCMT-SOUTH ZN, Heating, 1625.48719, 2113.13334, 6.58640E-002, 0.66675, FORT MCMURRAY AP ANN HTG 99.6% CONDNS DB, 1/21 17:00:00, -36.20000, 1.25811E-004, 1875.00000, 18.75681, 0.66675, 0.00000
 Zone Sizing Information, SP-STORAGE ROOM > 100 M2-SCH-H-SPACE FUNCTION SYS-4 FLR-3 SCH-H HPLCMT-SOUTH ZN, Cooling, 38213.87259, 42035.25985, 2.95330, 3.24863, FORT MCMURRAY AP ANN CLG .4% CONDNS DB=>MWB, 7/21 14:40:00, 28.90000, 8.76969E-003, 1875.00000, 18.75681, 0.66675, 0.00000
 Zone Sizing Information, SP-STORAGE ROOM > 100 M2-SCH-H-SPACE FUNCTION SYS-4 FLR-3 SCH-H HPLCMT-SOUTH ZN, Heating, 24779.58953, 32213.46638, 0.97342, 1.26544, FORT MCMURRAY AP ANN HTG 99.6% CONDNS DB, 1/21 09:00:00, -36.20000, 1.25811E-004, 1875.00000, 18.75681, 0.66675, 0.00000
 Zone Sizing Information, SP-STORAGE ROOM > 100 M2-SCH-I-SPACE FUNCTION SYS-4 FLR-1 SCH-I HPLCMT-NORTH ZN, Cooling, 12496.28407, 13745.91248, 0.90970, 1.00067, FORT MCMURRAY AP ANN CLG .4% CONDNS DB=>MWB, 7/21 15:00:00, 28.90000, 8.76969E-003, 1875.00000, 18.75681, 0.66675, 0.00000
 Zone Sizing Information, SP-STORAGE ROOM > 100 M2-SCH-I-SPACE FUNCTION SYS-4 FLR-1 SCH-I HPLCMT-NORTH ZN, Heating, 2129.98035, 2768.97445, 8.47806E-002, 0.66675, FORT MCMURRAY AP ANN HTG 99.6% CONDNS DB, 1/21 15:40:00, -36.20000, 1.25811E-004, 1875.00000, 18.75681, 0.66675, 0.00000
 Zone Sizing Information, SP-STORAGE ROOM > 100 M2-SCH-J-SPACE FUNCTION SYS-4 FLR-1 SCH-J HPLCMT-CORE ZN, Cooling, 13380.56841, 14718.62525, 1.03410, 1.13751, FORT MCMURRAY AP ANN CLG .4% CONDNS DB=>MWB, 7/21 23:00:00, 19.60000, 8.76969E-003, 2500.00000, 25.00909, 0.88900, 0.00000
 Zone Sizing Information, SP-STORAGE ROOM > 100 M2-SCH-J-SPACE FUNCTION SYS-4 FLR-1 SCH-J HPLCMT-CORE ZN, Heating, 0.00000, 0.00000, 0.00000, 0.88900, FORT MCMURRAY AP ANN HTG 99.6% CONDNS DB, , -36.20000, 1.25811E-004, 2500.00000, 25.00909, 0.88900, 0.00000
 Zone Sizing Information, SP-STORAGE ROOM > 100 M2-SCH-K-SPACE FUNCTION SYS-4 FLR-4 SCH-K HPLCMT-CORE ZN, Cooling, 0.00000, 0.00000, 0.00000, 0.88900, FORT MCMURRAY AP ANN CLG .4% CONDNS DB=>MWB, , 28.90000, 8.76969E-003, 2500.00000, 25.00909, 0.88900, 0.00000
 Zone Sizing Information, SP-STORAGE ROOM > 100 M2-SCH-K-SPACE FUNCTION SYS-4 FLR-4 SCH-K HPLCMT-CORE ZN, Heating, 0.00000, 0.00000, 0.00000, 0.88900, FORT MCMURRAY AP ANN HTG 99.6% CONDNS DB, , -36.20000, 1.25811E-004, 2500.00000, 25.00909, 0.88900, 0.00000
 Zone Sizing Information, SP-VEHICLE MAINTENANCE AREA-SPACE FUNCTION SYS-4 FLR-3 SCH-E HPLCMT-WEST ZN, Cooling, 47820.47779, 52602.52557, 3.69606, 14.28750, FORT MCMURRAY AP ANN CLG .4% CONDNS DB=>MWB, 7/21 18:00:00, 25.92400, 8.76969E-003, 1875.00000, 93.78407, 14.28750, 0.00000
 Zone Sizing Information, SP-VEHICLE MAINTENANCE AREA-SPACE FUNCTION SYS-4 FLR-3 SCH-E HPLCMT-WEST ZN, Heating, 29384.90880, 38200.38143, 1.15970, 14.28750, FORT MCMURRAY AP ANN HTG 99.6% CONDNS DB, 1/21 09:00:00, -36.20000, 1.25811E-004, 1875.00000, 93.78407, 14.28750, 0.00000
 Zone Sizing Information, SP-WORKSHOP-SPACE FUNCTION SYS-3 FLR-2 SCH-A HPLCMT-CORE ZN, Cooling, 50941.45892, 56035.60481, 3.93718, 4.82600, FORT MCMURRAY AP ANN CLG .4% CONDNS DB=>MWB, 7/21 17:00:00, 27.16400, 8.76969E-003, 2500.00000, 83.36362, 4.82600, 0.00000
 Zone Sizing Information, SP-WORKSHOP-SPACE FUNCTION SYS-3 FLR-2 SCH-A HPLCMT-CORE ZN, Heating, 0.00000, 0.00000, 0.00000, 4.82600, FORT MCMURRAY AP ANN HTG 99.6% CONDNS DB, , -36.20000, 1.25811E-004, 2500.00000, 83.36362, 4.82600, 0.00000
! <System Sizing Information>, System Name, Load Type, Peak Load Kind, User Design Capacity, Calc Des Air Flow Rate [m3/s], User Des Air Flow Rate [m3/s], Design Day Name, Date/Time of Peak
 System Sizing Information, SYS_1_MAKE-UP AIR UNIT, Cooling, Sensible, 25398.69, 4.81795, 1.79070, FORT MCMURRAY AP ANN CLG .4% CONDNS DB=>MWB, 7/21 05:00:00
 System Sizing Information, SYS_1_MAKE-UP AIR UNIT, Heating, Sensible, 164250.29, 1.79070, 1.79070, FORT MCMURRAY AP ANN HTG 99.6% CONDNS DB, 1/21 00:10:00
 System Sizing Information, SYS_3_PSZ SP-CONVENTION CENTRE EXHIBIT SPACE-SPACE FUNCTION SYS-3 FLR-2 SCH-C HPLCMT-NORTH ZN, Cooling, Sensible, 45839.78, 3.13277, 3.13277, FORT MCMURRAY AP ANN CLG .4% CONDNS DB=>MWB, 7/21 05:00:00
 System Sizing Information, SYS_3_PSZ SP-CONVENTION CENTRE EXHIBIT SPACE-SPACE FUNCTION SYS-3 FLR-2 SCH-C HPLCMT-NORTH ZN, Heating, Sensible, 148524.19, 1.61925, 1.61925, FORT MCMURRAY AP ANN HTG 99.6% CONDNS DB, 1/21 00:10:00
 System Sizing Information, SYS_3_PSZ SP-DORMITORY LIVING QUARTERS-SPACE FUNCTION SYS-3 FLR-2 SCH-G HPLCMT-EAST ZN, Cooling, Sensible, 26640.81, 2.31155, 2.31155, FORT MCMURRAY AP ANN CLG .4% CONDNS DB=>MWB, 7/21 05:00:00
 System Sizing Information, SYS_3_PSZ SP-DORMITORY LIVING QUARTERS-SPACE FUNCTION SYS-3 FLR-2 SCH-G HPLCMT-EAST ZN, Heating, Sensible, 96103.89, 1.04775, 1.04775, FORT MCMURRAY AP ANN HTG 99.6% CONDNS DB, 1/21 00:10:00
 System Sizing Information, SYS_3_PSZ SP-WORKSHOP-SPACE FUNCTION SYS-3 FLR-2 SCH-A HPLCMT-CORE ZN, Cooling, Sensible, 79164.66, 4.82600, 4.82600, FORT MCMURRAY AP ANN CLG .4% CONDNS DB=>MWB, 7/21 05:00:00
 System Sizing Information, SYS_3_PSZ SP-WORKSHOP-SPACE FUNCTION SYS-3 FLR-2 SCH-A HPLCMT-CORE ZN, Heating, Sensible, 442660.34, 4.82600, 4.82600, FORT MCMURRAY AP ANN HTG 99.6% CONDNS DB, 1/21 00:10:00
 System Sizing Information, SYS_4_PSZ_SP-STORAGE ROOM <= 5 M2 <= 100 M2-SCH-I-SPACE FUNCTION SYS-4 FLR-4 SCH-I HPLCMT-SOUTH ZN, Cooling, Sensible, 109456.34, 8.18533, 8.18533, FORT MCMURRAY AP ANN CLG .4% CONDNS DB=>MWB, 7/21 05:00:00
 System Sizing Information, SYS_4_PSZ_SP-STORAGE ROOM <= 5 M2 <= 100 M2-SCH-I-SPACE FUNCTION SYS-4 FLR-4 SCH-I HPLCMT-SOUTH ZN, Heating, Sensible, 109896.21, 2.65730, 2.65730, FORT MCMURRAY AP ANN HTG 99.6% CONDNS DB, 1/21 16:00:00
 System Sizing Information, SYS_4_PSZ_SP-STORAGE ROOM <= 5 M2 <= 100 M2-SCH-J-SPACE FUNCTION SYS-4 FLR-4 SCH-J HPLCMT-EAST ZN, Cooling, Sensible, 65196.60, 5.06877, 5.06877, FORT MCMURRAY AP ANN CLG .4% CONDNS DB=>MWB, 7/21 05:00:00
 System Sizing Information, SYS_4_PSZ_SP-STORAGE ROOM <= 5 M2 <= 100 M2-SCH-J-SPACE FUNCTION SYS-4 FLR-4 SCH-J HPLCMT-EAST ZN, Heating, Sensible, 99799.66, 2.25556, 2.25556, FORT MCMURRAY AP ANN HTG 99.6% CONDNS DB, 1/21 05:00:00
 System Sizing Information, SYS_4_PSZ_SP-STORAGE ROOM <= 5 M2 <= 100 M2-SCH-K-SPACE FUNCTION SYS-4 FLR-4 SCH-K HPLCMT-NORTH ZN, Cooling, Sensible, 12277.74, 0.66675, 0.66675, FORT MCMURRAY AP ANN CLG .4% CONDNS DB=>MWB, 7/21 05:00:00
 System Sizing Information, SYS_4_PSZ_SP-STORAGE ROOM <= 5 M2 <= 100 M2-SCH-K-SPACE FUNCTION SYS-4 FLR-4 SCH-K HPLCMT-NORTH ZN, Heating, Sensible, 61157.02, 0.66675, 0.66675, FORT MCMURRAY AP ANN HTG 99.6% CONDNS DB, 1/21 00:10:00
 System Sizing Information, SYS_4_PSZ_SP-STORAGE ROOM > 100 M2-SCH-A-SPACE FUNCTION SYS-4 FLR-3 SCH-A HPLCMT-CORE ZN, Cooling, Sensible, 35331.93, 3.32440, 3.32440, FORT MCMURRAY AP ANN CLG .4% CONDNS DB=>MWB, 7/21 05:00:00
 System Sizing Information, SYS_4_PSZ_SP-STORAGE ROOM > 100 M2-SCH-A-SPACE FUNCTION SYS-4 FLR-3 SCH-A HPLCMT-CORE ZN, Heating, Sensible, 81542.70, 0.88900, 0.88900, FORT MCMURRAY AP ANN HTG 99.6% CONDNS DB, 1/21 00:10:00
 System Sizing Information, SYS_4_PSZ_SP-STORAGE ROOM > 100 M2-SCH-B-SPACE FUNCTION SYS-4 FLR-3 SCH-B HPLCMT-EAST ZN, Cooling, Sensible, 38167.61, 3.12650, 3.12650, FORT MCMURRAY AP ANN CLG .4% CONDNS DB=>MWB, 7/21 05:00:00
 System Sizing Information, SYS_4_PSZ_SP-STORAGE ROOM > 100 M2-SCH-B-SPACE FUNCTION SYS-4 FLR-3 SCH-B HPLCMT-EAST ZN, Heating, Sensible, 76235.06, 1.27877, 1.27877, FORT MCMURRAY AP ANN HTG 99.6% CONDNS DB, 1/21 10:00:00
 System Sizing Information, SYS_4_PSZ_SP-STORAGE ROOM > 100 M2-SCH-C-SPACE FUNCTION SYS-4 FLR-3 SCH-C HPLCMT-NORTH ZN, Cooling, Sensible, 28819.85, 2.54104, 2.54104, FORT MCMURRAY AP ANN CLG .4% CONDNS DB=>MWB, 7/21 05:00:00
 System Sizing Information, SYS_4_PSZ_SP-STORAGE ROOM > 100 M2-SCH-C-SPACE FUNCTION SYS-4 FLR-3 SCH-C HPLCMT-NORTH ZN, Heating, Sensible, 91744.91, 1.91166, 1.91166, FORT MCMURRAY AP ANN HTG 99.6% CONDNS DB, 1/21 09:00:00
 System Sizing Information, SYS_4_PSZ_SP-STORAGE ROOM > 100 M2-SCH-D-SPACE FUNCTION SYS-4 FLR-1 SCH-D HPLCMT-WEST ZN, Cooling, Sensible, 14549.75, 0.89020, 0.89020, FORT MCMURRAY AP ANN CLG .4% CONDNS DB=>MWB, 7/21 05:00:00
 System Sizing Information, SYS_4_PSZ_SP-STORAGE ROOM > 100 M2-SCH-D-SPACE FUNCTION SYS-4 FLR-1 SCH-D HPLCMT-WEST ZN, Heating, Sensible, 61157.02, 0.66675, 0.66675, FORT MCMURRAY AP ANN HTG 99.6% CONDNS DB, 1/21 00:10:00
 System Sizing Information, SYS_4_PSZ_SP-STORAGE ROOM > 100 M2-SCH-E-SPACE FUNCTION SYS-4 FLR-1 SCH-E HPLCMT-EAST ZN, Cooling, Sensible, 15331.27, 0.96407, 0.96407, FORT MCMURRAY AP ANN CLG .4% CONDNS DB=>MWB, 7/21 05:00:00
 System Sizing Information, SYS_4_PSZ_SP-STORAGE ROOM > 100 M2-SCH-E-SPACE FUNCTION SYS-4 FLR-1 SCH-E HPLCMT-EAST ZN, Heating, Sensible, 61157.02, 0.66675, 0.66675, FORT MCMURRAY AP ANN HTG 99.6% CONDNS DB, 1/21 00:10:00
 System Sizing Information, SYS_4_PSZ_SP-STORAGE ROOM > 100 M2-SCH-F-SPACE FUNCTION SYS-4 FLR-4 SCH-F HPLCMT-WEST ZN, Cooling, Sensible, 67708.71, 5.07303, 5.07303, FORT MCMURRAY AP ANN CLG .4% CONDNS DB=>MWB, 7/21 05:00:00
 System Sizing Information, SYS_4_PSZ_SP-STORAGE ROOM > 100 M2-SCH-F-SPACE FUNCTION SYS-4 FLR-4 SCH-F HPLCMT-WEST ZN, Heating, Sensible, 117542.26, 2.97136, 2.97136, FORT MCMURRAY AP ANN HTG 99.6% CONDNS DB, 1/21 09:00:00
 System Sizing Information, SYS_4_PSZ_SP-STORAGE ROOM > 100 M2-SCH-G-SPACE FUNCTION SYS-4 FLR-1 SCH-G HPLCMT-SOUTH ZN, Cooling, Sensible, 7814.86, 0.82753, 0.82753, FORT MCMURRAY AP ANN CLG .4% CONDNS DB=>MWB, 7/21 05:00:00
 System Sizing Information, SYS_4_PSZ_SP-STORAGE ROOM > 100 M2-SCH-G-SPACE FUNCTION SYS-4 FLR-1 SCH-G HPLCMT-SOUTH ZN, Heating, Sensible, 61157.02, 0.66675, 0.66675, FORT MCMURRAY AP ANN HTG 99.6% CONDNS DB, 1/21 00:10:00
 System Sizing Information, SYS_4_PSZ_SP-STORAGE ROOM > 100 M2-SCH-H-SPACE FUNCTION SYS-4 FLR-3 SCH-H HPLCMT-SOUTH ZN, Cooling, Sensible, 45169.08, 3.24863, 3.24863, FORT MCMURRAY AP ANN CLG .4% CONDNS DB=>MWB, 7/21 05:00:00
 System Sizing Information, SYS_4_PSZ_SP-STORAGE ROOM > 100 M2-SCH-H-SPACE FUNCTION SYS-4 FLR-3 SCH-H HPLCMT-SOUTH ZN, Heating, Sensible, 76002.76, 1.26544, 1.26544, FORT MCMURRAY AP ANN HTG 99.6% CONDNS DB, 1/21 09:00:00
 System Sizing Information, SYS_4_PSZ_SP-STORAGE ROOM > 100 M2-SCH-I-SPACE FUNCTION SYS-4 FLR-1 SCH-I HPLCMT-NORTH ZN, Cooling, Sensible, 16483.03, 1.00067, 1.00067, FORT MCMURRAY AP ANN CLG .4% CONDNS DB=>MWB, 7/21 05:00:00
 System Sizing Information, SYS_4_PSZ_SP-STORAGE ROOM > 100 M2-SCH-I-SPACE FUNCTION SYS-4 FLR-1 SCH-I HPLCMT-NORTH ZN, Heating, Sensible, 61157.02, 0.66675, 0.66675, FORT MCMURRAY AP ANN HTG 99.6% CONDNS DB, 1/21 00:10:00
 System Sizing Information, SYS_4_PSZ_SP-STORAGE ROOM > 100 M2-SCH-J-SPACE FUNCTION SYS-4 FLR-1 SCH-J HPLCMT-CORE ZN, Cooling, Sensible, 9961.09, 1.13751, 1.13751, FORT MCMURRAY AP ANN CLG .4% CONDNS DB=>MWB, 7/21 05:00:00
 System Sizing Information, SYS_4_PSZ_SP-STORAGE ROOM > 100 M2-SCH-J-SPACE FUNCTION SYS-4 FLR-1 SCH-J HPLCMT-CORE ZN, Heating, Sensible, 81542.70, 0.88900, 0.88900, FORT MCMURRAY AP ANN HTG 99.6% CONDNS DB, 1/21 00:10:00
 System Sizing Information, SYS_4_PSZ_SP-STORAGE ROOM > 100 M2-SCH-K-SPACE FUNCTION SYS-4 FLR-4 SCH-K HPLCMT-CORE ZN, Cooling, Sensible, 16370.31, 0.88900, 0.88900, FORT MCMURRAY AP ANN CLG .4% CONDNS DB=>MWB, 7/21 05:00:00
 System Sizing Information, SYS_4_PSZ_SP-STORAGE ROOM > 100 M2-SCH-K-SPACE FUNCTION SYS-4 FLR-4 SCH-K HPLCMT-CORE ZN, Heating, Sensible, 81542.70, 0.88900, 0.88900, FORT MCMURRAY AP ANN HTG 99.6% CONDNS DB, 1/21 00:10:00
 System Sizing Information, SYS_4_PSZ_SP-VEHICLE MAINTENANCE AREA-SPACE FUNCTION SYS-4 FLR-3 SCH-E HPLCMT-WEST ZN, Cooling, Sensible, 213851.01, 14.28750, 14.28750, FORT MCMURRAY AP ANN CLG .4% CONDNS DB=>MWB, 7/21 05:00:00
 System Sizing Information, SYS_4_PSZ_SP-VEHICLE MAINTENANCE AREA-SPACE FUNCTION SYS-4 FLR-3 SCH-E HPLCMT-WEST ZN, Heating, Sensible, 1310507.60, 14.28750, 14.28750, FORT MCMURRAY AP ANN HTG 99.6% CONDNS DB, 1/21 16:30:00
! <Component Sizing Information>, Component Type, Component Name, Input Field Description, Value
 Component Sizing Information, AirTerminal:SingleDuct:Uncontrolled, AIR TERMINAL SINGLE DUCT UNCONTROLLED 3, Design Size Maximum Air Flow Rate [m3/s], 3.13277
 Component Sizing Information, ZoneHVAC:Baseboard:Convective:Water, ZONE HVAC BASEBOARD CONVECTIVE WATER 3, Design Size Maximum Water Flow Rate [m3/s], 3.32063E-004
 Component Sizing Information, ZoneHVAC:Baseboard:Convective:Water, ZONE HVAC BASEBOARD CONVECTIVE WATER 3, Design Size U-Factor Times Area Value [W/K], 673.71237
 Component Sizing Information, AirTerminal:SingleDuct:Uncontrolled, AIR TERMINAL SINGLE DUCT UNCONTROLLED 4, Design Size Maximum Air Flow Rate [m3/s], 2.31155
 Component Sizing Information, ZoneHVAC:Baseboard:Convective:Water, ZONE HVAC BASEBOARD CONVECTIVE WATER 4, Design Size Maximum Water Flow Rate [m3/s], 2.38373E-004
 Component Sizing Information, ZoneHVAC:Baseboard:Convective:Water, ZONE HVAC BASEBOARD CONVECTIVE WATER 4, Design Size U-Factor Times Area Value [W/K], 483.53264
 Component Sizing Information, ZoneHVAC:PackagedTerminalAirConditioner, SP-DWELLING UNITS GENERAL-SPACE FUNCTION SYS-1 FLR-2 SCH-G HPLCMT-WEST ZN PTAC, Design Size Cooling Supply Air Flow Rate [m3/s], 2.80514
 Component Sizing Information, ZoneHVAC:PackagedTerminalAirConditioner, SP-DWELLING UNITS GENERAL-SPACE FUNCTION SYS-1 FLR-2 SCH-G HPLCMT-WEST ZN PTAC, Design Size Heating Supply Air Flow Rate [m3/s], 2.80514
 Component Sizing Information, ZoneHVAC:PackagedTerminalAirConditioner, SP-DWELLING UNITS GENERAL-SPACE FUNCTION SYS-1 FLR-2 SCH-G HPLCMT-WEST ZN PTAC, Design Size No Load Supply Air Flow Rate [m3/s], 2.80514
 Component Sizing Information, ZoneHVAC:PackagedTerminalAirConditioner, SP-DWELLING UNITS GENERAL-SPACE FUNCTION SYS-1 FLR-2 SCH-G HPLCMT-WEST ZN PTAC, Design Size Outdoor Air Flow Rate During Cooling Operation [m3/s], 0.74295
 Component Sizing Information, ZoneHVAC:PackagedTerminalAirConditioner, SP-DWELLING UNITS GENERAL-SPACE FUNCTION SYS-1 FLR-2 SCH-G HPLCMT-WEST ZN PTAC, Design Size Outdoor Air Flow Rate During Heating Operation [m3/s], 0.74295
 Component Sizing Information, ZoneHVAC:PackagedTerminalAirConditioner, SP-DWELLING UNITS GENERAL-SPACE FUNCTION SYS-1 FLR-2 SCH-G HPLCMT-WEST ZN PTAC, Design Size Outdoor Air Flow Rate When No Cooling or Heating is Needed [m3/s], 0.74295
 Component Sizing Information, Coil:Cooling:DX:SingleSpeed, COIL COOLING DX SINGLE SPEED 2 158KBTU/HR 9.3EER, Design Size Rated Air Flow Rate [m3/s], 2.80514
 Component Sizing Information, Coil:Cooling:DX:SingleSpeed, COIL COOLING DX SINGLE SPEED 2 158KBTU/HR 9.3EER, Design Size Gross Rated Total Cooling Capacity [W], 46435.02218
 Component Sizing Information, Coil:Cooling:DX:SingleSpeed, COIL COOLING DX SINGLE SPEED 2 158KBTU/HR 9.3EER, Design Size Gross Rated Sensible Heat Ratio, 0.80066
! <DX Cooling Coil Standard Rating Information>, Component Type, Component Name, Standard Rating (Net) Cooling Capacity {W}, Standard Rated Net COP {W/W}, EER {Btu/W-h}, SEER {Btu/W-h}, IEER {Btu/W-h}
 DX Cooling Coil Standard Rating Information, Coil:Cooling:DX:SingleSpeed, COIL COOLING DX SINGLE SPEED 2 158KBTU/HR 9.3EER, 44254.5, 2.70, 9.20, 9.71, 9.21
 Component Sizing Information, Coil:Heating:Electric, COIL HEATING ELECTRIC 1, Design Size Nominal Capacity [W], 69153.68030
 Component Sizing Information, Fan:ConstantVolume, FAN CONSTANT VOLUME 2, Design Size Maximum Flow Rate [m3/s], 2.80514
 Component Sizing Information, ZoneHVAC:Baseboard:Convective:Water, ZONE HVAC BASEBOARD CONVECTIVE WATER 1, Design Size Maximum Water Flow Rate [m3/s], 1.88375E-004
 Component Sizing Information, ZoneHVAC:Baseboard:Convective:Water, ZONE HVAC BASEBOARD CONVECTIVE WATER 1, Design Size U-Factor Times Area Value [W/K], 382.14754
 Component Sizing Information, AirTerminal:SingleDuct:Uncontrolled, AIR TERMINAL SINGLE DUCT UNCONTROLLED 1, Design Size Maximum Air Flow Rate [m3/s], 0.74295
 Component Sizing Information, ZoneHVAC:PackagedTerminalAirConditioner, SP-DWELLING UNITS LONG-TERM-SPACE FUNCTION SYS-1 FLR-2 SCH-J HPLCMT-SOUTH ZN PTAC, Design Size Cooling Supply Air Flow Rate [m3/s], 2.01281
 Component Sizing Information, ZoneHVAC:PackagedTerminalAirConditioner, SP-DWELLING UNITS LONG-TERM-SPACE FUNCTION SYS-1 FLR-2 SCH-J HPLCMT-SOUTH ZN PTAC, Design Size Heating Supply Air Flow Rate [m3/s], 2.01281
 Component Sizing Information, ZoneHVAC:PackagedTerminalAirConditioner, SP-DWELLING UNITS LONG-TERM-SPACE FUNCTION SYS-1 FLR-2 SCH-J HPLCMT-SOUTH ZN PTAC, Design Size No Load Supply Air Flow Rate [m3/s], 2.01281
 Component Sizing Information, ZoneHVAC:PackagedTerminalAirConditioner, SP-DWELLING UNITS LONG-TERM-SPACE FUNCTION SYS-1 FLR-2 SCH-J HPLCMT-SOUTH ZN PTAC, Design Size Outdoor Air Flow Rate During Cooling Operation [m3/s], 1.04775
 Component Sizing Information, ZoneHVAC:PackagedTerminalAirConditioner, SP-DWELLING UNITS LONG-TERM-SPACE FUNCTION SYS-1 FLR-2 SCH-J HPLCMT-SOUTH ZN PTAC, Design Size Outdoor Air Flow Rate During Heating Operation [m3/s], 1.04775
 Component Sizing Information, ZoneHVAC:PackagedTerminalAirConditioner, SP-DWELLING UNITS LONG-TERM-SPACE FUNCTION SYS-1 FLR-2 SCH-J HPLCMT-SOUTH ZN PTAC, Design Size Outdoor Air Flow Rate When No Cooling or Heating is Needed [m3/s], 1.04775
 Component Sizing Information, Coil:Cooling:DX:SingleSpeed, COIL COOLING DX SINGLE SPEED 3 114KBTU/HR 9.3EER, Design Size Rated Air Flow Rate [m3/s], 2.01281
 Component Sizing Information, Coil:Cooling:DX:SingleSpeed, COIL COOLING DX SINGLE SPEED 3 114KBTU/HR 9.3EER, Design Size Gross Rated Total Cooling Capacity [W], 33434.42785
 Component Sizing Information, Coil:Cooling:DX:SingleSpeed, COIL COOLING DX SINGLE SPEED 3 114KBTU/HR 9.3EER, Design Size Gross Rated Sensible Heat Ratio, 0.80039
 DX Cooling Coil Standard Rating Information, Coil:Cooling:DX:SingleSpeed, COIL COOLING DX SINGLE SPEED 3 114KBTU/HR 9.3EER, 31869.8, 2.68, 9.13, 9.64, 9.14
 Component Sizing Information, Coil:Heating:Electric, COIL HEATING ELECTRIC 2, Design Size Nominal Capacity [W], 97524.42093
 Component Sizing Information, Fan:ConstantVolume, FAN CONSTANT VOLUME 3, Design Size Maximum Flow Rate [m3/s], 2.01281
 Component Sizing Information, ZoneHVAC:Baseboard:Convective:Water, ZONE HVAC BASEBOARD CONVECTIVE WATER 2, Design Size Maximum Water Flow Rate [m3/s], 1.11020E-004
 Component Sizing Information, ZoneHVAC:Baseboard:Convective:Water, ZONE HVAC BASEBOARD CONVECTIVE WATER 2, Design Size U-Factor Times Area Value [W/K], 225.44976
 Component Sizing Information, AirTerminal:SingleDuct:Uncontrolled, AIR TERMINAL SINGLE DUCT UNCONTROLLED 2, Design Size Maximum Air Flow Rate [m3/s], 1.04775
 Component Sizing Information, AirTerminal:SingleDuct:Uncontrolled, AIR TERMINAL SINGLE DUCT UNCONTROLLED 17, Design Size Maximum Air Flow Rate [m3/s], 8.18533
 Component Sizing Information, ZoneHVAC:Baseboard:Convective:Water, ZONE HVAC BASEBOARD CONVECTIVE WATER 17, Design Size Maximum Water Flow Rate [m3/s], 9.95180E-004
 Component Sizing Information, ZoneHVAC:Baseboard:Convective:Water, ZONE HVAC BASEBOARD CONVECTIVE WATER 17, Design Size U-Factor Times Area Value [W/K], 2031.18069
 Component Sizing Information, AirTerminal:SingleDuct:Uncontrolled, AIR TERMINAL SINGLE DUCT UNCONTROLLED 16, Design Size Maximum Air Flow Rate [m3/s], 5.06877
 Component Sizing Information, ZoneHVAC:Baseboard:Convective:Water, ZONE HVAC BASEBOARD CONVECTIVE WATER 16, Design Size Maximum Water Flow Rate [m3/s], 8.31477E-004
 Component Sizing Information, ZoneHVAC:Baseboard:Convective:Water, ZONE HVAC BASEBOARD CONVECTIVE WATER 16, Design Size U-Factor Times Area Value [W/K], 1696.70162
 Component Sizing Information, AirTerminal:SingleDuct:Uncontrolled, AIR TERMINAL SINGLE DUCT UNCONTROLLED 18, Design Size Maximum Air Flow Rate [m3/s], 0.66675
 Component Sizing Information, ZoneHVAC:Baseboard:Convective:Water, ZONE HVAC BASEBOARD CONVECTIVE WATER 18, Design Size Maximum Water Flow Rate [m3/s], 0.00000
 Component Sizing Information, ZoneHVAC:Baseboard:Convective:Water, ZONE HVAC BASEBOARD CONVECTIVE WATER 18, Design Size U-Factor Times Area Value [W/K], 0.00000
 Component Sizing Information, AirTerminal:SingleDuct:Uncontrolled, AIR TERMINAL SINGLE DUCT UNCONTROLLED 12, Design Size Maximum Air Flow Rate [m3/s], 3.32440
 Component Sizing Information, ZoneHVAC:Baseboard:Convective:Water, ZONE HVAC BASEBOARD CONVECTIVE WATER 12, Design Size Maximum Water Flow Rate [m3/s], 1.34789E-004
 Component Sizing Information, ZoneHVAC:Baseboard:Convective:Water, ZONE HVAC BASEBOARD CONVECTIVE WATER 12, Design Size U-Factor Times Area Value [W/K], 273.76204
 Component Sizing Information, AirTerminal:SingleDuct:Uncontrolled, AIR TERMINAL SINGLE DUCT UNCONTROLLED 13, Design Size Maximum Air Flow Rate [m3/s], 3.12650
 Component Sizing Information, ZoneHVAC:Baseboard:Convective:Water, ZONE HVAC BASEBOARD CONVECTIVE WATER 13, Design Size Maximum Water Flow Rate [m3/s], 4.85637E-004
 Component Sizing Information, ZoneHVAC:Baseboard:Convective:Water, ZONE HVAC BASEBOARD CONVECTIVE WATER 13, Design Size U-Factor Times Area Value [W/K], 990.96524
 Component Sizing Information, AirTerminal:SingleDuct:Uncontrolled, AIR TERMINAL SINGLE DUCT UNCONTROLLED 11, Design Size Maximum Air Flow Rate [m3/s], 2.54104
 Component Sizing Information, ZoneHVAC:Baseboard:Convective:Water, ZONE HVAC BASEBOARD CONVECTIVE WATER 11, Design Size Maximum Water Flow Rate [m3/s], 7.19549E-004
 Component Sizing Information, ZoneHVAC:Baseboard:Convective:Water, ZONE HVAC BASEBOARD CONVECTIVE WATER 11, Design Size U-Factor Times Area Value [W/K], 1468.28249
 Component Sizing Information, AirTerminal:SingleDuct:Uncontrolled, AIR TERMINAL SINGLE DUCT UNCONTROLLED 9, Design Size Maximum Air Flow Rate [m3/s], 0.89020
 Component Sizing Information, ZoneHVAC:Baseboard:Convective:Water, ZONE HVAC BASEBOARD CONVECTIVE WATER 9, Design Size Maximum Water Flow Rate [m3/s], 6.03825E-005
 Component Sizing Information, ZoneHVAC:Baseboard:Convective:Water, ZONE HVAC BASEBOARD CONVECTIVE WATER 9, Design Size U-Factor Times Area Value [W/K], 122.72725
 Component Sizing Information, AirTerminal:SingleDuct:Uncontrolled, AIR TERMINAL SINGLE DUCT UNCONTROLLED 10, Design Size Maximum Air Flow Rate [m3/s], 0.96407
 Component Sizing Information, ZoneHVAC:Baseboard:Convective:Water, ZONE HVAC BASEBOARD CONVECTIVE WATER 10, Design Size Maximum Water Flow Rate [m3/s], 6.82977E-005
 Component Sizing Information, ZoneHVAC:Baseboard:Convective:Water, ZONE HVAC BASEBOARD CONVECTIVE WATER 10, Design Size U-Factor Times Area Value [W/K], 138.81167
 Component Sizing Information, AirTerminal:SingleDuct:Uncontrolled, AIR TERMINAL SINGLE DUCT UNCONTROLLED 20, Design Size Maximum Air Flow Rate [m3/s], 5.07303
 Component Sizing Information, ZoneHVAC:Baseboard:Convective:Water, ZONE HVAC BASEBOARD CONVECTIVE WATER 20, Design Size Maximum Water Flow Rate [m3/s], 1.11130E-003
 Component Sizing Information, ZoneHVAC:Baseboard:Convective:Water, ZONE HVAC BASEBOARD CONVECTIVE WATER 20, Design Size U-Factor Times Area Value [W/K], 2267.96505
 Component Sizing Information, AirTerminal:SingleDuct:Uncontrolled, AIR TERMINAL SINGLE DUCT UNCONTROLLED 6, Design Size Maximum Air Flow Rate [m3/s], 0.82753
 Component Sizing Information, ZoneHVAC:Baseboard:Convective:Water, ZONE HVAC BASEBOARD CONVECTIVE WATER 6, Design Size Maximum Water Flow Rate [m3/s], 3.15614E-005
 Component Sizing Information, ZoneHVAC:Baseboard:Convective:Water, ZONE HVAC BASEBOARD CONVECTIVE WATER 6, Design Size U-Factor Times Area Value [W/K], 63.92940
 Component Sizing Information, AirTerminal:SingleDuct:Uncontrolled, AIR TERMINAL SINGLE DUCT UNCONTROLLED 15, Design Size Maximum Air Flow Rate [m3/s], 3.24863
 Component Sizing Information, ZoneHVAC:Baseboard:Convective:Water, ZONE HVAC BASEBOARD CONVECTIVE WATER 15, Design Size Maximum Water Flow Rate [m3/s], 4.81134E-004
 Component Sizing Information, ZoneHVAC:Baseboard:Convective:Water, ZONE HVAC BASEBOARD CONVECTIVE WATER 15, Design Size U-Factor Times Area Value [W/K], 981.00688
 Component Sizing Information, AirTerminal:SingleDuct:Uncontrolled, AIR TERMINAL SINGLE DUCT UNCONTROLLED 8, Design Size Maximum Air Flow Rate [m3/s], 1.00067
 Component Sizing Information, ZoneHVAC:Baseboard:Convective:Water, ZONE HVAC BASEBOARD CONVECTIVE WATER 8, Design Size Maximum Water Flow Rate [m3/s], 4.13569E-005
 Component Sizing Information, ZoneHVAC:Baseboard:Convective:Water, ZONE HVAC BASEBOARD CONVECTIVE WATER 8, Design Size U-Factor Times Area Value [W/K], 84.47823
 Component Sizing Information, AirTerminal:SingleDuct:Uncontrolled, AIR TERMINAL SINGLE DUCT UNCONTROLLED 7, Design Size Maximum Air Flow Rate [m3/s], 1.13751
 Component Sizing Information, ZoneHVAC:Baseboard:Convective:Water, ZONE HVAC BASEBOARD CONVECTIVE WATER 7, Design Size Maximum Water Flow Rate [m3/s], 0.00000
 Component Sizing Information, ZoneHVAC:Baseboard:Convective:Water, ZONE HVAC BASEBOARD CONVECTIVE WATER 7, Design Size U-Factor Times Area Value [W/K], 0.00000
 Component Sizing Information, AirTerminal:SingleDuct:Uncontrolled, AIR TERMINAL SINGLE DUCT UNCONTROLLED 19, Design Size Maximum Air Flow Rate [m3/s], 0.88900
[...]
 DX Cooling Coil Standard Rating Information, Coil:Cooling:DX:SingleSpeed, COIL COOLING DX SINGLE SPEED 14 177KBTU/HR 9.08EER, 49324.4, 2.65, 9.04, 9.54, 9.06
 Component Sizing Information, Coil:Heating:Fuel, COIL HEATING GAS 11, Design Size Nominal Capacity [W], 121756.62822
 Component Sizing Information, Fan:ConstantVolume, FAN CONSTANT VOLUME 14, Design Size Maximum Flow Rate [m3/s], 3.12650
 Component Sizing Information, Controller:OutdoorAir, CONTROLLER OUTDOOR AIR 10, Maximum Outdoor Air Flow Rate [m3/s], 2.54104
 Component Sizing Information, Controller:OutdoorAir, CONTROLLER OUTDOOR AIR 10, Minimum Outdoor Air Flow Rate [m3/s], 0.66675
 Component Sizing Information, Coil:Cooling:DX:SingleSpeed, COIL COOLING DX SINGLE SPEED 12 144KBTU/HR 9.08EER, Design Size Rated Air Flow Rate [m3/s], 2.54104
 Component Sizing Information, Coil:Cooling:DX:SingleSpeed, COIL COOLING DX SINGLE SPEED 12 144KBTU/HR 9.08EER, Design Size Gross Rated Total Cooling Capacity [W], 42063.27365
 Component Sizing Information, Coil:Cooling:DX:SingleSpeed, COIL COOLING DX SINGLE SPEED 12 144KBTU/HR 9.08EER, Design Size Gross Rated Sensible Heat Ratio, 0.80066
 DX Cooling Coil Standard Rating Information, Coil:Cooling:DX:SingleSpeed, COIL COOLING DX SINGLE SPEED 12 144KBTU/HR 9.08EER, 40088.1, 2.63, 8.98, 9.48, 9.01
 Component Sizing Information, Coil:Heating:Fuel, COIL HEATING GAS 9, Design Size Nominal Capacity [W], 107208.91857
 Component Sizing Information, Fan:ConstantVolume, FAN CONSTANT VOLUME 12, Design Size Maximum Flow Rate [m3/s], 2.54104
 Component Sizing Information, Controller:OutdoorAir, CONTROLLER OUTDOOR AIR 8, Maximum Outdoor Air Flow Rate [m3/s], 0.89020
 Component Sizing Information, Controller:OutdoorAir, CONTROLLER OUTDOOR AIR 8, Minimum Outdoor Air Flow Rate [m3/s], 0.66675
 Component Sizing Information, Coil:Cooling:DX:SingleSpeed, COIL COOLING DX SINGLE SPEED 10 52KBTU/HR 14.0SEER, Design Size Rated Air Flow Rate [m3/s], 0.89020
 Component Sizing Information, Coil:Cooling:DX:SingleSpeed, COIL COOLING DX SINGLE SPEED 10 52KBTU/HR 14.0SEER, Design Size Gross Rated Total Cooling Capacity [W], 16423.62766
 Component Sizing Information, Coil:Cooling:DX:SingleSpeed, COIL COOLING DX SINGLE SPEED 10 52KBTU/HR 14.0SEER, Design Size Gross Rated Sensible Heat Ratio, 0.80087
 DX Cooling Coil Standard Rating Information, Coil:Cooling:DX:SingleSpeed, COIL COOLING DX SINGLE SPEED 10 52KBTU/HR 14.0SEER, 15731.3, 3.16, 10.78, 11.36, 10.73
 Component Sizing Information, Coil:Heating:Fuel, COIL HEATING GAS 7, Design Size Nominal Capacity [W], 66628.14486
 Component Sizing Information, Fan:ConstantVolume, FAN CONSTANT VOLUME 10, Design Size Maximum Flow Rate [m3/s], 0.89020
 Component Sizing Information, Controller:OutdoorAir, CONTROLLER OUTDOOR AIR 9, Maximum Outdoor Air Flow Rate [m3/s], 0.96407
 Component Sizing Information, Controller:OutdoorAir, CONTROLLER OUTDOOR AIR 9, Minimum Outdoor Air Flow Rate [m3/s], 0.66675
 Component Sizing Information, Coil:Cooling:DX:SingleSpeed, COIL COOLING DX SINGLE SPEED 11 55KBTU/HR 14.0SEER, Design Size Rated Air Flow Rate [m3/s], 0.96407
 Component Sizing Information, Coil:Cooling:DX:SingleSpeed, COIL COOLING DX SINGLE SPEED 11 55KBTU/HR 14.0SEER, Design Size Gross Rated Total Cooling Capacity [W], 17416.52945
 Component Sizing Information, Coil:Cooling:DX:SingleSpeed, COIL COOLING DX SINGLE SPEED 11 55KBTU/HR 14.0SEER, Design Size Gross Rated Sensible Heat Ratio, 0.80088
 DX Cooling Coil Standard Rating Information, Coil:Cooling:DX:SingleSpeed, COIL COOLING DX SINGLE SPEED 11 55KBTU/HR 14.0SEER, 16666.8, 3.15, 10.73, 11.32, 10.66
 Component Sizing Information, Coil:Heating:Fuel, COIL HEATING GAS 8, Design Size Nominal Capacity [W], 68446.58028
 Component Sizing Information, Fan:ConstantVolume, FAN CONSTANT VOLUME 11, Design Size Maximum Flow Rate [m3/s], 0.96407
 Component Sizing Information, Controller:OutdoorAir, CONTROLLER OUTDOOR AIR 19, Maximum Outdoor Air Flow Rate [m3/s], 5.07303
 Component Sizing Information, Controller:OutdoorAir, CONTROLLER OUTDOOR AIR 19, Minimum Outdoor Air Flow Rate [m3/s], 0.66675
 Component Sizing Information, Coil:Cooling:DX:SingleSpeed, COIL COOLING DX SINGLE SPEED 21 287KBTU/HR 8.21EER, Design Size Rated Air Flow Rate [m3/s], 5.07303
 Component Sizing Information, Coil:Cooling:DX:SingleSpeed, COIL COOLING DX SINGLE SPEED 21 287KBTU/HR 8.21EER, Design Size Gross Rated Total Cooling Capacity [W], 83976.69018
 Component Sizing Information, Coil:Cooling:DX:SingleSpeed, COIL COOLING DX SINGLE SPEED 21 287KBTU/HR 8.21EER, Design Size Gross Rated Sensible Heat Ratio, 0.80066
 DX Cooling Coil Standard Rating Information, Coil:Cooling:DX:SingleSpeed, COIL COOLING DX SINGLE SPEED 21 287KBTU/HR 8.21EER, 80033.3, 2.48, 8.46, 8.93, 8.53
 Component Sizing Information, Coil:Heating:Fuel, COIL HEATING GAS 18, Design Size Nominal Capacity [W], 168962.49465
 Component Sizing Information, Fan:ConstantVolume, FAN CONSTANT VOLUME 21, Design Size Maximum Flow Rate [m3/s], 5.07303
 Component Sizing Information, Controller:OutdoorAir, CONTROLLER OUTDOOR AIR 5, Maximum Outdoor Air Flow Rate [m3/s], 0.82753
 Component Sizing Information, Controller:OutdoorAir, CONTROLLER OUTDOOR AIR 5, Minimum Outdoor Air Flow Rate [m3/s], 0.66675
 Component Sizing Information, Coil:Cooling:DX:SingleSpeed, COIL COOLING DX SINGLE SPEED 7 47KBTU/HR 14.0SEER, Design Size Rated Air Flow Rate [m3/s], 0.82753
 Component Sizing Information, Coil:Cooling:DX:SingleSpeed, COIL COOLING DX SINGLE SPEED 7 47KBTU/HR 14.0SEER, Design Size Gross Rated Total Cooling Capacity [W], 13698.51793
 Component Sizing Information, Coil:Cooling:DX:SingleSpeed, COIL COOLING DX SINGLE SPEED 7 47KBTU/HR 14.0SEER, Design Size Gross Rated Sensible Heat Ratio, 0.80066
 DX Cooling Coil Standard Rating Information, Coil:Cooling:DX:SingleSpeed, COIL COOLING DX SINGLE SPEED 7 47KBTU/HR 14.0SEER, 13055.3, 3.09, 10.55, 11.12, 10.40
 Component Sizing Information, Coil:Heating:Fuel, COIL HEATING GAS 4, Design Size Nominal Capacity [W], 65067.12395
 Component Sizing Information, Fan:ConstantVolume, FAN CONSTANT VOLUME 7, Design Size Maximum Flow Rate [m3/s], 0.82753
 Component Sizing Information, Controller:OutdoorAir, CONTROLLER OUTDOOR AIR 14, Maximum Outdoor Air Flow Rate [m3/s], 3.24863
 Component Sizing Information, Controller:OutdoorAir, CONTROLLER OUTDOOR AIR 14, Minimum Outdoor Air Flow Rate [m3/s], 0.66675
 Component Sizing Information, Coil:Cooling:DX:SingleSpeed, COIL COOLING DX SINGLE SPEED 16 183KBTU/HR 9.08EER, Design Size Rated Air Flow Rate [m3/s], 3.24863
 Component Sizing Information, Coil:Cooling:DX:SingleSpeed, COIL COOLING DX SINGLE SPEED 16 183KBTU/HR 9.08EER, Design Size Gross Rated Total Cooling Capacity [W], 53776.42775
 Component Sizing Information, Coil:Cooling:DX:SingleSpeed, COIL COOLING DX SINGLE SPEED 16 183KBTU/HR 9.08EER, Design Size Gross Rated Sensible Heat Ratio, 0.80066
 DX Cooling Coil Standard Rating Information, Coil:Cooling:DX:SingleSpeed, COIL COOLING DX SINGLE SPEED 16 183KBTU/HR 9.08EER, 51251.2, 2.65, 9.05, 9.56, 9.07
 Component Sizing Information, Coil:Heating:Fuel, COIL HEATING GAS 13, Design Size Nominal Capacity [W], 125179.77914
 Component Sizing Information, Fan:ConstantVolume, FAN CONSTANT VOLUME 16, Design Size Maximum Flow Rate [m3/s], 3.24863
 Component Sizing Information, Controller:OutdoorAir, CONTROLLER OUTDOOR AIR 7, Maximum Outdoor Air Flow Rate [m3/s], 1.00067
 Component Sizing Information, Controller:OutdoorAir, CONTROLLER OUTDOOR AIR 7, Minimum Outdoor Air Flow Rate [m3/s], 0.66675
 Component Sizing Information, Coil:Cooling:DX:SingleSpeed, COIL COOLING DX SINGLE SPEED 9 59KBTU/HR 14.0SEER, Design Size Rated Air Flow Rate [m3/s], 1.00067
 Component Sizing Information, Coil:Cooling:DX:SingleSpeed, COIL COOLING DX SINGLE SPEED 9 59KBTU/HR 14.0SEER, Design Size Gross Rated Total Cooling Capacity [W], 18556.91549
 Component Sizing Information, Coil:Cooling:DX:SingleSpeed, COIL COOLING DX SINGLE SPEED 9 59KBTU/HR 14.0SEER, Design Size Gross Rated Sensible Heat Ratio, 0.80018
 DX Cooling Coil Standard Rating Information, Coil:Cooling:DX:SingleSpeed, COIL COOLING DX SINGLE SPEED 9 59KBTU/HR 14.0SEER, 17778.6, 3.16, 10.79, 11.37, 10.74
 Component Sizing Information, Coil:Heating:Fuel, COIL HEATING GAS 6, Design Size Nominal Capacity [W], 69322.00129
 Component Sizing Information, Fan:ConstantVolume, FAN CONSTANT VOLUME 9, Design Size Maximum Flow Rate [m3/s], 1.00067
 Component Sizing Information, Controller:OutdoorAir, CONTROLLER OUTDOOR AIR 6, Maximum Outdoor Air Flow Rate [m3/s], 1.13751
 Component Sizing Information, Controller:OutdoorAir, CONTROLLER OUTDOOR AIR 6, Minimum Outdoor Air Flow Rate [m3/s], 0.88900
 Component Sizing Information, Coil:Cooling:DX:SingleSpeed, COIL COOLING DX SINGLE SPEED 8 64KBTU/HR 14.0SEER, Design Size Rated Air Flow Rate [m3/s], 1.13751
 Component Sizing Information, Coil:Cooling:DX:SingleSpeed, COIL COOLING DX SINGLE SPEED 8 64KBTU/HR 14.0SEER, Design Size Gross Rated Total Cooling Capacity [W], 18829.88728
 Component Sizing Information, Coil:Cooling:DX:SingleSpeed, COIL COOLING DX SINGLE SPEED 8 64KBTU/HR 14.0SEER, Design Size Gross Rated Sensible Heat Ratio, 0.80066
 DX Cooling Coil Standard Rating Information, Coil:Cooling:DX:SingleSpeed, COIL COOLING DX SINGLE SPEED 8 64KBTU/HR 14.0SEER, 17945.7, 3.09, 10.55, 11.12, 10.40
 Component Sizing Information, Coil:Heating:Fuel, COIL HEATING GAS 5, Design Size Nominal Capacity [W], 87586.73580
 Component Sizing Information, Fan:ConstantVolume, FAN CONSTANT VOLUME 8, Design Size Maximum Flow Rate [m3/s], 1.13751
 Component Sizing Information, Controller:OutdoorAir, CONTROLLER OUTDOOR AIR 18, Maximum Outdoor Air Flow Rate [m3/s], 0.88900
 Component Sizing Information, Controller:OutdoorAir, CONTROLLER OUTDOOR AIR 18, Minimum Outdoor Air Flow Rate [m3/s], 0.88900
 Component Sizing Information, Coil:Cooling:DX:SingleSpeed, COIL COOLING DX SINGLE SPEED 20 57KBTU/HR 14.0SEER, Design Size Rated Air Flow Rate [m3/s], 0.88900
 Component Sizing Information, Coil:Cooling:DX:SingleSpeed, COIL COOLING DX SINGLE SPEED 20 57KBTU/HR 14.0SEER, Design Size Gross Rated Total Cooling Capacity [W], 17876.25343
 Component Sizing Information, Coil:Cooling:DX:SingleSpeed, COIL COOLING DX SINGLE SPEED 20 57KBTU/HR 14.0SEER, Design Size Gross Rated Sensible Heat Ratio, 0.77066
 DX Cooling Coil Standard Rating Information, Coil:Cooling:DX:SingleSpeed, COIL COOLING DX SINGLE SPEED 20 57KBTU/HR 14.0SEER, 17184.5, 3.21, 10.94, 11.54, 10.97
 Component Sizing Information, Coil:Heating:Fuel, COIL HEATING GAS 17, Design Size Nominal Capacity [W], 81542.69506
 Component Sizing Information, Fan:ConstantVolume, FAN CONSTANT VOLUME 20, Design Size Maximum Flow Rate [m3/s], 0.88900
 Component Sizing Information, Controller:OutdoorAir, CONTROLLER OUTDOOR AIR 13, Maximum Outdoor Air Flow Rate [m3/s], 14.28750
 Component Sizing Information, Controller:OutdoorAir, CONTROLLER OUTDOOR AIR 13, Minimum Outdoor Air Flow Rate [m3/s], 14.28750
 Component Sizing Information, HeatExchanger:AirToAir:SensibleAndLatent, SYS_4_PSZ_SP-VEHICLE MAINTENANCE AREA-SPACE FUNCTION SYS-4 FLR-3 SCH-E HPLCMT-WEST ZN ERV, Design Size Nominal Supply Air Flow Rate [m3/s], 14.28750
 Component Sizing Information, Coil:Cooling:DX:SingleSpeed, COIL COOLING DX SINGLE SPEED 15 807KBTU/HR 7.94EER, Design Size Rated Air Flow Rate [m3/s], 14.28750
 Component Sizing Information, Coil:Cooling:DX:SingleSpeed, COIL COOLING DX SINGLE SPEED 15 807KBTU/HR 7.94EER, Design Size Gross Rated Total Cooling Capacity [W], 242128.72004
 Component Sizing Information, Coil:Cooling:DX:SingleSpeed, COIL COOLING DX SINGLE SPEED 15 807KBTU/HR 7.94EER, Design Size Gross Rated Sensible Heat Ratio, 0.80012
 DX Cooling Coil Standard Rating Information, Coil:Cooling:DX:SingleSpeed, COIL COOLING DX SINGLE SPEED 15 807KBTU/HR 7.94EER, 231021.4, 2.65, 9.06, 9.56, 9.10
 Component Sizing Information, Coil:Heating:Fuel, COIL HEATING GAS 12, Design Size Nominal Capacity [W], 1310507.59921
 Component Sizing Information, Fan:ConstantVolume, FAN CONSTANT VOLUME 15, Design Size Maximum Flow Rate [m3/s], 14.28750
Water Heater Information,WaterHeater:Mixed,600GAL NATURALGAS WATER HEATER - 888KBTU/HR 0.803 THERM EFF,2.2722,260378.7,0.311,0.3100
 Component Sizing Information, PlantLoop, HOT WATER LOOP, Maximum Loop Flow Rate [m3/s], 8.85426E-003
 Component Sizing Information, PlantLoop, HOT WATER LOOP, Plant Loop Volume [m3], 1.06251
 Component Sizing Information, Pump:VariableSpeed, PUMP VARIABLE SPEED 1, Design Flow Rate [m3/s], 8.85426E-003
 Component Sizing Information, Pump:VariableSpeed, PUMP VARIABLE SPEED 1, Design Power Consumption [W], 2664.77765
 Component Sizing Information, Boiler:HotWater, PRIMARY BOILER 2031KBTU/HR 0.83 THERMAL EFF, Design Size Nominal Capacity [W], 595115.48166
 Component Sizing Information, Boiler:HotWater, PRIMARY BOILER 2031KBTU/HR 0.83 THERMAL EFF, User-Specified Nominal Capacity [W], 595115.48166
 Component Sizing Information, Boiler:HotWater, PRIMARY BOILER 2031KBTU/HR 0.83 THERMAL EFF, Design Size Design Water Flow Rate [m3/s], 8.85426E-003
 Component Sizing Information, Boiler:HotWater, SECONDARY BOILER 0KBTU/HR 0.85 AFUE, Design Size Nominal Capacity [W], 595115.48166
 Component Sizing Information, Boiler:HotWater, SECONDARY BOILER 0KBTU/HR 0.85 AFUE, User-Specified Nominal Capacity [W], 1.00000E-003
 Component Sizing Information, Boiler:HotWater, SECONDARY BOILER 0KBTU/HR 0.85 AFUE, Design Size Design Water Flow Rate [m3/s], 8.85426E-003
 Component Sizing Information, PlantLoop, MAIN SERVICE WATER LOOP, Maximum Loop Flow Rate [m3/s], 1.16017E-003
 Component Sizing Information, PlantLoop, MAIN SERVICE WATER LOOP, Plant Loop Volume [m3], 0.13922
 Component Sizing Information, Pump:ConstantSpeed, SERVICE WATER LOOP PUMP, Design Flow Rate [m3/s], 1.16017E-003
 Component Sizing Information, Pump:ConstantSpeed, SERVICE WATER LOOP PUMP, Design Power Consumption [W], 1432.43506
 Component Sizing Information, WaterHeater:Mixed, 600GAL NATURALGAS WATER HEATER - 888KBTU/HR 0.803 THERM EFF, Use Side Design Flow Rate [m3/s], 1.16017E-003
! <Environment>,Environment Name,Environment Type, Start Date, End Date, Start DayOfWeek, Duration {#days}, Source:Start DayOfWeek,  Use Daylight Saving, Use Holidays, Apply Weekend Holiday Rule,  Use Rain Values, Use Snow Values
! <Environment:Special Days>, Special Day Name, Special Day Type, Source, Start Date, Duration {#days}
! <Environment:Daylight Saving>, Daylight Saving Indicator, Source, Start Date, End Date
! <Environment:WarmupDays>, NumberofWarmupDays
Environment,RUN PERIOD 1,WeatherFileRunPeriod,01/01,12/31,Sunday,365,Use RunPeriod Specified Day,No,No,No,Yes,Yes
Environment:Daylight Saving,No,RunPeriod Object
Environment:WarmupDays, 12
! <Tabular Report>,Style,Unit Conversion
Tabular Report,HTML,None
! <Warmup Convergence Information>,Zone Name,Environment Type/Name,Average Warmup Temperature Difference {deltaC},Std Dev Warmup Temperature Difference {deltaC},Max Temperature Pass/Fail Convergence,Min Temperature Pass/Fail Convergence,Average Warmup Load Difference {W},Std Dev Warmup Load Difference {W},Heating Load Pass/Fail Convergence,Cooling Load Pass/Fail Convergence
 Warmup Convergence Information,SP-CONVENTION CENTRE EXHIBIT SPACE-SPACE FUNCTION SYS-3 FLR-2 SCH-C HPLCMT-NORTH ZN,RunPeriod: RUN PERIOD 1,4.6349841148E-002,0.1742105399,Pass,Pass,3.3144542953E-002,0.1295840974,Pass,Pass
 Warmup Convergence Information,SP-DORMITORY LIVING QUARTERS-SPACE FUNCTION SYS-3 FLR-2 SCH-G HPLCMT-EAST ZN,RunPeriod: RUN PERIOD 1,4.5422999108E-002,0.1925935675,Pass,Pass,0.3547123574,1.1113099183,Pass,Pass
 Warmup Convergence Information,SP-DWELLING UNITS GENERAL-SPACE FUNCTION SYS-1 FLR-2 SCH-G HPLCMT-WEST ZN,RunPeriod: RUN PERIOD 1,2.4338367889E-002,2.9148746630E-002,Pass,Pass,0.6990849498,3.8705132462,Pass,Pass
 Warmup Convergence Information,SP-DWELLING UNITS LONG-TERM-SPACE FUNCTION SYS-1 FLR-2 SCH-J HPLCMT-SOUTH ZN,RunPeriod: RUN PERIOD 1,2.6743933182E-002,2.7572650341E-002,Pass,Pass,3.0121852166E-002,6.1634399806E-002,Pass,Pass
 Warmup Convergence Information,SP-STORAGE ROOM <= 5 M2 <= 100 M2-SCH-I-SPACE FUNCTION SYS-4 FLR-4 SCH-I HPLCMT-SOUTH ZN,RunPeriod: RUN PERIOD 1,7.7976824318E-002,0.2494566421,Pass,Pass,0.2986527574,1.5448234845,Pass,Pass
 Warmup Convergence Information,SP-STORAGE ROOM <= 5 M2 <= 100 M2-SCH-J-SPACE FUNCTION SYS-4 FLR-4 SCH-J HPLCMT-EAST ZN,RunPeriod: RUN PERIOD 1,1.0174433427E-005,1.8667323166E-005,Pass,Pass,4.5309490592E-002,7.2457764842E-002,Pass,Pass
 Warmup Convergence Information,SP-STORAGE ROOM <= 5 M2 <= 100 M2-SCH-K-SPACE FUNCTION SYS-4 FLR-4 SCH-K HPLCMT-NORTH ZN,RunPeriod: RUN PERIOD 1,5.2510678316E-002,4.0782707567E-002,Pass,Pass,1.2576750775E-002,6.9632245723E-002,Pass,Pass
 Warmup Convergence Information,SP-STORAGE ROOM > 100 M2-SCH-A-SPACE FUNCTION SYS-4 FLR-3 SCH-A HPLCMT-CORE ZN,RunPeriod: RUN PERIOD 1,2.9723876431E-003,2.5535198884E-003,Pass,Pass,0.0000000000,0.0000000000,Pass,Pass
 Warmup Convergence Information,SP-STORAGE ROOM > 100 M2-SCH-B-SPACE FUNCTION SYS-4 FLR-3 SCH-B HPLCMT-EAST ZN,RunPeriod: RUN PERIOD 1,4.0796796215E-002,0.1571046054,Pass,Pass,0.3028679519,1.1294600746,Pass,Pass
 Warmup Convergence Information,SP-STORAGE ROOM > 100 M2-SCH-C-SPACE FUNCTION SYS-4 FLR-3 SCH-C HPLCMT-NORTH ZN,RunPeriod: RUN PERIOD 1,3.3848495985E-002,0.1504128074,Pass,Pass,3.1264314602E-002,9.2373936798E-002,Pass,Pass
 Warmup Convergence Information,SP-STORAGE ROOM > 100 M2-SCH-D-SPACE FUNCTION SYS-4 FLR-1 SCH-D HPLCMT-WEST ZN,RunPeriod: RUN PERIOD 1,1.7100184410E-003,1.2861338656E-003,Pass,Pass,0.0000000000,0.0000000000,Pass,Pass
 Warmup Convergence Information,SP-STORAGE ROOM > 100 M2-SCH-E-SPACE FUNCTION SYS-4 FLR-1 SCH-E HPLCMT-EAST ZN,RunPeriod: RUN PERIOD 1,2.9043723994E-003,1.9328601447E-003,Pass,Pass,0.0000000000,0.0000000000,Pass,Pass
 Warmup Convergence Information,SP-STORAGE ROOM > 100 M2-SCH-F-SPACE FUNCTION SYS-4 FLR-4 SCH-F HPLCMT-WEST ZN,RunPeriod: RUN PERIOD 1,5.5621401134E-002,0.2700524359,Pass,Pass,9.7446115011E-002,0.3400425093,Pass,Pass
 Warmup Convergence Information,SP-STORAGE ROOM > 100 M2-SCH-G-SPACE FUNCTION SYS-4 FLR-1 SCH-G HPLCMT-SOUTH ZN,RunPeriod: RUN PERIOD 1,1.8554809992E-002,7.2325471738E-002,Pass,Pass,9.8881627067E-002,0.4085810766,Pass,Pass
 Warmup Convergence Information,SP-STORAGE ROOM > 100 M2-SCH-H-SPACE FUNCTION SYS-4 FLR-3 SCH-H HPLCMT-SOUTH ZN,RunPeriod: RUN PERIOD 1,5.2033688944E-002,0.1794794992,Pass,Pass,0.1585458412,0.4996532920,Pass,Pass
 Warmup Convergence Information,SP-STORAGE ROOM > 100 M2-SCH-I-SPACE FUNCTION SYS-4 FLR-1 SCH-I HPLCMT-NORTH ZN,RunPeriod: RUN PERIOD 1,7.8406602900E-003,3.9113926157E-002,Pass,Pass,0.3279139312,2.6372778684,Pass,Pass
 Warmup Convergence Information,SP-STORAGE ROOM > 100 M2-SCH-J-SPACE FUNCTION SYS-4 FLR-1 SCH-J HPLCMT-CORE ZN,RunPeriod: RUN PERIOD 1,2.0625938079E-005,3.7553507475E-005,Pass,Pass,2.2554150039E-002,6.5320033321E-002,Pass,Pass
 Warmup Convergence Information,SP-STORAGE ROOM > 100 M2-SCH-K-SPACE FUNCTION SYS-4 FLR-4 SCH-K HPLCMT-CORE ZN,RunPeriod: RUN PERIOD 1,5.0058223419E-002,4.3703977395E-002,Pass,Pass,1.1710020662E-002,7.1754307338E-002,Pass,Pass
 Warmup Convergence Information,SP-VEHICLE MAINTENANCE AREA-SPACE FUNCTION SYS-4 FLR-3 SCH-E HPLCMT-WEST ZN,RunPeriod: RUN PERIOD 1,1.7022199070E-002,2.0078678831E-002,Pass,Pass,0.0000000000,0.0000000000,Pass,Pass
 Warmup Convergence Information,SP-WORKSHOP-SPACE FUNCTION SYS-3 FLR-2 SCH-A HPLCMT-CORE ZN,RunPeriod: RUN PERIOD 1,1.6728149376E-003,1.2203252928E-003,Pass,Pass,0.0000000000,0.0000000000,Pass,Pass
! <Program Control Information:Threads/Parallel Sims>, Threading Supported,Maximum Number of Threads, Env Set Threads (OMP_NUM_THREADS), EP Env Set Threads (EP_OMP_NUM_THREADS), IDF Set Threads, Number of Threads Used (Interior Radiant Exchange), Number Nominal Surfaces, Number Parallel Sims
Program Control:Threads/Parallel Sims, No,1, N/A, N/A, N/A, N/A, N/A, N/A
End of Data
