Program Version,EnergyPlus, Version 8.9.0-eba93e8e1b, YMD=2019.04.04 18:00
! <Version>, Version ID
 Version, 8.9
! <Timesteps per Hour>, #TimeSteps, Minutes per TimeStep {minutes}
 Timesteps per Hour,  6, 10
! <System Convergence Limits>, Minimum System TimeStep {minutes}, Max HVAC Iterations, Minimum Plant Iterations, Maximum Plant Iterations
 System Convergence Limits, 1, 20, 2, 8
! <Simulation Control>, Do Zone Sizing, Do System Sizing, Do Plant Sizing, Do Design Days, Do Weather Simulation, Do HVAC Sizing Simulation
 Simulation Control, Yes, Yes, Yes, Yes, No, No
! <Output Reporting Tolerances>, Tolerance for Time Heating Setpoint Not Met, Tolerance for Zone Cooling Setpoint Not Met Time
 Output Reporting Tolerances, 1.000, 1.000, 
! <Site:GroundTemperature:BuildingSurface>,Jan{C},Feb{C},Mar{C},Apr{C},May{C},Jun{C},Jul{C},Aug{C},Sep{C},Oct{C},Nov{C},Dec{C}
 Site:GroundTemperature:BuildingSurface,  19.53,  19.50,  19.54,  19.60,  20.00,  21.64,  22.23,  22.38,  21.45,  20.12,  19.80,  19.63
! <Site:GroundTemperature:FCfactorMethod>,Jan{C},Feb{C},Mar{C},Apr{C},May{C},Jun{C},Jul{C},Aug{C},Sep{C},Oct{C},Nov{C},Dec{C}
 Site:GroundTemperature:FCfactorMethod, -12.27, -13.66, -11.19,  -7.33,   2.77,  10.57,  15.83,  17.43,  14.70,   8.65,   0.56,  -6.95
! <Site:GroundTemperature:Shallow>,Jan{C},Feb{C},Mar{C},Apr{C},May{C},Jun{C},Jul{C},Aug{C},Sep{C},Oct{C},Nov{C},Dec{C}
 Site:GroundTemperature:Shallow,  13.00,  13.00,  13.00,  13.00,  13.00,  13.00,  13.00,  13.00,  13.00,  13.00,  13.00,  13.00
! <Site:GroundTemperature:Deep>,Jan{C},Feb{C},Mar{C},Apr{C},May{C},Jun{C},Jul{C},Aug{C},Sep{C},Oct{C},Nov{C},Dec{C}
 Site:GroundTemperature:Deep,  16.00,  16.00,  16.00,  16.00,  16.00,  16.00,  16.00,  16.00,  16.00,  16.00,  16.00,  16.00
! <Site:GroundReflectance>,Jan{dimensionless},Feb{dimensionless},Mar{dimensionless},Apr{dimensionless},May{dimensionless},Jun{dimensionless},Jul{dimensionless},Aug{dimensionless},Sep{dimensionless},Oct{dimensionless},Nov{dimensionless},Dec{dimensionless}
 Site:GroundReflectance,  0.20,  0.20,  0.20,  0.20,  0.20,  0.20,  0.20,  0.20,  0.20,  0.20,  0.20,  0.20
! <Site:GroundReflectance:SnowModifier>, Normal, Daylighting {dimensionless}
 Site:GroundReflectance:SnowModifier,   1.000,   1.000
! <Site:GroundReflectance:Snow>,Jan{dimensionless},Feb{dimensionless},Mar{dimensionless},Apr{dimensionless},May{dimensionless},Jun{dimensionless},Jul{dimensionless},Aug{dimensionless},Sep{dimensionless},Oct{dimensionless},Nov{dimensionless},Dec{dimensionless}
 Site:GroundReflectance:Snow,  0.20,  0.20,  0.20,  0.20,  0.20,  0.20,  0.20,  0.20,  0.20,  0.20,  0.20,  0.20
! <Site:GroundReflectance:Snow:Daylighting>,Jan{dimensionless},Feb{dimensionless},Mar{dimensionless},Apr{dimensionless},May{dimensionless},Jun{dimensionless},Jul{dimensionless},Aug{dimensionless},Sep{dimensionless},Oct{dimensionless},Nov{dimensionless},Dec{dimensionless}
 Site:GroundReflectance:Snow:Daylighting,  0.20,  0.20,  0.20,  0.20,  0.20,  0.20,  0.20,  0.20,  0.20,  0.20,  0.20,  0.20
! <Environment:Weather Station>,Wind Sensor Height Above Ground {m},Wind Speed Profile Exponent {},Wind Speed Profile Boundary Layer Thickness {m},Air Temperature Sensor Height Above Ground {m},Wind Speed Modifier Coefficient-Internal,Temperature Modifier Coefficient-Internal
Environment:Weather Station,10.000,0.140,270.000,1.500,1.586,9.750E-003
! <Site:Location>, Location Name, Latitude {N+/S- Deg}, Longitude {E+/W- Deg},  Time Zone Number {GMT+/-}, Elevation {m},  Standard Pressure at Elevation {Pa}, Standard RhoAir at Elevation
Site:Location,Fort McMurray AP AB CAN CWEC2016 WMO#=716890,56.65,-111.22,-7.00,369.10,96969,1.1525
! <Building Information>, Building Name,North Axis {deg},Terrain,  Loads Convergence Tolerance Value,Temperature Convergence Tolerance Value,  Solar Distribution,Maximum Number of Warmup Days,Minimum Number of Warmup Days
 Building Information,Building 1,0.000,Suburbs,4.00000E-002,0.40000,FullExterior,25,6
! <Inside Convection Algorithm>, Algorithm {Simple | TARP | CeilingDiffuser | AdaptiveConvectionAlgorithm}
Inside Convection Algorithm,TARP
! <Outside Convection Algorithm>, Algorithm {SimpleCombined | TARP | MoWitt | DOE-2 | AdaptiveConvectionAlgorithm}
Outside Convection Algorithm,TARP
! <Sky Radiance Distribution>, Value {Anisotropic}
Sky Radiance Distribution,Anisotropic
! <Zone Air Solution Algorithm>, Value {ThirdOrderBackwardDifference | AnalyticalSolution | EulerMethod}
 Zone Air Solution Algorithm, ThirdOrderBackwardDifference
! <Zone Air Carbon Dioxide Balance Simulation>, Simulation {Yes/No}, Carbon Dioxide Concentration
 Zone Air Carbon Dioxide Balance Simulation, No,N/A
! <Zone Air Generic Contaminant Balance Simulation>, Simulation {Yes/No}, Generic Contaminant Concentration
 Zone Air Generic Contaminant Balance Simulation, No,N/A
! <Zone Air Mass Flow Balance Simulation>, Enforce Mass Balance, Adjust Zone Mixing, Adjust Zone Infiltration {AddInfiltration | AdjustInfiltration | None}, Infiltration Zones {MixingSourceZonesOnly | AllZones}
 Zone Air Mass Flow Balance Simulation, No,N/A,N/A,N/A
! <HVACSystemRootFindingAlgorithm>, Value {RegulaFalsi | Bisection | BisectionThenRegulaFalsi | RegulaFalsiThenBisection}
 HVACSystemRootFindingAlgorithm, RegulaFalsi
! <Environment:Site Atmospheric Variation>,Wind Speed Profile Exponent {},Wind Speed Profile Boundary Layer Thickness {m},Air Temperature Gradient Coefficient {K/m}
Environment:Site Atmospheric Variation,0.220,370.000,6.500000E-003
! <Surface Geometry>,Starting Corner,Vertex Input Direction,Coordinate System,Daylight Reference Point Coordinate System,Rectangular (Simple) Surface Coordinate System
 Surface Geometry,UpperLeftCorner,Counterclockwise,RelativeCoordinateSystem,RelativeCoordinateSystem,RelativeToZoneOrigin
! <Surface Heat Transfer Algorithm>, Value {CTF - ConductionTransferFunction | EMPD - MoisturePenetrationDepthConductionTransferFunction | CondFD - ConductionFiniteDifference | HAMT - CombinedHeatAndMoistureFiniteElement} - Description,Inside Surface Max Temperature Limit{C}, Surface Convection Coefficient Lower Limit {W/m2-K}, Surface Convection Coefficient Upper Limit {W/m2-K}
Surface Heat Transfer Algorithm, CTF - ConductionTransferFunction,200,0.10,1000.0
! <Shading Summary>, Number of Fixed Detached Shades, Number of Building Detached Shades, Number of Attached Shades
 Shading Summary,0,0,0
! <Zone Summary>, Number of Zones, Number of Zone Surfaces, Number of SubSurfaces
 Zone Summary,5,30,0
! <Zone Information>,Zone Name,North Axis {deg},Origin X-Coordinate {m},Origin Y-Coordinate {m},Origin Z-Coordinate {m},Centroid X-Coordinate {m},Centroid Y-Coordinate {m},Centroid Z-Coordinate {m},Type,Zone Multiplier,Zone List Multiplier,Minimum X {m},Maximum X {m},Minimum Y {m},Maximum Y {m},Minimum Z {m},Maximum Z {m},Ceiling Height {m},Volume {m3},Zone Inside Convection Algorithm {Simple-Detailed-CeilingDiffuser-TrombeWall},Zone Outside Convection Algorithm {Simple-Detailed-Tarp-MoWitt-DOE-2-BLAST}, Floor Area {m2},Exterior Gross Wall Area {m2},Exterior Net Wall Area {m2},Exterior Window Area {m2}, Number of Surfaces, Number of SubSurfaces, Number of Shading SubSurfaces,  Part of Total Building Area
 Zone Information, SP-WHOLEBUILDING-OFFICE SYS-3 FLR-1 SCH-A HPLCMT-CORE ZN,0.0,25.00,25.00,0.00,50.00,50.00,1.90,1,1,1,25.00,75.00,25.00,75.00,0.00,3.80,3.80,9500.00,TARP,TARP,2500.00,0.00,0.00,0.00,6,0,0,Yes
 Zone Information, SP-WHOLEBUILDING-PENITENTIARY SYS-3 FLR-1 SCH-H HPLCMT-SOUTH ZN,0.0,0.00,0.00,0.00,50.00,10.85,1.90,1,1,1,0.00,100.00,0.00,25.00,0.00,3.80,3.80,7125.00,TARP,TARP,1875.00,0.00,0.00,0.00,6,0,0,Yes
 Zone Information, SP-WHOLEBUILDING-PERFORMING ARTS THEATRE SYS-3 FLR-1 SCH-C HPLCMT-EAST ZN,0.0,75.00,25.00,0.00,89.15,50.00,1.90,1,1,1,75.00,100.00,0.00,100.00,0.00,3.80,3.80,7125.00,TARP,TARP,1875.00,0.00,0.00,0.00,6,0,0,Yes
 Zone Information, SP-WHOLEBUILDING-POLICE STATION SYS-3 FLR-1 SCH-H HPLCMT-NORTH ZN,0.0,25.00,75.00,0.00,50.00,89.15,1.90,1,1,1,0.00,100.00,75.00,100.00,0.00,3.80,3.80,7125.00,TARP,TARP,1875.00,0.00,0.00,0.00,6,0,0,Yes
 Zone Information, SP-WHOLEBUILDING-POST OFFICE SYS-3 FLR-1 SCH-A HPLCMT-WEST ZN,0.0,0.00,0.00,0.00,10.85,50.00,1.90,1,1,1,0.00,25.00,0.00,100.00,0.00,3.80,3.80,7125.00,TARP,TARP,1875.00,0.00,0.00,0.00,6,0,0,Yes
! <Zone Internal Gains Nominal>,Zone Name, Floor Area {m2},# Occupants,Area per Occupant {m2/person},Occupant per Area {person/m2},Interior Lighting {W/m2},Electric Load {W/m2},Gas Load {W/m2},Other Load {W/m2},Hot Water Eq {W/m2},Steam Equipment {W/m2},Sum Loads per Area {W/m2},Outdoor Controlled Baseboard Heat
 Zone Internal Gains Nominal, SP-WHOLEBUILDING-OFFICE SYS-3 FLR-1 SCH-A HPLCMT-CORE ZN,2500.00,100.0,24.991,4.001E-002,8.803,7.503,0.000,0.000,0.000,0.000,16.306,No
 Zone Internal Gains Nominal, SP-WHOLEBUILDING-PENITENTIARY SYS-3 FLR-1 SCH-H HPLCMT-SOUTH ZN,1875.00,62.5,29.989,3.335E-002,8.703,2.501,0.000,0.000,0.000,0.000,11.204,No
 Zone Internal Gains Nominal, SP-WHOLEBUILDING-PERFORMING ARTS THEATRE SYS-3 FLR-1 SCH-C HPLCMT-EAST ZN,1875.00,234.5,7.997,0.125,14.905,1.000,0.000,0.000,0.000,0.000,15.906,No
 Zone Internal Gains Nominal, SP-WHOLEBUILDING-POLICE STATION SYS-3 FLR-1 SCH-H HPLCMT-NORTH ZN,1875.00,75.0,24.991,4.001E-002,9.403,7.503,0.000,0.000,0.000,0.000,16.906,No
 Zone Internal Gains Nominal, SP-WHOLEBUILDING-POST OFFICE SYS-3 FLR-1 SCH-A HPLCMT-WEST ZN,1875.00,75.0,24.991,4.001E-002,9.403,7.503,0.000,0.000,0.000,0.000,16.906,No
! <People Internal Gains Nominal>,Name,Schedule Name,Zone Name,Zone Floor Area {m2},# Zone Occupants,Number of People {},People/Floor Area {person/m2},Floor Area per person {m2/person},Fraction Radiant,Fraction Convected,Sensible Fraction Calculation,Activity level,ASHRAE 55 Warnings,Carbon Dioxide Generation Rate,Nominal Minimum Number of People,Nominal Maximum Number of People
 People Internal Gains Nominal, SP-WHOLEBUILDING-OFFICE SYS-3 FLR-1 SCH-A HPLCMT-CORE ZN OFFICE WHOLEBUILDING PEOPLE,NECB-A-OCCUPANCY,SP-WHOLEBUILDING-OFFICE SYS-3 FLR-1 SCH-A HPLCMT-CORE ZN,2500.00,100.0,100.0,4.001E-002,24.991,0.300,0.700,AutoCalculate,NECB-ACTIVITY,No,3.8200E-008,0,90
 People Internal Gains Nominal, SP-WHOLEBUILDING-PENITENTIARY SYS-3 FLR-1 SCH-H HPLCMT-SOUTH ZN PENITENTIARY WHOLEBUILDING PEOPLE,NECB-H-OCCUPANCY,SP-WHOLEBUILDING-PENITENTIARY SYS-3 FLR-1 SCH-H HPLCMT-SOUTH ZN,1875.00,62.5,62.5,3.335E-002,29.989,0.300,0.700,AutoCalculate,NECB-ACTIVITY,No,3.8200E-008,56,56
 People Internal Gains Nominal, SP-WHOLEBUILDING-PERFORMING ARTS THEATRE SYS-3 FLR-1 SCH-C HPLCMT-EAST ZN PERFORMING ARTS THEATRE WHOLEBUILDING PEOPLE,NECB-C-OCCUPANCY,SP-WHOLEBUILDING-PERFORMING ARTS THEATRE SYS-3 FLR-1 SCH-C HPLCMT-EAST ZN,1875.00,234.5,234.5,0.125,7.997,0.300,0.700,AutoCalculate,NECB-ACTIVITY,No,3.8200E-008,0,211
 People Internal Gains Nominal, SP-WHOLEBUILDING-POLICE STATION SYS-3 FLR-1 SCH-H HPLCMT-NORTH ZN POLICE STATION WHOLEBUILDING PEOPLE,NECB-H-OCCUPANCY,SP-WHOLEBUILDING-POLICE STATION SYS-3 FLR-1 SCH-H HPLCMT-NORTH ZN,1875.00,75.0,75.0,4.001E-002,24.991,0.300,0.700,AutoCalculate,NECB-ACTIVITY,No,3.8200E-008,68,68
 People Internal Gains Nominal, SP-WHOLEBUILDING-POST OFFICE SYS-3 FLR-1 SCH-A HPLCMT-WEST ZN POST OFFICE WHOLEBUILDING PEOPLE,NECB-A-OCCUPANCY,SP-WHOLEBUILDING-POST OFFICE SYS-3 FLR-1 SCH-A HPLCMT-WEST ZN,1875.00,75.0,75.0,4.001E-002,24.991,0.300,0.700,AutoCalculate,NECB-ACTIVITY,No,3.8200E-008,0,68
! <Lights Internal Gains Nominal>,Name,Schedule Name,Zone Name,Zone Floor Area {m2},# Zone Occupants,Lighting Level {W},Lights/Floor Area {W/m2},Lights per person {W/person},Fraction Return Air,Fraction Radiant,Fraction Short Wave,Fraction Convected,Fraction Replaceable,End-Use Category,Nominal Minimum Lighting Level {W},Nominal Maximum Lighting Level {W}
 Lights Internal Gains Nominal, SP-WHOLEBUILDING-OFFICE SYS-3 FLR-1 SCH-A HPLCMT-CORE ZN OFFICE WHOLEBUILDING LIGHTS,NECB-A-OCCUPANCY-NECB-A-LIGHTING-0.0-0.0-0.0-LIGHT RULESET,SP-WHOLEBUILDING-OFFICE SYS-3 FLR-1 SCH-A HPLCMT-CORE ZN,2500.00,100.0,22007.995,8.803,220.000,0.000,0.500,0.200,0.300,1.000,General,1100.400,19807.196
 Lights Internal Gains Nominal, SP-WHOLEBUILDING-PENITENTIARY SYS-3 FLR-1 SCH-H HPLCMT-SOUTH ZN PENITENTIARY WHOLEBUILDING LIGHTS,NECB-H-OCCUPANCY-NECB-H-LIGHTING-0.0-0.0-0.0-LIGHT RULESET,SP-WHOLEBUILDING-PENITENTIARY SYS-3 FLR-1 SCH-H HPLCMT-SOUTH ZN,1875.00,62.5,16318.428,8.703,261.000,0.000,0.500,0.200,0.300,1.000,General,14686.585,14686.585
 Lights Internal Gains Nominal, SP-WHOLEBUILDING-PERFORMING ARTS THEATRE SYS-3 FLR-1 SCH-C HPLCMT-EAST ZN PERFORMING ARTS THEATRE WHOLEBUILDING LIGHTS,NECB-C-OCCUPANCY-NECB-C-LIGHTING-0.0-0.0-0.0-LIGHT RULESET,SP-WHOLEBUILDING-PERFORMING ARTS THEATRE SYS-3 FLR-1 SCH-C HPLCMT-EAST ZN,1875.00,234.5,27947.653,14.905,119.200,0.000,0.500,0.200,0.300,1.000,General,1397.383,25152.888
 Lights Internal Gains Nominal, SP-WHOLEBUILDING-POLICE STATION SYS-3 FLR-1 SCH-H HPLCMT-NORTH ZN POLICE STATION WHOLEBUILDING LIGHTS,NECB-H-OCCUPANCY-NECB-H-LIGHTING-0.0-0.0-0.0-LIGHT RULESET,SP-WHOLEBUILDING-POLICE STATION SYS-3 FLR-1 SCH-H HPLCMT-NORTH ZN,1875.00,75.0,17631.405,9.403,235.000,0.000,0.500,0.200,0.300,1.000,General,15868.265,15868.265
 Lights Internal Gains Nominal, SP-WHOLEBUILDING-POST OFFICE SYS-3 FLR-1 SCH-A HPLCMT-WEST ZN POST OFFICE WHOLEBUILDING LIGHTS,NECB-A-OCCUPANCY-NECB-A-LIGHTING-0.0-0.0-0.0-LIGHT RULESET,SP-WHOLEBUILDING-POST OFFICE SYS-3 FLR-1 SCH-A HPLCMT-WEST ZN,1875.00,75.0,17631.405,9.403,235.000,0.000,0.500,0.200,0.300,1.000,General,881.570,15868.265
! <ElectricEquipment Internal Gains Nominal>,Name,Schedule Name,Zone Name,Zone Floor Area {m2},# Zone Occupants,Equipment Level {W},Equipment/Floor Area {W/m2},Equipment per person {W/person},Fraction Latent,Fraction Radiant,Fraction Lost,Fraction Convected,End-Use SubCategory,Nominal Minimum Equipment Level {W},Nominal Maximum Equipment Level {W}
 ElectricEquipment Internal Gains Nominal, SP-WHOLEBUILDING-OFFICE SYS-3 FLR-1 SCH-A HPLCMT-CORE ZN OFFICE WHOLEBUILDING ELEC EQUIP,NECB-A-ELECTRIC-EQUIPMENT,SP-WHOLEBUILDING-OFFICE SYS-3 FLR-1 SCH-A HPLCMT-CORE ZN,2500.00,100.0,18756.814,7.503,187.500,0.000,0.500,0.000,0.500,General,3751.363,16881.133
 ElectricEquipment Internal Gains Nominal, SP-WHOLEBUILDING-PENITENTIARY SYS-3 FLR-1 SCH-H HPLCMT-SOUTH ZN PENITENTIARY WHOLEBUILDING ELEC EQUIP,NECB-H-ELECTRIC-EQUIPMENT,SP-WHOLEBUILDING-PENITENTIARY SYS-3 FLR-1 SCH-H HPLCMT-SOUTH ZN,1875.00,62.5,4689.204,2.501,75.000,0.000,0.500,0.000,0.500,General,4220.283,4220.283
 ElectricEquipment Internal Gains Nominal, SP-WHOLEBUILDING-PERFORMING ARTS THEATRE SYS-3 FLR-1 SCH-C HPLCMT-EAST ZN PERFORMING ARTS THEATRE WHOLEBUILDING ELEC EQUIP,NECB-C-ELECTRIC-EQUIPMENT,SP-WHOLEBUILDING-PERFORMING ARTS THEATRE SYS-3 FLR-1 SCH-C HPLCMT-EAST ZN,1875.00,234.5,1875.681,1.000,8.000,0.000,0.500,0.000,0.500,General,93.784,1688.113
 ElectricEquipment Internal Gains Nominal, SP-WHOLEBUILDING-POLICE STATION SYS-3 FLR-1 SCH-H HPLCMT-NORTH ZN POLICE STATION WHOLEBUILDING ELEC EQUIP,NECB-H-ELECTRIC-EQUIPMENT,SP-WHOLEBUILDING-POLICE STATION SYS-3 FLR-1 SCH-H HPLCMT-NORTH ZN,1875.00,75.0,14067.611,7.503,187.500,0.000,0.500,0.000,0.500,General,12660.850,12660.850
 ElectricEquipment Internal Gains Nominal, SP-WHOLEBUILDING-POST OFFICE SYS-3 FLR-1 SCH-A HPLCMT-WEST ZN POST OFFICE WHOLEBUILDING ELEC EQUIP,NECB-A-ELECTRIC-EQUIPMENT,SP-WHOLEBUILDING-POST OFFICE SYS-3 FLR-1 SCH-A HPLCMT-WEST ZN,1875.00,75.0,14067.611,7.503,187.500,0.000,0.500,0.000,0.500,General,2813.522,12660.850
! <Shadowing/Sun Position Calculations Annual Simulations>, Calculation Method, Value {days}, Allowable Number Figures in Shadow Overlap {}, Polygon Clipping Algorithm, Sky Diffuse Modeling Algorithm, External Shading Calculation Method, Output External Shading Calculation Results, Disable Self-Shading Within Shading Zone Groups, Disable Self-Shading From Shading Zone Groups to Other Zones
Shadowing/Sun Position Calculations Annual Simulations,AverageOverDaysInFrequency,20,15000,SutherlandHodgman,SimpleSkyDiffuseModeling,InternalCalculation,No,No,No
! <Water Heater Information>,Type,Name,Volume {m3},Maximum Capacity {W},Standard Rated Recovery Efficiency, Standard Rated Energy Factor
! <RoomAir Model>, Zone Name, Mixing/Mundt/UCSDDV/UCSDCV/UCSDUFI/UCSDUFE/User Defined
RoomAir Model,SP-WHOLEBUILDING-OFFICE SYS-3 FLR-1 SCH-A HPLCMT-CORE ZN,Mixing/Well-Stirred
RoomAir Model,SP-WHOLEBUILDING-PENITENTIARY SYS-3 FLR-1 SCH-H HPLCMT-SOUTH ZN,Mixing/Well-Stirred
RoomAir Model,SP-WHOLEBUILDING-PERFORMING ARTS THEATRE SYS-3 FLR-1 SCH-C HPLCMT-EAST ZN,Mixing/Well-Stirred
RoomAir Model,SP-WHOLEBUILDING-POLICE STATION SYS-3 FLR-1 SCH-H HPLCMT-NORTH ZN,Mixing/Well-Stirred
RoomAir Model,SP-WHOLEBUILDING-POST OFFICE SYS-3 FLR-1 SCH-A HPLCMT-WEST ZN,Mixing/Well-Stirred
! <AirflowNetwork Model:Control>, No Multizone or Distribution/Multizone with Distribution/Multizone without Distribution/Multizone with Distribution only during Fan Operation
AirflowNetwork Model:Control,NoMultizoneOrDistribution
! <Zone Volume Capacitance Multiplier>, Sensible Heat Capacity Multiplier, Moisture Capacity Multiplier, Carbon Dioxide Capacity Multiplier, Generic Contaminant Capacity Multiplier
Zone Volume Capacitance Multiplier,   1.000 ,   1.000,   1.000,   1.000
! <Load Timesteps in Zone Design Calculation Averaging Window>, Value
 Load Timesteps in Zone Design Calculation Averaging Window,    6
! <Heating Sizing Factor Information>, Sizing Factor ID, Value
 Heating Sizing Factor Information, Global,   1.3000    
 Heating Sizing Factor Information, Zone SP-WHOLEBUILDING-OFFICE SYS-3 FLR-1 SCH-A HPLCMT-CORE ZN,   1.3000    
 Heating Sizing Factor Information, Zone SP-WHOLEBUILDING-PENITENTIARY SYS-3 FLR-1 SCH-H HPLCMT-SOUTH ZN,   1.3000    
 Heating Sizing Factor Information, Zone SP-WHOLEBUILDING-PERFORMING ARTS THEATRE SYS-3 FLR-1 SCH-C HPLCMT-EAST ZN,   1.3000    
 Heating Sizing Factor Information, Zone SP-WHOLEBUILDING-POLICE STATION SYS-3 FLR-1 SCH-H HPLCMT-NORTH ZN,   1.3000    
 Heating Sizing Factor Information, Zone SP-WHOLEBUILDING-POST OFFICE SYS-3 FLR-1 SCH-A HPLCMT-WEST ZN,   1.3000    
! <Cooling Sizing Factor Information>, Sizing Factor ID, Value
 Cooling Sizing Factor Information, Global,   1.1000    
 Cooling Sizing Factor Information, Zone SP-WHOLEBUILDING-OFFICE SYS-3 FLR-1 SCH-A HPLCMT-CORE ZN,   1.1000    
 Cooling Sizing Factor Information, Zone SP-WHOLEBUILDING-PENITENTIARY SYS-3 FLR-1 SCH-H HPLCMT-SOUTH ZN,   1.1000    
 Cooling Sizing Factor Information, Zone SP-WHOLEBUILDING-PERFORMING ARTS THEATRE SYS-3 FLR-1 SCH-C HPLCMT-EAST ZN,   1.1000    
 Cooling Sizing Factor Information, Zone SP-WHOLEBUILDING-POLICE STATION SYS-3 FLR-1 SCH-H HPLCMT-NORTH ZN,   1.1000    
 Cooling Sizing Factor Information, Zone SP-WHOLEBUILDING-POST OFFICE SYS-3 FLR-1 SCH-A HPLCMT-WEST ZN,   1.1000    
! <Zone Sizing Information>, Zone Name, Load Type, Calc Des Load {W}, User Des Load {W}, Calc Des Air Flow Rate {m3/s}, User Des Air Flow Rate {m3/s}, Design Day Name, Date/Time of Peak, Temperature at Peak {C}, Humidity Ratio at Peak {kgWater/kgDryAir}, Floor Area {m2}, # Occupants, Calc Outdoor Air Flow Rate {m3/s}, Calc DOAS Heat Addition Rate {W}
 Zone Sizing Information, SP-WHOLEBUILDING-OFFICE SYS-3 FLR-1 SCH-A HPLCMT-CORE ZN, Cooling, 33624.06353, 36986.46989, 2.59879, 2.85866, FORT MCMURRAY AP ANN CLG .4% CONDNS DB=>MWB, 7/21 17:00:00, 27.16400, 8.76969E-003, 2500.00000, 100.03634, 1.00330, 0.00000
 Zone Sizing Information, SP-WHOLEBUILDING-OFFICE SYS-3 FLR-1 SCH-A HPLCMT-CORE ZN, Heating, 0.00000, 0.00000, 0.00000, 1.00330, FORT MCMURRAY AP ANN HTG 99.6% CONDNS DB, , -36.20000, 1.25811E-004, 2500.00000, 100.03634, 1.00330, 0.00000
 Zone Sizing Information, SP-WHOLEBUILDING-PENITENTIARY SYS-3 FLR-1 SCH-H HPLCMT-SOUTH ZN, Cooling, 17205.39311, 18925.93242, 1.32978, 1.46276, FORT MCMURRAY AP ANN CLG .4% CONDNS DB=>MWB, 7/21 17:10:00, 26.95733, 8.76969E-003, 1875.00000, 62.52271, 0.71438, 0.00000
 Zone Sizing Information, SP-WHOLEBUILDING-PENITENTIARY SYS-3 FLR-1 SCH-H HPLCMT-SOUTH ZN, Heating, 0.00000, 0.00000, 0.00000, 0.71438, FORT MCMURRAY AP ANN HTG 99.6% CONDNS DB, , -36.20000, 1.25811E-004, 1875.00000, 62.52271, 0.71438, 0.00000
 Zone Sizing Information, SP-WHOLEBUILDING-PERFORMING ARTS THEATRE SYS-3 FLR-1 SCH-C HPLCMT-EAST ZN, Cooling, 31687.80234, 34856.58257, 2.44949, 2.69444, FORT MCMURRAY AP ANN CLG .4% CONDNS DB=>MWB, 7/21 17:00:00, 27.16400, 8.76969E-003, 1875.00000, 234.46018, 1.12395, 0.00000
 Zone Sizing Information, SP-WHOLEBUILDING-PERFORMING ARTS THEATRE SYS-3 FLR-1 SCH-C HPLCMT-EAST ZN, Heating, 310.25395, 403.33014, 1.24231E-002, 1.12395, FORT MCMURRAY AP ANN HTG 99.6% CONDNS DB, 1/21 08:10:00, -36.20000, 1.25811E-004, 1875.00000, 234.46018, 1.12395, 0.00000
 Zone Sizing Information, SP-WHOLEBUILDING-POLICE STATION SYS-3 FLR-1 SCH-H HPLCMT-NORTH ZN, Cooling, 26117.01299, 28728.71429, 2.01858, 2.22043, FORT MCMURRAY AP ANN CLG .4% CONDNS DB=>MWB, 7/21 17:10:00, 26.95733, 8.76969E-003, 1875.00000, 75.02726, 0.75248, 0.00000
 Zone Sizing Information, SP-WHOLEBUILDING-POLICE STATION SYS-3 FLR-1 SCH-H HPLCMT-NORTH ZN, Heating, 0.00000, 0.00000, 0.00000, 0.75248, FORT MCMURRAY AP ANN HTG 99.6% CONDNS DB, , -36.20000, 1.25811E-004, 1875.00000, 75.02726, 0.75248, 0.00000
 Zone Sizing Information, SP-WHOLEBUILDING-POST OFFICE SYS-3 FLR-1 SCH-A HPLCMT-WEST ZN, Cooling, 25920.18852, 28512.20738, 2.00336, 2.20369, FORT MCMURRAY AP ANN CLG .4% CONDNS DB=>MWB, 7/21 17:00:00, 27.16400, 8.76969E-003, 1875.00000, 75.02726, 1.40970, 0.00000
 Zone Sizing Information, SP-WHOLEBUILDING-POST OFFICE SYS-3 FLR-1 SCH-A HPLCMT-WEST ZN, Heating, 0.00000, 0.00000, 0.00000, 1.40970, FORT MCMURRAY AP ANN HTG 99.6% CONDNS DB, , -36.20000, 1.25811E-004, 1875.00000, 75.02726, 1.40970, 0.00000
! <System Sizing Information>, System Name, Load Type, Peak Load Kind, User Design Capacity, Calc Des Air Flow Rate [m3/s], User Des Air Flow Rate [m3/s], Design Day Name, Date/Time of Peak
 System Sizing Information, SYS_3_PSZ SP-WHOLEBUILDING-OFFICE SYS-3 FLR-1 SCH-A HPLCMT-CORE ZN, Cooling, Sensible, 40092.11, 2.85866, 2.85866, FORT MCMURRAY AP ANN CLG .4% CONDNS DB=>MWB, 7/21 05:00:00
 System Sizing Information, SYS_3_PSZ SP-WHOLEBUILDING-OFFICE SYS-3 FLR-1 SCH-A HPLCMT-CORE ZN, Heating, Sensible, 92026.76, 1.00330, 1.00330, FORT MCMURRAY AP ANN HTG 99.6% CONDNS DB, 1/21 00:10:00
 System Sizing Information, SYS_3_PSZ SP-WHOLEBUILDING-PENITENTIARY SYS-3 FLR-1 SCH-H HPLCMT-SOUTH ZN, Cooling, Sensible, 21080.72, 1.46276, 1.46276, FORT MCMURRAY AP ANN CLG .4% CONDNS DB=>MWB, 7/21 05:00:00
 System Sizing Information, SYS_3_PSZ SP-WHOLEBUILDING-PENITENTIARY SYS-3 FLR-1 SCH-H HPLCMT-SOUTH ZN, Heating, Sensible, 65525.38, 0.71438, 0.71438, FORT MCMURRAY AP ANN HTG 99.6% CONDNS DB, 1/21 00:10:00
 System Sizing Information, SYS_3_PSZ SP-WHOLEBUILDING-PERFORMING ARTS THEATRE SYS-3 FLR-1 SCH-C HPLCMT-EAST ZN, Cooling, Sensible, 38439.50, 2.69444, 2.69444, FORT MCMURRAY AP ANN CLG .4% CONDNS DB=>MWB, 7/21 05:00:00
 System Sizing Information, SYS_3_PSZ SP-WHOLEBUILDING-PERFORMING ARTS THEATRE SYS-3 FLR-1 SCH-C HPLCMT-EAST ZN, Heating, Sensible, 103093.26, 1.12395, 1.12395, FORT MCMURRAY AP ANN HTG 99.6% CONDNS DB, 1/21 00:10:00
 System Sizing Information, SYS_3_PSZ SP-WHOLEBUILDING-POLICE STATION SYS-3 FLR-1 SCH-H HPLCMT-NORTH ZN, Cooling, Sensible, 30862.58, 2.22043, 2.22043, FORT MCMURRAY AP ANN CLG .4% CONDNS DB=>MWB, 7/21 05:00:00
 System Sizing Information, SYS_3_PSZ SP-WHOLEBUILDING-POLICE STATION SYS-3 FLR-1 SCH-H HPLCMT-NORTH ZN, Heating, Sensible, 69020.07, 0.75248, 0.75248, FORT MCMURRAY AP ANN HTG 99.6% CONDNS DB, 1/21 00:10:00
 System Sizing Information, SYS_3_PSZ SP-WHOLEBUILDING-POST OFFICE SYS-3 FLR-1 SCH-A HPLCMT-WEST ZN, Cooling, Sensible, 33238.53, 2.20369, 2.20369, FORT MCMURRAY AP ANN CLG .4% CONDNS DB=>MWB, 7/21 05:00:00
 System Sizing Information, SYS_3_PSZ SP-WHOLEBUILDING-POST OFFICE SYS-3 FLR-1 SCH-A HPLCMT-WEST ZN, Heating, Sensible, 129303.42, 1.40970, 1.40970, FORT MCMURRAY AP ANN HTG 99.6% CONDNS DB, 1/21 00:10:00
! <Component Sizing Information>, Component Type, Component Name, Input Field Description, Value
 Component Sizing Information, AirTerminal:SingleDuct:Uncontrolled, AIR TERMINAL SINGLE DUCT UNCONTROLLED 2, Design Size Maximum Air Flow Rate [m3/s], 2.85866
 Component Sizing Information, ZoneHVAC:Baseboard:Convective:Water, ZONE HVAC BASEBOARD CONVECTIVE WATER 2, Design Size Maximum Water Flow Rate [m3/s], 0.00000
 Component Sizing Information, ZoneHVAC:Baseboard:Convective:Water, ZONE HVAC BASEBOARD CONVECTIVE WATER 2, Design Size U-Factor Times Area Value [W/K], 0.00000
 Component Sizing Information, AirTerminal:SingleDuct:Uncontrolled, AIR TERMINAL SINGLE DUCT UNCONTROLLED 4, Design Size Maximum Air Flow Rate [m3/s], 1.46276
 Component Sizing Information, ZoneHVAC:Baseboard:Convective:Water, ZONE HVAC BASEBOARD CONVECTIVE WATER 4, Design Size Maximum Water Flow Rate [m3/s], 0.00000
 Component Sizing Information, ZoneHVAC:Baseboard:Convective:Water, ZONE HVAC BASEBOARD CONVECTIVE WATER 4, Design Size U-Factor Times Area Value [W/K], 0.00000
 Component Sizing Information, AirTerminal:SingleDuct:Uncontrolled, AIR TERMINAL SINGLE DUCT UNCONTROLLED 5, Design Size Maximum Air Flow Rate [m3/s], 2.69444
 Component Sizing Information, ZoneHVAC:Baseboard:Convective:Water, ZONE HVAC BASEBOARD CONVECTIVE WATER 5, Design Size Maximum Water Flow Rate [m3/s], 6.02406E-006
 Component Sizing Information, ZoneHVAC:Baseboard:Convective:Water, ZONE HVAC BASEBOARD CONVECTIVE WATER 5, Design Size U-Factor Times Area Value [W/K], 9.19215
 Component Sizing Information, AirTerminal:SingleDuct:Uncontrolled, AIR TERMINAL SINGLE DUCT UNCONTROLLED 3, Design Size Maximum Air Flow Rate [m3/s], 2.22043
 Component Sizing Information, ZoneHVAC:Baseboard:Convective:Water, ZONE HVAC BASEBOARD CONVECTIVE WATER 3, Design Size Maximum Water Flow Rate [m3/s], 0.00000
 Component Sizing Information, ZoneHVAC:Baseboard:Convective:Water, ZONE HVAC BASEBOARD CONVECTIVE WATER 3, Design Size U-Factor Times Area Value [W/K], 0.00000
 Component Sizing Information, AirTerminal:SingleDuct:Uncontrolled, AIR TERMINAL SINGLE DUCT UNCONTROLLED 1, Design Size Maximum Air Flow Rate [m3/s], 2.20369
 Component Sizing Information, ZoneHVAC:Baseboard:Convective:Water, ZONE HVAC BASEBOARD CONVECTIVE WATER 1, Design Size Maximum Water Flow Rate [m3/s], 0.00000
 Component Sizing Information, ZoneHVAC:Baseboard:Convective:Water, ZONE HVAC BASEBOARD CONVECTIVE WATER 1, Design Size U-Factor Times Area Value [W/K], 0.00000
 Component Sizing Information, AirLoopHVAC, SYS_3_PSZ SP-WHOLEBUILDING-OFFICE SYS-3 FLR-1 SCH-A HPLCMT-CORE ZN, Sum of Air Terminal Maximum Heating Flow Rates [m3/s], 2.85866
 Component Sizing Information, AirLoopHVAC, SYS_3_PSZ SP-WHOLEBUILDING-OFFICE SYS-3 FLR-1 SCH-A HPLCMT-CORE ZN, Sum of Air Terminal Minimum Heating Flow Rates [m3/s], 2.85866
 Component Sizing Information, AirLoopHVAC, SYS_3_PSZ SP-WHOLEBUILDING-OFFICE SYS-3 FLR-1 SCH-A HPLCMT-CORE ZN, Sum of Air Terminal Maximum Flow Rates [m3/s], 2.85866
 Component Sizing Information, AirLoopHVAC, SYS_3_PSZ SP-WHOLEBUILDING-OFFICE SYS-3 FLR-1 SCH-A HPLCMT-CORE ZN, Adjusted Heating Design Air Flow Rate [m3/s], 2.85866
 Component Sizing Information, AirLoopHVAC, SYS_3_PSZ SP-WHOLEBUILDING-OFFICE SYS-3 FLR-1 SCH-A HPLCMT-CORE ZN, Adjusted Cooling Design Air Flow Rate [m3/s], 2.85866
 Component Sizing Information, AirLoopHVAC, SYS_3_PSZ SP-WHOLEBUILDING-OFFICE SYS-3 FLR-1 SCH-A HPLCMT-CORE ZN, Adjusted Main Design Air Flow Rate [m3/s], 2.85866
 Component Sizing Information, AirLoopHVAC, SYS_3_PSZ SP-WHOLEBUILDING-OFFICE SYS-3 FLR-1 SCH-A HPLCMT-CORE ZN, User Heating Air Flow Ratio [], 1.00000
 Component Sizing Information, AirLoopHVAC, SYS_3_PSZ SP-WHOLEBUILDING-OFFICE SYS-3 FLR-1 SCH-A HPLCMT-CORE ZN, Calculated Heating Air Flow Ratio [], 1.00000
 Component Sizing Information, AirLoopHVAC, SYS_3_PSZ SP-WHOLEBUILDING-PENITENTIARY SYS-3 FLR-1 SCH-H HPLCMT-SOUTH ZN, Sum of Air Terminal Maximum Heating Flow Rates [m3/s], 1.46276
 Component Sizing Information, AirLoopHVAC, SYS_3_PSZ SP-WHOLEBUILDING-PENITENTIARY SYS-3 FLR-1 SCH-H HPLCMT-SOUTH ZN, Sum of Air Terminal Minimum Heating Flow Rates [m3/s], 1.46276
 Component Sizing Information, AirLoopHVAC, SYS_3_PSZ SP-WHOLEBUILDING-PENITENTIARY SYS-3 FLR-1 SCH-H HPLCMT-SOUTH ZN, Sum of Air Terminal Maximum Flow Rates [m3/s], 1.46276
 Component Sizing Information, AirLoopHVAC, SYS_3_PSZ SP-WHOLEBUILDING-PENITENTIARY SYS-3 FLR-1 SCH-H HPLCMT-SOUTH ZN, Adjusted Heating Design Air Flow Rate [m3/s], 1.46276
 Component Sizing Information, AirLoopHVAC, SYS_3_PSZ SP-WHOLEBUILDING-PENITENTIARY SYS-3 FLR-1 SCH-H HPLCMT-SOUTH ZN, Adjusted Cooling Design Air Flow Rate [m3/s], 1.46276
 Component Sizing Information, AirLoopHVAC, SYS_3_PSZ SP-WHOLEBUILDING-PENITENTIARY SYS-3 FLR-1 SCH-H HPLCMT-SOUTH ZN, Adjusted Main Design Air Flow Rate [m3/s], 1.46276
 Component Sizing Information, AirLoopHVAC, SYS_3_PSZ SP-WHOLEBUILDING-PENITENTIARY SYS-3 FLR-1 SCH-H HPLCMT-SOUTH ZN, User Heating Air Flow Ratio [], 1.00000
 Component Sizing Information, AirLoopHVAC, SYS_3_PSZ SP-WHOLEBUILDING-PENITENTIARY SYS-3 FLR-1 SCH-H HPLCMT-SOUTH ZN, Calculated Heating Air Flow Ratio [], 1.00000
 Component Sizing Information, AirLoopHVAC, SYS_3_PSZ SP-WHOLEBUILDING-PERFORMING ARTS THEATRE SYS-3 FLR-1 SCH-C HPLCMT-EAST ZN, Sum of Air Terminal Maximum Heating Flow Rates [m3/s], 2.69444
 Component Sizing Information, AirLoopHVAC, SYS_3_PSZ SP-WHOLEBUILDING-PERFORMING ARTS THEATRE SYS-3 FLR-1 SCH-C HPLCMT-EAST ZN, Sum of Air Terminal Minimum Heating Flow Rates [m3/s], 2.69444
 Component Sizing Information, AirLoopHVAC, SYS_3_PSZ SP-WHOLEBUILDING-PERFORMING ARTS THEATRE SYS-3 FLR-1 SCH-C HPLCMT-EAST ZN, Sum of Air Terminal Maximum Flow Rates [m3/s], 2.69444
 Component Sizing Information, AirLoopHVAC, SYS_3_PSZ SP-WHOLEBUILDING-PERFORMING ARTS THEATRE SYS-3 FLR-1 SCH-C HPLCMT-EAST ZN, Adjusted Heating Design Air Flow Rate [m3/s], 2.69444
 Component Sizing Information, AirLoopHVAC, SYS_3_PSZ SP-WHOLEBUILDING-PERFORMING ARTS THEATRE SYS-3 FLR-1 SCH-C HPLCMT-EAST ZN, Adjusted Cooling Design Air Flow Rate [m3/s], 2.69444
 Component Sizing Information, AirLoopHVAC, SYS_3_PSZ SP-WHOLEBUILDING-PERFORMING ARTS THEATRE SYS-3 FLR-1 SCH-C HPLCMT-EAST ZN, Adjusted Main Design Air Flow Rate [m3/s], 2.69444
 Component Sizing Information, AirLoopHVAC, SYS_3_PSZ SP-WHOLEBUILDING-PERFORMING ARTS THEATRE SYS-3 FLR-1 SCH-C HPLCMT-EAST ZN, User Heating Air Flow Ratio [], 1.00000
 Component Sizing Information, AirLoopHVAC, SYS_3_PSZ SP-WHOLEBUILDING-PERFORMING ARTS THEATRE SYS-3 FLR-1 SCH-C HPLCMT-EAST ZN, Calculated Heating Air Flow Ratio [], 1.00000
 Component Sizing Information, AirLoopHVAC, SYS_3_PSZ SP-WHOLEBUILDING-POLICE STATION SYS-3 FLR-1 SCH-H HPLCMT-NORTH ZN, Sum of Air Terminal Maximum Heating Flow Rates [m3/s], 2.22043
 Component Sizing Information, AirLoopHVAC, SYS_3_PSZ SP-WHOLEBUILDING-POLICE STATION SYS-3 FLR-1 SCH-H HPLCMT-NORTH ZN, Sum of Air Terminal Minimum Heating Flow Rates [m3/s], 2.22043
 Component Sizing Information, AirLoopHVAC, SYS_3_PSZ SP-WHOLEBUILDING-POLICE STATION SYS-3 FLR-1 SCH-H HPLCMT-NORTH ZN, Sum of Air Terminal Maximum Flow Rates [m3/s], 2.22043
 Component Sizing Information, AirLoopHVAC, SYS_3_PSZ SP-WHOLEBUILDING-POLICE STATION SYS-3 FLR-1 SCH-H HPLCMT-NORTH ZN, Adjusted Heating Design Air Flow Rate [m3/s], 2.22043
 Component Sizing Information, AirLoopHVAC, SYS_3_PSZ SP-WHOLEBUILDING-POLICE STATION SYS-3 FLR-1 SCH-H HPLCMT-NORTH ZN, Adjusted Cooling Design Air Flow Rate [m3/s], 2.22043
 Component Sizing Information, AirLoopHVAC, SYS_3_PSZ SP-WHOLEBUILDING-POLICE STATION SYS-3 FLR-1 SCH-H HPLCMT-NORTH ZN, Adjusted Main Design Air Flow Rate [m3/s], 2.22043
 Component Sizing Information, AirLoopHVAC, SYS_3_PSZ SP-WHOLEBUILDING-POLICE STATION SYS-3 FLR-1 SCH-H HPLCMT-NORTH ZN, User Heating Air Flow Ratio [], 1.00000
 Component Sizing Information, AirLoopHVAC, SYS_3_PSZ SP-WHOLEBUILDING-POLICE STATION SYS-3 FLR-1 SCH-H HPLCMT-NORTH ZN, Calculated Heating Air Flow Ratio [], 1.00000
 Component Sizing Information, AirLoopHVAC, SYS_3_PSZ SP-WHOLEBUILDING-POST OFFICE SYS-3 FLR-1 SCH-A HPLCMT-WEST ZN, Sum of Air Terminal Maximum Heating Flow Rates [m3/s], 2.20369
 Component Sizing Information, AirLoopHVAC, SYS_3_PSZ SP-WHOLEBUILDING-POST OFFICE SYS-3 FLR-1 SCH-A HPLCMT-WEST ZN, Sum of Air Terminal Minimum Heating Flow Rates [m3/s], 2.20369
 Component Sizing Information, AirLoopHVAC, SYS_3_PSZ SP-WHOLEBUILDING-POST OFFICE SYS-3 FLR-1 SCH-A HPLCMT-WEST ZN, Sum of Air Terminal Maximum Flow Rates [m3/s], 2.20369
 Component Sizing Information, AirLoopHVAC, SYS_3_PSZ SP-WHOLEBUILDING-POST OFFICE SYS-3 FLR-1 SCH-A HPLCMT-WEST ZN, Adjusted Heating Design Air Flow Rate [m3/s], 2.20369
 Component Sizing Information, AirLoopHVAC, SYS_3_PSZ SP-WHOLEBUILDING-POST OFFICE SYS-3 FLR-1 SCH-A HPLCMT-WEST ZN, Adjusted Cooling Design Air Flow Rate [m3/s], 2.20369
 Component Sizing Information, AirLoopHVAC, SYS_3_PSZ SP-WHOLEBUILDING-POST OFFICE SYS-3 FLR-1 SCH-A HPLCMT-WEST ZN, Adjusted Main Design Air Flow Rate [m3/s], 2.20369
 Component Sizing Information, AirLoopHVAC, SYS_3_PSZ SP-WHOLEBUILDING-POST OFFICE SYS-3 FLR-1 SCH-A HPLCMT-WEST ZN, User Heating Air Flow Ratio [], 1.00000
 Component Sizing Information, AirLoopHVAC, SYS_3_PSZ SP-WHOLEBUILDING-POST OFFICE SYS-3 FLR-1 SCH-A HPLCMT-WEST ZN, Calculated Heating Air Flow Ratio [], 1.00000
 Component Sizing Information, AirLoopHVAC, SYS_3_PSZ SP-WHOLEBUILDING-OFFICE SYS-3 FLR-1 SCH-A HPLCMT-CORE ZN, Design Supply Air Flow Rate [m3/s], 2.85866
 Component Sizing Information, AirLoopHVAC, SYS_3_PSZ SP-WHOLEBUILDING-PENITENTIARY SYS-3 FLR-1 SCH-H HPLCMT-SOUTH ZN, Design Supply Air Flow Rate [m3/s], 1.46276
 Component Sizing Information, AirLoopHVAC, SYS_3_PSZ SP-WHOLEBUILDING-PERFORMING ARTS THEATRE SYS-3 FLR-1 SCH-C HPLCMT-EAST ZN, Design Supply Air Flow Rate [m3/s], 2.69444
 Component Sizing Information, AirLoopHVAC, SYS_3_PSZ SP-WHOLEBUILDING-POLICE STATION SYS-3 FLR-1 SCH-H HPLCMT-NORTH ZN, Design Supply Air Flow Rate [m3/s], 2.22043
 Component Sizing Information, AirLoopHVAC, SYS_3_PSZ SP-WHOLEBUILDING-POST OFFICE SYS-3 FLR-1 SCH-A HPLCMT-WEST ZN, Design Supply Air Flow Rate [m3/s], 2.20369
!<Controller:MechanicalVentilation>,Name,Availability Schedule Name,Demand Controlled Ventilation {Yes/No},System Outdoor Air Method,Zone Maximum Outdoor Air Fraction,Number of Zones,Zone Name,DSOA Name,DSZAD Name
 Controller:MechanicalVentilation,CONTROLLER MECHANICAL VENTILATION 2,ALWAYS ON DISCRETE,No,ZoneSum,1.00,1,SP-WHOLEBUILDING-OFFICE SYS-3 FLR-1 SCH-A HPLCMT-CORE ZN,OFFICE WHOLEBUILDING VENTILATION,SP-WHOLEBUILDING-OFFICE SYS-3 FLR-1 SCH-A HPLCMT-CORE ZN DESIGN SPEC ZONE AIR DIST
 Controller:MechanicalVentilation,CONTROLLER MECHANICAL VENTILATION 4,ALWAYS ON DISCRETE,No,ZoneSum,1.00,1,SP-WHOLEBUILDING-PENITENTIARY SYS-3 FLR-1 SCH-H HPLCMT-SOUTH ZN,PENITENTIARY WHOLEBUILDING VENTILATION,SP-WHOLEBUILDING-PENITENTIARY SYS-3 FLR-1 SCH-H HPLCMT-SOUTH ZN DESIGN SPEC ZONE AIR DIST
 Controller:MechanicalVentilation,CONTROLLER MECHANICAL VENTILATION 5,ALWAYS ON DISCRETE,No,ZoneSum,1.00,1,SP-WHOLEBUILDING-PERFORMING ARTS THEATRE SYS-3 FLR-1 SCH-C HPLCMT-EAST ZN,PERFORMING ARTS THEATRE WHOLEBUILDING VENTILATION,SP-WHOLEBUILDING-PERFORMING ARTS THEATRE SYS-3 FLR-1 SCH-C HPLCMT-EAST ZN DESIGN SPEC ZONE AIR DIST
 Controller:MechanicalVentilation,CONTROLLER MECHANICAL VENTILATION 3,ALWAYS ON DISCRETE,No,ZoneSum,1.00,1,SP-WHOLEBUILDING-POLICE STATION SYS-3 FLR-1 SCH-H HPLCMT-NORTH ZN,POLICE STATION WHOLEBUILDING VENTILATION,SP-WHOLEBUILDING-POLICE STATION SYS-3 FLR-1 SCH-H HPLCMT-NORTH ZN DESIGN SPEC ZONE AIR DIST
 Controller:MechanicalVentilation,CONTROLLER MECHANICAL VENTILATION 1,ALWAYS ON DISCRETE,No,ZoneSum,1.00,1,SP-WHOLEBUILDING-POST OFFICE SYS-3 FLR-1 SCH-A HPLCMT-WEST ZN,POST OFFICE WHOLEBUILDING VENTILATION,SP-WHOLEBUILDING-POST OFFICE SYS-3 FLR-1 SCH-A HPLCMT-WEST ZN DESIGN SPEC ZONE AIR DIST
 Component Sizing Information, Controller:OutdoorAir, CONTROLLER OUTDOOR AIR 2, Maximum Outdoor Air Flow Rate [m3/s], 2.85866
 Component Sizing Information, Controller:OutdoorAir, CONTROLLER OUTDOOR AIR 2, Minimum Outdoor Air Flow Rate [m3/s], 1.00330
 Component Sizing Information, Coil:Cooling:DX:SingleSpeed, COIL COOLING DX SINGLE SPEED 2, Design Size Rated Air Flow Rate [m3/s], 2.85866
 Component Sizing Information, Coil:Cooling:DX:SingleSpeed, COIL COOLING DX SINGLE SPEED 2, Design Size Gross Rated Total Cooling Capacity [W], 47321.05443
 Component Sizing Information, Coil:Cooling:DX:SingleSpeed, COIL COOLING DX SINGLE SPEED 2, Design Size Gross Rated Sensible Heat Ratio, 0.80066
! <DX Cooling Coil Standard Rating Information>, Component Type, Component Name, Standard Rating (Net) Cooling Capacity {W}, Standard Rated Net COP {W/W}, EER {Btu/W-h}, SEER {Btu/W-h}, IEER {Btu/W-h}
 DX Cooling Coil Standard Rating Information, Coil:Cooling:DX:SingleSpeed, COIL COOLING DX SINGLE SPEED 2, 45102.8, 2.51, 8.56, 9.08, 8.70
 Component Sizing Information, Coil:Heating:Fuel, COIL HEATING GAS 2, Design Size Nominal Capacity [W], 137150.66844
 Component Sizing Information, Fan:ConstantVolume, FAN CONSTANT VOLUME 2, Design Size Maximum Flow Rate [m3/s], 2.85866
 Component Sizing Information, Controller:OutdoorAir, CONTROLLER OUTDOOR AIR 4, Maximum Outdoor Air Flow Rate [m3/s], 1.46276
 Component Sizing Information, Controller:OutdoorAir, CONTROLLER OUTDOOR AIR 4, Minimum Outdoor Air Flow Rate [m3/s], 0.71438
 Component Sizing Information, Coil:Cooling:DX:SingleSpeed, COIL COOLING DX SINGLE SPEED 4, Design Size Rated Air Flow Rate [m3/s], 1.46276
 Component Sizing Information, Coil:Cooling:DX:SingleSpeed, COIL COOLING DX SINGLE SPEED 4, Design Size Gross Rated Total Cooling Capacity [W], 24213.85232
 Component Sizing Information, Coil:Cooling:DX:SingleSpeed, COIL COOLING DX SINGLE SPEED 4, Design Size Gross Rated Sensible Heat Ratio, 0.80066
 DX Cooling Coil Standard Rating Information, Coil:Cooling:DX:SingleSpeed, COIL COOLING DX SINGLE SPEED 4, 23078.8, 2.51, 8.56, 9.08, 8.70
 Component Sizing Information, Coil:Heating:Fuel, COIL HEATING GAS 4, Design Size Nominal Capacity [W], 83726.65458
 Component Sizing Information, Fan:ConstantVolume, FAN CONSTANT VOLUME 4, Design Size Maximum Flow Rate [m3/s], 1.46276
 Component Sizing Information, Controller:OutdoorAir, CONTROLLER OUTDOOR AIR 5, Maximum Outdoor Air Flow Rate [m3/s], 2.69444
 Component Sizing Information, Controller:OutdoorAir, CONTROLLER OUTDOOR AIR 5, Minimum Outdoor Air Flow Rate [m3/s], 1.12395
 Component Sizing Information, Coil:Cooling:DX:SingleSpeed, COIL COOLING DX SINGLE SPEED 5, Design Size Rated Air Flow Rate [m3/s], 2.69444
 Component Sizing Information, Coil:Cooling:DX:SingleSpeed, COIL COOLING DX SINGLE SPEED 5, Design Size Gross Rated Total Cooling Capacity [W], 45895.39685
 Component Sizing Information, Coil:Cooling:DX:SingleSpeed, COIL COOLING DX SINGLE SPEED 5, Design Size Gross Rated Sensible Heat Ratio, 0.80030
 DX Cooling Coil Standard Rating Information, Coil:Cooling:DX:SingleSpeed, COIL COOLING DX SINGLE SPEED 5, 43804.4, 2.52, 8.60, 9.12, 8.77
 Component Sizing Information, Coil:Heating:Fuel, COIL HEATING GAS 5, Design Size Nominal Capacity [W], 141743.25561
 Component Sizing Information, Fan:ConstantVolume, FAN CONSTANT VOLUME 5, Design Size Maximum Flow Rate [m3/s], 2.69444
 Component Sizing Information, Controller:OutdoorAir, CONTROLLER OUTDOOR AIR 3, Maximum Outdoor Air Flow Rate [m3/s], 2.22043
 Component Sizing Information, Controller:OutdoorAir, CONTROLLER OUTDOOR AIR 3, Minimum Outdoor Air Flow Rate [m3/s], 0.75248
 Component Sizing Information, Coil:Cooling:DX:SingleSpeed, COIL COOLING DX SINGLE SPEED 3, Design Size Rated Air Flow Rate [m3/s], 2.22043
 Component Sizing Information, Coil:Cooling:DX:SingleSpeed, COIL COOLING DX SINGLE SPEED 3, Design Size Gross Rated Total Cooling Capacity [W], 36756.04832
 Component Sizing Information, Coil:Cooling:DX:SingleSpeed, COIL COOLING DX SINGLE SPEED 3, Design Size Gross Rated Sensible Heat Ratio, 0.80066
 DX Cooling Coil Standard Rating Information, Coil:Cooling:DX:SingleSpeed, COIL COOLING DX SINGLE SPEED 3, 35033.1, 2.51, 8.56, 9.08, 8.70
 Component Sizing Information, Coil:Heating:Fuel, COIL HEATING GAS 3, Design Size Nominal Capacity [W], 104721.94046
 Component Sizing Information, Fan:ConstantVolume, FAN CONSTANT VOLUME 3, Design Size Maximum Flow Rate [m3/s], 2.22043
 Component Sizing Information, Controller:OutdoorAir, CONTROLLER OUTDOOR AIR 1, Maximum Outdoor Air Flow Rate [m3/s], 2.20369
 Component Sizing Information, Controller:OutdoorAir, CONTROLLER OUTDOOR AIR 1, Minimum Outdoor Air Flow Rate [m3/s], 1.40970
 Component Sizing Information, Coil:Cooling:DX:SingleSpeed, COIL COOLING DX SINGLE SPEED 1, Design Size Rated Air Flow Rate [m3/s], 2.20369
 Component Sizing Information, Coil:Cooling:DX:SingleSpeed, COIL COOLING DX SINGLE SPEED 1, Design Size Gross Rated Total Cooling Capacity [W], 36478.91949
 Component Sizing Information, Coil:Cooling:DX:SingleSpeed, COIL COOLING DX SINGLE SPEED 1, Design Size Gross Rated Sensible Heat Ratio, 0.80066
 DX Cooling Coil Standard Rating Information, Coil:Cooling:DX:SingleSpeed, COIL COOLING DX SINGLE SPEED 1, 34768.9, 2.51, 8.56, 9.08, 8.70
 Component Sizing Information, Coil:Heating:Fuel, COIL HEATING GAS 1, Design Size Nominal Capacity [W], 148613.90587
 Component Sizing Information, Fan:ConstantVolume, FAN CONSTANT VOLUME 1, Design Size Maximum Flow Rate [m3/s], 2.20369
Water Heater Information,WaterHeater:Mixed,406GAL NATURALGAS WATER HEATER - 274KBTU/HR,1.5382,80374.5,0.388,0.5918
 Component Sizing Information, PlantLoop, HOT WATER LOOP, Maximum Loop Flow Rate [m3/s], 6.02406E-006
 Component Sizing Information, PlantLoop, HOT WATER LOOP, Plant Loop Volume [m3], 7.22888E-004
 Component Sizing Information, Pump:VariableSpeed, PUMP VARIABLE SPEED 1, Design Flow Rate [m3/s], 6.02406E-006
 Component Sizing Information, Pump:VariableSpeed, PUMP VARIABLE SPEED 1, Design Power Consumption [W], 1.53907
 Component Sizing Information, Boiler:HotWater, PRIMARY BOILER, Design Size Nominal Capacity [W], 404.89142
 Component Sizing Information, Boiler:HotWater, PRIMARY BOILER, Design Size Design Water Flow Rate [m3/s], 6.02406E-006
 Component Sizing Information, Boiler:HotWater, SECONDARY BOILER, Design Size Nominal Capacity [W], 404.89142
 Component Sizing Information, Boiler:HotWater, SECONDARY BOILER, Design Size Design Water Flow Rate [m3/s], 6.02406E-006
 Component Sizing Information, PlantLoop, MAIN SERVICE WATER LOOP, Maximum Loop Flow Rate [m3/s], 2.89628E-004
 Component Sizing Information, PlantLoop, MAIN SERVICE WATER LOOP, Plant Loop Volume [m3], 3.47554E-002
 Component Sizing Information, Pump:ConstantSpeed, SERVICE WATER LOOP PUMP, Design Flow Rate [m3/s], 2.89628E-004
 Component Sizing Information, Pump:ConstantSpeed, SERVICE WATER LOOP PUMP, Design Power Consumption [W], 4.12576E-004
 Component Sizing Information, WaterHeater:Mixed, 406GAL NATURALGAS WATER HEATER - 274KBTU/HR, Use Side Design Flow Rate [m3/s], 2.89628E-004
! <Environment>,Environment Name,Environment Type, Start Date, End Date, Start DayOfWeek, Duration {#days}, Source:Start DayOfWeek,  Use Daylight Saving, Use Holidays, Apply Weekend Holiday Rule,  Use Rain Values, Use Snow Values
! <Environment:Special Days>, Special Day Name, Special Day Type, Source, Start Date, Duration {#days}
! <Environment:Daylight Saving>, Daylight Saving Indicator, Source, Start Date, End Date
! <Environment:WarmupDays>, NumberofWarmupDays
Environment,FORT MCMURRAY AP ANN CLG .4% CONDNS DB=>MWB,SizingPeriod:DesignDay,07/21,07/21,SummerDesignDay,1,N/A,N/A,N/A,N/A,N/A,N/A
Environment:Daylight Saving,No,SizingPeriod:DesignDay
! <Environment:Design Day Data>, Max Dry-Bulb Temp {C}, Temp Range {dC}, Temp Range Ind Type, Hum Ind Value at Max Temp, Hum Ind Type,Pressure {Pa}, Wind Direction {deg CW from N}, Wind Speed {m/s}, Clearness, Rain, Snow
! <Environment:Design Day Misc>,DayOfYear,ASHRAE A Coeff,ASHRAE B Coeff,ASHRAE C Coeff,Solar Constant-Annual Variation,Eq of Time {minutes}, Solar Declination Angle {deg}, Solar Model
Environment:Design Day Data,28.90,12.40,DefaultMultipliers,96969,250,3.7,0.00,No,No
Environment:Design Day Misc,202,1084.4,0.2082,0.1365,1.0,-6.23,20.6,ASHRAETau
Environment:WarmupDays,  6
! <Tabular Report>,Style,Unit Conversion
Tabular Report,HTML,None
! <Warmup Convergence Information>,Zone Name,Environment Type/Name,Average Warmup Temperature Difference {deltaC},Std Dev Warmup Temperature Difference {deltaC},Max Temperature Pass/Fail Convergence,Min Temperature Pass/Fail Convergence,Average Warmup Load Difference {W},Std Dev Warmup Load Difference {W},Heating Load Pass/Fail Convergence,Cooling Load Pass/Fail Convergence
 Warmup Convergence Information,SP-WHOLEBUILDING-OFFICE SYS-3 FLR-1 SCH-A HPLCMT-CORE ZN,SizingPeriod: FORT MCMURRAY AP ANN CLG .4% CONDNS DB=>MWB,2.8013691159E-002,5.3263927333E-002,Pass,Pass,4.9286103232E-002,0.2261535063,Pass,Pass
 Warmup Convergence Information,SP-WHOLEBUILDING-PENITENTIARY SYS-3 FLR-1 SCH-H HPLCMT-SOUTH ZN,SizingPeriod: FORT MCMURRAY AP ANN CLG .4% CONDNS DB=>MWB,1.7344884589E-002,1.7610056211E-002,Pass,Pass,2.9998861659E-003,2.4302866658E-003,Pass,Pass
 Warmup Convergence Information,SP-WHOLEBUILDING-PERFORMING ARTS THEATRE SYS-3 FLR-1 SCH-C HPLCMT-EAST ZN,SizingPeriod: FORT MCMURRAY AP ANN CLG .4% CONDNS DB=>MWB,3.9431225599E-002,8.8931018029E-002,Pass,Pass,6.8939717325E-002,0.4224249109,Pass,Pass
 Warmup Convergence Information,SP-WHOLEBUILDING-POLICE STATION SYS-3 FLR-1 SCH-H HPLCMT-NORTH ZN,SizingPeriod: FORT MCMURRAY AP ANN CLG .4% CONDNS DB=>MWB,2.8741349500E-005,1.1920383873E-004,Pass,Pass,1.7538142194E-003,2.2040576678E-003,Pass,Pass
 Warmup Convergence Information,SP-WHOLEBUILDING-POST OFFICE SYS-3 FLR-1 SCH-A HPLCMT-WEST ZN,SizingPeriod: FORT MCMURRAY AP ANN CLG .4% CONDNS DB=>MWB,4.0474277581E-002,9.3068039996E-002,Pass,Pass,4.0344586178E-002,0.1306345509,Pass,Pass
Environment,FORT MCMURRAY AP ANN HTG 99.6% CONDNS DB,SizingPeriod:DesignDay,01/21,01/21,WinterDesignDay,1,N/A,N/A,N/A,N/A,N/A,N/A
Environment:Daylight Saving,No,SizingPeriod:DesignDay
Environment:Design Day Data,-36.20,0.00,DefaultMultipliers,96969,90,1.0,0.00,No,No
Environment:Design Day Misc, 21,1229.0,0.1415,5.7310E-002,1.0,-11.15,-20.1,ASHRAEClearSky
Environment:WarmupDays,  6
 Warmup Convergence Information,SP-WHOLEBUILDING-OFFICE SYS-3 FLR-1 SCH-A HPLCMT-CORE ZN,SizingPeriod: FORT MCMURRAY AP ANN HTG 99.6% CONDNS DB,7.2744186983E-002,0.2133627751,Pass,Pass,0.5396510274,4.7039689010,Pass,Pass
 Warmup Convergence Information,SP-WHOLEBUILDING-PENITENTIARY SYS-3 FLR-1 SCH-H HPLCMT-SOUTH ZN,SizingPeriod: FORT MCMURRAY AP ANN HTG 99.6% CONDNS DB,1.4009200011E-002,1.4961562894E-002,Pass,Pass,1.4455683089E-003,1.5396307926E-003,Pass,Pass
 Warmup Convergence Information,SP-WHOLEBUILDING-PERFORMING ARTS THEATRE SYS-3 FLR-1 SCH-C HPLCMT-EAST ZN,SizingPeriod: FORT MCMURRAY AP ANN HTG 99.6% CONDNS DB,6.8125595346E-002,0.2354573098,Pass,Pass,0.2754205426,1.7435199385,Pass,Pass
 Warmup Convergence Information,SP-WHOLEBUILDING-POLICE STATION SYS-3 FLR-1 SCH-H HPLCMT-NORTH ZN,SizingPeriod: FORT MCMURRAY AP ANN HTG 99.6% CONDNS DB,1.2321142902E-002,1.3847433243E-002,Pass,Pass,1.8104186763E-003,3.2951909436E-003,Pass,Pass
 Warmup Convergence Information,SP-WHOLEBUILDING-POST OFFICE SYS-3 FLR-1 SCH-A HPLCMT-WEST ZN,SizingPeriod: FORT MCMURRAY AP ANN HTG 99.6% CONDNS DB,7.2924028172E-002,0.2156692740,Pass,Pass,0.3220033730,1.9025909782,Pass,Pass
! <Program Control Information:Threads/Parallel Sims>, Threading Supported,Maximum Number of Threads, Env Set Threads (OMP_NUM_THREADS), EP Env Set Threads (EP_OMP_NUM_THREADS), IDF Set Threads, Number of Threads Used (Interior Radiant Exchange), Number Nominal Surfaces, Number Parallel Sims
Program Control:Threads/Parallel Sims, No,1, N/A, N/A, N/A, N/A, N/A, N/A
End of Data
