Program Version,EnergyPlus, Version 8.9.0-eba93e8e1b, YMD=2019.03.28 13:21
! This file shows details about the branches, nodes, and other
! elements of the flow connections.
! This file is intended for use in "debugging" potential problems
! that may also be detected by the program, but may be more easily
! identified by "eye".
! This file is also intended to support software which draws a
! schematic diagram of the HVAC system.
! ===============================================================
! #Nodes,<Number of Unique Nodes>
 #Nodes,581
! <Node>,<NodeNumber>,<Node Name>,<Node Fluid Type>,<# Times Node Referenced After Definition>
 Node,1,NODE 217,Air,3
 Node,2,NODE 207,Air,4
 Node,3,NODE 216,Air,3
 Node,4,NODE 27,Air,4
 Node,5,NODE 260,Air,3
 Node,6,NODE 250,Air,4
 Node,7,NODE 259,Air,3
 Node,8,NODE 303,Air,3
 Node,9,NODE 293,Air,4
 Node,10,NODE 302,Air,3
 Node,11,NODE 63,Air,4
 Node,12,NODE 45,Air,4
 Node,13,NODE 378,Air,4
 Node,14,NODE 115,Air,4
 Node,15,NODE 128,Air,4
 Node,16,NODE 141,Air,4
 Node,17,NODE 346,Air,3
 Node,18,NODE 336,Air,4
 Node,19,NODE 345,Air,3
 Node,20,NODE 365,Air,4
 Node,21,NODE 89,Air,4
 Node,22,NODE 167,Air,4
 Node,23,NODE 418,Air,4
 Node,24,NODE 438,Air,4
 Node,25,NODE 102,Air,4
 Node,26,NODE 76,Air,4
 Node,27,NODE 154,Air,4
 Node,28,NODE 352,Air,4
 Node,29,NODE 204,Air,10
 Node,30,NODE 205,Air,3
 Node,31,NODE 247,Air,10
 Node,32,NODE 248,Air,3
 Node,33,NODE 290,Air,10
 Node,34,NODE 291,Air,3
 Node,35,NODE 333,Air,10
 Node,36,NODE 334,Air,3
 Node,37,NODE 375,Air,10
 Node,38,NODE 376,Air,3
 Node,39,NODE 362,Air,10
 Node,40,NODE 363,Air,3
 Node,41,NODE 349,Air,10
 Node,42,NODE 350,Air,3
 Node,43,NODE 23,Air,10
 Node,44,NODE 24,Air,3
 Node,45,NODE 60,Air,10
 Node,46,NODE 61,Air,3
 Node,47,NODE 41,Air,10
 Node,48,NODE 42,Air,3
 Node,49,NODE 112,Air,10
 Node,50,NODE 113,Air,3
 Node,51,NODE 125,Air,10
 Node,52,NODE 126,Air,3
 Node,53,NODE 138,Air,10
 Node,54,NODE 139,Air,3
 Node,55,NODE 86,Air,10
 Node,56,NODE 87,Air,3
 Node,57,NODE 164,Air,10
 Node,58,NODE 165,Air,3
 Node,59,NODE 99,Air,10
 Node,60,NODE 100,Air,3
 Node,61,NODE 73,Air,10
 Node,62,NODE 74,Air,3
 Node,63,NODE 151,Air,10
 Node,64,NODE 152,Air,3
 Node,65,NODE 415,Air,12
 Node,66,NODE 416,Air,3
 Node,67,NODE 435,Air,12
 Node,68,NODE 436,Air,3
 Node,69,NODE 203,Air,3
 Node,70,NODE 212,Air,6
 Node,71,NODE 211,Air,6
 Node,72,NODE 210,Air,8
 Node,73,NODE 246,Air,3
 Node,74,NODE 255,Air,6
 Node,75,NODE 254,Air,6
 Node,76,NODE 253,Air,8
 Node,77,NODE 289,Air,3
 Node,78,NODE 298,Air,6
 Node,79,NODE 297,Air,6
 Node,80,NODE 296,Air,8
 Node,81,NODE 332,Air,3
 Node,82,NODE 341,Air,6
 Node,83,NODE 340,Air,6
 Node,84,NODE 339,Air,8
 Node,85,NODE 374,Air,3
 Node,86,NODE 383,Air,6
 Node,87,NODE 382,Air,6
 Node,88,NODE 381,Air,8
 Node,89,NODE 361,Air,3
 Node,90,NODE 370,Air,6
 Node,91,NODE 369,Air,6
 Node,92,NODE 368,Air,8
 Node,93,NODE 348,Air,4
 Node,94,NODE 357,Air,8
 Node,95,NODE 356,Air,6
 Node,96,NODE 355,Air,8
 Node,97,NODE 21,Air,3
 Node,98,NODE 35,Air,6
 Node,99,NODE 33,Air,6
 Node,100,NODE 32,Air,8
 Node,101,NODE 59,Air,3
 Node,102,NODE 68,Air,6
 Node,103,NODE 67,Air,6
 Node,104,NODE 66,Air,8
 Node,105,NODE 39,Air,3
 Node,106,NODE 53,Air,6
 Node,107,NODE 51,Air,6
 Node,108,NODE 50,Air,8
 Node,109,NODE 111,Air,4
 Node,110,NODE 120,Air,8
 Node,111,NODE 119,Air,6
 Node,112,NODE 118,Air,8
 Node,113,NODE 124,Air,4
 Node,114,NODE 133,Air,8
 Node,115,NODE 132,Air,6
 Node,116,NODE 131,Air,8
 Node,117,NODE 137,Air,4
 Node,118,NODE 146,Air,8
 Node,119,NODE 145,Air,6
 Node,120,NODE 144,Air,8
 Node,121,NODE 85,Air,4
 Node,122,NODE 94,Air,8
 Node,123,NODE 93,Air,6
 Node,124,NODE 92,Air,8
 Node,125,NODE 163,Air,4
 Node,126,NODE 172,Air,8
 Node,127,NODE 171,Air,6
 Node,128,NODE 170,Air,8
 Node,129,NODE 98,Air,4
 Node,130,NODE 107,Air,8
 Node,131,NODE 106,Air,6
 Node,132,NODE 105,Air,8
 Node,133,NODE 72,Air,3
 Node,134,NODE 81,Air,6
 Node,135,NODE 80,Air,6
 Node,136,NODE 79,Air,8
 Node,137,NODE 150,Air,4
 Node,138,NODE 159,Air,8
 Node,139,NODE 158,Air,6
 Node,140,NODE 157,Air,8
 Node,141,NODE 414,Air,2
 Node,142,NODE 427,Air,5
 Node,143,NODE 426,Air,5
 Node,144,NODE 425,Air,5
 Node,145,NODE 424,Air,9
 Node,146,NODE 434,Air,2
 Node,147,NODE 448,Air,5
 Node,148,NODE 447,Air,5
 Node,149,NODE 446,Air,5
 Node,150,NODE 445,Air,9
 Node,151,NODE 176,Water,2
 Node,152,NODE 182,Water,1
 Node,153,NODE 178,Water,1
 Node,154,NODE 183,Water,1
 Node,155,NODE 184,Water,1
 Node,156,NODE 185,Water,1
 Node,157,NODE 186,Water,1
 Node,158,NODE 187,Water,1
 Node,159,NODE 188,Water,1
 Node,160,NODE 177,Water,4
 Node,161,NODE 179,Water,2
 Node,162,CHILLED WATER LOOP DEMAND INLET PIPE NODE,Water,1
 Node,163,NODE 181,Water,1
 Node,164,NODE 215,Water,1
 Node,165,CHILLED WATER LOOP DEMAND BYPASS PIPE INLET NODE,Water,1
 Node,166,CHILLED WATER LOOP DEMAND BYPASS PIPE OUTLET NODE,Water,1
 Node,167,CHILLED WATER LOOP DEMAND OUTLET PIPE NODE,Water,1
 Node,168,NODE 180,Water,2
 Node,169,NODE 219,Water,2
 Node,170,NODE 225,Water,1
 Node,171,NODE 221,Water,1
 Node,172,NODE 226,Water,1
 Node,173,NODE 227,Water,1
 Node,174,NODE 228,Water,1
 Node,175,NODE 229,Water,1
 Node,176,NODE 230,Water,1
 Node,177,NODE 231,Water,1
 Node,178,NODE 220,Water,4
 Node,179,NODE 222,Water,2
 Node,180,CHILLED WATER LOOP 1 DEMAND INLET PIPE NODE,Water,1
 Node,181,NODE 224,Water,1
 Node,182,NODE 258,Water,1
 Node,183,CHILLED WATER LOOP 1 DEMAND BYPASS PIPE INLET NODE,Water,1
 Node,184,CHILLED WATER LOOP 1 DEMAND BYPASS PIPE OUTLET NODE,Water,1
 Node,185,CHILLED WATER LOOP 1 DEMAND OUTLET PIPE NODE,Water,1
 Node,186,NODE 223,Water,2
 Node,187,NODE 262,Water,2
 Node,188,NODE 268,Water,1
 Node,189,NODE 264,Water,1
 Node,190,NODE 269,Water,1
 Node,191,NODE 270,Water,1
 Node,192,NODE 271,Water,1
 Node,193,NODE 272,Water,1
 Node,194,NODE 273,Water,1
 Node,195,NODE 274,Water,1
 Node,196,NODE 263,Water,4
 Node,197,NODE 265,Water,2
 Node,198,CHILLED WATER LOOP 2 DEMAND INLET PIPE NODE,Water,1
 Node,199,NODE 267,Water,1
 Node,200,NODE 301,Water,1
 Node,201,CHILLED WATER LOOP 2 DEMAND BYPASS PIPE INLET NODE,Water,1
 Node,202,CHILLED WATER LOOP 2 DEMAND BYPASS PIPE OUTLET NODE,Water,1
 Node,203,CHILLED WATER LOOP 2 DEMAND OUTLET PIPE NODE,Water,1
 Node,204,NODE 266,Water,2
 Node,205,NODE 305,Water,2
 Node,206,NODE 311,Water,1
 Node,207,NODE 307,Water,1
 Node,208,NODE 312,Water,1
 Node,209,NODE 313,Water,1
 Node,210,NODE 314,Water,1
 Node,211,NODE 315,Water,1
 Node,212,NODE 316,Water,1
 Node,213,NODE 317,Water,1
 Node,214,NODE 306,Water,4
 Node,215,NODE 308,Water,2
 Node,216,CHILLED WATER LOOP 3 DEMAND INLET PIPE NODE,Water,1
 Node,217,NODE 310,Water,1
 Node,218,NODE 344,Water,1
 Node,219,CHILLED WATER LOOP 3 DEMAND BYPASS PIPE INLET NODE,Water,1
 Node,220,CHILLED WATER LOOP 3 DEMAND BYPASS PIPE OUTLET NODE,Water,1
 Node,221,CHILLED WATER LOOP 3 DEMAND OUTLET PIPE NODE,Water,1
 Node,222,NODE 309,Water,2
 Node,223,NODE 387,Water,2
 Node,224,NODE 393,Water,1
 Node,225,NODE 389,Water,1
 Node,226,NODE 394,Water,1
 Node,227,NODE 395,Water,1
 Node,228,NODE 396,Water,1
 Node,229,NODE 397,Water,1
 Node,230,NODE 398,Water,1
 Node,231,NODE 399,Water,1
 Node,232,NODE 388,Water,4
 Node,233,NODE 390,Water,2
 Node,234,CHILLED WATER LOOP 4 DEMAND INLET PIPE NODE,Water,1
 Node,235,NODE 392,Water,2
 Node,236,NODE 421,Water,1
 Node,237,NODE 441,Water,2
 Node,238,NODE 442,Water,1
 Node,239,CHILLED WATER LOOP 4 DEMAND BYPASS PIPE INLET NODE,Water,1
 Node,240,CHILLED WATER LOOP 4 DEMAND BYPASS PIPE OUTLET NODE,Water,1
 Node,241,CHILLED WATER LOOP 4 DEMAND OUTLET PIPE NODE,Water,1
 Node,242,NODE 391,Water,2
 Node,243,NODE 189,Water,2
 Node,244,NODE 195,Water,1
 Node,245,NODE 191,Water,1
 Node,246,NODE 196,Water,1
 Node,247,NODE 197,Water,1
 Node,248,NODE 198,Water,1
 Node,249,NODE 199,Water,1
 Node,250,NODE 190,Water,4
 Node,251,NODE 192,Water,2
 Node,252,CONDENSER WATER LOOP DEMAND INLET PIPE NODE,Water,1
 Node,253,NODE 194,Water,1
 Node,254,NODE 200,Water,1
 Node,255,NODE 201,Water,1
 Node,256,NODE 202,Water,1
 Node,257,CONDENSER WATER LOOP DEMAND BYPASS PIPE INLET NODE,Water,1
 Node,258,CONDENSER WATER LOOP DEMAND BYPASS PIPE OUTLET NODE,Water,1
 Node,259,CONDENSER WATER LOOP DEMAND OUTLET PIPE NODE,Water,1
 Node,260,NODE 193,Water,2
 Node,261,NODE 232,Water,2
 Node,262,NODE 238,Water,1
 Node,263,NODE 234,Water,1
 Node,264,NODE 239,Water,1
 Node,265,NODE 240,Water,1
 Node,266,NODE 241,Water,1
 Node,267,NODE 242,Water,1
 Node,268,NODE 233,Water,4
 Node,269,NODE 235,Water,2
 Node,270,CONDENSER WATER LOOP 1 DEMAND INLET PIPE NODE,Water,1
 Node,271,NODE 237,Water,1
 Node,272,NODE 243,Water,1
 Node,273,NODE 244,Water,1
 Node,274,NODE 245,Water,1
 Node,275,CONDENSER WATER LOOP 1 DEMAND BYPASS PIPE INLET NODE,Water,1
 Node,276,CONDENSER WATER LOOP 1 DEMAND BYPASS PIPE OUTLET NODE,Water,1
 Node,277,CONDENSER WATER LOOP 1 DEMAND OUTLET PIPE NODE,Water,1
 Node,278,NODE 236,Water,2
 Node,279,NODE 275,Water,2
 Node,280,NODE 281,Water,1
 Node,281,NODE 277,Water,1
 Node,282,NODE 282,Water,1
 Node,283,NODE 283,Water,1
 Node,284,NODE 284,Water,1
 Node,285,NODE 285,Water,1
 Node,286,NODE 276,Water,4
 Node,287,NODE 278,Water,2
 Node,288,CONDENSER WATER LOOP 2 DEMAND INLET PIPE NODE,Water,1
 Node,289,NODE 280,Water,1
 Node,290,NODE 286,Water,1
 Node,291,NODE 287,Water,1
 Node,292,NODE 288,Water,1
 Node,293,CONDENSER WATER LOOP 2 DEMAND BYPASS PIPE INLET NODE,Water,1
 Node,294,CONDENSER WATER LOOP 2 DEMAND BYPASS PIPE OUTLET NODE,Water,1
 Node,295,CONDENSER WATER LOOP 2 DEMAND OUTLET PIPE NODE,Water,1
 Node,296,NODE 279,Water,2
 Node,297,NODE 318,Water,2
 Node,298,NODE 324,Water,1
 Node,299,NODE 320,Water,1
 Node,300,NODE 325,Water,1
 Node,301,NODE 326,Water,1
 Node,302,NODE 327,Water,1
 Node,303,NODE 328,Water,1
 Node,304,NODE 319,Water,4
 Node,305,NODE 321,Water,2
 Node,306,CONDENSER WATER LOOP 3 DEMAND INLET PIPE NODE,Water,1
 Node,307,NODE 323,Water,1
 Node,308,NODE 329,Water,1
 Node,309,NODE 330,Water,1
 Node,310,NODE 331,Water,1
 Node,311,CONDENSER WATER LOOP 3 DEMAND BYPASS PIPE INLET NODE,Water,1
 Node,312,CONDENSER WATER LOOP 3 DEMAND BYPASS PIPE OUTLET NODE,Water,1
 Node,313,CONDENSER WATER LOOP 3 DEMAND OUTLET PIPE NODE,Water,1
 Node,314,NODE 322,Water,2
 Node,315,NODE 400,Water,2
 Node,316,NODE 406,Water,1
 Node,317,NODE 402,Water,1
 Node,318,NODE 407,Water,1
 Node,319,NODE 408,Water,1
 Node,320,NODE 409,Water,1
 Node,321,NODE 410,Water,1
 Node,322,NODE 401,Water,4
 Node,323,NODE 403,Water,2
 Node,324,CONDENSER WATER LOOP 4 DEMAND INLET PIPE NODE,Water,1
 Node,325,NODE 405,Water,1
 Node,326,NODE 411,Water,1
 Node,327,NODE 412,Water,1
 Node,328,NODE 413,Water,1
 Node,329,CONDENSER WATER LOOP 4 DEMAND BYPASS PIPE INLET NODE,Water,1
 Node,330,CONDENSER WATER LOOP 4 DEMAND BYPASS PIPE OUTLET NODE,Water,1
 Node,331,CONDENSER WATER LOOP 4 DEMAND OUTLET PIPE NODE,Water,1
 Node,332,NODE 404,Water,2
 Node,333,NODE 2,Water,2
 Node,334,NODE 11,Water,1
 Node,335,NODE 5,Water,1
 Node,336,NODE 12,Water,1
 Node,337,NODE 14,Water,1
 Node,338,NODE 15,Water,1
 Node,339,NODE 17,Water,1
 Node,340,NODE 18,Water,1
 Node,341,NODE 20,Water,1
 Node,342,NODE 3,Water,4
 Node,343,NODE 6,Water,2
 Node,344,HOT WATER LOOP DEMAND INLET PIPE NODE,Water,1
 Node,345,NODE 9,Water,1
 Node,346,NODE 38,Water,1
 Node,347,NODE 56,Water,1
 Node,348,NODE 57,Water,1
 Node,349,NODE 70,Water,1
 Node,350,NODE 71,Water,1
 Node,351,NODE 83,Water,1
 Node,352,NODE 84,Water,1
 Node,353,NODE 96,Water,1
 Node,354,NODE 97,Water,1
 Node,355,NODE 109,Water,1
 Node,356,NODE 110,Water,1
 Node,357,NODE 122,Water,1
 Node,358,NODE 123,Water,1
 Node,359,NODE 135,Water,1
 Node,360,NODE 136,Water,1
 Node,361,NODE 148,Water,1
 Node,362,NODE 149,Water,1
 Node,363,NODE 161,Water,1
 Node,364,NODE 162,Water,1
 Node,365,NODE 174,Water,1
 Node,366,NODE 175,Water,1
 Node,367,NODE 213,Water,1
 Node,368,NODE 214,Water,1
 Node,369,NODE 256,Water,1
 Node,370,NODE 257,Water,1
 Node,371,NODE 299,Water,1
 Node,372,NODE 300,Water,1
 Node,373,NODE 342,Water,1
 Node,374,NODE 343,Water,1
 Node,375,NODE 359,Water,1
 Node,376,NODE 360,Water,1
 Node,377,NODE 372,Water,1
 Node,378,NODE 373,Water,1
 Node,379,NODE 385,Water,1
 Node,380,NODE 386,Water,1
 Node,381,NODE 419,Water,2
 Node,382,NODE 420,Water,1
 Node,383,NODE 428,Water,1
 Node,384,NODE 429,Water,1
 Node,385,NODE 432,Water,1
 Node,386,NODE 433,Water,1
 Node,387,NODE 439,Water,2
 Node,388,NODE 440,Water,1
 Node,389,NODE 449,Water,1
 Node,390,NODE 450,Water,1
 Node,391,NODE 453,Water,1
 Node,392,NODE 454,Water,1
 Node,393,HOT WATER LOOP DEMAND BYPASS PIPE INLET NODE,Water,1
 Node,394,HOT WATER LOOP DEMAND BYPASS PIPE OUTLET NODE,Water,1
 Node,395,HOT WATER LOOP DEMAND OUTLET PIPE NODE,Water,1
 Node,396,NODE 8,Water,2
 Node,397,NODE 455,Water,2
 Node,398,NODE 461,Water,1
 Node,399,NODE 457,Water,1
 Node,400,NODE 462,Water,1
 Node,401,NODE 463,Water,1
 Node,402,NODE 464,Water,1
 Node,403,NODE 466,Water,1
 Node,404,NODE 456,Water,4
 Node,405,NODE 458,Water,2
 Node,406,NODE 467,Water,1
 Node,407,NODE 460,Water,1
 Node,408,NODE 465,Water,1
 Node,409,NODE 469,Water,1
 Node,410,NODE 470,Water,1
 Node,411,NODE 471,Water,1
 Node,412,NODE 472,Water,1
 Node,413,NODE 473,Water,1
 Node,414,NODE 474,Water,1
 Node,415,NODE 475,Water,1
 Node,416,NODE 476,Water,1
 Node,417,NODE 477,Water,1
 Node,418,NODE 478,Water,1
 Node,419,NODE 479,Water,1
 Node,420,NODE 480,Water,1
 Node,421,NODE 481,Water,1
 Node,422,NODE 482,Water,1
 Node,423,NODE 483,Water,1
 Node,424,NODE 484,Water,1
 Node,425,NODE 485,Water,1
 Node,426,NODE 486,Water,1
 Node,427,NODE 487,Water,1
 Node,428,NODE 488,Water,1
 Node,429,NODE 489,Water,1
 Node,430,NODE 490,Water,1
 Node,431,NODE 491,Water,1
 Node,432,NODE 492,Water,1
 Node,433,NODE 493,Water,1
 Node,434,NODE 494,Water,1
 Node,435,NODE 495,Water,1
 Node,436,NODE 496,Water,1
 Node,437,MAIN SERVICE WATER LOOP DEMAND BYPASS PIPE INLET NODE,Water,1
 Node,438,MAIN SERVICE WATER LOOP DEMAND BYPASS PIPE OUTLET NODE,Water,1
 Node,439,NODE 468,Water,1
 Node,440,NODE 459,Water,2
 Node,441,NODE 4,Air,1
 Node,442,NODE 218,Air,1
 Node,443,NODE 1,Air,1
 Node,444,NODE 36,Air,1
 Node,445,NODE 10,Air,1
 Node,446,NODE 261,Air,1
 Node,447,NODE 16,Air,1
 Node,448,NODE 304,Air,1
 Node,449,NODE 13,Air,1
 Node,450,NODE 69,Air,1
 Node,451,NODE 7,Air,1
 Node,452,NODE 54,Air,1
 Node,453,NODE 37,Air,1
 Node,454,NODE 384,Air,1
 Node,455,NODE 46,Air,1
 Node,456,NODE 121,Air,1
 Node,457,NODE 49,Air,1
 Node,458,NODE 134,Air,1
 Node,459,NODE 52,Air,1
 Node,460,NODE 147,Air,1
 Node,461,NODE 34,Air,1
 Node,462,NODE 347,Air,1
 Node,463,NODE 25,Air,1
 Node,464,NODE 371,Air,1
 Node,465,NODE 40,Air,1
 Node,466,NODE 95,Air,1
 Node,467,NODE 58,Air,1
 Node,468,NODE 173,Air,1
 Node,469,NODE 28,Air,0
 Node,470,NODE 430,Air,1
 Node,471,NODE 22,Air,0
 Node,472,NODE 451,Air,1
 Node,473,NODE 43,Air,1
 Node,474,NODE 108,Air,1
 Node,475,NODE 31,Air,1
 Node,476,NODE 82,Air,1
 Node,477,NODE 55,Air,1
 Node,478,NODE 160,Air,1
 Node,479,NODE 19,Air,1
 Node,480,NODE 358,Air,1
 Node,481,NODE 206,Air,2
 Node,482,NODE 249,Air,2
 Node,483,NODE 292,Air,2
 Node,484,NODE 335,Air,2
 Node,485,NODE 377,Air,2
 Node,486,NODE 364,Air,2
 Node,487,NODE 351,Air,2
 Node,488,NODE 26,Air,2
 Node,489,NODE 62,Air,2
 Node,490,NODE 44,Air,2
 Node,491,NODE 114,Air,2
 Node,492,NODE 127,Air,2
 Node,493,NODE 140,Air,2
 Node,494,NODE 88,Air,2
 Node,495,NODE 166,Air,2
 Node,496,NODE 101,Air,2
 Node,497,NODE 75,Air,2
 Node,498,NODE 153,Air,2
 Node,499,NODE 417,Air,2
 Node,500,NODE 437,Air,2
 Node,501,ZONE HVAC FOUR PIPE FAN COIL 1 OA NODE,Air,1
 Node,502,ZONE HVAC FOUR PIPE FAN COIL 2 OA NODE,Air,1
 Node,503,ZONE HVAC FOUR PIPE FAN COIL 3 OA NODE,Air,1
 Node,504,ZONE HVAC FOUR PIPE FAN COIL 4 OA NODE,Air,1
 Node,505,NODE 208,Air,2
 Node,506,NODE 251,Air,2
 Node,507,NODE 294,Air,2
 Node,508,NODE 337,Air,2
 Node,509,NODE 379,Air,2
 Node,510,NODE 366,Air,2
 Node,511,NODE 353,Air,3
 Node,512,NODE 29,Air,2
 Node,513,NODE 64,Air,2
 Node,514,NODE 47,Air,2
 Node,515,NODE 116,Air,3
 Node,516,NODE 129,Air,3
 Node,517,NODE 142,Air,3
 Node,518,NODE 90,Air,3
 Node,519,NODE 168,Air,3
 Node,520,NODE 103,Air,3
 Node,521,NODE 77,Air,2
 Node,522,NODE 155,Air,3
 Node,523,NODE 422,Air,2
 Node,524,NODE 443,Air,2
 Node,525,MODEL OUTDOOR AIR NODE,Air,0
 Node,526,NODE 498,Air,2
 Node,527,NODE 500,Air,2
 Node,528,NODE 502,Air,2
 Node,529,NODE 504,Air,2
 Node,530,NODE 506,Air,2
 Node,531,NODE 508,Air,2
 Node,532,NODE 510,Air,2
 Node,533,NODE 512,Air,2
 Node,534,NODE 431,Air,1
 Node,535,NODE 452,Air,1
 Node,536,ZONE HVAC FOUR PIPE FAN COIL 1 MIXED AIR NODE,Air,1
 Node,537,ZONE HVAC FOUR PIPE FAN COIL 1 RELIEF AIR NODE,Air,0
 Node,538,ZONE HVAC FOUR PIPE FAN COIL 2 MIXED AIR NODE,Air,1
 Node,539,ZONE HVAC FOUR PIPE FAN COIL 2 RELIEF AIR NODE,Air,0
 Node,540,ZONE HVAC FOUR PIPE FAN COIL 3 MIXED AIR NODE,Air,1
 Node,541,ZONE HVAC FOUR PIPE FAN COIL 3 RELIEF AIR NODE,Air,0
 Node,542,ZONE HVAC FOUR PIPE FAN COIL 4 MIXED AIR NODE,Air,1
 Node,543,ZONE HVAC FOUR PIPE FAN COIL 4 RELIEF AIR NODE,Air,0
 Node,544,NODE 209,Air,1
 Node,545,NODE 252,Air,1
 Node,546,NODE 295,Air,1
 Node,547,NODE 338,Air,1
 Node,548,NODE 380,Air,1
 Node,549,NODE 367,Air,1
 Node,550,NODE 499,Air,2
 Node,551,NODE 30,Air,1
 Node,552,NODE 65,Air,1
 Node,553,NODE 48,Air,1
 Node,554,NODE 501,Air,2
 Node,555,NODE 503,Air,2
 Node,556,NODE 505,Air,2
 Node,557,NODE 507,Air,2
 Node,558,NODE 509,Air,2
 Node,559,NODE 511,Air,2
 Node,560,NODE 78,Air,1
 Node,561,NODE 513,Air,2
 Node,562,NODE 423,Air,1
 Node,563,NODE 444,Air,1
 Node,564,ZONE HVAC FOUR PIPE FAN COIL 1 COOLING COIL OUTLET NODE,Air,1
 Node,565,ZONE HVAC FOUR PIPE FAN COIL 2 COOLING COIL OUTLET NODE,Air,1
 Node,566,ZONE HVAC FOUR PIPE FAN COIL 3 COOLING COIL OUTLET NODE,Air,1
 Node,567,ZONE HVAC FOUR PIPE FAN COIL 4 COOLING COIL OUTLET NODE,Air,1
 Node,568,AIR TERMINAL SINGLE DUCT VAV REHEAT 1 DAMPER OUTLET,Air,1
 Node,569,AIR TERMINAL SINGLE DUCT VAV REHEAT 2 DAMPER OUTLET,Air,1
 Node,570,ZONE HVAC FOUR PIPE FAN COIL 1 FAN OUTLET NODE,Air,1
 Node,571,ZONE HVAC FOUR PIPE FAN COIL 2 FAN OUTLET NODE,Air,1
 Node,572,ZONE HVAC FOUR PIPE FAN COIL 3 FAN OUTLET NODE,Air,1
 Node,573,ZONE HVAC FOUR PIPE FAN COIL 4 FAN OUTLET NODE,Air,1
 Node,574,NODE 354,Air,0
 Node,575,NODE 117,Air,0
 Node,576,NODE 130,Air,0
 Node,577,NODE 143,Air,0
 Node,578,NODE 91,Air,0
 Node,579,NODE 169,Air,0
 Node,580,NODE 104,Air,0
 Node,581,NODE 156,Air,0
! ===============================================================
! Suspicious nodes have 0 references.  It is normal for some nodes, however.
! Listing nodes with 0 references (culled from previous list):
! <Suspicious Node>,<NodeNumber>,<Node Name>,<Node Fluid Type>,<# Times Node Referenced After Definition>
 Suspicious Node,469,NODE 28,Air,0
 Suspicious Node,471,NODE 22,Air,0
 Suspicious Node,525,MODEL OUTDOOR AIR NODE,Air,0
 Suspicious Node,537,ZONE HVAC FOUR PIPE FAN COIL 1 RELIEF AIR NODE,Air,0
 Suspicious Node,539,ZONE HVAC FOUR PIPE FAN COIL 2 RELIEF AIR NODE,Air,0
 Suspicious Node,541,ZONE HVAC FOUR PIPE FAN COIL 3 RELIEF AIR NODE,Air,0
 Suspicious Node,543,ZONE HVAC FOUR PIPE FAN COIL 4 RELIEF AIR NODE,Air,0
 Suspicious Node,574,NODE 354,Air,0
 Suspicious Node,575,NODE 117,Air,0
 Suspicious Node,576,NODE 130,Air,0
 Suspicious Node,577,NODE 143,Air,0
 Suspicious Node,578,NODE 91,Air,0
 Suspicious Node,579,NODE 169,Air,0
 Suspicious Node,580,NODE 104,Air,0
 Suspicious Node,581,NODE 156,Air,0
! ===============================================================
! <#Branch Lists>,<Number of Branch Lists>
 #Branch Lists,44
! <Branch List>,<Branch List Count>,<Branch List Name>,<Loop Name>,<Loop Type>,<Number of Branches>
! <Branch>,<Branch Count>,<Branch Name>,<Loop Name>,<Loop Type>,<Branch Inlet Node Name>,<Branch Outlet Node Name>
 Branch List,1,SYS_2_MAKE-UP AIR UNIT SUPPLY BRANCHES,SYS_2_MAKE-UP AIR UNIT,Air,1
   Branch,1,SYS_2_MAKE-UP AIR UNIT MAIN BRANCH,SYS_2_MAKE-UP AIR UNIT,Air,NODE 203,NODE 204
 Branch List,2,SYS_2_MAKE-UP AIR UNIT 1 SUPPLY BRANCHES,SYS_2_MAKE-UP AIR UNIT 1,Air,1
   Branch,1,SYS_2_MAKE-UP AIR UNIT 1 MAIN BRANCH,SYS_2_MAKE-UP AIR UNIT 1,Air,NODE 246,NODE 247
 Branch List,3,SYS_2_MAKE-UP AIR UNIT 2 SUPPLY BRANCHES,SYS_2_MAKE-UP AIR UNIT 2,Air,1
   Branch,1,SYS_2_MAKE-UP AIR UNIT 2 MAIN BRANCH,SYS_2_MAKE-UP AIR UNIT 2,Air,NODE 289,NODE 290
 Branch List,4,SYS_2_MAKE-UP AIR UNIT 3 SUPPLY BRANCHES,SYS_2_MAKE-UP AIR UNIT 3,Air,1
   Branch,1,SYS_2_MAKE-UP AIR UNIT 3 MAIN BRANCH,SYS_2_MAKE-UP AIR UNIT 3,Air,NODE 332,NODE 333
 Branch List,5,SYS_3_PSZ ALL_ST=WHOLEBUILDING_FL=STORY 1_SCH=A SUPPLY BRANCHES,SYS_3_PSZ ALL_ST=WHOLEBUILDING_FL=STORY 1_SCH=A,Air,1
   Branch,1,SYS_3_PSZ ALL_ST=WHOLEBUILDING_FL=STORY 1_SCH=A MAIN BRANCH,SYS_3_PSZ ALL_ST=WHOLEBUILDING_FL=STORY 1_SCH=A,Air,NODE 374,NODE 375
 Branch List,6,SYS_3_PSZ ALL_ST=WHOLEBUILDING_FL=STORY 2_SCH=D SUPPLY BRANCHES,SYS_3_PSZ ALL_ST=WHOLEBUILDING_FL=STORY 2_SCH=D,Air,1
   Branch,1,SYS_3_PSZ ALL_ST=WHOLEBUILDING_FL=STORY 2_SCH=D MAIN BRANCH,SYS_3_PSZ ALL_ST=WHOLEBUILDING_FL=STORY 2_SCH=D,Air,NODE 361,NODE 362
 Branch List,7,SYS_3_PSZ ALL_ST=WORKSHOP SPACE_FL=STORY 1_SCH=A SUPPLY BRANCHES,SYS_3_PSZ ALL_ST=WORKSHOP SPACE_FL=STORY 1_SCH=A,Air,1
   Branch,1,SYS_3_PSZ ALL_ST=WORKSHOP SPACE_FL=STORY 1_SCH=A MAIN BRANCH,SYS_3_PSZ ALL_ST=WORKSHOP SPACE_FL=STORY 1_SCH=A,Air,NODE 348,NODE 349
 Branch List,8,SYS_4_PSZ_ALL_ST=WAREHOUSE - FINE_FL=STORY 4_SCH=A SUPPLY BRANCHES,SYS_4_PSZ_ALL_ST=WAREHOUSE - FINE_FL=STORY 4_SCH=A,Air,1
   Branch,1,SYS_4_PSZ_ALL_ST=WAREHOUSE - FINE_FL=STORY 4_SCH=A MAIN BRANCH,SYS_4_PSZ_ALL_ST=WAREHOUSE - FINE_FL=STORY 4_SCH=A,Air,NODE 21,NODE 23
 Branch List,9,SYS_4_PSZ_ALL_ST=WAREHOUSE - MED/BLK2_FL=STORY 3_SCH=A SUPPLY BRANCHES,SYS_4_PSZ_ALL_ST=WAREHOUSE - MED/BLK2_FL=STORY 3_SCH=A,Air,1
   Branch,1,SYS_4_PSZ_ALL_ST=WAREHOUSE - MED/BLK2_FL=STORY 3_SCH=A MAIN BRANCH,SYS_4_PSZ_ALL_ST=WAREHOUSE - MED/BLK2_FL=STORY 3_SCH=A,Air,NODE 59,NODE 60
 Branch List,10,SYS_4_PSZ_ALL_ST=WAREHOUSE - MED/BLK_FL=STORY 4_SCH=A SUPPLY BRANCHES,SYS_4_PSZ_ALL_ST=WAREHOUSE - MED/BLK_FL=STORY 4_SCH=A,Air,1
   Branch,1,SYS_4_PSZ_ALL_ST=WAREHOUSE - MED/BLK_FL=STORY 4_SCH=A MAIN BRANCH,SYS_4_PSZ_ALL_ST=WAREHOUSE - MED/BLK_FL=STORY 4_SCH=A,Air,NODE 39,NODE 41
 Branch List,11,SYS_4_PSZ_ALL_ST=WHOLEBUILDING_FL=STORY 1_SCH=E SUPPLY BRANCHES,SYS_4_PSZ_ALL_ST=WHOLEBUILDING_FL=STORY 1_SCH=E,Air,1
   Branch,1,SYS_4_PSZ_ALL_ST=WHOLEBUILDING_FL=STORY 1_SCH=E MAIN BRANCH,SYS_4_PSZ_ALL_ST=WHOLEBUILDING_FL=STORY 1_SCH=E,Air,NODE 111,NODE 112
 Branch List,12,SYS_4_PSZ_ALL_ST=WHOLEBUILDING_FL=STORY 1_SCH=E 1 SUPPLY BRANCHES,SYS_4_PSZ_ALL_ST=WHOLEBUILDING_FL=STORY 1_SCH=E 1,Air,1
   Branch,1,SYS_4_PSZ_ALL_ST=WHOLEBUILDING_FL=STORY 1_SCH=E 1 MAIN BRANCH,SYS_4_PSZ_ALL_ST=WHOLEBUILDING_FL=STORY 1_SCH=E 1,Air,NODE 124,NODE 125
 Branch List,13,SYS_4_PSZ_ALL_ST=WHOLEBUILDING_FL=STORY 1_SCH=E 2 SUPPLY BRANCHES,SYS_4_PSZ_ALL_ST=WHOLEBUILDING_FL=STORY 1_SCH=E 2,Air,1
   Branch,1,SYS_4_PSZ_ALL_ST=WHOLEBUILDING_FL=STORY 1_SCH=E 2 MAIN BRANCH,SYS_4_PSZ_ALL_ST=WHOLEBUILDING_FL=STORY 1_SCH=E 2,Air,NODE 137,NODE 138
 Branch List,14,SYS_4_PSZ_ALL_ST=WHOLEBUILDING_FL=STORY 2_SCH=E SUPPLY BRANCHES,SYS_4_PSZ_ALL_ST=WHOLEBUILDING_FL=STORY 2_SCH=E,Air,1
   Branch,1,SYS_4_PSZ_ALL_ST=WHOLEBUILDING_FL=STORY 2_SCH=E MAIN BRANCH,SYS_4_PSZ_ALL_ST=WHOLEBUILDING_FL=STORY 2_SCH=E,Air,NODE 85,NODE 86
 Branch List,15,SYS_4_PSZ_ALL_ST=WHOLEBUILDING_FL=STORY 2_SCH=E 1 SUPPLY BRANCHES,SYS_4_PSZ_ALL_ST=WHOLEBUILDING_FL=STORY 2_SCH=E 1,Air,1
   Branch,1,SYS_4_PSZ_ALL_ST=WHOLEBUILDING_FL=STORY 2_SCH=E 1 MAIN BRANCH,SYS_4_PSZ_ALL_ST=WHOLEBUILDING_FL=STORY 2_SCH=E 1,Air,NODE 163,NODE 164
 Branch List,16,SYS_4_PSZ_ALL_ST=WHOLEBUILDING_FL=STORY 3_SCH=E SUPPLY BRANCHES,SYS_4_PSZ_ALL_ST=WHOLEBUILDING_FL=STORY 3_SCH=E,Air,1
   Branch,1,SYS_4_PSZ_ALL_ST=WHOLEBUILDING_FL=STORY 3_SCH=E MAIN BRANCH,SYS_4_PSZ_ALL_ST=WHOLEBUILDING_FL=STORY 3_SCH=E,Air,NODE 98,NODE 99
 Branch List,17,SYS_4_PSZ_ALL_ST=WHOLEBUILDING_FL=STORY 4_SCH=A SUPPLY BRANCHES,SYS_4_PSZ_ALL_ST=WHOLEBUILDING_FL=STORY 4_SCH=A,Air,1
   Branch,1,SYS_4_PSZ_ALL_ST=WHOLEBUILDING_FL=STORY 4_SCH=A MAIN BRANCH,SYS_4_PSZ_ALL_ST=WHOLEBUILDING_FL=STORY 4_SCH=A,Air,NODE 72,NODE 73
 Branch List,18,SYS_4_PSZ_ALL_ST=WHOLEBUILDING_FL=STORY 4_SCH=E SUPPLY BRANCHES,SYS_4_PSZ_ALL_ST=WHOLEBUILDING_FL=STORY 4_SCH=E,Air,1
   Branch,1,SYS_4_PSZ_ALL_ST=WHOLEBUILDING_FL=STORY 4_SCH=E MAIN BRANCH,SYS_4_PSZ_ALL_ST=WHOLEBUILDING_FL=STORY 4_SCH=E,Air,NODE 150,NODE 151
 Branch List,19,SYS_6_VAV WITH REHEAT SUPPLY BRANCHES,SYS_6_VAV WITH REHEAT,Air,1
   Branch,1,SYS_6_VAV WITH REHEAT MAIN BRANCH,SYS_6_VAV WITH REHEAT,Air,NODE 414,NODE 415
 Branch List,20,SYS_6_VAV WITH REHEAT 1 SUPPLY BRANCHES,SYS_6_VAV WITH REHEAT 1,Air,1
   Branch,1,SYS_6_VAV WITH REHEAT 1 MAIN BRANCH,SYS_6_VAV WITH REHEAT 1,Air,NODE 434,NODE 435
 Branch List,21,CHILLED WATER LOOP SUPPLY BRANCHES,CHILLED WATER LOOP,Plant Supply,5
   Branch,1,CHILLED WATER LOOP SUPPLY INLET BRANCH,CHILLED WATER LOOP,Plant Supply,NODE 176,NODE 182
   Branch,2,CHILLED WATER LOOP SUPPLY BRANCH 1,CHILLED WATER LOOP,Plant Supply,NODE 178,NODE 183
   Branch,3,CHILLED WATER LOOP SUPPLY BRANCH 2,CHILLED WATER LOOP,Plant Supply,NODE 184,NODE 185
   Branch,4,CHILLED WATER LOOP SUPPLY BRANCH 3,CHILLED WATER LOOP,Plant Supply,NODE 186,NODE 187
   Branch,5,CHILLED WATER LOOP SUPPLY OUTLET BRANCH,CHILLED WATER LOOP,Plant Supply,NODE 188,NODE 177
 Branch List,22,CHILLED WATER LOOP DEMAND BRANCHES,CHILLED WATER LOOP,Plant Demand,4
   Branch,1,CHILLED WATER LOOP DEMAND INLET BRANCH,CHILLED WATER LOOP,Plant Demand,NODE 179,CHILLED WATER LOOP DEMAND INLET PIPE NODE
   Branch,2,CHILLED WATER LOOP DEMAND BRANCH 1,CHILLED WATER LOOP,Plant Demand,NODE 181,NODE 215
   Branch,3,CHILLED WATER LOOP DEMAND BYPASS BRANCH,CHILLED WATER LOOP,Plant Demand,CHILLED WATER LOOP DEMAND BYPASS PIPE INLET NODE,CHILLED WATER LOOP DEMAND BYPASS PIPE OUTLET NODE
   Branch,4,CHILLED WATER LOOP DEMAND OUTLET BRANCH,CHILLED WATER LOOP,Plant Demand,CHILLED WATER LOOP DEMAND OUTLET PIPE NODE,NODE 180
 Branch List,23,CHILLED WATER LOOP 1 SUPPLY BRANCHES,CHILLED WATER LOOP 1,Plant Supply,5
   Branch,1,CHILLED WATER LOOP 1 SUPPLY INLET BRANCH,CHILLED WATER LOOP 1,Plant Supply,NODE 219,NODE 225
   Branch,2,CHILLED WATER LOOP 1 SUPPLY BRANCH 1,CHILLED WATER LOOP 1,Plant Supply,NODE 221,NODE 226
   Branch,3,CHILLED WATER LOOP 1 SUPPLY BRANCH 2,CHILLED WATER LOOP 1,Plant Supply,NODE 227,NODE 228
   Branch,4,CHILLED WATER LOOP 1 SUPPLY BRANCH 3,CHILLED WATER LOOP 1,Plant Supply,NODE 229,NODE 230
   Branch,5,CHILLED WATER LOOP 1 SUPPLY OUTLET BRANCH,CHILLED WATER LOOP 1,Plant Supply,NODE 231,NODE 220
 Branch List,24,CHILLED WATER LOOP 1 DEMAND BRANCHES,CHILLED WATER LOOP 1,Plant Demand,4
   Branch,1,CHILLED WATER LOOP 1 DEMAND INLET BRANCH,CHILLED WATER LOOP 1,Plant Demand,NODE 222,CHILLED WATER LOOP 1 DEMAND INLET PIPE NODE
   Branch,2,CHILLED WATER LOOP 1 DEMAND BRANCH 1,CHILLED WATER LOOP 1,Plant Demand,NODE 224,NODE 258
   Branch,3,CHILLED WATER LOOP 1 DEMAND BYPASS BRANCH,CHILLED WATER LOOP 1,Plant Demand,CHILLED WATER LOOP 1 DEMAND BYPASS PIPE INLET NODE,CHILLED WATER LOOP 1 DEMAND BYPASS PIPE OUTLET NODE
   Branch,4,CHILLED WATER LOOP 1 DEMAND OUTLET BRANCH,CHILLED WATER LOOP 1,Plant Demand,CHILLED WATER LOOP 1 DEMAND OUTLET PIPE NODE,NODE 223
 Branch List,25,CHILLED WATER LOOP 2 SUPPLY BRANCHES,CHILLED WATER LOOP 2,Plant Supply,5
   Branch,1,CHILLED WATER LOOP 2 SUPPLY INLET BRANCH,CHILLED WATER LOOP 2,Plant Supply,NODE 262,NODE 268
   Branch,2,CHILLED WATER LOOP 2 SUPPLY BRANCH 1,CHILLED WATER LOOP 2,Plant Supply,NODE 264,NODE 269
   Branch,3,CHILLED WATER LOOP 2 SUPPLY BRANCH 2,CHILLED WATER LOOP 2,Plant Supply,NODE 270,NODE 271
   Branch,4,CHILLED WATER LOOP 2 SUPPLY BRANCH 3,CHILLED WATER LOOP 2,Plant Supply,NODE 272,NODE 273
   Branch,5,CHILLED WATER LOOP 2 SUPPLY OUTLET BRANCH,CHILLED WATER LOOP 2,Plant Supply,NODE 274,NODE 263
 Branch List,26,CHILLED WATER LOOP 2 DEMAND BRANCHES,CHILLED WATER LOOP 2,Plant Demand,4
   Branch,1,CHILLED WATER LOOP 2 DEMAND INLET BRANCH,CHILLED WATER LOOP 2,Plant Demand,NODE 265,CHILLED WATER LOOP 2 DEMAND INLET PIPE NODE
   Branch,2,CHILLED WATER LOOP 2 DEMAND BRANCH 1,CHILLED WATER LOOP 2,Plant Demand,NODE 267,NODE 301
   Branch,3,CHILLED WATER LOOP 2 DEMAND BYPASS BRANCH,CHILLED WATER LOOP 2,Plant Demand,CHILLED WATER LOOP 2 DEMAND BYPASS PIPE INLET NODE,CHILLED WATER LOOP 2 DEMAND BYPASS PIPE OUTLET NODE
   Branch,4,CHILLED WATER LOOP 2 DEMAND OUTLET BRANCH,CHILLED WATER LOOP 2,Plant Demand,CHILLED WATER LOOP 2 DEMAND OUTLET PIPE NODE,NODE 266
 Branch List,27,CHILLED WATER LOOP 3 SUPPLY BRANCHES,CHILLED WATER LOOP 3,Plant Supply,5
   Branch,1,CHILLED WATER LOOP 3 SUPPLY INLET BRANCH,CHILLED WATER LOOP 3,Plant Supply,NODE 305,NODE 311
   Branch,2,CHILLED WATER LOOP 3 SUPPLY BRANCH 1,CHILLED WATER LOOP 3,Plant Supply,NODE 307,NODE 312
   Branch,3,CHILLED WATER LOOP 3 SUPPLY BRANCH 2,CHILLED WATER LOOP 3,Plant Supply,NODE 313,NODE 314
   Branch,4,CHILLED WATER LOOP 3 SUPPLY BRANCH 3,CHILLED WATER LOOP 3,Plant Supply,NODE 315,NODE 316
   Branch,5,CHILLED WATER LOOP 3 SUPPLY OUTLET BRANCH,CHILLED WATER LOOP 3,Plant Supply,NODE 317,NODE 306
 Branch List,28,CHILLED WATER LOOP 3 DEMAND BRANCHES,CHILLED WATER LOOP 3,Plant Demand,4
   Branch,1,CHILLED WATER LOOP 3 DEMAND INLET BRANCH,CHILLED WATER LOOP 3,Plant Demand,NODE 308,CHILLED WATER LOOP 3 DEMAND INLET PIPE NODE
   Branch,2,CHILLED WATER LOOP 3 DEMAND BRANCH 1,CHILLED WATER LOOP 3,Plant Demand,NODE 310,NODE 344
   Branch,3,CHILLED WATER LOOP 3 DEMAND BYPASS BRANCH,CHILLED WATER LOOP 3,Plant Demand,CHILLED WATER LOOP 3 DEMAND BYPASS PIPE INLET NODE,CHILLED WATER LOOP 3 DEMAND BYPASS PIPE OUTLET NODE
   Branch,4,CHILLED WATER LOOP 3 DEMAND OUTLET BRANCH,CHILLED WATER LOOP 3,Plant Demand,CHILLED WATER LOOP 3 DEMAND OUTLET PIPE NODE,NODE 309
 Branch List,29,CHILLED WATER LOOP 4 SUPPLY BRANCHES,CHILLED WATER LOOP 4,Plant Supply,5
   Branch,1,CHILLED WATER LOOP 4 SUPPLY INLET BRANCH,CHILLED WATER LOOP 4,Plant Supply,NODE 387,NODE 393
   Branch,2,CHILLED WATER LOOP 4 SUPPLY BRANCH 1,CHILLED WATER LOOP 4,Plant Supply,NODE 389,NODE 394
   Branch,3,CHILLED WATER LOOP 4 SUPPLY BRANCH 2,CHILLED WATER LOOP 4,Plant Supply,NODE 395,NODE 396
   Branch,4,CHILLED WATER LOOP 4 SUPPLY BRANCH 3,CHILLED WATER LOOP 4,Plant Supply,NODE 397,NODE 398
   Branch,5,CHILLED WATER LOOP 4 SUPPLY OUTLET BRANCH,CHILLED WATER LOOP 4,Plant Supply,NODE 399,NODE 388
 Branch List,30,CHILLED WATER LOOP 4 DEMAND BRANCHES,CHILLED WATER LOOP 4,Plant Demand,5
   Branch,1,CHILLED WATER LOOP 4 DEMAND INLET BRANCH,CHILLED WATER LOOP 4,Plant Demand,NODE 390,CHILLED WATER LOOP 4 DEMAND INLET PIPE NODE
   Branch,2,CHILLED WATER LOOP 4 DEMAND BRANCH 1,CHILLED WATER LOOP 4,Plant Demand,NODE 392,NODE 421
   Branch,3,CHILLED WATER LOOP 4 DEMAND BRANCH 2,CHILLED WATER LOOP 4,Plant Demand,NODE 441,NODE 442
   Branch,4,CHILLED WATER LOOP 4 DEMAND BYPASS BRANCH,CHILLED WATER LOOP 4,Plant Demand,CHILLED WATER LOOP 4 DEMAND BYPASS PIPE INLET NODE,CHILLED WATER LOOP 4 DEMAND BYPASS PIPE OUTLET NODE
   Branch,5,CHILLED WATER LOOP 4 DEMAND OUTLET BRANCH,CHILLED WATER LOOP 4,Plant Demand,CHILLED WATER LOOP 4 DEMAND OUTLET PIPE NODE,NODE 391
 Branch List,31,CONDENSER WATER LOOP SUPPLY BRANCHES,CONDENSER WATER LOOP,Plant Supply,4
   Branch,1,CONDENSER WATER LOOP SUPPLY INLET BRANCH,CONDENSER WATER LOOP,Plant Supply,NODE 189,NODE 195
   Branch,2,CONDENSER WATER LOOP SUPPLY BRANCH 1,CONDENSER WATER LOOP,Plant Supply,NODE 191,NODE 196
   Branch,3,CONDENSER WATER LOOP SUPPLY BRANCH 2,CONDENSER WATER LOOP,Plant Supply,NODE 197,NODE 198
   Branch,4,CONDENSER WATER LOOP SUPPLY OUTLET BRANCH,CONDENSER WATER LOOP,Plant Supply,NODE 199,NODE 190
 Branch List,32,CONDENSER WATER LOOP DEMAND BRANCHES,CONDENSER WATER LOOP,Plant Demand,5
   Branch,1,CONDENSER WATER LOOP DEMAND INLET BRANCH,CONDENSER WATER LOOP,Plant Demand,NODE 192,CONDENSER WATER LOOP DEMAND INLET PIPE NODE
   Branch,2,CONDENSER WATER LOOP DEMAND BRANCH 1,CONDENSER WATER LOOP,Plant Demand,NODE 194,NODE 200
   Branch,3,CONDENSER WATER LOOP DEMAND BRANCH 2,CONDENSER WATER LOOP,Plant Demand,NODE 201,NODE 202
   Branch,4,CONDENSER WATER LOOP DEMAND BYPASS BRANCH,CONDENSER WATER LOOP,Plant Demand,CONDENSER WATER LOOP DEMAND BYPASS PIPE INLET NODE,CONDENSER WATER LOOP DEMAND BYPASS PIPE OUTLET NODE
   Branch,5,CONDENSER WATER LOOP DEMAND OUTLET BRANCH,CONDENSER WATER LOOP,Plant Demand,CONDENSER WATER LOOP DEMAND OUTLET PIPE NODE,NODE 193
 Branch List,33,CONDENSER WATER LOOP 1 SUPPLY BRANCHES,CONDENSER WATER LOOP 1,Plant Supply,4
   Branch,1,CONDENSER WATER LOOP 1 SUPPLY INLET BRANCH,CONDENSER WATER LOOP 1,Plant Supply,NODE 232,NODE 238
   Branch,2,CONDENSER WATER LOOP 1 SUPPLY BRANCH 1,CONDENSER WATER LOOP 1,Plant Supply,NODE 234,NODE 239
   Branch,3,CONDENSER WATER LOOP 1 SUPPLY BRANCH 2,CONDENSER WATER LOOP 1,Plant Supply,NODE 240,NODE 241
   Branch,4,CONDENSER WATER LOOP 1 SUPPLY OUTLET BRANCH,CONDENSER WATER LOOP 1,Plant Supply,NODE 242,NODE 233
 Branch List,34,CONDENSER WATER LOOP 1 DEMAND BRANCHES,CONDENSER WATER LOOP 1,Plant Demand,5
   Branch,1,CONDENSER WATER LOOP 1 DEMAND INLET BRANCH,CONDENSER WATER LOOP 1,Plant Demand,NODE 235,CONDENSER WATER LOOP 1 DEMAND INLET PIPE NODE
   Branch,2,CONDENSER WATER LOOP 1 DEMAND BRANCH 1,CONDENSER WATER LOOP 1,Plant Demand,NODE 237,NODE 243
   Branch,3,CONDENSER WATER LOOP 1 DEMAND BRANCH 2,CONDENSER WATER LOOP 1,Plant Demand,NODE 244,NODE 245
   Branch,4,CONDENSER WATER LOOP 1 DEMAND BYPASS BRANCH,CONDENSER WATER LOOP 1,Plant Demand,CONDENSER WATER LOOP 1 DEMAND BYPASS PIPE INLET NODE,CONDENSER WATER LOOP 1 DEMAND BYPASS PIPE OUTLET NODE
   Branch,5,CONDENSER WATER LOOP 1 DEMAND OUTLET BRANCH,CONDENSER WATER LOOP 1,Plant Demand,CONDENSER WATER LOOP 1 DEMAND OUTLET PIPE NODE,NODE 236
 Branch List,35,CONDENSER WATER LOOP 2 SUPPLY BRANCHES,CONDENSER WATER LOOP 2,Plant Supply,4
   Branch,1,CONDENSER WATER LOOP 2 SUPPLY INLET BRANCH,CONDENSER WATER LOOP 2,Plant Supply,NODE 275,NODE 281
   Branch,2,CONDENSER WATER LOOP 2 SUPPLY BRANCH 1,CONDENSER WATER LOOP 2,Plant Supply,NODE 277,NODE 282
   Branch,3,CONDENSER WATER LOOP 2 SUPPLY BRANCH 2,CONDENSER WATER LOOP 2,Plant Supply,NODE 283,NODE 284
   Branch,4,CONDENSER WATER LOOP 2 SUPPLY OUTLET BRANCH,CONDENSER WATER LOOP 2,Plant Supply,NODE 285,NODE 276
 Branch List,36,CONDENSER WATER LOOP 2 DEMAND BRANCHES,CONDENSER WATER LOOP 2,Plant Demand,5
   Branch,1,CONDENSER WATER LOOP 2 DEMAND INLET BRANCH,CONDENSER WATER LOOP 2,Plant Demand,NODE 278,CONDENSER WATER LOOP 2 DEMAND INLET PIPE NODE
   Branch,2,CONDENSER WATER LOOP 2 DEMAND BRANCH 1,CONDENSER WATER LOOP 2,Plant Demand,NODE 280,NODE 286
   Branch,3,CONDENSER WATER LOOP 2 DEMAND BRANCH 2,CONDENSER WATER LOOP 2,Plant Demand,NODE 287,NODE 288
   Branch,4,CONDENSER WATER LOOP 2 DEMAND BYPASS BRANCH,CONDENSER WATER LOOP 2,Plant Demand,CONDENSER WATER LOOP 2 DEMAND BYPASS PIPE INLET NODE,CONDENSER WATER LOOP 2 DEMAND BYPASS PIPE OUTLET NODE
   Branch,5,CONDENSER WATER LOOP 2 DEMAND OUTLET BRANCH,CONDENSER WATER LOOP 2,Plant Demand,CONDENSER WATER LOOP 2 DEMAND OUTLET PIPE NODE,NODE 279
 Branch List,37,CONDENSER WATER LOOP 3 SUPPLY BRANCHES,CONDENSER WATER LOOP 3,Plant Supply,4
   Branch,1,CONDENSER WATER LOOP 3 SUPPLY INLET BRANCH,CONDENSER WATER LOOP 3,Plant Supply,NODE 318,NODE 324
   Branch,2,CONDENSER WATER LOOP 3 SUPPLY BRANCH 1,CONDENSER WATER LOOP 3,Plant Supply,NODE 320,NODE 325
   Branch,3,CONDENSER WATER LOOP 3 SUPPLY BRANCH 2,CONDENSER WATER LOOP 3,Plant Supply,NODE 326,NODE 327
   Branch,4,CONDENSER WATER LOOP 3 SUPPLY OUTLET BRANCH,CONDENSER WATER LOOP 3,Plant Supply,NODE 328,NODE 319
 Branch List,38,CONDENSER WATER LOOP 3 DEMAND BRANCHES,CONDENSER WATER LOOP 3,Plant Demand,5
   Branch,1,CONDENSER WATER LOOP 3 DEMAND INLET BRANCH,CONDENSER WATER LOOP 3,Plant Demand,NODE 321,CONDENSER WATER LOOP 3 DEMAND INLET PIPE NODE
   Branch,2,CONDENSER WATER LOOP 3 DEMAND BRANCH 1,CONDENSER WATER LOOP 3,Plant Demand,NODE 323,NODE 329
   Branch,3,CONDENSER WATER LOOP 3 DEMAND BRANCH 2,CONDENSER WATER LOOP 3,Plant Demand,NODE 330,NODE 331
   Branch,4,CONDENSER WATER LOOP 3 DEMAND BYPASS BRANCH,CONDENSER WATER LOOP 3,Plant Demand,CONDENSER WATER LOOP 3 DEMAND BYPASS PIPE INLET NODE,CONDENSER WATER LOOP 3 DEMAND BYPASS PIPE OUTLET NODE
   Branch,5,CONDENSER WATER LOOP 3 DEMAND OUTLET BRANCH,CONDENSER WATER LOOP 3,Plant Demand,CONDENSER WATER LOOP 3 DEMAND OUTLET PIPE NODE,NODE 322
 Branch List,39,CONDENSER WATER LOOP 4 SUPPLY BRANCHES,CONDENSER WATER LOOP 4,Plant Supply,4
   Branch,1,CONDENSER WATER LOOP 4 SUPPLY INLET BRANCH,CONDENSER WATER LOOP 4,Plant Supply,NODE 400,NODE 406
   Branch,2,CONDENSER WATER LOOP 4 SUPPLY BRANCH 1,CONDENSER WATER LOOP 4,Plant Supply,NODE 402,NODE 407
   Branch,3,CONDENSER WATER LOOP 4 SUPPLY BRANCH 2,CONDENSER WATER LOOP 4,Plant Supply,NODE 408,NODE 409
   Branch,4,CONDENSER WATER LOOP 4 SUPPLY OUTLET BRANCH,CONDENSER WATER LOOP 4,Plant Supply,NODE 410,NODE 401
 Branch List,40,CONDENSER WATER LOOP 4 DEMAND BRANCHES,CONDENSER WATER LOOP 4,Plant Demand,5
   Branch,1,CONDENSER WATER LOOP 4 DEMAND INLET BRANCH,CONDENSER WATER LOOP 4,Plant Demand,NODE 403,CONDENSER WATER LOOP 4 DEMAND INLET PIPE NODE
   Branch,2,CONDENSER WATER LOOP 4 DEMAND BRANCH 1,CONDENSER WATER LOOP 4,Plant Demand,NODE 405,NODE 411
   Branch,3,CONDENSER WATER LOOP 4 DEMAND BRANCH 2,CONDENSER WATER LOOP 4,Plant Demand,NODE 412,NODE 413
   Branch,4,CONDENSER WATER LOOP 4 DEMAND BYPASS BRANCH,CONDENSER WATER LOOP 4,Plant Demand,CONDENSER WATER LOOP 4 DEMAND BYPASS PIPE INLET NODE,CONDENSER WATER LOOP 4 DEMAND BYPASS PIPE OUTLET NODE
   Branch,5,CONDENSER WATER LOOP 4 DEMAND OUTLET BRANCH,CONDENSER WATER LOOP 4,Plant Demand,CONDENSER WATER LOOP 4 DEMAND OUTLET PIPE NODE,NODE 404
 Branch List,41,HOT WATER LOOP SUPPLY BRANCHES,HOT WATER LOOP,Plant Supply,5
   Branch,1,HOT WATER LOOP SUPPLY INLET BRANCH,HOT WATER LOOP,Plant Supply,NODE 2,NODE 11
   Branch,2,HOT WATER LOOP SUPPLY BRANCH 1,HOT WATER LOOP,Plant Supply,NODE 5,NODE 12
   Branch,3,HOT WATER LOOP SUPPLY BRANCH 2,HOT WATER LOOP,Plant Supply,NODE 14,NODE 15
   Branch,4,HOT WATER LOOP SUPPLY BRANCH 3,HOT WATER LOOP,Plant Supply,NODE 17,NODE 18
   Branch,5,HOT WATER LOOP SUPPLY OUTLET BRANCH,HOT WATER LOOP,Plant Supply,NODE 20,NODE 3
 Branch List,42,HOT WATER LOOP DEMAND BRANCHES,HOT WATER LOOP,Plant Demand,27
   Branch,1,HOT WATER LOOP DEMAND INLET BRANCH,HOT WATER LOOP,Plant Demand,NODE 6,HOT WATER LOOP DEMAND INLET PIPE NODE
   Branch,2,HOT WATER LOOP DEMAND BRANCH 1,HOT WATER LOOP,Plant Demand,NODE 9,NODE 38
   Branch,3,HOT WATER LOOP DEMAND BRANCH 2,HOT WATER LOOP,Plant Demand,NODE 56,NODE 57
   Branch,4,HOT WATER LOOP DEMAND BRANCH 3,HOT WATER LOOP,Plant Demand,NODE 70,NODE 71
   Branch,5,HOT WATER LOOP DEMAND BRANCH 4,HOT WATER LOOP,Plant Demand,NODE 83,NODE 84
   Branch,6,HOT WATER LOOP DEMAND BRANCH 5,HOT WATER LOOP,Plant Demand,NODE 96,NODE 97
   Branch,7,HOT WATER LOOP DEMAND BRANCH 6,HOT WATER LOOP,Plant Demand,NODE 109,NODE 110
   Branch,8,HOT WATER LOOP DEMAND BRANCH 7,HOT WATER LOOP,Plant Demand,NODE 122,NODE 123
   Branch,9,HOT WATER LOOP DEMAND BRANCH 8,HOT WATER LOOP,Plant Demand,NODE 135,NODE 136
   Branch,10,HOT WATER LOOP DEMAND BRANCH 9,HOT WATER LOOP,Plant Demand,NODE 148,NODE 149
   Branch,11,HOT WATER LOOP DEMAND BRANCH 10,HOT WATER LOOP,Plant Demand,NODE 161,NODE 162
   Branch,12,HOT WATER LOOP DEMAND BRANCH 11,HOT WATER LOOP,Plant Demand,NODE 174,NODE 175
   Branch,13,HOT WATER LOOP DEMAND BRANCH 12,HOT WATER LOOP,Plant Demand,NODE 213,NODE 214
   Branch,14,HOT WATER LOOP DEMAND BRANCH 13,HOT WATER LOOP,Plant Demand,NODE 256,NODE 257
   Branch,15,HOT WATER LOOP DEMAND BRANCH 14,HOT WATER LOOP,Plant Demand,NODE 299,NODE 300
   Branch,16,HOT WATER LOOP DEMAND BRANCH 15,HOT WATER LOOP,Plant Demand,NODE 342,NODE 343
   Branch,17,HOT WATER LOOP DEMAND BRANCH 16,HOT WATER LOOP,Plant Demand,NODE 359,NODE 360
   Branch,18,HOT WATER LOOP DEMAND BRANCH 17,HOT WATER LOOP,Plant Demand,NODE 372,NODE 373
   Branch,19,HOT WATER LOOP DEMAND BRANCH 18,HOT WATER LOOP,Plant Demand,NODE 385,NODE 386
   Branch,20,HOT WATER LOOP DEMAND BRANCH 19,HOT WATER LOOP,Plant Demand,NODE 419,NODE 420
   Branch,21,HOT WATER LOOP DEMAND BRANCH 20,HOT WATER LOOP,Plant Demand,NODE 428,NODE 429
   Branch,22,HOT WATER LOOP DEMAND BRANCH 21,HOT WATER LOOP,Plant Demand,NODE 432,NODE 433
   Branch,23,HOT WATER LOOP DEMAND BRANCH 22,HOT WATER LOOP,Plant Demand,NODE 439,NODE 440
   Branch,24,HOT WATER LOOP DEMAND BRANCH 23,HOT WATER LOOP,Plant Demand,NODE 449,NODE 450
   Branch,25,HOT WATER LOOP DEMAND BRANCH 24,HOT WATER LOOP,Plant Demand,NODE 453,NODE 454
   Branch,26,HOT WATER LOOP DEMAND BYPASS BRANCH,HOT WATER LOOP,Plant Demand,HOT WATER LOOP DEMAND BYPASS PIPE INLET NODE,HOT WATER LOOP DEMAND BYPASS PIPE OUTLET NODE
   Branch,27,HOT WATER LOOP DEMAND OUTLET BRANCH,HOT WATER LOOP,Plant Demand,HOT WATER LOOP DEMAND OUTLET PIPE NODE,NODE 8
 Branch List,43,MAIN SERVICE WATER LOOP SUPPLY BRANCHES,MAIN SERVICE WATER LOOP,Plant Supply,4
   Branch,1,MAIN SERVICE WATER LOOP SUPPLY INLET BRANCH,MAIN SERVICE WATER LOOP,Plant Supply,NODE 455,NODE 461
   Branch,2,MAIN SERVICE WATER LOOP SUPPLY BRANCH 1,MAIN SERVICE WATER LOOP,Plant Supply,NODE 457,NODE 462
   Branch,3,MAIN SERVICE WATER LOOP SUPPLY BRANCH 2,MAIN SERVICE WATER LOOP,Plant Supply,NODE 463,NODE 464
   Branch,4,MAIN SERVICE WATER LOOP SUPPLY OUTLET BRANCH,MAIN SERVICE WATER LOOP,Plant Supply,NODE 466,NODE 456
 Branch List,44,MAIN SERVICE WATER LOOP DEMAND BRANCHES,MAIN SERVICE WATER LOOP,Plant Demand,18
   Branch,1,MAIN SERVICE WATER LOOP DEMAND INLET BRANCH,MAIN SERVICE WATER LOOP,Plant Demand,NODE 458,NODE 467
   Branch,2,MAIN SERVICE WATER LOOP DEMAND BRANCH 1,MAIN SERVICE WATER LOOP,Plant Demand,NODE 460,NODE 465
   Branch,3,MAIN SERVICE WATER LOOP DEMAND BRANCH 2,MAIN SERVICE WATER LOOP,Plant Demand,NODE 469,NODE 470
   Branch,4,MAIN SERVICE WATER LOOP DEMAND BRANCH 3,MAIN SERVICE WATER LOOP,Plant Demand,NODE 471,NODE 472
   Branch,5,MAIN SERVICE WATER LOOP DEMAND BRANCH 4,MAIN SERVICE WATER LOOP,Plant Demand,NODE 473,NODE 474
   Branch,6,MAIN SERVICE WATER LOOP DEMAND BRANCH 5,MAIN SERVICE WATER LOOP,Plant Demand,NODE 475,NODE 476
   Branch,7,MAIN SERVICE WATER LOOP DEMAND BRANCH 6,MAIN SERVICE WATER LOOP,Plant Demand,NODE 477,NODE 478
   Branch,8,MAIN SERVICE WATER LOOP DEMAND BRANCH 7,MAIN SERVICE WATER LOOP,Plant Demand,NODE 479,NODE 480
   Branch,9,MAIN SERVICE WATER LOOP DEMAND BRANCH 8,MAIN SERVICE WATER LOOP,Plant Demand,NODE 481,NODE 482
   Branch,10,MAIN SERVICE WATER LOOP DEMAND BRANCH 9,MAIN SERVICE WATER LOOP,Plant Demand,NODE 483,NODE 484
   Branch,11,MAIN SERVICE WATER LOOP DEMAND BRANCH 10,MAIN SERVICE WATER LOOP,Plant Demand,NODE 485,NODE 486
   Branch,12,MAIN SERVICE WATER LOOP DEMAND BRANCH 11,MAIN SERVICE WATER LOOP,Plant Demand,NODE 487,NODE 488
   Branch,13,MAIN SERVICE WATER LOOP DEMAND BRANCH 12,MAIN SERVICE WATER LOOP,Plant Demand,NODE 489,NODE 490
   Branch,14,MAIN SERVICE WATER LOOP DEMAND BRANCH 13,MAIN SERVICE WATER LOOP,Plant Demand,NODE 491,NODE 492
   Branch,15,MAIN SERVICE WATER LOOP DEMAND BRANCH 14,MAIN SERVICE WATER LOOP,Plant Demand,NODE 493,NODE 494
   Branch,16,MAIN SERVICE WATER LOOP DEMAND BRANCH 15,MAIN SERVICE WATER LOOP,Plant Demand,NODE 495,NODE 496
   Branch,17,MAIN SERVICE WATER LOOP DEMAND BYPASS BRANCH,MAIN SERVICE WATER LOOP,Plant Demand,MAIN SERVICE WATER LOOP DEMAND BYPASS PIPE INLET NODE,MAIN SERVICE WATER LOOP DEMAND BYPASS PIPE OUTLET NODE
   Branch,18,MAIN SERVICE WATER LOOP DEMAND OUTLET BRANCH,MAIN SERVICE WATER LOOP,Plant Demand,NODE 468,NODE 459
! ===============================================================
! <#Supply Air Paths>,<Number of Supply Air Paths>
 #Supply Air Paths,20
! <Supply Air Path>,<Supply Air Path Count>,<Supply Air Path Name>,<AirLoopHVAC Name>
! <#Components on Supply Air Path>,<Number of Components>
! <Supply Air Path Component>,<Component Count>,<Component Type>,<Component Name>,<AirLoopHVAC Name>
! <#Outlet Nodes on Supply Air Path Component>,<Number of Nodes>
! <Supply Air Path Component Nodes>,<Node Count>,<Component Type>,<Component Name>,<Inlet Node Name>,<Outlet Node Name>,<AirLoopHVAC Name>
 Supply Air Path,1,SYS_2_MAKE-UP AIR UNIT NODE 205 SUPPLY PATH,SYS_2_MAKE-UP AIR UNIT
   #Components on Supply Air Path,1
   Supply Air Path Component,1,AIRLOOPHVAC:ZONESPLITTER,AIR LOOP HVAC ZONE SPLITTER 12,SYS_2_MAKE-UP AIR UNIT
     #Outlet Nodes on Supply Air Path Component,1
     Supply Air Path Component Nodes,1,AIRLOOPHVAC:ZONESPLITTER,AIR LOOP HVAC ZONE SPLITTER 12,NODE 205,NODE 207,SYS_2_MAKE-UP AIR UNIT
! <#Nodes on Supply Air Path>,<Number of Nodes>
! <Supply Air Path Node>,<Node Type>,<Node Count>,<Node Name>,<AirLoopHVAC Name>
#Nodes on Supply Air Path,2
   Supply Air Path Node,Inlet Node,1,NODE 205,SYS_2_MAKE-UP AIR UNIT
   Supply Air Path Node,Outlet Node,2,NODE 207,SYS_2_MAKE-UP AIR UNIT
 Supply Air Path,2,SYS_2_MAKE-UP AIR UNIT 1 NODE 248 SUPPLY PATH,SYS_2_MAKE-UP AIR UNIT 1
   #Components on Supply Air Path,1
   Supply Air Path Component,1,AIRLOOPHVAC:ZONESPLITTER,AIR LOOP HVAC ZONE SPLITTER 13,SYS_2_MAKE-UP AIR UNIT 1
     #Outlet Nodes on Supply Air Path Component,1
     Supply Air Path Component Nodes,1,AIRLOOPHVAC:ZONESPLITTER,AIR LOOP HVAC ZONE SPLITTER 13,NODE 248,NODE 250,SYS_2_MAKE-UP AIR UNIT 1
! <#Nodes on Supply Air Path>,<Number of Nodes>
! <Supply Air Path Node>,<Node Type>,<Node Count>,<Node Name>,<AirLoopHVAC Name>
#Nodes on Supply Air Path,2
   Supply Air Path Node,Inlet Node,1,NODE 248,SYS_2_MAKE-UP AIR UNIT 1
   Supply Air Path Node,Outlet Node,2,NODE 250,SYS_2_MAKE-UP AIR UNIT 1
 Supply Air Path,3,SYS_2_MAKE-UP AIR UNIT 2 NODE 291 SUPPLY PATH,SYS_2_MAKE-UP AIR UNIT 2
   #Components on Supply Air Path,1
   Supply Air Path Component,1,AIRLOOPHVAC:ZONESPLITTER,AIR LOOP HVAC ZONE SPLITTER 14,SYS_2_MAKE-UP AIR UNIT 2
     #Outlet Nodes on Supply Air Path Component,1
     Supply Air Path Component Nodes,1,AIRLOOPHVAC:ZONESPLITTER,AIR LOOP HVAC ZONE SPLITTER 14,NODE 291,NODE 293,SYS_2_MAKE-UP AIR UNIT 2
! <#Nodes on Supply Air Path>,<Number of Nodes>
! <Supply Air Path Node>,<Node Type>,<Node Count>,<Node Name>,<AirLoopHVAC Name>
#Nodes on Supply Air Path,2
   Supply Air Path Node,Inlet Node,1,NODE 291,SYS_2_MAKE-UP AIR UNIT 2
   Supply Air Path Node,Outlet Node,2,NODE 293,SYS_2_MAKE-UP AIR UNIT 2
 Supply Air Path,4,SYS_2_MAKE-UP AIR UNIT 3 NODE 334 SUPPLY PATH,SYS_2_MAKE-UP AIR UNIT 3
   #Components on Supply Air Path,1
   Supply Air Path Component,1,AIRLOOPHVAC:ZONESPLITTER,AIR LOOP HVAC ZONE SPLITTER 15,SYS_2_MAKE-UP AIR UNIT 3
     #Outlet Nodes on Supply Air Path Component,1
     Supply Air Path Component Nodes,1,AIRLOOPHVAC:ZONESPLITTER,AIR LOOP HVAC ZONE SPLITTER 15,NODE 334,NODE 336,SYS_2_MAKE-UP AIR UNIT 3
! <#Nodes on Supply Air Path>,<Number of Nodes>
! <Supply Air Path Node>,<Node Type>,<Node Count>,<Node Name>,<AirLoopHVAC Name>
#Nodes on Supply Air Path,2
   Supply Air Path Node,Inlet Node,1,NODE 334,SYS_2_MAKE-UP AIR UNIT 3
   Supply Air Path Node,Outlet Node,2,NODE 336,SYS_2_MAKE-UP AIR UNIT 3
 Supply Air Path,5,SYS_3_PSZ ALL_ST=WHOLEBUILDING_FL=STORY 1_SCH=A NODE 376 SUPPLY PATH,SYS_3_PSZ ALL_ST=WHOLEBUILDING_FL=STORY 1_SCH=A
   #Components on Supply Air Path,1
   Supply Air Path Component,1,AIRLOOPHVAC:ZONESPLITTER,AIR LOOP HVAC ZONE SPLITTER 18,SYS_3_PSZ ALL_ST=WHOLEBUILDING_FL=STORY 1_SCH=A
     #Outlet Nodes on Supply Air Path Component,1
     Supply Air Path Component Nodes,1,AIRLOOPHVAC:ZONESPLITTER,AIR LOOP HVAC ZONE SPLITTER 18,NODE 376,NODE 378,SYS_3_PSZ ALL_ST=WHOLEBUILDING_FL=STORY 1_SCH=A
! <#Nodes on Supply Air Path>,<Number of Nodes>
! <Supply Air Path Node>,<Node Type>,<Node Count>,<Node Name>,<AirLoopHVAC Name>
#Nodes on Supply Air Path,2
   Supply Air Path Node,Inlet Node,1,NODE 376,SYS_3_PSZ ALL_ST=WHOLEBUILDING_FL=STORY 1_SCH=A
   Supply Air Path Node,Outlet Node,2,NODE 378,SYS_3_PSZ ALL_ST=WHOLEBUILDING_FL=STORY 1_SCH=A
 Supply Air Path,6,SYS_3_PSZ ALL_ST=WHOLEBUILDING_FL=STORY 2_SCH=D NODE 363 SUPPLY PATH,SYS_3_PSZ ALL_ST=WHOLEBUILDING_FL=STORY 2_SCH=D
   #Components on Supply Air Path,1
   Supply Air Path Component,1,AIRLOOPHVAC:ZONESPLITTER,AIR LOOP HVAC ZONE SPLITTER 17,SYS_3_PSZ ALL_ST=WHOLEBUILDING_FL=STORY 2_SCH=D
     #Outlet Nodes on Supply Air Path Component,1
     Supply Air Path Component Nodes,1,AIRLOOPHVAC:ZONESPLITTER,AIR LOOP HVAC ZONE SPLITTER 17,NODE 363,NODE 365,SYS_3_PSZ ALL_ST=WHOLEBUILDING_FL=STORY 2_SCH=D
! <#Nodes on Supply Air Path>,<Number of Nodes>
! <Supply Air Path Node>,<Node Type>,<Node Count>,<Node Name>,<AirLoopHVAC Name>
#Nodes on Supply Air Path,2
   Supply Air Path Node,Inlet Node,1,NODE 363,SYS_3_PSZ ALL_ST=WHOLEBUILDING_FL=STORY 2_SCH=D
   Supply Air Path Node,Outlet Node,2,NODE 365,SYS_3_PSZ ALL_ST=WHOLEBUILDING_FL=STORY 2_SCH=D
 Supply Air Path,7,SYS_3_PSZ ALL_ST=WORKSHOP SPACE_FL=STORY 1_SCH=A NODE 350 SUPPLY PATH,SYS_3_PSZ ALL_ST=WORKSHOP SPACE_FL=STORY 1_SCH=A
   #Components on Supply Air Path,1
   Supply Air Path Component,1,AIRLOOPHVAC:ZONESPLITTER,AIR LOOP HVAC ZONE SPLITTER 16,SYS_3_PSZ ALL_ST=WORKSHOP SPACE_FL=STORY 1_SCH=A
     #Outlet Nodes on Supply Air Path Component,1
     Supply Air Path Component Nodes,1,AIRLOOPHVAC:ZONESPLITTER,AIR LOOP HVAC ZONE SPLITTER 16,NODE 350,NODE 352,SYS_3_PSZ ALL_ST=WORKSHOP SPACE_FL=STORY 1_SCH=A
! <#Nodes on Supply Air Path>,<Number of Nodes>
! <Supply Air Path Node>,<Node Type>,<Node Count>,<Node Name>,<AirLoopHVAC Name>
#Nodes on Supply Air Path,2
   Supply Air Path Node,Inlet Node,1,NODE 350,SYS_3_PSZ ALL_ST=WORKSHOP SPACE_FL=STORY 1_SCH=A
   Supply Air Path Node,Outlet Node,2,NODE 352,SYS_3_PSZ ALL_ST=WORKSHOP SPACE_FL=STORY 1_SCH=A
 Supply Air Path,8,SYS_4_PSZ_ALL_ST=WAREHOUSE - FINE_FL=STORY 4_SCH=A NODE 24 SUPPLY PATH,SYS_4_PSZ_ALL_ST=WAREHOUSE - FINE_FL=STORY 4_SCH=A
   #Components on Supply Air Path,1
   Supply Air Path Component,1,AIRLOOPHVAC:ZONESPLITTER,AIR LOOP HVAC ZONE SPLITTER 1,SYS_4_PSZ_ALL_ST=WAREHOUSE - FINE_FL=STORY 4_SCH=A
     #Outlet Nodes on Supply Air Path Component,1
     Supply Air Path Component Nodes,1,AIRLOOPHVAC:ZONESPLITTER,AIR LOOP HVAC ZONE SPLITTER 1,NODE 24,NODE 27,SYS_4_PSZ_ALL_ST=WAREHOUSE - FINE_FL=STORY 4_SCH=A
! <#Nodes on Supply Air Path>,<Number of Nodes>
! <Supply Air Path Node>,<Node Type>,<Node Count>,<Node Name>,<AirLoopHVAC Name>
#Nodes on Supply Air Path,2
   Supply Air Path Node,Inlet Node,1,NODE 24,SYS_4_PSZ_ALL_ST=WAREHOUSE - FINE_FL=STORY 4_SCH=A
   Supply Air Path Node,Outlet Node,2,NODE 27,SYS_4_PSZ_ALL_ST=WAREHOUSE - FINE_FL=STORY 4_SCH=A
 Supply Air Path,9,SYS_4_PSZ_ALL_ST=WAREHOUSE - MED/BLK2_FL=STORY 3_SCH=A NODE 61 SUPPLY PATH,SYS_4_PSZ_ALL_ST=WAREHOUSE - MED/BLK2_FL=STORY 3_SCH=A
   #Components on Supply Air Path,1
   Supply Air Path Component,1,AIRLOOPHVAC:ZONESPLITTER,AIR LOOP HVAC ZONE SPLITTER 3,SYS_4_PSZ_ALL_ST=WAREHOUSE - MED/BLK2_FL=STORY 3_SCH=A
     #Outlet Nodes on Supply Air Path Component,1
     Supply Air Path Component Nodes,1,AIRLOOPHVAC:ZONESPLITTER,AIR LOOP HVAC ZONE SPLITTER 3,NODE 61,NODE 63,SYS_4_PSZ_ALL_ST=WAREHOUSE - MED/BLK2_FL=STORY 3_SCH=A
! <#Nodes on Supply Air Path>,<Number of Nodes>
! <Supply Air Path Node>,<Node Type>,<Node Count>,<Node Name>,<AirLoopHVAC Name>
#Nodes on Supply Air Path,2
   Supply Air Path Node,Inlet Node,1,NODE 61,SYS_4_PSZ_ALL_ST=WAREHOUSE - MED/BLK2_FL=STORY 3_SCH=A
   Supply Air Path Node,Outlet Node,2,NODE 63,SYS_4_PSZ_ALL_ST=WAREHOUSE - MED/BLK2_FL=STORY 3_SCH=A
 Supply Air Path,10,SYS_4_PSZ_ALL_ST=WAREHOUSE - MED/BLK_FL=STORY 4_SCH=A NODE 42 SUPPLY PATH,SYS_4_PSZ_ALL_ST=WAREHOUSE - MED/BLK_FL=STORY 4_SCH=A
   #Components on Supply Air Path,1
   Supply Air Path Component,1,AIRLOOPHVAC:ZONESPLITTER,AIR LOOP HVAC ZONE SPLITTER 2,SYS_4_PSZ_ALL_ST=WAREHOUSE - MED/BLK_FL=STORY 4_SCH=A
     #Outlet Nodes on Supply Air Path Component,1
     Supply Air Path Component Nodes,1,AIRLOOPHVAC:ZONESPLITTER,AIR LOOP HVAC ZONE SPLITTER 2,NODE 42,NODE 45,SYS_4_PSZ_ALL_ST=WAREHOUSE - MED/BLK_FL=STORY 4_SCH=A
! <#Nodes on Supply Air Path>,<Number of Nodes>
! <Supply Air Path Node>,<Node Type>,<Node Count>,<Node Name>,<AirLoopHVAC Name>
#Nodes on Supply Air Path,2
   Supply Air Path Node,Inlet Node,1,NODE 42,SYS_4_PSZ_ALL_ST=WAREHOUSE - MED/BLK_FL=STORY 4_SCH=A
   Supply Air Path Node,Outlet Node,2,NODE 45,SYS_4_PSZ_ALL_ST=WAREHOUSE - MED/BLK_FL=STORY 4_SCH=A
 Supply Air Path,11,SYS_4_PSZ_ALL_ST=WHOLEBUILDING_FL=STORY 1_SCH=E NODE 113 SUPPLY PATH,SYS_4_PSZ_ALL_ST=WHOLEBUILDING_FL=STORY 1_SCH=E
   #Components on Supply Air Path,1
   Supply Air Path Component,1,AIRLOOPHVAC:ZONESPLITTER,AIR LOOP HVAC ZONE SPLITTER 7,SYS_4_PSZ_ALL_ST=WHOLEBUILDING_FL=STORY 1_SCH=E
     #Outlet Nodes on Supply Air Path Component,1
     Supply Air Path Component Nodes,1,AIRLOOPHVAC:ZONESPLITTER,AIR LOOP HVAC ZONE SPLITTER 7,NODE 113,NODE 115,SYS_4_PSZ_ALL_ST=WHOLEBUILDING_FL=STORY 1_SCH=E
! <#Nodes on Supply Air Path>,<Number of Nodes>
! <Supply Air Path Node>,<Node Type>,<Node Count>,<Node Name>,<AirLoopHVAC Name>
#Nodes on Supply Air Path,2
   Supply Air Path Node,Inlet Node,1,NODE 113,SYS_4_PSZ_ALL_ST=WHOLEBUILDING_FL=STORY 1_SCH=E
   Supply Air Path Node,Outlet Node,2,NODE 115,SYS_4_PSZ_ALL_ST=WHOLEBUILDING_FL=STORY 1_SCH=E
 Supply Air Path,12,SYS_4_PSZ_ALL_ST=WHOLEBUILDING_FL=STORY 1_SCH=E 1 NODE 126 SUPPLY PATH,SYS_4_PSZ_ALL_ST=WHOLEBUILDING_FL=STORY 1_SCH=E 1
   #Components on Supply Air Path,1
   Supply Air Path Component,1,AIRLOOPHVAC:ZONESPLITTER,AIR LOOP HVAC ZONE SPLITTER 8,SYS_4_PSZ_ALL_ST=WHOLEBUILDING_FL=STORY 1_SCH=E 1
     #Outlet Nodes on Supply Air Path Component,1
     Supply Air Path Component Nodes,1,AIRLOOPHVAC:ZONESPLITTER,AIR LOOP HVAC ZONE SPLITTER 8,NODE 126,NODE 128,SYS_4_PSZ_ALL_ST=WHOLEBUILDING_FL=STORY 1_SCH=E 1
! <#Nodes on Supply Air Path>,<Number of Nodes>
! <Supply Air Path Node>,<Node Type>,<Node Count>,<Node Name>,<AirLoopHVAC Name>
#Nodes on Supply Air Path,2
   Supply Air Path Node,Inlet Node,1,NODE 126,SYS_4_PSZ_ALL_ST=WHOLEBUILDING_FL=STORY 1_SCH=E 1
   Supply Air Path Node,Outlet Node,2,NODE 128,SYS_4_PSZ_ALL_ST=WHOLEBUILDING_FL=STORY 1_SCH=E 1
 Supply Air Path,13,SYS_4_PSZ_ALL_ST=WHOLEBUILDING_FL=STORY 1_SCH=E 2 NODE 139 SUPPLY PATH,SYS_4_PSZ_ALL_ST=WHOLEBUILDING_FL=STORY 1_SCH=E 2
   #Components on Supply Air Path,1
   Supply Air Path Component,1,AIRLOOPHVAC:ZONESPLITTER,AIR LOOP HVAC ZONE SPLITTER 9,SYS_4_PSZ_ALL_ST=WHOLEBUILDING_FL=STORY 1_SCH=E 2
     #Outlet Nodes on Supply Air Path Component,1
     Supply Air Path Component Nodes,1,AIRLOOPHVAC:ZONESPLITTER,AIR LOOP HVAC ZONE SPLITTER 9,NODE 139,NODE 141,SYS_4_PSZ_ALL_ST=WHOLEBUILDING_FL=STORY 1_SCH=E 2
! <#Nodes on Supply Air Path>,<Number of Nodes>
! <Supply Air Path Node>,<Node Type>,<Node Count>,<Node Name>,<AirLoopHVAC Name>
#Nodes on Supply Air Path,2
   Supply Air Path Node,Inlet Node,1,NODE 139,SYS_4_PSZ_ALL_ST=WHOLEBUILDING_FL=STORY 1_SCH=E 2
   Supply Air Path Node,Outlet Node,2,NODE 141,SYS_4_PSZ_ALL_ST=WHOLEBUILDING_FL=STORY 1_SCH=E 2
 Supply Air Path,14,SYS_4_PSZ_ALL_ST=WHOLEBUILDING_FL=STORY 2_SCH=E NODE 87 SUPPLY PATH,SYS_4_PSZ_ALL_ST=WHOLEBUILDING_FL=STORY 2_SCH=E
   #Components on Supply Air Path,1
   Supply Air Path Component,1,AIRLOOPHVAC:ZONESPLITTER,AIR LOOP HVAC ZONE SPLITTER 5,SYS_4_PSZ_ALL_ST=WHOLEBUILDING_FL=STORY 2_SCH=E
     #Outlet Nodes on Supply Air Path Component,1
     Supply Air Path Component Nodes,1,AIRLOOPHVAC:ZONESPLITTER,AIR LOOP HVAC ZONE SPLITTER 5,NODE 87,NODE 89,SYS_4_PSZ_ALL_ST=WHOLEBUILDING_FL=STORY 2_SCH=E
! <#Nodes on Supply Air Path>,<Number of Nodes>
! <Supply Air Path Node>,<Node Type>,<Node Count>,<Node Name>,<AirLoopHVAC Name>
#Nodes on Supply Air Path,2
   Supply Air Path Node,Inlet Node,1,NODE 87,SYS_4_PSZ_ALL_ST=WHOLEBUILDING_FL=STORY 2_SCH=E
   Supply Air Path Node,Outlet Node,2,NODE 89,SYS_4_PSZ_ALL_ST=WHOLEBUILDING_FL=STORY 2_SCH=E
 Supply Air Path,15,SYS_4_PSZ_ALL_ST=WHOLEBUILDING_FL=STORY 2_SCH=E 1 NODE 165 SUPPLY PATH,SYS_4_PSZ_ALL_ST=WHOLEBUILDING_FL=STORY 2_SCH=E 1
   #Components on Supply Air Path,1
   Supply Air Path Component,1,AIRLOOPHVAC:ZONESPLITTER,AIR LOOP HVAC ZONE SPLITTER 11,SYS_4_PSZ_ALL_ST=WHOLEBUILDING_FL=STORY 2_SCH=E 1
     #Outlet Nodes on Supply Air Path Component,1
     Supply Air Path Component Nodes,1,AIRLOOPHVAC:ZONESPLITTER,AIR LOOP HVAC ZONE SPLITTER 11,NODE 165,NODE 167,SYS_4_PSZ_ALL_ST=WHOLEBUILDING_FL=STORY 2_SCH=E 1
! <#Nodes on Supply Air Path>,<Number of Nodes>
! <Supply Air Path Node>,<Node Type>,<Node Count>,<Node Name>,<AirLoopHVAC Name>
#Nodes on Supply Air Path,2
   Supply Air Path Node,Inlet Node,1,NODE 165,SYS_4_PSZ_ALL_ST=WHOLEBUILDING_FL=STORY 2_SCH=E 1
   Supply Air Path Node,Outlet Node,2,NODE 167,SYS_4_PSZ_ALL_ST=WHOLEBUILDING_FL=STORY 2_SCH=E 1
 Supply Air Path,16,SYS_4_PSZ_ALL_ST=WHOLEBUILDING_FL=STORY 3_SCH=E NODE 100 SUPPLY PATH,SYS_4_PSZ_ALL_ST=WHOLEBUILDING_FL=STORY 3_SCH=E
   #Components on Supply Air Path,1
   Supply Air Path Component,1,AIRLOOPHVAC:ZONESPLITTER,AIR LOOP HVAC ZONE SPLITTER 6,SYS_4_PSZ_ALL_ST=WHOLEBUILDING_FL=STORY 3_SCH=E
     #Outlet Nodes on Supply Air Path Component,1
     Supply Air Path Component Nodes,1,AIRLOOPHVAC:ZONESPLITTER,AIR LOOP HVAC ZONE SPLITTER 6,NODE 100,NODE 102,SYS_4_PSZ_ALL_ST=WHOLEBUILDING_FL=STORY 3_SCH=E
! <#Nodes on Supply Air Path>,<Number of Nodes>
! <Supply Air Path Node>,<Node Type>,<Node Count>,<Node Name>,<AirLoopHVAC Name>
#Nodes on Supply Air Path,2
   Supply Air Path Node,Inlet Node,1,NODE 100,SYS_4_PSZ_ALL_ST=WHOLEBUILDING_FL=STORY 3_SCH=E
   Supply Air Path Node,Outlet Node,2,NODE 102,SYS_4_PSZ_ALL_ST=WHOLEBUILDING_FL=STORY 3_SCH=E
 Supply Air Path,17,SYS_4_PSZ_ALL_ST=WHOLEBUILDING_FL=STORY 4_SCH=A NODE 74 SUPPLY PATH,SYS_4_PSZ_ALL_ST=WHOLEBUILDING_FL=STORY 4_SCH=A
   #Components on Supply Air Path,1
   Supply Air Path Component,1,AIRLOOPHVAC:ZONESPLITTER,AIR LOOP HVAC ZONE SPLITTER 4,SYS_4_PSZ_ALL_ST=WHOLEBUILDING_FL=STORY 4_SCH=A
     #Outlet Nodes on Supply Air Path Component,1
     Supply Air Path Component Nodes,1,AIRLOOPHVAC:ZONESPLITTER,AIR LOOP HVAC ZONE SPLITTER 4,NODE 74,NODE 76,SYS_4_PSZ_ALL_ST=WHOLEBUILDING_FL=STORY 4_SCH=A
! <#Nodes on Supply Air Path>,<Number of Nodes>
! <Supply Air Path Node>,<Node Type>,<Node Count>,<Node Name>,<AirLoopHVAC Name>
#Nodes on Supply Air Path,2
   Supply Air Path Node,Inlet Node,1,NODE 74,SYS_4_PSZ_ALL_ST=WHOLEBUILDING_FL=STORY 4_SCH=A
   Supply Air Path Node,Outlet Node,2,NODE 76,SYS_4_PSZ_ALL_ST=WHOLEBUILDING_FL=STORY 4_SCH=A
 Supply Air Path,18,SYS_4_PSZ_ALL_ST=WHOLEBUILDING_FL=STORY 4_SCH=E NODE 152 SUPPLY PATH,SYS_4_PSZ_ALL_ST=WHOLEBUILDING_FL=STORY 4_SCH=E
   #Components on Supply Air Path,1
   Supply Air Path Component,1,AIRLOOPHVAC:ZONESPLITTER,AIR LOOP HVAC ZONE SPLITTER 10,SYS_4_PSZ_ALL_ST=WHOLEBUILDING_FL=STORY 4_SCH=E
     #Outlet Nodes on Supply Air Path Component,1
     Supply Air Path Component Nodes,1,AIRLOOPHVAC:ZONESPLITTER,AIR LOOP HVAC ZONE SPLITTER 10,NODE 152,NODE 154,SYS_4_PSZ_ALL_ST=WHOLEBUILDING_FL=STORY 4_SCH=E
! <#Nodes on Supply Air Path>,<Number of Nodes>
! <Supply Air Path Node>,<Node Type>,<Node Count>,<Node Name>,<AirLoopHVAC Name>
#Nodes on Supply Air Path,2
   Supply Air Path Node,Inlet Node,1,NODE 152,SYS_4_PSZ_ALL_ST=WHOLEBUILDING_FL=STORY 4_SCH=E
   Supply Air Path Node,Outlet Node,2,NODE 154,SYS_4_PSZ_ALL_ST=WHOLEBUILDING_FL=STORY 4_SCH=E
 Supply Air Path,19,SYS_6_VAV WITH REHEAT NODE 416 SUPPLY PATH,SYS_6_VAV WITH REHEAT
   #Components on Supply Air Path,1
   Supply Air Path Component,1,AIRLOOPHVAC:ZONESPLITTER,AIR LOOP HVAC ZONE SPLITTER 19,SYS_6_VAV WITH REHEAT
     #Outlet Nodes on Supply Air Path Component,1
     Supply Air Path Component Nodes,1,AIRLOOPHVAC:ZONESPLITTER,AIR LOOP HVAC ZONE SPLITTER 19,NODE 416,NODE 431,SYS_6_VAV WITH REHEAT
! <#Nodes on Supply Air Path>,<Number of Nodes>
! <Supply Air Path Node>,<Node Type>,<Node Count>,<Node Name>,<AirLoopHVAC Name>
#Nodes on Supply Air Path,2
   Supply Air Path Node,Inlet Node,1,NODE 416,SYS_6_VAV WITH REHEAT
   Supply Air Path Node,Outlet Node,2,NODE 431,SYS_6_VAV WITH REHEAT
 Supply Air Path,20,SYS_6_VAV WITH REHEAT 1 NODE 436 SUPPLY PATH,SYS_6_VAV WITH REHEAT 1
   #Components on Supply Air Path,1
   Supply Air Path Component,1,AIRLOOPHVAC:ZONESPLITTER,AIR LOOP HVAC ZONE SPLITTER 20,SYS_6_VAV WITH REHEAT 1
     #Outlet Nodes on Supply Air Path Component,1
     Supply Air Path Component Nodes,1,AIRLOOPHVAC:ZONESPLITTER,AIR LOOP HVAC ZONE SPLITTER 20,NODE 436,NODE 452,SYS_6_VAV WITH REHEAT 1
! <#Nodes on Supply Air Path>,<Number of Nodes>
! <Supply Air Path Node>,<Node Type>,<Node Count>,<Node Name>,<AirLoopHVAC Name>
#Nodes on Supply Air Path,2
   Supply Air Path Node,Inlet Node,1,NODE 436,SYS_6_VAV WITH REHEAT 1
   Supply Air Path Node,Outlet Node,2,NODE 452,SYS_6_VAV WITH REHEAT 1
! ===============================================================
! <#Return Air Paths>,<Number of Return Air Paths>
 #Return Air Paths,20
! <Return Air Path>,<Return Air Path Count>,<Return Air Path Name>,<AirLoopHVAC Name>
! <#Components on Return Air Path>,<Number of Components>
! <Return Air Path Component>,<Component Count>,<Component Type>,<Component Name>,<AirLoopHVAC Name>
! <#Inlet Nodes on Return Air Path Component>,<Number of Nodes>
! <Return Air Path Component Nodes>,<Node Count>,<Component Type>,<Component Name>,<Inlet Node Name>,<Outlet Node Name>,<AirLoopHVAC Name>
 Return Air Path,1,SYS_2_MAKE-UP AIR UNIT RETURN PATH,SYS_2_MAKE-UP AIR UNIT
   #Components on Return Air Path,1
   Return Air Path Component,1,AIRLOOPHVAC:ZONEMIXER,AIR LOOP HVAC ZONE MIXER 12,SYS_2_MAKE-UP AIR UNIT
     #Inlet Nodes on Return Air Path Component,1
     Return Air Path Component Nodes,1,AIRLOOPHVAC:ZONEMIXER,AIR LOOP HVAC ZONE MIXER 12,NODE 218,NODE 206,SYS_2_MAKE-UP AIR UNIT
! <#Nodes on Return Air Path>,<Number of Nodes>
! <Return Air Path Node>,<Node Type>,<Node Count>,<Node Name>,<AirLoopHVAC Name>
   #Nodes on Return Air Path,2
   Return Air Path Node,Outlet Node,1,NODE 206,SYS_2_MAKE-UP AIR UNIT
   Return Air Path Node,Inlet Node,2,NODE 218,SYS_2_MAKE-UP AIR UNIT
 Return Air Path,2,SYS_2_MAKE-UP AIR UNIT 1 RETURN PATH,SYS_2_MAKE-UP AIR UNIT 1
   #Components on Return Air Path,1
   Return Air Path Component,1,AIRLOOPHVAC:ZONEMIXER,AIR LOOP HVAC ZONE MIXER 13,SYS_2_MAKE-UP AIR UNIT 1
     #Inlet Nodes on Return Air Path Component,1
     Return Air Path Component Nodes,1,AIRLOOPHVAC:ZONEMIXER,AIR LOOP HVAC ZONE MIXER 13,NODE 261,NODE 249,SYS_2_MAKE-UP AIR UNIT 1
! <#Nodes on Return Air Path>,<Number of Nodes>
! <Return Air Path Node>,<Node Type>,<Node Count>,<Node Name>,<AirLoopHVAC Name>
   #Nodes on Return Air Path,2
   Return Air Path Node,Outlet Node,1,NODE 249,SYS_2_MAKE-UP AIR UNIT 1
   Return Air Path Node,Inlet Node,2,NODE 261,SYS_2_MAKE-UP AIR UNIT 1
 Return Air Path,3,SYS_2_MAKE-UP AIR UNIT 2 RETURN PATH,SYS_2_MAKE-UP AIR UNIT 2
   #Components on Return Air Path,1
   Return Air Path Component,1,AIRLOOPHVAC:ZONEMIXER,AIR LOOP HVAC ZONE MIXER 14,SYS_2_MAKE-UP AIR UNIT 2
     #Inlet Nodes on Return Air Path Component,1
     Return Air Path Component Nodes,1,AIRLOOPHVAC:ZONEMIXER,AIR LOOP HVAC ZONE MIXER 14,NODE 304,NODE 292,SYS_2_MAKE-UP AIR UNIT 2
! <#Nodes on Return Air Path>,<Number of Nodes>
! <Return Air Path Node>,<Node Type>,<Node Count>,<Node Name>,<AirLoopHVAC Name>
   #Nodes on Return Air Path,2
   Return Air Path Node,Outlet Node,1,NODE 292,SYS_2_MAKE-UP AIR UNIT 2
   Return Air Path Node,Inlet Node,2,NODE 304,SYS_2_MAKE-UP AIR UNIT 2
 Return Air Path,4,SYS_2_MAKE-UP AIR UNIT 3 RETURN PATH,SYS_2_MAKE-UP AIR UNIT 3
   #Components on Return Air Path,1
   Return Air Path Component,1,AIRLOOPHVAC:ZONEMIXER,AIR LOOP HVAC ZONE MIXER 15,SYS_2_MAKE-UP AIR UNIT 3
     #Inlet Nodes on Return Air Path Component,1
     Return Air Path Component Nodes,1,AIRLOOPHVAC:ZONEMIXER,AIR LOOP HVAC ZONE MIXER 15,NODE 347,NODE 335,SYS_2_MAKE-UP AIR UNIT 3
! <#Nodes on Return Air Path>,<Number of Nodes>
! <Return Air Path Node>,<Node Type>,<Node Count>,<Node Name>,<AirLoopHVAC Name>
   #Nodes on Return Air Path,2
   Return Air Path Node,Outlet Node,1,NODE 335,SYS_2_MAKE-UP AIR UNIT 3
   Return Air Path Node,Inlet Node,2,NODE 347,SYS_2_MAKE-UP AIR UNIT 3
 Return Air Path,5,SYS_3_PSZ ALL_ST=WHOLEBUILDING_FL=STORY 1_SCH=A RETURN PATH,SYS_3_PSZ ALL_ST=WHOLEBUILDING_FL=STORY 1_SCH=A
   #Components on Return Air Path,1
   Return Air Path Component,1,AIRLOOPHVAC:ZONEMIXER,AIR LOOP HVAC ZONE MIXER 18,SYS_3_PSZ ALL_ST=WHOLEBUILDING_FL=STORY 1_SCH=A
     #Inlet Nodes on Return Air Path Component,1
     Return Air Path Component Nodes,1,AIRLOOPHVAC:ZONEMIXER,AIR LOOP HVAC ZONE MIXER 18,NODE 384,NODE 377,SYS_3_PSZ ALL_ST=WHOLEBUILDING_FL=STORY 1_SCH=A
! <#Nodes on Return Air Path>,<Number of Nodes>
! <Return Air Path Node>,<Node Type>,<Node Count>,<Node Name>,<AirLoopHVAC Name>
   #Nodes on Return Air Path,2
   Return Air Path Node,Outlet Node,1,NODE 377,SYS_3_PSZ ALL_ST=WHOLEBUILDING_FL=STORY 1_SCH=A
   Return Air Path Node,Inlet Node,2,NODE 384,SYS_3_PSZ ALL_ST=WHOLEBUILDING_FL=STORY 1_SCH=A
 Return Air Path,6,SYS_3_PSZ ALL_ST=WHOLEBUILDING_FL=STORY 2_SCH=D RETURN PATH,SYS_3_PSZ ALL_ST=WHOLEBUILDING_FL=STORY 2_SCH=D
   #Components on Return Air Path,1
   Return Air Path Component,1,AIRLOOPHVAC:ZONEMIXER,AIR LOOP HVAC ZONE MIXER 17,SYS_3_PSZ ALL_ST=WHOLEBUILDING_FL=STORY 2_SCH=D
     #Inlet Nodes on Return Air Path Component,1
     Return Air Path Component Nodes,1,AIRLOOPHVAC:ZONEMIXER,AIR LOOP HVAC ZONE MIXER 17,NODE 371,NODE 364,SYS_3_PSZ ALL_ST=WHOLEBUILDING_FL=STORY 2_SCH=D
! <#Nodes on Return Air Path>,<Number of Nodes>
! <Return Air Path Node>,<Node Type>,<Node Count>,<Node Name>,<AirLoopHVAC Name>
   #Nodes on Return Air Path,2
   Return Air Path Node,Outlet Node,1,NODE 364,SYS_3_PSZ ALL_ST=WHOLEBUILDING_FL=STORY 2_SCH=D
   Return Air Path Node,Inlet Node,2,NODE 371,SYS_3_PSZ ALL_ST=WHOLEBUILDING_FL=STORY 2_SCH=D
 Return Air Path,7,SYS_3_PSZ ALL_ST=WORKSHOP SPACE_FL=STORY 1_SCH=A RETURN PATH,SYS_3_PSZ ALL_ST=WORKSHOP SPACE_FL=STORY 1_SCH=A
   #Components on Return Air Path,1
   Return Air Path Component,1,AIRLOOPHVAC:ZONEMIXER,AIR LOOP HVAC ZONE MIXER 16,SYS_3_PSZ ALL_ST=WORKSHOP SPACE_FL=STORY 1_SCH=A
     #Inlet Nodes on Return Air Path Component,1
     Return Air Path Component Nodes,1,AIRLOOPHVAC:ZONEMIXER,AIR LOOP HVAC ZONE MIXER 16,NODE 358,NODE 351,SYS_3_PSZ ALL_ST=WORKSHOP SPACE_FL=STORY 1_SCH=A
! <#Nodes on Return Air Path>,<Number of Nodes>
! <Return Air Path Node>,<Node Type>,<Node Count>,<Node Name>,<AirLoopHVAC Name>
   #Nodes on Return Air Path,2
   Return Air Path Node,Outlet Node,1,NODE 351,SYS_3_PSZ ALL_ST=WORKSHOP SPACE_FL=STORY 1_SCH=A
   Return Air Path Node,Inlet Node,2,NODE 358,SYS_3_PSZ ALL_ST=WORKSHOP SPACE_FL=STORY 1_SCH=A
 Return Air Path,8,SYS_4_PSZ_ALL_ST=WAREHOUSE - FINE_FL=STORY 4_SCH=A RETURN PATH,SYS_4_PSZ_ALL_ST=WAREHOUSE - FINE_FL=STORY 4_SCH=A
   #Components on Return Air Path,1
   Return Air Path Component,1,AIRLOOPHVAC:ZONEMIXER,AIR LOOP HVAC ZONE MIXER 1,SYS_4_PSZ_ALL_ST=WAREHOUSE - FINE_FL=STORY 4_SCH=A
     #Inlet Nodes on Return Air Path Component,1
     Return Air Path Component Nodes,1,AIRLOOPHVAC:ZONEMIXER,AIR LOOP HVAC ZONE MIXER 1,NODE 36,NODE 26,SYS_4_PSZ_ALL_ST=WAREHOUSE - FINE_FL=STORY 4_SCH=A
! <#Nodes on Return Air Path>,<Number of Nodes>
! <Return Air Path Node>,<Node Type>,<Node Count>,<Node Name>,<AirLoopHVAC Name>
   #Nodes on Return Air Path,2
   Return Air Path Node,Outlet Node,1,NODE 26,SYS_4_PSZ_ALL_ST=WAREHOUSE - FINE_FL=STORY 4_SCH=A
   Return Air Path Node,Inlet Node,2,NODE 36,SYS_4_PSZ_ALL_ST=WAREHOUSE - FINE_FL=STORY 4_SCH=A
 Return Air Path,9,SYS_4_PSZ_ALL_ST=WAREHOUSE - MED/BLK2_FL=STORY 3_SCH=A RETURN PATH,SYS_4_PSZ_ALL_ST=WAREHOUSE - MED/BLK2_FL=STORY 3_SCH=A
   #Components on Return Air Path,1
   Return Air Path Component,1,AIRLOOPHVAC:ZONEMIXER,AIR LOOP HVAC ZONE MIXER 3,SYS_4_PSZ_ALL_ST=WAREHOUSE - MED/BLK2_FL=STORY 3_SCH=A
     #Inlet Nodes on Return Air Path Component,1
     Return Air Path Component Nodes,1,AIRLOOPHVAC:ZONEMIXER,AIR LOOP HVAC ZONE MIXER 3,NODE 69,NODE 62,SYS_4_PSZ_ALL_ST=WAREHOUSE - MED/BLK2_FL=STORY 3_SCH=A
! <#Nodes on Return Air Path>,<Number of Nodes>
! <Return Air Path Node>,<Node Type>,<Node Count>,<Node Name>,<AirLoopHVAC Name>
   #Nodes on Return Air Path,2
   Return Air Path Node,Outlet Node,1,NODE 62,SYS_4_PSZ_ALL_ST=WAREHOUSE - MED/BLK2_FL=STORY 3_SCH=A
   Return Air Path Node,Inlet Node,2,NODE 69,SYS_4_PSZ_ALL_ST=WAREHOUSE - MED/BLK2_FL=STORY 3_SCH=A
 Return Air Path,10,SYS_4_PSZ_ALL_ST=WAREHOUSE - MED/BLK_FL=STORY 4_SCH=A RETURN PATH,SYS_4_PSZ_ALL_ST=WAREHOUSE - MED/BLK_FL=STORY 4_SCH=A
   #Components on Return Air Path,1
   Return Air Path Component,1,AIRLOOPHVAC:ZONEMIXER,AIR LOOP HVAC ZONE MIXER 2,SYS_4_PSZ_ALL_ST=WAREHOUSE - MED/BLK_FL=STORY 4_SCH=A
     #Inlet Nodes on Return Air Path Component,1
     Return Air Path Component Nodes,1,AIRLOOPHVAC:ZONEMIXER,AIR LOOP HVAC ZONE MIXER 2,NODE 54,NODE 44,SYS_4_PSZ_ALL_ST=WAREHOUSE - MED/BLK_FL=STORY 4_SCH=A
! <#Nodes on Return Air Path>,<Number of Nodes>
! <Return Air Path Node>,<Node Type>,<Node Count>,<Node Name>,<AirLoopHVAC Name>
   #Nodes on Return Air Path,2
   Return Air Path Node,Outlet Node,1,NODE 44,SYS_4_PSZ_ALL_ST=WAREHOUSE - MED/BLK_FL=STORY 4_SCH=A
   Return Air Path Node,Inlet Node,2,NODE 54,SYS_4_PSZ_ALL_ST=WAREHOUSE - MED/BLK_FL=STORY 4_SCH=A
 Return Air Path,11,SYS_4_PSZ_ALL_ST=WHOLEBUILDING_FL=STORY 1_SCH=E RETURN PATH,SYS_4_PSZ_ALL_ST=WHOLEBUILDING_FL=STORY 1_SCH=E
   #Components on Return Air Path,1
   Return Air Path Component,1,AIRLOOPHVAC:ZONEMIXER,AIR LOOP HVAC ZONE MIXER 7,SYS_4_PSZ_ALL_ST=WHOLEBUILDING_FL=STORY 1_SCH=E
     #Inlet Nodes on Return Air Path Component,1
     Return Air Path Component Nodes,1,AIRLOOPHVAC:ZONEMIXER,AIR LOOP HVAC ZONE MIXER 7,NODE 121,NODE 114,SYS_4_PSZ_ALL_ST=WHOLEBUILDING_FL=STORY 1_SCH=E
! <#Nodes on Return Air Path>,<Number of Nodes>
! <Return Air Path Node>,<Node Type>,<Node Count>,<Node Name>,<AirLoopHVAC Name>
   #Nodes on Return Air Path,2
   Return Air Path Node,Outlet Node,1,NODE 114,SYS_4_PSZ_ALL_ST=WHOLEBUILDING_FL=STORY 1_SCH=E
   Return Air Path Node,Inlet Node,2,NODE 121,SYS_4_PSZ_ALL_ST=WHOLEBUILDING_FL=STORY 1_SCH=E
 Return Air Path,12,SYS_4_PSZ_ALL_ST=WHOLEBUILDING_FL=STORY 1_SCH=E 1 RETURN PATH,SYS_4_PSZ_ALL_ST=WHOLEBUILDING_FL=STORY 1_SCH=E 1
   #Components on Return Air Path,1
   Return Air Path Component,1,AIRLOOPHVAC:ZONEMIXER,AIR LOOP HVAC ZONE MIXER 8,SYS_4_PSZ_ALL_ST=WHOLEBUILDING_FL=STORY 1_SCH=E 1
     #Inlet Nodes on Return Air Path Component,1
     Return Air Path Component Nodes,1,AIRLOOPHVAC:ZONEMIXER,AIR LOOP HVAC ZONE MIXER 8,NODE 134,NODE 127,SYS_4_PSZ_ALL_ST=WHOLEBUILDING_FL=STORY 1_SCH=E 1
! <#Nodes on Return Air Path>,<Number of Nodes>
! <Return Air Path Node>,<Node Type>,<Node Count>,<Node Name>,<AirLoopHVAC Name>
   #Nodes on Return Air Path,2
   Return Air Path Node,Outlet Node,1,NODE 127,SYS_4_PSZ_ALL_ST=WHOLEBUILDING_FL=STORY 1_SCH=E 1
   Return Air Path Node,Inlet Node,2,NODE 134,SYS_4_PSZ_ALL_ST=WHOLEBUILDING_FL=STORY 1_SCH=E 1
 Return Air Path,13,SYS_4_PSZ_ALL_ST=WHOLEBUILDING_FL=STORY 1_SCH=E 2 RETURN PATH,SYS_4_PSZ_ALL_ST=WHOLEBUILDING_FL=STORY 1_SCH=E 2
   #Components on Return Air Path,1
   Return Air Path Component,1,AIRLOOPHVAC:ZONEMIXER,AIR LOOP HVAC ZONE MIXER 9,SYS_4_PSZ_ALL_ST=WHOLEBUILDING_FL=STORY 1_SCH=E 2
     #Inlet Nodes on Return Air Path Component,1
     Return Air Path Component Nodes,1,AIRLOOPHVAC:ZONEMIXER,AIR LOOP HVAC ZONE MIXER 9,NODE 147,NODE 140,SYS_4_PSZ_ALL_ST=WHOLEBUILDING_FL=STORY 1_SCH=E 2
! <#Nodes on Return Air Path>,<Number of Nodes>
! <Return Air Path Node>,<Node Type>,<Node Count>,<Node Name>,<AirLoopHVAC Name>
   #Nodes on Return Air Path,2
   Return Air Path Node,Outlet Node,1,NODE 140,SYS_4_PSZ_ALL_ST=WHOLEBUILDING_FL=STORY 1_SCH=E 2
   Return Air Path Node,Inlet Node,2,NODE 147,SYS_4_PSZ_ALL_ST=WHOLEBUILDING_FL=STORY 1_SCH=E 2
 Return Air Path,14,SYS_4_PSZ_ALL_ST=WHOLEBUILDING_FL=STORY 2_SCH=E RETURN PATH,SYS_4_PSZ_ALL_ST=WHOLEBUILDING_FL=STORY 2_SCH=E
   #Components on Return Air Path,1
   Return Air Path Component,1,AIRLOOPHVAC:ZONEMIXER,AIR LOOP HVAC ZONE MIXER 5,SYS_4_PSZ_ALL_ST=WHOLEBUILDING_FL=STORY 2_SCH=E
     #Inlet Nodes on Return Air Path Component,1
     Return Air Path Component Nodes,1,AIRLOOPHVAC:ZONEMIXER,AIR LOOP HVAC ZONE MIXER 5,NODE 95,NODE 88,SYS_4_PSZ_ALL_ST=WHOLEBUILDING_FL=STORY 2_SCH=E
! <#Nodes on Return Air Path>,<Number of Nodes>
! <Return Air Path Node>,<Node Type>,<Node Count>,<Node Name>,<AirLoopHVAC Name>
   #Nodes on Return Air Path,2
   Return Air Path Node,Outlet Node,1,NODE 88,SYS_4_PSZ_ALL_ST=WHOLEBUILDING_FL=STORY 2_SCH=E
   Return Air Path Node,Inlet Node,2,NODE 95,SYS_4_PSZ_ALL_ST=WHOLEBUILDING_FL=STORY 2_SCH=E
 Return Air Path,15,SYS_4_PSZ_ALL_ST=WHOLEBUILDING_FL=STORY 2_SCH=E 1 RETURN PATH,SYS_4_PSZ_ALL_ST=WHOLEBUILDING_FL=STORY 2_SCH=E 1
   #Components on Return Air Path,1
   Return Air Path Component,1,AIRLOOPHVAC:ZONEMIXER,AIR LOOP HVAC ZONE MIXER 11,SYS_4_PSZ_ALL_ST=WHOLEBUILDING_FL=STORY 2_SCH=E 1
     #Inlet Nodes on Return Air Path Component,1
     Return Air Path Component Nodes,1,AIRLOOPHVAC:ZONEMIXER,AIR LOOP HVAC ZONE MIXER 11,NODE 173,NODE 166,SYS_4_PSZ_ALL_ST=WHOLEBUILDING_FL=STORY 2_SCH=E 1
! <#Nodes on Return Air Path>,<Number of Nodes>
! <Return Air Path Node>,<Node Type>,<Node Count>,<Node Name>,<AirLoopHVAC Name>
   #Nodes on Return Air Path,2
   Return Air Path Node,Outlet Node,1,NODE 166,SYS_4_PSZ_ALL_ST=WHOLEBUILDING_FL=STORY 2_SCH=E 1
   Return Air Path Node,Inlet Node,2,NODE 173,SYS_4_PSZ_ALL_ST=WHOLEBUILDING_FL=STORY 2_SCH=E 1
 Return Air Path,16,SYS_4_PSZ_ALL_ST=WHOLEBUILDING_FL=STORY 3_SCH=E RETURN PATH,SYS_4_PSZ_ALL_ST=WHOLEBUILDING_FL=STORY 3_SCH=E
   #Components on Return Air Path,1
   Return Air Path Component,1,AIRLOOPHVAC:ZONEMIXER,AIR LOOP HVAC ZONE MIXER 6,SYS_4_PSZ_ALL_ST=WHOLEBUILDING_FL=STORY 3_SCH=E
     #Inlet Nodes on Return Air Path Component,1
     Return Air Path Component Nodes,1,AIRLOOPHVAC:ZONEMIXER,AIR LOOP HVAC ZONE MIXER 6,NODE 108,NODE 101,SYS_4_PSZ_ALL_ST=WHOLEBUILDING_FL=STORY 3_SCH=E
! <#Nodes on Return Air Path>,<Number of Nodes>
! <Return Air Path Node>,<Node Type>,<Node Count>,<Node Name>,<AirLoopHVAC Name>
   #Nodes on Return Air Path,2
   Return Air Path Node,Outlet Node,1,NODE 101,SYS_4_PSZ_ALL_ST=WHOLEBUILDING_FL=STORY 3_SCH=E
   Return Air Path Node,Inlet Node,2,NODE 108,SYS_4_PSZ_ALL_ST=WHOLEBUILDING_FL=STORY 3_SCH=E
 Return Air Path,17,SYS_4_PSZ_ALL_ST=WHOLEBUILDING_FL=STORY 4_SCH=A RETURN PATH,SYS_4_PSZ_ALL_ST=WHOLEBUILDING_FL=STORY 4_SCH=A
   #Components on Return Air Path,1
   Return Air Path Component,1,AIRLOOPHVAC:ZONEMIXER,AIR LOOP HVAC ZONE MIXER 4,SYS_4_PSZ_ALL_ST=WHOLEBUILDING_FL=STORY 4_SCH=A
     #Inlet Nodes on Return Air Path Component,1
     Return Air Path Component Nodes,1,AIRLOOPHVAC:ZONEMIXER,AIR LOOP HVAC ZONE MIXER 4,NODE 82,NODE 75,SYS_4_PSZ_ALL_ST=WHOLEBUILDING_FL=STORY 4_SCH=A
! <#Nodes on Return Air Path>,<Number of Nodes>
! <Return Air Path Node>,<Node Type>,<Node Count>,<Node Name>,<AirLoopHVAC Name>
   #Nodes on Return Air Path,2
   Return Air Path Node,Outlet Node,1,NODE 75,SYS_4_PSZ_ALL_ST=WHOLEBUILDING_FL=STORY 4_SCH=A
   Return Air Path Node,Inlet Node,2,NODE 82,SYS_4_PSZ_ALL_ST=WHOLEBUILDING_FL=STORY 4_SCH=A
 Return Air Path,18,SYS_4_PSZ_ALL_ST=WHOLEBUILDING_FL=STORY 4_SCH=E RETURN PATH,SYS_4_PSZ_ALL_ST=WHOLEBUILDING_FL=STORY 4_SCH=E
   #Components on Return Air Path,1
   Return Air Path Component,1,AIRLOOPHVAC:ZONEMIXER,AIR LOOP HVAC ZONE MIXER 10,SYS_4_PSZ_ALL_ST=WHOLEBUILDING_FL=STORY 4_SCH=E
     #Inlet Nodes on Return Air Path Component,1
     Return Air Path Component Nodes,1,AIRLOOPHVAC:ZONEMIXER,AIR LOOP HVAC ZONE MIXER 10,NODE 160,NODE 153,SYS_4_PSZ_ALL_ST=WHOLEBUILDING_FL=STORY 4_SCH=E
! <#Nodes on Return Air Path>,<Number of Nodes>
! <Return Air Path Node>,<Node Type>,<Node Count>,<Node Name>,<AirLoopHVAC Name>
   #Nodes on Return Air Path,2
   Return Air Path Node,Outlet Node,1,NODE 153,SYS_4_PSZ_ALL_ST=WHOLEBUILDING_FL=STORY 4_SCH=E
   Return Air Path Node,Inlet Node,2,NODE 160,SYS_4_PSZ_ALL_ST=WHOLEBUILDING_FL=STORY 4_SCH=E
 Return Air Path,19,SYS_6_VAV WITH REHEAT RETURN PATH,SYS_6_VAV WITH REHEAT
   #Components on Return Air Path,1
   Return Air Path Component,1,AIRLOOPHVAC:ZONEMIXER,AIR LOOP HVAC ZONE MIXER 19,SYS_6_VAV WITH REHEAT
     #Inlet Nodes on Return Air Path Component,1
     Return Air Path Component Nodes,1,AIRLOOPHVAC:ZONEMIXER,AIR LOOP HVAC ZONE MIXER 19,NODE 430,NODE 417,SYS_6_VAV WITH REHEAT
! <#Nodes on Return Air Path>,<Number of Nodes>
! <Return Air Path Node>,<Node Type>,<Node Count>,<Node Name>,<AirLoopHVAC Name>
   #Nodes on Return Air Path,2
   Return Air Path Node,Outlet Node,1,NODE 417,SYS_6_VAV WITH REHEAT
   Return Air Path Node,Inlet Node,2,NODE 430,SYS_6_VAV WITH REHEAT
 Return Air Path,20,SYS_6_VAV WITH REHEAT 1 RETURN PATH,SYS_6_VAV WITH REHEAT 1
   #Components on Return Air Path,1
   Return Air Path Component,1,AIRLOOPHVAC:ZONEMIXER,AIR LOOP HVAC ZONE MIXER 20,SYS_6_VAV WITH REHEAT 1
     #Inlet Nodes on Return Air Path Component,1
     Return Air Path Component Nodes,1,AIRLOOPHVAC:ZONEMIXER,AIR LOOP HVAC ZONE MIXER 20,NODE 451,NODE 437,SYS_6_VAV WITH REHEAT 1
! <#Nodes on Return Air Path>,<Number of Nodes>
! <Return Air Path Node>,<Node Type>,<Node Count>,<Node Name>,<AirLoopHVAC Name>
   #Nodes on Return Air Path,2
   Return Air Path Node,Outlet Node,1,NODE 437,SYS_6_VAV WITH REHEAT 1
   Return Air Path Node,Inlet Node,2,NODE 451,SYS_6_VAV WITH REHEAT 1
! ===============================================================
! #Outdoor Air Nodes,<Number of Outdoor Air Nodes>
 #Outdoor Air Nodes,25
! <Outdoor Air Node>,<NodeNumber>,<Node Name>
 Outdoor Air Node,501,ZONE HVAC FOUR PIPE FAN COIL 1 OA NODE
 Outdoor Air Node,502,ZONE HVAC FOUR PIPE FAN COIL 2 OA NODE
 Outdoor Air Node,503,ZONE HVAC FOUR PIPE FAN COIL 3 OA NODE
 Outdoor Air Node,504,ZONE HVAC FOUR PIPE FAN COIL 4 OA NODE
 Outdoor Air Node,505,NODE 208
 Outdoor Air Node,506,NODE 251
 Outdoor Air Node,507,NODE 294
 Outdoor Air Node,508,NODE 337
 Outdoor Air Node,509,NODE 379
 Outdoor Air Node,510,NODE 366
 Outdoor Air Node,511,NODE 353
 Outdoor Air Node,512,NODE 29
 Outdoor Air Node,513,NODE 64
 Outdoor Air Node,514,NODE 47
 Outdoor Air Node,515,NODE 116
 Outdoor Air Node,516,NODE 129
 Outdoor Air Node,517,NODE 142
 Outdoor Air Node,518,NODE 90
 Outdoor Air Node,519,NODE 168
 Outdoor Air Node,520,NODE 103
 Outdoor Air Node,521,NODE 77
 Outdoor Air Node,522,NODE 155
 Outdoor Air Node,523,NODE 422
 Outdoor Air Node,524,NODE 443
 Outdoor Air Node,525,MODEL OUTDOOR AIR NODE
! ===============================================================
! <#Component Sets>,<Number of Component Sets>
 #Component Sets,293
! <Component Set>,<Component Set Count>,<Parent Object Type>,<Parent Object Name>,<Component Type>,<Component Name>,<Inlet Node ID>,<Outlet Node ID>,<Description>
 Component Set,1,BRANCH,SYS_2_MAKE-UP AIR UNIT MAIN BRANCH,AIRLOOPHVAC:OUTDOORAIRSYSTEM,AIR LOOP HVAC OUTDOOR AIR SYSTEM 12,NODE 203,NODE 212,Air Nodes
 Component Set,2,BRANCH,SYS_2_MAKE-UP AIR UNIT MAIN BRANCH,COILSYSTEM:COOLING:DX,COIL COOLING DX SINGLE SPEED 12 188KBTU/HR 9.7EER COILSYSTEM,NODE 212,NODE 211,Air Nodes
 Component Set,3,BRANCH,SYS_2_MAKE-UP AIR UNIT MAIN BRANCH,COIL:HEATING:FUEL,COIL HEATING GAS 12,NODE 211,NODE 210,Air Nodes
 Component Set,4,BRANCH,SYS_2_MAKE-UP AIR UNIT MAIN BRANCH,FAN:CONSTANTVOLUME,FAN CONSTANT VOLUME 12,NODE 210,NODE 204,Air Nodes
 Component Set,5,BRANCH,SYS_2_MAKE-UP AIR UNIT 1 MAIN BRANCH,AIRLOOPHVAC:OUTDOORAIRSYSTEM,AIR LOOP HVAC OUTDOOR AIR SYSTEM 13,NODE 246,NODE 255,Air Nodes
 Component Set,6,BRANCH,SYS_2_MAKE-UP AIR UNIT 1 MAIN BRANCH,COILSYSTEM:COOLING:DX,COIL COOLING DX SINGLE SPEED 13 130KBTU/HR 9.7EER COILSYSTEM,NODE 255,NODE 254,Air Nodes
 Component Set,7,BRANCH,SYS_2_MAKE-UP AIR UNIT 1 MAIN BRANCH,COIL:HEATING:FUEL,COIL HEATING GAS 13,NODE 254,NODE 253,Air Nodes
 Component Set,8,BRANCH,SYS_2_MAKE-UP AIR UNIT 1 MAIN BRANCH,FAN:CONSTANTVOLUME,FAN CONSTANT VOLUME 14,NODE 253,NODE 247,Air Nodes
 Component Set,9,BRANCH,SYS_2_MAKE-UP AIR UNIT 2 MAIN BRANCH,AIRLOOPHVAC:OUTDOORAIRSYSTEM,AIR LOOP HVAC OUTDOOR AIR SYSTEM 14,NODE 289,NODE 298,Air Nodes
[...]
 Non-Parent Node Connection,NODE 35,COIL:COOLING:DX:SINGLESPEED,COIL COOLING DX SINGLE SPEED 1 353KBTU/HR 8.21EER,Inlet,1
 Non-Parent Node Connection,NODE 33,COIL:COOLING:DX:SINGLESPEED,COIL COOLING DX SINGLE SPEED 1 353KBTU/HR 8.21EER,Outlet,1
 Non-Parent Node Connection,NODE 68,COIL:COOLING:DX:SINGLESPEED,COIL COOLING DX SINGLE SPEED 3 218KBTU/HR 9.7EER,Inlet,1
 Non-Parent Node Connection,NODE 67,COIL:COOLING:DX:SINGLESPEED,COIL COOLING DX SINGLE SPEED 3 218KBTU/HR 9.7EER,Outlet,1
 Non-Parent Node Connection,NODE 53,COIL:COOLING:DX:SINGLESPEED,COIL COOLING DX SINGLE SPEED 2 262KBTU/HR 8.21EER,Inlet,1
 Non-Parent Node Connection,NODE 51,COIL:COOLING:DX:SINGLESPEED,COIL COOLING DX SINGLE SPEED 2 262KBTU/HR 8.21EER,Outlet,1
 Non-Parent Node Connection,NODE 120,COIL:COOLING:DX:SINGLESPEED,COIL COOLING DX SINGLE SPEED 7 134KBTU/HR 9.7EER,Inlet,1
 Non-Parent Node Connection,NODE 119,COIL:COOLING:DX:SINGLESPEED,COIL COOLING DX SINGLE SPEED 7 134KBTU/HR 9.7EER,Outlet,1
 Non-Parent Node Connection,NODE 133,COIL:COOLING:DX:SINGLESPEED,COIL COOLING DX SINGLE SPEED 8 136KBTU/HR 9.7EER,Inlet,1
 Non-Parent Node Connection,NODE 132,COIL:COOLING:DX:SINGLESPEED,COIL COOLING DX SINGLE SPEED 8 136KBTU/HR 9.7EER,Outlet,1
 Non-Parent Node Connection,NODE 146,COIL:COOLING:DX:SINGLESPEED,COIL COOLING DX SINGLE SPEED 9 177KBTU/HR 9.7EER,Inlet,1
 Non-Parent Node Connection,NODE 145,COIL:COOLING:DX:SINGLESPEED,COIL COOLING DX SINGLE SPEED 9 177KBTU/HR 9.7EER,Outlet,1
 Non-Parent Node Connection,NODE 94,COIL:COOLING:DX:SINGLESPEED,COIL COOLING DX SINGLE SPEED 5 183KBTU/HR 9.7EER,Inlet,1
 Non-Parent Node Connection,NODE 93,COIL:COOLING:DX:SINGLESPEED,COIL COOLING DX SINGLE SPEED 5 183KBTU/HR 9.7EER,Outlet,1
 Non-Parent Node Connection,NODE 172,COIL:COOLING:DX:SINGLESPEED,COIL COOLING DX SINGLE SPEED 11 202KBTU/HR 9.7EER,Inlet,1
 Non-Parent Node Connection,NODE 171,COIL:COOLING:DX:SINGLESPEED,COIL COOLING DX SINGLE SPEED 11 202KBTU/HR 9.7EER,Outlet,1
 Non-Parent Node Connection,NODE 107,COIL:COOLING:DX:SINGLESPEED,COIL COOLING DX SINGLE SPEED 6 179KBTU/HR 9.7EER,Inlet,1
 Non-Parent Node Connection,NODE 106,COIL:COOLING:DX:SINGLESPEED,COIL COOLING DX SINGLE SPEED 6 179KBTU/HR 9.7EER,Outlet,1
 Non-Parent Node Connection,NODE 81,COIL:COOLING:DX:SINGLESPEED,COIL COOLING DX SINGLE SPEED 4 344KBTU/HR 8.21EER,Inlet,1
 Non-Parent Node Connection,NODE 80,COIL:COOLING:DX:SINGLESPEED,COIL COOLING DX SINGLE SPEED 4 344KBTU/HR 8.21EER,Outlet,1
 Non-Parent Node Connection,NODE 159,COIL:COOLING:DX:SINGLESPEED,COIL COOLING DX SINGLE SPEED 10 394KBTU/HR 8.21EER,Inlet,1
 Non-Parent Node Connection,NODE 158,COIL:COOLING:DX:SINGLESPEED,COIL COOLING DX SINGLE SPEED 10 394KBTU/HR 8.21EER,Outlet,1
 Non-Parent Node Connection,NODE 211,COIL:HEATING:FUEL,COIL HEATING GAS 12,Inlet,1
 Non-Parent Node Connection,NODE 210,COIL:HEATING:FUEL,COIL HEATING GAS 12,Outlet,1
 Non-Parent Node Connection,NODE 210,COIL:HEATING:FUEL,COIL HEATING GAS 12,Sensor,1
 Non-Parent Node Connection,NODE 254,COIL:HEATING:FUEL,COIL HEATING GAS 13,Inlet,1
 Non-Parent Node Connection,NODE 253,COIL:HEATING:FUEL,COIL HEATING GAS 13,Outlet,1
 Non-Parent Node Connection,NODE 253,COIL:HEATING:FUEL,COIL HEATING GAS 13,Sensor,1
 Non-Parent Node Connection,NODE 297,COIL:HEATING:FUEL,COIL HEATING GAS 14,Inlet,1
 Non-Parent Node Connection,NODE 296,COIL:HEATING:FUEL,COIL HEATING GAS 14,Outlet,1
 Non-Parent Node Connection,NODE 296,COIL:HEATING:FUEL,COIL HEATING GAS 14,Sensor,1
 Non-Parent Node Connection,NODE 340,COIL:HEATING:FUEL,COIL HEATING GAS 15,Inlet,1
 Non-Parent Node Connection,NODE 339,COIL:HEATING:FUEL,COIL HEATING GAS 15,Outlet,1
 Non-Parent Node Connection,NODE 339,COIL:HEATING:FUEL,COIL HEATING GAS 15,Sensor,1
 Non-Parent Node Connection,NODE 382,COIL:HEATING:FUEL,COIL HEATING GAS 18,Inlet,1
 Non-Parent Node Connection,NODE 381,COIL:HEATING:FUEL,COIL HEATING GAS 18,Outlet,1
 Non-Parent Node Connection,NODE 381,COIL:HEATING:FUEL,COIL HEATING GAS 18,Sensor,1
 Non-Parent Node Connection,NODE 369,COIL:HEATING:FUEL,COIL HEATING GAS 17,Inlet,1
 Non-Parent Node Connection,NODE 368,COIL:HEATING:FUEL,COIL HEATING GAS 17,Outlet,1
 Non-Parent Node Connection,NODE 368,COIL:HEATING:FUEL,COIL HEATING GAS 17,Sensor,1
 Non-Parent Node Connection,NODE 356,COIL:HEATING:FUEL,COIL HEATING GAS 16,Inlet,1
 Non-Parent Node Connection,NODE 355,COIL:HEATING:FUEL,COIL HEATING GAS 16,Outlet,1
 Non-Parent Node Connection,NODE 355,COIL:HEATING:FUEL,COIL HEATING GAS 16,Sensor,1
 Non-Parent Node Connection,NODE 33,COIL:HEATING:FUEL,COIL HEATING GAS 1,Inlet,1
 Non-Parent Node Connection,NODE 32,COIL:HEATING:FUEL,COIL HEATING GAS 1,Outlet,1
 Non-Parent Node Connection,NODE 32,COIL:HEATING:FUEL,COIL HEATING GAS 1,Sensor,1
 Non-Parent Node Connection,NODE 67,COIL:HEATING:FUEL,COIL HEATING GAS 3,Inlet,1
 Non-Parent Node Connection,NODE 66,COIL:HEATING:FUEL,COIL HEATING GAS 3,Outlet,1
 Non-Parent Node Connection,NODE 66,COIL:HEATING:FUEL,COIL HEATING GAS 3,Sensor,1
 Non-Parent Node Connection,NODE 51,COIL:HEATING:FUEL,COIL HEATING GAS 2,Inlet,1
 Non-Parent Node Connection,NODE 50,COIL:HEATING:FUEL,COIL HEATING GAS 2,Outlet,1
 Non-Parent Node Connection,NODE 50,COIL:HEATING:FUEL,COIL HEATING GAS 2,Sensor,1
 Non-Parent Node Connection,NODE 119,COIL:HEATING:FUEL,COIL HEATING GAS 7,Inlet,1
 Non-Parent Node Connection,NODE 118,COIL:HEATING:FUEL,COIL HEATING GAS 7,Outlet,1
 Non-Parent Node Connection,NODE 118,COIL:HEATING:FUEL,COIL HEATING GAS 7,Sensor,1
 Non-Parent Node Connection,NODE 132,COIL:HEATING:FUEL,COIL HEATING GAS 8,Inlet,1
 Non-Parent Node Connection,NODE 131,COIL:HEATING:FUEL,COIL HEATING GAS 8,Outlet,1
 Non-Parent Node Connection,NODE 131,COIL:HEATING:FUEL,COIL HEATING GAS 8,Sensor,1
 Non-Parent Node Connection,NODE 145,COIL:HEATING:FUEL,COIL HEATING GAS 9,Inlet,1
 Non-Parent Node Connection,NODE 144,COIL:HEATING:FUEL,COIL HEATING GAS 9,Outlet,1
 Non-Parent Node Connection,NODE 144,COIL:HEATING:FUEL,COIL HEATING GAS 9,Sensor,1
 Non-Parent Node Connection,NODE 93,COIL:HEATING:FUEL,COIL HEATING GAS 5,Inlet,1
 Non-Parent Node Connection,NODE 92,COIL:HEATING:FUEL,COIL HEATING GAS 5,Outlet,1
 Non-Parent Node Connection,NODE 92,COIL:HEATING:FUEL,COIL HEATING GAS 5,Sensor,1
 Non-Parent Node Connection,NODE 171,COIL:HEATING:FUEL,COIL HEATING GAS 11,Inlet,1
 Non-Parent Node Connection,NODE 170,COIL:HEATING:FUEL,COIL HEATING GAS 11,Outlet,1
 Non-Parent Node Connection,NODE 170,COIL:HEATING:FUEL,COIL HEATING GAS 11,Sensor,1
 Non-Parent Node Connection,NODE 106,COIL:HEATING:FUEL,COIL HEATING GAS 6,Inlet,1
 Non-Parent Node Connection,NODE 105,COIL:HEATING:FUEL,COIL HEATING GAS 6,Outlet,1
 Non-Parent Node Connection,NODE 105,COIL:HEATING:FUEL,COIL HEATING GAS 6,Sensor,1
 Non-Parent Node Connection,NODE 80,COIL:HEATING:FUEL,COIL HEATING GAS 4,Inlet,1
 Non-Parent Node Connection,NODE 79,COIL:HEATING:FUEL,COIL HEATING GAS 4,Outlet,1
 Non-Parent Node Connection,NODE 79,COIL:HEATING:FUEL,COIL HEATING GAS 4,Sensor,1
 Non-Parent Node Connection,NODE 158,COIL:HEATING:FUEL,COIL HEATING GAS 10,Inlet,1
 Non-Parent Node Connection,NODE 157,COIL:HEATING:FUEL,COIL HEATING GAS 10,Outlet,1
 Non-Parent Node Connection,NODE 157,COIL:HEATING:FUEL,COIL HEATING GAS 10,Sensor,1
 Non-Parent Node Connection,NODE 353,HEATEXCHANGER:AIRTOAIR:SENSIBLEANDLATENT,SYS_3_PSZ ALL_ST=WORKSHOP SPACE_FL=STORY 1_SCH=A ERV,Inlet,1
 Non-Parent Node Connection,NODE 498,HEATEXCHANGER:AIRTOAIR:SENSIBLEANDLATENT,SYS_3_PSZ ALL_ST=WORKSHOP SPACE_FL=STORY 1_SCH=A ERV,Outlet,1
 Non-Parent Node Connection,NODE 499,HEATEXCHANGER:AIRTOAIR:SENSIBLEANDLATENT,SYS_3_PSZ ALL_ST=WORKSHOP SPACE_FL=STORY 1_SCH=A ERV,Inlet,2
 Non-Parent Node Connection,NODE 354,HEATEXCHANGER:AIRTOAIR:SENSIBLEANDLATENT,SYS_3_PSZ ALL_ST=WORKSHOP SPACE_FL=STORY 1_SCH=A ERV,Outlet,2
 Non-Parent Node Connection,NODE 116,HEATEXCHANGER:AIRTOAIR:SENSIBLEANDLATENT,SYS_4_PSZ_ALL_ST=WHOLEBUILDING_FL=STORY 1_SCH=E ERV,Inlet,1
 Non-Parent Node Connection,NODE 500,HEATEXCHANGER:AIRTOAIR:SENSIBLEANDLATENT,SYS_4_PSZ_ALL_ST=WHOLEBUILDING_FL=STORY 1_SCH=E ERV,Outlet,1
 Non-Parent Node Connection,NODE 501,HEATEXCHANGER:AIRTOAIR:SENSIBLEANDLATENT,SYS_4_PSZ_ALL_ST=WHOLEBUILDING_FL=STORY 1_SCH=E ERV,Inlet,2
 Non-Parent Node Connection,NODE 117,HEATEXCHANGER:AIRTOAIR:SENSIBLEANDLATENT,SYS_4_PSZ_ALL_ST=WHOLEBUILDING_FL=STORY 1_SCH=E ERV,Outlet,2
 Non-Parent Node Connection,NODE 129,HEATEXCHANGER:AIRTOAIR:SENSIBLEANDLATENT,SYS_4_PSZ_ALL_ST=WHOLEBUILDING_FL=STORY 1_SCH=E 1 ERV,Inlet,1
 Non-Parent Node Connection,NODE 502,HEATEXCHANGER:AIRTOAIR:SENSIBLEANDLATENT,SYS_4_PSZ_ALL_ST=WHOLEBUILDING_FL=STORY 1_SCH=E 1 ERV,Outlet,1
 Non-Parent Node Connection,NODE 503,HEATEXCHANGER:AIRTOAIR:SENSIBLEANDLATENT,SYS_4_PSZ_ALL_ST=WHOLEBUILDING_FL=STORY 1_SCH=E 1 ERV,Inlet,2
 Non-Parent Node Connection,NODE 130,HEATEXCHANGER:AIRTOAIR:SENSIBLEANDLATENT,SYS_4_PSZ_ALL_ST=WHOLEBUILDING_FL=STORY 1_SCH=E 1 ERV,Outlet,2
 Non-Parent Node Connection,NODE 142,HEATEXCHANGER:AIRTOAIR:SENSIBLEANDLATENT,SYS_4_PSZ_ALL_ST=WHOLEBUILDING_FL=STORY 1_SCH=E 2 ERV,Inlet,1
 Non-Parent Node Connection,NODE 504,HEATEXCHANGER:AIRTOAIR:SENSIBLEANDLATENT,SYS_4_PSZ_ALL_ST=WHOLEBUILDING_FL=STORY 1_SCH=E 2 ERV,Outlet,1
 Non-Parent Node Connection,NODE 505,HEATEXCHANGER:AIRTOAIR:SENSIBLEANDLATENT,SYS_4_PSZ_ALL_ST=WHOLEBUILDING_FL=STORY 1_SCH=E 2 ERV,Inlet,2
 Non-Parent Node Connection,NODE 143,HEATEXCHANGER:AIRTOAIR:SENSIBLEANDLATENT,SYS_4_PSZ_ALL_ST=WHOLEBUILDING_FL=STORY 1_SCH=E 2 ERV,Outlet,2
 Non-Parent Node Connection,NODE 90,HEATEXCHANGER:AIRTOAIR:SENSIBLEANDLATENT,SYS_4_PSZ_ALL_ST=WHOLEBUILDING_FL=STORY 2_SCH=E ERV,Inlet,1
 Non-Parent Node Connection,NODE 506,HEATEXCHANGER:AIRTOAIR:SENSIBLEANDLATENT,SYS_4_PSZ_ALL_ST=WHOLEBUILDING_FL=STORY 2_SCH=E ERV,Outlet,1
 Non-Parent Node Connection,NODE 507,HEATEXCHANGER:AIRTOAIR:SENSIBLEANDLATENT,SYS_4_PSZ_ALL_ST=WHOLEBUILDING_FL=STORY 2_SCH=E ERV,Inlet,2
 Non-Parent Node Connection,NODE 91,HEATEXCHANGER:AIRTOAIR:SENSIBLEANDLATENT,SYS_4_PSZ_ALL_ST=WHOLEBUILDING_FL=STORY 2_SCH=E ERV,Outlet,2
 Non-Parent Node Connection,NODE 168,HEATEXCHANGER:AIRTOAIR:SENSIBLEANDLATENT,SYS_4_PSZ_ALL_ST=WHOLEBUILDING_FL=STORY 2_SCH=E 1 ERV,Inlet,1
 Non-Parent Node Connection,NODE 508,HEATEXCHANGER:AIRTOAIR:SENSIBLEANDLATENT,SYS_4_PSZ_ALL_ST=WHOLEBUILDING_FL=STORY 2_SCH=E 1 ERV,Outlet,1
 Non-Parent Node Connection,NODE 509,HEATEXCHANGER:AIRTOAIR:SENSIBLEANDLATENT,SYS_4_PSZ_ALL_ST=WHOLEBUILDING_FL=STORY 2_SCH=E 1 ERV,Inlet,2
 Non-Parent Node Connection,NODE 169,HEATEXCHANGER:AIRTOAIR:SENSIBLEANDLATENT,SYS_4_PSZ_ALL_ST=WHOLEBUILDING_FL=STORY 2_SCH=E 1 ERV,Outlet,2
 Non-Parent Node Connection,NODE 103,HEATEXCHANGER:AIRTOAIR:SENSIBLEANDLATENT,SYS_4_PSZ_ALL_ST=WHOLEBUILDING_FL=STORY 3_SCH=E ERV,Inlet,1
 Non-Parent Node Connection,NODE 510,HEATEXCHANGER:AIRTOAIR:SENSIBLEANDLATENT,SYS_4_PSZ_ALL_ST=WHOLEBUILDING_FL=STORY 3_SCH=E ERV,Outlet,1
 Non-Parent Node Connection,NODE 511,HEATEXCHANGER:AIRTOAIR:SENSIBLEANDLATENT,SYS_4_PSZ_ALL_ST=WHOLEBUILDING_FL=STORY 3_SCH=E ERV,Inlet,2
 Non-Parent Node Connection,NODE 104,HEATEXCHANGER:AIRTOAIR:SENSIBLEANDLATENT,SYS_4_PSZ_ALL_ST=WHOLEBUILDING_FL=STORY 3_SCH=E ERV,Outlet,2
 Non-Parent Node Connection,NODE 155,HEATEXCHANGER:AIRTOAIR:SENSIBLEANDLATENT,SYS_4_PSZ_ALL_ST=WHOLEBUILDING_FL=STORY 4_SCH=E ERV,Inlet,1
 Non-Parent Node Connection,NODE 512,HEATEXCHANGER:AIRTOAIR:SENSIBLEANDLATENT,SYS_4_PSZ_ALL_ST=WHOLEBUILDING_FL=STORY 4_SCH=E ERV,Outlet,1
 Non-Parent Node Connection,NODE 513,HEATEXCHANGER:AIRTOAIR:SENSIBLEANDLATENT,SYS_4_PSZ_ALL_ST=WHOLEBUILDING_FL=STORY 4_SCH=E ERV,Inlet,2
 Non-Parent Node Connection,NODE 156,HEATEXCHANGER:AIRTOAIR:SENSIBLEANDLATENT,SYS_4_PSZ_ALL_ST=WHOLEBUILDING_FL=STORY 4_SCH=E ERV,Outlet,2
 Non-Parent Node Connection,NODE 178,CHILLER:ELECTRIC:EIR,PRIMARY CHILLER WATERCOOLED SCROLL 14TONS 0.8KW/TON,Inlet,1
 Non-Parent Node Connection,NODE 183,CHILLER:ELECTRIC:EIR,PRIMARY CHILLER WATERCOOLED SCROLL 14TONS 0.8KW/TON,Outlet,1
 Non-Parent Node Connection,NODE 194,CHILLER:ELECTRIC:EIR,PRIMARY CHILLER WATERCOOLED SCROLL 14TONS 0.8KW/TON,Inlet,2
 Non-Parent Node Connection,NODE 200,CHILLER:ELECTRIC:EIR,PRIMARY CHILLER WATERCOOLED SCROLL 14TONS 0.8KW/TON,Outlet,2
 Non-Parent Node Connection,NODE 184,CHILLER:ELECTRIC:EIR,SECONDARY CHILLER WATERCOOLED SCROLL 0TONS 0.8KW/TON,Inlet,1
 Non-Parent Node Connection,NODE 185,CHILLER:ELECTRIC:EIR,SECONDARY CHILLER WATERCOOLED SCROLL 0TONS 0.8KW/TON,Outlet,1
 Non-Parent Node Connection,NODE 201,CHILLER:ELECTRIC:EIR,SECONDARY CHILLER WATERCOOLED SCROLL 0TONS 0.8KW/TON,Inlet,2
 Non-Parent Node Connection,NODE 202,CHILLER:ELECTRIC:EIR,SECONDARY CHILLER WATERCOOLED SCROLL 0TONS 0.8KW/TON,Outlet,2
 Non-Parent Node Connection,NODE 221,CHILLER:ELECTRIC:EIR,PRIMARY CHILLER WATERCOOLED SCROLL 1 7TONS 0.8KW/TON,Inlet,1
 Non-Parent Node Connection,NODE 226,CHILLER:ELECTRIC:EIR,PRIMARY CHILLER WATERCOOLED SCROLL 1 7TONS 0.8KW/TON,Outlet,1
 Non-Parent Node Connection,NODE 237,CHILLER:ELECTRIC:EIR,PRIMARY CHILLER WATERCOOLED SCROLL 1 7TONS 0.8KW/TON,Inlet,2
 Non-Parent Node Connection,NODE 243,CHILLER:ELECTRIC:EIR,PRIMARY CHILLER WATERCOOLED SCROLL 1 7TONS 0.8KW/TON,Outlet,2
 Non-Parent Node Connection,NODE 227,CHILLER:ELECTRIC:EIR,SECONDARY CHILLER WATERCOOLED SCROLL 1 0TONS 0.8KW/TON,Inlet,1
 Non-Parent Node Connection,NODE 228,CHILLER:ELECTRIC:EIR,SECONDARY CHILLER WATERCOOLED SCROLL 1 0TONS 0.8KW/TON,Outlet,1
 Non-Parent Node Connection,NODE 244,CHILLER:ELECTRIC:EIR,SECONDARY CHILLER WATERCOOLED SCROLL 1 0TONS 0.8KW/TON,Inlet,2
 Non-Parent Node Connection,NODE 245,CHILLER:ELECTRIC:EIR,SECONDARY CHILLER WATERCOOLED SCROLL 1 0TONS 0.8KW/TON,Outlet,2
 Non-Parent Node Connection,NODE 264,CHILLER:ELECTRIC:EIR,PRIMARY CHILLER WATERCOOLED SCROLL 2 22TONS 0.8KW/TON,Inlet,1
 Non-Parent Node Connection,NODE 269,CHILLER:ELECTRIC:EIR,PRIMARY CHILLER WATERCOOLED SCROLL 2 22TONS 0.8KW/TON,Outlet,1
 Non-Parent Node Connection,NODE 280,CHILLER:ELECTRIC:EIR,PRIMARY CHILLER WATERCOOLED SCROLL 2 22TONS 0.8KW/TON,Inlet,2
 Non-Parent Node Connection,NODE 286,CHILLER:ELECTRIC:EIR,PRIMARY CHILLER WATERCOOLED SCROLL 2 22TONS 0.8KW/TON,Outlet,2
 Non-Parent Node Connection,NODE 270,CHILLER:ELECTRIC:EIR,SECONDARY CHILLER WATERCOOLED SCROLL 2 0TONS 0.8KW/TON,Inlet,1
 Non-Parent Node Connection,NODE 271,CHILLER:ELECTRIC:EIR,SECONDARY CHILLER WATERCOOLED SCROLL 2 0TONS 0.8KW/TON,Outlet,1
 Non-Parent Node Connection,NODE 287,CHILLER:ELECTRIC:EIR,SECONDARY CHILLER WATERCOOLED SCROLL 2 0TONS 0.8KW/TON,Inlet,2
 Non-Parent Node Connection,NODE 288,CHILLER:ELECTRIC:EIR,SECONDARY CHILLER WATERCOOLED SCROLL 2 0TONS 0.8KW/TON,Outlet,2
 Non-Parent Node Connection,NODE 307,CHILLER:ELECTRIC:EIR,PRIMARY CHILLER WATERCOOLED SCROLL 3 9TONS 0.8KW/TON,Inlet,1
 Non-Parent Node Connection,NODE 312,CHILLER:ELECTRIC:EIR,PRIMARY CHILLER WATERCOOLED SCROLL 3 9TONS 0.8KW/TON,Outlet,1
 Non-Parent Node Connection,NODE 323,CHILLER:ELECTRIC:EIR,PRIMARY CHILLER WATERCOOLED SCROLL 3 9TONS 0.8KW/TON,Inlet,2
 Non-Parent Node Connection,NODE 329,CHILLER:ELECTRIC:EIR,PRIMARY CHILLER WATERCOOLED SCROLL 3 9TONS 0.8KW/TON,Outlet,2
 Non-Parent Node Connection,NODE 313,CHILLER:ELECTRIC:EIR,SECONDARY CHILLER WATERCOOLED SCROLL 3 0TONS 0.8KW/TON,Inlet,1
 Non-Parent Node Connection,NODE 314,CHILLER:ELECTRIC:EIR,SECONDARY CHILLER WATERCOOLED SCROLL 3 0TONS 0.8KW/TON,Outlet,1
 Non-Parent Node Connection,NODE 330,CHILLER:ELECTRIC:EIR,SECONDARY CHILLER WATERCOOLED SCROLL 3 0TONS 0.8KW/TON,Inlet,2
 Non-Parent Node Connection,NODE 331,CHILLER:ELECTRIC:EIR,SECONDARY CHILLER WATERCOOLED SCROLL 3 0TONS 0.8KW/TON,Outlet,2
 Non-Parent Node Connection,NODE 389,CHILLER:ELECTRIC:EIR,PRIMARY CHILLER WATERCOOLED SCROLL 4 36TONS 0.8KW/TON,Inlet,1
 Non-Parent Node Connection,NODE 394,CHILLER:ELECTRIC:EIR,PRIMARY CHILLER WATERCOOLED SCROLL 4 36TONS 0.8KW/TON,Outlet,1
 Non-Parent Node Connection,NODE 405,CHILLER:ELECTRIC:EIR,PRIMARY CHILLER WATERCOOLED SCROLL 4 36TONS 0.8KW/TON,Inlet,2
 Non-Parent Node Connection,NODE 411,CHILLER:ELECTRIC:EIR,PRIMARY CHILLER WATERCOOLED SCROLL 4 36TONS 0.8KW/TON,Outlet,2
 Non-Parent Node Connection,NODE 395,CHILLER:ELECTRIC:EIR,SECONDARY CHILLER WATERCOOLED SCROLL 4 0TONS 0.8KW/TON,Inlet,1
 Non-Parent Node Connection,NODE 396,CHILLER:ELECTRIC:EIR,SECONDARY CHILLER WATERCOOLED SCROLL 4 0TONS 0.8KW/TON,Outlet,1
 Non-Parent Node Connection,NODE 412,CHILLER:ELECTRIC:EIR,SECONDARY CHILLER WATERCOOLED SCROLL 4 0TONS 0.8KW/TON,Inlet,2
 Non-Parent Node Connection,NODE 413,CHILLER:ELECTRIC:EIR,SECONDARY CHILLER WATERCOOLED SCROLL 4 0TONS 0.8KW/TON,Outlet,2
 Non-Parent Node Connection,NODE 191,COOLINGTOWER:SINGLESPEED,COOLING TOWER SINGLE SPEED 1,Inlet,1
 Non-Parent Node Connection,NODE 196,COOLINGTOWER:SINGLESPEED,COOLING TOWER SINGLE SPEED 1,Outlet,1
 Non-Parent Node Connection,NODE 234,COOLINGTOWER:SINGLESPEED,COOLING TOWER SINGLE SPEED 2,Inlet,1
 Non-Parent Node Connection,NODE 239,COOLINGTOWER:SINGLESPEED,COOLING TOWER SINGLE SPEED 2,Outlet,1
 Non-Parent Node Connection,NODE 277,COOLINGTOWER:SINGLESPEED,COOLING TOWER SINGLE SPEED 3,Inlet,1
 Non-Parent Node Connection,NODE 282,COOLINGTOWER:SINGLESPEED,COOLING TOWER SINGLE SPEED 3,Outlet,1
 Non-Parent Node Connection,NODE 320,COOLINGTOWER:SINGLESPEED,COOLING TOWER SINGLE SPEED 4,Inlet,1
 Non-Parent Node Connection,NODE 325,COOLINGTOWER:SINGLESPEED,COOLING TOWER SINGLE SPEED 4,Outlet,1
 Non-Parent Node Connection,NODE 402,COOLINGTOWER:SINGLESPEED,COOLING TOWER SINGLE SPEED 5,Inlet,1
 Non-Parent Node Connection,NODE 407,COOLINGTOWER:SINGLESPEED,COOLING TOWER SINGLE SPEED 5,Outlet,1
 Non-Parent Node Connection,NODE 5,BOILER:HOTWATER,PRIMARY BOILER 3034KBTU/HR 0.833 COMBUSTION EFF,Inlet,1
 Non-Parent Node Connection,NODE 12,BOILER:HOTWATER,PRIMARY BOILER 3034KBTU/HR 0.833 COMBUSTION EFF,Outlet,1
 Non-Parent Node Connection,NODE 14,BOILER:HOTWATER,SECONDARY BOILER 0KBTU/HR 0.85 AFUE,Inlet,1
 Non-Parent Node Connection,NODE 15,BOILER:HOTWATER,SECONDARY BOILER 0KBTU/HR 0.85 AFUE,Outlet,1
 Non-Parent Node Connection,NODE 2,PUMP:VARIABLESPEED,PUMP VARIABLE SPEED 1,Inlet,1
 Non-Parent Node Connection,NODE 11,PUMP:VARIABLESPEED,PUMP VARIABLE SPEED 1,Outlet,1
 Non-Parent Node Connection,NODE 176,PUMP:CONSTANTSPEED,PUMP CONSTANT SPEED 1,Inlet,1
 Non-Parent Node Connection,NODE 182,PUMP:CONSTANTSPEED,PUMP CONSTANT SPEED 1,Outlet,1
 Non-Parent Node Connection,NODE 219,PUMP:CONSTANTSPEED,PUMP CONSTANT SPEED 3,Inlet,1
 Non-Parent Node Connection,NODE 225,PUMP:CONSTANTSPEED,PUMP CONSTANT SPEED 3,Outlet,1
 Non-Parent Node Connection,NODE 262,PUMP:CONSTANTSPEED,PUMP CONSTANT SPEED 5,Inlet,1
 Non-Parent Node Connection,NODE 268,PUMP:CONSTANTSPEED,PUMP CONSTANT SPEED 5,Outlet,1
 Non-Parent Node Connection,NODE 305,PUMP:CONSTANTSPEED,PUMP CONSTANT SPEED 7,Inlet,1
 Non-Parent Node Connection,NODE 311,PUMP:CONSTANTSPEED,PUMP CONSTANT SPEED 7,Outlet,1
 Non-Parent Node Connection,NODE 387,PUMP:CONSTANTSPEED,PUMP CONSTANT SPEED 9,Inlet,1
 Non-Parent Node Connection,NODE 393,PUMP:CONSTANTSPEED,PUMP CONSTANT SPEED 9,Outlet,1
 Non-Parent Node Connection,NODE 189,PUMP:CONSTANTSPEED,PUMP CONSTANT SPEED 2,Inlet,1
 Non-Parent Node Connection,NODE 195,PUMP:CONSTANTSPEED,PUMP CONSTANT SPEED 2,Outlet,1
 Non-Parent Node Connection,NODE 232,PUMP:CONSTANTSPEED,PUMP CONSTANT SPEED 4,Inlet,1
 Non-Parent Node Connection,NODE 238,PUMP:CONSTANTSPEED,PUMP CONSTANT SPEED 4,Outlet,1
 Non-Parent Node Connection,NODE 275,PUMP:CONSTANTSPEED,PUMP CONSTANT SPEED 6,Inlet,1
 Non-Parent Node Connection,NODE 281,PUMP:CONSTANTSPEED,PUMP CONSTANT SPEED 6,Outlet,1
 Non-Parent Node Connection,NODE 318,PUMP:CONSTANTSPEED,PUMP CONSTANT SPEED 8,Inlet,1
 Non-Parent Node Connection,NODE 324,PUMP:CONSTANTSPEED,PUMP CONSTANT SPEED 8,Outlet,1
 Non-Parent Node Connection,NODE 400,PUMP:CONSTANTSPEED,PUMP CONSTANT SPEED 10,Inlet,1
 Non-Parent Node Connection,NODE 406,PUMP:CONSTANTSPEED,PUMP CONSTANT SPEED 10,Outlet,1
 Non-Parent Node Connection,NODE 455,PUMP:CONSTANTSPEED,SERVICE WATER LOOP PUMP,Inlet,1
 Non-Parent Node Connection,NODE 461,PUMP:CONSTANTSPEED,SERVICE WATER LOOP PUMP,Outlet,1
