Program Version,EnergyPlus, Version 8.9.0-eba93e8e1b, YMD=2019.03.28 13:39
! <Version>, Version ID
 Version, 8.9
! <Timesteps per Hour>, #TimeSteps, Minutes per TimeStep {minutes}
 Timesteps per Hour,  6, 10
! <System Convergence Limits>, Minimum System TimeStep {minutes}, Max HVAC Iterations, Minimum Plant Iterations, Maximum Plant Iterations
 System Convergence Limits, 1, 20, 2, 8
! <Simulation Control>, Do Zone Sizing, Do System Sizing, Do Plant Sizing, Do Design Days, Do Weather Simulation, Do HVAC Sizing Simulation
 Simulation Control, Yes, Yes, Yes, Yes, No, No
! <Output Reporting Tolerances>, Tolerance for Time Heating Setpoint Not Met, Tolerance for Zone Cooling Setpoint Not Met Time
 Output Reporting Tolerances, 1.000, 1.000, 
! <Site:GroundTemperature:BuildingSurface>,Jan{C},Feb{C},Mar{C},Apr{C},May{C},Jun{C},Jul{C},Aug{C},Sep{C},Oct{C},Nov{C},Dec{C}
 Site:GroundTemperature:BuildingSurface,  19.53,  19.50,  19.54,  19.60,  20.00,  21.64,  22.23,  22.38,  21.45,  20.12,  19.80,  19.63
! <Site:GroundTemperature:FCfactorMethod>,Jan{C},Feb{C},Mar{C},Apr{C},May{C},Jun{C},Jul{C},Aug{C},Sep{C},Oct{C},Nov{C},Dec{C}
 Site:GroundTemperature:FCfactorMethod, -12.27, -13.66, -11.19,  -7.33,   2.77,  10.57,  15.83,  17.43,  14.70,   8.65,   0.56,  -6.95
! <Site:GroundTemperature:Shallow>,Jan{C},Feb{C},Mar{C},Apr{C},May{C},Jun{C},Jul{C},Aug{C},Sep{C},Oct{C},Nov{C},Dec{C}
 Site:GroundTemperature:Shallow,  13.00,  13.00,  13.00,  13.00,  13.00,  13.00,  13.00,  13.00,  13.00,  13.00,  13.00,  13.00
! <Site:GroundTemperature:Deep>,Jan{C},Feb{C},Mar{C},Apr{C},May{C},Jun{C},Jul{C},Aug{C},Sep{C},Oct{C},Nov{C},Dec{C}
 Site:GroundTemperature:Deep,  16.00,  16.00,  16.00,  16.00,  16.00,  16.00,  16.00,  16.00,  16.00,  16.00,  16.00,  16.00
! <Site:GroundReflectance>,Jan{dimensionless},Feb{dimensionless},Mar{dimensionless},Apr{dimensionless},May{dimensionless},Jun{dimensionless},Jul{dimensionless},Aug{dimensionless},Sep{dimensionless},Oct{dimensionless},Nov{dimensionless},Dec{dimensionless}
 Site:GroundReflectance,  0.20,  0.20,  0.20,  0.20,  0.20,  0.20,  0.20,  0.20,  0.20,  0.20,  0.20,  0.20
! <Site:GroundReflectance:SnowModifier>, Normal, Daylighting {dimensionless}
 Site:GroundReflectance:SnowModifier,   1.000,   1.000
! <Site:GroundReflectance:Snow>,Jan{dimensionless},Feb{dimensionless},Mar{dimensionless},Apr{dimensionless},May{dimensionless},Jun{dimensionless},Jul{dimensionless},Aug{dimensionless},Sep{dimensionless},Oct{dimensionless},Nov{dimensionless},Dec{dimensionless}
 Site:GroundReflectance:Snow,  0.20,  0.20,  0.20,  0.20,  0.20,  0.20,  0.20,  0.20,  0.20,  0.20,  0.20,  0.20
! <Site:GroundReflectance:Snow:Daylighting>,Jan{dimensionless},Feb{dimensionless},Mar{dimensionless},Apr{dimensionless},May{dimensionless},Jun{dimensionless},Jul{dimensionless},Aug{dimensionless},Sep{dimensionless},Oct{dimensionless},Nov{dimensionless},Dec{dimensionless}
 Site:GroundReflectance:Snow:Daylighting,  0.20,  0.20,  0.20,  0.20,  0.20,  0.20,  0.20,  0.20,  0.20,  0.20,  0.20,  0.20
! <Environment:Weather Station>,Wind Sensor Height Above Ground {m},Wind Speed Profile Exponent {},Wind Speed Profile Boundary Layer Thickness {m},Air Temperature Sensor Height Above Ground {m},Wind Speed Modifier Coefficient-Internal,Temperature Modifier Coefficient-Internal
Environment:Weather Station,10.000,0.140,270.000,1.500,1.586,9.750E-003
! <Site:Location>, Location Name, Latitude {N+/S- Deg}, Longitude {E+/W- Deg},  Time Zone Number {GMT+/-}, Elevation {m},  Standard Pressure at Elevation {Pa}, Standard RhoAir at Elevation
Site:Location,Fort McMurray AP AB CAN CWEC2016 WMO#=716890,56.65,-111.22,-7.00,369.10,96969,1.1525
! <Building Information>, Building Name,North Axis {deg},Terrain,  Loads Convergence Tolerance Value,Temperature Convergence Tolerance Value,  Solar Distribution,Maximum Number of Warmup Days,Minimum Number of Warmup Days
 Building Information,Building 1,0.000,Suburbs,4.00000E-002,0.40000,FullExterior,25,6
! <Inside Convection Algorithm>, Algorithm {Simple | TARP | CeilingDiffuser | AdaptiveConvectionAlgorithm}
Inside Convection Algorithm,TARP
! <Outside Convection Algorithm>, Algorithm {SimpleCombined | TARP | MoWitt | DOE-2 | AdaptiveConvectionAlgorithm}
Outside Convection Algorithm,TARP
! <Sky Radiance Distribution>, Value {Anisotropic}
Sky Radiance Distribution,Anisotropic
! <Zone Air Solution Algorithm>, Value {ThirdOrderBackwardDifference | AnalyticalSolution | EulerMethod}
 Zone Air Solution Algorithm, ThirdOrderBackwardDifference
! <Zone Air Carbon Dioxide Balance Simulation>, Simulation {Yes/No}, Carbon Dioxide Concentration
 Zone Air Carbon Dioxide Balance Simulation, No,N/A
! <Zone Air Generic Contaminant Balance Simulation>, Simulation {Yes/No}, Generic Contaminant Concentration
 Zone Air Generic Contaminant Balance Simulation, No,N/A
! <Zone Air Mass Flow Balance Simulation>, Enforce Mass Balance, Adjust Zone Mixing, Adjust Zone Infiltration {AddInfiltration | AdjustInfiltration | None}, Infiltration Zones {MixingSourceZonesOnly | AllZones}
 Zone Air Mass Flow Balance Simulation, No,N/A,N/A,N/A
! <HVACSystemRootFindingAlgorithm>, Value {RegulaFalsi | Bisection | BisectionThenRegulaFalsi | RegulaFalsiThenBisection}
 HVACSystemRootFindingAlgorithm, RegulaFalsi
! <Environment:Site Atmospheric Variation>,Wind Speed Profile Exponent {},Wind Speed Profile Boundary Layer Thickness {m},Air Temperature Gradient Coefficient {K/m}
Environment:Site Atmospheric Variation,0.220,370.000,6.500000E-003
! <Surface Geometry>,Starting Corner,Vertex Input Direction,Coordinate System,Daylight Reference Point Coordinate System,Rectangular (Simple) Surface Coordinate System
 Surface Geometry,UpperLeftCorner,Counterclockwise,RelativeCoordinateSystem,RelativeCoordinateSystem,RelativeToZoneOrigin
! <Surface Heat Transfer Algorithm>, Value {CTF - ConductionTransferFunction | EMPD - MoisturePenetrationDepthConductionTransferFunction | CondFD - ConductionFiniteDifference | HAMT - CombinedHeatAndMoistureFiniteElement} - Description,Inside Surface Max Temperature Limit{C}, Surface Convection Coefficient Lower Limit {W/m2-K}, Surface Convection Coefficient Upper Limit {W/m2-K}
Surface Heat Transfer Algorithm, CTF - ConductionTransferFunction,200,0.10,1000.0
! <Shading Summary>, Number of Fixed Detached Shades, Number of Building Detached Shades, Number of Attached Shades
 Shading Summary,0,0,0
! <Zone Summary>, Number of Zones, Number of Zone Surfaces, Number of SubSurfaces
 Zone Summary,20,135,15
! <Zone Information>,Zone Name,North Axis {deg},Origin X-Coordinate {m},Origin Y-Coordinate {m},Origin Z-Coordinate {m},Centroid X-Coordinate {m},Centroid Y-Coordinate {m},Centroid Z-Coordinate {m},Type,Zone Multiplier,Zone List Multiplier,Minimum X {m},Maximum X {m},Minimum Y {m},Maximum Y {m},Minimum Z {m},Maximum Z {m},Ceiling Height {m},Volume {m3},Zone Inside Convection Algorithm {Simple-Detailed-CeilingDiffuser-TrombeWall},Zone Outside Convection Algorithm {Simple-Detailed-Tarp-MoWitt-DOE-2-BLAST}, Floor Area {m2},Exterior Gross Wall Area {m2},Exterior Net Wall Area {m2},Exterior Window Area {m2}, Number of Surfaces, Number of SubSurfaces, Number of Shading SubSurfaces,  Part of Total Building Area
 Zone Information, SP-ATRIUM (6 =< HEIGHT <= 12M)-SCH-A-SPACE FUNCTION SYS-6 FLR-1 SCH-A HPLCMT-EAST ZN,0.0,75.00,25.00,0.00,89.15,50.00,1.90,1,1,1,75.00,100.00,0.00,100.00,0.00,3.80,3.80,7125.00,TARP,TARP,1875.00,0.00,0.00,0.00,6,0,0,Yes
 Zone Information, SP-ATRIUM (6 =< HEIGHT <= 12M)-SCH-B-SPACE FUNCTION SYS-6 FLR-2 SCH-B HPLCMT-WEST ZN,0.0,0.00,0.00,3.80,10.85,50.00,5.70,1,1,1,0.00,25.00,0.00,100.00,3.80,7.60,3.80,7125.00,TARP,TARP,1875.00,380.00,285.00,95.00,6,1,0,Yes
 Zone Information, SP-ATRIUM (6 =< HEIGHT <= 12M)-SCH-C-SPACE FUNCTION SYS-6 FLR-3 SCH-C HPLCMT-WEST ZN,0.0,0.00,0.00,7.60,10.85,50.00,9.50,1,1,1,0.00,25.00,0.00,100.00,7.60,11.40,3.80,7125.00,TARP,TARP,1875.00,380.00,285.00,95.00,6,1,0,Yes
 Zone Information, SP-ATRIUM (6 =< HEIGHT <= 12M)-SCH-D-SPACE FUNCTION SYS-6 FLR-1 SCH-D HPLCMT-CORE ZN,0.0,25.00,25.00,0.00,50.00,50.00,1.90,1,1,1,25.00,75.00,25.00,75.00,0.00,3.80,3.80,9500.00,TARP,TARP,2500.00,0.00,0.00,0.00,6,0,0,Yes
 Zone Information, SP-ATRIUM (6 =< HEIGHT <= 12M)-SCH-E-SPACE FUNCTION SYS-6 FLR-2 SCH-E HPLCMT-NORTH ZN,0.0,25.00,75.00,3.80,50.00,89.15,5.70,1,1,1,0.00,100.00,75.00,100.00,3.80,7.60,3.80,7125.00,TARP,TARP,1875.00,380.00,285.00,95.00,6,1,0,Yes
 Zone Information, SP-ATRIUM (6 =< HEIGHT <= 12M)-SCH-F-SPACE FUNCTION SYS-6 FLR-2 SCH-F HPLCMT-EAST ZN,0.0,75.00,25.00,3.80,89.15,50.00,5.70,1,1,1,75.00,100.00,0.00,100.00,3.80,7.60,3.80,7125.00,TARP,TARP,1875.00,380.00,285.00,95.00,6,1,0,Yes
 Zone Information, SP-WHOLEBUILDING-OFFICE SYS-6 FLR-4 SCH-A HPLCMT-SOUTH ZN,0.0,0.00,0.00,11.40,50.00,10.85,13.30,1,1,1,0.00,100.00,0.00,25.00,11.40,15.20,3.80,7125.00,TARP,TARP,1875.00,380.00,285.00,188.75,6,2,0,Yes
 Zone Information, SP-WHOLEBUILDING-PENITENTIARY SYS-3 FLR-3 SCH-H HPLCMT-CORE ZN,0.0,25.00,25.00,7.60,50.00,50.00,9.50,1,1,1,25.00,75.00,25.00,75.00,7.60,11.40,3.80,9500.00,TARP,TARP,2500.00,0.00,0.00,0.00,6,0,0,Yes
 Zone Information, SP-WHOLEBUILDING-PERFORMING ARTS THEATRE SYS-3 FLR-3 SCH-C HPLCMT-EAST ZN,0.0,75.00,25.00,7.60,89.15,50.00,9.50,1,1,1,75.00,100.00,0.00,100.00,7.60,11.40,3.80,7125.00,TARP,TARP,1875.00,380.00,285.00,95.00,6,1,0,Yes
 Zone Information, SP-WHOLEBUILDING-POLICE STATION SYS-3 FLR-3 SCH-H HPLCMT-NORTH ZN,0.0,25.00,75.00,7.60,50.00,89.15,9.50,1,1,1,0.00,100.00,75.00,100.00,7.60,11.40,3.80,7125.00,TARP,TARP,1875.00,380.00,285.00,95.00,6,1,0,Yes
 Zone Information, SP-WHOLEBUILDING-POST OFFICE SYS-6 FLR-1 SCH-A HPLCMT-WEST ZN,0.0,0.00,0.00,0.00,10.85,50.00,1.90,1,1,1,0.00,25.00,0.00,100.00,0.00,3.80,3.80,7125.00,TARP,TARP,1875.00,0.00,0.00,0.00,6,0,0,Yes
 Zone Information, SP-WHOLEBUILDING-RELIGIOUS BUILDING SYS-3 FLR-4 SCH-I HPLCMT-CORE ZN,0.0,25.00,25.00,11.40,50.00,50.00,13.30,1,1,1,25.00,75.00,25.00,75.00,11.40,15.20,3.80,9500.00,TARP,TARP,2500.00,0.00,0.00,125.00,6,1,0,Yes
 Zone Information, SP-WHOLEBUILDING-RETAIL AREA SYS-6 FLR-3 SCH-C HPLCMT-SOUTH ZN,0.0,0.00,0.00,7.60,50.00,10.85,9.50,1,1,1,0.00,100.00,0.00,25.00,7.60,11.40,3.80,7125.00,TARP,TARP,1875.00,380.00,285.00,95.00,6,1,0,Yes
 Zone Information, SP-WHOLEBUILDING-SCHOOL/UNIVERSITY SYS-3 FLR-2 SCH-D HPLCMT-SOUTH ZN,0.0,0.00,0.00,3.80,50.00,10.85,5.70,1,1,1,0.00,100.00,0.00,25.00,3.80,7.60,3.80,7125.00,TARP,TARP,1875.00,380.00,285.00,95.00,6,1,0,Yes
 Zone Information, SP-WHOLEBUILDING-SPORTS ARENA SYS-6 FLR-1 SCH-B HPLCMT-NORTH ZN,0.0,25.00,75.00,0.00,50.00,89.15,1.90,1,1,1,0.00,100.00,75.00,100.00,0.00,3.80,3.80,7125.00,TARP,TARP,1875.00,0.00,0.00,0.00,6,0,0,Yes
 Zone Information, SP-WHOLEBUILDING-STORAGE GARAGE SYS-4 FLR-4 SCH-K HPLCMT-WEST ZN,0.0,0.00,0.00,11.40,10.85,50.00,13.30,1,1,1,0.00,25.00,0.00,100.00,11.40,15.20,3.80,7125.00,TARP,TARP,1875.00,380.00,380.00,0.00,6,0,0,Yes
 Zone Information, SP-WHOLEBUILDING-TOWN HALL SYS-3 FLR-2 SCH-D HPLCMT-CORE ZN,0.0,25.00,25.00,3.80,50.00,50.00,5.70,1,1,1,25.00,75.00,25.00,75.00,3.80,7.60,3.80,9500.00,TARP,TARP,2500.00,0.00,0.00,0.00,6,0,0,Yes
 Zone Information, SP-WHOLEBUILDING-TRANSPORTATION FACILITY SYS-6 FLR-4 SCH-H HPLCMT-EAST ZN,0.0,75.00,25.00,11.40,89.15,50.00,13.30,1,1,1,75.00,100.00,0.00,100.00,11.40,15.20,3.80,7125.00,TARP,TARP,1875.00,380.00,285.00,188.75,6,2,0,Yes
 Zone Information, SP-WHOLEBUILDING-WAREHOUSE SYS-4 FLR-4 SCH-A HPLCMT-NORTH ZN,0.0,25.00,75.00,11.40,50.00,89.15,13.30,1,1,1,0.00,100.00,75.00,100.00,11.40,15.20,3.80,7125.00,TARP,TARP,1875.00,380.00,285.00,188.75,6,2,0,Yes
 Zone Information, SP-WHOLEBUILDING-WORKSHOP SYS-3 FLR-1 SCH-A HPLCMT-SOUTH ZN,0.0,0.00,0.00,0.00,50.00,10.85,1.90,1,1,1,0.00,100.00,0.00,25.00,0.00,3.80,3.80,7125.00,TARP,TARP,1875.00,0.00,0.00,0.00,6,0,0,Yes
! <Zone Internal Gains Nominal>,Zone Name, Floor Area {m2},# Occupants,Area per Occupant {m2/person},Occupant per Area {person/m2},Interior Lighting {W/m2},Electric Load {W/m2},Gas Load {W/m2},Other Load {W/m2},Hot Water Eq {W/m2},Steam Equipment {W/m2},Sum Loads per Area {W/m2},Outdoor Controlled Baseboard Heat
 Zone Internal Gains Nominal, SP-ATRIUM (6 =< HEIGHT <= 12M)-SCH-A-SPACE FUNCTION SYS-6 FLR-1 SCH-A HPLCMT-EAST ZN,1875.00,187.6,9.996,0.100,1.060,2.501,0.000,0.000,0.000,0.000,3.561,No
 Zone Internal Gains Nominal, SP-ATRIUM (6 =< HEIGHT <= 12M)-SCH-B-SPACE FUNCTION SYS-6 FLR-2 SCH-B HPLCMT-WEST ZN,1875.00,187.6,9.996,0.100,1.060,2.501,0.000,0.000,0.000,0.000,3.561,No
 Zone Internal Gains Nominal, SP-ATRIUM (6 =< HEIGHT <= 12M)-SCH-C-SPACE FUNCTION SYS-6 FLR-3 SCH-C HPLCMT-WEST ZN,1875.00,187.6,9.996,0.100,1.060,2.501,0.000,0.000,0.000,0.000,3.561,No
 Zone Internal Gains Nominal, SP-ATRIUM (6 =< HEIGHT <= 12M)-SCH-D-SPACE FUNCTION SYS-6 FLR-1 SCH-D HPLCMT-CORE ZN,2500.00,250.1,9.996,0.100,1.060,2.501,0.000,0.000,0.000,0.000,3.561,No
 Zone Internal Gains Nominal, SP-ATRIUM (6 =< HEIGHT <= 12M)-SCH-E-SPACE FUNCTION SYS-6 FLR-2 SCH-E HPLCMT-NORTH ZN,1875.00,187.6,9.996,0.100,1.060,2.501,0.000,0.000,0.000,0.000,3.561,No
 Zone Internal Gains Nominal, SP-ATRIUM (6 =< HEIGHT <= 12M)-SCH-F-SPACE FUNCTION SYS-6 FLR-2 SCH-F HPLCMT-EAST ZN,1875.00,187.6,9.996,0.100,1.060,2.501,0.000,0.000,0.000,0.000,3.561,No
 Zone Internal Gains Nominal, SP-WHOLEBUILDING-OFFICE SYS-6 FLR-4 SCH-A HPLCMT-SOUTH ZN,1875.00,75.0,24.991,4.001E-002,8.803,7.503,0.000,0.000,0.000,0.000,16.306,No
 Zone Internal Gains Nominal, SP-WHOLEBUILDING-PENITENTIARY SYS-3 FLR-3 SCH-H HPLCMT-CORE ZN,2500.00,83.4,29.989,3.335E-002,8.703,2.501,0.000,0.000,0.000,0.000,11.204,No
 Zone Internal Gains Nominal, SP-WHOLEBUILDING-PERFORMING ARTS THEATRE SYS-3 FLR-3 SCH-C HPLCMT-EAST ZN,1875.00,234.5,7.997,0.125,14.905,1.000,0.000,0.000,0.000,0.000,15.906,No
 Zone Internal Gains Nominal, SP-WHOLEBUILDING-POLICE STATION SYS-3 FLR-3 SCH-H HPLCMT-NORTH ZN,1875.00,75.0,24.991,4.001E-002,9.403,7.503,0.000,0.000,0.000,0.000,16.906,No
 Zone Internal Gains Nominal, SP-WHOLEBUILDING-POST OFFICE SYS-6 FLR-1 SCH-A HPLCMT-WEST ZN,1875.00,75.0,24.991,4.001E-002,9.403,7.503,0.000,0.000,0.000,0.000,16.906,No
 Zone Internal Gains Nominal, SP-WHOLEBUILDING-RELIGIOUS BUILDING SYS-3 FLR-4 SCH-I HPLCMT-CORE ZN,2500.00,500.2,4.998,0.200,10.804,1.000,0.000,0.000,0.000,0.000,11.804,No
 Zone Internal Gains Nominal, SP-WHOLEBUILDING-RETAIL AREA SYS-6 FLR-3 SCH-C HPLCMT-SOUTH ZN,1875.00,62.5,29.989,3.335E-002,13.505,2.501,0.000,0.000,0.000,0.000,16.006,No
 Zone Internal Gains Nominal, SP-WHOLEBUILDING-SCHOOL/UNIVERSITY SYS-3 FLR-2 SCH-D HPLCMT-SOUTH ZN,1875.00,234.5,7.997,0.125,9.403,5.002,0.000,0.000,0.000,0.000,14.405,No
 Zone Internal Gains Nominal, SP-WHOLEBUILDING-SPORTS ARENA SYS-6 FLR-1 SCH-B HPLCMT-NORTH ZN,1875.00,187.6,9.996,0.100,9.804,1.000,0.000,0.000,0.000,0.000,10.804,No
 Zone Internal Gains Nominal, SP-WHOLEBUILDING-STORAGE GARAGE SYS-4 FLR-4 SCH-K HPLCMT-WEST ZN,1875.00,1.9,999.637,1.000E-003,2.301,0.000,0.000,0.000,0.000,0.000,2.301,No
 Zone Internal Gains Nominal, SP-WHOLEBUILDING-TOWN HALL SYS-3 FLR-2 SCH-D HPLCMT-CORE ZN,2500.00,100.0,24.991,4.001E-002,9.603,7.503,0.000,0.000,0.000,0.000,17.106,No
 Zone Internal Gains Nominal, SP-WHOLEBUILDING-TRANSPORTATION FACILITY SYS-6 FLR-4 SCH-H HPLCMT-EAST ZN,1875.00,125.0,14.995,6.669E-002,7.503,1.000,0.000,0.000,0.000,0.000,8.503,No
 Zone Internal Gains Nominal, SP-WHOLEBUILDING-WAREHOUSE SYS-4 FLR-4 SCH-A HPLCMT-NORTH ZN,1875.00,1.3,1499.455,6.669E-004,7.103,1.000,0.000,0.000,0.000,0.000,8.103,No
 Zone Internal Gains Nominal, SP-WHOLEBUILDING-WORKSHOP SYS-3 FLR-1 SCH-A HPLCMT-SOUTH ZN,1875.00,62.5,29.989,3.335E-002,12.805,10.004,0.000,0.000,0.000,0.000,22.808,No
! <People Internal Gains Nominal>,Name,Schedule Name,Zone Name,Zone Floor Area {m2},# Zone Occupants,Number of People {},People/Floor Area {person/m2},Floor Area per person {m2/person},Fraction Radiant,Fraction Convected,Sensible Fraction Calculation,Activity level,ASHRAE 55 Warnings,Carbon Dioxide Generation Rate,Nominal Minimum Number of People,Nominal Maximum Number of People
 People Internal Gains Nominal, SP-WHOLEBUILDING-OFFICE SYS-6 FLR-4 SCH-A HPLCMT-SOUTH ZN OFFICE WHOLEBUILDING PEOPLE,NECB-A-OCCUPANCY,SP-WHOLEBUILDING-OFFICE SYS-6 FLR-4 SCH-A HPLCMT-SOUTH ZN,1875.00,75.0,75.0,4.001E-002,24.991,0.300,0.700,AutoCalculate,NECB-ACTIVITY,No,3.8200E-008,0,68
 People Internal Gains Nominal, SP-WHOLEBUILDING-PENITENTIARY SYS-3 FLR-3 SCH-H HPLCMT-CORE ZN PENITENTIARY WHOLEBUILDING PEOPLE,NECB-H-OCCUPANCY,SP-WHOLEBUILDING-PENITENTIARY SYS-3 FLR-3 SCH-H HPLCMT-CORE ZN,2500.00,83.4,83.4,3.335E-002,29.989,0.300,0.700,AutoCalculate,NECB-ACTIVITY,No,3.8200E-008,75,75
 People Internal Gains Nominal, SP-WHOLEBUILDING-PERFORMING ARTS THEATRE SYS-3 FLR-3 SCH-C HPLCMT-EAST ZN PERFORMING ARTS THEATRE WHOLEBUILDING PEOPLE,NECB-C-OCCUPANCY,SP-WHOLEBUILDING-PERFORMING ARTS THEATRE SYS-3 FLR-3 SCH-C HPLCMT-EAST ZN,1875.00,234.5,234.5,0.125,7.997,0.300,0.700,AutoCalculate,NECB-ACTIVITY,No,3.8200E-008,0,211
 People Internal Gains Nominal, SP-WHOLEBUILDING-POLICE STATION SYS-3 FLR-3 SCH-H HPLCMT-NORTH ZN POLICE STATION WHOLEBUILDING PEOPLE,NECB-H-OCCUPANCY,SP-WHOLEBUILDING-POLICE STATION SYS-3 FLR-3 SCH-H HPLCMT-NORTH ZN,1875.00,75.0,75.0,4.001E-002,24.991,0.300,0.700,AutoCalculate,NECB-ACTIVITY,No,3.8200E-008,68,68
 People Internal Gains Nominal, SP-WHOLEBUILDING-POST OFFICE SYS-6 FLR-1 SCH-A HPLCMT-WEST ZN POST OFFICE WHOLEBUILDING PEOPLE,NECB-A-OCCUPANCY,SP-WHOLEBUILDING-POST OFFICE SYS-6 FLR-1 SCH-A HPLCMT-WEST ZN,1875.00,75.0,75.0,4.001E-002,24.991,0.300,0.700,AutoCalculate,NECB-ACTIVITY,No,3.8200E-008,0,68
 People Internal Gains Nominal, SP-WHOLEBUILDING-RELIGIOUS BUILDING SYS-3 FLR-4 SCH-I HPLCMT-CORE ZN RELIGIOUS BUILDING WHOLEBUILDING PEOPLE,NECB-I-OCCUPANCY,SP-WHOLEBUILDING-RELIGIOUS BUILDING SYS-3 FLR-4 SCH-I HPLCMT-CORE ZN,2500.00,500.2,500.2,0.200,4.998,0.300,0.700,AutoCalculate,NECB-ACTIVITY,No,3.8200E-008,0,400
 People Internal Gains Nominal, SP-WHOLEBUILDING-RETAIL AREA SYS-6 FLR-3 SCH-C HPLCMT-SOUTH ZN RETAIL AREA WHOLEBUILDING PEOPLE,NECB-C-OCCUPANCY,SP-WHOLEBUILDING-RETAIL AREA SYS-6 FLR-3 SCH-C HPLCMT-SOUTH ZN,1875.00,62.5,62.5,3.335E-002,29.989,0.300,0.700,AutoCalculate,NECB-ACTIVITY,No,3.8200E-008,0,56
 People Internal Gains Nominal, SP-WHOLEBUILDING-SCHOOL/UNIVERSITY SYS-3 FLR-2 SCH-D HPLCMT-SOUTH ZN SCHOOL/UNIVERSITY WHOLEBUILDING PEOPLE,NECB-D-OCCUPANCY,SP-WHOLEBUILDING-SCHOOL/UNIVERSITY SYS-3 FLR-2 SCH-D HPLCMT-SOUTH ZN,1875.00,234.5,234.5,0.125,7.997,0.300,0.700,AutoCalculate,NECB-ACTIVITY,No,3.8200E-008,0,211
 People Internal Gains Nominal, SP-ATRIUM (6 =< HEIGHT <= 12M)-SCH-A-SPACE FUNCTION SYS-6 FLR-1 SCH-A HPLCMT-EAST ZN SPACE FUNCTION ATRIUM (6 =< HEIGHT <= 12M)-SCH-A PEOPLE,NECB-A-OCCUPANCY,SP-ATRIUM (6 =< HEIGHT <= 12M)-SCH-A-SPACE FUNCTION SYS-6 FLR-1 SCH-A HPLCMT-EAST ZN,1875.00,187.6,187.6,0.100,9.996,0.300,0.700,AutoCalculate,NECB-ACTIVITY,No,3.8200E-008,0,169
 People Internal Gains Nominal, SP-ATRIUM (6 =< HEIGHT <= 12M)-SCH-B-SPACE FUNCTION SYS-6 FLR-2 SCH-B HPLCMT-WEST ZN SPACE FUNCTION ATRIUM (6 =< HEIGHT <= 12M)-SCH-B PEOPLE,NECB-B-OCCUPANCY,SP-ATRIUM (6 =< HEIGHT <= 12M)-SCH-B-SPACE FUNCTION SYS-6 FLR-2 SCH-B HPLCMT-WEST ZN,1875.00,187.6,187.6,0.100,9.996,0.300,0.700,AutoCalculate,NECB-ACTIVITY,No,3.8200E-008,0,169
 People Internal Gains Nominal, SP-ATRIUM (6 =< HEIGHT <= 12M)-SCH-C-SPACE FUNCTION SYS-6 FLR-3 SCH-C HPLCMT-WEST ZN SPACE FUNCTION ATRIUM (6 =< HEIGHT <= 12M)-SCH-C PEOPLE,NECB-C-OCCUPANCY,SP-ATRIUM (6 =< HEIGHT <= 12M)-SCH-C-SPACE FUNCTION SYS-6 FLR-3 SCH-C HPLCMT-WEST ZN,1875.00,187.6,187.6,0.100,9.996,0.300,0.700,AutoCalculate,NECB-ACTIVITY,No,3.8200E-008,0,169
 People Internal Gains Nominal, SP-ATRIUM (6 =< HEIGHT <= 12M)-SCH-D-SPACE FUNCTION SYS-6 FLR-1 SCH-D HPLCMT-CORE ZN SPACE FUNCTION ATRIUM (6 =< HEIGHT <= 12M)-SCH-D PEOPLE,NECB-D-OCCUPANCY,SP-ATRIUM (6 =< HEIGHT <= 12M)-SCH-D-SPACE FUNCTION SYS-6 FLR-1 SCH-D HPLCMT-CORE ZN,2500.00,250.1,250.1,0.100,9.996,0.300,0.700,AutoCalculate,NECB-ACTIVITY,No,3.8200E-008,0,225
 People Internal Gains Nominal, SP-ATRIUM (6 =< HEIGHT <= 12M)-SCH-E-SPACE FUNCTION SYS-6 FLR-2 SCH-E HPLCMT-NORTH ZN SPACE FUNCTION ATRIUM (6 =< HEIGHT <= 12M)-SCH-E PEOPLE,NECB-E-OCCUPANCY,SP-ATRIUM (6 =< HEIGHT <= 12M)-SCH-E-SPACE FUNCTION SYS-6 FLR-2 SCH-E HPLCMT-NORTH ZN,1875.00,187.6,187.6,0.100,9.996,0.300,0.700,AutoCalculate,NECB-ACTIVITY,No,3.8200E-008,0,169
 People Internal Gains Nominal, SP-ATRIUM (6 =< HEIGHT <= 12M)-SCH-F-SPACE FUNCTION SYS-6 FLR-2 SCH-F HPLCMT-EAST ZN SPACE FUNCTION ATRIUM (6 =< HEIGHT <= 12M)-SCH-F PEOPLE,NECB-F-OCCUPANCY,SP-ATRIUM (6 =< HEIGHT <= 12M)-SCH-F-SPACE FUNCTION SYS-6 FLR-2 SCH-F HPLCMT-EAST ZN,1875.00,187.6,187.6,0.100,9.996,0.300,0.700,AutoCalculate,NECB-ACTIVITY,No,3.8200E-008,26,118
 People Internal Gains Nominal, SP-WHOLEBUILDING-SPORTS ARENA SYS-6 FLR-1 SCH-B HPLCMT-NORTH ZN SPORTS ARENA WHOLEBUILDING PEOPLE,NECB-B-OCCUPANCY,SP-WHOLEBUILDING-SPORTS ARENA SYS-6 FLR-1 SCH-B HPLCMT-NORTH ZN,1875.00,187.6,187.6,0.100,9.996,0.300,0.700,AutoCalculate,NECB-ACTIVITY,No,3.8200E-008,0,169
 People Internal Gains Nominal, SP-WHOLEBUILDING-STORAGE GARAGE SYS-4 FLR-4 SCH-K HPLCMT-WEST ZN STORAGE GARAGE WHOLEBUILDING PEOPLE,NECB-K-OCCUPANCY,SP-WHOLEBUILDING-STORAGE GARAGE SYS-4 FLR-4 SCH-K HPLCMT-WEST ZN,1875.00,1.9,1.9,1.000E-003,999.637,0.300,0.700,AutoCalculate,NECB-ACTIVITY,No,3.8200E-008,0,2
 People Internal Gains Nominal, SP-WHOLEBUILDING-TOWN HALL SYS-3 FLR-2 SCH-D HPLCMT-CORE ZN TOWN HALL WHOLEBUILDING PEOPLE,NECB-D-OCCUPANCY,SP-WHOLEBUILDING-TOWN HALL SYS-3 FLR-2 SCH-D HPLCMT-CORE ZN,2500.00,100.0,100.0,4.001E-002,24.991,0.300,0.700,AutoCalculate,NECB-ACTIVITY,No,3.8200E-008,0,90
 People Internal Gains Nominal, SP-WHOLEBUILDING-TRANSPORTATION FACILITY SYS-6 FLR-4 SCH-H HPLCMT-EAST ZN TRANSPORTATION FACILITY WHOLEBUILDING PEOPLE,NECB-H-OCCUPANCY,SP-WHOLEBUILDING-TRANSPORTATION FACILITY SYS-6 FLR-4 SCH-H HPLCMT-EAST ZN,1875.00,125.0,125.0,6.669E-002,14.995,0.300,0.700,AutoCalculate,NECB-ACTIVITY,No,3.8200E-008,113,113
 People Internal Gains Nominal, SP-WHOLEBUILDING-WAREHOUSE SYS-4 FLR-4 SCH-A HPLCMT-NORTH ZN WAREHOUSE WHOLEBUILDING PEOPLE,NECB-A-OCCUPANCY,SP-WHOLEBUILDING-WAREHOUSE SYS-4 FLR-4 SCH-A HPLCMT-NORTH ZN,1875.00,1.3,1.3,6.669E-004,1499.455,0.300,0.700,AutoCalculate,NECB-ACTIVITY,No,3.8200E-008,0,1
 People Internal Gains Nominal, SP-WHOLEBUILDING-WORKSHOP SYS-3 FLR-1 SCH-A HPLCMT-SOUTH ZN WORKSHOP WHOLEBUILDING PEOPLE,NECB-A-OCCUPANCY,SP-WHOLEBUILDING-WORKSHOP SYS-3 FLR-1 SCH-A HPLCMT-SOUTH ZN,1875.00,62.5,62.5,3.335E-002,29.989,0.300,0.700,AutoCalculate,NECB-ACTIVITY,No,3.8200E-008,0,56
! <Lights Internal Gains Nominal>,Name,Schedule Name,Zone Name,Zone Floor Area {m2},# Zone Occupants,Lighting Level {W},Lights/Floor Area {W/m2},Lights per person {W/person},Fraction Return Air,Fraction Radiant,Fraction Short Wave,Fraction Convected,Fraction Replaceable,End-Use Category,Nominal Minimum Lighting Level {W},Nominal Maximum Lighting Level {W}
 Lights Internal Gains Nominal, SP-WHOLEBUILDING-OFFICE SYS-6 FLR-4 SCH-A HPLCMT-SOUTH ZN OFFICE WHOLEBUILDING LIGHTS,NECB-A-OCCUPANCY-NECB-A-LIGHTING-0.0-0.0-0.0-LIGHT RULESET,SP-WHOLEBUILDING-OFFICE SYS-6 FLR-4 SCH-A HPLCMT-SOUTH ZN,1875.00,75.0,16505.996,8.803,220.000,0.000,0.500,0.200,0.300,1.000,General,825.300,14855.397
 Lights Internal Gains Nominal, SP-WHOLEBUILDING-PENITENTIARY SYS-3 FLR-3 SCH-H HPLCMT-CORE ZN PENITENTIARY WHOLEBUILDING LIGHTS,NECB-H-OCCUPANCY-NECB-H-LIGHTING-0.0-0.0-0.0-LIGHT RULESET,SP-WHOLEBUILDING-PENITENTIARY SYS-3 FLR-3 SCH-H HPLCMT-CORE ZN,2500.00,83.4,21757.904,8.703,261.000,0.000,0.500,0.200,0.300,1.000,General,19582.114,19582.114
 Lights Internal Gains Nominal, SP-WHOLEBUILDING-PERFORMING ARTS THEATRE SYS-3 FLR-3 SCH-C HPLCMT-EAST ZN PERFORMING ARTS THEATRE WHOLEBUILDING LIGHTS,NECB-C-OCCUPANCY-NECB-C-LIGHTING-0.0-0.0-0.0-LIGHT RULESET,SP-WHOLEBUILDING-PERFORMING ARTS THEATRE SYS-3 FLR-3 SCH-C HPLCMT-EAST ZN,1875.00,234.5,27947.653,14.905,119.200,0.000,0.500,0.200,0.300,1.000,General,1397.383,25152.888
 Lights Internal Gains Nominal, SP-WHOLEBUILDING-POLICE STATION SYS-3 FLR-3 SCH-H HPLCMT-NORTH ZN POLICE STATION WHOLEBUILDING LIGHTS,NECB-H-OCCUPANCY-NECB-H-LIGHTING-0.0-0.0-0.0-LIGHT RULESET,SP-WHOLEBUILDING-POLICE STATION SYS-3 FLR-3 SCH-H HPLCMT-NORTH ZN,1875.00,75.0,17631.405,9.403,235.000,0.000,0.500,0.200,0.300,1.000,General,15868.265,15868.265
 Lights Internal Gains Nominal, SP-WHOLEBUILDING-POST OFFICE SYS-6 FLR-1 SCH-A HPLCMT-WEST ZN POST OFFICE WHOLEBUILDING LIGHTS,NECB-A-OCCUPANCY-NECB-A-LIGHTING-0.0-0.0-0.0-LIGHT RULESET,SP-WHOLEBUILDING-POST OFFICE SYS-6 FLR-1 SCH-A HPLCMT-WEST ZN,1875.00,75.0,17631.405,9.403,235.000,0.000,0.500,0.200,0.300,1.000,General,881.570,15868.265
 Lights Internal Gains Nominal, SP-WHOLEBUILDING-RELIGIOUS BUILDING SYS-3 FLR-4 SCH-I HPLCMT-CORE ZN RELIGIOUS BUILDING WHOLEBUILDING LIGHTS,NECB-I-OCCUPANCY-NECB-I-LIGHTING-0.0-0.0-0.0-LIGHT RULESET,SP-WHOLEBUILDING-RELIGIOUS BUILDING SYS-3 FLR-4 SCH-I HPLCMT-CORE ZN,2500.00,500.2,27009.812,10.804,54.000,0.000,0.500,0.200,0.300,1.000,General,1350.491,24308.831
 Lights Internal Gains Nominal, SP-WHOLEBUILDING-RETAIL AREA SYS-6 FLR-3 SCH-C HPLCMT-SOUTH ZN RETAIL AREA WHOLEBUILDING LIGHTS,NECB-C-OCCUPANCY-NECB-C-LIGHTING-0.0-0.0-0.0-LIGHT RULESET,SP-WHOLEBUILDING-RETAIL AREA SYS-6 FLR-3 SCH-C HPLCMT-SOUTH ZN,1875.00,62.5,25321.699,13.505,405.000,0.000,0.500,0.200,0.300,1.000,General,1266.085,22789.529
 Lights Internal Gains Nominal, SP-WHOLEBUILDING-SCHOOL/UNIVERSITY SYS-3 FLR-2 SCH-D HPLCMT-SOUTH ZN SCHOOL/UNIVERSITY WHOLEBUILDING LIGHTS,NECB-D-OCCUPANCY-NECB-D-LIGHTING-0.0-0.0-0.0-LIGHT RULESET,SP-WHOLEBUILDING-SCHOOL/UNIVERSITY SYS-3 FLR-2 SCH-D HPLCMT-SOUTH ZN,1875.00,234.5,17631.405,9.403,75.200,0.000,0.500,0.200,0.300,1.000,General,881.570,15868.265
 Lights Internal Gains Nominal, SP-ATRIUM (6 =< HEIGHT <= 12M)-SCH-A-SPACE FUNCTION SYS-6 FLR-1 SCH-A HPLCMT-EAST ZN SPACE FUNCTION ATRIUM (6 =< HEIGHT <= 12M)-SCH-A LIGHTS,NECB-A-LIGHTING,SP-ATRIUM (6 =< HEIGHT <= 12M)-SCH-A-SPACE FUNCTION SYS-6 FLR-1 SCH-A HPLCMT-EAST ZN,1875.00,187.6,1988.222,1.060,10.600,0.000,0.500,0.200,0.300,1.000,General,99.411,1789.400
 Lights Internal Gains Nominal, SP-ATRIUM (6 =< HEIGHT <= 12M)-SCH-B-SPACE FUNCTION SYS-6 FLR-2 SCH-B HPLCMT-WEST ZN SPACE FUNCTION ATRIUM (6 =< HEIGHT <= 12M)-SCH-B LIGHTS,NECB-B-LIGHTING,SP-ATRIUM (6 =< HEIGHT <= 12M)-SCH-B-SPACE FUNCTION SYS-6 FLR-2 SCH-B HPLCMT-WEST ZN,1875.00,187.6,1988.222,1.060,10.600,0.000,0.500,0.200,0.300,1.000,General,198.822,1789.400
 Lights Internal Gains Nominal, SP-ATRIUM (6 =< HEIGHT <= 12M)-SCH-C-SPACE FUNCTION SYS-6 FLR-3 SCH-C HPLCMT-WEST ZN SPACE FUNCTION ATRIUM (6 =< HEIGHT <= 12M)-SCH-C LIGHTS,NECB-C-LIGHTING,SP-ATRIUM (6 =< HEIGHT <= 12M)-SCH-C-SPACE FUNCTION SYS-6 FLR-3 SCH-C HPLCMT-WEST ZN,1875.00,187.6,1988.222,1.060,10.600,0.000,0.500,0.200,0.300,1.000,General,99.411,1789.400
 Lights Internal Gains Nominal, SP-ATRIUM (6 =< HEIGHT <= 12M)-SCH-D-SPACE FUNCTION SYS-6 FLR-1 SCH-D HPLCMT-CORE ZN SPACE FUNCTION ATRIUM (6 =< HEIGHT <= 12M)-SCH-D LIGHTS,NECB-D-LIGHTING,SP-ATRIUM (6 =< HEIGHT <= 12M)-SCH-D-SPACE FUNCTION SYS-6 FLR-1 SCH-D HPLCMT-CORE ZN,2500.00,250.1,2650.963,1.060,10.600,0.000,0.500,0.200,0.300,1.000,General,132.548,2385.867
 Lights Internal Gains Nominal, SP-ATRIUM (6 =< HEIGHT <= 12M)-SCH-E-SPACE FUNCTION SYS-6 FLR-2 SCH-E HPLCMT-NORTH ZN SPACE FUNCTION ATRIUM (6 =< HEIGHT <= 12M)-SCH-E LIGHTS,NECB-E-LIGHTING,SP-ATRIUM (6 =< HEIGHT <= 12M)-SCH-E-SPACE FUNCTION SYS-6 FLR-2 SCH-E HPLCMT-NORTH ZN,1875.00,187.6,1988.222,1.060,10.600,0.000,0.500,0.200,0.300,1.000,General,99.411,1789.400
 Lights Internal Gains Nominal, SP-ATRIUM (6 =< HEIGHT <= 12M)-SCH-F-SPACE FUNCTION SYS-6 FLR-2 SCH-F HPLCMT-EAST ZN SPACE FUNCTION ATRIUM (6 =< HEIGHT <= 12M)-SCH-F LIGHTS,NECB-F-LIGHTING,SP-ATRIUM (6 =< HEIGHT <= 12M)-SCH-F-SPACE FUNCTION SYS-6 FLR-2 SCH-F HPLCMT-EAST ZN,1875.00,187.6,1988.222,1.060,10.600,0.000,0.500,0.200,0.300,1.000,General,139.176,1252.580
 Lights Internal Gains Nominal, SP-WHOLEBUILDING-SPORTS ARENA SYS-6 FLR-1 SCH-B HPLCMT-NORTH ZN SPORTS ARENA WHOLEBUILDING LIGHTS,NECB-B-OCCUPANCY-NECB-B-LIGHTING-0.0-0.0-0.0-LIGHT RULESET,SP-WHOLEBUILDING-SPORTS ARENA SYS-6 FLR-1 SCH-B HPLCMT-NORTH ZN,1875.00,187.6,18381.678,9.804,98.000,0.000,0.500,0.200,0.300,1.000,General,1838.168,16543.510
 Lights Internal Gains Nominal, SP-WHOLEBUILDING-STORAGE GARAGE SYS-4 FLR-4 SCH-K HPLCMT-WEST ZN STORAGE GARAGE WHOLEBUILDING LIGHTS,NECB-K-LIGHTING,SP-WHOLEBUILDING-STORAGE GARAGE SYS-4 FLR-4 SCH-K HPLCMT-WEST ZN,1875.00,1.9,4314.067,2.301,2300.000,0.000,0.500,0.200,0.300,1.000,General,3882.661,3882.661
 Lights Internal Gains Nominal, SP-WHOLEBUILDING-TOWN HALL SYS-3 FLR-2 SCH-D HPLCMT-CORE ZN TOWN HALL WHOLEBUILDING LIGHTS,NECB-D-OCCUPANCY-NECB-D-LIGHTING-0.0-0.0-0.0-LIGHT RULESET,SP-WHOLEBUILDING-TOWN HALL SYS-3 FLR-2 SCH-D HPLCMT-CORE ZN,2500.00,100.0,24008.722,9.603,240.000,0.000,0.500,0.200,0.300,1.000,General,1200.436,21607.850
 Lights Internal Gains Nominal, SP-WHOLEBUILDING-TRANSPORTATION FACILITY SYS-6 FLR-4 SCH-H HPLCMT-EAST ZN TRANSPORTATION FACILITY WHOLEBUILDING LIGHTS,NECB-H-LIGHTING,SP-WHOLEBUILDING-TRANSPORTATION FACILITY SYS-6 FLR-4 SCH-H HPLCMT-EAST ZN,1875.00,125.0,14067.611,7.503,112.500,0.000,0.500,0.200,0.300,1.000,General,12660.850,12660.850
 Lights Internal Gains Nominal, SP-WHOLEBUILDING-WAREHOUSE SYS-4 FLR-4 SCH-A HPLCMT-NORTH ZN WAREHOUSE WHOLEBUILDING LIGHTS,NECB-A-LIGHTING,SP-WHOLEBUILDING-WAREHOUSE SYS-4 FLR-4 SCH-A HPLCMT-NORTH ZN,1875.00,1.3,13317.338,7.103,10650.000,0.000,0.500,0.200,0.300,1.000,General,665.867,11985.604
 Lights Internal Gains Nominal, SP-WHOLEBUILDING-WORKSHOP SYS-3 FLR-1 SCH-A HPLCMT-SOUTH ZN WORKSHOP WHOLEBUILDING LIGHTS,NECB-A-OCCUPANCY-NECB-A-LIGHTING-0.0-0.0-0.0-LIGHT RULESET,SP-WHOLEBUILDING-WORKSHOP SYS-3 FLR-1 SCH-A HPLCMT-SOUTH ZN,1875.00,62.5,24008.722,12.805,384.000,0.000,0.500,0.200,0.300,1.000,General,1200.436,21607.850
! <ElectricEquipment Internal Gains Nominal>,Name,Schedule Name,Zone Name,Zone Floor Area {m2},# Zone Occupants,Equipment Level {W},Equipment/Floor Area {W/m2},Equipment per person {W/person},Fraction Latent,Fraction Radiant,Fraction Lost,Fraction Convected,End-Use SubCategory,Nominal Minimum Equipment Level {W},Nominal Maximum Equipment Level {W}
 ElectricEquipment Internal Gains Nominal, SP-WHOLEBUILDING-OFFICE SYS-6 FLR-4 SCH-A HPLCMT-SOUTH ZN OFFICE WHOLEBUILDING ELEC EQUIP,NECB-A-ELECTRIC-EQUIPMENT,SP-WHOLEBUILDING-OFFICE SYS-6 FLR-4 SCH-A HPLCMT-SOUTH ZN,1875.00,75.0,14067.611,7.503,187.500,0.000,0.500,0.000,0.500,General,2813.522,12660.850
 ElectricEquipment Internal Gains Nominal, SP-WHOLEBUILDING-PENITENTIARY SYS-3 FLR-3 SCH-H HPLCMT-CORE ZN PENITENTIARY WHOLEBUILDING ELEC EQUIP,NECB-H-ELECTRIC-EQUIPMENT,SP-WHOLEBUILDING-PENITENTIARY SYS-3 FLR-3 SCH-H HPLCMT-CORE ZN,2500.00,83.4,6252.271,2.501,75.000,0.000,0.500,0.000,0.500,General,5627.044,5627.044
 ElectricEquipment Internal Gains Nominal, SP-WHOLEBUILDING-PERFORMING ARTS THEATRE SYS-3 FLR-3 SCH-C HPLCMT-EAST ZN PERFORMING ARTS THEATRE WHOLEBUILDING ELEC EQUIP,NECB-C-ELECTRIC-EQUIPMENT,SP-WHOLEBUILDING-PERFORMING ARTS THEATRE SYS-3 FLR-3 SCH-C HPLCMT-EAST ZN,1875.00,234.5,1875.681,1.000,8.000,0.000,0.500,0.000,0.500,General,93.784,1688.113
 ElectricEquipment Internal Gains Nominal, SP-WHOLEBUILDING-POLICE STATION SYS-3 FLR-3 SCH-H HPLCMT-NORTH ZN POLICE STATION WHOLEBUILDING ELEC EQUIP,NECB-H-ELECTRIC-EQUIPMENT,SP-WHOLEBUILDING-POLICE STATION SYS-3 FLR-3 SCH-H HPLCMT-NORTH ZN,1875.00,75.0,14067.611,7.503,187.500,0.000,0.500,0.000,0.500,General,12660.850,12660.850
 ElectricEquipment Internal Gains Nominal, SP-WHOLEBUILDING-POST OFFICE SYS-6 FLR-1 SCH-A HPLCMT-WEST ZN POST OFFICE WHOLEBUILDING ELEC EQUIP,NECB-A-ELECTRIC-EQUIPMENT,SP-WHOLEBUILDING-POST OFFICE SYS-6 FLR-1 SCH-A HPLCMT-WEST ZN,1875.00,75.0,14067.611,7.503,187.500,0.000,0.500,0.000,0.500,General,2813.522,12660.850
 ElectricEquipment Internal Gains Nominal, SP-WHOLEBUILDING-RELIGIOUS BUILDING SYS-3 FLR-4 SCH-I HPLCMT-CORE ZN RELIGIOUS BUILDING WHOLEBUILDING ELEC EQUIP,NECB-I-ELECTRIC-EQUIPMENT,SP-WHOLEBUILDING-RELIGIOUS BUILDING SYS-3 FLR-4 SCH-I HPLCMT-CORE ZN,2500.00,500.2,2500.909,1.000,5.000,0.000,0.500,0.000,0.500,General,250.091,2000.727
 ElectricEquipment Internal Gains Nominal, SP-WHOLEBUILDING-RETAIL AREA SYS-6 FLR-3 SCH-C HPLCMT-SOUTH ZN RETAIL AREA WHOLEBUILDING ELEC EQUIP,NECB-C-ELECTRIC-EQUIPMENT,SP-WHOLEBUILDING-RETAIL AREA SYS-6 FLR-3 SCH-C HPLCMT-SOUTH ZN,1875.00,62.5,4689.204,2.501,75.000,0.000,0.500,0.000,0.500,General,234.460,4220.283
 ElectricEquipment Internal Gains Nominal, SP-WHOLEBUILDING-SCHOOL/UNIVERSITY SYS-3 FLR-2 SCH-D HPLCMT-SOUTH ZN SCHOOL/UNIVERSITY WHOLEBUILDING ELEC EQUIP,NECB-D-ELECTRIC-EQUIPMENT,SP-WHOLEBUILDING-SCHOOL/UNIVERSITY SYS-3 FLR-2 SCH-D HPLCMT-SOUTH ZN,1875.00,234.5,9378.407,5.002,40.000,0.000,0.500,0.000,0.500,General,468.920,8440.566
 ElectricEquipment Internal Gains Nominal, SP-ATRIUM (6 =< HEIGHT <= 12M)-SCH-A-SPACE FUNCTION SYS-6 FLR-1 SCH-A HPLCMT-EAST ZN SPACE FUNCTION ATRIUM (6 =< HEIGHT <= 12M)-SCH-A ELEC EQUIP,NECB-A-ELECTRIC-EQUIPMENT,SP-ATRIUM (6 =< HEIGHT <= 12M)-SCH-A-SPACE FUNCTION SYS-6 FLR-1 SCH-A HPLCMT-EAST ZN,1875.00,187.6,4689.204,2.501,25.000,0.000,0.500,0.000,0.500,General,937.841,4220.283
 ElectricEquipment Internal Gains Nominal, SP-ATRIUM (6 =< HEIGHT <= 12M)-SCH-B-SPACE FUNCTION SYS-6 FLR-2 SCH-B HPLCMT-WEST ZN SPACE FUNCTION ATRIUM (6 =< HEIGHT <= 12M)-SCH-B ELEC EQUIP,NECB-B-ELECTRIC-EQUIPMENT,SP-ATRIUM (6 =< HEIGHT <= 12M)-SCH-B-SPACE FUNCTION SYS-6 FLR-2 SCH-B HPLCMT-WEST ZN,1875.00,187.6,4689.204,2.501,25.000,0.000,0.500,0.000,0.500,General,468.920,4220.283
 ElectricEquipment Internal Gains Nominal, SP-ATRIUM (6 =< HEIGHT <= 12M)-SCH-C-SPACE FUNCTION SYS-6 FLR-3 SCH-C HPLCMT-WEST ZN SPACE FUNCTION ATRIUM (6 =< HEIGHT <= 12M)-SCH-C ELEC EQUIP,NECB-C-ELECTRIC-EQUIPMENT,SP-ATRIUM (6 =< HEIGHT <= 12M)-SCH-C-SPACE FUNCTION SYS-6 FLR-3 SCH-C HPLCMT-WEST ZN,1875.00,187.6,4689.204,2.501,25.000,0.000,0.500,0.000,0.500,General,234.460,4220.283
 ElectricEquipment Internal Gains Nominal, SP-ATRIUM (6 =< HEIGHT <= 12M)-SCH-D-SPACE FUNCTION SYS-6 FLR-1 SCH-D HPLCMT-CORE ZN SPACE FUNCTION ATRIUM (6 =< HEIGHT <= 12M)-SCH-D ELEC EQUIP,NECB-D-ELECTRIC-EQUIPMENT,SP-ATRIUM (6 =< HEIGHT <= 12M)-SCH-D-SPACE FUNCTION SYS-6 FLR-1 SCH-D HPLCMT-CORE ZN,2500.00,250.1,6252.271,2.501,25.000,0.000,0.500,0.000,0.500,General,312.614,5627.044
 ElectricEquipment Internal Gains Nominal, SP-ATRIUM (6 =< HEIGHT <= 12M)-SCH-E-SPACE FUNCTION SYS-6 FLR-2 SCH-E HPLCMT-NORTH ZN SPACE FUNCTION ATRIUM (6 =< HEIGHT <= 12M)-SCH-E ELEC EQUIP,NECB-E-ELECTRIC-EQUIPMENT,SP-ATRIUM (6 =< HEIGHT <= 12M)-SCH-E-SPACE FUNCTION SYS-6 FLR-2 SCH-E HPLCMT-NORTH ZN,1875.00,187.6,4689.204,2.501,25.000,0.000,0.500,0.000,0.500,General,234.460,4220.283
 ElectricEquipment Internal Gains Nominal, SP-ATRIUM (6 =< HEIGHT <= 12M)-SCH-F-SPACE FUNCTION SYS-6 FLR-2 SCH-F HPLCMT-EAST ZN SPACE FUNCTION ATRIUM (6 =< HEIGHT <= 12M)-SCH-F ELEC EQUIP,NECB-F-ELECTRIC-EQUIPMENT,SP-ATRIUM (6 =< HEIGHT <= 12M)-SCH-F-SPACE FUNCTION SYS-6 FLR-2 SCH-F HPLCMT-EAST ZN,1875.00,187.6,4689.204,2.501,25.000,0.000,0.500,0.000,0.500,General,328.244,2954.198
 ElectricEquipment Internal Gains Nominal, SP-WHOLEBUILDING-SPORTS ARENA SYS-6 FLR-1 SCH-B HPLCMT-NORTH ZN SPORTS ARENA WHOLEBUILDING ELEC EQUIP,NECB-B-ELECTRIC-EQUIPMENT,SP-WHOLEBUILDING-SPORTS ARENA SYS-6 FLR-1 SCH-B HPLCMT-NORTH ZN,1875.00,187.6,1875.681,1.000,10.000,0.000,0.500,0.000,0.500,General,187.568,1688.113
 ElectricEquipment Internal Gains Nominal, SP-WHOLEBUILDING-TOWN HALL SYS-3 FLR-2 SCH-D HPLCMT-CORE ZN TOWN HALL WHOLEBUILDING ELEC EQUIP,NECB-D-ELECTRIC-EQUIPMENT,SP-WHOLEBUILDING-TOWN HALL SYS-3 FLR-2 SCH-D HPLCMT-CORE ZN,2500.00,100.0,18756.814,7.503,187.500,0.000,0.500,0.000,0.500,General,937.841,16881.133
 ElectricEquipment Internal Gains Nominal, SP-WHOLEBUILDING-TRANSPORTATION FACILITY SYS-6 FLR-4 SCH-H HPLCMT-EAST ZN TRANSPORTATION FACILITY WHOLEBUILDING ELEC EQUIP,NECB-H-ELECTRIC-EQUIPMENT,SP-WHOLEBUILDING-TRANSPORTATION FACILITY SYS-6 FLR-4 SCH-H HPLCMT-EAST ZN,1875.00,125.0,1875.681,1.000,15.000,0.000,0.500,0.000,0.500,General,1688.113,1688.113
 ElectricEquipment Internal Gains Nominal, SP-WHOLEBUILDING-WAREHOUSE SYS-4 FLR-4 SCH-A HPLCMT-NORTH ZN WAREHOUSE WHOLEBUILDING ELEC EQUIP,NECB-A-ELECTRIC-EQUIPMENT,SP-WHOLEBUILDING-WAREHOUSE SYS-4 FLR-4 SCH-A HPLCMT-NORTH ZN,1875.00,1.3,1875.681,1.000,1500.000,0.000,0.500,0.000,0.500,General,375.136,1688.113
 ElectricEquipment Internal Gains Nominal, SP-WHOLEBUILDING-WORKSHOP SYS-3 FLR-1 SCH-A HPLCMT-SOUTH ZN WORKSHOP WHOLEBUILDING ELEC EQUIP,NECB-A-ELECTRIC-EQUIPMENT,SP-WHOLEBUILDING-WORKSHOP SYS-3 FLR-1 SCH-A HPLCMT-SOUTH ZN,1875.00,62.5,18756.814,10.004,300.000,0.000,0.500,0.000,0.500,General,3751.363,16881.133
! <Shadowing/Sun Position Calculations Annual Simulations>, Calculation Method, Value {days}, Allowable Number Figures in Shadow Overlap {}, Polygon Clipping Algorithm, Sky Diffuse Modeling Algorithm, External Shading Calculation Method, Output External Shading Calculation Results, Disable Self-Shading Within Shading Zone Groups, Disable Self-Shading From Shading Zone Groups to Other Zones
Shadowing/Sun Position Calculations Annual Simulations,AverageOverDaysInFrequency,20,15000,SutherlandHodgman,SimpleSkyDiffuseModeling,InternalCalculation,No,No,No
! <Water Heater Information>,Type,Name,Volume {m3},Maximum Capacity {W},Standard Rated Recovery Efficiency, Standard Rated Energy Factor
! <ZoneInfiltration Airflow Stats Nominal>,Name,Schedule Name,Zone Name, Zone Floor Area {m2}, # Zone Occupants,Design Volume Flow Rate {m3/s},Volume Flow Rate/Floor Area {m3/s/m2},Volume Flow Rate/Exterior Surface Area {m3/s/m2},ACH - Air Changes per Hour,Equation A - Constant Term Coefficient {},Equation B - Temperature Term Coefficient {1/C},Equation C - Velocity Term Coefficient {s/m}, Equation D - Velocity Squared Term Coefficient {s2/m2}
 ZoneInfiltration Airflow Stats Nominal, ATRIUM (6 =< HEIGHT <= 12M)-SCH-B-SPACE FUNCTION INFILTRATION,ALWAYS ON DISCRETE,SP-ATRIUM (6 =< HEIGHT <= 12M)-SCH-B-SPACE FUNCTION SYS-6 FLR-2 SCH-B HPLCMT-WEST ZN,1875.00,187.6,9.500E-002,5.067E-005,2.500E-004,4.800E-002,0.000,0.000,0.224,0.000
 ZoneInfiltration Airflow Stats Nominal, ATRIUM (6 =< HEIGHT <= 12M)-SCH-C-SPACE FUNCTION INFILTRATION,ALWAYS ON DISCRETE,SP-ATRIUM (6 =< HEIGHT <= 12M)-SCH-C-SPACE FUNCTION SYS-6 FLR-3 SCH-C HPLCMT-WEST ZN,1875.00,187.6,9.500E-002,5.067E-005,2.500E-004,4.800E-002,0.000,0.000,0.224,0.000
 ZoneInfiltration Airflow Stats Nominal, ATRIUM (6 =< HEIGHT <= 12M)-SCH-E-SPACE FUNCTION INFILTRATION,ALWAYS ON DISCRETE,SP-ATRIUM (6 =< HEIGHT <= 12M)-SCH-E-SPACE FUNCTION SYS-6 FLR-2 SCH-E HPLCMT-NORTH ZN,1875.00,187.6,9.500E-002,5.067E-005,2.500E-004,4.800E-002,0.000,0.000,0.224,0.000
 ZoneInfiltration Airflow Stats Nominal, ATRIUM (6 =< HEIGHT <= 12M)-SCH-F-SPACE FUNCTION INFILTRATION,ALWAYS ON DISCRETE,SP-ATRIUM (6 =< HEIGHT <= 12M)-SCH-F-SPACE FUNCTION SYS-6 FLR-2 SCH-F HPLCMT-EAST ZN,1875.00,187.6,9.500E-002,5.067E-005,2.500E-004,4.800E-002,0.000,0.000,0.224,0.000
 ZoneInfiltration Airflow Stats Nominal, WHOLEBUILDING-OFFICE INFILTRATION,ALWAYS ON DISCRETE,SP-WHOLEBUILDING-OFFICE SYS-6 FLR-4 SCH-A HPLCMT-SOUTH ZN,1875.00,75.0,0.564,3.007E-004,2.500E-004,0.285,0.000,0.000,0.224,0.000
 ZoneInfiltration Airflow Stats Nominal, WHOLEBUILDING-PERFORMING ARTS THEATRE INFILTRATION,ALWAYS ON DISCRETE,SP-WHOLEBUILDING-PERFORMING ARTS THEATRE SYS-3 FLR-3 SCH-C HPLCMT-EAST ZN,1875.00,234.5,9.500E-002,5.067E-005,2.500E-004,4.800E-002,0.000,0.000,0.224,0.000
 ZoneInfiltration Airflow Stats Nominal, WHOLEBUILDING-POLICE STATION INFILTRATION,ALWAYS ON DISCRETE,SP-WHOLEBUILDING-POLICE STATION SYS-3 FLR-3 SCH-H HPLCMT-NORTH ZN,1875.00,75.0,9.500E-002,5.067E-005,2.500E-004,4.800E-002,0.000,0.000,0.224,0.000
 ZoneInfiltration Airflow Stats Nominal, WHOLEBUILDING-RELIGIOUS BUILDING INFILTRATION,ALWAYS ON DISCRETE,SP-WHOLEBUILDING-RELIGIOUS BUILDING SYS-3 FLR-4 SCH-I HPLCMT-CORE ZN,2500.00,500.2,0.625,2.500E-004,2.500E-004,0.237,0.000,0.000,0.224,0.000
 ZoneInfiltration Airflow Stats Nominal, WHOLEBUILDING-RETAIL AREA INFILTRATION,ALWAYS ON DISCRETE,SP-WHOLEBUILDING-RETAIL AREA SYS-6 FLR-3 SCH-C HPLCMT-SOUTH ZN,1875.00,62.5,9.500E-002,5.067E-005,2.500E-004,4.800E-002,0.000,0.000,0.224,0.000
 ZoneInfiltration Airflow Stats Nominal, WHOLEBUILDING-SCHOOL/UNIVERSITY INFILTRATION,ALWAYS ON DISCRETE,SP-WHOLEBUILDING-SCHOOL/UNIVERSITY SYS-3 FLR-2 SCH-D HPLCMT-SOUTH ZN,1875.00,234.5,9.500E-002,5.067E-005,2.500E-004,4.800E-002,0.000,0.000,0.224,0.000
 ZoneInfiltration Airflow Stats Nominal, WHOLEBUILDING-STORAGE GARAGE INFILTRATION,ALWAYS ON DISCRETE,SP-WHOLEBUILDING-STORAGE GARAGE SYS-4 FLR-4 SCH-K HPLCMT-WEST ZN,1875.00,1.9,0.564,3.007E-004,2.500E-004,0.285,0.000,0.000,0.224,0.000
 ZoneInfiltration Airflow Stats Nominal, WHOLEBUILDING-TRANSPORTATION FACILITY INFILTRATION,ALWAYS ON DISCRETE,SP-WHOLEBUILDING-TRANSPORTATION FACILITY SYS-6 FLR-4 SCH-H HPLCMT-EAST ZN,1875.00,125.0,0.564,3.007E-004,2.500E-004,0.285,0.000,0.000,0.224,0.000
 ZoneInfiltration Airflow Stats Nominal, WHOLEBUILDING-WAREHOUSE INFILTRATION,ALWAYS ON DISCRETE,SP-WHOLEBUILDING-WAREHOUSE SYS-4 FLR-4 SCH-A HPLCMT-NORTH ZN,1875.00,1.3,0.564,3.007E-004,2.500E-004,0.285,0.000,0.000,0.224,0.000
! <AirFlow Model>, Simple
 AirFlow Model, Simple
! <RoomAir Model>, Zone Name, Mixing/Mundt/UCSDDV/UCSDCV/UCSDUFI/UCSDUFE/User Defined
RoomAir Model,SP-ATRIUM (6 =< HEIGHT <= 12M)-SCH-A-SPACE FUNCTION SYS-6 FLR-1 SCH-A HPLCMT-EAST ZN,Mixing/Well-Stirred
RoomAir Model,SP-ATRIUM (6 =< HEIGHT <= 12M)-SCH-B-SPACE FUNCTION SYS-6 FLR-2 SCH-B HPLCMT-WEST ZN,Mixing/Well-Stirred
RoomAir Model,SP-ATRIUM (6 =< HEIGHT <= 12M)-SCH-C-SPACE FUNCTION SYS-6 FLR-3 SCH-C HPLCMT-WEST ZN,Mixing/Well-Stirred
RoomAir Model,SP-ATRIUM (6 =< HEIGHT <= 12M)-SCH-D-SPACE FUNCTION SYS-6 FLR-1 SCH-D HPLCMT-CORE ZN,Mixing/Well-Stirred
RoomAir Model,SP-ATRIUM (6 =< HEIGHT <= 12M)-SCH-E-SPACE FUNCTION SYS-6 FLR-2 SCH-E HPLCMT-NORTH ZN,Mixing/Well-Stirred
RoomAir Model,SP-ATRIUM (6 =< HEIGHT <= 12M)-SCH-F-SPACE FUNCTION SYS-6 FLR-2 SCH-F HPLCMT-EAST ZN,Mixing/Well-Stirred
RoomAir Model,SP-WHOLEBUILDING-OFFICE SYS-6 FLR-4 SCH-A HPLCMT-SOUTH ZN,Mixing/Well-Stirred
RoomAir Model,SP-WHOLEBUILDING-PENITENTIARY SYS-3 FLR-3 SCH-H HPLCMT-CORE ZN,Mixing/Well-Stirred
RoomAir Model,SP-WHOLEBUILDING-PERFORMING ARTS THEATRE SYS-3 FLR-3 SCH-C HPLCMT-EAST ZN,Mixing/Well-Stirred
RoomAir Model,SP-WHOLEBUILDING-POLICE STATION SYS-3 FLR-3 SCH-H HPLCMT-NORTH ZN,Mixing/Well-Stirred
RoomAir Model,SP-WHOLEBUILDING-POST OFFICE SYS-6 FLR-1 SCH-A HPLCMT-WEST ZN,Mixing/Well-Stirred
RoomAir Model,SP-WHOLEBUILDING-RELIGIOUS BUILDING SYS-3 FLR-4 SCH-I HPLCMT-CORE ZN,Mixing/Well-Stirred
RoomAir Model,SP-WHOLEBUILDING-RETAIL AREA SYS-6 FLR-3 SCH-C HPLCMT-SOUTH ZN,Mixing/Well-Stirred
RoomAir Model,SP-WHOLEBUILDING-SCHOOL/UNIVERSITY SYS-3 FLR-2 SCH-D HPLCMT-SOUTH ZN,Mixing/Well-Stirred
RoomAir Model,SP-WHOLEBUILDING-SPORTS ARENA SYS-6 FLR-1 SCH-B HPLCMT-NORTH ZN,Mixing/Well-Stirred
RoomAir Model,SP-WHOLEBUILDING-STORAGE GARAGE SYS-4 FLR-4 SCH-K HPLCMT-WEST ZN,Mixing/Well-Stirred
RoomAir Model,SP-WHOLEBUILDING-TOWN HALL SYS-3 FLR-2 SCH-D HPLCMT-CORE ZN,Mixing/Well-Stirred
RoomAir Model,SP-WHOLEBUILDING-TRANSPORTATION FACILITY SYS-6 FLR-4 SCH-H HPLCMT-EAST ZN,Mixing/Well-Stirred
RoomAir Model,SP-WHOLEBUILDING-WAREHOUSE SYS-4 FLR-4 SCH-A HPLCMT-NORTH ZN,Mixing/Well-Stirred
RoomAir Model,SP-WHOLEBUILDING-WORKSHOP SYS-3 FLR-1 SCH-A HPLCMT-SOUTH ZN,Mixing/Well-Stirred
! <AirflowNetwork Model:Control>, No Multizone or Distribution/Multizone with Distribution/Multizone without Distribution/Multizone with Distribution only during Fan Operation
AirflowNetwork Model:Control,NoMultizoneOrDistribution
! <Zone Volume Capacitance Multiplier>, Sensible Heat Capacity Multiplier, Moisture Capacity Multiplier, Carbon Dioxide Capacity Multiplier, Generic Contaminant Capacity Multiplier
Zone Volume Capacitance Multiplier,   1.000 ,   1.000,   1.000,   1.000
! <Load Timesteps in Zone Design Calculation Averaging Window>, Value
 Load Timesteps in Zone Design Calculation Averaging Window,    6
! <Heating Sizing Factor Information>, Sizing Factor ID, Value
 Heating Sizing Factor Information, Global,   1.3000    
 Heating Sizing Factor Information, Zone SP-ATRIUM (6 =< HEIGHT <= 12M)-SCH-A-SPACE FUNCTION SYS-6 FLR-1 SCH-A HPLCMT-EAST ZN,   1.3000    
 Heating Sizing Factor Information, Zone SP-ATRIUM (6 =< HEIGHT <= 12M)-SCH-B-SPACE FUNCTION SYS-6 FLR-2 SCH-B HPLCMT-WEST ZN,   1.3000    
 Heating Sizing Factor Information, Zone SP-ATRIUM (6 =< HEIGHT <= 12M)-SCH-C-SPACE FUNCTION SYS-6 FLR-3 SCH-C HPLCMT-WEST ZN,   1.3000    
 Heating Sizing Factor Information, Zone SP-ATRIUM (6 =< HEIGHT <= 12M)-SCH-D-SPACE FUNCTION SYS-6 FLR-1 SCH-D HPLCMT-CORE ZN,   1.3000    
 Heating Sizing Factor Information, Zone SP-ATRIUM (6 =< HEIGHT <= 12M)-SCH-E-SPACE FUNCTION SYS-6 FLR-2 SCH-E HPLCMT-NORTH ZN,   1.3000    
 Heating Sizing Factor Information, Zone SP-ATRIUM (6 =< HEIGHT <= 12M)-SCH-F-SPACE FUNCTION SYS-6 FLR-2 SCH-F HPLCMT-EAST ZN,   1.3000    
 Heating Sizing Factor Information, Zone SP-WHOLEBUILDING-OFFICE SYS-6 FLR-4 SCH-A HPLCMT-SOUTH ZN,   1.3000    
 Heating Sizing Factor Information, Zone SP-WHOLEBUILDING-PENITENTIARY SYS-3 FLR-3 SCH-H HPLCMT-CORE ZN,   1.3000    
 Heating Sizing Factor Information, Zone SP-WHOLEBUILDING-PERFORMING ARTS THEATRE SYS-3 FLR-3 SCH-C HPLCMT-EAST ZN,   1.3000    
 Heating Sizing Factor Information, Zone SP-WHOLEBUILDING-POLICE STATION SYS-3 FLR-3 SCH-H HPLCMT-NORTH ZN,   1.3000    
 Heating Sizing Factor Information, Zone SP-WHOLEBUILDING-POST OFFICE SYS-6 FLR-1 SCH-A HPLCMT-WEST ZN,   1.3000    
 Heating Sizing Factor Information, Zone SP-WHOLEBUILDING-RELIGIOUS BUILDING SYS-3 FLR-4 SCH-I HPLCMT-CORE ZN,   1.3000    
 Heating Sizing Factor Information, Zone SP-WHOLEBUILDING-RETAIL AREA SYS-6 FLR-3 SCH-C HPLCMT-SOUTH ZN,   1.3000    
 Heating Sizing Factor Information, Zone SP-WHOLEBUILDING-SCHOOL/UNIVERSITY SYS-3 FLR-2 SCH-D HPLCMT-SOUTH ZN,   1.3000    
 Heating Sizing Factor Information, Zone SP-WHOLEBUILDING-SPORTS ARENA SYS-6 FLR-1 SCH-B HPLCMT-NORTH ZN,   1.3000    
 Heating Sizing Factor Information, Zone SP-WHOLEBUILDING-STORAGE GARAGE SYS-4 FLR-4 SCH-K HPLCMT-WEST ZN,   1.3000    
 Heating Sizing Factor Information, Zone SP-WHOLEBUILDING-TOWN HALL SYS-3 FLR-2 SCH-D HPLCMT-CORE ZN,   1.3000    
 Heating Sizing Factor Information, Zone SP-WHOLEBUILDING-TRANSPORTATION FACILITY SYS-6 FLR-4 SCH-H HPLCMT-EAST ZN,   1.3000    
 Heating Sizing Factor Information, Zone SP-WHOLEBUILDING-WAREHOUSE SYS-4 FLR-4 SCH-A HPLCMT-NORTH ZN,   1.3000    
 Heating Sizing Factor Information, Zone SP-WHOLEBUILDING-WORKSHOP SYS-3 FLR-1 SCH-A HPLCMT-SOUTH ZN,   1.3000    
! <Cooling Sizing Factor Information>, Sizing Factor ID, Value
 Cooling Sizing Factor Information, Global,   1.1000    
 Cooling Sizing Factor Information, Zone SP-ATRIUM (6 =< HEIGHT <= 12M)-SCH-A-SPACE FUNCTION SYS-6 FLR-1 SCH-A HPLCMT-EAST ZN,   1.1000    
 Cooling Sizing Factor Information, Zone SP-ATRIUM (6 =< HEIGHT <= 12M)-SCH-B-SPACE FUNCTION SYS-6 FLR-2 SCH-B HPLCMT-WEST ZN,   1.1000    
 Cooling Sizing Factor Information, Zone SP-ATRIUM (6 =< HEIGHT <= 12M)-SCH-C-SPACE FUNCTION SYS-6 FLR-3 SCH-C HPLCMT-WEST ZN,   1.1000    
 Cooling Sizing Factor Information, Zone SP-ATRIUM (6 =< HEIGHT <= 12M)-SCH-D-SPACE FUNCTION SYS-6 FLR-1 SCH-D HPLCMT-CORE ZN,   1.1000    
 Cooling Sizing Factor Information, Zone SP-ATRIUM (6 =< HEIGHT <= 12M)-SCH-E-SPACE FUNCTION SYS-6 FLR-2 SCH-E HPLCMT-NORTH ZN,   1.1000    
 Cooling Sizing Factor Information, Zone SP-ATRIUM (6 =< HEIGHT <= 12M)-SCH-F-SPACE FUNCTION SYS-6 FLR-2 SCH-F HPLCMT-EAST ZN,   1.1000    
 Cooling Sizing Factor Information, Zone SP-WHOLEBUILDING-OFFICE SYS-6 FLR-4 SCH-A HPLCMT-SOUTH ZN,   1.1000    
 Cooling Sizing Factor Information, Zone SP-WHOLEBUILDING-PENITENTIARY SYS-3 FLR-3 SCH-H HPLCMT-CORE ZN,   1.1000    
 Cooling Sizing Factor Information, Zone SP-WHOLEBUILDING-PERFORMING ARTS THEATRE SYS-3 FLR-3 SCH-C HPLCMT-EAST ZN,   1.1000    
 Cooling Sizing Factor Information, Zone SP-WHOLEBUILDING-POLICE STATION SYS-3 FLR-3 SCH-H HPLCMT-NORTH ZN,   1.1000    
 Cooling Sizing Factor Information, Zone SP-WHOLEBUILDING-POST OFFICE SYS-6 FLR-1 SCH-A HPLCMT-WEST ZN,   1.1000    
 Cooling Sizing Factor Information, Zone SP-WHOLEBUILDING-RELIGIOUS BUILDING SYS-3 FLR-4 SCH-I HPLCMT-CORE ZN,   1.1000    
 Cooling Sizing Factor Information, Zone SP-WHOLEBUILDING-RETAIL AREA SYS-6 FLR-3 SCH-C HPLCMT-SOUTH ZN,   1.1000    
 Cooling Sizing Factor Information, Zone SP-WHOLEBUILDING-SCHOOL/UNIVERSITY SYS-3 FLR-2 SCH-D HPLCMT-SOUTH ZN,   1.1000    
 Cooling Sizing Factor Information, Zone SP-WHOLEBUILDING-SPORTS ARENA SYS-6 FLR-1 SCH-B HPLCMT-NORTH ZN,   1.1000    
 Cooling Sizing Factor Information, Zone SP-WHOLEBUILDING-STORAGE GARAGE SYS-4 FLR-4 SCH-K HPLCMT-WEST ZN,   1.1000    
 Cooling Sizing Factor Information, Zone SP-WHOLEBUILDING-TOWN HALL SYS-3 FLR-2 SCH-D HPLCMT-CORE ZN,   1.1000    
 Cooling Sizing Factor Information, Zone SP-WHOLEBUILDING-TRANSPORTATION FACILITY SYS-6 FLR-4 SCH-H HPLCMT-EAST ZN,   1.1000    
 Cooling Sizing Factor Information, Zone SP-WHOLEBUILDING-WAREHOUSE SYS-4 FLR-4 SCH-A HPLCMT-NORTH ZN,   1.1000    
 Cooling Sizing Factor Information, Zone SP-WHOLEBUILDING-WORKSHOP SYS-3 FLR-1 SCH-A HPLCMT-SOUTH ZN,   1.1000    
! <Zone Sizing Information>, Zone Name, Load Type, Calc Des Load {W}, User Des Load {W}, Calc Des Air Flow Rate {m3/s}, User Des Air Flow Rate {m3/s}, Design Day Name, Date/Time of Peak, Temperature at Peak {C}, Humidity Ratio at Peak {kgWater/kgDryAir}, Floor Area {m2}, # Occupants, Calc Outdoor Air Flow Rate {m3/s}, Calc DOAS Heat Addition Rate {W}
 Zone Sizing Information, SP-ATRIUM (6 =< HEIGHT <= 12M)-SCH-A-SPACE FUNCTION SYS-6 FLR-1 SCH-A HPLCMT-EAST ZN, Cooling, 18137.07943, 19950.78737, 1.40194, 1.54214, FORT MCMURRAY AP ANN CLG .4% CONDNS DB=>MWB, 7/21 12:00:00, 27.28800, 8.76969E-003, 1875.00000, 187.56814, 0.57150, 0.00000
 Zone Sizing Information, SP-ATRIUM (6 =< HEIGHT <= 12M)-SCH-A-SPACE FUNCTION SYS-6 FLR-1 SCH-A HPLCMT-EAST ZN, Heating, 0.00000, 0.00000, 0.00000, 0.57150, FORT MCMURRAY AP ANN HTG 99.6% CONDNS DB, , -36.20000, 1.25811E-004, 1875.00000, 187.56814, 0.57150, 0.00000
 Zone Sizing Information, SP-ATRIUM (6 =< HEIGHT <= 12M)-SCH-B-SPACE FUNCTION SYS-6 FLR-2 SCH-B HPLCMT-WEST ZN, Cooling, 35408.99593, 38949.89552, 2.73676, 3.01044, FORT MCMURRAY AP ANN CLG .4% CONDNS DB=>MWB, 7/21 19:30:00, 23.38200, 8.76969E-003, 1875.00000, 187.56814, 0.57150, 0.00000
 Zone Sizing Information, SP-ATRIUM (6 =< HEIGHT <= 12M)-SCH-B-SPACE FUNCTION SYS-6 FLR-2 SCH-B HPLCMT-WEST ZN, Heating, 19178.88577, 24932.55150, 0.74692, 0.97099, FORT MCMURRAY AP ANN HTG 99.6% CONDNS DB, 1/21 10:00:00, -36.20000, 1.25811E-004, 1875.00000, 187.56814, 0.57150, 0.00000
 Zone Sizing Information, SP-ATRIUM (6 =< HEIGHT <= 12M)-SCH-C-SPACE FUNCTION SYS-6 FLR-3 SCH-C HPLCMT-WEST ZN, Cooling, 42382.19749, 46620.41724, 3.27603, 3.60363, FORT MCMURRAY AP ANN CLG .4% CONDNS DB=>MWB, 7/21 17:40:00, 26.33733, 8.76969E-003, 1875.00000, 187.56814, 0.57150, 0.00000
 Zone Sizing Information, SP-ATRIUM (6 =< HEIGHT <= 12M)-SCH-C-SPACE FUNCTION SYS-6 FLR-3 SCH-C HPLCMT-WEST ZN, Heating, 41332.38153, 53732.09599, 1.64438, 2.13769, FORT MCMURRAY AP ANN HTG 99.6% CONDNS DB, 1/21 09:00:00, -36.20000, 1.25811E-004, 1875.00000, 187.56814, 0.57150, 0.00000
 Zone Sizing Information, SP-ATRIUM (6 =< HEIGHT <= 12M)-SCH-D-SPACE FUNCTION SYS-6 FLR-1 SCH-D HPLCMT-CORE ZN, Cooling, 22267.61505, 24494.37656, 1.72118, 1.89330, FORT MCMURRAY AP ANN CLG .4% CONDNS DB=>MWB, 7/21 12:00:00, 27.28800, 8.76969E-003, 2500.00000, 250.09086, 0.76200, 0.00000
 Zone Sizing Information, SP-ATRIUM (6 =< HEIGHT <= 12M)-SCH-D-SPACE FUNCTION SYS-6 FLR-1 SCH-D HPLCMT-CORE ZN, Heating, 0.00000, 0.00000, 0.00000, 0.76200, FORT MCMURRAY AP ANN HTG 99.6% CONDNS DB, , -36.20000, 1.25811E-004, 2500.00000, 250.09086, 0.76200, 0.00000
 Zone Sizing Information, SP-ATRIUM (6 =< HEIGHT <= 12M)-SCH-E-SPACE FUNCTION SYS-6 FLR-2 SCH-E HPLCMT-NORTH ZN, Cooling, 24565.19376, 27021.71314, 1.89882, 2.08870, FORT MCMURRAY AP ANN CLG .4% CONDNS DB=>MWB, 7/21 16:00:00, 28.15600, 8.76969E-003, 1875.00000, 187.56814, 0.57150, 0.00000
 Zone Sizing Information, SP-ATRIUM (6 =< HEIGHT <= 12M)-SCH-E-SPACE FUNCTION SYS-6 FLR-2 SCH-E HPLCMT-NORTH ZN, Heating, 7909.25367, 10282.02977, 0.31143, 0.57150, FORT MCMURRAY AP ANN HTG 99.6% CONDNS DB, 1/21 09:00:00, -36.20000, 1.25811E-004, 1875.00000, 187.56814, 0.57150, 0.00000
 Zone Sizing Information, SP-ATRIUM (6 =< HEIGHT <= 12M)-SCH-F-SPACE FUNCTION SYS-6 FLR-2 SCH-F HPLCMT-EAST ZN, Cooling, 27283.01653, 30011.31818, 2.10873, 2.31960, FORT MCMURRAY AP ANN CLG .4% CONDNS DB=>MWB, 7/21 08:00:00, 19.72400, 8.76969E-003, 1875.00000, 187.56814, 0.57150, 0.00000
 Zone Sizing Information, SP-ATRIUM (6 =< HEIGHT <= 12M)-SCH-F-SPACE FUNCTION SYS-6 FLR-2 SCH-F HPLCMT-EAST ZN, Heating, 6641.81630, 8634.36119, 0.26757, 0.57150, FORT MCMURRAY AP ANN HTG 99.6% CONDNS DB, 1/21 09:00:00, -36.20000, 1.25811E-004, 1875.00000, 187.56814, 0.57150, 0.00000
 Zone Sizing Information, SP-WHOLEBUILDING-OFFICE SYS-6 FLR-4 SCH-A HPLCMT-SOUTH ZN, Cooling, 88370.75226, 97207.82749, 6.82989, 7.51288, FORT MCMURRAY AP ANN CLG .4% CONDNS DB=>MWB, 7/21 13:30:00, 28.59000, 8.76969E-003, 1875.00000, 75.02726, 0.75248, 0.00000
 Zone Sizing Information, SP-WHOLEBUILDING-OFFICE SYS-6 FLR-4 SCH-A HPLCMT-SOUTH ZN, Heating, 50073.35941, 65095.36724, 1.99714, 2.59628, FORT MCMURRAY AP ANN HTG 99.6% CONDNS DB, 1/21 08:00:00, -36.20000, 1.25811E-004, 1875.00000, 75.02726, 0.75248, 0.00000
 Zone Sizing Information, SP-WHOLEBUILDING-PENITENTIARY SYS-3 FLR-3 SCH-H HPLCMT-CORE ZN, Cooling, 43231.94959, 47555.14455, 3.34133, 3.67547, FORT MCMURRAY AP ANN CLG .4% CONDNS DB=>MWB, 7/21 15:40:00, 28.40400, 8.76969E-003, 2500.00000, 83.36362, 0.95250, 0.00000
 Zone Sizing Information, SP-WHOLEBUILDING-PENITENTIARY SYS-3 FLR-3 SCH-H HPLCMT-CORE ZN, Heating, 0.00000, 0.00000, 0.00000, 0.95250, FORT MCMURRAY AP ANN HTG 99.6% CONDNS DB, , -36.20000, 1.25811E-004, 2500.00000, 83.36362, 0.95250, 0.00000
 Zone Sizing Information, SP-WHOLEBUILDING-PERFORMING ARTS THEATRE SYS-3 FLR-3 SCH-C HPLCMT-EAST ZN, Cooling, 47333.59874, 52066.95862, 3.65887, 4.02476, FORT MCMURRAY AP ANN CLG .4% CONDNS DB=>MWB, 7/21 17:00:00, 27.16400, 8.76969E-003, 1875.00000, 234.46018, 1.12395, 0.00000
 Zone Sizing Information, SP-WHOLEBUILDING-PERFORMING ARTS THEATRE SYS-3 FLR-3 SCH-C HPLCMT-EAST ZN, Heating, 19960.97774, 25949.27106, 0.77861, 1.12395, FORT MCMURRAY AP ANN HTG 99.6% CONDNS DB, 1/21 09:00:00, -36.20000, 1.25811E-004, 1875.00000, 234.46018, 1.12395, 0.00000
 Zone Sizing Information, SP-WHOLEBUILDING-POLICE STATION SYS-3 FLR-3 SCH-H HPLCMT-NORTH ZN, Cooling, 38107.01343, 41917.71478, 2.94527, 3.23979, FORT MCMURRAY AP ANN CLG .4% CONDNS DB=>MWB, 7/21 16:50:00, 27.32933, 8.76969E-003, 1875.00000, 75.02726, 0.75248, 0.00000
 Zone Sizing Information, SP-WHOLEBUILDING-POLICE STATION SYS-3 FLR-3 SCH-H HPLCMT-NORTH ZN, Heating, 0.00000, 0.00000, 0.00000, 0.75248, FORT MCMURRAY AP ANN HTG 99.6% CONDNS DB, , -36.20000, 1.25811E-004, 1875.00000, 75.02726, 0.75248, 0.00000
 Zone Sizing Information, SP-WHOLEBUILDING-POST OFFICE SYS-6 FLR-1 SCH-A HPLCMT-WEST ZN, Cooling, 27276.85605, 30004.54166, 2.10821, 2.31903, FORT MCMURRAY AP ANN CLG .4% CONDNS DB=>MWB, 7/21 17:00:00, 27.16400, 8.76969E-003, 1875.00000, 75.02726, 1.40970, 0.00000
 Zone Sizing Information, SP-WHOLEBUILDING-POST OFFICE SYS-6 FLR-1 SCH-A HPLCMT-WEST ZN, Heating, 0.00000, 0.00000, 0.00000, 1.40970, FORT MCMURRAY AP ANN HTG 99.6% CONDNS DB, , -36.20000, 1.25811E-004, 1875.00000, 75.02726, 1.40970, 0.00000
 Zone Sizing Information, SP-WHOLEBUILDING-RELIGIOUS BUILDING SYS-3 FLR-4 SCH-I HPLCMT-CORE ZN, Cooling, 113921.92875, 125314.12163, 7.08708, 7.79579, FORT MCMURRAY AP ANN CLG .4% CONDNS DB=>MWB, 7/21 15:00:00, 28.90000, 8.76969E-003, 2500.00000, 500.18171, 1.94310, 0.00000
 Zone Sizing Information, SP-WHOLEBUILDING-RELIGIOUS BUILDING SYS-3 FLR-4 SCH-I HPLCMT-CORE ZN, Heating, 34890.09839, 45357.12791, 1.25685, 1.94310, FORT MCMURRAY AP ANN HTG 99.6% CONDNS DB, 1/21 15:00:00, -36.20000, 1.25811E-004, 2500.00000, 500.18171, 1.94310, 0.00000
 Zone Sizing Information, SP-WHOLEBUILDING-RETAIL AREA SYS-6 FLR-3 SCH-C HPLCMT-SOUTH ZN, Cooling, 47564.38768, 52320.82644, 3.67604, 4.04365, FORT MCMURRAY AP ANN CLG .4% CONDNS DB=>MWB, 7/21 14:20:00, 28.90000, 8.76969E-003, 1875.00000, 62.52271, 0.79058, 0.00000
 Zone Sizing Information, SP-WHOLEBUILDING-RETAIL AREA SYS-6 FLR-3 SCH-C HPLCMT-SOUTH ZN, Heating, 22283.18597, 28968.14176, 0.87237, 1.13408, FORT MCMURRAY AP ANN HTG 99.6% CONDNS DB, 1/21 09:00:00, -36.20000, 1.25811E-004, 1875.00000, 62.52271, 0.79058, 0.00000
 Zone Sizing Information, SP-WHOLEBUILDING-SCHOOL/UNIVERSITY SYS-3 FLR-2 SCH-D HPLCMT-SOUTH ZN, Cooling, 48322.57753, 53154.83528, 3.73542, 4.10896, FORT MCMURRAY AP ANN CLG .4% CONDNS DB=>MWB, 7/21 13:50:00, 28.79667, 8.76969E-003, 1875.00000, 234.46018, 1.40018, 0.00000
 Zone Sizing Information, SP-WHOLEBUILDING-SCHOOL/UNIVERSITY SYS-3 FLR-2 SCH-D HPLCMT-SOUTH ZN, Heating, 7709.81758, 10022.76285, 0.30299, 1.40018, FORT MCMURRAY AP ANN HTG 99.6% CONDNS DB, 1/21 09:00:00, -36.20000, 1.25811E-004, 1875.00000, 234.46018, 1.40018, 0.00000
 Zone Sizing Information, SP-WHOLEBUILDING-SPORTS ARENA SYS-6 FLR-1 SCH-B HPLCMT-NORTH ZN, Cooling, 24074.66646, 26482.13311, 1.86078, 2.04686, FORT MCMURRAY AP ANN CLG .4% CONDNS DB=>MWB, 7/21 22:00:00, 20.46800, 8.76969E-003, 1875.00000, 187.56814, 1.23825, 0.00000
 Zone Sizing Information, SP-WHOLEBUILDING-SPORTS ARENA SYS-6 FLR-1 SCH-B HPLCMT-NORTH ZN, Heating, 0.00000, 0.00000, 0.00000, 1.23825, FORT MCMURRAY AP ANN HTG 99.6% CONDNS DB, , -36.20000, 1.25811E-004, 1875.00000, 187.56814, 1.23825, 0.00000
 Zone Sizing Information, SP-WHOLEBUILDING-STORAGE GARAGE SYS-4 FLR-4 SCH-K HPLCMT-WEST ZN, Cooling, 0.00000, 0.00000, 0.00000, 7.14375, FORT MCMURRAY AP ANN CLG .4% CONDNS DB=>MWB, , 28.90000, 8.76969E-003, 1875.00000, 1.87568, 7.14375, 0.00000
 Zone Sizing Information, SP-WHOLEBUILDING-STORAGE GARAGE SYS-4 FLR-4 SCH-K HPLCMT-WEST ZN, Heating, 0.00000, 0.00000, 0.00000, 7.14375, FORT MCMURRAY AP ANN HTG 99.6% CONDNS DB, , -36.20000, 1.25811E-004, 1875.00000, 1.87568, 7.14375, 0.00000
 Zone Sizing Information, SP-WHOLEBUILDING-TOWN HALL SYS-3 FLR-2 SCH-D HPLCMT-CORE ZN, Cooling, 37057.43553, 40763.17908, 2.86413, 3.15054, FORT MCMURRAY AP ANN CLG .4% CONDNS DB=>MWB, 7/21 16:00:00, 28.15600, 8.76969E-003, 2500.00000, 100.03634, 1.00330, 0.00000
 Zone Sizing Information, SP-WHOLEBUILDING-TOWN HALL SYS-3 FLR-2 SCH-D HPLCMT-CORE ZN, Heating, 0.00000, 0.00000, 0.00000, 1.00330, FORT MCMURRAY AP ANN HTG 99.6% CONDNS DB, , -36.20000, 1.25811E-004, 2500.00000, 100.03634, 1.00330, 0.00000
 Zone Sizing Information, SP-WHOLEBUILDING-TRANSPORTATION FACILITY SYS-6 FLR-4 SCH-H HPLCMT-EAST ZN, Cooling, 70949.66267, 78044.62894, 5.48371, 6.03208, FORT MCMURRAY AP ANN CLG .4% CONDNS DB=>MWB, 7/21 10:20:00, 24.80800, 8.76969E-003, 1875.00000, 125.04543, 1.00965, 0.00000
 Zone Sizing Information, SP-WHOLEBUILDING-TRANSPORTATION FACILITY SYS-6 FLR-4 SCH-H HPLCMT-EAST ZN, Heating, 37249.14293, 48423.88581, 1.47857, 1.92214, FORT MCMURRAY AP ANN HTG 99.6% CONDNS DB, 1/21 09:00:00, -36.20000, 1.25811E-004, 1875.00000, 125.04543, 1.00965, 0.00000
 Zone Sizing Information, SP-WHOLEBUILDING-WAREHOUSE SYS-4 FLR-4 SCH-A HPLCMT-NORTH ZN, Cooling, 57183.76221, 62902.13843, 4.41933, 4.86126, FORT MCMURRAY AP ANN CLG .4% CONDNS DB=>MWB, 7/21 13:50:00, 28.79667, 8.76969E-003, 1875.00000, 1.25045, 0.58103, 0.00000
 Zone Sizing Information, SP-WHOLEBUILDING-WAREHOUSE SYS-4 FLR-4 SCH-A HPLCMT-NORTH ZN, Heating, 48075.23936, 62497.81117, 1.91660, 2.49158, FORT MCMURRAY AP ANN HTG 99.6% CONDNS DB, 1/21 08:00:00, -36.20000, 1.25811E-004, 1875.00000, 1.25045, 0.58103, 0.00000
 Zone Sizing Information, SP-WHOLEBUILDING-WORKSHOP SYS-3 FLR-1 SCH-A HPLCMT-SOUTH ZN, Cooling, 35369.27224, 38906.19946, 2.73363, 3.00699, FORT MCMURRAY AP ANN CLG .4% CONDNS DB=>MWB, 7/21 17:00:00, 27.16400, 8.76969E-003, 1875.00000, 62.52271, 2.00978, 0.00000
 Zone Sizing Information, SP-WHOLEBUILDING-WORKSHOP SYS-3 FLR-1 SCH-A HPLCMT-SOUTH ZN, Heating, 0.00000, 0.00000, 0.00000, 2.00978, FORT MCMURRAY AP ANN HTG 99.6% CONDNS DB, , -36.20000, 1.25811E-004, 1875.00000, 62.52271, 2.00978, 0.00000
! <System Sizing Information>, System Name, Load Type, Peak Load Kind, User Design Capacity, Calc Des Air Flow Rate [m3/s], User Des Air Flow Rate [m3/s], Design Day Name, Date/Time of Peak
 System Sizing Information, SYS_3_PSZ SP-WHOLEBUILDING-PENITENTIARY SYS-3 FLR-3 SCH-H HPLCMT-CORE ZN, Cooling, Sensible, 51678.88, 3.67547, 3.67547, FORT MCMURRAY AP ANN CLG .4% CONDNS DB=>MWB, 7/21 05:00:00
 System Sizing Information, SYS_3_PSZ SP-WHOLEBUILDING-PENITENTIARY SYS-3 FLR-3 SCH-H HPLCMT-CORE ZN, Heating, Sensible, 87367.17, 0.95250, 0.95250, FORT MCMURRAY AP ANN HTG 99.6% CONDNS DB, 1/21 00:10:00
 System Sizing Information, SYS_3_PSZ SP-WHOLEBUILDING-PERFORMING ARTS THEATRE SYS-3 FLR-3 SCH-C HPLCMT-EAST ZN, Cooling, Sensible, 55383.53, 4.02476, 4.02476, FORT MCMURRAY AP ANN CLG .4% CONDNS DB=>MWB, 7/21 05:00:00
 System Sizing Information, SYS_3_PSZ SP-WHOLEBUILDING-PERFORMING ARTS THEATRE SYS-3 FLR-3 SCH-C HPLCMT-EAST ZN, Heating, Sensible, 103093.26, 1.12395, 1.12395, FORT MCMURRAY AP ANN HTG 99.6% CONDNS DB, 1/21 00:10:00
 System Sizing Information, SYS_3_PSZ SP-WHOLEBUILDING-POLICE STATION SYS-3 FLR-3 SCH-H HPLCMT-NORTH ZN, Cooling, Sensible, 44171.78, 3.23979, 3.23979, FORT MCMURRAY AP ANN CLG .4% CONDNS DB=>MWB, 7/21 05:00:00
 System Sizing Information, SYS_3_PSZ SP-WHOLEBUILDING-POLICE STATION SYS-3 FLR-3 SCH-H HPLCMT-NORTH ZN, Heating, Sensible, 69020.07, 0.75248, 0.75248, FORT MCMURRAY AP ANN HTG 99.6% CONDNS DB, 1/21 00:10:00
 System Sizing Information, SYS_3_PSZ SP-WHOLEBUILDING-RELIGIOUS BUILDING SYS-3 FLR-4 SCH-I HPLCMT-CORE ZN, Cooling, Sensible, 110305.50, 7.79579, 7.79579, FORT MCMURRAY AP ANN CLG .4% CONDNS DB=>MWB, 7/21 05:00:00
 System Sizing Information, SYS_3_PSZ SP-WHOLEBUILDING-RELIGIOUS BUILDING SYS-3 FLR-4 SCH-I HPLCMT-CORE ZN, Heating, Sensible, 178229.03, 1.94310, 1.94310, FORT MCMURRAY AP ANN HTG 99.6% CONDNS DB, 1/21 00:10:00
 System Sizing Information, SYS_3_PSZ SP-WHOLEBUILDING-SCHOOL/UNIVERSITY SYS-3 FLR-2 SCH-D HPLCMT-SOUTH ZN, Cooling, Sensible, 60115.55, 4.10896, 4.10896, FORT MCMURRAY AP ANN CLG .4% CONDNS DB=>MWB, 7/21 05:00:00
 System Sizing Information, SYS_3_PSZ SP-WHOLEBUILDING-SCHOOL/UNIVERSITY SYS-3 FLR-2 SCH-D HPLCMT-SOUTH ZN, Heating, Sensible, 128429.74, 1.40018, 1.40018, FORT MCMURRAY AP ANN HTG 99.6% CONDNS DB, 1/21 00:10:00
 System Sizing Information, SYS_3_PSZ SP-WHOLEBUILDING-TOWN HALL SYS-3 FLR-2 SCH-D HPLCMT-CORE ZN, Cooling, Sensible, 44963.00, 3.15054, 3.15054, FORT MCMURRAY AP ANN CLG .4% CONDNS DB=>MWB, 7/21 05:00:00
 System Sizing Information, SYS_3_PSZ SP-WHOLEBUILDING-TOWN HALL SYS-3 FLR-2 SCH-D HPLCMT-CORE ZN, Heating, Sensible, 92026.76, 1.00330, 1.00330, FORT MCMURRAY AP ANN HTG 99.6% CONDNS DB, 1/21 00:10:00
 System Sizing Information, SYS_3_PSZ SP-WHOLEBUILDING-WORKSHOP SYS-3 FLR-1 SCH-A HPLCMT-SOUTH ZN, Cooling, Sensible, 45670.96, 3.00699, 3.00699, FORT MCMURRAY AP ANN CLG .4% CONDNS DB=>MWB, 7/21 05:00:00
 System Sizing Information, SYS_3_PSZ SP-WHOLEBUILDING-WORKSHOP SYS-3 FLR-1 SCH-A HPLCMT-SOUTH ZN, Heating, Sensible, 184344.74, 2.00978, 2.00978, FORT MCMURRAY AP ANN HTG 99.6% CONDNS DB, 1/21 00:10:00
 System Sizing Information, SYS_4_PSZ_SP-WHOLEBUILDING-STORAGE GARAGE SYS-4 FLR-4 SCH-K HPLCMT-WEST ZN, Cooling, Sensible, 131547.16, 7.14375, 7.14375, FORT MCMURRAY AP ANN CLG .4% CONDNS DB=>MWB, 7/21 05:00:00
 System Sizing Information, SYS_4_PSZ_SP-WHOLEBUILDING-STORAGE GARAGE SYS-4 FLR-4 SCH-K HPLCMT-WEST ZN, Heating, Sensible, 655253.80, 7.14375, 7.14375, FORT MCMURRAY AP ANN HTG 99.6% CONDNS DB, 1/21 00:10:00
 System Sizing Information, SYS_4_PSZ_SP-WHOLEBUILDING-WAREHOUSE SYS-4 FLR-4 SCH-A HPLCMT-NORTH ZN, Cooling, Sensible, 65157.20, 4.86126, 4.86126, FORT MCMURRAY AP ANN CLG .4% CONDNS DB=>MWB, 7/21 05:00:00
 System Sizing Information, SYS_4_PSZ_SP-WHOLEBUILDING-WAREHOUSE SYS-4 FLR-4 SCH-A HPLCMT-NORTH ZN, Heating, Sensible, 100137.18, 2.49158, 2.49158, FORT MCMURRAY AP ANN HTG 99.6% CONDNS DB, 1/21 08:00:00
 System Sizing Information, SYS_6_VAV WITH REHEAT, Cooling, Sensible, 106118.24, 7.80133, 7.80133, FORT MCMURRAY AP ANN CLG .4% CONDNS DB=>MWB, 7/21 00:00:00
 System Sizing Information, SYS_6_VAV WITH REHEAT, Heating, Sensible, 227324.53, 3.98145, 3.98145, FORT MCMURRAY AP ANN HTG 99.6% CONDNS DB, 1/21 00:10:00
 System Sizing Information, SYS_6_VAV WITH REHEAT 1, Cooling, Sensible, 93672.20, 7.41874, 7.41874, FORT MCMURRAY AP ANN CLG .4% CONDNS DB=>MWB, 7/21 00:00:00
 System Sizing Information, SYS_6_VAV WITH REHEAT 1, Heating, Sensible, 93916.92, 2.11399, 2.11399, FORT MCMURRAY AP ANN HTG 99.6% CONDNS DB, 1/21 00:10:00
 System Sizing Information, SYS_6_VAV WITH REHEAT 2, Cooling, Sensible, 103237.85, 7.64728, 7.64728, FORT MCMURRAY AP ANN CLG .4% CONDNS DB=>MWB, 7/21 00:00:00
 System Sizing Information, SYS_6_VAV WITH REHEAT 2, Heating, Sensible, 58734.27, 3.27178, 3.27178, FORT MCMURRAY AP ANN HTG 99.6% CONDNS DB, 1/21 00:10:00
 System Sizing Information, SYS_6_VAV WITH REHEAT 3, Cooling, Sensible, 178474.10, 13.54496, 13.54496, FORT MCMURRAY AP ANN CLG .4% CONDNS DB=>MWB, 7/21 00:00:00
 System Sizing Information, SYS_6_VAV WITH REHEAT 3, Heating, Sensible, 72813.79, 4.51842, 4.51842, FORT MCMURRAY AP ANN HTG 99.6% CONDNS DB, 1/21 21:40:00
! <Component Sizing Information>, Component Type, Component Name, Input Field Description, Value
 Component Sizing Information, AirTerminal:SingleDuct:VAV:Reheat, AIR TERMINAL SINGLE DUCT VAV REHEAT 1, Design Size Maximum Air Flow Rate [m3/s], 1.54214
 Component Sizing Information, AirTerminal:SingleDuct:VAV:Reheat, AIR TERMINAL SINGLE DUCT VAV REHEAT 1, Design Size Constant Minimum Air Flow Fraction, 0.92647
 Component Sizing Information, AirTerminal:SingleDuct:VAV:Reheat, AIR TERMINAL SINGLE DUCT VAV REHEAT 1, User-Specified Constant Minimum Air Flow Fraction, 0.30000
 Component Sizing Information, AirTerminal:SingleDuct:VAV:Reheat, AIR TERMINAL SINGLE DUCT VAV REHEAT 1, Design Size Minimum Air Flow Rate [m3/s], 0.46264
 Component Sizing Information, AirTerminal:SingleDuct:VAV:Reheat, AIR TERMINAL SINGLE DUCT VAV REHEAT 1, Design Size Maximum Flow per Zone Floor Area during Reheat [m3/s-m2], 2.46742E-004
 Component Sizing Information, AirTerminal:SingleDuct:VAV:Reheat, AIR TERMINAL SINGLE DUCT VAV REHEAT 1, Design Size Maximum Flow Fraction during Reheat [], 0.30000
 Component Sizing Information, AirTerminal:SingleDuct:VAV:Reheat, AIR TERMINAL SINGLE DUCT VAV REHEAT 1, Design Size Maximum Reheat Water Flow Rate [m3/s], 7.35034E-005
 Component Sizing Information, AirTerminal:SingleDuct:VAV:Reheat, AIR TERMINAL SINGLE DUCT VAV REHEAT 1, Design Size Reheat Coil Sizing Air Volume Flow Rate [m3/s], 0.46264
 Component Sizing Information, AirTerminal:SingleDuct:VAV:Reheat, AIR TERMINAL SINGLE DUCT VAV REHEAT 1, Design Size Reheat Coil Sizing Inlet Air Temperature [C], 13.10000
 Component Sizing Information, AirTerminal:SingleDuct:VAV:Reheat, AIR TERMINAL SINGLE DUCT VAV REHEAT 1, Design Size Reheat Coil Sizing Inlet Air Humidity Ratio [kgWater/kgDryAir], 8.00000E-003
 Component Sizing Information, Coil:Heating:Water, COIL HEATING WATER 2, Design Size Rated Capacity [W], 4921.28470
 Component Sizing Information, Coil:Heating:Water, COIL HEATING WATER 2, Design Size Maximum Water Flow Rate [m3/s], 7.35034E-005
 Component Sizing Information, Coil:Heating:Water, COIL HEATING WATER 2, Design Size U-Factor Times Area Value [W/K], 88.73240
! <Water Heating Coil Capacity Information>,Component Type,Name,Nominal Total Capacity {W}
Water Heating Coil Capacity Information,Coil:Heating:Water,COIL HEATING WATER 2,4614.39
 Component Sizing Information, ZoneHVAC:Baseboard:Convective:Water, ZONE HVAC BASEBOARD CONVECTIVE WATER 10, Design Size Maximum Water Flow Rate [m3/s], 0.00000
 Component Sizing Information, ZoneHVAC:Baseboard:Convective:Water, ZONE HVAC BASEBOARD CONVECTIVE WATER 10, Design Size U-Factor Times Area Value [W/K], 0.00000
 Component Sizing Information, AirTerminal:SingleDuct:VAV:Reheat, AIR TERMINAL SINGLE DUCT VAV REHEAT 5, Design Size Maximum Air Flow Rate [m3/s], 3.01044
 Component Sizing Information, AirTerminal:SingleDuct:VAV:Reheat, AIR TERMINAL SINGLE DUCT VAV REHEAT 5, Design Size Constant Minimum Air Flow Fraction, 0.47460
 Component Sizing Information, AirTerminal:SingleDuct:VAV:Reheat, AIR TERMINAL SINGLE DUCT VAV REHEAT 5, User-Specified Constant Minimum Air Flow Fraction, 0.30000
 Component Sizing Information, AirTerminal:SingleDuct:VAV:Reheat, AIR TERMINAL SINGLE DUCT VAV REHEAT 5, Design Size Minimum Air Flow Rate [m3/s], 0.90313
 Component Sizing Information, AirTerminal:SingleDuct:VAV:Reheat, AIR TERMINAL SINGLE DUCT VAV REHEAT 5, Design Size Maximum Flow per Zone Floor Area during Reheat [m3/s-m2], 4.81670E-004
 Component Sizing Information, AirTerminal:SingleDuct:VAV:Reheat, AIR TERMINAL SINGLE DUCT VAV REHEAT 5, Design Size Maximum Flow Fraction during Reheat [], 0.30000
 Component Sizing Information, AirTerminal:SingleDuct:VAV:Reheat, AIR TERMINAL SINGLE DUCT VAV REHEAT 5, Design Size Maximum Reheat Water Flow Rate [m3/s], 5.34450E-004
 Component Sizing Information, AirTerminal:SingleDuct:VAV:Reheat, AIR TERMINAL SINGLE DUCT VAV REHEAT 5, Design Size Reheat Coil Sizing Air Volume Flow Rate [m3/s], 0.97099
 Component Sizing Information, AirTerminal:SingleDuct:VAV:Reheat, AIR TERMINAL SINGLE DUCT VAV REHEAT 5, Design Size Reheat Coil Sizing Inlet Air Temperature [C], 13.10000
 Component Sizing Information, AirTerminal:SingleDuct:VAV:Reheat, AIR TERMINAL SINGLE DUCT VAV REHEAT 5, Design Size Reheat Coil Sizing Inlet Air Humidity Ratio [kgWater/kgDryAir], 8.00000E-003
 Component Sizing Information, Coil:Heating:Water, COIL HEATING WATER 7, Design Size Rated Capacity [W], 35783.11905
 Component Sizing Information, Coil:Heating:Water, COIL HEATING WATER 7, Design Size Maximum Water Flow Rate [m3/s], 5.34450E-004
 Component Sizing Information, Coil:Heating:Water, COIL HEATING WATER 7, Design Size U-Factor Times Area Value [W/K], 821.58365
Water Heating Coil Capacity Information,Coil:Heating:Water,COIL HEATING WATER 7,32951.15
 Component Sizing Information, ZoneHVAC:Baseboard:Convective:Water, ZONE HVAC BASEBOARD CONVECTIVE WATER 14, Design Size Maximum Water Flow Rate [m3/s], 3.72388E-004
 Component Sizing Information, ZoneHVAC:Baseboard:Convective:Water, ZONE HVAC BASEBOARD CONVECTIVE WATER 14, Design Size U-Factor Times Area Value [W/K], 755.65761
 Component Sizing Information, AirTerminal:SingleDuct:VAV:Reheat, AIR TERMINAL SINGLE DUCT VAV REHEAT 8, Design Size Maximum Air Flow Rate [m3/s], 3.60363
 Component Sizing Information, AirTerminal:SingleDuct:VAV:Reheat, AIR TERMINAL SINGLE DUCT VAV REHEAT 8, Design Size Constant Minimum Air Flow Fraction, 0.39647
 Component Sizing Information, AirTerminal:SingleDuct:VAV:Reheat, AIR TERMINAL SINGLE DUCT VAV REHEAT 8, User-Specified Constant Minimum Air Flow Fraction, 0.30000
 Component Sizing Information, AirTerminal:SingleDuct:VAV:Reheat, AIR TERMINAL SINGLE DUCT VAV REHEAT 8, Design Size Minimum Air Flow Rate [m3/s], 1.08109
 Component Sizing Information, AirTerminal:SingleDuct:VAV:Reheat, AIR TERMINAL SINGLE DUCT VAV REHEAT 8, Design Size Maximum Flow per Zone Floor Area during Reheat [m3/s-m2], 5.76582E-004
 Component Sizing Information, AirTerminal:SingleDuct:VAV:Reheat, AIR TERMINAL SINGLE DUCT VAV REHEAT 8, Design Size Maximum Flow Fraction during Reheat [], 0.30000
 Component Sizing Information, AirTerminal:SingleDuct:VAV:Reheat, AIR TERMINAL SINGLE DUCT VAV REHEAT 8, Design Size Maximum Reheat Water Flow Rate [m3/s], 1.15600E-003
 Component Sizing Information, AirTerminal:SingleDuct:VAV:Reheat, AIR TERMINAL SINGLE DUCT VAV REHEAT 8, Design Size Reheat Coil Sizing Air Volume Flow Rate [m3/s], 2.13769
 Component Sizing Information, AirTerminal:SingleDuct:VAV:Reheat, AIR TERMINAL SINGLE DUCT VAV REHEAT 8, Design Size Reheat Coil Sizing Inlet Air Temperature [C], 13.10000
 Component Sizing Information, AirTerminal:SingleDuct:VAV:Reheat, AIR TERMINAL SINGLE DUCT VAV REHEAT 8, Design Size Reheat Coil Sizing Inlet Air Humidity Ratio [kgWater/kgDryAir], 8.00000E-003
 Component Sizing Information, Coil:Heating:Water, COIL HEATING WATER 11, Design Size Rated Capacity [W], 77397.97256
 Component Sizing Information, Coil:Heating:Water, COIL HEATING WATER 11, Design Size Maximum Water Flow Rate [m3/s], 1.15600E-003
 Component Sizing Information, Coil:Heating:Water, COIL HEATING WATER 11, Design Size U-Factor Times Area Value [W/K], 1765.34328
Water Heating Coil Capacity Information,Coil:Heating:Water,COIL HEATING WATER 11,57618.02
 Component Sizing Information, ZoneHVAC:Baseboard:Convective:Water, ZONE HVAC BASEBOARD CONVECTIVE WATER 17, Design Size Maximum Water Flow Rate [m3/s], 8.02533E-004
 Component Sizing Information, ZoneHVAC:Baseboard:Convective:Water, ZONE HVAC BASEBOARD CONVECTIVE WATER 17, Design Size U-Factor Times Area Value [W/K], 1636.57789
 Component Sizing Information, AirTerminal:SingleDuct:VAV:Reheat, AIR TERMINAL SINGLE DUCT VAV REHEAT 2, Design Size Maximum Air Flow Rate [m3/s], 1.89330
 Component Sizing Information, AirTerminal:SingleDuct:VAV:Reheat, AIR TERMINAL SINGLE DUCT VAV REHEAT 2, Design Size Constant Minimum Air Flow Fraction, 1.00000
 Component Sizing Information, AirTerminal:SingleDuct:VAV:Reheat, AIR TERMINAL SINGLE DUCT VAV REHEAT 2, User-Specified Constant Minimum Air Flow Fraction, 0.30000
 Component Sizing Information, AirTerminal:SingleDuct:VAV:Reheat, AIR TERMINAL SINGLE DUCT VAV REHEAT 2, Design Size Minimum Air Flow Rate [m3/s], 0.56799
 Component Sizing Information, AirTerminal:SingleDuct:VAV:Reheat, AIR TERMINAL SINGLE DUCT VAV REHEAT 2, Design Size Maximum Flow per Zone Floor Area during Reheat [m3/s-m2], 2.27196E-004
 Component Sizing Information, AirTerminal:SingleDuct:VAV:Reheat, AIR TERMINAL SINGLE DUCT VAV REHEAT 2, Design Size Maximum Flow Fraction during Reheat [], 0.30000
 Component Sizing Information, AirTerminal:SingleDuct:VAV:Reheat, AIR TERMINAL SINGLE DUCT VAV REHEAT 2, Design Size Maximum Reheat Water Flow Rate [m3/s], 9.02408E-005
 Component Sizing Information, AirTerminal:SingleDuct:VAV:Reheat, AIR TERMINAL SINGLE DUCT VAV REHEAT 2, Design Size Reheat Coil Sizing Air Volume Flow Rate [m3/s], 0.56799
 Component Sizing Information, AirTerminal:SingleDuct:VAV:Reheat, AIR TERMINAL SINGLE DUCT VAV REHEAT 2, Design Size Reheat Coil Sizing Inlet Air Temperature [C], 13.10000
 Component Sizing Information, AirTerminal:SingleDuct:VAV:Reheat, AIR TERMINAL SINGLE DUCT VAV REHEAT 2, Design Size Reheat Coil Sizing Inlet Air Humidity Ratio [kgWater/kgDryAir], 8.00000E-003
 Component Sizing Information, Coil:Heating:Water, COIL HEATING WATER 3, Design Size Rated Capacity [W], 6041.91075
 Component Sizing Information, Coil:Heating:Water, COIL HEATING WATER 3, Design Size Maximum Water Flow Rate [m3/s], 9.02408E-005
 Component Sizing Information, Coil:Heating:Water, COIL HEATING WATER 3, Design Size U-Factor Times Area Value [W/K], 108.93766
Water Heating Coil Capacity Information,Coil:Heating:Water,COIL HEATING WATER 3,5665.13
 Component Sizing Information, ZoneHVAC:Baseboard:Convective:Water, ZONE HVAC BASEBOARD CONVECTIVE WATER 11, Design Size Maximum Water Flow Rate [m3/s], 0.00000
 Component Sizing Information, ZoneHVAC:Baseboard:Convective:Water, ZONE HVAC BASEBOARD CONVECTIVE WATER 11, Design Size U-Factor Times Area Value [W/K], 0.00000
 Component Sizing Information, AirTerminal:SingleDuct:VAV:Reheat, AIR TERMINAL SINGLE DUCT VAV REHEAT 6, Design Size Maximum Air Flow Rate [m3/s], 2.08870
 Component Sizing Information, AirTerminal:SingleDuct:VAV:Reheat, AIR TERMINAL SINGLE DUCT VAV REHEAT 6, Design Size Constant Minimum Air Flow Fraction, 0.68404
 Component Sizing Information, AirTerminal:SingleDuct:VAV:Reheat, AIR TERMINAL SINGLE DUCT VAV REHEAT 6, User-Specified Constant Minimum Air Flow Fraction, 0.30000
 Component Sizing Information, AirTerminal:SingleDuct:VAV:Reheat, AIR TERMINAL SINGLE DUCT VAV REHEAT 6, Design Size Minimum Air Flow Rate [m3/s], 0.62661
 Component Sizing Information, AirTerminal:SingleDuct:VAV:Reheat, AIR TERMINAL SINGLE DUCT VAV REHEAT 6, Design Size Maximum Flow per Zone Floor Area during Reheat [m3/s-m2], 3.34192E-004
 Component Sizing Information, AirTerminal:SingleDuct:VAV:Reheat, AIR TERMINAL SINGLE DUCT VAV REHEAT 6, Design Size Maximum Flow Fraction during Reheat [], 0.30000
 Component Sizing Information, AirTerminal:SingleDuct:VAV:Reheat, AIR TERMINAL SINGLE DUCT VAV REHEAT 6, Design Size Maximum Reheat Water Flow Rate [m3/s], 2.57012E-004
 Component Sizing Information, AirTerminal:SingleDuct:VAV:Reheat, AIR TERMINAL SINGLE DUCT VAV REHEAT 6, Design Size Reheat Coil Sizing Air Volume Flow Rate [m3/s], 0.62661
 Component Sizing Information, AirTerminal:SingleDuct:VAV:Reheat, AIR TERMINAL SINGLE DUCT VAV REHEAT 6, Design Size Reheat Coil Sizing Inlet Air Temperature [C], 13.10000
 Component Sizing Information, AirTerminal:SingleDuct:VAV:Reheat, AIR TERMINAL SINGLE DUCT VAV REHEAT 6, Design Size Reheat Coil Sizing Inlet Air Humidity Ratio [kgWater/kgDryAir], 8.00000E-003
 Component Sizing Information, Coil:Heating:Water, COIL HEATING WATER 8, Design Size Rated Capacity [W], 17207.73531
 Component Sizing Information, Coil:Heating:Water, COIL HEATING WATER 8, Design Size Maximum Water Flow Rate [m3/s], 2.57012E-004
 Component Sizing Information, Coil:Heating:Water, COIL HEATING WATER 8, Design Size U-Factor Times Area Value [W/K], 362.31453
Water Heating Coil Capacity Information,Coil:Heating:Water,COIL HEATING WATER 8,16142.85
 Component Sizing Information, ZoneHVAC:Baseboard:Convective:Water, ZONE HVAC BASEBOARD CONVECTIVE WATER 15, Design Size Maximum Water Flow Rate [m3/s], 1.53570E-004
 Component Sizing Information, ZoneHVAC:Baseboard:Convective:Water, ZONE HVAC BASEBOARD CONVECTIVE WATER 15, Design Size U-Factor Times Area Value [W/K], 311.01599
 Component Sizing Information, AirTerminal:SingleDuct:VAV:Reheat, AIR TERMINAL SINGLE DUCT VAV REHEAT 7, Design Size Maximum Air Flow Rate [m3/s], 2.31960
 Component Sizing Information, AirTerminal:SingleDuct:VAV:Reheat, AIR TERMINAL SINGLE DUCT VAV REHEAT 7, Design Size Constant Minimum Air Flow Fraction, 0.61595
 Component Sizing Information, AirTerminal:SingleDuct:VAV:Reheat, AIR TERMINAL SINGLE DUCT VAV REHEAT 7, User-Specified Constant Minimum Air Flow Fraction, 0.30000
 Component Sizing Information, AirTerminal:SingleDuct:VAV:Reheat, AIR TERMINAL SINGLE DUCT VAV REHEAT 7, Design Size Minimum Air Flow Rate [m3/s], 0.69588
 Component Sizing Information, AirTerminal:SingleDuct:VAV:Reheat, AIR TERMINAL SINGLE DUCT VAV REHEAT 7, Design Size Maximum Flow per Zone Floor Area during Reheat [m3/s-m2], 3.71136E-004
 Component Sizing Information, AirTerminal:SingleDuct:VAV:Reheat, AIR TERMINAL SINGLE DUCT VAV REHEAT 7, Design Size Maximum Flow Fraction during Reheat [], 0.30000
 Component Sizing Information, AirTerminal:SingleDuct:VAV:Reheat, AIR TERMINAL SINGLE DUCT VAV REHEAT 7, Design Size Maximum Reheat Water Flow Rate [m3/s], 2.43446E-004
 Component Sizing Information, AirTerminal:SingleDuct:VAV:Reheat, AIR TERMINAL SINGLE DUCT VAV REHEAT 7, Design Size Reheat Coil Sizing Air Volume Flow Rate [m3/s], 0.69588
 Component Sizing Information, AirTerminal:SingleDuct:VAV:Reheat, AIR TERMINAL SINGLE DUCT VAV REHEAT 7, Design Size Reheat Coil Sizing Inlet Air Temperature [C], 13.10000
 Component Sizing Information, AirTerminal:SingleDuct:VAV:Reheat, AIR TERMINAL SINGLE DUCT VAV REHEAT 7, Design Size Reheat Coil Sizing Inlet Air Humidity Ratio [kgWater/kgDryAir], 8.00000E-003
[...]
 Component Sizing Information, Fan:VariableVolume, SYS6 SUPPLY FAN 2, Design Size Maximum Flow Rate [m3/s], 7.64728
 Component Sizing Information, Controller:WaterCoil, CONTROLLER WATER COIL 13, Maximum Actuated Flow [m3/s], 5.52763E-003
 Component Sizing Information, Controller:WaterCoil, CONTROLLER WATER COIL 13, Controller Convergence Tolerance, 8.61472E-005
 Component Sizing Information, Controller:WaterCoil, CONTROLLER WATER COIL 12, Maximum Actuated Flow [m3/s], 1.02278E-003
 Component Sizing Information, Controller:WaterCoil, CONTROLLER WATER COIL 12, Controller Convergence Tolerance, 4.65585E-004
 Component Sizing Information, Fan:VariableVolume, SYS6 RETURN FAN 3, Design Size Maximum Flow Rate [m3/s], 13.54496
 Component Sizing Information, Controller:OutdoorAir, CONTROLLER OUTDOOR AIR 13, Maximum Outdoor Air Flow Rate [m3/s], 13.54496
 Component Sizing Information, Controller:OutdoorAir, CONTROLLER OUTDOOR AIR 13, Minimum Outdoor Air Flow Rate [m3/s], 1.76213
 Component Sizing Information, Coil:Cooling:Water, COIL COOLING WATER 4, Design Size Design Coil Load [W], 234032.67625
 Component Sizing Information, Coil:Cooling:Water, COIL COOLING WATER 4, Design Size Design Water Flow Rate [m3/s], 9.29238E-003
 Component Sizing Information, Coil:Cooling:Water, COIL COOLING WATER 4, Design Size Design Air Flow Rate [m3/s], 13.54496
 Component Sizing Information, Coil:Cooling:Water, COIL COOLING WATER 4, Design Size Design Inlet Air Temperature [C], 24.37730
 Component Sizing Information, Coil:Cooling:Water, COIL COOLING WATER 4, Design Size Design Inlet Water Temperature [C], 7.00000
 Component Sizing Information, Coil:Cooling:Water, COIL COOLING WATER 4, Design Size Design Outlet Air Temperature [C], 13.00000
 Component Sizing Information, Coil:Cooling:Water, COIL COOLING WATER 4, Design Size Design Inlet Air Humidity Ratio, 8.75458E-003
 Component Sizing Information, Coil:Cooling:Water, COIL COOLING WATER 4, Design Size Design Outlet Air Humidity Ratio, 8.75458E-003
Water Cooling Coil Capacity Information,Coil:Cooling:Water,COIL COOLING WATER 4,315559.30,220041.06,95518.24,0.70,37236.39,377.67
 Component Sizing Information, Coil:Heating:Water, COIL HEATING WATER 13, Design Size Rated Capacity [W], 77401.59099
 Component Sizing Information, Coil:Heating:Water, COIL HEATING WATER 13, Design Size Maximum Water Flow Rate [m3/s], 1.15606E-003
 Component Sizing Information, Coil:Heating:Water, COIL HEATING WATER 13, Design Size U-Factor Times Area Value [W/K], 1185.50693
Water Heating Coil Capacity Information,Coil:Heating:Water,COIL HEATING WATER 13,59648.41
 Component Sizing Information, Fan:VariableVolume, SYS6 SUPPLY FAN 3, Design Size Maximum Flow Rate [m3/s], 13.54496
 Component Sizing Information, Controller:WaterCoil, CONTROLLER WATER COIL 17, Maximum Actuated Flow [m3/s], 9.29238E-003
 Component Sizing Information, Controller:WaterCoil, CONTROLLER WATER COIL 17, Controller Convergence Tolerance, 5.12452E-005
 Component Sizing Information, Controller:WaterCoil, CONTROLLER WATER COIL 16, Maximum Actuated Flow [m3/s], 1.15606E-003
 Component Sizing Information, Controller:WaterCoil, CONTROLLER WATER COIL 16, Controller Convergence Tolerance, 4.11910E-004
Water Heater Information,WaterHeater:Mixed,836GAL NATURALGAS WATER HEATER - 564KBTU/HR,3.1644,165340.0,0.206,0.6257
 Component Sizing Information, PlantLoop, CHILLED WATER LOOP, Maximum Loop Flow Rate [m3/s], 2.62021E-002
 Component Sizing Information, PlantLoop, CHILLED WATER LOOP, Plant Loop Volume [m3], 3.14425
 Component Sizing Information, Pump:ConstantSpeed, PUMP CONSTANT SPEED 1, Design Flow Rate [m3/s], 2.62021E-002
 Component Sizing Information, Pump:ConstantSpeed, PUMP CONSTANT SPEED 1, Design Power Consumption [W], 6694.30098
 Component Sizing Information, Chiller:Electric:EIR, PRIMARY CHILLER WATERCOOLED SCROLL, Design Size Reference Chilled Water Flow Rate [m3/s], 2.62021E-002
 Component Sizing Information, Chiller:Electric:EIR, PRIMARY CHILLER WATERCOOLED SCROLL, Design Size Reference Capacity [W], 659900.20807
 Component Sizing Information, Chiller:Electric:EIR, PRIMARY CHILLER WATERCOOLED SCROLL, Design Size Reference Condenser Fluid Flow Rate [m3/s], 3.10998E-002
! <Chiller Standard Rating Information>, Component Type, Component Name, IPLV in SI Units {W/W}, IPLV in IP Units {Btu/W-h}
 Chiller Standard Rating Information, Chiller:Electric:EIR, PRIMARY CHILLER WATERCOOLED SCROLL, 7.88, 26.88
 Component Sizing Information, Chiller:Electric:EIR, SECONDARY CHILLER WATERCOOLED SCROLL, Design Size Reference Chilled Water Flow Rate [m3/s], 2.62021E-002
 Component Sizing Information, Chiller:Electric:EIR, SECONDARY CHILLER WATERCOOLED SCROLL, Design Size Reference Capacity [W], 659900.20807
 Component Sizing Information, Chiller:Electric:EIR, SECONDARY CHILLER WATERCOOLED SCROLL, Design Size Reference Condenser Fluid Flow Rate [m3/s], 3.10998E-002
 Chiller Standard Rating Information, Chiller:Electric:EIR, SECONDARY CHILLER WATERCOOLED SCROLL, 7.88, 26.88
 Component Sizing Information, PlantLoop, CONDENSER WATER LOOP, Maximum Loop Flow Rate [m3/s], 6.21997E-002
 Component Sizing Information, PlantLoop, CONDENSER WATER LOOP, Plant Loop Volume [m3], 7.46396
 Component Sizing Information, Pump:ConstantSpeed, PUMP CONSTANT SPEED 2, Design Flow Rate [m3/s], 6.21997E-002
 Component Sizing Information, Pump:ConstantSpeed, PUMP CONSTANT SPEED 2, Design Power Consumption [W], 15891.22131
 Component Sizing Information, CoolingTower:SingleSpeed, COOLING TOWER SINGLE SPEED 1, Design Water Flow Rate [m3/s], 6.21997E-002
 Component Sizing Information, CoolingTower:SingleSpeed, COOLING TOWER SINGLE SPEED 1, Fan Power at Design Air Flow Rate [W], 13647.67491
 Component Sizing Information, CoolingTower:SingleSpeed, COOLING TOWER SINGLE SPEED 1, Design Air Flow Rate [m3/s], 37.52837
 Component Sizing Information, CoolingTower:SingleSpeed, COOLING TOWER SINGLE SPEED 1, U-Factor Times Area Value at Design Air Flow Rate [W/C], 67015.65392
 Component Sizing Information, CoolingTower:SingleSpeed, COOLING TOWER SINGLE SPEED 1, Free Convection Regime Air Flow Rate [m3/s], 3.75284
 Component Sizing Information, CoolingTower:SingleSpeed, COOLING TOWER SINGLE SPEED 1, Free Convection U-Factor Times Area Value [W/K], 6701.56539
 Component Sizing Information, PlantLoop, HOT WATER LOOP, Maximum Loop Flow Rate [m3/s], 1.69329E-002
 Component Sizing Information, PlantLoop, HOT WATER LOOP, Plant Loop Volume [m3], 2.03194
 Component Sizing Information, Pump:VariableSpeed, PUMP VARIABLE SPEED 1, Design Flow Rate [m3/s], 1.69329E-002
 Component Sizing Information, Pump:VariableSpeed, PUMP VARIABLE SPEED 1, Design Power Consumption [W], 4326.12976
 Component Sizing Information, Boiler:HotWater, PRIMARY BOILER, Design Size Nominal Capacity [W], 1138097.49926
 Component Sizing Information, Boiler:HotWater, PRIMARY BOILER, Design Size Design Water Flow Rate [m3/s], 1.69329E-002
 Component Sizing Information, Boiler:HotWater, SECONDARY BOILER, Design Size Nominal Capacity [W], 1138097.49926
 Component Sizing Information, Boiler:HotWater, SECONDARY BOILER, Design Size Design Water Flow Rate [m3/s], 1.69329E-002
 Component Sizing Information, PlantLoop, MAIN SERVICE WATER LOOP, Maximum Loop Flow Rate [m3/s], 6.62189E-004
 Component Sizing Information, PlantLoop, MAIN SERVICE WATER LOOP, Plant Loop Volume [m3], 7.94627E-002
 Component Sizing Information, Pump:ConstantSpeed, SERVICE WATER LOOP PUMP, Design Flow Rate [m3/s], 6.62189E-004
 Component Sizing Information, Pump:ConstantSpeed, SERVICE WATER LOOP PUMP, Design Power Consumption [W], 117.14693
 Component Sizing Information, WaterHeater:Mixed, 836GAL NATURALGAS WATER HEATER - 564KBTU/HR, Use Side Design Flow Rate [m3/s], 6.62189E-004
! <Environment>,Environment Name,Environment Type, Start Date, End Date, Start DayOfWeek, Duration {#days}, Source:Start DayOfWeek,  Use Daylight Saving, Use Holidays, Apply Weekend Holiday Rule,  Use Rain Values, Use Snow Values
! <Environment:Special Days>, Special Day Name, Special Day Type, Source, Start Date, Duration {#days}
! <Environment:Daylight Saving>, Daylight Saving Indicator, Source, Start Date, End Date
! <Environment:WarmupDays>, NumberofWarmupDays
Environment,FORT MCMURRAY AP ANN CLG .4% CONDNS DB=>MWB,SizingPeriod:DesignDay,07/21,07/21,SummerDesignDay,1,N/A,N/A,N/A,N/A,N/A,N/A
Environment:Daylight Saving,No,SizingPeriod:DesignDay
! <Environment:Design Day Data>, Max Dry-Bulb Temp {C}, Temp Range {dC}, Temp Range Ind Type, Hum Ind Value at Max Temp, Hum Ind Type,Pressure {Pa}, Wind Direction {deg CW from N}, Wind Speed {m/s}, Clearness, Rain, Snow
! <Environment:Design Day Misc>,DayOfYear,ASHRAE A Coeff,ASHRAE B Coeff,ASHRAE C Coeff,Solar Constant-Annual Variation,Eq of Time {minutes}, Solar Declination Angle {deg}, Solar Model
Environment:Design Day Data,28.90,12.40,DefaultMultipliers,96969,250,3.7,0.00,No,No
Environment:Design Day Misc,202,1084.4,0.2082,0.1365,1.0,-6.23,20.6,ASHRAETau
Environment:WarmupDays,  6
! <Tabular Report>,Style,Unit Conversion
Tabular Report,HTML,None
! <Warmup Convergence Information>,Zone Name,Environment Type/Name,Average Warmup Temperature Difference {deltaC},Std Dev Warmup Temperature Difference {deltaC},Max Temperature Pass/Fail Convergence,Min Temperature Pass/Fail Convergence,Average Warmup Load Difference {W},Std Dev Warmup Load Difference {W},Heating Load Pass/Fail Convergence,Cooling Load Pass/Fail Convergence
 Warmup Convergence Information,SP-ATRIUM (6 =< HEIGHT <= 12M)-SCH-A-SPACE FUNCTION SYS-6 FLR-1 SCH-A HPLCMT-EAST ZN,SizingPeriod: FORT MCMURRAY AP ANN CLG .4% CONDNS DB=>MWB,8.8135500421E-003,2.4484777357E-002,Pass,Pass,1.9236342294E-002,7.5234638061E-002,Pass,Pass
 Warmup Convergence Information,SP-ATRIUM (6 =< HEIGHT <= 12M)-SCH-B-SPACE FUNCTION SYS-6 FLR-2 SCH-B HPLCMT-WEST ZN,SizingPeriod: FORT MCMURRAY AP ANN CLG .4% CONDNS DB=>MWB,1.3461625162E-002,2.6296850833E-002,Pass,Pass,1.9769436667E-002,3.7612937413E-002,Pass,Pass
 Warmup Convergence Information,SP-ATRIUM (6 =< HEIGHT <= 12M)-SCH-C-SPACE FUNCTION SYS-6 FLR-3 SCH-C HPLCMT-WEST ZN,SizingPeriod: FORT MCMURRAY AP ANN CLG .4% CONDNS DB=>MWB,2.2380279431E-002,2.6293432961E-002,Pass,Pass,1.4392678484E-002,2.7653371916E-002,Pass,Pass
 Warmup Convergence Information,SP-ATRIUM (6 =< HEIGHT <= 12M)-SCH-D-SPACE FUNCTION SYS-6 FLR-1 SCH-D HPLCMT-CORE ZN,SizingPeriod: FORT MCMURRAY AP ANN CLG .4% CONDNS DB=>MWB,9.9540294871E-003,3.0165585926E-002,Pass,Pass,2.0738731954E-002,8.4378202185E-002,Pass,Pass
 Warmup Convergence Information,SP-ATRIUM (6 =< HEIGHT <= 12M)-SCH-E-SPACE FUNCTION SYS-6 FLR-2 SCH-E HPLCMT-NORTH ZN,SizingPeriod: FORT MCMURRAY AP ANN CLG .4% CONDNS DB=>MWB,9.2244044150E-003,1.6619863902E-002,Pass,Pass,1.9165135562E-002,8.1118300793E-002,Pass,Pass
 Warmup Convergence Information,SP-ATRIUM (6 =< HEIGHT <= 12M)-SCH-F-SPACE FUNCTION SYS-6 FLR-2 SCH-F HPLCMT-EAST ZN,SizingPeriod: FORT MCMURRAY AP ANN CLG .4% CONDNS DB=>MWB,3.9062317548E-005,9.8966235727E-005,Pass,Pass,1.4091701211E-002,1.7617584209E-002,Pass,Pass
 Warmup Convergence Information,SP-WHOLEBUILDING-OFFICE SYS-6 FLR-4 SCH-A HPLCMT-SOUTH ZN,SizingPeriod: FORT MCMURRAY AP ANN CLG .4% CONDNS DB=>MWB,5.8730430510E-002,0.1399163073,Pass,Pass,2.6456208763E-002,4.8920715941E-002,Pass,Pass
 Warmup Convergence Information,SP-WHOLEBUILDING-PENITENTIARY SYS-3 FLR-3 SCH-H HPLCMT-CORE ZN,SizingPeriod: FORT MCMURRAY AP ANN CLG .4% CONDNS DB=>MWB,1.0057710055E-003,2.7074180076E-003,Pass,Pass,4.4489376561E-003,2.5952996565E-003,Pass,Pass
 Warmup Convergence Information,SP-WHOLEBUILDING-PERFORMING ARTS THEATRE SYS-3 FLR-3 SCH-C HPLCMT-EAST ZN,SizingPeriod: FORT MCMURRAY AP ANN CLG .4% CONDNS DB=>MWB,4.0097560492E-002,0.1240103446,Pass,Pass,7.3046138683E-002,0.3964879206,Pass,Pass
 Warmup Convergence Information,SP-WHOLEBUILDING-POLICE STATION SYS-3 FLR-3 SCH-H HPLCMT-NORTH ZN,SizingPeriod: FORT MCMURRAY AP ANN CLG .4% CONDNS DB=>MWB,7.5709001027E-005,2.0325013322E-004,Pass,Pass,4.3092867759E-003,2.6755817481E-003,Pass,Pass
 Warmup Convergence Information,SP-WHOLEBUILDING-POST OFFICE SYS-6 FLR-1 SCH-A HPLCMT-WEST ZN,SizingPeriod: FORT MCMURRAY AP ANN CLG .4% CONDNS DB=>MWB,1.1119960544E-002,2.6725013008E-002,Pass,Pass,1.6592931409E-002,5.9035623916E-002,Pass,Pass
 Warmup Convergence Information,SP-WHOLEBUILDING-RELIGIOUS BUILDING SYS-3 FLR-4 SCH-I HPLCMT-CORE ZN,SizingPeriod: FORT MCMURRAY AP ANN CLG .4% CONDNS DB=>MWB,0.1339174574,0.4072423417,Pass,Pass,7.9859253571E-002,0.2331622507,Pass,Pass
 Warmup Convergence Information,SP-WHOLEBUILDING-RETAIL AREA SYS-6 FLR-3 SCH-C HPLCMT-SOUTH ZN,SizingPeriod: FORT MCMURRAY AP ANN CLG .4% CONDNS DB=>MWB,2.2738609044E-002,4.1091061794E-002,Pass,Pass,1.5237034859E-002,5.3763500911E-002,Pass,Pass
 Warmup Convergence Information,SP-WHOLEBUILDING-SCHOOL/UNIVERSITY SYS-3 FLR-2 SCH-D HPLCMT-SOUTH ZN,SizingPeriod: FORT MCMURRAY AP ANN CLG .4% CONDNS DB=>MWB,1.3685414484E-002,2.8592611393E-002,Pass,Pass,3.6892408037E-002,0.1282783769,Pass,Pass
 Warmup Convergence Information,SP-WHOLEBUILDING-SPORTS ARENA SYS-6 FLR-1 SCH-B HPLCMT-NORTH ZN,SizingPeriod: FORT MCMURRAY AP ANN CLG .4% CONDNS DB=>MWB,1.8215208487E-002,4.6038744753E-002,Pass,Pass,2.5931801357E-002,0.1066982813,Pass,Pass
 Warmup Convergence Information,SP-WHOLEBUILDING-STORAGE GARAGE SYS-4 FLR-4 SCH-K HPLCMT-WEST ZN,SizingPeriod: FORT MCMURRAY AP ANN CLG .4% CONDNS DB=>MWB,0.1333450597,8.0131492392E-002,Pass,Pass,0.1733694667,0.5859050706,Pass,Pass
 Warmup Convergence Information,SP-WHOLEBUILDING-TOWN HALL SYS-3 FLR-2 SCH-D HPLCMT-CORE ZN,SizingPeriod: FORT MCMURRAY AP ANN CLG .4% CONDNS DB=>MWB,1.1194977417E-002,3.7391744495E-002,Pass,Pass,5.0067714412E-002,0.2129156235,Pass,Pass
 Warmup Convergence Information,SP-WHOLEBUILDING-TRANSPORTATION FACILITY SYS-6 FLR-4 SCH-H HPLCMT-EAST ZN,SizingPeriod: FORT MCMURRAY AP ANN CLG .4% CONDNS DB=>MWB,1.4646742747E-002,3.3977024332E-002,Pass,Pass,1.6542708918E-002,1.8639922701E-002,Pass,Pass
 Warmup Convergence Information,SP-WHOLEBUILDING-WAREHOUSE SYS-4 FLR-4 SCH-A HPLCMT-NORTH ZN,SizingPeriod: FORT MCMURRAY AP ANN CLG .4% CONDNS DB=>MWB,2.1876263566E-002,3.8663637485E-002,Pass,Pass,7.4760027255E-002,0.3268093429,Pass,Pass
 Warmup Convergence Information,SP-WHOLEBUILDING-WORKSHOP SYS-3 FLR-1 SCH-A HPLCMT-SOUTH ZN,SizingPeriod: FORT MCMURRAY AP ANN CLG .4% CONDNS DB=>MWB,2.5374426461E-002,4.4774600497E-002,Pass,Pass,3.5433020945E-002,0.1396853960,Pass,Pass
Environment,FORT MCMURRAY AP ANN HTG 99.6% CONDNS DB,SizingPeriod:DesignDay,01/21,01/21,WinterDesignDay,1,N/A,N/A,N/A,N/A,N/A,N/A
Environment:Daylight Saving,No,SizingPeriod:DesignDay
Environment:Design Day Data,-36.20,0.00,DefaultMultipliers,96969,90,1.0,0.00,No,No
Environment:Design Day Misc, 21,1229.0,0.1415,5.7310E-002,1.0,-11.15,-20.1,ASHRAEClearSky
Environment:WarmupDays,  7
 Warmup Convergence Information,SP-ATRIUM (6 =< HEIGHT <= 12M)-SCH-A-SPACE FUNCTION SYS-6 FLR-1 SCH-A HPLCMT-EAST ZN,SizingPeriod: FORT MCMURRAY AP ANN HTG 99.6% CONDNS DB,7.9328765477E-002,0.1071089603,Pass,Pass,0.1116129596,0.2817948997,Pass,Pass
 Warmup Convergence Information,SP-ATRIUM (6 =< HEIGHT <= 12M)-SCH-B-SPACE FUNCTION SYS-6 FLR-2 SCH-B HPLCMT-WEST ZN,SizingPeriod: FORT MCMURRAY AP ANN HTG 99.6% CONDNS DB,5.7013148258E-002,0.2246980674,Pass,Pass,0.4164217575,3.6221265854,Pass,Pass
 Warmup Convergence Information,SP-ATRIUM (6 =< HEIGHT <= 12M)-SCH-C-SPACE FUNCTION SYS-6 FLR-3 SCH-C HPLCMT-WEST ZN,SizingPeriod: FORT MCMURRAY AP ANN HTG 99.6% CONDNS DB,5.6065376773E-002,0.2618435074,Pass,Pass,0.1138799984,0.5752290653,Pass,Pass
 Warmup Convergence Information,SP-ATRIUM (6 =< HEIGHT <= 12M)-SCH-D-SPACE FUNCTION SYS-6 FLR-1 SCH-D HPLCMT-CORE ZN,SizingPeriod: FORT MCMURRAY AP ANN HTG 99.6% CONDNS DB,7.3355253408E-002,9.5475910384E-002,Pass,Pass,0.1343471688,0.3382336496,Pass,Pass
 Warmup Convergence Information,SP-ATRIUM (6 =< HEIGHT <= 12M)-SCH-E-SPACE FUNCTION SYS-6 FLR-2 SCH-E HPLCMT-NORTH ZN,SizingPeriod: FORT MCMURRAY AP ANN HTG 99.6% CONDNS DB,5.5782962808E-002,0.1550140659,Pass,Pass,8.3915530558E-002,0.2482809520,Pass,Pass
 Warmup Convergence Information,SP-ATRIUM (6 =< HEIGHT <= 12M)-SCH-F-SPACE FUNCTION SYS-6 FLR-2 SCH-F HPLCMT-EAST ZN,SizingPeriod: FORT MCMURRAY AP ANN HTG 99.6% CONDNS DB,5.0344218416E-002,0.1191733875,Pass,Pass,0.5157078919,4.9964868431,Pass,Pass
 Warmup Convergence Information,SP-WHOLEBUILDING-OFFICE SYS-6 FLR-4 SCH-A HPLCMT-SOUTH ZN,SizingPeriod: FORT MCMURRAY AP ANN HTG 99.6% CONDNS DB,5.6227291343E-002,0.2832579652,Pass,Pass,4.8611846688E-002,0.1427135878,Pass,Pass
 Warmup Convergence Information,SP-WHOLEBUILDING-PENITENTIARY SYS-3 FLR-3 SCH-H HPLCMT-CORE ZN,SizingPeriod: FORT MCMURRAY AP ANN HTG 99.6% CONDNS DB,3.6029590827E-002,0.1616475082,Pass,Pass,3.1351551900E-002,0.1436941660,Pass,Pass
 Warmup Convergence Information,SP-WHOLEBUILDING-PERFORMING ARTS THEATRE SYS-3 FLR-3 SCH-C HPLCMT-EAST ZN,SizingPeriod: FORT MCMURRAY AP ANN HTG 99.6% CONDNS DB,5.5561561249E-002,0.2680498158,Pass,Pass,0.2288659474,1.0197790779,Pass,Pass
 Warmup Convergence Information,SP-WHOLEBUILDING-POLICE STATION SYS-3 FLR-3 SCH-H HPLCMT-NORTH ZN,SizingPeriod: FORT MCMURRAY AP ANN HTG 99.6% CONDNS DB,5.2885397024E-002,0.2173718503,Pass,Pass,0.3482277362,1.6545221408,Pass,Pass
 Warmup Convergence Information,SP-WHOLEBUILDING-POST OFFICE SYS-6 FLR-1 SCH-A HPLCMT-WEST ZN,SizingPeriod: FORT MCMURRAY AP ANN HTG 99.6% CONDNS DB,7.6948018997E-002,0.1413502664,Pass,Pass,9.1999298553E-002,0.2175129194,Pass,Pass
 Warmup Convergence Information,SP-WHOLEBUILDING-RELIGIOUS BUILDING SYS-3 FLR-4 SCH-I HPLCMT-CORE ZN,SizingPeriod: FORT MCMURRAY AP ANN HTG 99.6% CONDNS DB,5.5566268850E-002,0.2990186502,Pass,Pass,0.5407760965,2.5194180584,Pass,Pass
 Warmup Convergence Information,SP-WHOLEBUILDING-RETAIL AREA SYS-6 FLR-3 SCH-C HPLCMT-SOUTH ZN,SizingPeriod: FORT MCMURRAY AP ANN HTG 99.6% CONDNS DB,5.6096037654E-002,0.2188311475,Pass,Pass,0.1992633288,0.6726827922,Pass,Pass
 Warmup Convergence Information,SP-WHOLEBUILDING-SCHOOL/UNIVERSITY SYS-3 FLR-2 SCH-D HPLCMT-SOUTH ZN,SizingPeriod: FORT MCMURRAY AP ANN HTG 99.6% CONDNS DB,5.5562321792E-002,0.2587886190,Pass,Pass,0.1881720136,0.8664646655,Pass,Pass
 Warmup Convergence Information,SP-WHOLEBUILDING-SPORTS ARENA SYS-6 FLR-1 SCH-B HPLCMT-NORTH ZN,SizingPeriod: FORT MCMURRAY AP ANN HTG 99.6% CONDNS DB,8.1082372583E-002,9.9669304044E-002,Pass,Pass,0.1072859760,0.3245165600,Pass,Pass
 Warmup Convergence Information,SP-WHOLEBUILDING-STORAGE GARAGE SYS-4 FLR-4 SCH-K HPLCMT-WEST ZN,SizingPeriod: FORT MCMURRAY AP ANN HTG 99.6% CONDNS DB,7.0522680863E-003,3.8452336956E-003,Pass,Pass,0.1632331436,0.4721883456,Pass,Pass
 Warmup Convergence Information,SP-WHOLEBUILDING-TOWN HALL SYS-3 FLR-2 SCH-D HPLCMT-CORE ZN,SizingPeriod: FORT MCMURRAY AP ANN HTG 99.6% CONDNS DB,5.0818362581E-002,0.1948497354,Pass,Pass,0.1646088179,0.9249054867,Pass,Pass
 Warmup Convergence Information,SP-WHOLEBUILDING-TRANSPORTATION FACILITY SYS-6 FLR-4 SCH-H HPLCMT-EAST ZN,SizingPeriod: FORT MCMURRAY AP ANN HTG 99.6% CONDNS DB,5.6602864349E-002,0.2574019398,Pass,Pass,4.8337975074E-002,0.1818247011,Pass,Pass
 Warmup Convergence Information,SP-WHOLEBUILDING-WAREHOUSE SYS-4 FLR-4 SCH-A HPLCMT-NORTH ZN,SizingPeriod: FORT MCMURRAY AP ANN HTG 99.6% CONDNS DB,5.5557342533E-002,0.3011995447,Pass,Pass,3.5123012375E-002,0.1303373608,Pass,Pass
 Warmup Convergence Information,SP-WHOLEBUILDING-WORKSHOP SYS-3 FLR-1 SCH-A HPLCMT-SOUTH ZN,SizingPeriod: FORT MCMURRAY AP ANN HTG 99.6% CONDNS DB,5.6277344390E-002,0.2246624585,Pass,Pass,0.2435392433,1.5492716286,Pass,Pass
! <Program Control Information:Threads/Parallel Sims>, Threading Supported,Maximum Number of Threads, Env Set Threads (OMP_NUM_THREADS), EP Env Set Threads (EP_OMP_NUM_THREADS), IDF Set Threads, Number of Threads Used (Interior Radiant Exchange), Number Nominal Surfaces, Number Parallel Sims
Program Control:Threads/Parallel Sims, No,1, N/A, N/A, N/A, N/A, N/A, N/A
End of Data
