Program Version,EnergyPlus, Version 8.9.0-eba93e8e1b, YMD=2019.03.20 18:03
! This file shows details about the branches, nodes, and other
! elements of the flow connections.
! This file is intended for use in "debugging" potential problems
! that may also be detected by the program, but may be more easily
! identified by "eye".
! This file is also intended to support software which draws a
! schematic diagram of the HVAC system.
! ===============================================================
! #Nodes,<Number of Unique Nodes>
 #Nodes,457
! <Node>,<NodeNumber>,<Node Name>,<Node Fluid Type>,<# Times Node Referenced After Definition>
 Node,1,NODE 63,Air,3
 Node,2,NODE 71,Air,3
 Node,3,NODE 67,Air,3
 Node,4,NODE 51,Air,4
 Node,5,NODE 131,Air,4
 Node,6,NODE 165,Air,4
 Node,7,NODE 149,Air,4
 Node,8,NODE 156,Air,4
 Node,9,NODE 262,Air,3
 Node,10,NODE 252,Air,4
 Node,11,NODE 261,Air,3
 Node,12,NODE 186,Air,4
 Node,13,NODE 305,Air,3
 Node,14,NODE 295,Air,4
 Node,15,NODE 304,Air,3
 Node,16,NODE 348,Air,3
 Node,17,NODE 338,Air,4
 Node,18,NODE 347,Air,3
 Node,19,NODE 212,Air,4
 Node,20,NODE 199,Air,4
 Node,21,NODE 27,Air,4
 Node,22,NODE 39,Air,3
 Node,23,NODE 79,Air,4
 Node,24,NODE 88,Air,3
 Node,25,NODE 92,Air,3
 Node,26,NODE 96,Air,3
 Node,27,NODE 249,Air,10
 Node,28,NODE 250,Air,3
 Node,29,NODE 292,Air,10
 Node,30,NODE 293,Air,3
 Node,31,NODE 335,Air,10
 Node,32,NODE 336,Air,3
 Node,33,NODE 47,Air,10
 Node,34,NODE 48,Air,3
 Node,35,NODE 183,Air,10
 Node,36,NODE 184,Air,3
 Node,37,NODE 209,Air,10
 Node,38,NODE 210,Air,3
 Node,39,NODE 196,Air,10
 Node,40,NODE 197,Air,3
 Node,41,NODE 23,Air,10
 Node,42,NODE 24,Air,3
 Node,43,NODE 76,Air,10
 Node,44,NODE 77,Air,3
 Node,45,NODE 128,Air,12
 Node,46,NODE 129,Air,3
 Node,47,NODE 162,Air,12
 Node,48,NODE 163,Air,3
 Node,49,NODE 248,Air,3
 Node,50,NODE 257,Air,6
 Node,51,NODE 256,Air,6
 Node,52,NODE 255,Air,8
 Node,53,NODE 291,Air,3
 Node,54,NODE 300,Air,6
 Node,55,NODE 299,Air,6
 Node,56,NODE 298,Air,8
 Node,57,NODE 334,Air,3
 Node,58,NODE 343,Air,6
 Node,59,NODE 342,Air,6
 Node,60,NODE 341,Air,8
 Node,61,NODE 45,Air,4
 Node,62,NODE 59,Air,8
 Node,63,NODE 57,Air,6
 Node,64,NODE 56,Air,8
 Node,65,NODE 182,Air,3
 Node,66,NODE 191,Air,6
 Node,67,NODE 190,Air,6
 Node,68,NODE 189,Air,8
 Node,69,NODE 208,Air,3
 Node,70,NODE 217,Air,6
 Node,71,NODE 216,Air,6
 Node,72,NODE 215,Air,8
 Node,73,NODE 195,Air,3
 Node,74,NODE 204,Air,6
 Node,75,NODE 203,Air,6
 Node,76,NODE 202,Air,8
 Node,77,NODE 21,Air,3
 Node,78,NODE 35,Air,6
 Node,79,NODE 33,Air,6
 Node,80,NODE 32,Air,8
 Node,81,NODE 75,Air,4
 Node,82,NODE 84,Air,8
 Node,83,NODE 83,Air,6
 Node,84,NODE 82,Air,8
 Node,85,NODE 127,Air,2
 Node,86,NODE 140,Air,6
 Node,87,NODE 139,Air,7
 Node,88,NODE 138,Air,5
 Node,89,NODE 137,Air,9
 Node,90,NODE 161,Air,2
 Node,91,NODE 175,Air,6
 Node,92,NODE 174,Air,7
 Node,93,NODE 173,Air,5
 Node,94,NODE 172,Air,9
 Node,95,NODE 100,Water,2
 Node,96,NODE 106,Water,1
 Node,97,NODE 102,Water,1
 Node,98,NODE 107,Water,1
 Node,99,NODE 108,Water,1
 Node,100,NODE 109,Water,1
 Node,101,NODE 110,Water,1
 Node,102,NODE 111,Water,1
 Node,103,NODE 112,Water,1
 Node,104,NODE 101,Water,4
 Node,105,NODE 103,Water,2
 Node,106,CHILLED WATER LOOP DEMAND INLET PIPE NODE,Water,1
 Node,107,NODE 105,Water,2
 Node,108,NODE 134,Water,1
 Node,109,NODE 168,Water,2
 Node,110,NODE 169,Water,1
 Node,111,CHILLED WATER LOOP DEMAND BYPASS PIPE INLET NODE,Water,1
 Node,112,CHILLED WATER LOOP DEMAND BYPASS PIPE OUTLET NODE,Water,1
 Node,113,CHILLED WATER LOOP DEMAND OUTLET PIPE NODE,Water,1
 Node,114,NODE 104,Water,2
 Node,115,NODE 221,Water,2
 Node,116,NODE 227,Water,1
 Node,117,NODE 223,Water,1
 Node,118,NODE 228,Water,1
 Node,119,NODE 229,Water,1
 Node,120,NODE 230,Water,1
 Node,121,NODE 231,Water,1
 Node,122,NODE 232,Water,1
 Node,123,NODE 233,Water,1
 Node,124,NODE 222,Water,4
 Node,125,NODE 224,Water,2
 Node,126,CHILLED WATER LOOP 1 DEMAND INLET PIPE NODE,Water,1
 Node,127,NODE 226,Water,1
 Node,128,NODE 260,Water,1
 Node,129,CHILLED WATER LOOP 1 DEMAND BYPASS PIPE INLET NODE,Water,1
 Node,130,CHILLED WATER LOOP 1 DEMAND BYPASS PIPE OUTLET NODE,Water,1
 Node,131,CHILLED WATER LOOP 1 DEMAND OUTLET PIPE NODE,Water,1
 Node,132,NODE 225,Water,2
 Node,133,NODE 264,Water,2
 Node,134,NODE 270,Water,1
 Node,135,NODE 266,Water,1
 Node,136,NODE 271,Water,1
 Node,137,NODE 272,Water,1
 Node,138,NODE 273,Water,1
 Node,139,NODE 274,Water,1
 Node,140,NODE 275,Water,1
 Node,141,NODE 276,Water,1
 Node,142,NODE 265,Water,4
 Node,143,NODE 267,Water,2
 Node,144,CHILLED WATER LOOP 2 DEMAND INLET PIPE NODE,Water,1
 Node,145,NODE 269,Water,1
 Node,146,NODE 303,Water,1
 Node,147,CHILLED WATER LOOP 2 DEMAND BYPASS PIPE INLET NODE,Water,1
 Node,148,CHILLED WATER LOOP 2 DEMAND BYPASS PIPE OUTLET NODE,Water,1
 Node,149,CHILLED WATER LOOP 2 DEMAND OUTLET PIPE NODE,Water,1
 Node,150,NODE 268,Water,2
 Node,151,NODE 307,Water,2
 Node,152,NODE 313,Water,1
 Node,153,NODE 309,Water,1
 Node,154,NODE 314,Water,1
 Node,155,NODE 315,Water,1
 Node,156,NODE 316,Water,1
 Node,157,NODE 317,Water,1
 Node,158,NODE 318,Water,1
 Node,159,NODE 319,Water,1
 Node,160,NODE 308,Water,4
 Node,161,NODE 310,Water,2
 Node,162,CHILLED WATER LOOP 3 DEMAND INLET PIPE NODE,Water,1
 Node,163,NODE 312,Water,1
 Node,164,NODE 346,Water,1
 Node,165,CHILLED WATER LOOP 3 DEMAND BYPASS PIPE INLET NODE,Water,1
 Node,166,CHILLED WATER LOOP 3 DEMAND BYPASS PIPE OUTLET NODE,Water,1
 Node,167,CHILLED WATER LOOP 3 DEMAND OUTLET PIPE NODE,Water,1
 Node,168,NODE 311,Water,2
 Node,169,NODE 113,Water,2
 Node,170,NODE 119,Water,1
 Node,171,NODE 115,Water,1
 Node,172,NODE 120,Water,1
 Node,173,NODE 121,Water,1
 Node,174,NODE 122,Water,1
 Node,175,NODE 123,Water,1
 Node,176,NODE 114,Water,4
 Node,177,NODE 116,Water,2
 Node,178,CONDENSER WATER LOOP DEMAND INLET PIPE NODE,Water,1
 Node,179,NODE 118,Water,1
 Node,180,NODE 124,Water,1
 Node,181,NODE 125,Water,1
 Node,182,NODE 126,Water,1
 Node,183,CONDENSER WATER LOOP DEMAND BYPASS PIPE INLET NODE,Water,1
 Node,184,CONDENSER WATER LOOP DEMAND BYPASS PIPE OUTLET NODE,Water,1
 Node,185,CONDENSER WATER LOOP DEMAND OUTLET PIPE NODE,Water,1
 Node,186,NODE 117,Water,2
 Node,187,NODE 234,Water,2
 Node,188,NODE 240,Water,1
 Node,189,NODE 236,Water,1
 Node,190,NODE 241,Water,1
 Node,191,NODE 242,Water,1
 Node,192,NODE 243,Water,1
 Node,193,NODE 244,Water,1
 Node,194,NODE 235,Water,4
 Node,195,NODE 237,Water,2
 Node,196,CONDENSER WATER LOOP 1 DEMAND INLET PIPE NODE,Water,1
 Node,197,NODE 239,Water,1
 Node,198,NODE 245,Water,1
 Node,199,NODE 246,Water,1
 Node,200,NODE 247,Water,1
 Node,201,CONDENSER WATER LOOP 1 DEMAND BYPASS PIPE INLET NODE,Water,1
 Node,202,CONDENSER WATER LOOP 1 DEMAND BYPASS PIPE OUTLET NODE,Water,1
 Node,203,CONDENSER WATER LOOP 1 DEMAND OUTLET PIPE NODE,Water,1
 Node,204,NODE 238,Water,2
 Node,205,NODE 277,Water,2
 Node,206,NODE 283,Water,1
 Node,207,NODE 279,Water,1
 Node,208,NODE 284,Water,1
 Node,209,NODE 285,Water,1
 Node,210,NODE 286,Water,1
 Node,211,NODE 287,Water,1
 Node,212,NODE 278,Water,4
 Node,213,NODE 280,Water,2
 Node,214,CONDENSER WATER LOOP 2 DEMAND INLET PIPE NODE,Water,1
 Node,215,NODE 282,Water,1
 Node,216,NODE 288,Water,1
 Node,217,NODE 289,Water,1
 Node,218,NODE 290,Water,1
 Node,219,CONDENSER WATER LOOP 2 DEMAND BYPASS PIPE INLET NODE,Water,1
 Node,220,CONDENSER WATER LOOP 2 DEMAND BYPASS PIPE OUTLET NODE,Water,1
 Node,221,CONDENSER WATER LOOP 2 DEMAND OUTLET PIPE NODE,Water,1
 Node,222,NODE 281,Water,2
 Node,223,NODE 320,Water,2
 Node,224,NODE 326,Water,1
 Node,225,NODE 322,Water,1
 Node,226,NODE 327,Water,1
 Node,227,NODE 328,Water,1
 Node,228,NODE 329,Water,1
 Node,229,NODE 330,Water,1
 Node,230,NODE 321,Water,4
 Node,231,NODE 323,Water,2
 Node,232,CONDENSER WATER LOOP 3 DEMAND INLET PIPE NODE,Water,1
 Node,233,NODE 325,Water,1
 Node,234,NODE 331,Water,1
 Node,235,NODE 332,Water,1
 Node,236,NODE 333,Water,1
 Node,237,CONDENSER WATER LOOP 3 DEMAND BYPASS PIPE INLET NODE,Water,1
 Node,238,CONDENSER WATER LOOP 3 DEMAND BYPASS PIPE OUTLET NODE,Water,1
 Node,239,CONDENSER WATER LOOP 3 DEMAND OUTLET PIPE NODE,Water,1
 Node,240,NODE 324,Water,2
 Node,241,NODE 2,Water,2
 Node,242,NODE 11,Water,1
 Node,243,NODE 5,Water,1
 Node,244,NODE 12,Water,1
 Node,245,NODE 14,Water,1
 Node,246,NODE 15,Water,1
 Node,247,NODE 17,Water,1
 Node,248,NODE 18,Water,1
 Node,249,NODE 20,Water,1
 Node,250,NODE 3,Water,4
 Node,251,NODE 6,Water,2
 Node,252,HOT WATER LOOP DEMAND INLET PIPE NODE,Water,1
 Node,253,NODE 9,Water,1
 Node,254,NODE 38,Water,1
 Node,255,NODE 42,Water,1
 Node,256,NODE 44,Water,1
 Node,257,NODE 61,Water,1
 Node,258,NODE 62,Water,1
 Node,259,NODE 65,Water,1
 Node,260,NODE 66,Water,1
 Node,261,NODE 69,Water,1
 Node,262,NODE 70,Water,1
 Node,263,NODE 73,Water,1
 Node,264,NODE 74,Water,1
 Node,265,NODE 86,Water,1
 Node,266,NODE 87,Water,1
 Node,267,NODE 90,Water,1
 Node,268,NODE 91,Water,1
 Node,269,NODE 94,Water,1
 Node,270,NODE 95,Water,1
 Node,271,NODE 98,Water,1
 Node,272,NODE 99,Water,1
 Node,273,NODE 132,Water,2
 Node,274,NODE 133,Water,1
 Node,275,NODE 141,Water,1
 Node,276,NODE 142,Water,1
 Node,277,NODE 145,Water,1
 Node,278,NODE 146,Water,1
 Node,279,NODE 147,Water,1
 Node,280,NODE 148,Water,1
 Node,281,NODE 152,Water,1
 Node,282,NODE 153,Water,1
 Node,283,NODE 154,Water,1
 Node,284,NODE 155,Water,1
 Node,285,NODE 159,Water,1
 Node,286,NODE 160,Water,1
 Node,287,NODE 166,Water,2
 Node,288,NODE 167,Water,1
 Node,289,NODE 176,Water,1
 Node,290,NODE 177,Water,1
 Node,291,NODE 180,Water,1
 Node,292,NODE 181,Water,1
 Node,293,NODE 193,Water,1
 Node,294,NODE 194,Water,1
 Node,295,NODE 206,Water,1
 Node,296,NODE 207,Water,1
 Node,297,NODE 219,Water,1
 Node,298,NODE 220,Water,1
 Node,299,NODE 258,Water,1
 Node,300,NODE 259,Water,1
 Node,301,NODE 301,Water,1
 Node,302,NODE 302,Water,1
 Node,303,NODE 344,Water,1
 Node,304,NODE 345,Water,1
 Node,305,HOT WATER LOOP DEMAND BYPASS PIPE INLET NODE,Water,1
 Node,306,HOT WATER LOOP DEMAND BYPASS PIPE OUTLET NODE,Water,1
 Node,307,HOT WATER LOOP DEMAND OUTLET PIPE NODE,Water,1
 Node,308,NODE 8,Water,2
 Node,309,NODE 350,Water,2
 Node,310,NODE 356,Water,1
 Node,311,NODE 352,Water,1
 Node,312,NODE 357,Water,1
 Node,313,NODE 358,Water,1
 Node,314,NODE 359,Water,1
 Node,315,NODE 361,Water,1
 Node,316,NODE 351,Water,4
 Node,317,NODE 353,Water,2
 Node,318,NODE 362,Water,1
 Node,319,NODE 355,Water,1
 Node,320,NODE 360,Water,1
 Node,321,NODE 364,Water,1
 Node,322,NODE 365,Water,1
 Node,323,NODE 366,Water,1
 Node,324,NODE 367,Water,1
 Node,325,NODE 368,Water,1
 Node,326,NODE 369,Water,1
 Node,327,NODE 370,Water,1
 Node,328,NODE 371,Water,1
 Node,329,NODE 372,Water,1
 Node,330,NODE 373,Water,1
 Node,331,NODE 374,Water,1
 Node,332,NODE 375,Water,1
 Node,333,NODE 376,Water,1
 Node,334,NODE 377,Water,1
 Node,335,NODE 378,Water,1
 Node,336,NODE 379,Water,1
 Node,337,NODE 380,Water,1
 Node,338,NODE 381,Water,1
 Node,339,NODE 382,Water,1
 Node,340,NODE 383,Water,1
 Node,341,NODE 384,Water,1
 Node,342,NODE 385,Water,1
 Node,343,NODE 386,Water,1
 Node,344,NODE 387,Water,1
 Node,345,NODE 388,Water,1
 Node,346,NODE 389,Water,1
 Node,347,NODE 390,Water,1
 Node,348,NODE 391,Water,1
 Node,349,MAIN SERVICE WATER LOOP DEMAND BYPASS PIPE INLET NODE,Water,1
 Node,350,MAIN SERVICE WATER LOOP DEMAND BYPASS PIPE OUTLET NODE,Water,1
 Node,351,NODE 363,Water,1
 Node,352,NODE 354,Water,2
 Node,353,NODE 10,Air,0
 Node,354,NODE 64,Air,1
 Node,355,NODE 16,Air,0
 Node,356,NODE 72,Air,1
 Node,357,NODE 13,Air,0
 Node,358,NODE 68,Air,1
 Node,359,NODE 7,Air,1
 Node,360,NODE 60,Air,1
 Node,361,NODE 19,Air,0
 Node,362,NODE 143,Air,1
 Node,363,NODE 22,Air,0
 Node,364,NODE 178,Air,1
 Node,365,NODE 25,Air,0
 Node,366,NODE 150,Air,1
 Node,367,NODE 28,Air,0
 Node,368,NODE 157,Air,1
 Node,369,NODE 34,Air,1
 Node,370,NODE 263,Air,1
 Node,371,NODE 31,Air,1
 Node,372,NODE 192,Air,1
 Node,373,NODE 40,Air,1
 Node,374,NODE 306,Air,1
 Node,375,NODE 46,Air,1
 Node,376,NODE 349,Air,1
 Node,377,NODE 43,Air,1
 Node,378,NODE 218,Air,1
 Node,379,NODE 37,Air,1
 Node,380,NODE 205,Air,1
 Node,381,NODE 1,Air,1
 Node,382,NODE 36,Air,1
 Node,383,NODE 4,Air,0
 Node,384,NODE 41,Air,1
 Node,385,NODE 49,Air,1
 Node,386,NODE 85,Air,1
 Node,387,NODE 52,Air,0
 Node,388,NODE 89,Air,1
 Node,389,NODE 55,Air,0
 Node,390,NODE 93,Air,1
 Node,391,NODE 58,Air,0
 Node,392,NODE 97,Air,1
 Node,393,NODE 251,Air,2
 Node,394,NODE 294,Air,2
 Node,395,NODE 337,Air,2
 Node,396,NODE 50,Air,2
 Node,397,NODE 185,Air,2
 Node,398,NODE 211,Air,2
 Node,399,NODE 198,Air,2
 Node,400,NODE 26,Air,2
 Node,401,NODE 78,Air,2
 Node,402,NODE 130,Air,2
 Node,403,NODE 164,Air,2
 Node,404,ZONE HVAC FOUR PIPE FAN COIL 1 OA NODE,Air,1
 Node,405,ZONE HVAC FOUR PIPE FAN COIL 2 OA NODE,Air,1
 Node,406,ZONE HVAC FOUR PIPE FAN COIL 3 OA NODE,Air,1
 Node,407,NODE 253,Air,2
 Node,408,NODE 296,Air,2
 Node,409,NODE 339,Air,2
 Node,410,NODE 53,Air,3
 Node,411,NODE 187,Air,2
 Node,412,NODE 213,Air,2
 Node,413,NODE 200,Air,2
 Node,414,NODE 29,Air,2
 Node,415,NODE 80,Air,3
 Node,416,NODE 135,Air,3
 Node,417,NODE 170,Air,3
 Node,418,MODEL OUTDOOR AIR NODE,Air,0
 Node,419,NODE 393,Air,2
 Node,420,NODE 395,Air,2
 Node,421,NODE 397,Air,2
 Node,422,NODE 399,Air,2
 Node,423,NODE 144,Air,1
 Node,424,NODE 151,Air,1
 Node,425,NODE 158,Air,1
 Node,426,NODE 179,Air,1
 Node,427,AIR TERMINAL SINGLE DUCT VAV REHEAT 1 DAMPER OUTLET,Air,1
 Node,428,AIR TERMINAL SINGLE DUCT VAV REHEAT 4 DAMPER OUTLET,Air,1
 Node,429,AIR TERMINAL SINGLE DUCT VAV REHEAT 2 DAMPER OUTLET,Air,1
 Node,430,AIR TERMINAL SINGLE DUCT VAV REHEAT 3 DAMPER OUTLET,Air,1
 Node,431,ZONE HVAC FOUR PIPE FAN COIL 1 COOLING COIL OUTLET NODE,Air,1
 Node,432,ZONE HVAC FOUR PIPE FAN COIL 2 COOLING COIL OUTLET NODE,Air,1
 Node,433,ZONE HVAC FOUR PIPE FAN COIL 3 COOLING COIL OUTLET NODE,Air,1
 Node,434,ZONE HVAC FOUR PIPE FAN COIL 1 FAN OUTLET NODE,Air,1
 Node,435,ZONE HVAC FOUR PIPE FAN COIL 2 FAN OUTLET NODE,Air,1
 Node,436,ZONE HVAC FOUR PIPE FAN COIL 3 FAN OUTLET NODE,Air,1
 Node,437,ZONE HVAC FOUR PIPE FAN COIL 1 MIXED AIR NODE,Air,1
 Node,438,ZONE HVAC FOUR PIPE FAN COIL 1 RELIEF AIR NODE,Air,0
 Node,439,ZONE HVAC FOUR PIPE FAN COIL 2 MIXED AIR NODE,Air,1
 Node,440,ZONE HVAC FOUR PIPE FAN COIL 2 RELIEF AIR NODE,Air,0
 Node,441,ZONE HVAC FOUR PIPE FAN COIL 3 MIXED AIR NODE,Air,1
 Node,442,ZONE HVAC FOUR PIPE FAN COIL 3 RELIEF AIR NODE,Air,0
 Node,443,NODE 254,Air,1
 Node,444,NODE 297,Air,1
 Node,445,NODE 340,Air,1
 Node,446,NODE 394,Air,2
 Node,447,NODE 188,Air,1
 Node,448,NODE 214,Air,1
 Node,449,NODE 201,Air,1
 Node,450,NODE 30,Air,1
 Node,451,NODE 396,Air,2
 Node,452,NODE 398,Air,2
 Node,453,NODE 400,Air,2
 Node,454,NODE 54,Air,0
 Node,455,NODE 81,Air,0
 Node,456,NODE 136,Air,0
 Node,457,NODE 171,Air,0
! ===============================================================
! Suspicious nodes have 0 references.  It is normal for some nodes, however.
! Listing nodes with 0 references (culled from previous list):
! <Suspicious Node>,<NodeNumber>,<Node Name>,<Node Fluid Type>,<# Times Node Referenced After Definition>
 Suspicious Node,353,NODE 10,Air,0
 Suspicious Node,355,NODE 16,Air,0
 Suspicious Node,357,NODE 13,Air,0
 Suspicious Node,361,NODE 19,Air,0
 Suspicious Node,363,NODE 22,Air,0
 Suspicious Node,365,NODE 25,Air,0
 Suspicious Node,367,NODE 28,Air,0
 Suspicious Node,383,NODE 4,Air,0
 Suspicious Node,387,NODE 52,Air,0
 Suspicious Node,389,NODE 55,Air,0
 Suspicious Node,391,NODE 58,Air,0
 Suspicious Node,418,MODEL OUTDOOR AIR NODE,Air,0
 Suspicious Node,438,ZONE HVAC FOUR PIPE FAN COIL 1 RELIEF AIR NODE,Air,0
 Suspicious Node,440,ZONE HVAC FOUR PIPE FAN COIL 2 RELIEF AIR NODE,Air,0
 Suspicious Node,442,ZONE HVAC FOUR PIPE FAN COIL 3 RELIEF AIR NODE,Air,0
 Suspicious Node,454,NODE 54,Air,0
 Suspicious Node,455,NODE 81,Air,0
 Suspicious Node,456,NODE 136,Air,0
 Suspicious Node,457,NODE 171,Air,0
! ===============================================================
! <#Branch Lists>,<Number of Branch Lists>
 #Branch Lists,31
! <Branch List>,<Branch List Count>,<Branch List Name>,<Loop Name>,<Loop Type>,<Number of Branches>
! <Branch>,<Branch Count>,<Branch Name>,<Loop Name>,<Loop Type>,<Branch Inlet Node Name>,<Branch Outlet Node Name>
 Branch List,1,SYS_2_MAKE-UP AIR UNIT SUPPLY BRANCHES,SYS_2_MAKE-UP AIR UNIT,Air,1
   Branch,1,SYS_2_MAKE-UP AIR UNIT MAIN BRANCH,SYS_2_MAKE-UP AIR UNIT,Air,NODE 248,NODE 249
 Branch List,2,SYS_2_MAKE-UP AIR UNIT 1 SUPPLY BRANCHES,SYS_2_MAKE-UP AIR UNIT 1,Air,1
   Branch,1,SYS_2_MAKE-UP AIR UNIT 1 MAIN BRANCH,SYS_2_MAKE-UP AIR UNIT 1,Air,NODE 291,NODE 292
 Branch List,3,SYS_2_MAKE-UP AIR UNIT 2 SUPPLY BRANCHES,SYS_2_MAKE-UP AIR UNIT 2,Air,1
   Branch,1,SYS_2_MAKE-UP AIR UNIT 2 MAIN BRANCH,SYS_2_MAKE-UP AIR UNIT 2,Air,NODE 334,NODE 335
 Branch List,4,SYS_4_PSZ_ALL_ST=STORAGE AREA_FL=STORY 3_SCH=E SUPPLY BRANCHES,SYS_4_PSZ_ALL_ST=STORAGE AREA_FL=STORY 3_SCH=E,Air,1
   Branch,1,SYS_4_PSZ_ALL_ST=STORAGE AREA_FL=STORY 3_SCH=E MAIN BRANCH,SYS_4_PSZ_ALL_ST=STORAGE AREA_FL=STORY 3_SCH=E,Air,NODE 45,NODE 47
 Branch List,5,SYS_4_PSZ_ALL_ST=WAREHOUSE - FINE_FL=STORY 1_SCH=A SUPPLY BRANCHES,SYS_4_PSZ_ALL_ST=WAREHOUSE - FINE_FL=STORY 1_SCH=A,Air,1
   Branch,1,SYS_4_PSZ_ALL_ST=WAREHOUSE - FINE_FL=STORY 1_SCH=A MAIN BRANCH,SYS_4_PSZ_ALL_ST=WAREHOUSE - FINE_FL=STORY 1_SCH=A,Air,NODE 182,NODE 183
 Branch List,6,SYS_4_PSZ_ALL_ST=WAREHOUSE - MED/BLK2_FL=STORY 2_SCH=A SUPPLY BRANCHES,SYS_4_PSZ_ALL_ST=WAREHOUSE - MED/BLK2_FL=STORY 2_SCH=A,Air,1
   Branch,1,SYS_4_PSZ_ALL_ST=WAREHOUSE - MED/BLK2_FL=STORY 2_SCH=A MAIN BRANCH,SYS_4_PSZ_ALL_ST=WAREHOUSE - MED/BLK2_FL=STORY 2_SCH=A,Air,NODE 208,NODE 209
 Branch List,7,SYS_4_PSZ_ALL_ST=WAREHOUSE - MED/BLK_FL=STORY 1_SCH=A SUPPLY BRANCHES,SYS_4_PSZ_ALL_ST=WAREHOUSE - MED/BLK_FL=STORY 1_SCH=A,Air,1
   Branch,1,SYS_4_PSZ_ALL_ST=WAREHOUSE - MED/BLK_FL=STORY 1_SCH=A MAIN BRANCH,SYS_4_PSZ_ALL_ST=WAREHOUSE - MED/BLK_FL=STORY 1_SCH=A,Air,NODE 195,NODE 196
 Branch List,8,SYS_4_PSZ_WET_ST=WASHROOM-SCH-A_FL=STORY 4_SCHA SUPPLY BRANCHES,SYS_4_PSZ_WET_ST=WASHROOM-SCH-A_FL=STORY 4_SCHA,Air,1
   Branch,1,SYS_4_PSZ_WET_ST=WASHROOM-SCH-A_FL=STORY 4_SCHA MAIN BRANCH,SYS_4_PSZ_WET_ST=WASHROOM-SCH-A_FL=STORY 4_SCHA,Air,NODE 21,NODE 23
 Branch List,9,SYS_4_PSZ_WILD_ST=STAIRWAY-SCH-F_FL=STORY 4_SCH=A SUPPLY BRANCHES,SYS_4_PSZ_WILD_ST=STAIRWAY-SCH-F_FL=STORY 4_SCH=A,Air,1
   Branch,1,SYS_4_PSZ_WILD_ST=STAIRWAY-SCH-F_FL=STORY 4_SCH=A MAIN BRANCH,SYS_4_PSZ_WILD_ST=STAIRWAY-SCH-F_FL=STORY 4_SCH=A,Air,NODE 75,NODE 76
 Branch List,10,SYS_6_VAV WITH REHEAT SUPPLY BRANCHES,SYS_6_VAV WITH REHEAT,Air,1
   Branch,1,SYS_6_VAV WITH REHEAT MAIN BRANCH,SYS_6_VAV WITH REHEAT,Air,NODE 127,NODE 128
 Branch List,11,SYS_6_VAV WITH REHEAT 1 SUPPLY BRANCHES,SYS_6_VAV WITH REHEAT 1,Air,1
   Branch,1,SYS_6_VAV WITH REHEAT 1 MAIN BRANCH,SYS_6_VAV WITH REHEAT 1,Air,NODE 161,NODE 162
 Branch List,12,CHILLED WATER LOOP SUPPLY BRANCHES,CHILLED WATER LOOP,Plant Supply,5
   Branch,1,CHILLED WATER LOOP SUPPLY INLET BRANCH,CHILLED WATER LOOP,Plant Supply,NODE 100,NODE 106
   Branch,2,CHILLED WATER LOOP SUPPLY BRANCH 1,CHILLED WATER LOOP,Plant Supply,NODE 102,NODE 107
   Branch,3,CHILLED WATER LOOP SUPPLY BRANCH 2,CHILLED WATER LOOP,Plant Supply,NODE 108,NODE 109
   Branch,4,CHILLED WATER LOOP SUPPLY BRANCH 3,CHILLED WATER LOOP,Plant Supply,NODE 110,NODE 111
   Branch,5,CHILLED WATER LOOP SUPPLY OUTLET BRANCH,CHILLED WATER LOOP,Plant Supply,NODE 112,NODE 101
 Branch List,13,CHILLED WATER LOOP DEMAND BRANCHES,CHILLED WATER LOOP,Plant Demand,5
   Branch,1,CHILLED WATER LOOP DEMAND INLET BRANCH,CHILLED WATER LOOP,Plant Demand,NODE 103,CHILLED WATER LOOP DEMAND INLET PIPE NODE
   Branch,2,CHILLED WATER LOOP DEMAND BRANCH 1,CHILLED WATER LOOP,Plant Demand,NODE 105,NODE 134
   Branch,3,CHILLED WATER LOOP DEMAND BRANCH 2,CHILLED WATER LOOP,Plant Demand,NODE 168,NODE 169
   Branch,4,CHILLED WATER LOOP DEMAND BYPASS BRANCH,CHILLED WATER LOOP,Plant Demand,CHILLED WATER LOOP DEMAND BYPASS PIPE INLET NODE,CHILLED WATER LOOP DEMAND BYPASS PIPE OUTLET NODE
   Branch,5,CHILLED WATER LOOP DEMAND OUTLET BRANCH,CHILLED WATER LOOP,Plant Demand,CHILLED WATER LOOP DEMAND OUTLET PIPE NODE,NODE 104
 Branch List,14,CHILLED WATER LOOP 1 SUPPLY BRANCHES,CHILLED WATER LOOP 1,Plant Supply,5
   Branch,1,CHILLED WATER LOOP 1 SUPPLY INLET BRANCH,CHILLED WATER LOOP 1,Plant Supply,NODE 221,NODE 227
   Branch,2,CHILLED WATER LOOP 1 SUPPLY BRANCH 1,CHILLED WATER LOOP 1,Plant Supply,NODE 223,NODE 228
   Branch,3,CHILLED WATER LOOP 1 SUPPLY BRANCH 2,CHILLED WATER LOOP 1,Plant Supply,NODE 229,NODE 230
   Branch,4,CHILLED WATER LOOP 1 SUPPLY BRANCH 3,CHILLED WATER LOOP 1,Plant Supply,NODE 231,NODE 232
   Branch,5,CHILLED WATER LOOP 1 SUPPLY OUTLET BRANCH,CHILLED WATER LOOP 1,Plant Supply,NODE 233,NODE 222
 Branch List,15,CHILLED WATER LOOP 1 DEMAND BRANCHES,CHILLED WATER LOOP 1,Plant Demand,4
   Branch,1,CHILLED WATER LOOP 1 DEMAND INLET BRANCH,CHILLED WATER LOOP 1,Plant Demand,NODE 224,CHILLED WATER LOOP 1 DEMAND INLET PIPE NODE
   Branch,2,CHILLED WATER LOOP 1 DEMAND BRANCH 1,CHILLED WATER LOOP 1,Plant Demand,NODE 226,NODE 260
   Branch,3,CHILLED WATER LOOP 1 DEMAND BYPASS BRANCH,CHILLED WATER LOOP 1,Plant Demand,CHILLED WATER LOOP 1 DEMAND BYPASS PIPE INLET NODE,CHILLED WATER LOOP 1 DEMAND BYPASS PIPE OUTLET NODE
   Branch,4,CHILLED WATER LOOP 1 DEMAND OUTLET BRANCH,CHILLED WATER LOOP 1,Plant Demand,CHILLED WATER LOOP 1 DEMAND OUTLET PIPE NODE,NODE 225
 Branch List,16,CHILLED WATER LOOP 2 SUPPLY BRANCHES,CHILLED WATER LOOP 2,Plant Supply,5
   Branch,1,CHILLED WATER LOOP 2 SUPPLY INLET BRANCH,CHILLED WATER LOOP 2,Plant Supply,NODE 264,NODE 270
   Branch,2,CHILLED WATER LOOP 2 SUPPLY BRANCH 1,CHILLED WATER LOOP 2,Plant Supply,NODE 266,NODE 271
   Branch,3,CHILLED WATER LOOP 2 SUPPLY BRANCH 2,CHILLED WATER LOOP 2,Plant Supply,NODE 272,NODE 273
   Branch,4,CHILLED WATER LOOP 2 SUPPLY BRANCH 3,CHILLED WATER LOOP 2,Plant Supply,NODE 274,NODE 275
   Branch,5,CHILLED WATER LOOP 2 SUPPLY OUTLET BRANCH,CHILLED WATER LOOP 2,Plant Supply,NODE 276,NODE 265
 Branch List,17,CHILLED WATER LOOP 2 DEMAND BRANCHES,CHILLED WATER LOOP 2,Plant Demand,4
   Branch,1,CHILLED WATER LOOP 2 DEMAND INLET BRANCH,CHILLED WATER LOOP 2,Plant Demand,NODE 267,CHILLED WATER LOOP 2 DEMAND INLET PIPE NODE
   Branch,2,CHILLED WATER LOOP 2 DEMAND BRANCH 1,CHILLED WATER LOOP 2,Plant Demand,NODE 269,NODE 303
   Branch,3,CHILLED WATER LOOP 2 DEMAND BYPASS BRANCH,CHILLED WATER LOOP 2,Plant Demand,CHILLED WATER LOOP 2 DEMAND BYPASS PIPE INLET NODE,CHILLED WATER LOOP 2 DEMAND BYPASS PIPE OUTLET NODE
   Branch,4,CHILLED WATER LOOP 2 DEMAND OUTLET BRANCH,CHILLED WATER LOOP 2,Plant Demand,CHILLED WATER LOOP 2 DEMAND OUTLET PIPE NODE,NODE 268
 Branch List,18,CHILLED WATER LOOP 3 SUPPLY BRANCHES,CHILLED WATER LOOP 3,Plant Supply,5
   Branch,1,CHILLED WATER LOOP 3 SUPPLY INLET BRANCH,CHILLED WATER LOOP 3,Plant Supply,NODE 307,NODE 313
   Branch,2,CHILLED WATER LOOP 3 SUPPLY BRANCH 1,CHILLED WATER LOOP 3,Plant Supply,NODE 309,NODE 314
   Branch,3,CHILLED WATER LOOP 3 SUPPLY BRANCH 2,CHILLED WATER LOOP 3,Plant Supply,NODE 315,NODE 316
   Branch,4,CHILLED WATER LOOP 3 SUPPLY BRANCH 3,CHILLED WATER LOOP 3,Plant Supply,NODE 317,NODE 318
   Branch,5,CHILLED WATER LOOP 3 SUPPLY OUTLET BRANCH,CHILLED WATER LOOP 3,Plant Supply,NODE 319,NODE 308
 Branch List,19,CHILLED WATER LOOP 3 DEMAND BRANCHES,CHILLED WATER LOOP 3,Plant Demand,4
   Branch,1,CHILLED WATER LOOP 3 DEMAND INLET BRANCH,CHILLED WATER LOOP 3,Plant Demand,NODE 310,CHILLED WATER LOOP 3 DEMAND INLET PIPE NODE
   Branch,2,CHILLED WATER LOOP 3 DEMAND BRANCH 1,CHILLED WATER LOOP 3,Plant Demand,NODE 312,NODE 346
   Branch,3,CHILLED WATER LOOP 3 DEMAND BYPASS BRANCH,CHILLED WATER LOOP 3,Plant Demand,CHILLED WATER LOOP 3 DEMAND BYPASS PIPE INLET NODE,CHILLED WATER LOOP 3 DEMAND BYPASS PIPE OUTLET NODE
   Branch,4,CHILLED WATER LOOP 3 DEMAND OUTLET BRANCH,CHILLED WATER LOOP 3,Plant Demand,CHILLED WATER LOOP 3 DEMAND OUTLET PIPE NODE,NODE 311
 Branch List,20,CONDENSER WATER LOOP SUPPLY BRANCHES,CONDENSER WATER LOOP,Plant Supply,4
   Branch,1,CONDENSER WATER LOOP SUPPLY INLET BRANCH,CONDENSER WATER LOOP,Plant Supply,NODE 113,NODE 119
   Branch,2,CONDENSER WATER LOOP SUPPLY BRANCH 1,CONDENSER WATER LOOP,Plant Supply,NODE 115,NODE 120
   Branch,3,CONDENSER WATER LOOP SUPPLY BRANCH 2,CONDENSER WATER LOOP,Plant Supply,NODE 121,NODE 122
   Branch,4,CONDENSER WATER LOOP SUPPLY OUTLET BRANCH,CONDENSER WATER LOOP,Plant Supply,NODE 123,NODE 114
 Branch List,21,CONDENSER WATER LOOP DEMAND BRANCHES,CONDENSER WATER LOOP,Plant Demand,5
   Branch,1,CONDENSER WATER LOOP DEMAND INLET BRANCH,CONDENSER WATER LOOP,Plant Demand,NODE 116,CONDENSER WATER LOOP DEMAND INLET PIPE NODE
   Branch,2,CONDENSER WATER LOOP DEMAND BRANCH 1,CONDENSER WATER LOOP,Plant Demand,NODE 118,NODE 124
   Branch,3,CONDENSER WATER LOOP DEMAND BRANCH 2,CONDENSER WATER LOOP,Plant Demand,NODE 125,NODE 126
   Branch,4,CONDENSER WATER LOOP DEMAND BYPASS BRANCH,CONDENSER WATER LOOP,Plant Demand,CONDENSER WATER LOOP DEMAND BYPASS PIPE INLET NODE,CONDENSER WATER LOOP DEMAND BYPASS PIPE OUTLET NODE
   Branch,5,CONDENSER WATER LOOP DEMAND OUTLET BRANCH,CONDENSER WATER LOOP,Plant Demand,CONDENSER WATER LOOP DEMAND OUTLET PIPE NODE,NODE 117
 Branch List,22,CONDENSER WATER LOOP 1 SUPPLY BRANCHES,CONDENSER WATER LOOP 1,Plant Supply,4
   Branch,1,CONDENSER WATER LOOP 1 SUPPLY INLET BRANCH,CONDENSER WATER LOOP 1,Plant Supply,NODE 234,NODE 240
   Branch,2,CONDENSER WATER LOOP 1 SUPPLY BRANCH 1,CONDENSER WATER LOOP 1,Plant Supply,NODE 236,NODE 241
   Branch,3,CONDENSER WATER LOOP 1 SUPPLY BRANCH 2,CONDENSER WATER LOOP 1,Plant Supply,NODE 242,NODE 243
   Branch,4,CONDENSER WATER LOOP 1 SUPPLY OUTLET BRANCH,CONDENSER WATER LOOP 1,Plant Supply,NODE 244,NODE 235
 Branch List,23,CONDENSER WATER LOOP 1 DEMAND BRANCHES,CONDENSER WATER LOOP 1,Plant Demand,5
   Branch,1,CONDENSER WATER LOOP 1 DEMAND INLET BRANCH,CONDENSER WATER LOOP 1,Plant Demand,NODE 237,CONDENSER WATER LOOP 1 DEMAND INLET PIPE NODE
   Branch,2,CONDENSER WATER LOOP 1 DEMAND BRANCH 1,CONDENSER WATER LOOP 1,Plant Demand,NODE 239,NODE 245
   Branch,3,CONDENSER WATER LOOP 1 DEMAND BRANCH 2,CONDENSER WATER LOOP 1,Plant Demand,NODE 246,NODE 247
   Branch,4,CONDENSER WATER LOOP 1 DEMAND BYPASS BRANCH,CONDENSER WATER LOOP 1,Plant Demand,CONDENSER WATER LOOP 1 DEMAND BYPASS PIPE INLET NODE,CONDENSER WATER LOOP 1 DEMAND BYPASS PIPE OUTLET NODE
   Branch,5,CONDENSER WATER LOOP 1 DEMAND OUTLET BRANCH,CONDENSER WATER LOOP 1,Plant Demand,CONDENSER WATER LOOP 1 DEMAND OUTLET PIPE NODE,NODE 238
 Branch List,24,CONDENSER WATER LOOP 2 SUPPLY BRANCHES,CONDENSER WATER LOOP 2,Plant Supply,4
   Branch,1,CONDENSER WATER LOOP 2 SUPPLY INLET BRANCH,CONDENSER WATER LOOP 2,Plant Supply,NODE 277,NODE 283
   Branch,2,CONDENSER WATER LOOP 2 SUPPLY BRANCH 1,CONDENSER WATER LOOP 2,Plant Supply,NODE 279,NODE 284
   Branch,3,CONDENSER WATER LOOP 2 SUPPLY BRANCH 2,CONDENSER WATER LOOP 2,Plant Supply,NODE 285,NODE 286
   Branch,4,CONDENSER WATER LOOP 2 SUPPLY OUTLET BRANCH,CONDENSER WATER LOOP 2,Plant Supply,NODE 287,NODE 278
 Branch List,25,CONDENSER WATER LOOP 2 DEMAND BRANCHES,CONDENSER WATER LOOP 2,Plant Demand,5
   Branch,1,CONDENSER WATER LOOP 2 DEMAND INLET BRANCH,CONDENSER WATER LOOP 2,Plant Demand,NODE 280,CONDENSER WATER LOOP 2 DEMAND INLET PIPE NODE
   Branch,2,CONDENSER WATER LOOP 2 DEMAND BRANCH 1,CONDENSER WATER LOOP 2,Plant Demand,NODE 282,NODE 288
   Branch,3,CONDENSER WATER LOOP 2 DEMAND BRANCH 2,CONDENSER WATER LOOP 2,Plant Demand,NODE 289,NODE 290
   Branch,4,CONDENSER WATER LOOP 2 DEMAND BYPASS BRANCH,CONDENSER WATER LOOP 2,Plant Demand,CONDENSER WATER LOOP 2 DEMAND BYPASS PIPE INLET NODE,CONDENSER WATER LOOP 2 DEMAND BYPASS PIPE OUTLET NODE
   Branch,5,CONDENSER WATER LOOP 2 DEMAND OUTLET BRANCH,CONDENSER WATER LOOP 2,Plant Demand,CONDENSER WATER LOOP 2 DEMAND OUTLET PIPE NODE,NODE 281
 Branch List,26,CONDENSER WATER LOOP 3 SUPPLY BRANCHES,CONDENSER WATER LOOP 3,Plant Supply,4
   Branch,1,CONDENSER WATER LOOP 3 SUPPLY INLET BRANCH,CONDENSER WATER LOOP 3,Plant Supply,NODE 320,NODE 326
   Branch,2,CONDENSER WATER LOOP 3 SUPPLY BRANCH 1,CONDENSER WATER LOOP 3,Plant Supply,NODE 322,NODE 327
   Branch,3,CONDENSER WATER LOOP 3 SUPPLY BRANCH 2,CONDENSER WATER LOOP 3,Plant Supply,NODE 328,NODE 329
   Branch,4,CONDENSER WATER LOOP 3 SUPPLY OUTLET BRANCH,CONDENSER WATER LOOP 3,Plant Supply,NODE 330,NODE 321
 Branch List,27,CONDENSER WATER LOOP 3 DEMAND BRANCHES,CONDENSER WATER LOOP 3,Plant Demand,5
   Branch,1,CONDENSER WATER LOOP 3 DEMAND INLET BRANCH,CONDENSER WATER LOOP 3,Plant Demand,NODE 323,CONDENSER WATER LOOP 3 DEMAND INLET PIPE NODE
   Branch,2,CONDENSER WATER LOOP 3 DEMAND BRANCH 1,CONDENSER WATER LOOP 3,Plant Demand,NODE 325,NODE 331
   Branch,3,CONDENSER WATER LOOP 3 DEMAND BRANCH 2,CONDENSER WATER LOOP 3,Plant Demand,NODE 332,NODE 333
   Branch,4,CONDENSER WATER LOOP 3 DEMAND BYPASS BRANCH,CONDENSER WATER LOOP 3,Plant Demand,CONDENSER WATER LOOP 3 DEMAND BYPASS PIPE INLET NODE,CONDENSER WATER LOOP 3 DEMAND BYPASS PIPE OUTLET NODE
   Branch,5,CONDENSER WATER LOOP 3 DEMAND OUTLET BRANCH,CONDENSER WATER LOOP 3,Plant Demand,CONDENSER WATER LOOP 3 DEMAND OUTLET PIPE NODE,NODE 324
 Branch List,28,HOT WATER LOOP SUPPLY BRANCHES,HOT WATER LOOP,Plant Supply,5
   Branch,1,HOT WATER LOOP SUPPLY INLET BRANCH,HOT WATER LOOP,Plant Supply,NODE 2,NODE 11
   Branch,2,HOT WATER LOOP SUPPLY BRANCH 1,HOT WATER LOOP,Plant Supply,NODE 5,NODE 12
   Branch,3,HOT WATER LOOP SUPPLY BRANCH 2,HOT WATER LOOP,Plant Supply,NODE 14,NODE 15
   Branch,4,HOT WATER LOOP SUPPLY BRANCH 3,HOT WATER LOOP,Plant Supply,NODE 17,NODE 18
   Branch,5,HOT WATER LOOP SUPPLY OUTLET BRANCH,HOT WATER LOOP,Plant Supply,NODE 20,NODE 3
 Branch List,29,HOT WATER LOOP DEMAND BRANCHES,HOT WATER LOOP,Plant Demand,29
   Branch,1,HOT WATER LOOP DEMAND INLET BRANCH,HOT WATER LOOP,Plant Demand,NODE 6,HOT WATER LOOP DEMAND INLET PIPE NODE
   Branch,2,HOT WATER LOOP DEMAND BRANCH 1,HOT WATER LOOP,Plant Demand,NODE 9,NODE 38
   Branch,3,HOT WATER LOOP DEMAND BRANCH 2,HOT WATER LOOP,Plant Demand,NODE 42,NODE 44
   Branch,4,HOT WATER LOOP DEMAND BRANCH 3,HOT WATER LOOP,Plant Demand,NODE 61,NODE 62
   Branch,5,HOT WATER LOOP DEMAND BRANCH 4,HOT WATER LOOP,Plant Demand,NODE 65,NODE 66
   Branch,6,HOT WATER LOOP DEMAND BRANCH 5,HOT WATER LOOP,Plant Demand,NODE 69,NODE 70
   Branch,7,HOT WATER LOOP DEMAND BRANCH 6,HOT WATER LOOP,Plant Demand,NODE 73,NODE 74
   Branch,8,HOT WATER LOOP DEMAND BRANCH 7,HOT WATER LOOP,Plant Demand,NODE 86,NODE 87
   Branch,9,HOT WATER LOOP DEMAND BRANCH 8,HOT WATER LOOP,Plant Demand,NODE 90,NODE 91
   Branch,10,HOT WATER LOOP DEMAND BRANCH 9,HOT WATER LOOP,Plant Demand,NODE 94,NODE 95
   Branch,11,HOT WATER LOOP DEMAND BRANCH 10,HOT WATER LOOP,Plant Demand,NODE 98,NODE 99
   Branch,12,HOT WATER LOOP DEMAND BRANCH 11,HOT WATER LOOP,Plant Demand,NODE 132,NODE 133
   Branch,13,HOT WATER LOOP DEMAND BRANCH 12,HOT WATER LOOP,Plant Demand,NODE 141,NODE 142
   Branch,14,HOT WATER LOOP DEMAND BRANCH 13,HOT WATER LOOP,Plant Demand,NODE 145,NODE 146
   Branch,15,HOT WATER LOOP DEMAND BRANCH 14,HOT WATER LOOP,Plant Demand,NODE 147,NODE 148
   Branch,16,HOT WATER LOOP DEMAND BRANCH 15,HOT WATER LOOP,Plant Demand,NODE 152,NODE 153
   Branch,17,HOT WATER LOOP DEMAND BRANCH 16,HOT WATER LOOP,Plant Demand,NODE 154,NODE 155
   Branch,18,HOT WATER LOOP DEMAND BRANCH 17,HOT WATER LOOP,Plant Demand,NODE 159,NODE 160
   Branch,19,HOT WATER LOOP DEMAND BRANCH 18,HOT WATER LOOP,Plant Demand,NODE 166,NODE 167
   Branch,20,HOT WATER LOOP DEMAND BRANCH 19,HOT WATER LOOP,Plant Demand,NODE 176,NODE 177
   Branch,21,HOT WATER LOOP DEMAND BRANCH 20,HOT WATER LOOP,Plant Demand,NODE 180,NODE 181
   Branch,22,HOT WATER LOOP DEMAND BRANCH 21,HOT WATER LOOP,Plant Demand,NODE 193,NODE 194
   Branch,23,HOT WATER LOOP DEMAND BRANCH 22,HOT WATER LOOP,Plant Demand,NODE 206,NODE 207
   Branch,24,HOT WATER LOOP DEMAND BRANCH 23,HOT WATER LOOP,Plant Demand,NODE 219,NODE 220
   Branch,25,HOT WATER LOOP DEMAND BRANCH 24,HOT WATER LOOP,Plant Demand,NODE 258,NODE 259
   Branch,26,HOT WATER LOOP DEMAND BRANCH 25,HOT WATER LOOP,Plant Demand,NODE 301,NODE 302
   Branch,27,HOT WATER LOOP DEMAND BRANCH 26,HOT WATER LOOP,Plant Demand,NODE 344,NODE 345
   Branch,28,HOT WATER LOOP DEMAND BYPASS BRANCH,HOT WATER LOOP,Plant Demand,HOT WATER LOOP DEMAND BYPASS PIPE INLET NODE,HOT WATER LOOP DEMAND BYPASS PIPE OUTLET NODE
   Branch,29,HOT WATER LOOP DEMAND OUTLET BRANCH,HOT WATER LOOP,Plant Demand,HOT WATER LOOP DEMAND OUTLET PIPE NODE,NODE 8
 Branch List,30,MAIN SERVICE WATER LOOP SUPPLY BRANCHES,MAIN SERVICE WATER LOOP,Plant Supply,4
   Branch,1,MAIN SERVICE WATER LOOP SUPPLY INLET BRANCH,MAIN SERVICE WATER LOOP,Plant Supply,NODE 350,NODE 356
   Branch,2,MAIN SERVICE WATER LOOP SUPPLY BRANCH 1,MAIN SERVICE WATER LOOP,Plant Supply,NODE 352,NODE 357
   Branch,3,MAIN SERVICE WATER LOOP SUPPLY BRANCH 2,MAIN SERVICE WATER LOOP,Plant Supply,NODE 358,NODE 359
   Branch,4,MAIN SERVICE WATER LOOP SUPPLY OUTLET BRANCH,MAIN SERVICE WATER LOOP,Plant Supply,NODE 361,NODE 351
 Branch List,31,MAIN SERVICE WATER LOOP DEMAND BRANCHES,MAIN SERVICE WATER LOOP,Plant Demand,18
   Branch,1,MAIN SERVICE WATER LOOP DEMAND INLET BRANCH,MAIN SERVICE WATER LOOP,Plant Demand,NODE 353,NODE 362
   Branch,2,MAIN SERVICE WATER LOOP DEMAND BRANCH 1,MAIN SERVICE WATER LOOP,Plant Demand,NODE 355,NODE 360
   Branch,3,MAIN SERVICE WATER LOOP DEMAND BRANCH 2,MAIN SERVICE WATER LOOP,Plant Demand,NODE 364,NODE 365
   Branch,4,MAIN SERVICE WATER LOOP DEMAND BRANCH 3,MAIN SERVICE WATER LOOP,Plant Demand,NODE 366,NODE 367
   Branch,5,MAIN SERVICE WATER LOOP DEMAND BRANCH 4,MAIN SERVICE WATER LOOP,Plant Demand,NODE 368,NODE 369
   Branch,6,MAIN SERVICE WATER LOOP DEMAND BRANCH 5,MAIN SERVICE WATER LOOP,Plant Demand,NODE 370,NODE 371
   Branch,7,MAIN SERVICE WATER LOOP DEMAND BRANCH 6,MAIN SERVICE WATER LOOP,Plant Demand,NODE 372,NODE 373
   Branch,8,MAIN SERVICE WATER LOOP DEMAND BRANCH 7,MAIN SERVICE WATER LOOP,Plant Demand,NODE 374,NODE 375
   Branch,9,MAIN SERVICE WATER LOOP DEMAND BRANCH 8,MAIN SERVICE WATER LOOP,Plant Demand,NODE 376,NODE 377
   Branch,10,MAIN SERVICE WATER LOOP DEMAND BRANCH 9,MAIN SERVICE WATER LOOP,Plant Demand,NODE 378,NODE 379
   Branch,11,MAIN SERVICE WATER LOOP DEMAND BRANCH 10,MAIN SERVICE WATER LOOP,Plant Demand,NODE 380,NODE 381
   Branch,12,MAIN SERVICE WATER LOOP DEMAND BRANCH 11,MAIN SERVICE WATER LOOP,Plant Demand,NODE 382,NODE 383
   Branch,13,MAIN SERVICE WATER LOOP DEMAND BRANCH 12,MAIN SERVICE WATER LOOP,Plant Demand,NODE 384,NODE 385
   Branch,14,MAIN SERVICE WATER LOOP DEMAND BRANCH 13,MAIN SERVICE WATER LOOP,Plant Demand,NODE 386,NODE 387
   Branch,15,MAIN SERVICE WATER LOOP DEMAND BRANCH 14,MAIN SERVICE WATER LOOP,Plant Demand,NODE 388,NODE 389
   Branch,16,MAIN SERVICE WATER LOOP DEMAND BRANCH 15,MAIN SERVICE WATER LOOP,Plant Demand,NODE 390,NODE 391
   Branch,17,MAIN SERVICE WATER LOOP DEMAND BYPASS BRANCH,MAIN SERVICE WATER LOOP,Plant Demand,MAIN SERVICE WATER LOOP DEMAND BYPASS PIPE INLET NODE,MAIN SERVICE WATER LOOP DEMAND BYPASS PIPE OUTLET NODE
   Branch,18,MAIN SERVICE WATER LOOP DEMAND OUTLET BRANCH,MAIN SERVICE WATER LOOP,Plant Demand,NODE 363,NODE 354
! ===============================================================
! <#Supply Air Paths>,<Number of Supply Air Paths>
 #Supply Air Paths,11
! <Supply Air Path>,<Supply Air Path Count>,<Supply Air Path Name>,<AirLoopHVAC Name>
! <#Components on Supply Air Path>,<Number of Components>
! <Supply Air Path Component>,<Component Count>,<Component Type>,<Component Name>,<AirLoopHVAC Name>
! <#Outlet Nodes on Supply Air Path Component>,<Number of Nodes>
! <Supply Air Path Component Nodes>,<Node Count>,<Component Type>,<Component Name>,<Inlet Node Name>,<Outlet Node Name>,<AirLoopHVAC Name>
 Supply Air Path,1,SYS_2_MAKE-UP AIR UNIT NODE 250 SUPPLY PATH,SYS_2_MAKE-UP AIR UNIT
   #Components on Supply Air Path,1
   Supply Air Path Component,1,AIRLOOPHVAC:ZONESPLITTER,AIR LOOP HVAC ZONE SPLITTER 9,SYS_2_MAKE-UP AIR UNIT
     #Outlet Nodes on Supply Air Path Component,1
     Supply Air Path Component Nodes,1,AIRLOOPHVAC:ZONESPLITTER,AIR LOOP HVAC ZONE SPLITTER 9,NODE 250,NODE 252,SYS_2_MAKE-UP AIR UNIT
! <#Nodes on Supply Air Path>,<Number of Nodes>
! <Supply Air Path Node>,<Node Type>,<Node Count>,<Node Name>,<AirLoopHVAC Name>
#Nodes on Supply Air Path,2
   Supply Air Path Node,Inlet Node,1,NODE 250,SYS_2_MAKE-UP AIR UNIT
   Supply Air Path Node,Outlet Node,2,NODE 252,SYS_2_MAKE-UP AIR UNIT
 Supply Air Path,2,SYS_2_MAKE-UP AIR UNIT 1 NODE 293 SUPPLY PATH,SYS_2_MAKE-UP AIR UNIT 1
   #Components on Supply Air Path,1
   Supply Air Path Component,1,AIRLOOPHVAC:ZONESPLITTER,AIR LOOP HVAC ZONE SPLITTER 10,SYS_2_MAKE-UP AIR UNIT 1
     #Outlet Nodes on Supply Air Path Component,1
     Supply Air Path Component Nodes,1,AIRLOOPHVAC:ZONESPLITTER,AIR LOOP HVAC ZONE SPLITTER 10,NODE 293,NODE 295,SYS_2_MAKE-UP AIR UNIT 1
! <#Nodes on Supply Air Path>,<Number of Nodes>
! <Supply Air Path Node>,<Node Type>,<Node Count>,<Node Name>,<AirLoopHVAC Name>
#Nodes on Supply Air Path,2
   Supply Air Path Node,Inlet Node,1,NODE 293,SYS_2_MAKE-UP AIR UNIT 1
   Supply Air Path Node,Outlet Node,2,NODE 295,SYS_2_MAKE-UP AIR UNIT 1
 Supply Air Path,3,SYS_2_MAKE-UP AIR UNIT 2 NODE 336 SUPPLY PATH,SYS_2_MAKE-UP AIR UNIT 2
   #Components on Supply Air Path,1
   Supply Air Path Component,1,AIRLOOPHVAC:ZONESPLITTER,AIR LOOP HVAC ZONE SPLITTER 11,SYS_2_MAKE-UP AIR UNIT 2
     #Outlet Nodes on Supply Air Path Component,1
     Supply Air Path Component Nodes,1,AIRLOOPHVAC:ZONESPLITTER,AIR LOOP HVAC ZONE SPLITTER 11,NODE 336,NODE 338,SYS_2_MAKE-UP AIR UNIT 2
! <#Nodes on Supply Air Path>,<Number of Nodes>
! <Supply Air Path Node>,<Node Type>,<Node Count>,<Node Name>,<AirLoopHVAC Name>
#Nodes on Supply Air Path,2
   Supply Air Path Node,Inlet Node,1,NODE 336,SYS_2_MAKE-UP AIR UNIT 2
   Supply Air Path Node,Outlet Node,2,NODE 338,SYS_2_MAKE-UP AIR UNIT 2
 Supply Air Path,4,SYS_4_PSZ_ALL_ST=STORAGE AREA_FL=STORY 3_SCH=E NODE 48 SUPPLY PATH,SYS_4_PSZ_ALL_ST=STORAGE AREA_FL=STORY 3_SCH=E
   #Components on Supply Air Path,1
   Supply Air Path Component,1,AIRLOOPHVAC:ZONESPLITTER,AIR LOOP HVAC ZONE SPLITTER 2,SYS_4_PSZ_ALL_ST=STORAGE AREA_FL=STORY 3_SCH=E
     #Outlet Nodes on Supply Air Path Component,4
     Supply Air Path Component Nodes,1,AIRLOOPHVAC:ZONESPLITTER,AIR LOOP HVAC ZONE SPLITTER 2,NODE 48,NODE 51,SYS_4_PSZ_ALL_ST=STORAGE AREA_FL=STORY 3_SCH=E
     Supply Air Path Component Nodes,2,AIRLOOPHVAC:ZONESPLITTER,AIR LOOP HVAC ZONE SPLITTER 2,NODE 48,NODE 63,SYS_4_PSZ_ALL_ST=STORAGE AREA_FL=STORY 3_SCH=E
     Supply Air Path Component Nodes,3,AIRLOOPHVAC:ZONESPLITTER,AIR LOOP HVAC ZONE SPLITTER 2,NODE 48,NODE 67,SYS_4_PSZ_ALL_ST=STORAGE AREA_FL=STORY 3_SCH=E
     Supply Air Path Component Nodes,4,AIRLOOPHVAC:ZONESPLITTER,AIR LOOP HVAC ZONE SPLITTER 2,NODE 48,NODE 71,SYS_4_PSZ_ALL_ST=STORAGE AREA_FL=STORY 3_SCH=E
! <#Nodes on Supply Air Path>,<Number of Nodes>
! <Supply Air Path Node>,<Node Type>,<Node Count>,<Node Name>,<AirLoopHVAC Name>
#Nodes on Supply Air Path,5
   Supply Air Path Node,Inlet Node,1,NODE 48,SYS_4_PSZ_ALL_ST=STORAGE AREA_FL=STORY 3_SCH=E
   Supply Air Path Node,Outlet Node,2,NODE 51,SYS_4_PSZ_ALL_ST=STORAGE AREA_FL=STORY 3_SCH=E
   Supply Air Path Node,Outlet Node,3,NODE 63,SYS_4_PSZ_ALL_ST=STORAGE AREA_FL=STORY 3_SCH=E
   Supply Air Path Node,Outlet Node,4,NODE 67,SYS_4_PSZ_ALL_ST=STORAGE AREA_FL=STORY 3_SCH=E
   Supply Air Path Node,Outlet Node,5,NODE 71,SYS_4_PSZ_ALL_ST=STORAGE AREA_FL=STORY 3_SCH=E
 Supply Air Path,5,SYS_4_PSZ_ALL_ST=WAREHOUSE - FINE_FL=STORY 1_SCH=A NODE 184 SUPPLY PATH,SYS_4_PSZ_ALL_ST=WAREHOUSE - FINE_FL=STORY 1_SCH=A
   #Components on Supply Air Path,1
   Supply Air Path Component,1,AIRLOOPHVAC:ZONESPLITTER,AIR LOOP HVAC ZONE SPLITTER 6,SYS_4_PSZ_ALL_ST=WAREHOUSE - FINE_FL=STORY 1_SCH=A
     #Outlet Nodes on Supply Air Path Component,1
     Supply Air Path Component Nodes,1,AIRLOOPHVAC:ZONESPLITTER,AIR LOOP HVAC ZONE SPLITTER 6,NODE 184,NODE 186,SYS_4_PSZ_ALL_ST=WAREHOUSE - FINE_FL=STORY 1_SCH=A
! <#Nodes on Supply Air Path>,<Number of Nodes>
! <Supply Air Path Node>,<Node Type>,<Node Count>,<Node Name>,<AirLoopHVAC Name>
#Nodes on Supply Air Path,2
   Supply Air Path Node,Inlet Node,1,NODE 184,SYS_4_PSZ_ALL_ST=WAREHOUSE - FINE_FL=STORY 1_SCH=A
   Supply Air Path Node,Outlet Node,2,NODE 186,SYS_4_PSZ_ALL_ST=WAREHOUSE - FINE_FL=STORY 1_SCH=A
 Supply Air Path,6,SYS_4_PSZ_ALL_ST=WAREHOUSE - MED/BLK2_FL=STORY 2_SCH=A NODE 210 SUPPLY PATH,SYS_4_PSZ_ALL_ST=WAREHOUSE - MED/BLK2_FL=STORY 2_SCH=A
   #Components on Supply Air Path,1
   Supply Air Path Component,1,AIRLOOPHVAC:ZONESPLITTER,AIR LOOP HVAC ZONE SPLITTER 8,SYS_4_PSZ_ALL_ST=WAREHOUSE - MED/BLK2_FL=STORY 2_SCH=A
     #Outlet Nodes on Supply Air Path Component,1
     Supply Air Path Component Nodes,1,AIRLOOPHVAC:ZONESPLITTER,AIR LOOP HVAC ZONE SPLITTER 8,NODE 210,NODE 212,SYS_4_PSZ_ALL_ST=WAREHOUSE - MED/BLK2_FL=STORY 2_SCH=A
! <#Nodes on Supply Air Path>,<Number of Nodes>
! <Supply Air Path Node>,<Node Type>,<Node Count>,<Node Name>,<AirLoopHVAC Name>
#Nodes on Supply Air Path,2
   Supply Air Path Node,Inlet Node,1,NODE 210,SYS_4_PSZ_ALL_ST=WAREHOUSE - MED/BLK2_FL=STORY 2_SCH=A
   Supply Air Path Node,Outlet Node,2,NODE 212,SYS_4_PSZ_ALL_ST=WAREHOUSE - MED/BLK2_FL=STORY 2_SCH=A
 Supply Air Path,7,SYS_4_PSZ_ALL_ST=WAREHOUSE - MED/BLK_FL=STORY 1_SCH=A NODE 197 SUPPLY PATH,SYS_4_PSZ_ALL_ST=WAREHOUSE - MED/BLK_FL=STORY 1_SCH=A
   #Components on Supply Air Path,1
   Supply Air Path Component,1,AIRLOOPHVAC:ZONESPLITTER,AIR LOOP HVAC ZONE SPLITTER 7,SYS_4_PSZ_ALL_ST=WAREHOUSE - MED/BLK_FL=STORY 1_SCH=A
     #Outlet Nodes on Supply Air Path Component,1
     Supply Air Path Component Nodes,1,AIRLOOPHVAC:ZONESPLITTER,AIR LOOP HVAC ZONE SPLITTER 7,NODE 197,NODE 199,SYS_4_PSZ_ALL_ST=WAREHOUSE - MED/BLK_FL=STORY 1_SCH=A
! <#Nodes on Supply Air Path>,<Number of Nodes>
! <Supply Air Path Node>,<Node Type>,<Node Count>,<Node Name>,<AirLoopHVAC Name>
#Nodes on Supply Air Path,2
   Supply Air Path Node,Inlet Node,1,NODE 197,SYS_4_PSZ_ALL_ST=WAREHOUSE - MED/BLK_FL=STORY 1_SCH=A
   Supply Air Path Node,Outlet Node,2,NODE 199,SYS_4_PSZ_ALL_ST=WAREHOUSE - MED/BLK_FL=STORY 1_SCH=A
 Supply Air Path,8,SYS_4_PSZ_WET_ST=WASHROOM-SCH-A_FL=STORY 4_SCHA NODE 24 SUPPLY PATH,SYS_4_PSZ_WET_ST=WASHROOM-SCH-A_FL=STORY 4_SCHA
   #Components on Supply Air Path,1
   Supply Air Path Component,1,AIRLOOPHVAC:ZONESPLITTER,AIR LOOP HVAC ZONE SPLITTER 1,SYS_4_PSZ_WET_ST=WASHROOM-SCH-A_FL=STORY 4_SCHA
     #Outlet Nodes on Supply Air Path Component,2
     Supply Air Path Component Nodes,1,AIRLOOPHVAC:ZONESPLITTER,AIR LOOP HVAC ZONE SPLITTER 1,NODE 24,NODE 27,SYS_4_PSZ_WET_ST=WASHROOM-SCH-A_FL=STORY 4_SCHA
     Supply Air Path Component Nodes,2,AIRLOOPHVAC:ZONESPLITTER,AIR LOOP HVAC ZONE SPLITTER 1,NODE 24,NODE 39,SYS_4_PSZ_WET_ST=WASHROOM-SCH-A_FL=STORY 4_SCHA
! <#Nodes on Supply Air Path>,<Number of Nodes>
! <Supply Air Path Node>,<Node Type>,<Node Count>,<Node Name>,<AirLoopHVAC Name>
#Nodes on Supply Air Path,3
   Supply Air Path Node,Inlet Node,1,NODE 24,SYS_4_PSZ_WET_ST=WASHROOM-SCH-A_FL=STORY 4_SCHA
   Supply Air Path Node,Outlet Node,2,NODE 27,SYS_4_PSZ_WET_ST=WASHROOM-SCH-A_FL=STORY 4_SCHA
   Supply Air Path Node,Outlet Node,3,NODE 39,SYS_4_PSZ_WET_ST=WASHROOM-SCH-A_FL=STORY 4_SCHA
 Supply Air Path,9,SYS_4_PSZ_WILD_ST=STAIRWAY-SCH-F_FL=STORY 4_SCH=A NODE 77 SUPPLY PATH,SYS_4_PSZ_WILD_ST=STAIRWAY-SCH-F_FL=STORY 4_SCH=A
   #Components on Supply Air Path,1
   Supply Air Path Component,1,AIRLOOPHVAC:ZONESPLITTER,AIR LOOP HVAC ZONE SPLITTER 3,SYS_4_PSZ_WILD_ST=STAIRWAY-SCH-F_FL=STORY 4_SCH=A
     #Outlet Nodes on Supply Air Path Component,4
     Supply Air Path Component Nodes,1,AIRLOOPHVAC:ZONESPLITTER,AIR LOOP HVAC ZONE SPLITTER 3,NODE 77,NODE 79,SYS_4_PSZ_WILD_ST=STAIRWAY-SCH-F_FL=STORY 4_SCH=A
     Supply Air Path Component Nodes,2,AIRLOOPHVAC:ZONESPLITTER,AIR LOOP HVAC ZONE SPLITTER 3,NODE 77,NODE 88,SYS_4_PSZ_WILD_ST=STAIRWAY-SCH-F_FL=STORY 4_SCH=A
     Supply Air Path Component Nodes,3,AIRLOOPHVAC:ZONESPLITTER,AIR LOOP HVAC ZONE SPLITTER 3,NODE 77,NODE 92,SYS_4_PSZ_WILD_ST=STAIRWAY-SCH-F_FL=STORY 4_SCH=A
     Supply Air Path Component Nodes,4,AIRLOOPHVAC:ZONESPLITTER,AIR LOOP HVAC ZONE SPLITTER 3,NODE 77,NODE 96,SYS_4_PSZ_WILD_ST=STAIRWAY-SCH-F_FL=STORY 4_SCH=A
! <#Nodes on Supply Air Path>,<Number of Nodes>
! <Supply Air Path Node>,<Node Type>,<Node Count>,<Node Name>,<AirLoopHVAC Name>
#Nodes on Supply Air Path,5
   Supply Air Path Node,Inlet Node,1,NODE 77,SYS_4_PSZ_WILD_ST=STAIRWAY-SCH-F_FL=STORY 4_SCH=A
   Supply Air Path Node,Outlet Node,2,NODE 79,SYS_4_PSZ_WILD_ST=STAIRWAY-SCH-F_FL=STORY 4_SCH=A
   Supply Air Path Node,Outlet Node,3,NODE 88,SYS_4_PSZ_WILD_ST=STAIRWAY-SCH-F_FL=STORY 4_SCH=A
   Supply Air Path Node,Outlet Node,4,NODE 92,SYS_4_PSZ_WILD_ST=STAIRWAY-SCH-F_FL=STORY 4_SCH=A
   Supply Air Path Node,Outlet Node,5,NODE 96,SYS_4_PSZ_WILD_ST=STAIRWAY-SCH-F_FL=STORY 4_SCH=A
 Supply Air Path,10,SYS_6_VAV WITH REHEAT NODE 129 SUPPLY PATH,SYS_6_VAV WITH REHEAT
   #Components on Supply Air Path,1
   Supply Air Path Component,1,AIRLOOPHVAC:ZONESPLITTER,AIR LOOP HVAC ZONE SPLITTER 4,SYS_6_VAV WITH REHEAT
     #Outlet Nodes on Supply Air Path Component,3
     Supply Air Path Component Nodes,1,AIRLOOPHVAC:ZONESPLITTER,AIR LOOP HVAC ZONE SPLITTER 4,NODE 129,NODE 144,SYS_6_VAV WITH REHEAT
     Supply Air Path Component Nodes,2,AIRLOOPHVAC:ZONESPLITTER,AIR LOOP HVAC ZONE SPLITTER 4,NODE 129,NODE 151,SYS_6_VAV WITH REHEAT
     Supply Air Path Component Nodes,3,AIRLOOPHVAC:ZONESPLITTER,AIR LOOP HVAC ZONE SPLITTER 4,NODE 129,NODE 158,SYS_6_VAV WITH REHEAT
! <#Nodes on Supply Air Path>,<Number of Nodes>
! <Supply Air Path Node>,<Node Type>,<Node Count>,<Node Name>,<AirLoopHVAC Name>
#Nodes on Supply Air Path,4
   Supply Air Path Node,Inlet Node,1,NODE 129,SYS_6_VAV WITH REHEAT
   Supply Air Path Node,Outlet Node,2,NODE 144,SYS_6_VAV WITH REHEAT
   Supply Air Path Node,Outlet Node,3,NODE 151,SYS_6_VAV WITH REHEAT
   Supply Air Path Node,Outlet Node,4,NODE 158,SYS_6_VAV WITH REHEAT
 Supply Air Path,11,SYS_6_VAV WITH REHEAT 1 NODE 163 SUPPLY PATH,SYS_6_VAV WITH REHEAT 1
   #Components on Supply Air Path,1
   Supply Air Path Component,1,AIRLOOPHVAC:ZONESPLITTER,AIR LOOP HVAC ZONE SPLITTER 5,SYS_6_VAV WITH REHEAT 1
     #Outlet Nodes on Supply Air Path Component,1
     Supply Air Path Component Nodes,1,AIRLOOPHVAC:ZONESPLITTER,AIR LOOP HVAC ZONE SPLITTER 5,NODE 163,NODE 179,SYS_6_VAV WITH REHEAT 1
! <#Nodes on Supply Air Path>,<Number of Nodes>
! <Supply Air Path Node>,<Node Type>,<Node Count>,<Node Name>,<AirLoopHVAC Name>
#Nodes on Supply Air Path,2
   Supply Air Path Node,Inlet Node,1,NODE 163,SYS_6_VAV WITH REHEAT 1
   Supply Air Path Node,Outlet Node,2,NODE 179,SYS_6_VAV WITH REHEAT 1
! ===============================================================
! <#Return Air Paths>,<Number of Return Air Paths>
 #Return Air Paths,11
! <Return Air Path>,<Return Air Path Count>,<Return Air Path Name>,<AirLoopHVAC Name>
! <#Components on Return Air Path>,<Number of Components>
! <Return Air Path Component>,<Component Count>,<Component Type>,<Component Name>,<AirLoopHVAC Name>
! <#Inlet Nodes on Return Air Path Component>,<Number of Nodes>
! <Return Air Path Component Nodes>,<Node Count>,<Component Type>,<Component Name>,<Inlet Node Name>,<Outlet Node Name>,<AirLoopHVAC Name>
 Return Air Path,1,SYS_2_MAKE-UP AIR UNIT RETURN PATH,SYS_2_MAKE-UP AIR UNIT
   #Components on Return Air Path,1
   Return Air Path Component,1,AIRLOOPHVAC:ZONEMIXER,AIR LOOP HVAC ZONE MIXER 9,SYS_2_MAKE-UP AIR UNIT
     #Inlet Nodes on Return Air Path Component,1
     Return Air Path Component Nodes,1,AIRLOOPHVAC:ZONEMIXER,AIR LOOP HVAC ZONE MIXER 9,NODE 263,NODE 251,SYS_2_MAKE-UP AIR UNIT
! <#Nodes on Return Air Path>,<Number of Nodes>
! <Return Air Path Node>,<Node Type>,<Node Count>,<Node Name>,<AirLoopHVAC Name>
   #Nodes on Return Air Path,2
   Return Air Path Node,Outlet Node,1,NODE 251,SYS_2_MAKE-UP AIR UNIT
   Return Air Path Node,Inlet Node,2,NODE 263,SYS_2_MAKE-UP AIR UNIT
 Return Air Path,2,SYS_2_MAKE-UP AIR UNIT 1 RETURN PATH,SYS_2_MAKE-UP AIR UNIT 1
   #Components on Return Air Path,1
   Return Air Path Component,1,AIRLOOPHVAC:ZONEMIXER,AIR LOOP HVAC ZONE MIXER 10,SYS_2_MAKE-UP AIR UNIT 1
     #Inlet Nodes on Return Air Path Component,1
     Return Air Path Component Nodes,1,AIRLOOPHVAC:ZONEMIXER,AIR LOOP HVAC ZONE MIXER 10,NODE 306,NODE 294,SYS_2_MAKE-UP AIR UNIT 1
! <#Nodes on Return Air Path>,<Number of Nodes>
! <Return Air Path Node>,<Node Type>,<Node Count>,<Node Name>,<AirLoopHVAC Name>
   #Nodes on Return Air Path,2
   Return Air Path Node,Outlet Node,1,NODE 294,SYS_2_MAKE-UP AIR UNIT 1
   Return Air Path Node,Inlet Node,2,NODE 306,SYS_2_MAKE-UP AIR UNIT 1
 Return Air Path,3,SYS_2_MAKE-UP AIR UNIT 2 RETURN PATH,SYS_2_MAKE-UP AIR UNIT 2
   #Components on Return Air Path,1
   Return Air Path Component,1,AIRLOOPHVAC:ZONEMIXER,AIR LOOP HVAC ZONE MIXER 11,SYS_2_MAKE-UP AIR UNIT 2
     #Inlet Nodes on Return Air Path Component,1
     Return Air Path Component Nodes,1,AIRLOOPHVAC:ZONEMIXER,AIR LOOP HVAC ZONE MIXER 11,NODE 349,NODE 337,SYS_2_MAKE-UP AIR UNIT 2
! <#Nodes on Return Air Path>,<Number of Nodes>
! <Return Air Path Node>,<Node Type>,<Node Count>,<Node Name>,<AirLoopHVAC Name>
   #Nodes on Return Air Path,2
   Return Air Path Node,Outlet Node,1,NODE 337,SYS_2_MAKE-UP AIR UNIT 2
   Return Air Path Node,Inlet Node,2,NODE 349,SYS_2_MAKE-UP AIR UNIT 2
 Return Air Path,4,SYS_4_PSZ_ALL_ST=STORAGE AREA_FL=STORY 3_SCH=E RETURN PATH,SYS_4_PSZ_ALL_ST=STORAGE AREA_FL=STORY 3_SCH=E
   #Components on Return Air Path,1
   Return Air Path Component,1,AIRLOOPHVAC:ZONEMIXER,AIR LOOP HVAC ZONE MIXER 2,SYS_4_PSZ_ALL_ST=STORAGE AREA_FL=STORY 3_SCH=E
     #Inlet Nodes on Return Air Path Component,4
     Return Air Path Component Nodes,1,AIRLOOPHVAC:ZONEMIXER,AIR LOOP HVAC ZONE MIXER 2,NODE 60,NODE 50,SYS_4_PSZ_ALL_ST=STORAGE AREA_FL=STORY 3_SCH=E
     Return Air Path Component Nodes,2,AIRLOOPHVAC:ZONEMIXER,AIR LOOP HVAC ZONE MIXER 2,NODE 64,NODE 50,SYS_4_PSZ_ALL_ST=STORAGE AREA_FL=STORY 3_SCH=E
     Return Air Path Component Nodes,3,AIRLOOPHVAC:ZONEMIXER,AIR LOOP HVAC ZONE MIXER 2,NODE 68,NODE 50,SYS_4_PSZ_ALL_ST=STORAGE AREA_FL=STORY 3_SCH=E
     Return Air Path Component Nodes,4,AIRLOOPHVAC:ZONEMIXER,AIR LOOP HVAC ZONE MIXER 2,NODE 72,NODE 50,SYS_4_PSZ_ALL_ST=STORAGE AREA_FL=STORY 3_SCH=E
! <#Nodes on Return Air Path>,<Number of Nodes>
! <Return Air Path Node>,<Node Type>,<Node Count>,<Node Name>,<AirLoopHVAC Name>
   #Nodes on Return Air Path,5
   Return Air Path Node,Outlet Node,1,NODE 50,SYS_4_PSZ_ALL_ST=STORAGE AREA_FL=STORY 3_SCH=E
   Return Air Path Node,Inlet Node,2,NODE 60,SYS_4_PSZ_ALL_ST=STORAGE AREA_FL=STORY 3_SCH=E
   Return Air Path Node,Inlet Node,3,NODE 64,SYS_4_PSZ_ALL_ST=STORAGE AREA_FL=STORY 3_SCH=E
   Return Air Path Node,Inlet Node,4,NODE 68,SYS_4_PSZ_ALL_ST=STORAGE AREA_FL=STORY 3_SCH=E
   Return Air Path Node,Inlet Node,5,NODE 72,SYS_4_PSZ_ALL_ST=STORAGE AREA_FL=STORY 3_SCH=E
 Return Air Path,5,SYS_4_PSZ_ALL_ST=WAREHOUSE - FINE_FL=STORY 1_SCH=A RETURN PATH,SYS_4_PSZ_ALL_ST=WAREHOUSE - FINE_FL=STORY 1_SCH=A
   #Components on Return Air Path,1
   Return Air Path Component,1,AIRLOOPHVAC:ZONEMIXER,AIR LOOP HVAC ZONE MIXER 6,SYS_4_PSZ_ALL_ST=WAREHOUSE - FINE_FL=STORY 1_SCH=A
     #Inlet Nodes on Return Air Path Component,1
     Return Air Path Component Nodes,1,AIRLOOPHVAC:ZONEMIXER,AIR LOOP HVAC ZONE MIXER 6,NODE 192,NODE 185,SYS_4_PSZ_ALL_ST=WAREHOUSE - FINE_FL=STORY 1_SCH=A
! <#Nodes on Return Air Path>,<Number of Nodes>
! <Return Air Path Node>,<Node Type>,<Node Count>,<Node Name>,<AirLoopHVAC Name>
   #Nodes on Return Air Path,2
   Return Air Path Node,Outlet Node,1,NODE 185,SYS_4_PSZ_ALL_ST=WAREHOUSE - FINE_FL=STORY 1_SCH=A
   Return Air Path Node,Inlet Node,2,NODE 192,SYS_4_PSZ_ALL_ST=WAREHOUSE - FINE_FL=STORY 1_SCH=A
 Return Air Path,6,SYS_4_PSZ_ALL_ST=WAREHOUSE - MED/BLK2_FL=STORY 2_SCH=A RETURN PATH,SYS_4_PSZ_ALL_ST=WAREHOUSE - MED/BLK2_FL=STORY 2_SCH=A
   #Components on Return Air Path,1
   Return Air Path Component,1,AIRLOOPHVAC:ZONEMIXER,AIR LOOP HVAC ZONE MIXER 8,SYS_4_PSZ_ALL_ST=WAREHOUSE - MED/BLK2_FL=STORY 2_SCH=A
     #Inlet Nodes on Return Air Path Component,1
     Return Air Path Component Nodes,1,AIRLOOPHVAC:ZONEMIXER,AIR LOOP HVAC ZONE MIXER 8,NODE 218,NODE 211,SYS_4_PSZ_ALL_ST=WAREHOUSE - MED/BLK2_FL=STORY 2_SCH=A
! <#Nodes on Return Air Path>,<Number of Nodes>
! <Return Air Path Node>,<Node Type>,<Node Count>,<Node Name>,<AirLoopHVAC Name>
   #Nodes on Return Air Path,2
   Return Air Path Node,Outlet Node,1,NODE 211,SYS_4_PSZ_ALL_ST=WAREHOUSE - MED/BLK2_FL=STORY 2_SCH=A
   Return Air Path Node,Inlet Node,2,NODE 218,SYS_4_PSZ_ALL_ST=WAREHOUSE - MED/BLK2_FL=STORY 2_SCH=A
 Return Air Path,7,SYS_4_PSZ_ALL_ST=WAREHOUSE - MED/BLK_FL=STORY 1_SCH=A RETURN PATH,SYS_4_PSZ_ALL_ST=WAREHOUSE - MED/BLK_FL=STORY 1_SCH=A
   #Components on Return Air Path,1
   Return Air Path Component,1,AIRLOOPHVAC:ZONEMIXER,AIR LOOP HVAC ZONE MIXER 7,SYS_4_PSZ_ALL_ST=WAREHOUSE - MED/BLK_FL=STORY 1_SCH=A
     #Inlet Nodes on Return Air Path Component,1
     Return Air Path Component Nodes,1,AIRLOOPHVAC:ZONEMIXER,AIR LOOP HVAC ZONE MIXER 7,NODE 205,NODE 198,SYS_4_PSZ_ALL_ST=WAREHOUSE - MED/BLK_FL=STORY 1_SCH=A
! <#Nodes on Return Air Path>,<Number of Nodes>
! <Return Air Path Node>,<Node Type>,<Node Count>,<Node Name>,<AirLoopHVAC Name>
   #Nodes on Return Air Path,2
   Return Air Path Node,Outlet Node,1,NODE 198,SYS_4_PSZ_ALL_ST=WAREHOUSE - MED/BLK_FL=STORY 1_SCH=A
   Return Air Path Node,Inlet Node,2,NODE 205,SYS_4_PSZ_ALL_ST=WAREHOUSE - MED/BLK_FL=STORY 1_SCH=A
 Return Air Path,8,SYS_4_PSZ_WET_ST=WASHROOM-SCH-A_FL=STORY 4_SCHA RETURN PATH,SYS_4_PSZ_WET_ST=WASHROOM-SCH-A_FL=STORY 4_SCHA
   #Components on Return Air Path,1
   Return Air Path Component,1,AIRLOOPHVAC:ZONEMIXER,AIR LOOP HVAC ZONE MIXER 1,SYS_4_PSZ_WET_ST=WASHROOM-SCH-A_FL=STORY 4_SCHA
     #Inlet Nodes on Return Air Path Component,2
     Return Air Path Component Nodes,1,AIRLOOPHVAC:ZONEMIXER,AIR LOOP HVAC ZONE MIXER 1,NODE 36,NODE 26,SYS_4_PSZ_WET_ST=WASHROOM-SCH-A_FL=STORY 4_SCHA
     Return Air Path Component Nodes,2,AIRLOOPHVAC:ZONEMIXER,AIR LOOP HVAC ZONE MIXER 1,NODE 41,NODE 26,SYS_4_PSZ_WET_ST=WASHROOM-SCH-A_FL=STORY 4_SCHA
! <#Nodes on Return Air Path>,<Number of Nodes>
! <Return Air Path Node>,<Node Type>,<Node Count>,<Node Name>,<AirLoopHVAC Name>
   #Nodes on Return Air Path,3
   Return Air Path Node,Outlet Node,1,NODE 26,SYS_4_PSZ_WET_ST=WASHROOM-SCH-A_FL=STORY 4_SCHA
   Return Air Path Node,Inlet Node,2,NODE 36,SYS_4_PSZ_WET_ST=WASHROOM-SCH-A_FL=STORY 4_SCHA
   Return Air Path Node,Inlet Node,3,NODE 41,SYS_4_PSZ_WET_ST=WASHROOM-SCH-A_FL=STORY 4_SCHA
 Return Air Path,9,SYS_4_PSZ_WILD_ST=STAIRWAY-SCH-F_FL=STORY 4_SCH=A RETURN PATH,SYS_4_PSZ_WILD_ST=STAIRWAY-SCH-F_FL=STORY 4_SCH=A
   #Components on Return Air Path,1
   Return Air Path Component,1,AIRLOOPHVAC:ZONEMIXER,AIR LOOP HVAC ZONE MIXER 3,SYS_4_PSZ_WILD_ST=STAIRWAY-SCH-F_FL=STORY 4_SCH=A
     #Inlet Nodes on Return Air Path Component,4
     Return Air Path Component Nodes,1,AIRLOOPHVAC:ZONEMIXER,AIR LOOP HVAC ZONE MIXER 3,NODE 85,NODE 78,SYS_4_PSZ_WILD_ST=STAIRWAY-SCH-F_FL=STORY 4_SCH=A
     Return Air Path Component Nodes,2,AIRLOOPHVAC:ZONEMIXER,AIR LOOP HVAC ZONE MIXER 3,NODE 89,NODE 78,SYS_4_PSZ_WILD_ST=STAIRWAY-SCH-F_FL=STORY 4_SCH=A
     Return Air Path Component Nodes,3,AIRLOOPHVAC:ZONEMIXER,AIR LOOP HVAC ZONE MIXER 3,NODE 93,NODE 78,SYS_4_PSZ_WILD_ST=STAIRWAY-SCH-F_FL=STORY 4_SCH=A
     Return Air Path Component Nodes,4,AIRLOOPHVAC:ZONEMIXER,AIR LOOP HVAC ZONE MIXER 3,NODE 97,NODE 78,SYS_4_PSZ_WILD_ST=STAIRWAY-SCH-F_FL=STORY 4_SCH=A
! <#Nodes on Return Air Path>,<Number of Nodes>
! <Return Air Path Node>,<Node Type>,<Node Count>,<Node Name>,<AirLoopHVAC Name>
   #Nodes on Return Air Path,5
   Return Air Path Node,Outlet Node,1,NODE 78,SYS_4_PSZ_WILD_ST=STAIRWAY-SCH-F_FL=STORY 4_SCH=A
   Return Air Path Node,Inlet Node,2,NODE 85,SYS_4_PSZ_WILD_ST=STAIRWAY-SCH-F_FL=STORY 4_SCH=A
   Return Air Path Node,Inlet Node,3,NODE 89,SYS_4_PSZ_WILD_ST=STAIRWAY-SCH-F_FL=STORY 4_SCH=A
   Return Air Path Node,Inlet Node,4,NODE 93,SYS_4_PSZ_WILD_ST=STAIRWAY-SCH-F_FL=STORY 4_SCH=A
   Return Air Path Node,Inlet Node,5,NODE 97,SYS_4_PSZ_WILD_ST=STAIRWAY-SCH-F_FL=STORY 4_SCH=A
 Return Air Path,10,SYS_6_VAV WITH REHEAT RETURN PATH,SYS_6_VAV WITH REHEAT
   #Components on Return Air Path,1
   Return Air Path Component,1,AIRLOOPHVAC:ZONEMIXER,AIR LOOP HVAC ZONE MIXER 4,SYS_6_VAV WITH REHEAT
     #Inlet Nodes on Return Air Path Component,3
     Return Air Path Component Nodes,1,AIRLOOPHVAC:ZONEMIXER,AIR LOOP HVAC ZONE MIXER 4,NODE 143,NODE 130,SYS_6_VAV WITH REHEAT
     Return Air Path Component Nodes,2,AIRLOOPHVAC:ZONEMIXER,AIR LOOP HVAC ZONE MIXER 4,NODE 150,NODE 130,SYS_6_VAV WITH REHEAT
     Return Air Path Component Nodes,3,AIRLOOPHVAC:ZONEMIXER,AIR LOOP HVAC ZONE MIXER 4,NODE 157,NODE 130,SYS_6_VAV WITH REHEAT
! <#Nodes on Return Air Path>,<Number of Nodes>
! <Return Air Path Node>,<Node Type>,<Node Count>,<Node Name>,<AirLoopHVAC Name>
   #Nodes on Return Air Path,4
   Return Air Path Node,Outlet Node,1,NODE 130,SYS_6_VAV WITH REHEAT
   Return Air Path Node,Inlet Node,2,NODE 143,SYS_6_VAV WITH REHEAT
   Return Air Path Node,Inlet Node,3,NODE 150,SYS_6_VAV WITH REHEAT
   Return Air Path Node,Inlet Node,4,NODE 157,SYS_6_VAV WITH REHEAT
 Return Air Path,11,SYS_6_VAV WITH REHEAT 1 RETURN PATH,SYS_6_VAV WITH REHEAT 1
   #Components on Return Air Path,1
   Return Air Path Component,1,AIRLOOPHVAC:ZONEMIXER,AIR LOOP HVAC ZONE MIXER 5,SYS_6_VAV WITH REHEAT 1
     #Inlet Nodes on Return Air Path Component,1
     Return Air Path Component Nodes,1,AIRLOOPHVAC:ZONEMIXER,AIR LOOP HVAC ZONE MIXER 5,NODE 178,NODE 164,SYS_6_VAV WITH REHEAT 1
! <#Nodes on Return Air Path>,<Number of Nodes>
! <Return Air Path Node>,<Node Type>,<Node Count>,<Node Name>,<AirLoopHVAC Name>
   #Nodes on Return Air Path,2
   Return Air Path Node,Outlet Node,1,NODE 164,SYS_6_VAV WITH REHEAT 1
   Return Air Path Node,Inlet Node,2,NODE 178,SYS_6_VAV WITH REHEAT 1
! ===============================================================
! #Outdoor Air Nodes,<Number of Outdoor Air Nodes>
 #Outdoor Air Nodes,15
! <Outdoor Air Node>,<NodeNumber>,<Node Name>
 Outdoor Air Node,404,ZONE HVAC FOUR PIPE FAN COIL 1 OA NODE
 Outdoor Air Node,405,ZONE HVAC FOUR PIPE FAN COIL 2 OA NODE
 Outdoor Air Node,406,ZONE HVAC FOUR PIPE FAN COIL 3 OA NODE
 Outdoor Air Node,407,NODE 253
 Outdoor Air Node,408,NODE 296
 Outdoor Air Node,409,NODE 339
 Outdoor Air Node,410,NODE 53
 Outdoor Air Node,411,NODE 187
 Outdoor Air Node,412,NODE 213
 Outdoor Air Node,413,NODE 200
 Outdoor Air Node,414,NODE 29
 Outdoor Air Node,415,NODE 80
 Outdoor Air Node,416,NODE 135
 Outdoor Air Node,417,NODE 170
 Outdoor Air Node,418,MODEL OUTDOOR AIR NODE
! ===============================================================
! <#Component Sets>,<Number of Component Sets>
 #Component Sets,219
! <Component Set>,<Component Set Count>,<Parent Object Type>,<Parent Object Name>,<Component Type>,<Component Name>,<Inlet Node ID>,<Outlet Node ID>,<Description>
 Component Set,1,BRANCH,SYS_2_MAKE-UP AIR UNIT MAIN BRANCH,AIRLOOPHVAC:OUTDOORAIRSYSTEM,AIR LOOP HVAC OUTDOOR AIR SYSTEM 9,NODE 248,NODE 257,Air Nodes
 Component Set,2,BRANCH,SYS_2_MAKE-UP AIR UNIT MAIN BRANCH,COILSYSTEM:COOLING:DX,COIL COOLING DX SINGLE SPEED 7 181KBTU/HR 9.7EER COILSYSTEM,NODE 257,NODE 256,Air Nodes
 Component Set,3,BRANCH,SYS_2_MAKE-UP AIR UNIT MAIN BRANCH,COIL:HEATING:FUEL,COIL HEATING GAS 7,NODE 256,NODE 255,Air Nodes
 Component Set,4,BRANCH,SYS_2_MAKE-UP AIR UNIT MAIN BRANCH,FAN:CONSTANTVOLUME,FAN CONSTANT VOLUME 7,NODE 255,NODE 249,Air Nodes
 Component Set,5,BRANCH,SYS_2_MAKE-UP AIR UNIT 1 MAIN BRANCH,AIRLOOPHVAC:OUTDOORAIRSYSTEM,AIR LOOP HVAC OUTDOOR AIR SYSTEM 10,NODE 291,NODE 300,Air Nodes
 Component Set,6,BRANCH,SYS_2_MAKE-UP AIR UNIT 1 MAIN BRANCH,COILSYSTEM:COOLING:DX,COIL COOLING DX SINGLE SPEED 8 98KBTU/HR 9.7EER COILSYSTEM,NODE 300,NODE 299,Air Nodes
 Component Set,7,BRANCH,SYS_2_MAKE-UP AIR UNIT 1 MAIN BRANCH,COIL:HEATING:FUEL,COIL HEATING GAS 8,NODE 299,NODE 298,Air Nodes
 Component Set,8,BRANCH,SYS_2_MAKE-UP AIR UNIT 1 MAIN BRANCH,FAN:CONSTANTVOLUME,FAN CONSTANT VOLUME 9,NODE 298,NODE 292,Air Nodes
 Component Set,9,BRANCH,SYS_2_MAKE-UP AIR UNIT 2 MAIN BRANCH,AIRLOOPHVAC:OUTDOORAIRSYSTEM,AIR LOOP HVAC OUTDOOR AIR SYSTEM 11,NODE 334,NODE 343,Air Nodes
 Component Set,10,BRANCH,SYS_2_MAKE-UP AIR UNIT 2 MAIN BRANCH,COILSYSTEM:COOLING:DX,COIL COOLING DX SINGLE SPEED 9 148KBTU/HR 9.7EER COILSYSTEM,NODE 343,NODE 342,Air Nodes
 Component Set,11,BRANCH,SYS_2_MAKE-UP AIR UNIT 2 MAIN BRANCH,COIL:HEATING:FUEL,COIL HEATING GAS 9,NODE 342,NODE 341,Air Nodes
 Component Set,12,BRANCH,SYS_2_MAKE-UP AIR UNIT 2 MAIN BRANCH,FAN:CONSTANTVOLUME,FAN CONSTANT VOLUME 11,NODE 341,NODE 335,Air Nodes
 Component Set,13,BRANCH,SYS_4_PSZ_ALL_ST=STORAGE AREA_FL=STORY 3_SCH=E MAIN BRANCH,AIRLOOPHVAC:OUTDOORAIRSYSTEM,AIR LOOP HVAC OUTDOOR AIR SYSTEM 2,NODE 45,NODE 59,Air Nodes
 Component Set,14,BRANCH,SYS_4_PSZ_ALL_ST=STORAGE AREA_FL=STORY 3_SCH=E MAIN BRANCH,COILSYSTEM:COOLING:DX,COIL COOLING DX SINGLE SPEED 2 781KBTU/HR 7.94EER COILSYSTEM,NODE 59,NODE 57,Air Nodes
 Component Set,15,BRANCH,SYS_4_PSZ_ALL_ST=STORAGE AREA_FL=STORY 3_SCH=E MAIN BRANCH,COIL:HEATING:FUEL,COIL HEATING GAS 2,NODE 57,NODE 56,Air Nodes
 Component Set,16,BRANCH,SYS_4_PSZ_ALL_ST=STORAGE AREA_FL=STORY 3_SCH=E MAIN BRANCH,FAN:CONSTANTVOLUME,FAN CONSTANT VOLUME 2,NODE 56,NODE 47,Air Nodes
 Component Set,17,BRANCH,SYS_4_PSZ_ALL_ST=WAREHOUSE - FINE_FL=STORY 1_SCH=A MAIN BRANCH,AIRLOOPHVAC:OUTDOORAIRSYSTEM,AIR LOOP HVAC OUTDOOR AIR SYSTEM 6,NODE 182,NODE 191,Air Nodes
 Component Set,18,BRANCH,SYS_4_PSZ_ALL_ST=WAREHOUSE - FINE_FL=STORY 1_SCH=A MAIN BRANCH,COILSYSTEM:COOLING:DX,COIL COOLING DX SINGLE SPEED 4 102KBTU/HR 9.7EER COILSYSTEM,NODE 191,NODE 190,Air Nodes
 Component Set,19,BRANCH,SYS_4_PSZ_ALL_ST=WAREHOUSE - FINE_FL=STORY 1_SCH=A MAIN BRANCH,COIL:HEATING:FUEL,COIL HEATING GAS 4,NODE 190,NODE 189,Air Nodes
 Component Set,20,BRANCH,SYS_4_PSZ_ALL_ST=WAREHOUSE - FINE_FL=STORY 1_SCH=A MAIN BRANCH,FAN:CONSTANTVOLUME,FAN CONSTANT VOLUME 4,NODE 189,NODE 183,Air Nodes
 Component Set,21,BRANCH,SYS_4_PSZ_ALL_ST=WAREHOUSE - MED/BLK2_FL=STORY 2_SCH=A MAIN BRANCH,AIRLOOPHVAC:OUTDOORAIRSYSTEM,AIR LOOP HVAC OUTDOOR AIR SYSTEM 8,NODE 208,NODE 217,Air Nodes
 Component Set,22,BRANCH,SYS_4_PSZ_ALL_ST=WAREHOUSE - MED/BLK2_FL=STORY 2_SCH=A MAIN BRANCH,COILSYSTEM:COOLING:DX,COIL COOLING DX SINGLE SPEED 6 147KBTU/HR 9.7EER COILSYSTEM,NODE 217,NODE 216,Air Nodes
 Component Set,23,BRANCH,SYS_4_PSZ_ALL_ST=WAREHOUSE - MED/BLK2_FL=STORY 2_SCH=A MAIN BRANCH,COIL:HEATING:FUEL,COIL HEATING GAS 6,NODE 216,NODE 215,Air Nodes
 Component Set,24,BRANCH,SYS_4_PSZ_ALL_ST=WAREHOUSE - MED/BLK2_FL=STORY 2_SCH=A MAIN BRANCH,FAN:CONSTANTVOLUME,FAN CONSTANT VOLUME 6,NODE 215,NODE 209,Air Nodes
 Component Set,25,BRANCH,SYS_4_PSZ_ALL_ST=WAREHOUSE - MED/BLK_FL=STORY 1_SCH=A MAIN BRANCH,AIRLOOPHVAC:OUTDOORAIRSYSTEM,AIR LOOP HVAC OUTDOOR AIR SYSTEM 7,NODE 195,NODE 204,Air Nodes
 Component Set,26,BRANCH,SYS_4_PSZ_ALL_ST=WAREHOUSE - MED/BLK_FL=STORY 1_SCH=A MAIN BRANCH,COILSYSTEM:COOLING:DX,COIL COOLING DX SINGLE SPEED 5 66KBTU/HR 9.7EER COILSYSTEM,NODE 204,NODE 203,Air Nodes
 Component Set,27,BRANCH,SYS_4_PSZ_ALL_ST=WAREHOUSE - MED/BLK_FL=STORY 1_SCH=A MAIN BRANCH,COIL:HEATING:FUEL,COIL HEATING GAS 5,NODE 203,NODE 202,Air Nodes
 Component Set,28,BRANCH,SYS_4_PSZ_ALL_ST=WAREHOUSE - MED/BLK_FL=STORY 1_SCH=A MAIN BRANCH,FAN:CONSTANTVOLUME,FAN CONSTANT VOLUME 5,NODE 202,NODE 196,Air Nodes
 Component Set,29,BRANCH,SYS_4_PSZ_WET_ST=WASHROOM-SCH-A_FL=STORY 4_SCHA MAIN BRANCH,AIRLOOPHVAC:OUTDOORAIRSYSTEM,AIR LOOP HVAC OUTDOOR AIR SYSTEM 1,NODE 21,NODE 35,Air Nodes
 Component Set,30,BRANCH,SYS_4_PSZ_WET_ST=WASHROOM-SCH-A_FL=STORY 4_SCHA MAIN BRANCH,COILSYSTEM:COOLING:DX,COIL COOLING DX SINGLE SPEED 1 488KBTU/HR 8.21EER COILSYSTEM,NODE 35,NODE 33,Air Nodes
 Component Set,31,BRANCH,SYS_4_PSZ_WET_ST=WASHROOM-SCH-A_FL=STORY 4_SCHA MAIN BRANCH,COIL:HEATING:FUEL,COIL HEATING GAS 1,NODE 33,NODE 32,Air Nodes
 Component Set,32,BRANCH,SYS_4_PSZ_WET_ST=WASHROOM-SCH-A_FL=STORY 4_SCHA MAIN BRANCH,FAN:CONSTANTVOLUME,FAN CONSTANT VOLUME 1,NODE 32,NODE 23,Air Nodes
 Component Set,33,BRANCH,SYS_4_PSZ_WILD_ST=STAIRWAY-SCH-F_FL=STORY 4_SCH=A MAIN BRANCH,AIRLOOPHVAC:OUTDOORAIRSYSTEM,AIR LOOP HVAC OUTDOOR AIR SYSTEM 3,NODE 75,NODE 84,Air Nodes
 Component Set,34,BRANCH,SYS_4_PSZ_WILD_ST=STAIRWAY-SCH-F_FL=STORY 4_SCH=A MAIN BRANCH,COILSYSTEM:COOLING:DX,COIL COOLING DX SINGLE SPEED 3 1063KBTU/HR 7.94EER COILSYSTEM,NODE 84,NODE 83,Air Nodes
 Component Set,35,BRANCH,SYS_4_PSZ_WILD_ST=STAIRWAY-SCH-F_FL=STORY 4_SCH=A MAIN BRANCH,COIL:HEATING:FUEL,COIL HEATING GAS 3,NODE 83,NODE 82,Air Nodes
 Component Set,36,BRANCH,SYS_4_PSZ_WILD_ST=STAIRWAY-SCH-F_FL=STORY 4_SCH=A MAIN BRANCH,FAN:CONSTANTVOLUME,FAN CONSTANT VOLUME 3,NODE 82,NODE 76,Air Nodes
 Component Set,37,BRANCH,SYS_6_VAV WITH REHEAT MAIN BRANCH,FAN:VARIABLEVOLUME,SYS6 RETURN FAN,NODE 127,NODE 140,Air Nodes
 Component Set,38,BRANCH,SYS_6_VAV WITH REHEAT MAIN BRANCH,AIRLOOPHVAC:OUTDOORAIRSYSTEM,AIR LOOP HVAC OUTDOOR AIR SYSTEM 4,NODE 140,NODE 139,Air Nodes
 Component Set,39,BRANCH,SYS_6_VAV WITH REHEAT MAIN BRANCH,COIL:COOLING:WATER,COIL COOLING WATER 1,NODE 139,NODE 138,Air Nodes
 Component Set,40,BRANCH,SYS_6_VAV WITH REHEAT MAIN BRANCH,COIL:HEATING:WATER,COIL HEATING WATER 1,NODE 138,NODE 137,Air Nodes
 Component Set,41,BRANCH,SYS_6_VAV WITH REHEAT MAIN BRANCH,FAN:VARIABLEVOLUME,SYS6 SUPPLY FAN,NODE 137,NODE 128,Air Nodes
 Component Set,42,BRANCH,SYS_6_VAV WITH REHEAT 1 MAIN BRANCH,FAN:VARIABLEVOLUME,SYS6 RETURN FAN 1,NODE 161,NODE 175,Air Nodes
 Component Set,43,BRANCH,SYS_6_VAV WITH REHEAT 1 MAIN BRANCH,AIRLOOPHVAC:OUTDOORAIRSYSTEM,AIR LOOP HVAC OUTDOOR AIR SYSTEM 5,NODE 175,NODE 174,Air Nodes
 Component Set,44,BRANCH,SYS_6_VAV WITH REHEAT 1 MAIN BRANCH,COIL:COOLING:WATER,COIL COOLING WATER 2,NODE 174,NODE 173,Air Nodes
 Component Set,45,BRANCH,SYS_6_VAV WITH REHEAT 1 MAIN BRANCH,COIL:HEATING:WATER,COIL HEATING WATER 5,NODE 173,NODE 172,Air Nodes
 Component Set,46,BRANCH,SYS_6_VAV WITH REHEAT 1 MAIN BRANCH,FAN:VARIABLEVOLUME,SYS6 SUPPLY FAN 1,NODE 172,NODE 162,Air Nodes
 Component Set,47,BRANCH,CHILLED WATER LOOP SUPPLY INLET BRANCH,PUMP:CONSTANTSPEED,PUMP CONSTANT SPEED 1,NODE 100,NODE 106,Water Nodes
 Component Set,48,BRANCH,CHILLED WATER LOOP SUPPLY BRANCH 1,CHILLER:ELECTRIC:EIR,PRIMARY CHILLER WATERCOOLED SCROLL 91TONS 0.8KW/TON,NODE 102,NODE 107,Chilled Water Nodes
 Component Set,49,BRANCH,CHILLED WATER LOOP SUPPLY BRANCH 2,CHILLER:ELECTRIC:EIR,SECONDARY CHILLER WATERCOOLED SCROLL 0TONS 0.8KW/TON,NODE 108,NODE 109,Chilled Water Nodes
 Component Set,50,BRANCH,CHILLED WATER LOOP SUPPLY BRANCH 3,PIPE:ADIABATIC,PIPE ADIABATIC 3,NODE 110,NODE 111,Pipe Nodes
 Component Set,51,BRANCH,CHILLED WATER LOOP SUPPLY OUTLET BRANCH,PIPE:ADIABATIC,PIPE ADIABATIC 4,NODE 112,NODE 101,Pipe Nodes
 Component Set,52,BRANCH,CHILLED WATER LOOP DEMAND INLET BRANCH,PIPE:ADIABATIC,CHILLED WATER LOOP DEMAND INLET PIPE,NODE 103,CHILLED WATER LOOP DEMAND INLET PIPE NODE,Pipe Nodes
 Component Set,53,BRANCH,CHILLED WATER LOOP DEMAND BRANCH 1,COIL:COOLING:WATER,COIL COOLING WATER 1,NODE 105,NODE 134,Water Nodes
 Component Set,54,BRANCH,CHILLED WATER LOOP DEMAND BRANCH 2,COIL:COOLING:WATER,COIL COOLING WATER 2,NODE 168,NODE 169,Water Nodes
 Component Set,55,BRANCH,CHILLED WATER LOOP DEMAND BYPASS BRANCH,PIPE:ADIABATIC,CHILLED WATER LOOP DEMAND BYPASS PIPE,CHILLED WATER LOOP DEMAND BYPASS PIPE INLET NODE,CHILLED WATER LOOP DEMAND BYPASS PIPE OUTLET NODE,Pipe Nodes
 Component Set,56,BRANCH,CHILLED WATER LOOP DEMAND OUTLET BRANCH,PIPE:ADIABATIC,CHILLED WATER LOOP DEMAND OUTLET PIPE,CHILLED WATER LOOP DEMAND OUTLET PIPE NODE,NODE 104,Pipe Nodes
 Component Set,57,BRANCH,CHILLED WATER LOOP 1 SUPPLY INLET BRANCH,PUMP:CONSTANTSPEED,PUMP CONSTANT SPEED 3,NODE 221,NODE 227,Water Nodes
 Component Set,58,BRANCH,CHILLED WATER LOOP 1 SUPPLY BRANCH 1,CHILLER:ELECTRIC:EIR,PRIMARY CHILLER WATERCOOLED SCROLL 1 13TONS 0.8KW/TON,NODE 223,NODE 228,Chilled Water Nodes
 Component Set,59,BRANCH,CHILLED WATER LOOP 1 SUPPLY BRANCH 2,CHILLER:ELECTRIC:EIR,SECONDARY CHILLER WATERCOOLED SCROLL 1 0TONS 0.8KW/TON,NODE 229,NODE 230,Chilled Water Nodes
 Component Set,60,BRANCH,CHILLED WATER LOOP 1 SUPPLY BRANCH 3,PIPE:ADIABATIC,PIPE ADIABATIC 7,NODE 231,NODE 232,Pipe Nodes
 Component Set,61,BRANCH,CHILLED WATER LOOP 1 SUPPLY OUTLET BRANCH,PIPE:ADIABATIC,PIPE ADIABATIC 8,NODE 233,NODE 222,Pipe Nodes
 Component Set,62,BRANCH,CHILLED WATER LOOP 1 DEMAND INLET BRANCH,PIPE:ADIABATIC,CHILLED WATER LOOP 1 DEMAND INLET PIPE,NODE 224,CHILLED WATER LOOP 1 DEMAND INLET PIPE NODE,Pipe Nodes
 Component Set,63,BRANCH,CHILLED WATER LOOP 1 DEMAND BRANCH 1,COIL:COOLING:WATER,COIL COOLING WATER 3,NODE 226,NODE 260,Water Nodes
 Component Set,64,BRANCH,CHILLED WATER LOOP 1 DEMAND BYPASS BRANCH,PIPE:ADIABATIC,CHILLED WATER LOOP 1 DEMAND BYPASS PIPE,CHILLED WATER LOOP 1 DEMAND BYPASS PIPE INLET NODE,CHILLED WATER LOOP 1 DEMAND BYPASS PIPE OUTLET NODE,Pipe Nodes
 Component Set,65,BRANCH,CHILLED WATER LOOP 1 DEMAND OUTLET BRANCH,PIPE:ADIABATIC,CHILLED WATER LOOP 1 DEMAND OUTLET PIPE,CHILLED WATER LOOP 1 DEMAND OUTLET PIPE NODE,NODE 225,Pipe Nodes
 Component Set,66,BRANCH,CHILLED WATER LOOP 2 SUPPLY INLET BRANCH,PUMP:CONSTANTSPEED,PUMP CONSTANT SPEED 5,NODE 264,NODE 270,Water Nodes
 Component Set,67,BRANCH,CHILLED WATER LOOP 2 SUPPLY BRANCH 1,CHILLER:ELECTRIC:EIR,PRIMARY CHILLER WATERCOOLED SCROLL 2 6TONS 0.8KW/TON,NODE 266,NODE 271,Chilled Water Nodes
 Component Set,68,BRANCH,CHILLED WATER LOOP 2 SUPPLY BRANCH 2,CHILLER:ELECTRIC:EIR,SECONDARY CHILLER WATERCOOLED SCROLL 2 0TONS 0.8KW/TON,NODE 272,NODE 273,Chilled Water Nodes
 Component Set,69,BRANCH,CHILLED WATER LOOP 2 SUPPLY BRANCH 3,PIPE:ADIABATIC,PIPE ADIABATIC 11,NODE 274,NODE 275,Pipe Nodes
 Component Set,70,BRANCH,CHILLED WATER LOOP 2 SUPPLY OUTLET BRANCH,PIPE:ADIABATIC,PIPE ADIABATIC 12,NODE 276,NODE 265,Pipe Nodes
 Component Set,71,BRANCH,CHILLED WATER LOOP 2 DEMAND INLET BRANCH,PIPE:ADIABATIC,CHILLED WATER LOOP 2 DEMAND INLET PIPE,NODE 267,CHILLED WATER LOOP 2 DEMAND INLET PIPE NODE,Pipe Nodes
 Component Set,72,BRANCH,CHILLED WATER LOOP 2 DEMAND BRANCH 1,COIL:COOLING:WATER,COIL COOLING WATER 4,NODE 269,NODE 303,Water Nodes
 Component Set,73,BRANCH,CHILLED WATER LOOP 2 DEMAND BYPASS BRANCH,PIPE:ADIABATIC,CHILLED WATER LOOP 2 DEMAND BYPASS PIPE,CHILLED WATER LOOP 2 DEMAND BYPASS PIPE INLET NODE,CHILLED WATER LOOP 2 DEMAND BYPASS PIPE OUTLET NODE,Pipe Nodes
 Component Set,74,BRANCH,CHILLED WATER LOOP 2 DEMAND OUTLET BRANCH,PIPE:ADIABATIC,CHILLED WATER LOOP 2 DEMAND OUTLET PIPE,CHILLED WATER LOOP 2 DEMAND OUTLET PIPE NODE,NODE 268,Pipe Nodes
 Component Set,75,BRANCH,CHILLED WATER LOOP 3 SUPPLY INLET BRANCH,PUMP:CONSTANTSPEED,PUMP CONSTANT SPEED 7,NODE 307,NODE 313,Water Nodes
 Component Set,76,BRANCH,CHILLED WATER LOOP 3 SUPPLY BRANCH 1,CHILLER:ELECTRIC:EIR,PRIMARY CHILLER WATERCOOLED SCROLL 3 9TONS 0.8KW/TON,NODE 309,NODE 314,Chilled Water Nodes
 Component Set,77,BRANCH,CHILLED WATER LOOP 3 SUPPLY BRANCH 2,CHILLER:ELECTRIC:EIR,SECONDARY CHILLER WATERCOOLED SCROLL 3 0TONS 0.8KW/TON,NODE 315,NODE 316,Chilled Water Nodes
 Component Set,78,BRANCH,CHILLED WATER LOOP 3 SUPPLY BRANCH 3,PIPE:ADIABATIC,PIPE ADIABATIC 15,NODE 317,NODE 318,Pipe Nodes
 Component Set,79,BRANCH,CHILLED WATER LOOP 3 SUPPLY OUTLET BRANCH,PIPE:ADIABATIC,PIPE ADIABATIC 16,NODE 319,NODE 308,Pipe Nodes
 Component Set,80,BRANCH,CHILLED WATER LOOP 3 DEMAND INLET BRANCH,PIPE:ADIABATIC,CHILLED WATER LOOP 3 DEMAND INLET PIPE,NODE 310,CHILLED WATER LOOP 3 DEMAND INLET PIPE NODE,Pipe Nodes
 Component Set,81,BRANCH,CHILLED WATER LOOP 3 DEMAND BRANCH 1,COIL:COOLING:WATER,COIL COOLING WATER 5,NODE 312,NODE 346,Water Nodes
 Component Set,82,BRANCH,CHILLED WATER LOOP 3 DEMAND BYPASS BRANCH,PIPE:ADIABATIC,CHILLED WATER LOOP 3 DEMAND BYPASS PIPE,CHILLED WATER LOOP 3 DEMAND BYPASS PIPE INLET NODE,CHILLED WATER LOOP 3 DEMAND BYPASS PIPE OUTLET NODE,Pipe Nodes
 Component Set,83,BRANCH,CHILLED WATER LOOP 3 DEMAND OUTLET BRANCH,PIPE:ADIABATIC,CHILLED WATER LOOP 3 DEMAND OUTLET PIPE,CHILLED WATER LOOP 3 DEMAND OUTLET PIPE NODE,NODE 311,Pipe Nodes
 Component Set,84,BRANCH,CONDENSER WATER LOOP SUPPLY INLET BRANCH,PUMP:CONSTANTSPEED,PUMP CONSTANT SPEED 2,NODE 113,NODE 119,Water Nodes
 Component Set,85,BRANCH,CONDENSER WATER LOOP SUPPLY BRANCH 1,COOLINGTOWER:SINGLESPEED,COOLING TOWER SINGLE SPEED 1,NODE 115,NODE 120,Chilled Water Nodes
 Component Set,86,BRANCH,CONDENSER WATER LOOP SUPPLY BRANCH 2,PIPE:ADIABATIC,PIPE ADIABATIC 5,NODE 121,NODE 122,Pipe Nodes
 Component Set,87,BRANCH,CONDENSER WATER LOOP SUPPLY OUTLET BRANCH,PIPE:ADIABATIC,PIPE ADIABATIC 6,NODE 123,NODE 114,Pipe Nodes
 Component Set,88,BRANCH,CONDENSER WATER LOOP DEMAND INLET BRANCH,PIPE:ADIABATIC,CONDENSER WATER LOOP DEMAND INLET PIPE,NODE 116,CONDENSER WATER LOOP DEMAND INLET PIPE NODE,Pipe Nodes
 Component Set,89,BRANCH,CONDENSER WATER LOOP DEMAND BRANCH 1,CHILLER:ELECTRIC:EIR,PRIMARY CHILLER WATERCOOLED SCROLL 91TONS 0.8KW/TON,NODE 118,NODE 124,Condenser Water Nodes
 Component Set,90,BRANCH,CONDENSER WATER LOOP DEMAND BRANCH 2,CHILLER:ELECTRIC:EIR,SECONDARY CHILLER WATERCOOLED SCROLL 0TONS 0.8KW/TON,NODE 125,NODE 126,Condenser Water Nodes
 Component Set,91,BRANCH,CONDENSER WATER LOOP DEMAND BYPASS BRANCH,PIPE:ADIABATIC,CONDENSER WATER LOOP DEMAND BYPASS PIPE,CONDENSER WATER LOOP DEMAND BYPASS PIPE INLET NODE,CONDENSER WATER LOOP DEMAND BYPASS PIPE OUTLET NODE,Pipe Nodes
 Component Set,92,BRANCH,CONDENSER WATER LOOP DEMAND OUTLET BRANCH,PIPE:ADIABATIC,CONDENSER WATER LOOP DEMAND OUTLET PIPE,CONDENSER WATER LOOP DEMAND OUTLET PIPE NODE,NODE 117,Pipe Nodes
 Component Set,93,BRANCH,CONDENSER WATER LOOP 1 SUPPLY INLET BRANCH,PUMP:CONSTANTSPEED,PUMP CONSTANT SPEED 4,NODE 234,NODE 240,Water Nodes
 Component Set,94,BRANCH,CONDENSER WATER LOOP 1 SUPPLY BRANCH 1,COOLINGTOWER:SINGLESPEED,COOLING TOWER SINGLE SPEED 2,NODE 236,NODE 241,Chilled Water Nodes
 Component Set,95,BRANCH,CONDENSER WATER LOOP 1 SUPPLY BRANCH 2,PIPE:ADIABATIC,PIPE ADIABATIC 9,NODE 242,NODE 243,Pipe Nodes
 Component Set,96,BRANCH,CONDENSER WATER LOOP 1 SUPPLY OUTLET BRANCH,PIPE:ADIABATIC,PIPE ADIABATIC 10,NODE 244,NODE 235,Pipe Nodes
 Component Set,97,BRANCH,CONDENSER WATER LOOP 1 DEMAND INLET BRANCH,PIPE:ADIABATIC,CONDENSER WATER LOOP 1 DEMAND INLET PIPE,NODE 237,CONDENSER WATER LOOP 1 DEMAND INLET PIPE NODE,Pipe Nodes
 Component Set,98,BRANCH,CONDENSER WATER LOOP 1 DEMAND BRANCH 1,CHILLER:ELECTRIC:EIR,PRIMARY CHILLER WATERCOOLED SCROLL 1 13TONS 0.8KW/TON,NODE 239,NODE 245,Condenser Water Nodes
 Component Set,99,BRANCH,CONDENSER WATER LOOP 1 DEMAND BRANCH 2,CHILLER:ELECTRIC:EIR,SECONDARY CHILLER WATERCOOLED SCROLL 1 0TONS 0.8KW/TON,NODE 246,NODE 247,Condenser Water Nodes
 Component Set,100,BRANCH,CONDENSER WATER LOOP 1 DEMAND BYPASS BRANCH,PIPE:ADIABATIC,CONDENSER WATER LOOP 1 DEMAND BYPASS PIPE,CONDENSER WATER LOOP 1 DEMAND BYPASS PIPE INLET NODE,CONDENSER WATER LOOP 1 DEMAND BYPASS PIPE OUTLET NODE,Pipe Nodes
 Component Set,101,BRANCH,CONDENSER WATER LOOP 1 DEMAND OUTLET BRANCH,PIPE:ADIABATIC,CONDENSER WATER LOOP 1 DEMAND OUTLET PIPE,CONDENSER WATER LOOP 1 DEMAND OUTLET PIPE NODE,NODE 238,Pipe Nodes
 Component Set,102,BRANCH,CONDENSER WATER LOOP 2 SUPPLY INLET BRANCH,PUMP:CONSTANTSPEED,PUMP CONSTANT SPEED 6,NODE 277,NODE 283,Water Nodes
 Component Set,103,BRANCH,CONDENSER WATER LOOP 2 SUPPLY BRANCH 1,COOLINGTOWER:SINGLESPEED,COOLING TOWER SINGLE SPEED 3,NODE 279,NODE 284,Chilled Water Nodes
 Component Set,104,BRANCH,CONDENSER WATER LOOP 2 SUPPLY BRANCH 2,PIPE:ADIABATIC,PIPE ADIABATIC 13,NODE 285,NODE 286,Pipe Nodes
 Component Set,105,BRANCH,CONDENSER WATER LOOP 2 SUPPLY OUTLET BRANCH,PIPE:ADIABATIC,PIPE ADIABATIC 14,NODE 287,NODE 278,Pipe Nodes
 Component Set,106,BRANCH,CONDENSER WATER LOOP 2 DEMAND INLET BRANCH,PIPE:ADIABATIC,CONDENSER WATER LOOP 2 DEMAND INLET PIPE,NODE 280,CONDENSER WATER LOOP 2 DEMAND INLET PIPE NODE,Pipe Nodes
 Component Set,107,BRANCH,CONDENSER WATER LOOP 2 DEMAND BRANCH 1,CHILLER:ELECTRIC:EIR,PRIMARY CHILLER WATERCOOLED SCROLL 2 6TONS 0.8KW/TON,NODE 282,NODE 288,Condenser Water Nodes
 Component Set,108,BRANCH,CONDENSER WATER LOOP 2 DEMAND BRANCH 2,CHILLER:ELECTRIC:EIR,SECONDARY CHILLER WATERCOOLED SCROLL 2 0TONS 0.8KW/TON,NODE 289,NODE 290,Condenser Water Nodes
 Component Set,109,BRANCH,CONDENSER WATER LOOP 2 DEMAND BYPASS BRANCH,PIPE:ADIABATIC,CONDENSER WATER LOOP 2 DEMAND BYPASS PIPE,CONDENSER WATER LOOP 2 DEMAND BYPASS PIPE INLET NODE,CONDENSER WATER LOOP 2 DEMAND BYPASS PIPE OUTLET NODE,Pipe Nodes
 Component Set,110,BRANCH,CONDENSER WATER LOOP 2 DEMAND OUTLET BRANCH,PIPE:ADIABATIC,CONDENSER WATER LOOP 2 DEMAND OUTLET PIPE,CONDENSER WATER LOOP 2 DEMAND OUTLET PIPE NODE,NODE 281,Pipe Nodes
 Component Set,111,BRANCH,CONDENSER WATER LOOP 3 SUPPLY INLET BRANCH,PUMP:CONSTANTSPEED,PUMP CONSTANT SPEED 8,NODE 320,NODE 326,Water Nodes
 Component Set,112,BRANCH,CONDENSER WATER LOOP 3 SUPPLY BRANCH 1,COOLINGTOWER:SINGLESPEED,COOLING TOWER SINGLE SPEED 4,NODE 322,NODE 327,Chilled Water Nodes
 Component Set,113,BRANCH,CONDENSER WATER LOOP 3 SUPPLY BRANCH 2,PIPE:ADIABATIC,PIPE ADIABATIC 17,NODE 328,NODE 329,Pipe Nodes
 Component Set,114,BRANCH,CONDENSER WATER LOOP 3 SUPPLY OUTLET BRANCH,PIPE:ADIABATIC,PIPE ADIABATIC 18,NODE 330,NODE 321,Pipe Nodes
 Component Set,115,BRANCH,CONDENSER WATER LOOP 3 DEMAND INLET BRANCH,PIPE:ADIABATIC,CONDENSER WATER LOOP 3 DEMAND INLET PIPE,NODE 323,CONDENSER WATER LOOP 3 DEMAND INLET PIPE NODE,Pipe Nodes
 Component Set,116,BRANCH,CONDENSER WATER LOOP 3 DEMAND BRANCH 1,CHILLER:ELECTRIC:EIR,PRIMARY CHILLER WATERCOOLED SCROLL 3 9TONS 0.8KW/TON,NODE 325,NODE 331,Condenser Water Nodes
 Component Set,117,BRANCH,CONDENSER WATER LOOP 3 DEMAND BRANCH 2,CHILLER:ELECTRIC:EIR,SECONDARY CHILLER WATERCOOLED SCROLL 3 0TONS 0.8KW/TON,NODE 332,NODE 333,Condenser Water Nodes
 Component Set,118,BRANCH,CONDENSER WATER LOOP 3 DEMAND BYPASS BRANCH,PIPE:ADIABATIC,CONDENSER WATER LOOP 3 DEMAND BYPASS PIPE,CONDENSER WATER LOOP 3 DEMAND BYPASS PIPE INLET NODE,CONDENSER WATER LOOP 3 DEMAND BYPASS PIPE OUTLET NODE,Pipe Nodes
 Component Set,119,BRANCH,CONDENSER WATER LOOP 3 DEMAND OUTLET BRANCH,PIPE:ADIABATIC,CONDENSER WATER LOOP 3 DEMAND OUTLET PIPE,CONDENSER WATER LOOP 3 DEMAND OUTLET PIPE NODE,NODE 324,Pipe Nodes
 Component Set,120,BRANCH,HOT WATER LOOP SUPPLY INLET BRANCH,PUMP:VARIABLESPEED,PUMP VARIABLE SPEED 1,NODE 2,NODE 11,Water Nodes
 Component Set,121,BRANCH,HOT WATER LOOP SUPPLY BRANCH 1,BOILER:HOTWATER,PRIMARY BOILER 4671KBTU/HR 0.833 COMBUSTION EFF,NODE 5,NODE 12,Hot Water Nodes
 Component Set,122,BRANCH,HOT WATER LOOP SUPPLY BRANCH 2,BOILER:HOTWATER,SECONDARY BOILER 0KBTU/HR 0.85 AFUE,NODE 14,NODE 15,Hot Water Nodes
 Component Set,123,BRANCH,HOT WATER LOOP SUPPLY BRANCH 3,PIPE:ADIABATIC,PIPE ADIABATIC 1,NODE 17,NODE 18,Pipe Nodes
 Component Set,124,BRANCH,HOT WATER LOOP SUPPLY OUTLET BRANCH,PIPE:ADIABATIC,PIPE ADIABATIC 2,NODE 20,NODE 3,Pipe Nodes
 Component Set,125,BRANCH,HOT WATER LOOP DEMAND INLET BRANCH,PIPE:ADIABATIC,HOT WATER LOOP DEMAND INLET PIPE,NODE 6,HOT WATER LOOP DEMAND INLET PIPE NODE,Pipe Nodes
 Component Set,126,BRANCH,HOT WATER LOOP DEMAND BRANCH 1,ZONEHVAC:BASEBOARD:CONVECTIVE:WATER,ZONE HVAC BASEBOARD CONVECTIVE WATER 1,NODE 9,NODE 38,Hot Water Nodes
 Component Set,127,BRANCH,HOT WATER LOOP DEMAND BRANCH 2,ZONEHVAC:BASEBOARD:CONVECTIVE:WATER,ZONE HVAC BASEBOARD CONVECTIVE WATER 2,NODE 42,NODE 44,Hot Water Nodes
 Component Set,128,BRANCH,HOT WATER LOOP DEMAND BRANCH 3,ZONEHVAC:BASEBOARD:CONVECTIVE:WATER,ZONE HVAC BASEBOARD CONVECTIVE WATER 3,NODE 61,NODE 62,Hot Water Nodes
 Component Set,129,BRANCH,HOT WATER LOOP DEMAND BRANCH 4,ZONEHVAC:BASEBOARD:CONVECTIVE:WATER,ZONE HVAC BASEBOARD CONVECTIVE WATER 4,NODE 65,NODE 66,Hot Water Nodes
 Component Set,130,BRANCH,HOT WATER LOOP DEMAND BRANCH 5,ZONEHVAC:BASEBOARD:CONVECTIVE:WATER,ZONE HVAC BASEBOARD CONVECTIVE WATER 5,NODE 69,NODE 70,Hot Water Nodes
[...]
 Non-Parent Node Connection,NODE 306,AIRLOOPHVAC:ZONEMIXER,AIR LOOP HVAC ZONE MIXER 10,Inlet,1
 Non-Parent Node Connection,NODE 337,AIRLOOPHVAC:ZONEMIXER,AIR LOOP HVAC ZONE MIXER 11,Outlet,1
 Non-Parent Node Connection,NODE 349,AIRLOOPHVAC:ZONEMIXER,AIR LOOP HVAC ZONE MIXER 11,Inlet,1
 Non-Parent Node Connection,NODE 50,AIRLOOPHVAC:ZONEMIXER,AIR LOOP HVAC ZONE MIXER 2,Outlet,1
 Non-Parent Node Connection,NODE 60,AIRLOOPHVAC:ZONEMIXER,AIR LOOP HVAC ZONE MIXER 2,Inlet,1
 Non-Parent Node Connection,NODE 64,AIRLOOPHVAC:ZONEMIXER,AIR LOOP HVAC ZONE MIXER 2,Inlet,1
 Non-Parent Node Connection,NODE 68,AIRLOOPHVAC:ZONEMIXER,AIR LOOP HVAC ZONE MIXER 2,Inlet,1
 Non-Parent Node Connection,NODE 72,AIRLOOPHVAC:ZONEMIXER,AIR LOOP HVAC ZONE MIXER 2,Inlet,1
 Non-Parent Node Connection,NODE 185,AIRLOOPHVAC:ZONEMIXER,AIR LOOP HVAC ZONE MIXER 6,Outlet,1
 Non-Parent Node Connection,NODE 192,AIRLOOPHVAC:ZONEMIXER,AIR LOOP HVAC ZONE MIXER 6,Inlet,1
 Non-Parent Node Connection,NODE 211,AIRLOOPHVAC:ZONEMIXER,AIR LOOP HVAC ZONE MIXER 8,Outlet,1
 Non-Parent Node Connection,NODE 218,AIRLOOPHVAC:ZONEMIXER,AIR LOOP HVAC ZONE MIXER 8,Inlet,1
 Non-Parent Node Connection,NODE 198,AIRLOOPHVAC:ZONEMIXER,AIR LOOP HVAC ZONE MIXER 7,Outlet,1
 Non-Parent Node Connection,NODE 205,AIRLOOPHVAC:ZONEMIXER,AIR LOOP HVAC ZONE MIXER 7,Inlet,1
 Non-Parent Node Connection,NODE 26,AIRLOOPHVAC:ZONEMIXER,AIR LOOP HVAC ZONE MIXER 1,Outlet,1
 Non-Parent Node Connection,NODE 36,AIRLOOPHVAC:ZONEMIXER,AIR LOOP HVAC ZONE MIXER 1,Inlet,1
 Non-Parent Node Connection,NODE 41,AIRLOOPHVAC:ZONEMIXER,AIR LOOP HVAC ZONE MIXER 1,Inlet,1
 Non-Parent Node Connection,NODE 78,AIRLOOPHVAC:ZONEMIXER,AIR LOOP HVAC ZONE MIXER 3,Outlet,1
 Non-Parent Node Connection,NODE 85,AIRLOOPHVAC:ZONEMIXER,AIR LOOP HVAC ZONE MIXER 3,Inlet,1
 Non-Parent Node Connection,NODE 89,AIRLOOPHVAC:ZONEMIXER,AIR LOOP HVAC ZONE MIXER 3,Inlet,1
 Non-Parent Node Connection,NODE 93,AIRLOOPHVAC:ZONEMIXER,AIR LOOP HVAC ZONE MIXER 3,Inlet,1
 Non-Parent Node Connection,NODE 97,AIRLOOPHVAC:ZONEMIXER,AIR LOOP HVAC ZONE MIXER 3,Inlet,1
 Non-Parent Node Connection,NODE 130,AIRLOOPHVAC:ZONEMIXER,AIR LOOP HVAC ZONE MIXER 4,Outlet,1
 Non-Parent Node Connection,NODE 143,AIRLOOPHVAC:ZONEMIXER,AIR LOOP HVAC ZONE MIXER 4,Inlet,1
 Non-Parent Node Connection,NODE 150,AIRLOOPHVAC:ZONEMIXER,AIR LOOP HVAC ZONE MIXER 4,Inlet,1
 Non-Parent Node Connection,NODE 157,AIRLOOPHVAC:ZONEMIXER,AIR LOOP HVAC ZONE MIXER 4,Inlet,1
 Non-Parent Node Connection,NODE 164,AIRLOOPHVAC:ZONEMIXER,AIR LOOP HVAC ZONE MIXER 5,Outlet,1
 Non-Parent Node Connection,NODE 178,AIRLOOPHVAC:ZONEMIXER,AIR LOOP HVAC ZONE MIXER 5,Inlet,1
 Non-Parent Node Connection,NODE 257,CONTROLLER:OUTDOORAIR,CONTROLLER OUTDOOR AIR 9,Sensor,1
 Non-Parent Node Connection,NODE 253,CONTROLLER:OUTDOORAIR,CONTROLLER OUTDOOR AIR 9,Actuator,1
 Non-Parent Node Connection,NODE 254,CONTROLLER:OUTDOORAIR,CONTROLLER OUTDOOR AIR 9,Actuator,1
 Non-Parent Node Connection,NODE 248,CONTROLLER:OUTDOORAIR,CONTROLLER OUTDOOR AIR 9,Sensor,1
 Non-Parent Node Connection,NODE 300,CONTROLLER:OUTDOORAIR,CONTROLLER OUTDOOR AIR 10,Sensor,1
 Non-Parent Node Connection,NODE 296,CONTROLLER:OUTDOORAIR,CONTROLLER OUTDOOR AIR 10,Actuator,1
 Non-Parent Node Connection,NODE 297,CONTROLLER:OUTDOORAIR,CONTROLLER OUTDOOR AIR 10,Actuator,1
 Non-Parent Node Connection,NODE 291,CONTROLLER:OUTDOORAIR,CONTROLLER OUTDOOR AIR 10,Sensor,1
 Non-Parent Node Connection,NODE 343,CONTROLLER:OUTDOORAIR,CONTROLLER OUTDOOR AIR 11,Sensor,1
 Non-Parent Node Connection,NODE 339,CONTROLLER:OUTDOORAIR,CONTROLLER OUTDOOR AIR 11,Actuator,1
 Non-Parent Node Connection,NODE 340,CONTROLLER:OUTDOORAIR,CONTROLLER OUTDOOR AIR 11,Actuator,1
 Non-Parent Node Connection,NODE 334,CONTROLLER:OUTDOORAIR,CONTROLLER OUTDOOR AIR 11,Sensor,1
 Non-Parent Node Connection,NODE 59,CONTROLLER:OUTDOORAIR,CONTROLLER OUTDOOR AIR 2,Sensor,1
 Non-Parent Node Connection,NODE 53,CONTROLLER:OUTDOORAIR,CONTROLLER OUTDOOR AIR 2,Actuator,1
 Non-Parent Node Connection,NODE 394,CONTROLLER:OUTDOORAIR,CONTROLLER OUTDOOR AIR 2,Actuator,1
 Non-Parent Node Connection,NODE 45,CONTROLLER:OUTDOORAIR,CONTROLLER OUTDOOR AIR 2,Sensor,1
 Non-Parent Node Connection,NODE 191,CONTROLLER:OUTDOORAIR,CONTROLLER OUTDOOR AIR 6,Sensor,1
 Non-Parent Node Connection,NODE 187,CONTROLLER:OUTDOORAIR,CONTROLLER OUTDOOR AIR 6,Actuator,1
 Non-Parent Node Connection,NODE 188,CONTROLLER:OUTDOORAIR,CONTROLLER OUTDOOR AIR 6,Actuator,1
 Non-Parent Node Connection,NODE 182,CONTROLLER:OUTDOORAIR,CONTROLLER OUTDOOR AIR 6,Sensor,1
 Non-Parent Node Connection,NODE 217,CONTROLLER:OUTDOORAIR,CONTROLLER OUTDOOR AIR 8,Sensor,1
 Non-Parent Node Connection,NODE 213,CONTROLLER:OUTDOORAIR,CONTROLLER OUTDOOR AIR 8,Actuator,1
 Non-Parent Node Connection,NODE 214,CONTROLLER:OUTDOORAIR,CONTROLLER OUTDOOR AIR 8,Actuator,1
 Non-Parent Node Connection,NODE 208,CONTROLLER:OUTDOORAIR,CONTROLLER OUTDOOR AIR 8,Sensor,1
 Non-Parent Node Connection,NODE 204,CONTROLLER:OUTDOORAIR,CONTROLLER OUTDOOR AIR 7,Sensor,1
 Non-Parent Node Connection,NODE 200,CONTROLLER:OUTDOORAIR,CONTROLLER OUTDOOR AIR 7,Actuator,1
 Non-Parent Node Connection,NODE 201,CONTROLLER:OUTDOORAIR,CONTROLLER OUTDOOR AIR 7,Actuator,1
 Non-Parent Node Connection,NODE 195,CONTROLLER:OUTDOORAIR,CONTROLLER OUTDOOR AIR 7,Sensor,1
 Non-Parent Node Connection,NODE 35,CONTROLLER:OUTDOORAIR,CONTROLLER OUTDOOR AIR 1,Sensor,1
 Non-Parent Node Connection,NODE 29,CONTROLLER:OUTDOORAIR,CONTROLLER OUTDOOR AIR 1,Actuator,1
 Non-Parent Node Connection,NODE 30,CONTROLLER:OUTDOORAIR,CONTROLLER OUTDOOR AIR 1,Actuator,1
 Non-Parent Node Connection,NODE 21,CONTROLLER:OUTDOORAIR,CONTROLLER OUTDOOR AIR 1,Sensor,1
 Non-Parent Node Connection,NODE 84,CONTROLLER:OUTDOORAIR,CONTROLLER OUTDOOR AIR 3,Sensor,1
 Non-Parent Node Connection,NODE 80,CONTROLLER:OUTDOORAIR,CONTROLLER OUTDOOR AIR 3,Actuator,1
 Non-Parent Node Connection,NODE 396,CONTROLLER:OUTDOORAIR,CONTROLLER OUTDOOR AIR 3,Actuator,1
 Non-Parent Node Connection,NODE 75,CONTROLLER:OUTDOORAIR,CONTROLLER OUTDOOR AIR 3,Sensor,1
 Non-Parent Node Connection,NODE 139,CONTROLLER:OUTDOORAIR,CONTROLLER OUTDOOR AIR 4,Sensor,1
 Non-Parent Node Connection,NODE 135,CONTROLLER:OUTDOORAIR,CONTROLLER OUTDOOR AIR 4,Actuator,1
 Non-Parent Node Connection,NODE 398,CONTROLLER:OUTDOORAIR,CONTROLLER OUTDOOR AIR 4,Actuator,1
 Non-Parent Node Connection,NODE 140,CONTROLLER:OUTDOORAIR,CONTROLLER OUTDOOR AIR 4,Sensor,1
 Non-Parent Node Connection,NODE 174,CONTROLLER:OUTDOORAIR,CONTROLLER OUTDOOR AIR 5,Sensor,1
 Non-Parent Node Connection,NODE 170,CONTROLLER:OUTDOORAIR,CONTROLLER OUTDOOR AIR 5,Actuator,1
 Non-Parent Node Connection,NODE 400,CONTROLLER:OUTDOORAIR,CONTROLLER OUTDOOR AIR 5,Actuator,1
 Non-Parent Node Connection,NODE 175,CONTROLLER:OUTDOORAIR,CONTROLLER OUTDOOR AIR 5,Sensor,1
 Non-Parent Node Connection,NODE 257,COIL:COOLING:DX:SINGLESPEED,COIL COOLING DX SINGLE SPEED 7 181KBTU/HR 9.7EER,Inlet,1
 Non-Parent Node Connection,NODE 256,COIL:COOLING:DX:SINGLESPEED,COIL COOLING DX SINGLE SPEED 7 181KBTU/HR 9.7EER,Outlet,1
 Non-Parent Node Connection,NODE 300,COIL:COOLING:DX:SINGLESPEED,COIL COOLING DX SINGLE SPEED 8 98KBTU/HR 9.7EER,Inlet,1
 Non-Parent Node Connection,NODE 299,COIL:COOLING:DX:SINGLESPEED,COIL COOLING DX SINGLE SPEED 8 98KBTU/HR 9.7EER,Outlet,1
 Non-Parent Node Connection,NODE 343,COIL:COOLING:DX:SINGLESPEED,COIL COOLING DX SINGLE SPEED 9 148KBTU/HR 9.7EER,Inlet,1
 Non-Parent Node Connection,NODE 342,COIL:COOLING:DX:SINGLESPEED,COIL COOLING DX SINGLE SPEED 9 148KBTU/HR 9.7EER,Outlet,1
 Non-Parent Node Connection,NODE 59,COIL:COOLING:DX:SINGLESPEED,COIL COOLING DX SINGLE SPEED 2 781KBTU/HR 7.94EER,Inlet,1
 Non-Parent Node Connection,NODE 57,COIL:COOLING:DX:SINGLESPEED,COIL COOLING DX SINGLE SPEED 2 781KBTU/HR 7.94EER,Outlet,1
 Non-Parent Node Connection,NODE 191,COIL:COOLING:DX:SINGLESPEED,COIL COOLING DX SINGLE SPEED 4 102KBTU/HR 9.7EER,Inlet,1
 Non-Parent Node Connection,NODE 190,COIL:COOLING:DX:SINGLESPEED,COIL COOLING DX SINGLE SPEED 4 102KBTU/HR 9.7EER,Outlet,1
 Non-Parent Node Connection,NODE 217,COIL:COOLING:DX:SINGLESPEED,COIL COOLING DX SINGLE SPEED 6 147KBTU/HR 9.7EER,Inlet,1
 Non-Parent Node Connection,NODE 216,COIL:COOLING:DX:SINGLESPEED,COIL COOLING DX SINGLE SPEED 6 147KBTU/HR 9.7EER,Outlet,1
 Non-Parent Node Connection,NODE 204,COIL:COOLING:DX:SINGLESPEED,COIL COOLING DX SINGLE SPEED 5 66KBTU/HR 9.7EER,Inlet,1
 Non-Parent Node Connection,NODE 203,COIL:COOLING:DX:SINGLESPEED,COIL COOLING DX SINGLE SPEED 5 66KBTU/HR 9.7EER,Outlet,1
 Non-Parent Node Connection,NODE 35,COIL:COOLING:DX:SINGLESPEED,COIL COOLING DX SINGLE SPEED 1 488KBTU/HR 8.21EER,Inlet,1
 Non-Parent Node Connection,NODE 33,COIL:COOLING:DX:SINGLESPEED,COIL COOLING DX SINGLE SPEED 1 488KBTU/HR 8.21EER,Outlet,1
 Non-Parent Node Connection,NODE 84,COIL:COOLING:DX:SINGLESPEED,COIL COOLING DX SINGLE SPEED 3 1063KBTU/HR 7.94EER,Inlet,1
 Non-Parent Node Connection,NODE 83,COIL:COOLING:DX:SINGLESPEED,COIL COOLING DX SINGLE SPEED 3 1063KBTU/HR 7.94EER,Outlet,1
 Non-Parent Node Connection,NODE 256,COIL:HEATING:FUEL,COIL HEATING GAS 7,Inlet,1
 Non-Parent Node Connection,NODE 255,COIL:HEATING:FUEL,COIL HEATING GAS 7,Outlet,1
 Non-Parent Node Connection,NODE 255,COIL:HEATING:FUEL,COIL HEATING GAS 7,Sensor,1
 Non-Parent Node Connection,NODE 299,COIL:HEATING:FUEL,COIL HEATING GAS 8,Inlet,1
 Non-Parent Node Connection,NODE 298,COIL:HEATING:FUEL,COIL HEATING GAS 8,Outlet,1
 Non-Parent Node Connection,NODE 298,COIL:HEATING:FUEL,COIL HEATING GAS 8,Sensor,1
 Non-Parent Node Connection,NODE 342,COIL:HEATING:FUEL,COIL HEATING GAS 9,Inlet,1
 Non-Parent Node Connection,NODE 341,COIL:HEATING:FUEL,COIL HEATING GAS 9,Outlet,1
 Non-Parent Node Connection,NODE 341,COIL:HEATING:FUEL,COIL HEATING GAS 9,Sensor,1
 Non-Parent Node Connection,NODE 57,COIL:HEATING:FUEL,COIL HEATING GAS 2,Inlet,1
 Non-Parent Node Connection,NODE 56,COIL:HEATING:FUEL,COIL HEATING GAS 2,Outlet,1
 Non-Parent Node Connection,NODE 56,COIL:HEATING:FUEL,COIL HEATING GAS 2,Sensor,1
 Non-Parent Node Connection,NODE 190,COIL:HEATING:FUEL,COIL HEATING GAS 4,Inlet,1
 Non-Parent Node Connection,NODE 189,COIL:HEATING:FUEL,COIL HEATING GAS 4,Outlet,1
 Non-Parent Node Connection,NODE 189,COIL:HEATING:FUEL,COIL HEATING GAS 4,Sensor,1
 Non-Parent Node Connection,NODE 216,COIL:HEATING:FUEL,COIL HEATING GAS 6,Inlet,1
 Non-Parent Node Connection,NODE 215,COIL:HEATING:FUEL,COIL HEATING GAS 6,Outlet,1
 Non-Parent Node Connection,NODE 215,COIL:HEATING:FUEL,COIL HEATING GAS 6,Sensor,1
 Non-Parent Node Connection,NODE 203,COIL:HEATING:FUEL,COIL HEATING GAS 5,Inlet,1
 Non-Parent Node Connection,NODE 202,COIL:HEATING:FUEL,COIL HEATING GAS 5,Outlet,1
 Non-Parent Node Connection,NODE 202,COIL:HEATING:FUEL,COIL HEATING GAS 5,Sensor,1
 Non-Parent Node Connection,NODE 33,COIL:HEATING:FUEL,COIL HEATING GAS 1,Inlet,1
 Non-Parent Node Connection,NODE 32,COIL:HEATING:FUEL,COIL HEATING GAS 1,Outlet,1
 Non-Parent Node Connection,NODE 32,COIL:HEATING:FUEL,COIL HEATING GAS 1,Sensor,1
 Non-Parent Node Connection,NODE 83,COIL:HEATING:FUEL,COIL HEATING GAS 3,Inlet,1
 Non-Parent Node Connection,NODE 82,COIL:HEATING:FUEL,COIL HEATING GAS 3,Outlet,1
 Non-Parent Node Connection,NODE 82,COIL:HEATING:FUEL,COIL HEATING GAS 3,Sensor,1
 Non-Parent Node Connection,NODE 53,HEATEXCHANGER:AIRTOAIR:SENSIBLEANDLATENT,SYS_4_PSZ_ALL_ST=STORAGE AREA_FL=STORY 3_SCH=E ERV,Inlet,1
 Non-Parent Node Connection,NODE 393,HEATEXCHANGER:AIRTOAIR:SENSIBLEANDLATENT,SYS_4_PSZ_ALL_ST=STORAGE AREA_FL=STORY 3_SCH=E ERV,Outlet,1
 Non-Parent Node Connection,NODE 394,HEATEXCHANGER:AIRTOAIR:SENSIBLEANDLATENT,SYS_4_PSZ_ALL_ST=STORAGE AREA_FL=STORY 3_SCH=E ERV,Inlet,2
 Non-Parent Node Connection,NODE 54,HEATEXCHANGER:AIRTOAIR:SENSIBLEANDLATENT,SYS_4_PSZ_ALL_ST=STORAGE AREA_FL=STORY 3_SCH=E ERV,Outlet,2
 Non-Parent Node Connection,NODE 80,HEATEXCHANGER:AIRTOAIR:SENSIBLEANDLATENT,SYS_4_PSZ_WILD_ST=STAIRWAY-SCH-F_FL=STORY 4_SCH=A ERV,Inlet,1
 Non-Parent Node Connection,NODE 395,HEATEXCHANGER:AIRTOAIR:SENSIBLEANDLATENT,SYS_4_PSZ_WILD_ST=STAIRWAY-SCH-F_FL=STORY 4_SCH=A ERV,Outlet,1
 Non-Parent Node Connection,NODE 396,HEATEXCHANGER:AIRTOAIR:SENSIBLEANDLATENT,SYS_4_PSZ_WILD_ST=STAIRWAY-SCH-F_FL=STORY 4_SCH=A ERV,Inlet,2
 Non-Parent Node Connection,NODE 81,HEATEXCHANGER:AIRTOAIR:SENSIBLEANDLATENT,SYS_4_PSZ_WILD_ST=STAIRWAY-SCH-F_FL=STORY 4_SCH=A ERV,Outlet,2
 Non-Parent Node Connection,NODE 135,HEATEXCHANGER:AIRTOAIR:SENSIBLEANDLATENT,SYS_6_VAV WITH REHEAT ERV,Inlet,1
 Non-Parent Node Connection,NODE 397,HEATEXCHANGER:AIRTOAIR:SENSIBLEANDLATENT,SYS_6_VAV WITH REHEAT ERV,Outlet,1
 Non-Parent Node Connection,NODE 398,HEATEXCHANGER:AIRTOAIR:SENSIBLEANDLATENT,SYS_6_VAV WITH REHEAT ERV,Inlet,2
 Non-Parent Node Connection,NODE 136,HEATEXCHANGER:AIRTOAIR:SENSIBLEANDLATENT,SYS_6_VAV WITH REHEAT ERV,Outlet,2
 Non-Parent Node Connection,NODE 170,HEATEXCHANGER:AIRTOAIR:SENSIBLEANDLATENT,SYS_6_VAV WITH REHEAT 1 ERV,Inlet,1
 Non-Parent Node Connection,NODE 399,HEATEXCHANGER:AIRTOAIR:SENSIBLEANDLATENT,SYS_6_VAV WITH REHEAT 1 ERV,Outlet,1
 Non-Parent Node Connection,NODE 400,HEATEXCHANGER:AIRTOAIR:SENSIBLEANDLATENT,SYS_6_VAV WITH REHEAT 1 ERV,Inlet,2
 Non-Parent Node Connection,NODE 171,HEATEXCHANGER:AIRTOAIR:SENSIBLEANDLATENT,SYS_6_VAV WITH REHEAT 1 ERV,Outlet,2
 Non-Parent Node Connection,NODE 102,CHILLER:ELECTRIC:EIR,PRIMARY CHILLER WATERCOOLED SCROLL 91TONS 0.8KW/TON,Inlet,1
 Non-Parent Node Connection,NODE 107,CHILLER:ELECTRIC:EIR,PRIMARY CHILLER WATERCOOLED SCROLL 91TONS 0.8KW/TON,Outlet,1
 Non-Parent Node Connection,NODE 118,CHILLER:ELECTRIC:EIR,PRIMARY CHILLER WATERCOOLED SCROLL 91TONS 0.8KW/TON,Inlet,2
 Non-Parent Node Connection,NODE 124,CHILLER:ELECTRIC:EIR,PRIMARY CHILLER WATERCOOLED SCROLL 91TONS 0.8KW/TON,Outlet,2
 Non-Parent Node Connection,NODE 108,CHILLER:ELECTRIC:EIR,SECONDARY CHILLER WATERCOOLED SCROLL 0TONS 0.8KW/TON,Inlet,1
 Non-Parent Node Connection,NODE 109,CHILLER:ELECTRIC:EIR,SECONDARY CHILLER WATERCOOLED SCROLL 0TONS 0.8KW/TON,Outlet,1
 Non-Parent Node Connection,NODE 125,CHILLER:ELECTRIC:EIR,SECONDARY CHILLER WATERCOOLED SCROLL 0TONS 0.8KW/TON,Inlet,2
 Non-Parent Node Connection,NODE 126,CHILLER:ELECTRIC:EIR,SECONDARY CHILLER WATERCOOLED SCROLL 0TONS 0.8KW/TON,Outlet,2
 Non-Parent Node Connection,NODE 223,CHILLER:ELECTRIC:EIR,PRIMARY CHILLER WATERCOOLED SCROLL 1 13TONS 0.8KW/TON,Inlet,1
 Non-Parent Node Connection,NODE 228,CHILLER:ELECTRIC:EIR,PRIMARY CHILLER WATERCOOLED SCROLL 1 13TONS 0.8KW/TON,Outlet,1
 Non-Parent Node Connection,NODE 239,CHILLER:ELECTRIC:EIR,PRIMARY CHILLER WATERCOOLED SCROLL 1 13TONS 0.8KW/TON,Inlet,2
 Non-Parent Node Connection,NODE 245,CHILLER:ELECTRIC:EIR,PRIMARY CHILLER WATERCOOLED SCROLL 1 13TONS 0.8KW/TON,Outlet,2
 Non-Parent Node Connection,NODE 229,CHILLER:ELECTRIC:EIR,SECONDARY CHILLER WATERCOOLED SCROLL 1 0TONS 0.8KW/TON,Inlet,1
 Non-Parent Node Connection,NODE 230,CHILLER:ELECTRIC:EIR,SECONDARY CHILLER WATERCOOLED SCROLL 1 0TONS 0.8KW/TON,Outlet,1
 Non-Parent Node Connection,NODE 246,CHILLER:ELECTRIC:EIR,SECONDARY CHILLER WATERCOOLED SCROLL 1 0TONS 0.8KW/TON,Inlet,2
 Non-Parent Node Connection,NODE 247,CHILLER:ELECTRIC:EIR,SECONDARY CHILLER WATERCOOLED SCROLL 1 0TONS 0.8KW/TON,Outlet,2
 Non-Parent Node Connection,NODE 266,CHILLER:ELECTRIC:EIR,PRIMARY CHILLER WATERCOOLED SCROLL 2 6TONS 0.8KW/TON,Inlet,1
 Non-Parent Node Connection,NODE 271,CHILLER:ELECTRIC:EIR,PRIMARY CHILLER WATERCOOLED SCROLL 2 6TONS 0.8KW/TON,Outlet,1
 Non-Parent Node Connection,NODE 282,CHILLER:ELECTRIC:EIR,PRIMARY CHILLER WATERCOOLED SCROLL 2 6TONS 0.8KW/TON,Inlet,2
 Non-Parent Node Connection,NODE 288,CHILLER:ELECTRIC:EIR,PRIMARY CHILLER WATERCOOLED SCROLL 2 6TONS 0.8KW/TON,Outlet,2
 Non-Parent Node Connection,NODE 272,CHILLER:ELECTRIC:EIR,SECONDARY CHILLER WATERCOOLED SCROLL 2 0TONS 0.8KW/TON,Inlet,1
 Non-Parent Node Connection,NODE 273,CHILLER:ELECTRIC:EIR,SECONDARY CHILLER WATERCOOLED SCROLL 2 0TONS 0.8KW/TON,Outlet,1
 Non-Parent Node Connection,NODE 289,CHILLER:ELECTRIC:EIR,SECONDARY CHILLER WATERCOOLED SCROLL 2 0TONS 0.8KW/TON,Inlet,2
 Non-Parent Node Connection,NODE 290,CHILLER:ELECTRIC:EIR,SECONDARY CHILLER WATERCOOLED SCROLL 2 0TONS 0.8KW/TON,Outlet,2
 Non-Parent Node Connection,NODE 309,CHILLER:ELECTRIC:EIR,PRIMARY CHILLER WATERCOOLED SCROLL 3 9TONS 0.8KW/TON,Inlet,1
 Non-Parent Node Connection,NODE 314,CHILLER:ELECTRIC:EIR,PRIMARY CHILLER WATERCOOLED SCROLL 3 9TONS 0.8KW/TON,Outlet,1
 Non-Parent Node Connection,NODE 325,CHILLER:ELECTRIC:EIR,PRIMARY CHILLER WATERCOOLED SCROLL 3 9TONS 0.8KW/TON,Inlet,2
 Non-Parent Node Connection,NODE 331,CHILLER:ELECTRIC:EIR,PRIMARY CHILLER WATERCOOLED SCROLL 3 9TONS 0.8KW/TON,Outlet,2
 Non-Parent Node Connection,NODE 315,CHILLER:ELECTRIC:EIR,SECONDARY CHILLER WATERCOOLED SCROLL 3 0TONS 0.8KW/TON,Inlet,1
 Non-Parent Node Connection,NODE 316,CHILLER:ELECTRIC:EIR,SECONDARY CHILLER WATERCOOLED SCROLL 3 0TONS 0.8KW/TON,Outlet,1
 Non-Parent Node Connection,NODE 332,CHILLER:ELECTRIC:EIR,SECONDARY CHILLER WATERCOOLED SCROLL 3 0TONS 0.8KW/TON,Inlet,2
 Non-Parent Node Connection,NODE 333,CHILLER:ELECTRIC:EIR,SECONDARY CHILLER WATERCOOLED SCROLL 3 0TONS 0.8KW/TON,Outlet,2
 Non-Parent Node Connection,NODE 115,COOLINGTOWER:SINGLESPEED,COOLING TOWER SINGLE SPEED 1,Inlet,1
 Non-Parent Node Connection,NODE 120,COOLINGTOWER:SINGLESPEED,COOLING TOWER SINGLE SPEED 1,Outlet,1
 Non-Parent Node Connection,NODE 236,COOLINGTOWER:SINGLESPEED,COOLING TOWER SINGLE SPEED 2,Inlet,1
 Non-Parent Node Connection,NODE 241,COOLINGTOWER:SINGLESPEED,COOLING TOWER SINGLE SPEED 2,Outlet,1
 Non-Parent Node Connection,NODE 279,COOLINGTOWER:SINGLESPEED,COOLING TOWER SINGLE SPEED 3,Inlet,1
 Non-Parent Node Connection,NODE 284,COOLINGTOWER:SINGLESPEED,COOLING TOWER SINGLE SPEED 3,Outlet,1
 Non-Parent Node Connection,NODE 322,COOLINGTOWER:SINGLESPEED,COOLING TOWER SINGLE SPEED 4,Inlet,1
 Non-Parent Node Connection,NODE 327,COOLINGTOWER:SINGLESPEED,COOLING TOWER SINGLE SPEED 4,Outlet,1
 Non-Parent Node Connection,NODE 5,BOILER:HOTWATER,PRIMARY BOILER 4671KBTU/HR 0.833 COMBUSTION EFF,Inlet,1
 Non-Parent Node Connection,NODE 12,BOILER:HOTWATER,PRIMARY BOILER 4671KBTU/HR 0.833 COMBUSTION EFF,Outlet,1
 Non-Parent Node Connection,NODE 14,BOILER:HOTWATER,SECONDARY BOILER 0KBTU/HR 0.85 AFUE,Inlet,1
 Non-Parent Node Connection,NODE 15,BOILER:HOTWATER,SECONDARY BOILER 0KBTU/HR 0.85 AFUE,Outlet,1
 Non-Parent Node Connection,NODE 2,PUMP:VARIABLESPEED,PUMP VARIABLE SPEED 1,Inlet,1
 Non-Parent Node Connection,NODE 11,PUMP:VARIABLESPEED,PUMP VARIABLE SPEED 1,Outlet,1
 Non-Parent Node Connection,NODE 100,PUMP:CONSTANTSPEED,PUMP CONSTANT SPEED 1,Inlet,1
 Non-Parent Node Connection,NODE 106,PUMP:CONSTANTSPEED,PUMP CONSTANT SPEED 1,Outlet,1
 Non-Parent Node Connection,NODE 221,PUMP:CONSTANTSPEED,PUMP CONSTANT SPEED 3,Inlet,1
 Non-Parent Node Connection,NODE 227,PUMP:CONSTANTSPEED,PUMP CONSTANT SPEED 3,Outlet,1
 Non-Parent Node Connection,NODE 264,PUMP:CONSTANTSPEED,PUMP CONSTANT SPEED 5,Inlet,1
 Non-Parent Node Connection,NODE 270,PUMP:CONSTANTSPEED,PUMP CONSTANT SPEED 5,Outlet,1
 Non-Parent Node Connection,NODE 307,PUMP:CONSTANTSPEED,PUMP CONSTANT SPEED 7,Inlet,1
 Non-Parent Node Connection,NODE 313,PUMP:CONSTANTSPEED,PUMP CONSTANT SPEED 7,Outlet,1
 Non-Parent Node Connection,NODE 113,PUMP:CONSTANTSPEED,PUMP CONSTANT SPEED 2,Inlet,1
 Non-Parent Node Connection,NODE 119,PUMP:CONSTANTSPEED,PUMP CONSTANT SPEED 2,Outlet,1
 Non-Parent Node Connection,NODE 234,PUMP:CONSTANTSPEED,PUMP CONSTANT SPEED 4,Inlet,1
 Non-Parent Node Connection,NODE 240,PUMP:CONSTANTSPEED,PUMP CONSTANT SPEED 4,Outlet,1
 Non-Parent Node Connection,NODE 277,PUMP:CONSTANTSPEED,PUMP CONSTANT SPEED 6,Inlet,1
 Non-Parent Node Connection,NODE 283,PUMP:CONSTANTSPEED,PUMP CONSTANT SPEED 6,Outlet,1
 Non-Parent Node Connection,NODE 320,PUMP:CONSTANTSPEED,PUMP CONSTANT SPEED 8,Inlet,1
 Non-Parent Node Connection,NODE 326,PUMP:CONSTANTSPEED,PUMP CONSTANT SPEED 8,Outlet,1
 Non-Parent Node Connection,NODE 350,PUMP:CONSTANTSPEED,SERVICE WATER LOOP PUMP,Inlet,1
 Non-Parent Node Connection,NODE 356,PUMP:CONSTANTSPEED,SERVICE WATER LOOP PUMP,Outlet,1
