Program Version,EnergyPlus, Version 8.9.0-eba93e8e1b, YMD=2019.03.20 17:54,
   ************* Beginning Zone Sizing Calculations
   ** Warning ** ProcessScheduleInput: Schedule:Day:Interval="ECONOMIZER MAX OA FRACTION 100 PCT DEFAULT", Blank Schedule Type Limits Name input -- will not be validated.
   ** Warning ** ProcessScheduleInput: Schedule:Day:Interval="SCHEDULE DAY 1", Blank Schedule Type Limits Name input -- will not be validated.
   ** Warning ** ProcessScheduleInput: Schedule:Day:Interval="SCHEDULE DAY 10", Blank Schedule Type Limits Name input -- will not be validated.
   ** Warning ** ProcessScheduleInput: Schedule:Day:Interval="SCHEDULE DAY 11", Blank Schedule Type Limits Name input -- will not be validated.
   ** Warning ** ProcessScheduleInput: Schedule:Day:Interval="SCHEDULE DAY 12", Blank Schedule Type Limits Name input -- will not be validated.
   ** Warning ** ProcessScheduleInput: Schedule:Day:Interval="SCHEDULE DAY 13", Blank Schedule Type Limits Name input -- will not be validated.
   ** Warning ** ProcessScheduleInput: Schedule:Day:Interval="SCHEDULE DAY 14", Blank Schedule Type Limits Name input -- will not be validated.
   ** Warning ** ProcessScheduleInput: Schedule:Day:Interval="SCHEDULE DAY 15", Blank Schedule Type Limits Name input -- will not be validated.
   ** Warning ** ProcessScheduleInput: Schedule:Day:Interval="SCHEDULE DAY 16", Blank Schedule Type Limits Name input -- will not be validated.
   ** Warning ** ProcessScheduleInput: Schedule:Day:Interval="SCHEDULE DAY 17", Blank Schedule Type Limits Name input -- will not be validated.
   ** Warning ** ProcessScheduleInput: Schedule:Day:Interval="SCHEDULE DAY 18", Blank Schedule Type Limits Name input -- will not be validated.
   ** Warning ** ProcessScheduleInput: Schedule:Day:Interval="SCHEDULE DAY 19", Blank Schedule Type Limits Name input -- will not be validated.
   ** Warning ** ProcessScheduleInput: Schedule:Day:Interval="SCHEDULE DAY 2", Blank Schedule Type Limits Name input -- will not be validated.
   ** Warning ** ProcessScheduleInput: Schedule:Day:Interval="SCHEDULE DAY 20", Blank Schedule Type Limits Name input -- will not be validated.
   ** Warning ** ProcessScheduleInput: Schedule:Day:Interval="SCHEDULE DAY 21", Blank Schedule Type Limits Name input -- will not be validated.
   ** Warning ** ProcessScheduleInput: Schedule:Day:Interval="SCHEDULE DAY 22", Blank Schedule Type Limits Name input -- will not be validated.
   ** Warning ** ProcessScheduleInput: Schedule:Day:Interval="SCHEDULE DAY 23", Blank Schedule Type Limits Name input -- will not be validated.
   ** Warning ** ProcessScheduleInput: Schedule:Day:Interval="SCHEDULE DAY 24", Blank Schedule Type Limits Name input -- will not be validated.
   ** Warning ** ProcessScheduleInput: Schedule:Day:Interval="SCHEDULE DAY 25", Blank Schedule Type Limits Name input -- will not be validated.
   ** Warning ** ProcessScheduleInput: Schedule:Day:Interval="SCHEDULE DAY 26", Blank Schedule Type Limits Name input -- will not be validated.
   ** Warning ** ProcessScheduleInput: Schedule:Day:Interval="SCHEDULE DAY 27", Blank Schedule Type Limits Name input -- will not be validated.
   ** Warning ** ProcessScheduleInput: Schedule:Day:Interval="SCHEDULE DAY 28", Blank Schedule Type Limits Name input -- will not be validated.
   ** Warning ** ProcessScheduleInput: Schedule:Day:Interval="SCHEDULE DAY 29", Blank Schedule Type Limits Name input -- will not be validated.
   ** Warning ** ProcessScheduleInput: Schedule:Day:Interval="SCHEDULE DAY 30", Blank Schedule Type Limits Name input -- will not be validated.
   ** Warning ** ProcessScheduleInput: Schedule:Day:Interval="SCHEDULE DAY 31", Blank Schedule Type Limits Name input -- will not be validated.
   ** Warning ** ProcessScheduleInput: Schedule:Day:Interval="SCHEDULE DAY 32", Blank Schedule Type Limits Name input -- will not be validated.
   ** Warning ** ProcessScheduleInput: Schedule:Day:Interval="SCHEDULE DAY 33", Blank Schedule Type Limits Name input -- will not be validated.
   ** Warning ** ProcessScheduleInput: Schedule:Day:Interval="SCHEDULE DAY 34", Blank Schedule Type Limits Name input -- will not be validated.
   ** Warning ** ProcessScheduleInput: Schedule:Day:Interval="SCHEDULE DAY 35", Blank Schedule Type Limits Name input -- will not be validated.
   ** Warning ** ProcessScheduleInput: Schedule:Day:Interval="SCHEDULE DAY 36", Blank Schedule Type Limits Name input -- will not be validated.
   ** Warning ** ProcessScheduleInput: Schedule:Day:Interval="SCHEDULE DAY 37", Blank Schedule Type Limits Name input -- will not be validated.
   ** Warning ** ProcessScheduleInput: Schedule:Day:Interval="SCHEDULE DAY 38", Blank Schedule Type Limits Name input -- will not be validated.
   ** Warning ** ProcessScheduleInput: Schedule:Day:Interval="SCHEDULE DAY 39", Blank Schedule Type Limits Name input -- will not be validated.
   ** Warning ** ProcessScheduleInput: Schedule:Day:Interval="SCHEDULE DAY 40", Blank Schedule Type Limits Name input -- will not be validated.
   ** Warning ** ProcessScheduleInput: Schedule:Day:Interval="SCHEDULE DAY 41", Blank Schedule Type Limits Name input -- will not be validated.
   ** Warning ** ProcessScheduleInput: Schedule:Day:Interval="SCHEDULE DAY 42", Blank Schedule Type Limits Name input -- will not be validated.
   ** Warning ** ProcessScheduleInput: Schedule:Day:Interval="SCHEDULE DAY 43", Blank Schedule Type Limits Name input -- will not be validated.
   ** Warning ** ProcessScheduleInput: Schedule:Day:Interval="SCHEDULE DAY 44", Blank Schedule Type Limits Name input -- will not be validated.
   ** Warning ** ProcessScheduleInput: Schedule:Day:Interval="SCHEDULE DAY 45", Blank Schedule Type Limits Name input -- will not be validated.
   ** Warning ** ProcessScheduleInput: Schedule:Day:Interval="SCHEDULE DAY 46", Blank Schedule Type Limits Name input -- will not be validated.
   ** Warning ** ProcessScheduleInput: Schedule:Day:Interval="SCHEDULE DAY 47", Blank Schedule Type Limits Name input -- will not be validated.
   ** Warning ** ProcessScheduleInput: Schedule:Day:Interval="SCHEDULE DAY 48", Blank Schedule Type Limits Name input -- will not be validated.
   ** Warning ** ProcessScheduleInput: Schedule:Day:Interval="SCHEDULE DAY 49", Blank Schedule Type Limits Name input -- will not be validated.
   ** Warning ** ProcessScheduleInput: Schedule:Day:Interval="SCHEDULE DAY 50", Blank Schedule Type Limits Name input -- will not be validated.
   ** Warning ** ProcessScheduleInput: Schedule:Day:Interval="SCHEDULE DAY 51", Blank Schedule Type Limits Name input -- will not be validated.
   ** Warning ** ProcessScheduleInput: Schedule:Day:Interval="SCHEDULE DAY 52", Blank Schedule Type Limits Name input -- will not be validated.
   ** Warning ** ProcessScheduleInput: Schedule:Day:Interval="SCHEDULE DAY 53", Blank Schedule Type Limits Name input -- will not be validated.
   ** Warning ** ProcessScheduleInput: Schedule:Day:Interval="SCHEDULE DAY 54", Blank Schedule Type Limits Name input -- will not be validated.
   ** Warning ** ProcessScheduleInput: Schedule:Day:Interval="SCHEDULE DAY 55", Blank Schedule Type Limits Name input -- will not be validated.
   ** Warning ** ProcessScheduleInput: Schedule:Day:Interval="SCHEDULE DAY 56", Blank Schedule Type Limits Name input -- will not be validated.
   ** Warning ** ProcessScheduleInput: Schedule:Day:Interval="SCHEDULE DAY 57", Blank Schedule Type Limits Name input -- will not be validated.
   ** Warning ** ProcessScheduleInput: Schedule:Day:Interval="SCHEDULE DAY 58", Blank Schedule Type Limits Name input -- will not be validated.
   ** Warning ** ProcessScheduleInput: Schedule:Day:Interval="SCHEDULE DAY 59", Blank Schedule Type Limits Name input -- will not be validated.
   ** Warning ** ProcessScheduleInput: Schedule:Day:Interval="SCHEDULE DAY 60", Blank Schedule Type Limits Name input -- will not be validated.
   ** Warning ** ProcessScheduleInput: Schedule:Day:Interval="SCHEDULE DAY 61", Blank Schedule Type Limits Name input -- will not be validated.
   ** Warning ** ProcessScheduleInput: Schedule:Day:Interval="SCHEDULE DAY 62", Blank Schedule Type Limits Name input -- will not be validated.
   ** Warning ** ProcessScheduleInput: Schedule:Day:Interval="SCHEDULE DAY 63", Blank Schedule Type Limits Name input -- will not be validated.
   ** Warning ** ProcessScheduleInput: Schedule:Day:Interval="SCHEDULE DAY 64", Blank Schedule Type Limits Name input -- will not be validated.
   ** Warning ** ProcessScheduleInput: Schedule:Day:Interval="SCHEDULE DAY 65", Blank Schedule Type Limits Name input -- will not be validated.
   ** Warning ** ProcessScheduleInput: Schedule:Day:Interval="SCHEDULE DAY 66", Blank Schedule Type Limits Name input -- will not be validated.
   ** Warning ** ProcessScheduleInput: Schedule:Day:Interval="SCHEDULE DAY 67", Blank Schedule Type Limits Name input -- will not be validated.
   ** Warning ** ProcessScheduleInput: Schedule:Day:Interval="SCHEDULE DAY 68", Blank Schedule Type Limits Name input -- will not be validated.
   ** Warning ** ProcessScheduleInput: Schedule:Day:Interval="SCHEDULE DAY 69", Blank Schedule Type Limits Name input -- will not be validated.
   ** Warning ** ProcessScheduleInput: Schedule:Day:Interval="SCHEDULE DAY 7", Blank Schedule Type Limits Name input -- will not be validated.
   ** Warning ** ProcessScheduleInput: Schedule:Day:Interval="SCHEDULE DAY 70", Blank Schedule Type Limits Name input -- will not be validated.
   ** Warning ** ProcessScheduleInput: Schedule:Day:Interval="SCHEDULE DAY 71", Blank Schedule Type Limits Name input -- will not be validated.
   ** Warning ** ProcessScheduleInput: Schedule:Day:Interval="SCHEDULE DAY 72", Blank Schedule Type Limits Name input -- will not be validated.
   ** Warning ** ProcessScheduleInput: Schedule:Day:Interval="SCHEDULE DAY 73", Blank Schedule Type Limits Name input -- will not be validated.
   ** Warning ** ProcessScheduleInput: Schedule:Day:Interval="SCHEDULE DAY 74", Blank Schedule Type Limits Name input -- will not be validated.
   ** Warning ** ProcessScheduleInput: Schedule:Day:Interval="SCHEDULE DAY 75", Blank Schedule Type Limits Name input -- will not be validated.
   ** Warning ** ProcessScheduleInput: Schedule:Day:Interval="SCHEDULE DAY 76", Blank Schedule Type Limits Name input -- will not be validated.
   ** Warning ** ProcessScheduleInput: Schedule:Day:Interval="SCHEDULE DAY 77", Blank Schedule Type Limits Name input -- will not be validated.
   ** Warning ** ProcessScheduleInput: Schedule:Day:Interval="SCHEDULE DAY 78", Blank Schedule Type Limits Name input -- will not be validated.
   ** Warning ** ProcessScheduleInput: Schedule:Day:Interval="SCHEDULE DAY 79", Blank Schedule Type Limits Name input -- will not be validated.
   ** Warning ** ProcessScheduleInput: Schedule:Day:Interval="SCHEDULE DAY 8", Blank Schedule Type Limits Name input -- will not be validated.
   ** Warning ** ProcessScheduleInput: Schedule:Day:Interval="SCHEDULE DAY 80", Blank Schedule Type Limits Name input -- will not be validated.
   ** Warning ** ProcessScheduleInput: Schedule:Day:Interval="SCHEDULE DAY 81", Blank Schedule Type Limits Name input -- will not be validated.
   ** Warning ** ProcessScheduleInput: Schedule:Day:Interval="SCHEDULE DAY 82", Blank Schedule Type Limits Name input -- will not be validated.
   ** Warning ** ProcessScheduleInput: Schedule:Day:Interval="SCHEDULE DAY 83", Blank Schedule Type Limits Name input -- will not be validated.
   ** Warning ** ProcessScheduleInput: Schedule:Day:Interval="SCHEDULE DAY 84", Blank Schedule Type Limits Name input -- will not be validated.
   ** Warning ** ProcessScheduleInput: Schedule:Day:Interval="SCHEDULE DAY 85", Blank Schedule Type Limits Name input -- will not be validated.
   ** Warning ** ProcessScheduleInput: Schedule:Day:Interval="SCHEDULE DAY 86", Blank Schedule Type Limits Name input -- will not be validated.
   ** Warning ** ProcessScheduleInput: Schedule:Day:Interval="SCHEDULE DAY 87", Blank Schedule Type Limits Name input -- will not be validated.
   ** Warning ** ProcessScheduleInput: Schedule:Day:Interval="SCHEDULE DAY 88", Blank Schedule Type Limits Name input -- will not be validated.
   ** Warning ** ProcessScheduleInput: Schedule:Day:Interval="SCHEDULE DAY 89", Blank Schedule Type Limits Name input -- will not be validated.
   ** Warning ** ProcessScheduleInput: Schedule:Day:Interval="SCHEDULE DAY 9", Blank Schedule Type Limits Name input -- will not be validated.
   ** Warning ** ProcessScheduleInput: Schedule:Day:Interval="SCHEDULE DAY 90", Blank Schedule Type Limits Name input -- will not be validated.
   ** Warning ** ProcessScheduleInput: Schedule:Day:Interval="SCHEDULE DAY 91", Blank Schedule Type Limits Name input -- will not be validated.
   ** Warning ** ProcessScheduleInput: Schedule:Day:Interval="SCHEDULE DAY 92", Blank Schedule Type Limits Name input -- will not be validated.
   ** Warning ** ProcessScheduleInput: Schedule:Year="ECONOMIZER MAX OA FRACTION 100 PCT", Blank Schedule Type Limits Name input -- will not be validated.
   ** Warning ** ProcessScheduleInput: Schedule:Year="SCHEDULE RULESET 10", Blank Schedule Type Limits Name input -- will not be validated.
   ** Warning ** ProcessScheduleInput: Schedule:Year="SCHEDULE RULESET 11", Blank Schedule Type Limits Name input -- will not be validated.
   ** Warning ** ProcessScheduleInput: Schedule:Year="SCHEDULE RULESET 12", Blank Schedule Type Limits Name input -- will not be validated.
   ** Warning ** ProcessScheduleInput: Schedule:Year="SCHEDULE RULESET 13", Blank Schedule Type Limits Name input -- will not be validated.
   ** Warning ** ProcessScheduleInput: Schedule:Year="SCHEDULE RULESET 14", Blank Schedule Type Limits Name input -- will not be validated.
   ** Warning ** ProcessScheduleInput: Schedule:Year="SCHEDULE RULESET 15", Blank Schedule Type Limits Name input -- will not be validated.
   ** Warning ** ProcessScheduleInput: Schedule:Year="SCHEDULE RULESET 16", Blank Schedule Type Limits Name input -- will not be validated.
   ** Warning ** ProcessScheduleInput: Schedule:Year="SCHEDULE RULESET 17", Blank Schedule Type Limits Name input -- will not be validated.
   ** Warning ** ProcessScheduleInput: Schedule:Year="SCHEDULE RULESET 18", Blank Schedule Type Limits Name input -- will not be validated.
   ** Warning ** ProcessScheduleInput: Schedule:Year="SCHEDULE RULESET 19", Blank Schedule Type Limits Name input -- will not be validated.
   ** Warning ** ProcessScheduleInput: Schedule:Year="SCHEDULE RULESET 20", Blank Schedule Type Limits Name input -- will not be validated.
   ** Warning ** ProcessScheduleInput: Schedule:Year="SCHEDULE RULESET 21", Blank Schedule Type Limits Name input -- will not be validated.
   ** Warning ** ProcessScheduleInput: Schedule:Year="SCHEDULE RULESET 22", Blank Schedule Type Limits Name input -- will not be validated.
   ** Warning ** ProcessScheduleInput: Schedule:Year="SCHEDULE RULESET 23", Blank Schedule Type Limits Name input -- will not be validated.
   ** Warning ** ProcessScheduleInput: Schedule:Year="SCHEDULE RULESET 24", Blank Schedule Type Limits Name input -- will not be validated.
   ** Warning ** ProcessScheduleInput: Schedule:Year="SCHEDULE RULESET 25", Blank Schedule Type Limits Name input -- will not be validated.
   ** Warning ** ProcessScheduleInput: Schedule:Year="SCHEDULE RULESET 26", Blank Schedule Type Limits Name input -- will not be validated.
   ** Warning ** ProcessScheduleInput: Schedule:Year="SCHEDULE RULESET 27", Blank Schedule Type Limits Name input -- will not be validated.
   ** Warning ** ProcessScheduleInput: Schedule:Year="SCHEDULE RULESET 28", Blank Schedule Type Limits Name input -- will not be validated.
   ** Warning ** ProcessScheduleInput: Schedule:Year="SCHEDULE RULESET 29", Blank Schedule Type Limits Name input -- will not be validated.
   ** Warning ** ProcessScheduleInput: Schedule:Year="SCHEDULE RULESET 3", Blank Schedule Type Limits Name input -- will not be validated.
   ** Warning ** ProcessScheduleInput: Schedule:Year="SCHEDULE RULESET 30", Blank Schedule Type Limits Name input -- will not be validated.
   ** Warning ** ProcessScheduleInput: Schedule:Year="SCHEDULE RULESET 31", Blank Schedule Type Limits Name input -- will not be validated.
   ** Warning ** ProcessScheduleInput: Schedule:Year="SCHEDULE RULESET 32", Blank Schedule Type Limits Name input -- will not be validated.
   ** Warning ** ProcessScheduleInput: Schedule:Year="SCHEDULE RULESET 33", Blank Schedule Type Limits Name input -- will not be validated.
   ** Warning ** ProcessScheduleInput: Schedule:Year="SCHEDULE RULESET 34", Blank Schedule Type Limits Name input -- will not be validated.
   ** Warning ** ProcessScheduleInput: Schedule:Year="SCHEDULE RULESET 35", Blank Schedule Type Limits Name input -- will not be validated.
   ** Warning ** ProcessScheduleInput: Schedule:Year="SCHEDULE RULESET 36", Blank Schedule Type Limits Name input -- will not be validated.
   ** Warning ** ProcessScheduleInput: Schedule:Year="SCHEDULE RULESET 37", Blank Schedule Type Limits Name input -- will not be validated.
   ** Warning ** ProcessScheduleInput: Schedule:Year="SCHEDULE RULESET 38", Blank Schedule Type Limits Name input -- will not be validated.
   ** Warning ** ProcessScheduleInput: Schedule:Year="SCHEDULE RULESET 39", Blank Schedule Type Limits Name input -- will not be validated.
   ** Warning ** ProcessScheduleInput: Schedule:Year="SCHEDULE RULESET 4", Blank Schedule Type Limits Name input -- will not be validated.
   ** Warning ** ProcessScheduleInput: Schedule:Year="SCHEDULE RULESET 40", Blank Schedule Type Limits Name input -- will not be validated.
   ** Warning ** ProcessScheduleInput: Schedule:Year="SCHEDULE RULESET 41", Blank Schedule Type Limits Name input -- will not be validated.
   ** Warning ** ProcessScheduleInput: Schedule:Year="SCHEDULE RULESET 42", Blank Schedule Type Limits Name input -- will not be validated.
   ** Warning ** ProcessScheduleInput: Schedule:Year="SCHEDULE RULESET 43", Blank Schedule Type Limits Name input -- will not be validated.
   ** Warning ** ProcessScheduleInput: Schedule:Year="SCHEDULE RULESET 44", Blank Schedule Type Limits Name input -- will not be validated.
   ** Warning ** ProcessScheduleInput: Schedule:Year="SCHEDULE RULESET 45", Blank Schedule Type Limits Name input -- will not be validated.
   ** Warning ** ProcessScheduleInput: Schedule:Year="SCHEDULE RULESET 46", Blank Schedule Type Limits Name input -- will not be validated.
   ** Warning ** ProcessScheduleInput: Schedule:Year="SCHEDULE RULESET 47", Blank Schedule Type Limits Name input -- will not be validated.
   ** Warning ** ProcessScheduleInput: Schedule:Year="SCHEDULE RULESET 48", Blank Schedule Type Limits Name input -- will not be validated.
   ** Warning ** ProcessScheduleInput: Schedule:Year="SCHEDULE RULESET 49", Blank Schedule Type Limits Name input -- will not be validated.
   ** Warning ** ProcessScheduleInput: Schedule:Year="SCHEDULE RULESET 5", Blank Schedule Type Limits Name input -- will not be validated.
   ** Warning ** ProcessScheduleInput: Schedule:Year="SCHEDULE RULESET 50", Blank Schedule Type Limits Name input -- will not be validated.
   ** Warning ** ProcessScheduleInput: Schedule:Year="SCHEDULE RULESET 6", Blank Schedule Type Limits Name input -- will not be validated.
   ** Warning ** ProcessScheduleInput: Schedule:Year="SCHEDULE RULESET 7", Blank Schedule Type Limits Name input -- will not be validated.
   ** Warning ** ProcessScheduleInput: Schedule:Year="SCHEDULE RULESET 8", Blank Schedule Type Limits Name input -- will not be validated.
   ** Warning ** ProcessScheduleInput: Schedule:Year="SCHEDULE RULESET 9", Blank Schedule Type Limits Name input -- will not be validated.
   ** Warning ** ProcessScheduleInput: Schedule:Constant="ALWAYS OFF DISCRETE", Blank Schedule Type Limits Name input -- will not be validated.
   ** Warning ** ProcessScheduleInput: Schedule:Constant="ALWAYS ON CONTINUOUS", Blank Schedule Type Limits Name input -- will not be validated.
   ** Warning ** CheckUsedConstructions: There are 27 nominally unused constructions in input.
   **   ~~~   ** For explicit details on each unused construction, use Output:Diagnostics,DisplayExtraWarnings;
   ** Warning ** GetInternalHeatGains: People Combination of ZoneList and Object Name generate a name too long.
   **   ~~~   ** Object Name="SPACE FUNCTION CONVENTION CENTRE - AUDIENCE PEOPLE".
   **   ~~~   ** ZoneList/Zone Name="ALL_ST=CONVENTION CENTRE - AUDIENCE_FL=STORY 3_SCH=C".
   **   ~~~   ** Item length=[102] > Maximum Length=[100]. You may need to shorten the names.
   **   ~~~   ** Shortening the Object Name by [3] characters will assure uniqueness for this ZoneList.
   **   ~~~   ** name that will be used (may be needed in reporting)="ALL_ST=CONVENTION CENTRE - AUDIENCE_FL=STORY 3_SCH=C SPACE FUNCTION CONVENTION CENTRE - AUDIENCE PEOPLE".
   ** Warning ** GetInternalHeatGains: Lights Combination of ZoneList and Object Name generate a name too long.
   **   ~~~   ** Object Name="SPACE FUNCTION CONVENTION CENTRE - AUDIENCE LIGHTS".
   **   ~~~   ** ZoneList/Zone Name="ALL_ST=CONVENTION CENTRE - AUDIENCE_FL=STORY 3_SCH=C".
   **   ~~~   ** Item length=[102] > Maximum Length=[100]. You may need to shorten the names.
   **   ~~~   ** Shortening the Object Name by [3] characters will assure uniqueness for this ZoneList.
   **   ~~~   ** name that will be used (may be needed in reporting)="ALL_ST=CONVENTION CENTRE - AUDIENCE_FL=STORY 3_SCH=C SPACE FUNCTION CONVENTION CENTRE - AUDIENCE LIGHTS".
   ** Warning ** GetInternalHeatGains: ElectricEquipment Combination of ZoneList and Object Name generate a name too long.
   **   ~~~   ** Object Name="SPACE FUNCTION AUDIENCE - PERFORMANCE ARTS ELEC EQUIP".
   **   ~~~   ** ZoneList/Zone Name="ALL_ST=AUDIENCE - PERFORMANCE ARTS_FL=STORY 3_SCH=C".
   **   ~~~   ** Item length=[104] > Maximum Length=[100]. You may need to shorten the names.
   **   ~~~   ** Shortening the Object Name by [5] characters will assure uniqueness for this ZoneList.
   **   ~~~   ** name that will be used (may be needed in reporting)="ALL_ST=AUDIENCE - PERFORMANCE ARTS_FL=STORY 3_SCH=C SPACE FUNCTION AUDIENCE - PERFORMANCE ARTS ELEC EQUIP".
   ** Warning ** GetInternalHeatGains: ElectricEquipment Combination of ZoneList and Object Name generate a name too long.
   **   ~~~   ** Object Name="SPACE FUNCTION BANK - BANKING AND OFFICES ELEC EQUIP".
   **   ~~~   ** ZoneList/Zone Name="ALL_ST=BANK - BANKING AND OFFICES_FL=STORY 1_SCH=A".
   **   ~~~   ** Item length=[102] > Maximum Length=[100]. You may need to shorten the names.
   **   ~~~   ** Shortening the Object Name by [3] characters will assure uniqueness for this ZoneList.
   **   ~~~   ** name that will be used (may be needed in reporting)="ALL_ST=BANK - BANKING AND OFFICES_FL=STORY 1_SCH=A SPACE FUNCTION BANK - BANKING AND OFFICES ELEC EQUIP".
   ** Warning ** GetInternalHeatGains: ElectricEquipment Combination of ZoneList and Object Name generate a name too long.
   **   ~~~   ** Object Name="SPACE FUNCTION CLASSROOM/LECTURE/TRAINING ELEC EQUIP".
   **   ~~~   ** ZoneList/Zone Name="ALL_ST=CLASSROOM/LECTURE/TRAINING_FL=STORY 2_SCH=D".
   **   ~~~   ** Item length=[102] > Maximum Length=[100]. You may need to shorten the names.
   **   ~~~   ** Shortening the Object Name by [3] characters will assure uniqueness for this ZoneList.
   **   ~~~   ** name that will be used (may be needed in reporting)="ALL_ST=CLASSROOM/LECTURE/TRAINING_FL=STORY 2_SCH=D SPACE FUNCTION CLASSROOM/LECTURE/TRAINING ELEC EQUIP".
   ** Warning ** GetInternalHeatGains: ElectricEquipment Combination of ZoneList and Object Name generate a name too long.
   **   ~~~   ** Object Name="SPACE FUNCTION CONVENTION CENTRE - AUDIENCE ELEC EQUIP".
   **   ~~~   ** ZoneList/Zone Name="ALL_ST=CONVENTION CENTRE - AUDIENCE_FL=STORY 3_SCH=C".
   **   ~~~   ** Item length=[106] > Maximum Length=[100]. You may need to shorten the names.
   **   ~~~   ** Shortening the Object Name by [7] characters will assure uniqueness for this ZoneList.
   **   ~~~   ** name that will be used (may be needed in reporting)="ALL_ST=CONVENTION CENTRE - AUDIENCE_FL=STORY 3_SCH=C SPACE FUNCTION CONVENTION CENTRE - AUDIENCE ELEC EQUIP".
   ** Warning ** GetInternalHeatGains: ElectricEquipment Combination of ZoneList and Object Name generate a name too long.
   **   ~~~   ** Object Name="SPACE FUNCTION CONVENTION CENTRE - EXHIBIT ELEC EQUIP".
   **   ~~~   ** ZoneList/Zone Name="ALL_ST=CONVENTION CENTRE - EXHIBIT_FL=STORY 2_SCH=C".
   **   ~~~   ** Item length=[104] > Maximum Length=[100]. You may need to shorten the names.
   **   ~~~   ** Shortening the Object Name by [5] characters will assure uniqueness for this ZoneList.
   **   ~~~   ** name that will be used (may be needed in reporting)="ALL_ST=CONVENTION CENTRE - EXHIBIT_FL=STORY 2_SCH=C SPACE FUNCTION CONVENTION CENTRE - EXHIBIT ELEC EQUIP".
   ** Warning ** GetSimpleAirModelInputs: ZoneInfiltration:DesignFlowRate="WILD_ST=CORR. < 2.4M WIDE-SCH-A_FL=STORY 2_SCH=C SPACE FUNCTION CORR. < 2.4M WIDE-SCH-C INFILTRATION", Design Flow Rate Calculation Method specifies Flow per Exterior Surface Area, but Exterior Surface Area = 0.  0 Infiltration will result.
   ** Warning ** Calculated design heating load for zone=ALL_ST=AUDIENCE - AUDITORIUM_FL=STORY 1_SCH=C is zero.
   **   ~~~   ** Check Sizing:Zone and ZoneControl:Thermostat inputs.
   ** Warning ** Calculated design heating load for zone=ALL_ST=AUDIENCE - MOTION PICTURE_FL=STORY 1_SCH=C is zero.
   **   ~~~   ** Check Sizing:Zone and ZoneControl:Thermostat inputs.
   ** Warning ** Calculated design heating load for zone=ALL_ST=AUTOMOTIVE - REPAIR_FL=STORY 1_SCH=E is zero.
   **   ~~~   ** Check Sizing:Zone and ZoneControl:Thermostat inputs.
   ** Warning ** Calculated design heating load for zone=ALL_ST=BANK - BANKING AND OFFICES_FL=STORY 1_SCH=A is zero.
   **   ~~~   ** Check Sizing:Zone and ZoneControl:Thermostat inputs.
   ** Warning ** Calculated design heating load for zone=ALL_ST=WHOLEBUILDING_FL=STORY 1_SCH=D is zero.
   **   ~~~   ** Check Sizing:Zone and ZoneControl:Thermostat inputs.
   ** Warning ** Calculated design heating load for zone=ALL_ST=WHOLEBUILDING_FL=STORY 3_SCH=H is zero.
   **   ~~~   ** Check Sizing:Zone and ZoneControl:Thermostat inputs.
   ** Warning ** Calculated design heating load for zone=WILD_ST=CORR. < 2.4M WIDE-SCH-A_FL=STORY 2_SCH=C is zero.
   **   ~~~   ** Check Sizing:Zone and ZoneControl:Thermostat inputs.
   ************* Beginning System Sizing Calculations
   ** Warning ** Since Zone Minimum Air Flow Input Method = CONSTANT, input for Fixed Minimum Air Flow Rate will be ignored.
   **   ~~~   ** Occurs in AirTerminal:SingleDuct:VAV:Reheat = AIR TERMINAL SINGLE DUCT VAV REHEAT 2
   ** Warning ** Since Damper Heating Action = NORMAL, input for Maximum Flow Fraction During Reheat will be ignored.
   **   ~~~   ** Occurs in AirTerminal:SingleDuct:VAV:Reheat = AIR TERMINAL SINGLE DUCT VAV REHEAT 2
   ** Warning ** Since Zone Minimum Air Flow Input Method = CONSTANT, input for Fixed Minimum Air Flow Rate will be ignored.
   **   ~~~   ** Occurs in AirTerminal:SingleDuct:VAV:Reheat = AIR TERMINAL SINGLE DUCT VAV REHEAT 5
   ** Warning ** Since Zone Minimum Air Flow Input Method = CONSTANT, input for Fixed Minimum Air Flow Rate will be ignored.
   **   ~~~   ** Occurs in AirTerminal:SingleDuct:VAV:Reheat = AIR TERMINAL SINGLE DUCT VAV REHEAT 1
   ** Warning ** Since Zone Minimum Air Flow Input Method = CONSTANT, input for Fixed Minimum Air Flow Rate will be ignored.
   **   ~~~   ** Occurs in AirTerminal:SingleDuct:VAV:Reheat = AIR TERMINAL SINGLE DUCT VAV REHEAT 3
   ** Warning ** Since Damper Heating Action = NORMAL, input for Maximum Flow Fraction During Reheat will be ignored.
   **   ~~~   ** Occurs in AirTerminal:SingleDuct:VAV:Reheat = AIR TERMINAL SINGLE DUCT VAV REHEAT 3
   ** Warning ** Since Zone Minimum Air Flow Input Method = CONSTANT, input for Fixed Minimum Air Flow Rate will be ignored.
   **   ~~~   ** Occurs in AirTerminal:SingleDuct:VAV:Reheat = AIR TERMINAL SINGLE DUCT VAV REHEAT 4
   ************* Beginning Plant Sizing Calculations
   ** Warning ** GetDXCoils: Coil:Cooling:DX:SingleSpeed="COIL COOLING DX SINGLE SPEED 9 448KBTU/HR 8.21EER", invalid
   **   ~~~   ** ...Part Load Fraction Correlation Curve Name = DXCOOL-NECB2011-REF-COOLPLFFPLR has out of range value.
   **   ~~~   ** ...Curve maximum must be <= 1.0, curve max at PLR = 0.99 is 1.015
   **   ~~~   ** ...Setting curve maximum to 1.0 and simulation continues.
   ** Warning ** The Standard Ratings is calculated for Coil:Cooling:DX:SingleSpeed = COIL COOLING DX SINGLE SPEED 9 448KBTU/HR 8.21EER but not at the AHRI test condition due to curve out of bound.
   **   ~~~   **  Review the Standard Ratings calculations in the Engineering Reference for this coil type. Also, use Output:Diagnostics, DisplayExtraWarnings for further guidance.
   ** Warning ** The Standard Ratings is calculated for Coil:Cooling:DX:SingleSpeed = COIL COOLING DX SINGLE SPEED 10 448KBTU/HR 8.21EER but not at the AHRI test condition due to curve out of bound.
   **   ~~~   **  Review the Standard Ratings calculations in the Engineering Reference for this coil type. Also, use Output:Diagnostics, DisplayExtraWarnings for further guidance.
   ** Warning ** The Standard Ratings is calculated for Coil:Cooling:DX:SingleSpeed = COIL COOLING DX SINGLE SPEED 11 448KBTU/HR 8.21EER but not at the AHRI test condition due to curve out of bound.
   **   ~~~   **  Review the Standard Ratings calculations in the Engineering Reference for this coil type. Also, use Output:Diagnostics, DisplayExtraWarnings for further guidance.
   ** Warning ** The Standard Ratings is calculated for Coil:Cooling:DX:SingleSpeed = COIL COOLING DX SINGLE SPEED 12 322KBTU/HR 8.21EER but not at the AHRI test condition due to curve out of bound.
   **   ~~~   **  Review the Standard Ratings calculations in the Engineering Reference for this coil type. Also, use Output:Diagnostics, DisplayExtraWarnings for further guidance.
   ** Warning ** The Standard Ratings is calculated for Coil:Cooling:DX:SingleSpeed = COIL COOLING DX SINGLE SPEED 13 441KBTU/HR 8.21EER but not at the AHRI test condition due to curve out of bound.
   **   ~~~   **  Review the Standard Ratings calculations in the Engineering Reference for this coil type. Also, use Output:Diagnostics, DisplayExtraWarnings for further guidance.
   ** Warning ** The Standard Ratings is calculated for Coil:Cooling:DX:SingleSpeed = COIL COOLING DX SINGLE SPEED 14 496KBTU/HR 8.21EER but not at the AHRI test condition due to curve out of bound.
   **   ~~~   **  Review the Standard Ratings calculations in the Engineering Reference for this coil type. Also, use Output:Diagnostics, DisplayExtraWarnings for further guidance.
   ** Warning ** The Standard Ratings is calculated for Coil:Cooling:DX:SingleSpeed = COIL COOLING DX SINGLE SPEED 15 270KBTU/HR 8.21EER but not at the AHRI test condition due to curve out of bound.
   **   ~~~   **  Review the Standard Ratings calculations in the Engineering Reference for this coil type. Also, use Output:Diagnostics, DisplayExtraWarnings for further guidance.
   ** Warning ** The Standard Ratings is calculated for Coil:Cooling:DX:SingleSpeed = COIL COOLING DX SINGLE SPEED 8 168KBTU/HR 9.7EER but not at the AHRI test condition due to curve out of bound.
   **   ~~~   **  Review the Standard Ratings calculations in the Engineering Reference for this coil type. Also, use Output:Diagnostics, DisplayExtraWarnings for further guidance.
   ** Warning ** The Standard Ratings is calculated for Coil:Cooling:DX:SingleSpeed = COIL COOLING DX SINGLE SPEED 6 233KBTU/HR 9.7EER but not at the AHRI test condition due to curve out of bound.
   **   ~~~   **  Review the Standard Ratings calculations in the Engineering Reference for this coil type. Also, use Output:Diagnostics, DisplayExtraWarnings for further guidance.
   ** Warning ** The Standard Ratings is calculated for Coil:Cooling:DX:SingleSpeed = COIL COOLING DX SINGLE SPEED 7 286KBTU/HR 8.21EER but not at the AHRI test condition due to curve out of bound.
   **   ~~~   **  Review the Standard Ratings calculations in the Engineering Reference for this coil type. Also, use Output:Diagnostics, DisplayExtraWarnings for further guidance.
   ** Warning ** The Standard Ratings is calculated for Coil:Cooling:DX:SingleSpeed = COIL COOLING DX SINGLE SPEED 5 364KBTU/HR 8.21EER but not at the AHRI test condition due to curve out of bound.
   **   ~~~   **  Review the Standard Ratings calculations in the Engineering Reference for this coil type. Also, use Output:Diagnostics, DisplayExtraWarnings for further guidance.
   ** Warning ** The Standard Ratings is calculated for Coil:Cooling:DX:SingleSpeed = COIL COOLING DX SINGLE SPEED 1 362KBTU/HR 8.21EER but not at the AHRI test condition due to curve out of bound.
   **   ~~~   **  Review the Standard Ratings calculations in the Engineering Reference for this coil type. Also, use Output:Diagnostics, DisplayExtraWarnings for further guidance.
   ** Warning ** The Standard Ratings is calculated for Coil:Cooling:DX:SingleSpeed = COIL COOLING DX SINGLE SPEED 4 147KBTU/HR 9.7EER but not at the AHRI test condition due to curve out of bound.
   **   ~~~   **  Review the Standard Ratings calculations in the Engineering Reference for this coil type. Also, use Output:Diagnostics, DisplayExtraWarnings for further guidance.
   ** Warning ** The Standard Ratings is calculated for Coil:Cooling:DX:SingleSpeed = COIL COOLING DX SINGLE SPEED 3 314KBTU/HR 8.21EER but not at the AHRI test condition due to curve out of bound.
   **   ~~~   **  Review the Standard Ratings calculations in the Engineering Reference for this coil type. Also, use Output:Diagnostics, DisplayExtraWarnings for further guidance.
   ** Warning ** The Standard Ratings is calculated for Coil:Cooling:DX:SingleSpeed = COIL COOLING DX SINGLE SPEED 2 140KBTU/HR 9.7EER but not at the AHRI test condition due to curve out of bound.
   **   ~~~   **  Review the Standard Ratings calculations in the Engineering Reference for this coil type. Also, use Output:Diagnostics, DisplayExtraWarnings for further guidance.
   ** Warning ** Missing temperature setpoint for LeavingSetpointModulated mode chiller named PRIMARY CHILLER WATERCOOLED SCROLL 103TONS 0.8KW/TON
   **   ~~~   **   A temperature setpoint is needed at the outlet node of a chiller in variable flow mode, use a SetpointManager
   **   ~~~   **   The overall loop setpoint will be assumed for chiller. The simulation continues ... 
   ** Warning ** Missing temperature setpoint for LeavingSetpointModulated mode chiller named SECONDARY CHILLER WATERCOOLED SCROLL 0TONS 0.8KW/TON
   **   ~~~   **   A temperature setpoint is needed at the outlet node of a chiller in variable flow mode, use a SetpointManager
   **   ~~~   **   The overall loop setpoint will be assumed for chiller. The simulation continues ... 
   ** Warning ** Error when autosizing the load for cooling tower = COOLING TOWER SINGLE SPEED 1. Tower Design Range Temperature is different from the Design Loop Delta Temperature.
   **   ~~~   ** Tower Design Range Temperature specified in tower = COOLING TOWER SINGLE SPEED 1
   **   ~~~   ** is inconsistent with Design Loop Delta Temperature specified in Sizing:Plant object = CONDENSER WATER LOOP.
   **   ~~~   ** ..The Design Range Temperature specified in tower is = 5.00
   **   ~~~   ** ..The Design Loop Delta Temperature specified in plant sizing data is = 6.00
   ** Warning ** Error when autosizing the load for cooling tower = COOLING TOWER SINGLE SPEED 1. Tower Design Range Temperature is different from the Design Loop Delta Temperature.
   **   ~~~   ** Tower Design Range Temperature specified in tower = COOLING TOWER SINGLE SPEED 1
   **   ~~~   ** is inconsistent with Design Loop Delta Temperature specified in Sizing:Plant object = CONDENSER WATER LOOP.
   **   ~~~   ** ..The Design Range Temperature specified in tower is = 5.00
   **   ~~~   ** ..The Design Loop Delta Temperature specified in plant sizing data is = 6.00
   ** Warning ** Error when autosizing the load for cooling tower = COOLING TOWER SINGLE SPEED 1. Tower Design Range Temperature is different from the Design Loop Delta Temperature.
   **   ~~~   ** Tower Design Range Temperature specified in tower = COOLING TOWER SINGLE SPEED 1
   **   ~~~   ** is inconsistent with Design Loop Delta Temperature specified in Sizing:Plant object = CONDENSER WATER LOOP.
   **   ~~~   ** ..The Design Range Temperature specified in tower is = 5.00
   **   ~~~   ** ..The Design Loop Delta Temperature specified in plant sizing data is = 6.00
   ** Warning ** Error when autosizing the load for cooling tower = COOLING TOWER SINGLE SPEED 1. Tower Design Range Temperature is different from the Design Loop Delta Temperature.
   **   ~~~   ** Tower Design Range Temperature specified in tower = COOLING TOWER SINGLE SPEED 1
   **   ~~~   ** is inconsistent with Design Loop Delta Temperature specified in Sizing:Plant object = CONDENSER WATER LOOP.
   **   ~~~   ** ..The Design Range Temperature specified in tower is = 5.00
   **   ~~~   ** ..The Design Loop Delta Temperature specified in plant sizing data is = 6.00
   ** Warning ** Error when autosizing the load for cooling tower = COOLING TOWER SINGLE SPEED 1. Tower Design Range Temperature is different from the Design Loop Delta Temperature.
   **   ~~~   ** Tower Design Range Temperature specified in tower = COOLING TOWER SINGLE SPEED 1
   **   ~~~   ** is inconsistent with Design Loop Delta Temperature specified in Sizing:Plant object = CONDENSER WATER LOOP.
   **   ~~~   ** ..The Design Range Temperature specified in tower is = 5.00
   **   ~~~   ** ..The Design Loop Delta Temperature specified in plant sizing data is = 6.00
   ** Warning ** Error when autosizing the load for cooling tower = COOLING TOWER SINGLE SPEED 1. Tower Design Range Temperature is different from the Design Loop Delta Temperature.
   **   ~~~   ** Tower Design Range Temperature specified in tower = COOLING TOWER SINGLE SPEED 1
   **   ~~~   ** is inconsistent with Design Loop Delta Temperature specified in Sizing:Plant object = CONDENSER WATER LOOP.
   **   ~~~   ** ..The Design Range Temperature specified in tower is = 5.00
   **   ~~~   ** ..The Design Loop Delta Temperature specified in plant sizing data is = 6.00
   ** Warning ** Missing temperature setpoint for LeavingSetpointModulated mode Boiler named PRIMARY BOILER 2735KBTU/HR 0.833 COMBUSTION EFF
   **   ~~~   **   A temperature setpoint is needed at the outlet node of a boiler in variable flow mode, use a SetpointManager
   **   ~~~   **   The overall loop setpoint will be assumed for Boiler. The simulation continues ... 
   ** Warning ** Output:Meter: invalid Key Name="DISTRICTCOOLING:FACILITY" - not found.
   ** Warning ** Output:Meter: invalid Key Name="DISTRICTHEATING:FACILITY" - not found.
   ** Warning ** Output:Meter:MeterFileOnly requested for "Electricity:Facility" (TimeStep), already on "Output:Meter". Will report to both eplusout.eso and eplusout.mtr
   ************* Testing Individual Branch Integrity
   ************* All Branches passed integrity testing
   ************* Testing Individual Supply Air Path Integrity
   ************* All Supply Air Paths passed integrity testing
   ************* Testing Individual Return Air Path Integrity
   ************* All Return Air Paths passed integrity testing
   ************* No node connection errors were found.
   ************* Beginning Simulation
   ** Severe  ** CheckWarmupConvergence: Loads Initialization, Zone="ALL_ST=ATRIUM - H < 13M_FL=STORY 2_SCH=C" did not converge after 25 warmup days.
   **   ~~~   ** See Warmup Convergence Information in .eio file for details.
   **   ~~~   ** ...Environment(RunPeriod)="RUN PERIOD 1"
   **   ~~~   ** ..Max Temp Comparison = 3.65E-004 vs Temperature Convergence Tolerance=0.40 - Pass Convergence
   **   ~~~   ** ..Min Temp Comparison = 4.41E-004 vs Temperature Convergence Tolerance=0.40 - Pass Convergence
   **   ~~~   ** ..Max Heat Load Comparison = 0.1248 vs Loads Convergence Tolerance=4.00E-002 - Fail Convergence
   **   ~~~   ** ..Max Cool Load Comparison = 0.8437 vs Loads Convergence Tolerance=4.00E-002 - Fail Convergence
   ** Severe  ** CheckWarmupConvergence: Loads Initialization, Zone="ALL_ST=ATRIUM - H > 13M_FL=STORY 4_SCH=C" did not converge after 25 warmup days.
   **   ~~~   ** ...Environment(RunPeriod)="RUN PERIOD 1"
   **   ~~~   ** ..Max Temp Comparison = 1.44E-004 vs Temperature Convergence Tolerance=0.40 - Pass Convergence
   **   ~~~   ** ..Min Temp Comparison = 1.47E-005 vs Temperature Convergence Tolerance=0.40 - Pass Convergence
   **   ~~~   ** ..Max Heat Load Comparison = 2.9593E-002 vs Loads Convergence Tolerance=4.00E-002 - Pass Convergence
   **   ~~~   ** ..Max Cool Load Comparison = 0.2552 vs Loads Convergence Tolerance=4.00E-002 - Fail Convergence
   ** Warning ** Processing Monthly Tabular Reports: Variable names not valid for this simulation
   **   ~~~   ** ...use Output:Diagnostics,DisplayExtraWarnings; to show more details on individual variables.
   ** Warning ** HeatExchanger:AirToAir:SensibleAndLatent "SYS_3_PSZ ALL_ST=CONF./MEET./MULTI-PURPOSE_FL=STORY 4_SCH=C ERV"
   **   ~~~   ** Average air volume flow rate is <50% or >130% of the nominal HX supply air volume flow rate.
   **   ~~~   ** Air volume flow rate ratio = 2.668. Environment=RUN PERIOD 1, at Simulation time=01/01 09:00 - 09:10
   ** Warning ** HeatExchanger:AirToAir:SensibleAndLatent "SYS_3_PSZ ALL_ST=CONVENTION CENTRE - AUDIENCE_FL=STORY 3_SCH=C ERV"
   **   ~~~   ** Average air volume flow rate is <50% or >130% of the nominal HX supply air volume flow rate.
   **   ~~~   ** Air volume flow rate ratio = 9.569E-003. Environment=RUN PERIOD 1, at Simulation time=01/01 10:00 - 10:10
   ** Warning ** HeatExchanger:AirToAir:SensibleAndLatent "SYS_3_PSZ ALL_ST=AUDIENCE - AUDITORIUM_FL=STORY 1_SCH=C ERV"
   **   ~~~   ** Average air volume flow rate is <50% or >130% of the nominal HX supply air volume flow rate.
   **   ~~~   ** Air volume flow rate ratio = 4.221E-002. Environment=RUN PERIOD 1, at Simulation time=01/01 10:02 - 10:04
   ** Warning ** HeatExchanger:AirToAir:SensibleAndLatent "SYS_3_PSZ ALL_ST=CLASSROOM/LECTURE/TRAINING_FL=STORY 2_SCH=D ERV"
   **   ~~~   ** Average air volume flow rate is <50% or >130% of the nominal HX supply air volume flow rate.
   **   ~~~   ** Air volume flow rate ratio = 5.314E-002. Environment=RUN PERIOD 1, at Simulation time=01/02 07:02 - 07:03
   ** Warning ** SolveAirLoopControllers: Maximum iterations (50) exceeded for SYS_6_VAV WITH REHEAT, at RUN PERIOD 1, 01/02 08:00 - 08:10
   ** Warning ** HeatExchanger:AirToAir:SensibleAndLatent "SYS_3_PSZ ALL_ST=AUDIENCE - PERFORMANCE ARTS_FL=STORY 3_SCH=C ERV"
   **   ~~~   ** Average air volume flow rate is <50% or >130% of the nominal HX supply air volume flow rate.
   **   ~~~   ** Air volume flow rate ratio = 3.590E-002. Environment=RUN PERIOD 1, at Simulation time=01/02 08:02 - 08:03
   ** Warning ** HeatExchanger:AirToAir:SensibleAndLatent "SYS_6_VAV WITH REHEAT ERV"
   **   ~~~   ** Average air volume flow rate is <50% or >130% of the nominal HX supply air volume flow rate.
   **   ~~~   ** Air volume flow rate ratio = 1.501. Environment=RUN PERIOD 1, at Simulation time=01/02 16:30 - 16:40
   ** Warning ** HeatExchanger:AirToAir:SensibleAndLatent "SYS_3_PSZ ALL_ST=AUDIENCE - MOTION PICTURE_FL=STORY 1_SCH=C ERV"
   **   ~~~   ** Average air volume flow rate is <50% or >130% of the nominal HX supply air volume flow rate.
   **   ~~~   ** Air volume flow rate ratio = 1.179E-002. Environment=RUN PERIOD 1, at Simulation time=01/06 08:50 - 09:00
   ** Warning ** HeatExchanger:AirToAir:SensibleAndLatent "SYS_4_PSZ_ALL_ST=AUTOMOTIVE - REPAIR_FL=STORY 1_SCH=E ERV"
   **   ~~~   ** Average air volume flow rate is <50% or >130% of the nominal HX supply air volume flow rate.
   **   ~~~   ** Air volume flow rate ratio = 5.743E-002. Environment=RUN PERIOD 1, at Simulation time=01/07 13:55 - 14:00
   ** Warning ** CalcDoe2DXCoil: Coil:Cooling:DX:SingleSpeed "COIL COOLING DX SINGLE SPEED 4 147KBTU/HR 9.7EER" - Full load outlet air dry-bulb temperature < 2C. This indicates the possibility of coil frost/freeze. Outlet temperature = -0.82 C.
   **   ~~~   **  ...Occurrence info = RUN PERIOD 1, 01/07 14:00 - 14:03
   **   ~~~   ** ... Possible reasons for low outlet air dry-bulb temperatures are: This DX coil
   **   ~~~   **    1) may have a low inlet air dry-bulb temperature. Inlet air temperature = 14.533 C.
   **   ~~~   **    2) may have a low air flow rate per watt of cooling capacity. Check inputs.
   **   ~~~   **    3) is used as part of a HX assisted cooling coil which uses a high sensible effectiveness. Check inputs.
   ** Warning ** SimHVAC: Maximum iterations (20) exceeded for all HVAC loops, at RUN PERIOD 1, 02/03 08:00 - 08:10
   **   ~~~   ** The solution for one or more of the Air Loop HVAC systems did not appear to converge
   **   ~~~   ** ...use Output:Diagnostics,DisplayExtraWarnings; to show more details on each max iteration exceeded.
   ** Warning ** SimHVAC: Maximum iterations (20) exceeded for all HVAC loops, at RUN PERIOD 1, 02/16 14:30 - 14:40
   **   ~~~   ** The solution for one or more of the Air Loop HVAC systems did not appear to converge
   ** Warning ** CalcDoe2DXCoil: Coil:Cooling:DX:SingleSpeed "COIL COOLING DX SINGLE SPEED 13 441KBTU/HR 8.21EER" - Air-cooled condenser inlet dry-bulb temperature below 0 C. Outdoor dry-bulb temperature = -0.90
   **   ~~~   **  ... Occurrence info = RUN PERIOD 1, 03/04 14:45 - 14:50
   **   ~~~   ** ... Operation at low ambient temperatures may require special performance curves.
   ** Severe  ** FindRootSimpleController: Controller error for controller = "CONTROLLER WATER COIL 1"
   **   ~~~   **  Environment=RUN PERIOD 1, at Simulation time=03/08 16:10 - 16:20
   **   ~~~   **   Controller function is inconsistent with user specified controller action = Normal action
   **   ~~~   **   Actuator will be set to maximum action
   **   ~~~   ** Controller control type=Temperature
   **   ~~~   ** Controller temperature setpoint = 11.95 [C]
   **   ~~~   ** Controller sensed temperature = 11.75 [C]
   **   ~~~   ** Controller actuator mass flow rate set to 0.83 [kg/s]
   **   ~~~   ** Controller actuator temperature = 49.21 [C]
   **   ~~~   **   Note: Chilled water coils should be reverse action and the entering chilled
   **   ~~~   **         water temperature (controller actuator temperature) should be below the setpoint temperature
   **   ~~~   **   Note: Hot water coils should be normal action and the entering hot
   **   ~~~   **         water temperature (controller actuator temperature) should be above the setpoint temperature
   ** Warning ** SimHVAC: Maximum iterations (20) exceeded for all HVAC loops, at RUN PERIOD 1, 03/15 16:47 - 16:50
   **   ~~~   ** The solution for one or more of the Air Loop HVAC systems did not appear to converge
   ** Warning ** CalcDoe2DXCoil: Coil:Cooling:DX:SingleSpeed "COIL COOLING DX SINGLE SPEED 13 441KBTU/HR 8.21EER" - Full load outlet air dry-bulb temperature < 2C. This indicates the possibility of coil frost/freeze. Outlet temperature = 0.54 C.
   **   ~~~   **  ...Occurrence info = RUN PERIOD 1, 03/24 15:45 - 15:50
   **   ~~~   ** ... Possible reasons for low outlet air dry-bulb temperatures are: This DX coil
   **   ~~~   **    1) may have a low inlet air dry-bulb temperature. Inlet air temperature = 13.823 C.
   **   ~~~   **    2) may have a low air flow rate per watt of cooling capacity. Check inputs.
   **   ~~~   **    3) is used as part of a HX assisted cooling coil which uses a high sensible effectiveness. Check inputs.
   ** Warning ** SimHVAC: Maximum iterations (20) exceeded for all HVAC loops, at RUN PERIOD 1, 04/07 09:10 - 09:13
   **   ~~~   ** The solution for one or more of the Air Loop HVAC systems did not appear to converge
   ** Warning ** SimHVAC: Maximum iterations (20) exceeded for all HVAC loops, at RUN PERIOD 1, 04/12 17:57 - 18:00
   **   ~~~   ** The solution for one or more of the Air Loop HVAC systems did not appear to converge
   ** Warning ** SimHVAC: Maximum iterations (20) exceeded for all HVAC loops, at RUN PERIOD 1, 04/14 12:20 - 12:30
   **   ~~~   ** The solution for one or more of the Air Loop HVAC systems did not appear to converge
   ** Warning ** SimHVAC: Maximum iterations (20) exceeded for all HVAC loops, at RUN PERIOD 1, 04/14 15:05 - 15:10
   **   ~~~   ** The solution for one or more of the Air Loop HVAC systems did not appear to converge
   ** Warning ** SimHVAC: Maximum iterations (20) exceeded for all HVAC loops, at RUN PERIOD 1, 04/19 16:40 - 16:50
   **   ~~~   ** The solution for one or more of the Air Loop HVAC systems did not appear to converge
   ** Warning ** CalcDoe2DXCoil: Coil:Cooling:DX:SingleSpeed "COIL COOLING DX SINGLE SPEED 14 496KBTU/HR 8.21EER" - Full load outlet air dry-bulb temperature < 2C. This indicates the possibility of coil frost/freeze. Outlet temperature = -3.98 C.
   **   ~~~   **  ...Occurrence info = RUN PERIOD 1, 04/23 10:24 - 10:26
   **   ~~~   ** ... Possible reasons for low outlet air dry-bulb temperatures are: This DX coil
   **   ~~~   **    1) may have a low inlet air dry-bulb temperature. Inlet air temperature = 12.000 C.
   **   ~~~   **    2) may have a low air flow rate per watt of cooling capacity. Check inputs.
   **   ~~~   **    3) is used as part of a HX assisted cooling coil which uses a high sensible effectiveness. Check inputs.
   ** Warning ** CalcDoe2DXCoil: Coil:Cooling:DX:SingleSpeed "COIL COOLING DX SINGLE SPEED 11 448KBTU/HR 8.21EER" - Full load outlet air dry-bulb temperature < 2C. This indicates the possibility of coil frost/freeze. Outlet temperature = -2.52 C.
   **   ~~~   **  ...Occurrence info = RUN PERIOD 1, 04/23 10:27 - 10:29
   **   ~~~   ** ... Possible reasons for low outlet air dry-bulb temperatures are: This DX coil
   **   ~~~   **    1) may have a low inlet air dry-bulb temperature. Inlet air temperature = 12.000 C.
   **   ~~~   **    2) may have a low air flow rate per watt of cooling capacity. Check inputs.
   **   ~~~   **    3) is used as part of a HX assisted cooling coil which uses a high sensible effectiveness. Check inputs.
   ** Warning ** CalcDoe2DXCoil: Coil:Cooling:DX:SingleSpeed "COIL COOLING DX SINGLE SPEED 8 168KBTU/HR 9.7EER" - Full load outlet air dry-bulb temperature < 2C. This indicates the possibility of coil frost/freeze. Outlet temperature = 0.91 C.
   **   ~~~   **  ...Occurrence info = RUN PERIOD 1, 04/24 12:20 - 12:30
   **   ~~~   ** ... Possible reasons for low outlet air dry-bulb temperatures are: This DX coil
   **   ~~~   **    1) may have a low inlet air dry-bulb temperature. Inlet air temperature = 15.900 C.
   **   ~~~   **    2) may have a low air flow rate per watt of cooling capacity. Check inputs.
   **   ~~~   **    3) is used as part of a HX assisted cooling coil which uses a high sensible effectiveness. Check inputs.
   ** Warning ** CalcDoe2DXCoil: Coil:Cooling:DX:SingleSpeed "COIL COOLING DX SINGLE SPEED 12 322KBTU/HR 8.21EER" - Full load outlet air dry-bulb temperature < 2C. This indicates the possibility of coil frost/freeze. Outlet temperature = 0.34 C.
   **   ~~~   **  ...Occurrence info = RUN PERIOD 1, 04/24 18:20 - 18:23
   **   ~~~   ** ... Possible reasons for low outlet air dry-bulb temperatures are: This DX coil
   **   ~~~   **    1) may have a low inlet air dry-bulb temperature. Inlet air temperature = 15.650 C.
   **   ~~~   **    2) may have a low air flow rate per watt of cooling capacity. Check inputs.
   **   ~~~   **    3) is used as part of a HX assisted cooling coil which uses a high sensible effectiveness. Check inputs.
   ** Warning ** CalcDoe2DXCoil: Coil:Cooling:DX:SingleSpeed "COIL COOLING DX SINGLE SPEED 15 270KBTU/HR 8.21EER" - Full load outlet air dry-bulb temperature < 2C. This indicates the possibility of coil frost/freeze. Outlet temperature = 1.98 C.
   **   ~~~   **  ...Occurrence info = RUN PERIOD 1, 04/26 12:00 - 12:10
   **   ~~~   ** ... Possible reasons for low outlet air dry-bulb temperatures are: This DX coil
   **   ~~~   **    1) may have a low inlet air dry-bulb temperature. Inlet air temperature = 16.383 C.
   **   ~~~   **    2) may have a low air flow rate per watt of cooling capacity. Check inputs.
   **   ~~~   **    3) is used as part of a HX assisted cooling coil which uses a high sensible effectiveness. Check inputs.
   ** Warning ** CalcDoe2DXCoil: Coil:Cooling:DX:SingleSpeed "COIL COOLING DX SINGLE SPEED 6 233KBTU/HR 9.7EER" - Full load outlet air dry-bulb temperature < 2C. This indicates the possibility of coil frost/freeze. Outlet temperature = 1.79 C.
   **   ~~~   **  ...Occurrence info = RUN PERIOD 1, 04/26 19:00 - 19:03
   **   ~~~   ** ... Possible reasons for low outlet air dry-bulb temperatures are: This DX coil
   **   ~~~   **    1) may have a low inlet air dry-bulb temperature. Inlet air temperature = 14.950 C.
   **   ~~~   **    2) may have a low air flow rate per watt of cooling capacity. Check inputs.
   **   ~~~   **    3) is used as part of a HX assisted cooling coil which uses a high sensible effectiveness. Check inputs.
   ** Warning ** CalcDoe2DXCoil: Coil:Cooling:DX:SingleSpeed "COIL COOLING DX SINGLE SPEED 2 140KBTU/HR 9.7EER" - Full load outlet air dry-bulb temperature < 2C. This indicates the possibility of coil frost/freeze. Outlet temperature = 1.42 C.
   **   ~~~   **  ...Occurrence info = RUN PERIOD 1, 04/27 08:50 - 08:52
   **   ~~~   ** ... Possible reasons for low outlet air dry-bulb temperatures are: This DX coil
   **   ~~~   **    1) may have a low inlet air dry-bulb temperature. Inlet air temperature = 14.200 C.
   **   ~~~   **    2) may have a low air flow rate per watt of cooling capacity. Check inputs.
   **   ~~~   **    3) is used as part of a HX assisted cooling coil which uses a high sensible effectiveness. Check inputs.
   ** Warning ** CalcDoe2DXCoil: Coil:Cooling:DX:SingleSpeed "COIL COOLING DX SINGLE SPEED 10 448KBTU/HR 8.21EER" - Full load outlet air dry-bulb temperature < 2C. This indicates the possibility of coil frost/freeze. Outlet temperature = 0.77 C.
   **   ~~~   **  ...Occurrence info = RUN PERIOD 1, 04/28 07:00 - 07:02
   **   ~~~   ** ... Possible reasons for low outlet air dry-bulb temperatures are: This DX coil
   **   ~~~   **    1) may have a low inlet air dry-bulb temperature. Inlet air temperature = 12.600 C.
   **   ~~~   **    2) may have a low air flow rate per watt of cooling capacity. Check inputs.
   **   ~~~   **    3) is used as part of a HX assisted cooling coil which uses a high sensible effectiveness. Check inputs.
   ** Warning ** CalcDoe2DXCoil: Coil:Cooling:DX:SingleSpeed "COIL COOLING DX SINGLE SPEED 5 364KBTU/HR 8.21EER" - Full load outlet air dry-bulb temperature < 2C. This indicates the possibility of coil frost/freeze. Outlet temperature = -1.22 C.
   **   ~~~   **  ...Occurrence info = RUN PERIOD 1, 04/29 09:00 - 09:03
   **   ~~~   ** ... Possible reasons for low outlet air dry-bulb temperatures are: This DX coil
   **   ~~~   **    1) may have a low inlet air dry-bulb temperature. Inlet air temperature = 12.216 C.
   **   ~~~   **    2) may have a low air flow rate per watt of cooling capacity. Check inputs.
   **   ~~~   **    3) is used as part of a HX assisted cooling coil which uses a high sensible effectiveness. Check inputs.
   ** Warning ** CalcDoe2DXCoil: Coil:Cooling:DX:SingleSpeed "COIL COOLING DX SINGLE SPEED 1 362KBTU/HR 8.21EER" - Full load outlet air dry-bulb temperature < 2C. This indicates the possibility of coil frost/freeze. Outlet temperature = 1.49 C.
   **   ~~~   **  ...Occurrence info = RUN PERIOD 1, 05/01 10:00 - 10:10
   **   ~~~   ** ... Possible reasons for low outlet air dry-bulb temperatures are: This DX coil
   **   ~~~   **    1) may have a low inlet air dry-bulb temperature. Inlet air temperature = 14.650 C.
   **   ~~~   **    2) may have a low air flow rate per watt of cooling capacity. Check inputs.
   **   ~~~   **    3) is used as part of a HX assisted cooling coil which uses a high sensible effectiveness. Check inputs.
   ** Warning ** CalcDoe2DXCoil: Coil:Cooling:DX:SingleSpeed "COIL COOLING DX SINGLE SPEED 7 286KBTU/HR 8.21EER" - Full load outlet air dry-bulb temperature < 2C. This indicates the possibility of coil frost/freeze. Outlet temperature = 0.83 C.
   **   ~~~   **  ...Occurrence info = RUN PERIOD 1, 05/10 14:10 - 14:13
   **   ~~~   ** ... Possible reasons for low outlet air dry-bulb temperatures are: This DX coil
   **   ~~~   **    1) may have a low inlet air dry-bulb temperature. Inlet air temperature = 13.966 C.
   **   ~~~   **    2) may have a low air flow rate per watt of cooling capacity. Check inputs.
   **   ~~~   **    3) is used as part of a HX assisted cooling coil which uses a high sensible effectiveness. Check inputs.
   ** Warning ** SimHVAC: Maximum iterations (20) exceeded for all HVAC loops, at RUN PERIOD 1, 05/18 09:10 - 09:20
   **   ~~~   ** The solution for one or more of the Air Loop HVAC systems did not appear to converge
   ** Warning ** SimHVAC: Maximum iterations (20) exceeded for all HVAC loops, at RUN PERIOD 1, 05/31 10:50 - 11:00
   **   ~~~   ** The solution for one or more of the Air Loop HVAC systems did not appear to converge
   ** Warning ** CalcDoe2DXCoil: Coil:Cooling:DX:SingleSpeed "COIL COOLING DX SINGLE SPEED 9 448KBTU/HR 8.21EER" - Full load outlet air dry-bulb temperature < 2C. This indicates the possibility of coil frost/freeze. Outlet temperature = 9.36E-002 C.
   **   ~~~   **  ...Occurrence info = RUN PERIOD 1, 06/01 07:00 - 07:02
   **   ~~~   ** ... Possible reasons for low outlet air dry-bulb temperatures are: This DX coil
   **   ~~~   **    1) may have a low inlet air dry-bulb temperature. Inlet air temperature = 11.783 C.
   **   ~~~   **    2) may have a low air flow rate per watt of cooling capacity. Check inputs.
   **   ~~~   **    3) is used as part of a HX assisted cooling coil which uses a high sensible effectiveness. Check inputs.
   ** Warning ** SimHVAC: Maximum iterations (20) exceeded for all HVAC loops, at RUN PERIOD 1, 07/09 14:40 - 14:50
   **   ~~~   ** The solution for one or more of the Air Loop HVAC systems did not appear to converge
   ** Warning ** SimHVAC: Maximum iterations (20) exceeded for all HVAC loops, at RUN PERIOD 1, 09/21 08:20 - 08:22
   **   ~~~   ** The solution for one or more of the Air Loop HVAC systems did not appear to converge
   ** Warning ** SimHVAC: Maximum iterations (20) exceeded for all HVAC loops, at RUN PERIOD 1, 09/22 10:40 - 10:50
   **   ~~~   ** The solution for one or more of the Air Loop HVAC systems did not appear to converge
   ** Warning ** SimHVAC: Maximum iterations (20) exceeded for all HVAC loops, at RUN PERIOD 1, 09/22 11:40 - 11:50
   **   ~~~   ** The solution for one or more of the Air Loop HVAC systems did not appear to converge
   ** Warning ** SolveAirLoopControllers: Maximum iterations (50) exceeded for SYS_6_VAV WITH REHEAT, at RUN PERIOD 1, 10/11 10:50 - 11:00
   ** Warning ** SolveAirLoopControllers: Maximum iterations (50) exceeded for SYS_6_VAV WITH REHEAT, at RUN PERIOD 1, 10/31 15:10 - 15:15
   ** Warning ** The resource referenced by LifeCycleCost:UsePriceEscalation= "U.S. AVG  COMMERCIAL-ELECTRICITY" has no energy cost. 
   **   ~~~   ** ... It is likely that the wrong resource is used. The resource should match the meter used in Utility:Tariff.
   ** Warning ** The resource referenced by LifeCycleCost:UsePriceEscalation= "U.S. AVG  COMMERCIAL-DISTILLATE OIL" has no energy cost. 
   **   ~~~   ** ... It is likely that the wrong resource is used. The resource should match the meter used in Utility:Tariff.
   ** Warning ** The resource referenced by LifeCycleCost:UsePriceEscalation= "U.S. AVG  COMMERCIAL-RESIDUAL OIL" has no energy cost. 
   **   ~~~   ** ... It is likely that the wrong resource is used. The resource should match the meter used in Utility:Tariff.
   ** Warning ** The resource referenced by LifeCycleCost:UsePriceEscalation= "U.S. AVG  COMMERCIAL-NATURAL GAS" has no energy cost. 
   **   ~~~   ** ... It is likely that the wrong resource is used. The resource should match the meter used in Utility:Tariff.
   ** Warning ** The resource referenced by LifeCycleCost:UsePriceEscalation= "U.S. AVG  COMMERCIAL-COAL" has no energy cost. 
   **   ~~~   ** ... It is likely that the wrong resource is used. The resource should match the meter used in Utility:Tariff.
   ************* Simulation Error Summary *************
   ************* There are 8 unused schedules in input.
   ************* There are 8 unused week schedules in input.
   ************* There are 55 unused day schedules in input.
   ************* Use Output:Diagnostics,DisplayUnusedSchedules; to see them.
   *************
   ************* ===== Recurring Error Summary =====
   ************* The following recurring error messages occurred.
   *************
   *************  ** Warning ** HeatExchanger:AirToAir:SensibleAndLatent "SYS_3_PSZ ALL_ST=CONF./MEET./MULTI-PURPOSE_FL=STORY 4_SCH=C ERV":  Average air volume flow rate is <50% or >130% warning continues. Air flow rate ratio statistics follow.
   *************  **   ~~~   **   This error occurred 44663 total times;
   *************  **   ~~~   **   during Warmup 0 times;
   *************  **   ~~~   **   during Sizing 0 times.
   *************  **   ~~~   **   Max=2.712178  Min=3.278437E-004
   *************
   *************  ** Warning ** HeatExchanger:AirToAir:SensibleAndLatent "SYS_3_PSZ ALL_ST=CONVENTION CENTRE - AUDIENCE_FL=STORY 3_SCH=C ERV":  Average air volume flow rate is <50% or >130% warning continues. Air flow rate ratio statistics follow.
   *************  **   ~~~   **   This error occurred 1949 total times;
   *************  **   ~~~   **   during Warmup 0 times;
   *************  **   ~~~   **   during Sizing 0 times.
   *************  **   ~~~   **   Max=0.255866  Min=1.386213E-004
   *************
   *************  ** Warning ** HeatExchanger:AirToAir:SensibleAndLatent "SYS_3_PSZ ALL_ST=AUDIENCE - AUDITORIUM_FL=STORY 1_SCH=C ERV":  Average air volume flow rate is <50% or >130% warning continues. Air flow rate ratio statistics follow.
   *************  **   ~~~   **   This error occurred 662 total times;
   *************  **   ~~~   **   during Warmup 0 times;
   *************  **   ~~~   **   during Sizing 0 times.
   *************  **   ~~~   **   Max=0.44503  Min=2.912772E-004
   *************
   *************  ** Warning ** HeatExchanger:AirToAir:SensibleAndLatent "SYS_3_PSZ ALL_ST=CLASSROOM/LECTURE/TRAINING_FL=STORY 2_SCH=D ERV":  Average air volume flow rate is <50% or >130% warning continues. Air flow rate ratio statistics follow.
   *************  **   ~~~   **   This error occurred 2258 total times;
   *************  **   ~~~   **   during Warmup 0 times;
   *************  **   ~~~   **   during Sizing 0 times.
   *************  **   ~~~   **   Max=0.485146  Min=1.799904E-004
   *************
   *************  ** Warning ** HeatExchanger:AirToAir:SensibleAndLatent "SYS_3_PSZ ALL_ST=AUDIENCE - PERFORMANCE ARTS_FL=STORY 3_SCH=C ERV":  Average air volume flow rate is <50% or >130% warning continues. Air flow rate ratio statistics follow.
   *************  **   ~~~   **   This error occurred 1898 total times;
   *************  **   ~~~   **   during Warmup 0 times;
   *************  **   ~~~   **   during Sizing 0 times.
   *************  **   ~~~   **   Max=0.345037  Min=3.644476E-004
   *************
   *************  ** Warning ** HeatExchanger:AirToAir:SensibleAndLatent "SYS_6_VAV WITH REHEAT ERV":  Average air volume flow rate is <50% or >130% warning continues. Air flow rate ratio statistics follow.
   *************  **   ~~~   **   This error occurred 628448 total times;
   *************  **   ~~~   **   during Warmup 0 times;
   *************  **   ~~~   **   during Sizing 0 times.
   *************  **   ~~~   **   Max=1.527398  Min=1.300065
   *************
   *************  ** Warning ** HeatExchanger:AirToAir:SensibleAndLatent "SYS_3_PSZ ALL_ST=AUDIENCE - MOTION PICTURE_FL=STORY 1_SCH=C ERV":  Average air volume flow rate is <50% or >130% warning continues. Air flow rate ratio statistics follow.
   *************  **   ~~~   **   This error occurred 1259 total times;
   *************  **   ~~~   **   during Warmup 0 times;
   *************  **   ~~~   **   during Sizing 0 times.
   *************  **   ~~~   **   Max=0.330512  Min=1.691313E-004
   *************
   *************  ** Warning ** HeatExchanger:AirToAir:SensibleAndLatent "SYS_4_PSZ_ALL_ST=AUTOMOTIVE - REPAIR_FL=STORY 1_SCH=E ERV":  Average air volume flow rate is <50% or >130% warning continues. Air flow rate ratio statistics follow.
   *************  **   ~~~   **   This error occurred 542 total times;
   *************  **   ~~~   **   during Warmup 0 times;
   *************  **   ~~~   **   during Sizing 0 times.
   *************  **   ~~~   **   Max=0.433665  Min=2.399081E-003
   *************
   *************  ** Warning ** CalcDoe2DXCoil: Coil:Cooling:DX:SingleSpeed="COIL COOLING DX SINGLE SPEED 4 147KBTU/HR 9.7EER" - Full load outlet temperature indicates a possibility of frost/freeze error continues. Outlet air temperature statistics follow:
   *************  **   ~~~   **   This error occurred 296 total times;
   *************  **   ~~~   **   during Warmup 0 times;
   *************  **   ~~~   **   during Sizing 0 times.
   *************  **   ~~~   **   Max=1.952054  Min=-2.256742
   *************
   *************  ** Warning ** CalcDoe2DXCoil: Coil:Cooling:DX:SingleSpeed="COIL COOLING DX SINGLE SPEED 13 441KBTU/HR 8.21EER" - Low condenser dry-bulb temperature error continues...
   *************  **   ~~~   **   This error occurred 10 total times;
   *************  **   ~~~   **   during Warmup 0 times;
   *************  **   ~~~   **   during Sizing 0 times.
   *************  **   ~~~   **   Max=-5.000000E-002 [C]  Min=-2.633333 [C]
   *************
   *************  ** Severe  ** FindRootSimpleController: Previous controller action error continues for controller = CONTROLLER WATER COIL 1
   *************  **   ~~~   **   This error occurred 10 total times;
   *************  **   ~~~   **   during Warmup 0 times;
   *************  **   ~~~   **   during Sizing 0 times.
   *************
   *************  ** Warning ** CalcDoe2DXCoil: Coil:Cooling:DX:SingleSpeed="COIL COOLING DX SINGLE SPEED 13 441KBTU/HR 8.21EER" - Full load outlet temperature indicates a possibility of frost/freeze error continues. Outlet air temperature statistics follow:
   *************  **   ~~~   **   This error occurred 11 total times;
   *************  **   ~~~   **   during Warmup 0 times;
   *************  **   ~~~   **   during Sizing 0 times.
   *************  **   ~~~   **   Max=1.975134  Min=-0.854411
   *************
   *************  ** Warning ** CalcDoe2DXCoil: Coil:Cooling:DX:SingleSpeed="COIL COOLING DX SINGLE SPEED 14 496KBTU/HR 8.21EER" - Full load outlet temperature indicates a possibility of frost/freeze error continues. Outlet air temperature statistics follow:
   *************  **   ~~~   **   This error occurred 24 total times;
   *************  **   ~~~   **   during Warmup 0 times;
   *************  **   ~~~   **   during Sizing 0 times.
   *************  **   ~~~   **   Max=1.989787  Min=-3.979755
   *************
   *************  ** Warning ** CalcDoe2DXCoil: Coil:Cooling:DX:SingleSpeed="COIL COOLING DX SINGLE SPEED 11 448KBTU/HR 8.21EER" - Full load outlet temperature indicates a possibility of frost/freeze error continues. Outlet air temperature statistics follow:
   *************  **   ~~~   **   This error occurred 71 total times;
   *************  **   ~~~   **   during Warmup 0 times;
   *************  **   ~~~   **   during Sizing 0 times.
   *************  **   ~~~   **   Max=1.981127  Min=-2.519957
   *************
   *************  ** Warning ** CalcDoe2DXCoil: Coil:Cooling:DX:SingleSpeed="COIL COOLING DX SINGLE SPEED 8 168KBTU/HR 9.7EER" - Full load outlet temperature indicates a possibility of frost/freeze error continues. Outlet air temperature statistics follow:
   *************  **   ~~~   **   This error occurred 542 total times;
   *************  **   ~~~   **   during Warmup 0 times;
   *************  **   ~~~   **   during Sizing 0 times.
   *************  **   ~~~   **   Max=1.996076  Min=-3.14674
   *************
   *************  ** Warning ** CalcDoe2DXCoil: Coil:Cooling:DX:SingleSpeed="COIL COOLING DX SINGLE SPEED 12 322KBTU/HR 8.21EER" - Full load outlet temperature indicates a possibility of frost/freeze error continues. Outlet air temperature statistics follow:
   *************  **   ~~~   **   This error occurred 151 total times;
   *************  **   ~~~   **   during Warmup 0 times;
   *************  **   ~~~   **   during Sizing 0 times.
   *************  **   ~~~   **   Max=1.955366  Min=-1.303063
   *************
   *************  ** Warning ** CalcDoe2DXCoil: Coil:Cooling:DX:SingleSpeed="COIL COOLING DX SINGLE SPEED 15 270KBTU/HR 8.21EER" - Full load outlet temperature indicates a possibility of frost/freeze error continues. Outlet air temperature statistics follow:
   *************  **   ~~~   **   This error occurred 370 total times;
   *************  **   ~~~   **   during Warmup 0 times;
   *************  **   ~~~   **   during Sizing 0 times.
   *************  **   ~~~   **   Max=1.992948  Min=-2.658398
   *************
   *************  ** Warning ** CalcDoe2DXCoil: Coil:Cooling:DX:SingleSpeed="COIL COOLING DX SINGLE SPEED 6 233KBTU/HR 9.7EER" - Full load outlet temperature indicates a possibility of frost/freeze error continues. Outlet air temperature statistics follow:
   *************  **   ~~~   **   This error occurred 57 total times;
   *************  **   ~~~   **   during Warmup 0 times;
   *************  **   ~~~   **   during Sizing 0 times.
   *************  **   ~~~   **   Max=1.997944  Min=1.539489
   *************
   *************  ** Warning ** CalcDoe2DXCoil: Coil:Cooling:DX:SingleSpeed="COIL COOLING DX SINGLE SPEED 2 140KBTU/HR 9.7EER" - Full load outlet temperature indicates a possibility of frost/freeze error continues. Outlet air temperature statistics follow:
   *************  **   ~~~   **   This error occurred 44 total times;
   *************  **   ~~~   **   during Warmup 0 times;
   *************  **   ~~~   **   during Sizing 0 times.
   *************  **   ~~~   **   Max=1.902636  Min=-1.375412
   *************
   *************  ** Warning ** CalcDoe2DXCoil: Coil:Cooling:DX:SingleSpeed="COIL COOLING DX SINGLE SPEED 10 448KBTU/HR 8.21EER" - Full load outlet temperature indicates a possibility of frost/freeze error continues. Outlet air temperature statistics follow:
   *************  **   ~~~   **   This error occurred 4 total times;
   *************  **   ~~~   **   during Warmup 0 times;
   *************  **   ~~~   **   during Sizing 0 times.
   *************  **   ~~~   **   Max=1.783073  Min=9.359102E-002
   *************
   *************  ** Warning ** CalcDoe2DXCoil: Coil:Cooling:DX:SingleSpeed="COIL COOLING DX SINGLE SPEED 5 364KBTU/HR 8.21EER" - Full load outlet temperature indicates a possibility of frost/freeze error continues. Outlet air temperature statistics follow:
   *************  **   ~~~   **   This error occurred 12 total times;
   *************  **   ~~~   **   during Warmup 0 times;
   *************  **   ~~~   **   during Sizing 0 times.
   *************  **   ~~~   **   Max=1.999311  Min=-1.22004
   *************
   *************  ** Warning ** CalcDoe2DXCoil: Coil:Cooling:DX:SingleSpeed="COIL COOLING DX SINGLE SPEED 1 362KBTU/HR 8.21EER" - Full load outlet temperature indicates a possibility of frost/freeze error continues. Outlet air temperature statistics follow:
   *************  **   ~~~   **   This error occurred 18 total times;
   *************  **   ~~~   **   during Warmup 0 times;
   *************  **   ~~~   **   during Sizing 0 times.
   *************  **   ~~~   **   Max=1.98568  Min=1.42023
   *************
   *************  ** Warning ** CalcDoe2DXCoil: Coil:Cooling:DX:SingleSpeed="COIL COOLING DX SINGLE SPEED 7 286KBTU/HR 8.21EER" - Full load outlet temperature indicates a possibility of frost/freeze error continues. Outlet air temperature statistics follow:
   *************  **   ~~~   **   This error occurred 8 total times;
   *************  **   ~~~   **   during Warmup 0 times;
   *************  **   ~~~   **   during Sizing 0 times.
   *************  **   ~~~   **   Max=1.909683  Min=0.392118
   *************
   *************  ** Warning ** CalcDoe2DXCoil: Coil:Cooling:DX:SingleSpeed="COIL COOLING DX SINGLE SPEED 9 448KBTU/HR 8.21EER" - Full load outlet temperature indicates a possibility of frost/freeze error continues. Outlet air temperature statistics follow:
   *************  **   ~~~   **   This error occurred 4 total times;
   *************  **   ~~~   **   during Warmup 0 times;
   *************  **   ~~~   **   during Sizing 0 times.
   *************  **   ~~~   **   Max=1.783073  Min=-0.518748
   *************
   *************  ** Warning ** SimHVAC: Exceeding Maximum iterations for all HVAC loops, during RUN PERIOD 1 continues
   *************  **   ~~~   **   This error occurred 6 total times;
   *************  **   ~~~   **   during Warmup 0 times;
   *************  **   ~~~   **   during Sizing 0 times.
   *************
   *************
   ************* ===== Final Error Summary =====
   ************* The following error categories occurred.  Consider correcting or noting.
   ************* Loads Initialization did not Converge
   ************* ..1) very high thermal mass such as very thick concrete (solution: increase max number of warmup
   ************* ..   days in the BUILDING object);
   ************* ..2) moderate mass and inadequate space conditioning such that the building keeps getting warmer
   ************* ..   and warmer on successive days (solution: add HVAC, check building thermal properties,
   ************* ..   check if infiltration is included, make sure HVAC properly controlled);
   ************* ..3) a soil layer modeled below the concrete slab - (solution remove this layer and read about
   ************* ..   ground temperatures in the Auxiliary Programs document).
   ************* ..4) unreasonable (too small) limits in the BUILDING object for temperature (.4 default) or
   ************* ..   loads tolerances (.04 default)
   ************* Nominally Unused Constructions
   ************* ..The nominally unused constructions warning is provided to alert you to potential conditions that can cause
   ************* ..extra time during simulation. Each construction is calculated by the algorithm indicated in the HeatBalanceAlgorithm
   ************* ..object. You may remove the constructions indicated (when you use the DisplayExtraWarnings option).
   *************
   ************* EnergyPlus Warmup Error Summary. During Warmup: 0 Warning; 2 Severe Errors.
   ************* EnergyPlus Sizing Error Summary. During Sizing: 163 Warning; 0 Severe Errors.
   ************* EnergyPlus Completed Successfully-- 683529 Warning; 13 Severe Errors; Elapsed Time=00hr 02min 40.79sec
