Program Version,EnergyPlus, Version 8.9.0-eba93e8e1b, YMD=2019.03.28 14:22
! This file shows details about the branches, nodes, and other
! elements of the flow connections.
! This file is intended for use in "debugging" potential problems
! that may also be detected by the program, but may be more easily
! identified by "eye".
! This file is also intended to support software which draws a
! schematic diagram of the HVAC system.
! ===============================================================
! #Nodes,<Number of Unique Nodes>
 #Nodes,429
! <Node>,<NodeNumber>,<Node Name>,<Node Fluid Type>,<# Times Node Referenced After Definition>
 Node,1,NODE 294,Air,4
 Node,2,NODE 273,Air,4
 Node,3,NODE 154,Air,4
 Node,4,NODE 38,Air,4
 Node,5,NODE 313,Air,4
 Node,6,NODE 320,Air,4
 Node,7,NODE 246,Air,4
 Node,8,NODE 193,Air,4
 Node,9,NODE 264,Air,4
 Node,10,NODE 50,Air,4
 Node,11,NODE 89,Air,4
 Node,12,NODE 167,Air,4
 Node,13,NODE 63,Air,4
 Node,14,NODE 206,Air,4
 Node,15,NODE 180,Air,4
 Node,16,NODE 102,Air,4
 Node,17,NODE 115,Air,4
 Node,18,NODE 128,Air,4
 Node,19,NODE 141,Air,4
 Node,20,NODE 76,Air,4
 Node,21,NODE 151,Air,10
 Node,22,NODE 152,Air,3
 Node,23,NODE 35,Air,10
 Node,24,NODE 36,Air,3
 Node,25,NODE 190,Air,10
 Node,26,NODE 191,Air,3
 Node,27,NODE 47,Air,10
 Node,28,NODE 48,Air,3
 Node,29,NODE 86,Air,10
 Node,30,NODE 87,Air,3
 Node,31,NODE 164,Air,10
 Node,32,NODE 165,Air,3
 Node,33,NODE 60,Air,10
 Node,34,NODE 61,Air,3
 Node,35,NODE 203,Air,10
 Node,36,NODE 204,Air,3
 Node,37,NODE 177,Air,10
 Node,38,NODE 178,Air,3
 Node,39,NODE 99,Air,10
 Node,40,NODE 100,Air,3
 Node,41,NODE 112,Air,10
 Node,42,NODE 113,Air,3
 Node,43,NODE 125,Air,10
 Node,44,NODE 126,Air,3
 Node,45,NODE 138,Air,10
 Node,46,NODE 139,Air,3
 Node,47,NODE 73,Air,10
 Node,48,NODE 74,Air,3
 Node,49,NODE 243,Air,12
 Node,50,NODE 244,Air,3
 Node,51,NODE 270,Air,12
 Node,52,NODE 271,Air,3
 Node,53,NODE 291,Air,12
 Node,54,NODE 292,Air,3
 Node,55,NODE 150,Air,4
 Node,56,NODE 159,Air,8
 Node,57,NODE 158,Air,6
 Node,58,NODE 157,Air,8
 Node,59,NODE 34,Air,4
 Node,60,NODE 43,Air,8
 Node,61,NODE 42,Air,6
 Node,62,NODE 41,Air,8
 Node,63,NODE 189,Air,4
 Node,64,NODE 198,Air,8
 Node,65,NODE 197,Air,6
 Node,66,NODE 196,Air,8
 Node,67,NODE 46,Air,4
 Node,68,NODE 55,Air,8
 Node,69,NODE 54,Air,6
 Node,70,NODE 53,Air,8
 Node,71,NODE 85,Air,4
 Node,72,NODE 94,Air,8
 Node,73,NODE 93,Air,6
 Node,74,NODE 92,Air,8
 Node,75,NODE 163,Air,4
 Node,76,NODE 172,Air,8
 Node,77,NODE 171,Air,6
 Node,78,NODE 170,Air,8
 Node,79,NODE 59,Air,4
 Node,80,NODE 68,Air,8
 Node,81,NODE 67,Air,6
 Node,82,NODE 66,Air,8
 Node,83,NODE 202,Air,4
 Node,84,NODE 211,Air,8
 Node,85,NODE 210,Air,6
 Node,86,NODE 209,Air,8
 Node,87,NODE 176,Air,4
 Node,88,NODE 185,Air,8
 Node,89,NODE 184,Air,6
 Node,90,NODE 183,Air,8
 Node,91,NODE 98,Air,4
 Node,92,NODE 107,Air,8
 Node,93,NODE 106,Air,6
 Node,94,NODE 105,Air,8
 Node,95,NODE 111,Air,4
 Node,96,NODE 120,Air,8
 Node,97,NODE 119,Air,6
 Node,98,NODE 118,Air,8
 Node,99,NODE 124,Air,4
 Node,100,NODE 133,Air,8
 Node,101,NODE 132,Air,6
 Node,102,NODE 131,Air,8
 Node,103,NODE 137,Air,4
 Node,104,NODE 146,Air,8
 Node,105,NODE 145,Air,6
 Node,106,NODE 144,Air,8
 Node,107,NODE 72,Air,4
 Node,108,NODE 81,Air,8
 Node,109,NODE 80,Air,6
 Node,110,NODE 79,Air,8
 Node,111,NODE 242,Air,2
 Node,112,NODE 255,Air,6
 Node,113,NODE 254,Air,7
 Node,114,NODE 253,Air,5
 Node,115,NODE 252,Air,9
 Node,116,NODE 269,Air,2
 Node,117,NODE 283,Air,6
 Node,118,NODE 282,Air,7
 Node,119,NODE 281,Air,5
 Node,120,NODE 280,Air,9
 Node,121,NODE 290,Air,2
 Node,122,NODE 304,Air,6
 Node,123,NODE 303,Air,7
 Node,124,NODE 302,Air,5
 Node,125,NODE 301,Air,9
 Node,126,NODE 215,Water,2
 Node,127,NODE 221,Water,1
 Node,128,NODE 217,Water,1
 Node,129,NODE 222,Water,1
 Node,130,NODE 223,Water,1
 Node,131,NODE 224,Water,1
 Node,132,NODE 225,Water,1
 Node,133,NODE 226,Water,1
 Node,134,NODE 227,Water,1
 Node,135,NODE 216,Water,4
 Node,136,NODE 218,Water,2
 Node,137,CHILLED WATER LOOP DEMAND INLET PIPE NODE,Water,1
 Node,138,NODE 220,Water,2
 Node,139,NODE 249,Water,1
 Node,140,NODE 276,Water,2
 Node,141,NODE 277,Water,1
 Node,142,NODE 297,Water,2
 Node,143,NODE 298,Water,1
 Node,144,CHILLED WATER LOOP DEMAND BYPASS PIPE INLET NODE,Water,1
 Node,145,CHILLED WATER LOOP DEMAND BYPASS PIPE OUTLET NODE,Water,1
 Node,146,CHILLED WATER LOOP DEMAND OUTLET PIPE NODE,Water,1
 Node,147,NODE 219,Water,2
 Node,148,NODE 228,Water,2
 Node,149,NODE 234,Water,1
 Node,150,NODE 230,Water,1
 Node,151,NODE 235,Water,1
 Node,152,NODE 236,Water,1
 Node,153,NODE 237,Water,1
 Node,154,NODE 238,Water,1
 Node,155,NODE 229,Water,4
 Node,156,NODE 231,Water,2
 Node,157,CONDENSER WATER LOOP DEMAND INLET PIPE NODE,Water,1
 Node,158,NODE 233,Water,1
 Node,159,NODE 239,Water,1
 Node,160,NODE 240,Water,1
 Node,161,NODE 241,Water,1
 Node,162,CONDENSER WATER LOOP DEMAND BYPASS PIPE INLET NODE,Water,1
 Node,163,CONDENSER WATER LOOP DEMAND BYPASS PIPE OUTLET NODE,Water,1
 Node,164,CONDENSER WATER LOOP DEMAND OUTLET PIPE NODE,Water,1
 Node,165,NODE 232,Water,2
 Node,166,NODE 21,Water,2
 Node,167,NODE 27,Water,1
 Node,168,NODE 23,Water,1
 Node,169,NODE 28,Water,1
 Node,170,NODE 29,Water,1
 Node,171,NODE 30,Water,1
 Node,172,NODE 31,Water,1
 Node,173,NODE 32,Water,1
 Node,174,NODE 33,Water,1
 Node,175,NODE 22,Water,4
 Node,176,NODE 24,Water,2
 Node,177,HOT WATER LOOP DEMAND INLET PIPE NODE,Water,1
 Node,178,NODE 26,Water,1
 Node,179,NODE 45,Water,1
 Node,180,NODE 57,Water,1
 Node,181,NODE 58,Water,1
 Node,182,NODE 70,Water,1
 Node,183,NODE 71,Water,1
 Node,184,NODE 83,Water,1
 Node,185,NODE 84,Water,1
 Node,186,NODE 96,Water,1
 Node,187,NODE 97,Water,1
 Node,188,NODE 109,Water,1
 Node,189,NODE 110,Water,1
 Node,190,NODE 122,Water,1
 Node,191,NODE 123,Water,1
 Node,192,NODE 135,Water,1
 Node,193,NODE 136,Water,1
 Node,194,NODE 148,Water,1
 Node,195,NODE 149,Water,1
 Node,196,NODE 161,Water,1
 Node,197,NODE 162,Water,1
 Node,198,NODE 174,Water,1
 Node,199,NODE 175,Water,1
 Node,200,NODE 187,Water,1
 Node,201,NODE 188,Water,1
 Node,202,NODE 200,Water,1
 Node,203,NODE 201,Water,1
 Node,204,NODE 213,Water,1
 Node,205,NODE 214,Water,1
 Node,206,NODE 247,Water,2
 Node,207,NODE 248,Water,1
 Node,208,NODE 256,Water,1
 Node,209,NODE 257,Water,1
 Node,210,NODE 260,Water,1
 Node,211,NODE 261,Water,1
 Node,212,NODE 262,Water,1
 Node,213,NODE 263,Water,1
 Node,214,NODE 267,Water,1
 Node,215,NODE 268,Water,1
 Node,216,NODE 274,Water,2
 Node,217,NODE 275,Water,1
 Node,218,NODE 284,Water,1
 Node,219,NODE 285,Water,1
 Node,220,NODE 288,Water,1
 Node,221,NODE 289,Water,1
 Node,222,NODE 295,Water,2
 Node,223,NODE 296,Water,1
 Node,224,NODE 305,Water,1
 Node,225,NODE 306,Water,1
 Node,226,NODE 309,Water,1
 Node,227,NODE 310,Water,1
 Node,228,NODE 311,Water,1
 Node,229,NODE 312,Water,1
 Node,230,NODE 316,Water,1
 Node,231,NODE 317,Water,1
 Node,232,NODE 318,Water,1
 Node,233,NODE 319,Water,1
 Node,234,NODE 323,Water,1
 Node,235,NODE 324,Water,1
 Node,236,HOT WATER LOOP DEMAND BYPASS PIPE INLET NODE,Water,1
 Node,237,HOT WATER LOOP DEMAND BYPASS PIPE OUTLET NODE,Water,1
 Node,238,HOT WATER LOOP DEMAND OUTLET PIPE NODE,Water,1
 Node,239,NODE 25,Water,2
 Node,240,NODE 325,Water,2
 Node,241,NODE 331,Water,1
 Node,242,NODE 327,Water,1
 Node,243,NODE 332,Water,1
 Node,244,NODE 333,Water,1
 Node,245,NODE 334,Water,1
 Node,246,NODE 336,Water,1
 Node,247,NODE 326,Water,4
 Node,248,NODE 328,Water,2
 Node,249,NODE 337,Water,1
 Node,250,NODE 330,Water,1
 Node,251,NODE 335,Water,1
 Node,252,NODE 339,Water,1
 Node,253,NODE 340,Water,1
 Node,254,NODE 341,Water,1
 Node,255,NODE 342,Water,1
 Node,256,NODE 343,Water,1
 Node,257,NODE 344,Water,1
 Node,258,NODE 345,Water,1
 Node,259,NODE 346,Water,1
 Node,260,NODE 347,Water,1
 Node,261,NODE 348,Water,1
 Node,262,NODE 349,Water,1
 Node,263,NODE 350,Water,1
 Node,264,NODE 351,Water,1
 Node,265,NODE 352,Water,1
 Node,266,NODE 353,Water,1
 Node,267,NODE 354,Water,1
 Node,268,NODE 355,Water,1
 Node,269,NODE 356,Water,1
 Node,270,NODE 357,Water,1
 Node,271,NODE 358,Water,1
 Node,272,NODE 359,Water,1
 Node,273,NODE 360,Water,1
 Node,274,NODE 361,Water,1
 Node,275,NODE 362,Water,1
 Node,276,NODE 363,Water,1
 Node,277,NODE 364,Water,1
 Node,278,NODE 365,Water,1
 Node,279,NODE 366,Water,1
 Node,280,NODE 367,Water,1
 Node,281,NODE 368,Water,1
 Node,282,NODE 369,Water,1
 Node,283,NODE 370,Water,1
 Node,284,NODE 371,Water,1
 Node,285,NODE 372,Water,1
 Node,286,NODE 373,Water,1
 Node,287,NODE 374,Water,1
 Node,288,MAIN SERVICE WATER LOOP DEMAND BYPASS PIPE INLET NODE,Water,1
 Node,289,MAIN SERVICE WATER LOOP DEMAND BYPASS PIPE OUTLET NODE,Water,1
 Node,290,NODE 338,Water,1
 Node,291,NODE 329,Water,2
 Node,292,NODE 18,Air,0
 Node,293,NODE 307,Air,1
 Node,294,NODE 17,Air,0
 Node,295,NODE 286,Air,1
 Node,296,NODE 10,Air,1
 Node,297,NODE 160,Air,1
 Node,298,NODE 1,Air,1
 Node,299,NODE 44,Air,1
 Node,300,NODE 20,Air,0
 Node,301,NODE 314,Air,1
 Node,302,NODE 19,Air,0
 Node,303,NODE 321,Air,1
 Node,304,NODE 15,Air,0
 Node,305,NODE 258,Air,1
 Node,306,NODE 13,Air,1
 Node,307,NODE 199,Air,1
 Node,308,NODE 16,Air,0
 Node,309,NODE 265,Air,1
 Node,310,NODE 2,Air,1
 Node,311,NODE 56,Air,1
 Node,312,NODE 5,Air,1
 Node,313,NODE 95,Air,1
 Node,314,NODE 11,Air,1
 Node,315,NODE 173,Air,1
 Node,316,NODE 3,Air,1
 Node,317,NODE 69,Air,1
 Node,318,NODE 14,Air,1
 Node,319,NODE 212,Air,1
 Node,320,NODE 12,Air,1
 Node,321,NODE 186,Air,1
 Node,322,NODE 6,Air,1
 Node,323,NODE 108,Air,1
 Node,324,NODE 7,Air,1
 Node,325,NODE 121,Air,1
 Node,326,NODE 8,Air,1
 Node,327,NODE 134,Air,1
 Node,328,NODE 9,Air,1
 Node,329,NODE 147,Air,1
 Node,330,NODE 4,Air,1
 Node,331,NODE 82,Air,1
 Node,332,NODE 153,Air,2
 Node,333,NODE 37,Air,2
 Node,334,NODE 192,Air,2
 Node,335,NODE 49,Air,2
 Node,336,NODE 88,Air,2
 Node,337,NODE 166,Air,2
 Node,338,NODE 62,Air,2
 Node,339,NODE 205,Air,2
 Node,340,NODE 179,Air,2
 Node,341,NODE 101,Air,2
 Node,342,NODE 114,Air,2
 Node,343,NODE 127,Air,2
 Node,344,NODE 140,Air,2
 Node,345,NODE 75,Air,2
 Node,346,NODE 245,Air,2
 Node,347,NODE 272,Air,2
 Node,348,NODE 293,Air,2
 Node,349,NODE 155,Air,3
 Node,350,NODE 39,Air,3
 Node,351,NODE 194,Air,3
 Node,352,NODE 51,Air,3
 Node,353,NODE 90,Air,3
 Node,354,NODE 168,Air,3
 Node,355,NODE 64,Air,3
 Node,356,NODE 207,Air,3
 Node,357,NODE 181,Air,3
 Node,358,NODE 103,Air,3
 Node,359,NODE 116,Air,3
 Node,360,NODE 129,Air,3
 Node,361,NODE 142,Air,3
 Node,362,NODE 77,Air,3
 Node,363,NODE 250,Air,3
 Node,364,NODE 278,Air,3
 Node,365,NODE 299,Air,3
 Node,366,MODEL OUTDOOR AIR NODE,Air,0
 Node,367,NODE 376,Air,2
 Node,368,NODE 378,Air,2
 Node,369,NODE 380,Air,2
 Node,370,NODE 382,Air,2
 Node,371,NODE 384,Air,2
 Node,372,NODE 386,Air,2
 Node,373,NODE 388,Air,2
 Node,374,NODE 390,Air,2
 Node,375,NODE 392,Air,2
 Node,376,NODE 394,Air,2
 Node,377,NODE 396,Air,2
 Node,378,NODE 398,Air,2
 Node,379,NODE 400,Air,2
 Node,380,NODE 402,Air,2
 Node,381,NODE 404,Air,2
 Node,382,NODE 406,Air,2
 Node,383,NODE 408,Air,2
 Node,384,NODE 259,Air,1
 Node,385,NODE 266,Air,1
 Node,386,NODE 287,Air,1
 Node,387,NODE 308,Air,1
 Node,388,NODE 315,Air,1
 Node,389,NODE 322,Air,1
 Node,390,AIR TERMINAL SINGLE DUCT VAV REHEAT 4 DAMPER OUTLET,Air,1
 Node,391,AIR TERMINAL SINGLE DUCT VAV REHEAT 3 DAMPER OUTLET,Air,1
 Node,392,AIR TERMINAL SINGLE DUCT VAV REHEAT 5 DAMPER OUTLET,Air,1
 Node,393,AIR TERMINAL SINGLE DUCT VAV REHEAT 6 DAMPER OUTLET,Air,1
 Node,394,AIR TERMINAL SINGLE DUCT VAV REHEAT 1 DAMPER OUTLET,Air,1
 Node,395,AIR TERMINAL SINGLE DUCT VAV REHEAT 2 DAMPER OUTLET,Air,1
 Node,396,NODE 377,Air,2
 Node,397,NODE 379,Air,2
 Node,398,NODE 381,Air,2
 Node,399,NODE 383,Air,2
 Node,400,NODE 385,Air,2
 Node,401,NODE 387,Air,2
 Node,402,NODE 389,Air,2
 Node,403,NODE 391,Air,2
 Node,404,NODE 393,Air,2
 Node,405,NODE 395,Air,2
 Node,406,NODE 397,Air,2
 Node,407,NODE 399,Air,2
 Node,408,NODE 401,Air,2
 Node,409,NODE 403,Air,2
 Node,410,NODE 405,Air,2
 Node,411,NODE 407,Air,2
 Node,412,NODE 409,Air,2
 Node,413,NODE 156,Air,0
 Node,414,NODE 40,Air,0
 Node,415,NODE 195,Air,0
 Node,416,NODE 52,Air,0
 Node,417,NODE 91,Air,0
 Node,418,NODE 169,Air,0
 Node,419,NODE 65,Air,0
 Node,420,NODE 208,Air,0
 Node,421,NODE 182,Air,0
 Node,422,NODE 104,Air,0
 Node,423,NODE 117,Air,0
 Node,424,NODE 130,Air,0
 Node,425,NODE 143,Air,0
 Node,426,NODE 78,Air,0
 Node,427,NODE 251,Air,0
 Node,428,NODE 279,Air,0
 Node,429,NODE 300,Air,0
! ===============================================================
! Suspicious nodes have 0 references.  It is normal for some nodes, however.
! Listing nodes with 0 references (culled from previous list):
! <Suspicious Node>,<NodeNumber>,<Node Name>,<Node Fluid Type>,<# Times Node Referenced After Definition>
 Suspicious Node,292,NODE 18,Air,0
 Suspicious Node,294,NODE 17,Air,0
 Suspicious Node,300,NODE 20,Air,0
 Suspicious Node,302,NODE 19,Air,0
 Suspicious Node,304,NODE 15,Air,0
 Suspicious Node,308,NODE 16,Air,0
 Suspicious Node,366,MODEL OUTDOOR AIR NODE,Air,0
 Suspicious Node,413,NODE 156,Air,0
 Suspicious Node,414,NODE 40,Air,0
 Suspicious Node,415,NODE 195,Air,0
 Suspicious Node,416,NODE 52,Air,0
 Suspicious Node,417,NODE 91,Air,0
 Suspicious Node,418,NODE 169,Air,0
 Suspicious Node,419,NODE 65,Air,0
 Suspicious Node,420,NODE 208,Air,0
 Suspicious Node,421,NODE 182,Air,0
 Suspicious Node,422,NODE 104,Air,0
 Suspicious Node,423,NODE 117,Air,0
 Suspicious Node,424,NODE 130,Air,0
 Suspicious Node,425,NODE 143,Air,0
 Suspicious Node,426,NODE 78,Air,0
 Suspicious Node,427,NODE 251,Air,0
 Suspicious Node,428,NODE 279,Air,0
 Suspicious Node,429,NODE 300,Air,0
! ===============================================================
! <#Branch Lists>,<Number of Branch Lists>
 #Branch Lists,25
! <Branch List>,<Branch List Count>,<Branch List Name>,<Loop Name>,<Loop Type>,<Number of Branches>
! <Branch>,<Branch Count>,<Branch Name>,<Loop Name>,<Loop Type>,<Branch Inlet Node Name>,<Branch Outlet Node Name>
 Branch List,1,SYS_3_PSZ SP-LOUNGE/BREAK ROOM - HEALTH CARE FACILITY-SPACE FUNCTION SYS-3 FLR-3 SCH-B HPLCMT-SOUTH ZN SUPPLY BRANCHES,SYS_3_PSZ SP-LOUNGE/BREAK ROOM - HEALTH CARE FACILITY-SPACE FUNCTION SYS-3 FLR-3 SCH-B HPLCMT-SOUTH ZN,Air,1
   Branch,1,SYS_3_PSZ SP-LOUNGE/BREAK ROOM - HEALTH CARE FACILITY-SPACE FUNCTION SYS-3 FLR-3 SCH-B HPLCMT-SOUTH ZN MAIN BRANCH,SYS_3_PSZ SP-LOUNGE/BREAK ROOM - HEALTH CARE FACILITY-SPACE FUNCTION SYS-3 FLR-3 SCH-B HPLCMT-SOUTH ZN,Air,NODE 150,NODE 151
 Branch List,2,SYS_3_PSZ SP-LOUNGE/BREAK ROOM - OTHER-SPACE FUNCTION SYS-3 FLR-1 SCH-B HPLCMT-WEST ZN SUPPLY BRANCHES,SYS_3_PSZ SP-LOUNGE/BREAK ROOM - OTHER-SPACE FUNCTION SYS-3 FLR-1 SCH-B HPLCMT-WEST ZN,Air,1
   Branch,1,SYS_3_PSZ SP-LOUNGE/BREAK ROOM - OTHER-SPACE FUNCTION SYS-3 FLR-1 SCH-B HPLCMT-WEST ZN MAIN BRANCH,SYS_3_PSZ SP-LOUNGE/BREAK ROOM - OTHER-SPACE FUNCTION SYS-3 FLR-1 SCH-B HPLCMT-WEST ZN,Air,NODE 34,NODE 35
 Branch List,3,SYS_3_PSZ SP-PHARMACY AREA-SPACE FUNCTION SYS-3 FLR-4 SCH-C HPLCMT-SOUTH ZN SUPPLY BRANCHES,SYS_3_PSZ SP-PHARMACY AREA-SPACE FUNCTION SYS-3 FLR-4 SCH-C HPLCMT-SOUTH ZN,Air,1
   Branch,1,SYS_3_PSZ SP-PHARMACY AREA-SPACE FUNCTION SYS-3 FLR-4 SCH-C HPLCMT-SOUTH ZN MAIN BRANCH,SYS_3_PSZ SP-PHARMACY AREA-SPACE FUNCTION SYS-3 FLR-4 SCH-C HPLCMT-SOUTH ZN,Air,NODE 189,NODE 190
 Branch List,4,SYS_3_PSZ SP-SEATING AREA GENERAL-SCH-A-SPACE FUNCTION SYS-3 FLR-1 SCH-A HPLCMT-CORE ZN SUPPLY BRANCHES,SYS_3_PSZ SP-SEATING AREA GENERAL-SCH-A-SPACE FUNCTION SYS-3 FLR-1 SCH-A HPLCMT-CORE ZN,Air,1
   Branch,1,SYS_3_PSZ SP-SEATING AREA GENERAL-SCH-A-SPACE FUNCTION SYS-3 FLR-1 SCH-A HPLCMT-CORE ZN MAIN BRANCH,SYS_3_PSZ SP-SEATING AREA GENERAL-SCH-A-SPACE FUNCTION SYS-3 FLR-1 SCH-A HPLCMT-CORE ZN,Air,NODE 46,NODE 47
 Branch List,5,SYS_3_PSZ SP-SEATING AREA GENERAL-SCH-B-SPACE FUNCTION SYS-3 FLR-2 SCH-B HPLCMT-CORE ZN SUPPLY BRANCHES,SYS_3_PSZ SP-SEATING AREA GENERAL-SCH-B-SPACE FUNCTION SYS-3 FLR-2 SCH-B HPLCMT-CORE ZN,Air,1
   Branch,1,SYS_3_PSZ SP-SEATING AREA GENERAL-SCH-B-SPACE FUNCTION SYS-3 FLR-2 SCH-B HPLCMT-CORE ZN MAIN BRANCH,SYS_3_PSZ SP-SEATING AREA GENERAL-SCH-B-SPACE FUNCTION SYS-3 FLR-2 SCH-B HPLCMT-CORE ZN,Air,NODE 85,NODE 86
 Branch List,6,SYS_3_PSZ SP-SEATING AREA GENERAL-SCH-C-SPACE FUNCTION SYS-3 FLR-3 SCH-C HPLCMT-EAST ZN SUPPLY BRANCHES,SYS_3_PSZ SP-SEATING AREA GENERAL-SCH-C-SPACE FUNCTION SYS-3 FLR-3 SCH-C HPLCMT-EAST ZN,Air,1
   Branch,1,SYS_3_PSZ SP-SEATING AREA GENERAL-SCH-C-SPACE FUNCTION SYS-3 FLR-3 SCH-C HPLCMT-EAST ZN MAIN BRANCH,SYS_3_PSZ SP-SEATING AREA GENERAL-SCH-C-SPACE FUNCTION SYS-3 FLR-3 SCH-C HPLCMT-EAST ZN,Air,NODE 163,NODE 164
 Branch List,7,SYS_3_PSZ SP-SEATING AREA GENERAL-SCH-D-SPACE FUNCTION SYS-3 FLR-1 SCH-D HPLCMT-EAST ZN SUPPLY BRANCHES,SYS_3_PSZ SP-SEATING AREA GENERAL-SCH-D-SPACE FUNCTION SYS-3 FLR-1 SCH-D HPLCMT-EAST ZN,Air,1
   Branch,1,SYS_3_PSZ SP-SEATING AREA GENERAL-SCH-D-SPACE FUNCTION SYS-3 FLR-1 SCH-D HPLCMT-EAST ZN MAIN BRANCH,SYS_3_PSZ SP-SEATING AREA GENERAL-SCH-D-SPACE FUNCTION SYS-3 FLR-1 SCH-D HPLCMT-EAST ZN,Air,NODE 59,NODE 60
 Branch List,8,SYS_3_PSZ SP-SEATING AREA GENERAL-SCH-E-SPACE FUNCTION SYS-3 FLR-4 SCH-E HPLCMT-WEST ZN SUPPLY BRANCHES,SYS_3_PSZ SP-SEATING AREA GENERAL-SCH-E-SPACE FUNCTION SYS-3 FLR-4 SCH-E HPLCMT-WEST ZN,Air,1
   Branch,1,SYS_3_PSZ SP-SEATING AREA GENERAL-SCH-E-SPACE FUNCTION SYS-3 FLR-4 SCH-E HPLCMT-WEST ZN MAIN BRANCH,SYS_3_PSZ SP-SEATING AREA GENERAL-SCH-E-SPACE FUNCTION SYS-3 FLR-4 SCH-E HPLCMT-WEST ZN,Air,NODE 202,NODE 203
 Branch List,9,SYS_3_PSZ SP-SEATING AREA GENERAL-SCH-F-SPACE FUNCTION SYS-3 FLR-3 SCH-F HPLCMT-WEST ZN SUPPLY BRANCHES,SYS_3_PSZ SP-SEATING AREA GENERAL-SCH-F-SPACE FUNCTION SYS-3 FLR-3 SCH-F HPLCMT-WEST ZN,Air,1
   Branch,1,SYS_3_PSZ SP-SEATING AREA GENERAL-SCH-F-SPACE FUNCTION SYS-3 FLR-3 SCH-F HPLCMT-WEST ZN MAIN BRANCH,SYS_3_PSZ SP-SEATING AREA GENERAL-SCH-F-SPACE FUNCTION SYS-3 FLR-3 SCH-F HPLCMT-WEST ZN,Air,NODE 176,NODE 177
 Branch List,10,SYS_3_PSZ SP-SEATING AREA GENERAL-SCH-G-SPACE FUNCTION SYS-3 FLR-2 SCH-G HPLCMT-NORTH ZN SUPPLY BRANCHES,SYS_3_PSZ SP-SEATING AREA GENERAL-SCH-G-SPACE FUNCTION SYS-3 FLR-2 SCH-G HPLCMT-NORTH ZN,Air,1
   Branch,1,SYS_3_PSZ SP-SEATING AREA GENERAL-SCH-G-SPACE FUNCTION SYS-3 FLR-2 SCH-G HPLCMT-NORTH ZN MAIN BRANCH,SYS_3_PSZ SP-SEATING AREA GENERAL-SCH-G-SPACE FUNCTION SYS-3 FLR-2 SCH-G HPLCMT-NORTH ZN,Air,NODE 98,NODE 99
 Branch List,11,SYS_3_PSZ SP-SEATING AREA GENERAL-SCH-H-SPACE FUNCTION SYS-3 FLR-2 SCH-H HPLCMT-WEST ZN SUPPLY BRANCHES,SYS_3_PSZ SP-SEATING AREA GENERAL-SCH-H-SPACE FUNCTION SYS-3 FLR-2 SCH-H HPLCMT-WEST ZN,Air,1
   Branch,1,SYS_3_PSZ SP-SEATING AREA GENERAL-SCH-H-SPACE FUNCTION SYS-3 FLR-2 SCH-H HPLCMT-WEST ZN MAIN BRANCH,SYS_3_PSZ SP-SEATING AREA GENERAL-SCH-H-SPACE FUNCTION SYS-3 FLR-2 SCH-H HPLCMT-WEST ZN,Air,NODE 111,NODE 112
 Branch List,12,SYS_3_PSZ SP-SEATING AREA GENERAL-SCH-I-SPACE FUNCTION SYS-3 FLR-2 SCH-I HPLCMT-EAST ZN SUPPLY BRANCHES,SYS_3_PSZ SP-SEATING AREA GENERAL-SCH-I-SPACE FUNCTION SYS-3 FLR-2 SCH-I HPLCMT-EAST ZN,Air,1
   Branch,1,SYS_3_PSZ SP-SEATING AREA GENERAL-SCH-I-SPACE FUNCTION SYS-3 FLR-2 SCH-I HPLCMT-EAST ZN MAIN BRANCH,SYS_3_PSZ SP-SEATING AREA GENERAL-SCH-I-SPACE FUNCTION SYS-3 FLR-2 SCH-I HPLCMT-EAST ZN,Air,NODE 124,NODE 125
 Branch List,13,SYS_3_PSZ SP-SEATING AREA GENERAL-SCH-J-SPACE FUNCTION SYS-3 FLR-3 SCH-J HPLCMT-NORTH ZN SUPPLY BRANCHES,SYS_3_PSZ SP-SEATING AREA GENERAL-SCH-J-SPACE FUNCTION SYS-3 FLR-3 SCH-J HPLCMT-NORTH ZN,Air,1
   Branch,1,SYS_3_PSZ SP-SEATING AREA GENERAL-SCH-J-SPACE FUNCTION SYS-3 FLR-3 SCH-J HPLCMT-NORTH ZN MAIN BRANCH,SYS_3_PSZ SP-SEATING AREA GENERAL-SCH-J-SPACE FUNCTION SYS-3 FLR-3 SCH-J HPLCMT-NORTH ZN,Air,NODE 137,NODE 138
 Branch List,14,SYS_3_PSZ SP-SEATING AREA GENERAL-SCH-K-SPACE FUNCTION SYS-3 FLR-2 SCH-K HPLCMT-SOUTH ZN SUPPLY BRANCHES,SYS_3_PSZ SP-SEATING AREA GENERAL-SCH-K-SPACE FUNCTION SYS-3 FLR-2 SCH-K HPLCMT-SOUTH ZN,Air,1
   Branch,1,SYS_3_PSZ SP-SEATING AREA GENERAL-SCH-K-SPACE FUNCTION SYS-3 FLR-2 SCH-K HPLCMT-SOUTH ZN MAIN BRANCH,SYS_3_PSZ SP-SEATING AREA GENERAL-SCH-K-SPACE FUNCTION SYS-3 FLR-2 SCH-K HPLCMT-SOUTH ZN,Air,NODE 72,NODE 73
 Branch List,15,SYS_6_VAV WITH REHEAT SUPPLY BRANCHES,SYS_6_VAV WITH REHEAT,Air,1
   Branch,1,SYS_6_VAV WITH REHEAT MAIN BRANCH,SYS_6_VAV WITH REHEAT,Air,NODE 242,NODE 243
 Branch List,16,SYS_6_VAV WITH REHEAT 1 SUPPLY BRANCHES,SYS_6_VAV WITH REHEAT 1,Air,1
   Branch,1,SYS_6_VAV WITH REHEAT 1 MAIN BRANCH,SYS_6_VAV WITH REHEAT 1,Air,NODE 269,NODE 270
 Branch List,17,SYS_6_VAV WITH REHEAT 2 SUPPLY BRANCHES,SYS_6_VAV WITH REHEAT 2,Air,1
   Branch,1,SYS_6_VAV WITH REHEAT 2 MAIN BRANCH,SYS_6_VAV WITH REHEAT 2,Air,NODE 290,NODE 291
 Branch List,18,CHILLED WATER LOOP SUPPLY BRANCHES,CHILLED WATER LOOP,Plant Supply,5
   Branch,1,CHILLED WATER LOOP SUPPLY INLET BRANCH,CHILLED WATER LOOP,Plant Supply,NODE 215,NODE 221
   Branch,2,CHILLED WATER LOOP SUPPLY BRANCH 1,CHILLED WATER LOOP,Plant Supply,NODE 217,NODE 222
   Branch,3,CHILLED WATER LOOP SUPPLY BRANCH 2,CHILLED WATER LOOP,Plant Supply,NODE 223,NODE 224
   Branch,4,CHILLED WATER LOOP SUPPLY BRANCH 3,CHILLED WATER LOOP,Plant Supply,NODE 225,NODE 226
   Branch,5,CHILLED WATER LOOP SUPPLY OUTLET BRANCH,CHILLED WATER LOOP,Plant Supply,NODE 227,NODE 216
 Branch List,19,CHILLED WATER LOOP DEMAND BRANCHES,CHILLED WATER LOOP,Plant Demand,6
   Branch,1,CHILLED WATER LOOP DEMAND INLET BRANCH,CHILLED WATER LOOP,Plant Demand,NODE 218,CHILLED WATER LOOP DEMAND INLET PIPE NODE
   Branch,2,CHILLED WATER LOOP DEMAND BRANCH 1,CHILLED WATER LOOP,Plant Demand,NODE 220,NODE 249
   Branch,3,CHILLED WATER LOOP DEMAND BRANCH 2,CHILLED WATER LOOP,Plant Demand,NODE 276,NODE 277
   Branch,4,CHILLED WATER LOOP DEMAND BRANCH 3,CHILLED WATER LOOP,Plant Demand,NODE 297,NODE 298
   Branch,5,CHILLED WATER LOOP DEMAND BYPASS BRANCH,CHILLED WATER LOOP,Plant Demand,CHILLED WATER LOOP DEMAND BYPASS PIPE INLET NODE,CHILLED WATER LOOP DEMAND BYPASS PIPE OUTLET NODE
   Branch,6,CHILLED WATER LOOP DEMAND OUTLET BRANCH,CHILLED WATER LOOP,Plant Demand,CHILLED WATER LOOP DEMAND OUTLET PIPE NODE,NODE 219
 Branch List,20,CONDENSER WATER LOOP SUPPLY BRANCHES,CONDENSER WATER LOOP,Plant Supply,4
   Branch,1,CONDENSER WATER LOOP SUPPLY INLET BRANCH,CONDENSER WATER LOOP,Plant Supply,NODE 228,NODE 234
   Branch,2,CONDENSER WATER LOOP SUPPLY BRANCH 1,CONDENSER WATER LOOP,Plant Supply,NODE 230,NODE 235
   Branch,3,CONDENSER WATER LOOP SUPPLY BRANCH 2,CONDENSER WATER LOOP,Plant Supply,NODE 236,NODE 237
   Branch,4,CONDENSER WATER LOOP SUPPLY OUTLET BRANCH,CONDENSER WATER LOOP,Plant Supply,NODE 238,NODE 229
 Branch List,21,CONDENSER WATER LOOP DEMAND BRANCHES,CONDENSER WATER LOOP,Plant Demand,5
   Branch,1,CONDENSER WATER LOOP DEMAND INLET BRANCH,CONDENSER WATER LOOP,Plant Demand,NODE 231,CONDENSER WATER LOOP DEMAND INLET PIPE NODE
   Branch,2,CONDENSER WATER LOOP DEMAND BRANCH 1,CONDENSER WATER LOOP,Plant Demand,NODE 233,NODE 239
   Branch,3,CONDENSER WATER LOOP DEMAND BRANCH 2,CONDENSER WATER LOOP,Plant Demand,NODE 240,NODE 241
   Branch,4,CONDENSER WATER LOOP DEMAND BYPASS BRANCH,CONDENSER WATER LOOP,Plant Demand,CONDENSER WATER LOOP DEMAND BYPASS PIPE INLET NODE,CONDENSER WATER LOOP DEMAND BYPASS PIPE OUTLET NODE
   Branch,5,CONDENSER WATER LOOP DEMAND OUTLET BRANCH,CONDENSER WATER LOOP,Plant Demand,CONDENSER WATER LOOP DEMAND OUTLET PIPE NODE,NODE 232
 Branch List,22,HOT WATER LOOP SUPPLY BRANCHES,HOT WATER LOOP,Plant Supply,5
   Branch,1,HOT WATER LOOP SUPPLY INLET BRANCH,HOT WATER LOOP,Plant Supply,NODE 21,NODE 27
   Branch,2,HOT WATER LOOP SUPPLY BRANCH 1,HOT WATER LOOP,Plant Supply,NODE 23,NODE 28
   Branch,3,HOT WATER LOOP SUPPLY BRANCH 2,HOT WATER LOOP,Plant Supply,NODE 29,NODE 30
   Branch,4,HOT WATER LOOP SUPPLY BRANCH 3,HOT WATER LOOP,Plant Supply,NODE 31,NODE 32
   Branch,5,HOT WATER LOOP SUPPLY OUTLET BRANCH,HOT WATER LOOP,Plant Supply,NODE 33,NODE 22
 Branch List,23,HOT WATER LOOP DEMAND BRANCHES,HOT WATER LOOP,Plant Demand,32
   Branch,1,HOT WATER LOOP DEMAND INLET BRANCH,HOT WATER LOOP,Plant Demand,NODE 24,HOT WATER LOOP DEMAND INLET PIPE NODE
   Branch,2,HOT WATER LOOP DEMAND BRANCH 1,HOT WATER LOOP,Plant Demand,NODE 26,NODE 45
   Branch,3,HOT WATER LOOP DEMAND BRANCH 2,HOT WATER LOOP,Plant Demand,NODE 57,NODE 58
   Branch,4,HOT WATER LOOP DEMAND BRANCH 3,HOT WATER LOOP,Plant Demand,NODE 70,NODE 71
   Branch,5,HOT WATER LOOP DEMAND BRANCH 4,HOT WATER LOOP,Plant Demand,NODE 83,NODE 84
   Branch,6,HOT WATER LOOP DEMAND BRANCH 5,HOT WATER LOOP,Plant Demand,NODE 96,NODE 97
   Branch,7,HOT WATER LOOP DEMAND BRANCH 6,HOT WATER LOOP,Plant Demand,NODE 109,NODE 110
   Branch,8,HOT WATER LOOP DEMAND BRANCH 7,HOT WATER LOOP,Plant Demand,NODE 122,NODE 123
   Branch,9,HOT WATER LOOP DEMAND BRANCH 8,HOT WATER LOOP,Plant Demand,NODE 135,NODE 136
   Branch,10,HOT WATER LOOP DEMAND BRANCH 9,HOT WATER LOOP,Plant Demand,NODE 148,NODE 149
   Branch,11,HOT WATER LOOP DEMAND BRANCH 10,HOT WATER LOOP,Plant Demand,NODE 161,NODE 162
   Branch,12,HOT WATER LOOP DEMAND BRANCH 11,HOT WATER LOOP,Plant Demand,NODE 174,NODE 175
   Branch,13,HOT WATER LOOP DEMAND BRANCH 12,HOT WATER LOOP,Plant Demand,NODE 187,NODE 188
   Branch,14,HOT WATER LOOP DEMAND BRANCH 13,HOT WATER LOOP,Plant Demand,NODE 200,NODE 201
   Branch,15,HOT WATER LOOP DEMAND BRANCH 14,HOT WATER LOOP,Plant Demand,NODE 213,NODE 214
   Branch,16,HOT WATER LOOP DEMAND BRANCH 15,HOT WATER LOOP,Plant Demand,NODE 247,NODE 248
   Branch,17,HOT WATER LOOP DEMAND BRANCH 16,HOT WATER LOOP,Plant Demand,NODE 256,NODE 257
   Branch,18,HOT WATER LOOP DEMAND BRANCH 17,HOT WATER LOOP,Plant Demand,NODE 260,NODE 261
   Branch,19,HOT WATER LOOP DEMAND BRANCH 18,HOT WATER LOOP,Plant Demand,NODE 262,NODE 263
   Branch,20,HOT WATER LOOP DEMAND BRANCH 19,HOT WATER LOOP,Plant Demand,NODE 267,NODE 268
   Branch,21,HOT WATER LOOP DEMAND BRANCH 20,HOT WATER LOOP,Plant Demand,NODE 274,NODE 275
   Branch,22,HOT WATER LOOP DEMAND BRANCH 21,HOT WATER LOOP,Plant Demand,NODE 284,NODE 285
   Branch,23,HOT WATER LOOP DEMAND BRANCH 22,HOT WATER LOOP,Plant Demand,NODE 288,NODE 289
   Branch,24,HOT WATER LOOP DEMAND BRANCH 23,HOT WATER LOOP,Plant Demand,NODE 295,NODE 296
   Branch,25,HOT WATER LOOP DEMAND BRANCH 24,HOT WATER LOOP,Plant Demand,NODE 305,NODE 306
   Branch,26,HOT WATER LOOP DEMAND BRANCH 25,HOT WATER LOOP,Plant Demand,NODE 309,NODE 310
   Branch,27,HOT WATER LOOP DEMAND BRANCH 26,HOT WATER LOOP,Plant Demand,NODE 311,NODE 312
   Branch,28,HOT WATER LOOP DEMAND BRANCH 27,HOT WATER LOOP,Plant Demand,NODE 316,NODE 317
   Branch,29,HOT WATER LOOP DEMAND BRANCH 28,HOT WATER LOOP,Plant Demand,NODE 318,NODE 319
   Branch,30,HOT WATER LOOP DEMAND BRANCH 29,HOT WATER LOOP,Plant Demand,NODE 323,NODE 324
   Branch,31,HOT WATER LOOP DEMAND BYPASS BRANCH,HOT WATER LOOP,Plant Demand,HOT WATER LOOP DEMAND BYPASS PIPE INLET NODE,HOT WATER LOOP DEMAND BYPASS PIPE OUTLET NODE
   Branch,32,HOT WATER LOOP DEMAND OUTLET BRANCH,HOT WATER LOOP,Plant Demand,HOT WATER LOOP DEMAND OUTLET PIPE NODE,NODE 25
 Branch List,24,MAIN SERVICE WATER LOOP SUPPLY BRANCHES,MAIN SERVICE WATER LOOP,Plant Supply,4
   Branch,1,MAIN SERVICE WATER LOOP SUPPLY INLET BRANCH,MAIN SERVICE WATER LOOP,Plant Supply,NODE 325,NODE 331
   Branch,2,MAIN SERVICE WATER LOOP SUPPLY BRANCH 1,MAIN SERVICE WATER LOOP,Plant Supply,NODE 327,NODE 332
   Branch,3,MAIN SERVICE WATER LOOP SUPPLY BRANCH 2,MAIN SERVICE WATER LOOP,Plant Supply,NODE 333,NODE 334
   Branch,4,MAIN SERVICE WATER LOOP SUPPLY OUTLET BRANCH,MAIN SERVICE WATER LOOP,Plant Supply,NODE 336,NODE 326
 Branch List,25,MAIN SERVICE WATER LOOP DEMAND BRANCHES,MAIN SERVICE WATER LOOP,Plant Demand,22
   Branch,1,MAIN SERVICE WATER LOOP DEMAND INLET BRANCH,MAIN SERVICE WATER LOOP,Plant Demand,NODE 328,NODE 337
   Branch,2,MAIN SERVICE WATER LOOP DEMAND BRANCH 1,MAIN SERVICE WATER LOOP,Plant Demand,NODE 330,NODE 335
   Branch,3,MAIN SERVICE WATER LOOP DEMAND BRANCH 2,MAIN SERVICE WATER LOOP,Plant Demand,NODE 339,NODE 340
   Branch,4,MAIN SERVICE WATER LOOP DEMAND BRANCH 3,MAIN SERVICE WATER LOOP,Plant Demand,NODE 341,NODE 342
   Branch,5,MAIN SERVICE WATER LOOP DEMAND BRANCH 4,MAIN SERVICE WATER LOOP,Plant Demand,NODE 343,NODE 344
   Branch,6,MAIN SERVICE WATER LOOP DEMAND BRANCH 5,MAIN SERVICE WATER LOOP,Plant Demand,NODE 345,NODE 346
   Branch,7,MAIN SERVICE WATER LOOP DEMAND BRANCH 6,MAIN SERVICE WATER LOOP,Plant Demand,NODE 347,NODE 348
   Branch,8,MAIN SERVICE WATER LOOP DEMAND BRANCH 7,MAIN SERVICE WATER LOOP,Plant Demand,NODE 349,NODE 350
   Branch,9,MAIN SERVICE WATER LOOP DEMAND BRANCH 8,MAIN SERVICE WATER LOOP,Plant Demand,NODE 351,NODE 352
   Branch,10,MAIN SERVICE WATER LOOP DEMAND BRANCH 9,MAIN SERVICE WATER LOOP,Plant Demand,NODE 353,NODE 354
   Branch,11,MAIN SERVICE WATER LOOP DEMAND BRANCH 10,MAIN SERVICE WATER LOOP,Plant Demand,NODE 355,NODE 356
   Branch,12,MAIN SERVICE WATER LOOP DEMAND BRANCH 11,MAIN SERVICE WATER LOOP,Plant Demand,NODE 357,NODE 358
   Branch,13,MAIN SERVICE WATER LOOP DEMAND BRANCH 12,MAIN SERVICE WATER LOOP,Plant Demand,NODE 359,NODE 360
   Branch,14,MAIN SERVICE WATER LOOP DEMAND BRANCH 13,MAIN SERVICE WATER LOOP,Plant Demand,NODE 361,NODE 362
   Branch,15,MAIN SERVICE WATER LOOP DEMAND BRANCH 14,MAIN SERVICE WATER LOOP,Plant Demand,NODE 363,NODE 364
   Branch,16,MAIN SERVICE WATER LOOP DEMAND BRANCH 15,MAIN SERVICE WATER LOOP,Plant Demand,NODE 365,NODE 366
   Branch,17,MAIN SERVICE WATER LOOP DEMAND BRANCH 16,MAIN SERVICE WATER LOOP,Plant Demand,NODE 367,NODE 368
   Branch,18,MAIN SERVICE WATER LOOP DEMAND BRANCH 17,MAIN SERVICE WATER LOOP,Plant Demand,NODE 369,NODE 370
   Branch,19,MAIN SERVICE WATER LOOP DEMAND BRANCH 18,MAIN SERVICE WATER LOOP,Plant Demand,NODE 371,NODE 372
   Branch,20,MAIN SERVICE WATER LOOP DEMAND BRANCH 19,MAIN SERVICE WATER LOOP,Plant Demand,NODE 373,NODE 374
   Branch,21,MAIN SERVICE WATER LOOP DEMAND BYPASS BRANCH,MAIN SERVICE WATER LOOP,Plant Demand,MAIN SERVICE WATER LOOP DEMAND BYPASS PIPE INLET NODE,MAIN SERVICE WATER LOOP DEMAND BYPASS PIPE OUTLET NODE
   Branch,22,MAIN SERVICE WATER LOOP DEMAND OUTLET BRANCH,MAIN SERVICE WATER LOOP,Plant Demand,NODE 338,NODE 329
! ===============================================================
! <#Supply Air Paths>,<Number of Supply Air Paths>
 #Supply Air Paths,17
! <Supply Air Path>,<Supply Air Path Count>,<Supply Air Path Name>,<AirLoopHVAC Name>
! <#Components on Supply Air Path>,<Number of Components>
! <Supply Air Path Component>,<Component Count>,<Component Type>,<Component Name>,<AirLoopHVAC Name>
! <#Outlet Nodes on Supply Air Path Component>,<Number of Nodes>
! <Supply Air Path Component Nodes>,<Node Count>,<Component Type>,<Component Name>,<Inlet Node Name>,<Outlet Node Name>,<AirLoopHVAC Name>
 Supply Air Path,1,SYS_3_PSZ SP-LOUNGE/BREAK ROOM - HEALTH CARE FACILITY-SPACE FUNCTION SYS-3 FLR-3 SCH-B HPLCMT-SOUTH ZN NODE 152 SUPPLY PATH,SYS_3_PSZ SP-LOUNGE/BREAK ROOM - HEALTH CARE FACILITY-SPACE FUNCTION SYS-3 FLR-3 SCH-B HPLCMT-SOUTH ZN
   #Components on Supply Air Path,1
   Supply Air Path Component,1,AIRLOOPHVAC:ZONESPLITTER,AIR LOOP HVAC ZONE SPLITTER 10,SYS_3_PSZ SP-LOUNGE/BREAK ROOM - HEALTH CARE FACILITY-SPACE FUNCTION SYS-3 FLR-3 SCH-B HPLCMT-SOUTH ZN
     #Outlet Nodes on Supply Air Path Component,1
     Supply Air Path Component Nodes,1,AIRLOOPHVAC:ZONESPLITTER,AIR LOOP HVAC ZONE SPLITTER 10,NODE 152,NODE 154,SYS_3_PSZ SP-LOUNGE/BREAK ROOM - HEALTH CARE FACILITY-SPACE FUNCTION SYS-3 FLR-3 SCH-B HPLCMT-SOUTH ZN
! <#Nodes on Supply Air Path>,<Number of Nodes>
! <Supply Air Path Node>,<Node Type>,<Node Count>,<Node Name>,<AirLoopHVAC Name>
#Nodes on Supply Air Path,2
   Supply Air Path Node,Inlet Node,1,NODE 152,SYS_3_PSZ SP-LOUNGE/BREAK ROOM - HEALTH CARE FACILITY-SPACE FUNCTION SYS-3 FLR-3 SCH-B HPLCMT-SOUTH ZN
   Supply Air Path Node,Outlet Node,2,NODE 154,SYS_3_PSZ SP-LOUNGE/BREAK ROOM - HEALTH CARE FACILITY-SPACE FUNCTION SYS-3 FLR-3 SCH-B HPLCMT-SOUTH ZN
 Supply Air Path,2,SYS_3_PSZ SP-LOUNGE/BREAK ROOM - OTHER-SPACE FUNCTION SYS-3 FLR-1 SCH-B HPLCMT-WEST ZN NODE 36 SUPPLY PATH,SYS_3_PSZ SP-LOUNGE/BREAK ROOM - OTHER-SPACE FUNCTION SYS-3 FLR-1 SCH-B HPLCMT-WEST ZN
   #Components on Supply Air Path,1
   Supply Air Path Component,1,AIRLOOPHVAC:ZONESPLITTER,AIR LOOP HVAC ZONE SPLITTER 1,SYS_3_PSZ SP-LOUNGE/BREAK ROOM - OTHER-SPACE FUNCTION SYS-3 FLR-1 SCH-B HPLCMT-WEST ZN
     #Outlet Nodes on Supply Air Path Component,1
     Supply Air Path Component Nodes,1,AIRLOOPHVAC:ZONESPLITTER,AIR LOOP HVAC ZONE SPLITTER 1,NODE 36,NODE 38,SYS_3_PSZ SP-LOUNGE/BREAK ROOM - OTHER-SPACE FUNCTION SYS-3 FLR-1 SCH-B HPLCMT-WEST ZN
! <#Nodes on Supply Air Path>,<Number of Nodes>
! <Supply Air Path Node>,<Node Type>,<Node Count>,<Node Name>,<AirLoopHVAC Name>
#Nodes on Supply Air Path,2
   Supply Air Path Node,Inlet Node,1,NODE 36,SYS_3_PSZ SP-LOUNGE/BREAK ROOM - OTHER-SPACE FUNCTION SYS-3 FLR-1 SCH-B HPLCMT-WEST ZN
   Supply Air Path Node,Outlet Node,2,NODE 38,SYS_3_PSZ SP-LOUNGE/BREAK ROOM - OTHER-SPACE FUNCTION SYS-3 FLR-1 SCH-B HPLCMT-WEST ZN
 Supply Air Path,3,SYS_3_PSZ SP-PHARMACY AREA-SPACE FUNCTION SYS-3 FLR-4 SCH-C HPLCMT-SOUTH ZN NODE 191 SUPPLY PATH,SYS_3_PSZ SP-PHARMACY AREA-SPACE FUNCTION SYS-3 FLR-4 SCH-C HPLCMT-SOUTH ZN
   #Components on Supply Air Path,1
   Supply Air Path Component,1,AIRLOOPHVAC:ZONESPLITTER,AIR LOOP HVAC ZONE SPLITTER 13,SYS_3_PSZ SP-PHARMACY AREA-SPACE FUNCTION SYS-3 FLR-4 SCH-C HPLCMT-SOUTH ZN
     #Outlet Nodes on Supply Air Path Component,1
     Supply Air Path Component Nodes,1,AIRLOOPHVAC:ZONESPLITTER,AIR LOOP HVAC ZONE SPLITTER 13,NODE 191,NODE 193,SYS_3_PSZ SP-PHARMACY AREA-SPACE FUNCTION SYS-3 FLR-4 SCH-C HPLCMT-SOUTH ZN
! <#Nodes on Supply Air Path>,<Number of Nodes>
! <Supply Air Path Node>,<Node Type>,<Node Count>,<Node Name>,<AirLoopHVAC Name>
#Nodes on Supply Air Path,2
   Supply Air Path Node,Inlet Node,1,NODE 191,SYS_3_PSZ SP-PHARMACY AREA-SPACE FUNCTION SYS-3 FLR-4 SCH-C HPLCMT-SOUTH ZN
   Supply Air Path Node,Outlet Node,2,NODE 193,SYS_3_PSZ SP-PHARMACY AREA-SPACE FUNCTION SYS-3 FLR-4 SCH-C HPLCMT-SOUTH ZN
 Supply Air Path,4,SYS_3_PSZ SP-SEATING AREA GENERAL-SCH-A-SPACE FUNCTION SYS-3 FLR-1 SCH-A HPLCMT-CORE ZN NODE 48 SUPPLY PATH,SYS_3_PSZ SP-SEATING AREA GENERAL-SCH-A-SPACE FUNCTION SYS-3 FLR-1 SCH-A HPLCMT-CORE ZN
   #Components on Supply Air Path,1
   Supply Air Path Component,1,AIRLOOPHVAC:ZONESPLITTER,AIR LOOP HVAC ZONE SPLITTER 2,SYS_3_PSZ SP-SEATING AREA GENERAL-SCH-A-SPACE FUNCTION SYS-3 FLR-1 SCH-A HPLCMT-CORE ZN
     #Outlet Nodes on Supply Air Path Component,1
     Supply Air Path Component Nodes,1,AIRLOOPHVAC:ZONESPLITTER,AIR LOOP HVAC ZONE SPLITTER 2,NODE 48,NODE 50,SYS_3_PSZ SP-SEATING AREA GENERAL-SCH-A-SPACE FUNCTION SYS-3 FLR-1 SCH-A HPLCMT-CORE ZN
! <#Nodes on Supply Air Path>,<Number of Nodes>
! <Supply Air Path Node>,<Node Type>,<Node Count>,<Node Name>,<AirLoopHVAC Name>
#Nodes on Supply Air Path,2
   Supply Air Path Node,Inlet Node,1,NODE 48,SYS_3_PSZ SP-SEATING AREA GENERAL-SCH-A-SPACE FUNCTION SYS-3 FLR-1 SCH-A HPLCMT-CORE ZN
   Supply Air Path Node,Outlet Node,2,NODE 50,SYS_3_PSZ SP-SEATING AREA GENERAL-SCH-A-SPACE FUNCTION SYS-3 FLR-1 SCH-A HPLCMT-CORE ZN
 Supply Air Path,5,SYS_3_PSZ SP-SEATING AREA GENERAL-SCH-B-SPACE FUNCTION SYS-3 FLR-2 SCH-B HPLCMT-CORE ZN NODE 87 SUPPLY PATH,SYS_3_PSZ SP-SEATING AREA GENERAL-SCH-B-SPACE FUNCTION SYS-3 FLR-2 SCH-B HPLCMT-CORE ZN
   #Components on Supply Air Path,1
   Supply Air Path Component,1,AIRLOOPHVAC:ZONESPLITTER,AIR LOOP HVAC ZONE SPLITTER 5,SYS_3_PSZ SP-SEATING AREA GENERAL-SCH-B-SPACE FUNCTION SYS-3 FLR-2 SCH-B HPLCMT-CORE ZN
     #Outlet Nodes on Supply Air Path Component,1
     Supply Air Path Component Nodes,1,AIRLOOPHVAC:ZONESPLITTER,AIR LOOP HVAC ZONE SPLITTER 5,NODE 87,NODE 89,SYS_3_PSZ SP-SEATING AREA GENERAL-SCH-B-SPACE FUNCTION SYS-3 FLR-2 SCH-B HPLCMT-CORE ZN
! <#Nodes on Supply Air Path>,<Number of Nodes>
! <Supply Air Path Node>,<Node Type>,<Node Count>,<Node Name>,<AirLoopHVAC Name>
#Nodes on Supply Air Path,2
   Supply Air Path Node,Inlet Node,1,NODE 87,SYS_3_PSZ SP-SEATING AREA GENERAL-SCH-B-SPACE FUNCTION SYS-3 FLR-2 SCH-B HPLCMT-CORE ZN
   Supply Air Path Node,Outlet Node,2,NODE 89,SYS_3_PSZ SP-SEATING AREA GENERAL-SCH-B-SPACE FUNCTION SYS-3 FLR-2 SCH-B HPLCMT-CORE ZN
 Supply Air Path,6,SYS_3_PSZ SP-SEATING AREA GENERAL-SCH-C-SPACE FUNCTION SYS-3 FLR-3 SCH-C HPLCMT-EAST ZN NODE 165 SUPPLY PATH,SYS_3_PSZ SP-SEATING AREA GENERAL-SCH-C-SPACE FUNCTION SYS-3 FLR-3 SCH-C HPLCMT-EAST ZN
   #Components on Supply Air Path,1
   Supply Air Path Component,1,AIRLOOPHVAC:ZONESPLITTER,AIR LOOP HVAC ZONE SPLITTER 11,SYS_3_PSZ SP-SEATING AREA GENERAL-SCH-C-SPACE FUNCTION SYS-3 FLR-3 SCH-C HPLCMT-EAST ZN
     #Outlet Nodes on Supply Air Path Component,1
     Supply Air Path Component Nodes,1,AIRLOOPHVAC:ZONESPLITTER,AIR LOOP HVAC ZONE SPLITTER 11,NODE 165,NODE 167,SYS_3_PSZ SP-SEATING AREA GENERAL-SCH-C-SPACE FUNCTION SYS-3 FLR-3 SCH-C HPLCMT-EAST ZN
! <#Nodes on Supply Air Path>,<Number of Nodes>
! <Supply Air Path Node>,<Node Type>,<Node Count>,<Node Name>,<AirLoopHVAC Name>
#Nodes on Supply Air Path,2
   Supply Air Path Node,Inlet Node,1,NODE 165,SYS_3_PSZ SP-SEATING AREA GENERAL-SCH-C-SPACE FUNCTION SYS-3 FLR-3 SCH-C HPLCMT-EAST ZN
   Supply Air Path Node,Outlet Node,2,NODE 167,SYS_3_PSZ SP-SEATING AREA GENERAL-SCH-C-SPACE FUNCTION SYS-3 FLR-3 SCH-C HPLCMT-EAST ZN
 Supply Air Path,7,SYS_3_PSZ SP-SEATING AREA GENERAL-SCH-D-SPACE FUNCTION SYS-3 FLR-1 SCH-D HPLCMT-EAST ZN NODE 61 SUPPLY PATH,SYS_3_PSZ SP-SEATING AREA GENERAL-SCH-D-SPACE FUNCTION SYS-3 FLR-1 SCH-D HPLCMT-EAST ZN
   #Components on Supply Air Path,1
   Supply Air Path Component,1,AIRLOOPHVAC:ZONESPLITTER,AIR LOOP HVAC ZONE SPLITTER 3,SYS_3_PSZ SP-SEATING AREA GENERAL-SCH-D-SPACE FUNCTION SYS-3 FLR-1 SCH-D HPLCMT-EAST ZN
     #Outlet Nodes on Supply Air Path Component,1
     Supply Air Path Component Nodes,1,AIRLOOPHVAC:ZONESPLITTER,AIR LOOP HVAC ZONE SPLITTER 3,NODE 61,NODE 63,SYS_3_PSZ SP-SEATING AREA GENERAL-SCH-D-SPACE FUNCTION SYS-3 FLR-1 SCH-D HPLCMT-EAST ZN
! <#Nodes on Supply Air Path>,<Number of Nodes>
! <Supply Air Path Node>,<Node Type>,<Node Count>,<Node Name>,<AirLoopHVAC Name>
#Nodes on Supply Air Path,2
   Supply Air Path Node,Inlet Node,1,NODE 61,SYS_3_PSZ SP-SEATING AREA GENERAL-SCH-D-SPACE FUNCTION SYS-3 FLR-1 SCH-D HPLCMT-EAST ZN
   Supply Air Path Node,Outlet Node,2,NODE 63,SYS_3_PSZ SP-SEATING AREA GENERAL-SCH-D-SPACE FUNCTION SYS-3 FLR-1 SCH-D HPLCMT-EAST ZN
 Supply Air Path,8,SYS_3_PSZ SP-SEATING AREA GENERAL-SCH-E-SPACE FUNCTION SYS-3 FLR-4 SCH-E HPLCMT-WEST ZN NODE 204 SUPPLY PATH,SYS_3_PSZ SP-SEATING AREA GENERAL-SCH-E-SPACE FUNCTION SYS-3 FLR-4 SCH-E HPLCMT-WEST ZN
   #Components on Supply Air Path,1
   Supply Air Path Component,1,AIRLOOPHVAC:ZONESPLITTER,AIR LOOP HVAC ZONE SPLITTER 14,SYS_3_PSZ SP-SEATING AREA GENERAL-SCH-E-SPACE FUNCTION SYS-3 FLR-4 SCH-E HPLCMT-WEST ZN
     #Outlet Nodes on Supply Air Path Component,1
     Supply Air Path Component Nodes,1,AIRLOOPHVAC:ZONESPLITTER,AIR LOOP HVAC ZONE SPLITTER 14,NODE 204,NODE 206,SYS_3_PSZ SP-SEATING AREA GENERAL-SCH-E-SPACE FUNCTION SYS-3 FLR-4 SCH-E HPLCMT-WEST ZN
! <#Nodes on Supply Air Path>,<Number of Nodes>
! <Supply Air Path Node>,<Node Type>,<Node Count>,<Node Name>,<AirLoopHVAC Name>
#Nodes on Supply Air Path,2
   Supply Air Path Node,Inlet Node,1,NODE 204,SYS_3_PSZ SP-SEATING AREA GENERAL-SCH-E-SPACE FUNCTION SYS-3 FLR-4 SCH-E HPLCMT-WEST ZN
   Supply Air Path Node,Outlet Node,2,NODE 206,SYS_3_PSZ SP-SEATING AREA GENERAL-SCH-E-SPACE FUNCTION SYS-3 FLR-4 SCH-E HPLCMT-WEST ZN
 Supply Air Path,9,SYS_3_PSZ SP-SEATING AREA GENERAL-SCH-F-SPACE FUNCTION SYS-3 FLR-3 SCH-F HPLCMT-WEST ZN NODE 178 SUPPLY PATH,SYS_3_PSZ SP-SEATING AREA GENERAL-SCH-F-SPACE FUNCTION SYS-3 FLR-3 SCH-F HPLCMT-WEST ZN
   #Components on Supply Air Path,1
   Supply Air Path Component,1,AIRLOOPHVAC:ZONESPLITTER,AIR LOOP HVAC ZONE SPLITTER 12,SYS_3_PSZ SP-SEATING AREA GENERAL-SCH-F-SPACE FUNCTION SYS-3 FLR-3 SCH-F HPLCMT-WEST ZN
     #Outlet Nodes on Supply Air Path Component,1
     Supply Air Path Component Nodes,1,AIRLOOPHVAC:ZONESPLITTER,AIR LOOP HVAC ZONE SPLITTER 12,NODE 178,NODE 180,SYS_3_PSZ SP-SEATING AREA GENERAL-SCH-F-SPACE FUNCTION SYS-3 FLR-3 SCH-F HPLCMT-WEST ZN
! <#Nodes on Supply Air Path>,<Number of Nodes>
! <Supply Air Path Node>,<Node Type>,<Node Count>,<Node Name>,<AirLoopHVAC Name>
#Nodes on Supply Air Path,2
   Supply Air Path Node,Inlet Node,1,NODE 178,SYS_3_PSZ SP-SEATING AREA GENERAL-SCH-F-SPACE FUNCTION SYS-3 FLR-3 SCH-F HPLCMT-WEST ZN
   Supply Air Path Node,Outlet Node,2,NODE 180,SYS_3_PSZ SP-SEATING AREA GENERAL-SCH-F-SPACE FUNCTION SYS-3 FLR-3 SCH-F HPLCMT-WEST ZN
 Supply Air Path,10,SYS_3_PSZ SP-SEATING AREA GENERAL-SCH-G-SPACE FUNCTION SYS-3 FLR-2 SCH-G HPLCMT-NORTH ZN NODE 100 SUPPLY PATH,SYS_3_PSZ SP-SEATING AREA GENERAL-SCH-G-SPACE FUNCTION SYS-3 FLR-2 SCH-G HPLCMT-NORTH ZN
   #Components on Supply Air Path,1
   Supply Air Path Component,1,AIRLOOPHVAC:ZONESPLITTER,AIR LOOP HVAC ZONE SPLITTER 6,SYS_3_PSZ SP-SEATING AREA GENERAL-SCH-G-SPACE FUNCTION SYS-3 FLR-2 SCH-G HPLCMT-NORTH ZN
     #Outlet Nodes on Supply Air Path Component,1
     Supply Air Path Component Nodes,1,AIRLOOPHVAC:ZONESPLITTER,AIR LOOP HVAC ZONE SPLITTER 6,NODE 100,NODE 102,SYS_3_PSZ SP-SEATING AREA GENERAL-SCH-G-SPACE FUNCTION SYS-3 FLR-2 SCH-G HPLCMT-NORTH ZN
! <#Nodes on Supply Air Path>,<Number of Nodes>
! <Supply Air Path Node>,<Node Type>,<Node Count>,<Node Name>,<AirLoopHVAC Name>
#Nodes on Supply Air Path,2
   Supply Air Path Node,Inlet Node,1,NODE 100,SYS_3_PSZ SP-SEATING AREA GENERAL-SCH-G-SPACE FUNCTION SYS-3 FLR-2 SCH-G HPLCMT-NORTH ZN
   Supply Air Path Node,Outlet Node,2,NODE 102,SYS_3_PSZ SP-SEATING AREA GENERAL-SCH-G-SPACE FUNCTION SYS-3 FLR-2 SCH-G HPLCMT-NORTH ZN
 Supply Air Path,11,SYS_3_PSZ SP-SEATING AREA GENERAL-SCH-H-SPACE FUNCTION SYS-3 FLR-2 SCH-H HPLCMT-WEST ZN NODE 113 SUPPLY PATH,SYS_3_PSZ SP-SEATING AREA GENERAL-SCH-H-SPACE FUNCTION SYS-3 FLR-2 SCH-H HPLCMT-WEST ZN
   #Components on Supply Air Path,1
   Supply Air Path Component,1,AIRLOOPHVAC:ZONESPLITTER,AIR LOOP HVAC ZONE SPLITTER 7,SYS_3_PSZ SP-SEATING AREA GENERAL-SCH-H-SPACE FUNCTION SYS-3 FLR-2 SCH-H HPLCMT-WEST ZN
     #Outlet Nodes on Supply Air Path Component,1
     Supply Air Path Component Nodes,1,AIRLOOPHVAC:ZONESPLITTER,AIR LOOP HVAC ZONE SPLITTER 7,NODE 113,NODE 115,SYS_3_PSZ SP-SEATING AREA GENERAL-SCH-H-SPACE FUNCTION SYS-3 FLR-2 SCH-H HPLCMT-WEST ZN
! <#Nodes on Supply Air Path>,<Number of Nodes>
! <Supply Air Path Node>,<Node Type>,<Node Count>,<Node Name>,<AirLoopHVAC Name>
#Nodes on Supply Air Path,2
   Supply Air Path Node,Inlet Node,1,NODE 113,SYS_3_PSZ SP-SEATING AREA GENERAL-SCH-H-SPACE FUNCTION SYS-3 FLR-2 SCH-H HPLCMT-WEST ZN
   Supply Air Path Node,Outlet Node,2,NODE 115,SYS_3_PSZ SP-SEATING AREA GENERAL-SCH-H-SPACE FUNCTION SYS-3 FLR-2 SCH-H HPLCMT-WEST ZN
 Supply Air Path,12,SYS_3_PSZ SP-SEATING AREA GENERAL-SCH-I-SPACE FUNCTION SYS-3 FLR-2 SCH-I HPLCMT-EAST ZN NODE 126 SUPPLY PATH,SYS_3_PSZ SP-SEATING AREA GENERAL-SCH-I-SPACE FUNCTION SYS-3 FLR-2 SCH-I HPLCMT-EAST ZN
   #Components on Supply Air Path,1
   Supply Air Path Component,1,AIRLOOPHVAC:ZONESPLITTER,AIR LOOP HVAC ZONE SPLITTER 8,SYS_3_PSZ SP-SEATING AREA GENERAL-SCH-I-SPACE FUNCTION SYS-3 FLR-2 SCH-I HPLCMT-EAST ZN
     #Outlet Nodes on Supply Air Path Component,1
     Supply Air Path Component Nodes,1,AIRLOOPHVAC:ZONESPLITTER,AIR LOOP HVAC ZONE SPLITTER 8,NODE 126,NODE 128,SYS_3_PSZ SP-SEATING AREA GENERAL-SCH-I-SPACE FUNCTION SYS-3 FLR-2 SCH-I HPLCMT-EAST ZN
! <#Nodes on Supply Air Path>,<Number of Nodes>
! <Supply Air Path Node>,<Node Type>,<Node Count>,<Node Name>,<AirLoopHVAC Name>
#Nodes on Supply Air Path,2
   Supply Air Path Node,Inlet Node,1,NODE 126,SYS_3_PSZ SP-SEATING AREA GENERAL-SCH-I-SPACE FUNCTION SYS-3 FLR-2 SCH-I HPLCMT-EAST ZN
   Supply Air Path Node,Outlet Node,2,NODE 128,SYS_3_PSZ SP-SEATING AREA GENERAL-SCH-I-SPACE FUNCTION SYS-3 FLR-2 SCH-I HPLCMT-EAST ZN
 Supply Air Path,13,SYS_3_PSZ SP-SEATING AREA GENERAL-SCH-J-SPACE FUNCTION SYS-3 FLR-3 SCH-J HPLCMT-NORTH ZN NODE 139 SUPPLY PATH,SYS_3_PSZ SP-SEATING AREA GENERAL-SCH-J-SPACE FUNCTION SYS-3 FLR-3 SCH-J HPLCMT-NORTH ZN
   #Components on Supply Air Path,1
   Supply Air Path Component,1,AIRLOOPHVAC:ZONESPLITTER,AIR LOOP HVAC ZONE SPLITTER 9,SYS_3_PSZ SP-SEATING AREA GENERAL-SCH-J-SPACE FUNCTION SYS-3 FLR-3 SCH-J HPLCMT-NORTH ZN
     #Outlet Nodes on Supply Air Path Component,1
     Supply Air Path Component Nodes,1,AIRLOOPHVAC:ZONESPLITTER,AIR LOOP HVAC ZONE SPLITTER 9,NODE 139,NODE 141,SYS_3_PSZ SP-SEATING AREA GENERAL-SCH-J-SPACE FUNCTION SYS-3 FLR-3 SCH-J HPLCMT-NORTH ZN
! <#Nodes on Supply Air Path>,<Number of Nodes>
! <Supply Air Path Node>,<Node Type>,<Node Count>,<Node Name>,<AirLoopHVAC Name>
#Nodes on Supply Air Path,2
   Supply Air Path Node,Inlet Node,1,NODE 139,SYS_3_PSZ SP-SEATING AREA GENERAL-SCH-J-SPACE FUNCTION SYS-3 FLR-3 SCH-J HPLCMT-NORTH ZN
   Supply Air Path Node,Outlet Node,2,NODE 141,SYS_3_PSZ SP-SEATING AREA GENERAL-SCH-J-SPACE FUNCTION SYS-3 FLR-3 SCH-J HPLCMT-NORTH ZN
 Supply Air Path,14,SYS_3_PSZ SP-SEATING AREA GENERAL-SCH-K-SPACE FUNCTION SYS-3 FLR-2 SCH-K HPLCMT-SOUTH ZN NODE 74 SUPPLY PATH,SYS_3_PSZ SP-SEATING AREA GENERAL-SCH-K-SPACE FUNCTION SYS-3 FLR-2 SCH-K HPLCMT-SOUTH ZN
   #Components on Supply Air Path,1
   Supply Air Path Component,1,AIRLOOPHVAC:ZONESPLITTER,AIR LOOP HVAC ZONE SPLITTER 4,SYS_3_PSZ SP-SEATING AREA GENERAL-SCH-K-SPACE FUNCTION SYS-3 FLR-2 SCH-K HPLCMT-SOUTH ZN
     #Outlet Nodes on Supply Air Path Component,1
     Supply Air Path Component Nodes,1,AIRLOOPHVAC:ZONESPLITTER,AIR LOOP HVAC ZONE SPLITTER 4,NODE 74,NODE 76,SYS_3_PSZ SP-SEATING AREA GENERAL-SCH-K-SPACE FUNCTION SYS-3 FLR-2 SCH-K HPLCMT-SOUTH ZN
! <#Nodes on Supply Air Path>,<Number of Nodes>
! <Supply Air Path Node>,<Node Type>,<Node Count>,<Node Name>,<AirLoopHVAC Name>
#Nodes on Supply Air Path,2
   Supply Air Path Node,Inlet Node,1,NODE 74,SYS_3_PSZ SP-SEATING AREA GENERAL-SCH-K-SPACE FUNCTION SYS-3 FLR-2 SCH-K HPLCMT-SOUTH ZN
   Supply Air Path Node,Outlet Node,2,NODE 76,SYS_3_PSZ SP-SEATING AREA GENERAL-SCH-K-SPACE FUNCTION SYS-3 FLR-2 SCH-K HPLCMT-SOUTH ZN
 Supply Air Path,15,SYS_6_VAV WITH REHEAT NODE 244 SUPPLY PATH,SYS_6_VAV WITH REHEAT
   #Components on Supply Air Path,1
   Supply Air Path Component,1,AIRLOOPHVAC:ZONESPLITTER,AIR LOOP HVAC ZONE SPLITTER 15,SYS_6_VAV WITH REHEAT
     #Outlet Nodes on Supply Air Path Component,2
     Supply Air Path Component Nodes,1,AIRLOOPHVAC:ZONESPLITTER,AIR LOOP HVAC ZONE SPLITTER 15,NODE 244,NODE 259,SYS_6_VAV WITH REHEAT
     Supply Air Path Component Nodes,2,AIRLOOPHVAC:ZONESPLITTER,AIR LOOP HVAC ZONE SPLITTER 15,NODE 244,NODE 266,SYS_6_VAV WITH REHEAT
! <#Nodes on Supply Air Path>,<Number of Nodes>
! <Supply Air Path Node>,<Node Type>,<Node Count>,<Node Name>,<AirLoopHVAC Name>
#Nodes on Supply Air Path,3
   Supply Air Path Node,Inlet Node,1,NODE 244,SYS_6_VAV WITH REHEAT
   Supply Air Path Node,Outlet Node,2,NODE 259,SYS_6_VAV WITH REHEAT
   Supply Air Path Node,Outlet Node,3,NODE 266,SYS_6_VAV WITH REHEAT
 Supply Air Path,16,SYS_6_VAV WITH REHEAT 1 NODE 271 SUPPLY PATH,SYS_6_VAV WITH REHEAT 1
   #Components on Supply Air Path,1
   Supply Air Path Component,1,AIRLOOPHVAC:ZONESPLITTER,AIR LOOP HVAC ZONE SPLITTER 16,SYS_6_VAV WITH REHEAT 1
     #Outlet Nodes on Supply Air Path Component,1
     Supply Air Path Component Nodes,1,AIRLOOPHVAC:ZONESPLITTER,AIR LOOP HVAC ZONE SPLITTER 16,NODE 271,NODE 287,SYS_6_VAV WITH REHEAT 1
! <#Nodes on Supply Air Path>,<Number of Nodes>
! <Supply Air Path Node>,<Node Type>,<Node Count>,<Node Name>,<AirLoopHVAC Name>
#Nodes on Supply Air Path,2
   Supply Air Path Node,Inlet Node,1,NODE 271,SYS_6_VAV WITH REHEAT 1
   Supply Air Path Node,Outlet Node,2,NODE 287,SYS_6_VAV WITH REHEAT 1
 Supply Air Path,17,SYS_6_VAV WITH REHEAT 2 NODE 292 SUPPLY PATH,SYS_6_VAV WITH REHEAT 2
   #Components on Supply Air Path,1
   Supply Air Path Component,1,AIRLOOPHVAC:ZONESPLITTER,AIR LOOP HVAC ZONE SPLITTER 17,SYS_6_VAV WITH REHEAT 2
     #Outlet Nodes on Supply Air Path Component,3
     Supply Air Path Component Nodes,1,AIRLOOPHVAC:ZONESPLITTER,AIR LOOP HVAC ZONE SPLITTER 17,NODE 292,NODE 308,SYS_6_VAV WITH REHEAT 2
     Supply Air Path Component Nodes,2,AIRLOOPHVAC:ZONESPLITTER,AIR LOOP HVAC ZONE SPLITTER 17,NODE 292,NODE 315,SYS_6_VAV WITH REHEAT 2
     Supply Air Path Component Nodes,3,AIRLOOPHVAC:ZONESPLITTER,AIR LOOP HVAC ZONE SPLITTER 17,NODE 292,NODE 322,SYS_6_VAV WITH REHEAT 2
! <#Nodes on Supply Air Path>,<Number of Nodes>
! <Supply Air Path Node>,<Node Type>,<Node Count>,<Node Name>,<AirLoopHVAC Name>
#Nodes on Supply Air Path,4
   Supply Air Path Node,Inlet Node,1,NODE 292,SYS_6_VAV WITH REHEAT 2
   Supply Air Path Node,Outlet Node,2,NODE 308,SYS_6_VAV WITH REHEAT 2
   Supply Air Path Node,Outlet Node,3,NODE 315,SYS_6_VAV WITH REHEAT 2
   Supply Air Path Node,Outlet Node,4,NODE 322,SYS_6_VAV WITH REHEAT 2
! ===============================================================
! <#Return Air Paths>,<Number of Return Air Paths>
 #Return Air Paths,17
! <Return Air Path>,<Return Air Path Count>,<Return Air Path Name>,<AirLoopHVAC Name>
! <#Components on Return Air Path>,<Number of Components>
! <Return Air Path Component>,<Component Count>,<Component Type>,<Component Name>,<AirLoopHVAC Name>
! <#Inlet Nodes on Return Air Path Component>,<Number of Nodes>
! <Return Air Path Component Nodes>,<Node Count>,<Component Type>,<Component Name>,<Inlet Node Name>,<Outlet Node Name>,<AirLoopHVAC Name>
 Return Air Path,1,SYS_3_PSZ SP-LOUNGE/BREAK ROOM - HEALTH CARE FACILITY-SPACE FUNCTION SYS-3 FLR-3 SCH-B HPLCMT-SOUTH ZN RETURN PATH,SYS_3_PSZ SP-LOUNGE/BREAK ROOM - HEALTH CARE FACILITY-SPACE FUNCTION SYS-3 FLR-3 SCH-B HPLCMT-SOUTH ZN
   #Components on Return Air Path,1
   Return Air Path Component,1,AIRLOOPHVAC:ZONEMIXER,AIR LOOP HVAC ZONE MIXER 10,SYS_3_PSZ SP-LOUNGE/BREAK ROOM - HEALTH CARE FACILITY-SPACE FUNCTION SYS-3 FLR-3 SCH-B HPLCMT-SOUTH ZN
     #Inlet Nodes on Return Air Path Component,1
     Return Air Path Component Nodes,1,AIRLOOPHVAC:ZONEMIXER,AIR LOOP HVAC ZONE MIXER 10,NODE 160,NODE 153,SYS_3_PSZ SP-LOUNGE/BREAK ROOM - HEALTH CARE FACILITY-SPACE FUNCTION SYS-3 FLR-3 SCH-B HPLCMT-SOUTH ZN
! <#Nodes on Return Air Path>,<Number of Nodes>
! <Return Air Path Node>,<Node Type>,<Node Count>,<Node Name>,<AirLoopHVAC Name>
   #Nodes on Return Air Path,2
   Return Air Path Node,Outlet Node,1,NODE 153,SYS_3_PSZ SP-LOUNGE/BREAK ROOM - HEALTH CARE FACILITY-SPACE FUNCTION SYS-3 FLR-3 SCH-B HPLCMT-SOUTH ZN
   Return Air Path Node,Inlet Node,2,NODE 160,SYS_3_PSZ SP-LOUNGE/BREAK ROOM - HEALTH CARE FACILITY-SPACE FUNCTION SYS-3 FLR-3 SCH-B HPLCMT-SOUTH ZN
 Return Air Path,2,SYS_3_PSZ SP-LOUNGE/BREAK ROOM - OTHER-SPACE FUNCTION SYS-3 FLR-1 SCH-B HPLCMT-WEST ZN RETURN PATH,SYS_3_PSZ SP-LOUNGE/BREAK ROOM - OTHER-SPACE FUNCTION SYS-3 FLR-1 SCH-B HPLCMT-WEST ZN
   #Components on Return Air Path,1
   Return Air Path Component,1,AIRLOOPHVAC:ZONEMIXER,AIR LOOP HVAC ZONE MIXER 1,SYS_3_PSZ SP-LOUNGE/BREAK ROOM - OTHER-SPACE FUNCTION SYS-3 FLR-1 SCH-B HPLCMT-WEST ZN
     #Inlet Nodes on Return Air Path Component,1
     Return Air Path Component Nodes,1,AIRLOOPHVAC:ZONEMIXER,AIR LOOP HVAC ZONE MIXER 1,NODE 44,NODE 37,SYS_3_PSZ SP-LOUNGE/BREAK ROOM - OTHER-SPACE FUNCTION SYS-3 FLR-1 SCH-B HPLCMT-WEST ZN
! <#Nodes on Return Air Path>,<Number of Nodes>
! <Return Air Path Node>,<Node Type>,<Node Count>,<Node Name>,<AirLoopHVAC Name>
   #Nodes on Return Air Path,2
   Return Air Path Node,Outlet Node,1,NODE 37,SYS_3_PSZ SP-LOUNGE/BREAK ROOM - OTHER-SPACE FUNCTION SYS-3 FLR-1 SCH-B HPLCMT-WEST ZN
   Return Air Path Node,Inlet Node,2,NODE 44,SYS_3_PSZ SP-LOUNGE/BREAK ROOM - OTHER-SPACE FUNCTION SYS-3 FLR-1 SCH-B HPLCMT-WEST ZN
 Return Air Path,3,SYS_3_PSZ SP-PHARMACY AREA-SPACE FUNCTION SYS-3 FLR-4 SCH-C HPLCMT-SOUTH ZN RETURN PATH,SYS_3_PSZ SP-PHARMACY AREA-SPACE FUNCTION SYS-3 FLR-4 SCH-C HPLCMT-SOUTH ZN
   #Components on Return Air Path,1
   Return Air Path Component,1,AIRLOOPHVAC:ZONEMIXER,AIR LOOP HVAC ZONE MIXER 13,SYS_3_PSZ SP-PHARMACY AREA-SPACE FUNCTION SYS-3 FLR-4 SCH-C HPLCMT-SOUTH ZN
     #Inlet Nodes on Return Air Path Component,1
     Return Air Path Component Nodes,1,AIRLOOPHVAC:ZONEMIXER,AIR LOOP HVAC ZONE MIXER 13,NODE 199,NODE 192,SYS_3_PSZ SP-PHARMACY AREA-SPACE FUNCTION SYS-3 FLR-4 SCH-C HPLCMT-SOUTH ZN
! <#Nodes on Return Air Path>,<Number of Nodes>
! <Return Air Path Node>,<Node Type>,<Node Count>,<Node Name>,<AirLoopHVAC Name>
   #Nodes on Return Air Path,2
   Return Air Path Node,Outlet Node,1,NODE 192,SYS_3_PSZ SP-PHARMACY AREA-SPACE FUNCTION SYS-3 FLR-4 SCH-C HPLCMT-SOUTH ZN
   Return Air Path Node,Inlet Node,2,NODE 199,SYS_3_PSZ SP-PHARMACY AREA-SPACE FUNCTION SYS-3 FLR-4 SCH-C HPLCMT-SOUTH ZN
 Return Air Path,4,SYS_3_PSZ SP-SEATING AREA GENERAL-SCH-A-SPACE FUNCTION SYS-3 FLR-1 SCH-A HPLCMT-CORE ZN RETURN PATH,SYS_3_PSZ SP-SEATING AREA GENERAL-SCH-A-SPACE FUNCTION SYS-3 FLR-1 SCH-A HPLCMT-CORE ZN
   #Components on Return Air Path,1
   Return Air Path Component,1,AIRLOOPHVAC:ZONEMIXER,AIR LOOP HVAC ZONE MIXER 2,SYS_3_PSZ SP-SEATING AREA GENERAL-SCH-A-SPACE FUNCTION SYS-3 FLR-1 SCH-A HPLCMT-CORE ZN
     #Inlet Nodes on Return Air Path Component,1
     Return Air Path Component Nodes,1,AIRLOOPHVAC:ZONEMIXER,AIR LOOP HVAC ZONE MIXER 2,NODE 56,NODE 49,SYS_3_PSZ SP-SEATING AREA GENERAL-SCH-A-SPACE FUNCTION SYS-3 FLR-1 SCH-A HPLCMT-CORE ZN
! <#Nodes on Return Air Path>,<Number of Nodes>
! <Return Air Path Node>,<Node Type>,<Node Count>,<Node Name>,<AirLoopHVAC Name>
   #Nodes on Return Air Path,2
   Return Air Path Node,Outlet Node,1,NODE 49,SYS_3_PSZ SP-SEATING AREA GENERAL-SCH-A-SPACE FUNCTION SYS-3 FLR-1 SCH-A HPLCMT-CORE ZN
   Return Air Path Node,Inlet Node,2,NODE 56,SYS_3_PSZ SP-SEATING AREA GENERAL-SCH-A-SPACE FUNCTION SYS-3 FLR-1 SCH-A HPLCMT-CORE ZN
 Return Air Path,5,SYS_3_PSZ SP-SEATING AREA GENERAL-SCH-B-SPACE FUNCTION SYS-3 FLR-2 SCH-B HPLCMT-CORE ZN RETURN PATH,SYS_3_PSZ SP-SEATING AREA GENERAL-SCH-B-SPACE FUNCTION SYS-3 FLR-2 SCH-B HPLCMT-CORE ZN
   #Components on Return Air Path,1
   Return Air Path Component,1,AIRLOOPHVAC:ZONEMIXER,AIR LOOP HVAC ZONE MIXER 5,SYS_3_PSZ SP-SEATING AREA GENERAL-SCH-B-SPACE FUNCTION SYS-3 FLR-2 SCH-B HPLCMT-CORE ZN
     #Inlet Nodes on Return Air Path Component,1
     Return Air Path Component Nodes,1,AIRLOOPHVAC:ZONEMIXER,AIR LOOP HVAC ZONE MIXER 5,NODE 95,NODE 88,SYS_3_PSZ SP-SEATING AREA GENERAL-SCH-B-SPACE FUNCTION SYS-3 FLR-2 SCH-B HPLCMT-CORE ZN
! <#Nodes on Return Air Path>,<Number of Nodes>
! <Return Air Path Node>,<Node Type>,<Node Count>,<Node Name>,<AirLoopHVAC Name>
   #Nodes on Return Air Path,2
   Return Air Path Node,Outlet Node,1,NODE 88,SYS_3_PSZ SP-SEATING AREA GENERAL-SCH-B-SPACE FUNCTION SYS-3 FLR-2 SCH-B HPLCMT-CORE ZN
   Return Air Path Node,Inlet Node,2,NODE 95,SYS_3_PSZ SP-SEATING AREA GENERAL-SCH-B-SPACE FUNCTION SYS-3 FLR-2 SCH-B HPLCMT-CORE ZN
 Return Air Path,6,SYS_3_PSZ SP-SEATING AREA GENERAL-SCH-C-SPACE FUNCTION SYS-3 FLR-3 SCH-C HPLCMT-EAST ZN RETURN PATH,SYS_3_PSZ SP-SEATING AREA GENERAL-SCH-C-SPACE FUNCTION SYS-3 FLR-3 SCH-C HPLCMT-EAST ZN
   #Components on Return Air Path,1
   Return Air Path Component,1,AIRLOOPHVAC:ZONEMIXER,AIR LOOP HVAC ZONE MIXER 11,SYS_3_PSZ SP-SEATING AREA GENERAL-SCH-C-SPACE FUNCTION SYS-3 FLR-3 SCH-C HPLCMT-EAST ZN
     #Inlet Nodes on Return Air Path Component,1
     Return Air Path Component Nodes,1,AIRLOOPHVAC:ZONEMIXER,AIR LOOP HVAC ZONE MIXER 11,NODE 173,NODE 166,SYS_3_PSZ SP-SEATING AREA GENERAL-SCH-C-SPACE FUNCTION SYS-3 FLR-3 SCH-C HPLCMT-EAST ZN
! <#Nodes on Return Air Path>,<Number of Nodes>
! <Return Air Path Node>,<Node Type>,<Node Count>,<Node Name>,<AirLoopHVAC Name>
   #Nodes on Return Air Path,2
   Return Air Path Node,Outlet Node,1,NODE 166,SYS_3_PSZ SP-SEATING AREA GENERAL-SCH-C-SPACE FUNCTION SYS-3 FLR-3 SCH-C HPLCMT-EAST ZN
   Return Air Path Node,Inlet Node,2,NODE 173,SYS_3_PSZ SP-SEATING AREA GENERAL-SCH-C-SPACE FUNCTION SYS-3 FLR-3 SCH-C HPLCMT-EAST ZN
 Return Air Path,7,SYS_3_PSZ SP-SEATING AREA GENERAL-SCH-D-SPACE FUNCTION SYS-3 FLR-1 SCH-D HPLCMT-EAST ZN RETURN PATH,SYS_3_PSZ SP-SEATING AREA GENERAL-SCH-D-SPACE FUNCTION SYS-3 FLR-1 SCH-D HPLCMT-EAST ZN
   #Components on Return Air Path,1
   Return Air Path Component,1,AIRLOOPHVAC:ZONEMIXER,AIR LOOP HVAC ZONE MIXER 3,SYS_3_PSZ SP-SEATING AREA GENERAL-SCH-D-SPACE FUNCTION SYS-3 FLR-1 SCH-D HPLCMT-EAST ZN
     #Inlet Nodes on Return Air Path Component,1
     Return Air Path Component Nodes,1,AIRLOOPHVAC:ZONEMIXER,AIR LOOP HVAC ZONE MIXER 3,NODE 69,NODE 62,SYS_3_PSZ SP-SEATING AREA GENERAL-SCH-D-SPACE FUNCTION SYS-3 FLR-1 SCH-D HPLCMT-EAST ZN
! <#Nodes on Return Air Path>,<Number of Nodes>
! <Return Air Path Node>,<Node Type>,<Node Count>,<Node Name>,<AirLoopHVAC Name>
   #Nodes on Return Air Path,2
   Return Air Path Node,Outlet Node,1,NODE 62,SYS_3_PSZ SP-SEATING AREA GENERAL-SCH-D-SPACE FUNCTION SYS-3 FLR-1 SCH-D HPLCMT-EAST ZN
   Return Air Path Node,Inlet Node,2,NODE 69,SYS_3_PSZ SP-SEATING AREA GENERAL-SCH-D-SPACE FUNCTION SYS-3 FLR-1 SCH-D HPLCMT-EAST ZN
 Return Air Path,8,SYS_3_PSZ SP-SEATING AREA GENERAL-SCH-E-SPACE FUNCTION SYS-3 FLR-4 SCH-E HPLCMT-WEST ZN RETURN PATH,SYS_3_PSZ SP-SEATING AREA GENERAL-SCH-E-SPACE FUNCTION SYS-3 FLR-4 SCH-E HPLCMT-WEST ZN
   #Components on Return Air Path,1
   Return Air Path Component,1,AIRLOOPHVAC:ZONEMIXER,AIR LOOP HVAC ZONE MIXER 14,SYS_3_PSZ SP-SEATING AREA GENERAL-SCH-E-SPACE FUNCTION SYS-3 FLR-4 SCH-E HPLCMT-WEST ZN
     #Inlet Nodes on Return Air Path Component,1
     Return Air Path Component Nodes,1,AIRLOOPHVAC:ZONEMIXER,AIR LOOP HVAC ZONE MIXER 14,NODE 212,NODE 205,SYS_3_PSZ SP-SEATING AREA GENERAL-SCH-E-SPACE FUNCTION SYS-3 FLR-4 SCH-E HPLCMT-WEST ZN
! <#Nodes on Return Air Path>,<Number of Nodes>
! <Return Air Path Node>,<Node Type>,<Node Count>,<Node Name>,<AirLoopHVAC Name>
   #Nodes on Return Air Path,2
   Return Air Path Node,Outlet Node,1,NODE 205,SYS_3_PSZ SP-SEATING AREA GENERAL-SCH-E-SPACE FUNCTION SYS-3 FLR-4 SCH-E HPLCMT-WEST ZN
   Return Air Path Node,Inlet Node,2,NODE 212,SYS_3_PSZ SP-SEATING AREA GENERAL-SCH-E-SPACE FUNCTION SYS-3 FLR-4 SCH-E HPLCMT-WEST ZN
 Return Air Path,9,SYS_3_PSZ SP-SEATING AREA GENERAL-SCH-F-SPACE FUNCTION SYS-3 FLR-3 SCH-F HPLCMT-WEST ZN RETURN PATH,SYS_3_PSZ SP-SEATING AREA GENERAL-SCH-F-SPACE FUNCTION SYS-3 FLR-3 SCH-F HPLCMT-WEST ZN
   #Components on Return Air Path,1
   Return Air Path Component,1,AIRLOOPHVAC:ZONEMIXER,AIR LOOP HVAC ZONE MIXER 12,SYS_3_PSZ SP-SEATING AREA GENERAL-SCH-F-SPACE FUNCTION SYS-3 FLR-3 SCH-F HPLCMT-WEST ZN
     #Inlet Nodes on Return Air Path Component,1
     Return Air Path Component Nodes,1,AIRLOOPHVAC:ZONEMIXER,AIR LOOP HVAC ZONE MIXER 12,NODE 186,NODE 179,SYS_3_PSZ SP-SEATING AREA GENERAL-SCH-F-SPACE FUNCTION SYS-3 FLR-3 SCH-F HPLCMT-WEST ZN
! <#Nodes on Return Air Path>,<Number of Nodes>
! <Return Air Path Node>,<Node Type>,<Node Count>,<Node Name>,<AirLoopHVAC Name>
   #Nodes on Return Air Path,2
   Return Air Path Node,Outlet Node,1,NODE 179,SYS_3_PSZ SP-SEATING AREA GENERAL-SCH-F-SPACE FUNCTION SYS-3 FLR-3 SCH-F HPLCMT-WEST ZN
   Return Air Path Node,Inlet Node,2,NODE 186,SYS_3_PSZ SP-SEATING AREA GENERAL-SCH-F-SPACE FUNCTION SYS-3 FLR-3 SCH-F HPLCMT-WEST ZN
 Return Air Path,10,SYS_3_PSZ SP-SEATING AREA GENERAL-SCH-G-SPACE FUNCTION SYS-3 FLR-2 SCH-G HPLCMT-NORTH ZN RETURN PATH,SYS_3_PSZ SP-SEATING AREA GENERAL-SCH-G-SPACE FUNCTION SYS-3 FLR-2 SCH-G HPLCMT-NORTH ZN
   #Components on Return Air Path,1
   Return Air Path Component,1,AIRLOOPHVAC:ZONEMIXER,AIR LOOP HVAC ZONE MIXER 6,SYS_3_PSZ SP-SEATING AREA GENERAL-SCH-G-SPACE FUNCTION SYS-3 FLR-2 SCH-G HPLCMT-NORTH ZN
     #Inlet Nodes on Return Air Path Component,1
     Return Air Path Component Nodes,1,AIRLOOPHVAC:ZONEMIXER,AIR LOOP HVAC ZONE MIXER 6,NODE 108,NODE 101,SYS_3_PSZ SP-SEATING AREA GENERAL-SCH-G-SPACE FUNCTION SYS-3 FLR-2 SCH-G HPLCMT-NORTH ZN
! <#Nodes on Return Air Path>,<Number of Nodes>
! <Return Air Path Node>,<Node Type>,<Node Count>,<Node Name>,<AirLoopHVAC Name>
   #Nodes on Return Air Path,2
   Return Air Path Node,Outlet Node,1,NODE 101,SYS_3_PSZ SP-SEATING AREA GENERAL-SCH-G-SPACE FUNCTION SYS-3 FLR-2 SCH-G HPLCMT-NORTH ZN
   Return Air Path Node,Inlet Node,2,NODE 108,SYS_3_PSZ SP-SEATING AREA GENERAL-SCH-G-SPACE FUNCTION SYS-3 FLR-2 SCH-G HPLCMT-NORTH ZN
 Return Air Path,11,SYS_3_PSZ SP-SEATING AREA GENERAL-SCH-H-SPACE FUNCTION SYS-3 FLR-2 SCH-H HPLCMT-WEST ZN RETURN PATH,SYS_3_PSZ SP-SEATING AREA GENERAL-SCH-H-SPACE FUNCTION SYS-3 FLR-2 SCH-H HPLCMT-WEST ZN
   #Components on Return Air Path,1
   Return Air Path Component,1,AIRLOOPHVAC:ZONEMIXER,AIR LOOP HVAC ZONE MIXER 7,SYS_3_PSZ SP-SEATING AREA GENERAL-SCH-H-SPACE FUNCTION SYS-3 FLR-2 SCH-H HPLCMT-WEST ZN
     #Inlet Nodes on Return Air Path Component,1
     Return Air Path Component Nodes,1,AIRLOOPHVAC:ZONEMIXER,AIR LOOP HVAC ZONE MIXER 7,NODE 121,NODE 114,SYS_3_PSZ SP-SEATING AREA GENERAL-SCH-H-SPACE FUNCTION SYS-3 FLR-2 SCH-H HPLCMT-WEST ZN
! <#Nodes on Return Air Path>,<Number of Nodes>
! <Return Air Path Node>,<Node Type>,<Node Count>,<Node Name>,<AirLoopHVAC Name>
   #Nodes on Return Air Path,2
   Return Air Path Node,Outlet Node,1,NODE 114,SYS_3_PSZ SP-SEATING AREA GENERAL-SCH-H-SPACE FUNCTION SYS-3 FLR-2 SCH-H HPLCMT-WEST ZN
   Return Air Path Node,Inlet Node,2,NODE 121,SYS_3_PSZ SP-SEATING AREA GENERAL-SCH-H-SPACE FUNCTION SYS-3 FLR-2 SCH-H HPLCMT-WEST ZN
 Return Air Path,12,SYS_3_PSZ SP-SEATING AREA GENERAL-SCH-I-SPACE FUNCTION SYS-3 FLR-2 SCH-I HPLCMT-EAST ZN RETURN PATH,SYS_3_PSZ SP-SEATING AREA GENERAL-SCH-I-SPACE FUNCTION SYS-3 FLR-2 SCH-I HPLCMT-EAST ZN
   #Components on Return Air Path,1
   Return Air Path Component,1,AIRLOOPHVAC:ZONEMIXER,AIR LOOP HVAC ZONE MIXER 8,SYS_3_PSZ SP-SEATING AREA GENERAL-SCH-I-SPACE FUNCTION SYS-3 FLR-2 SCH-I HPLCMT-EAST ZN
     #Inlet Nodes on Return Air Path Component,1
     Return Air Path Component Nodes,1,AIRLOOPHVAC:ZONEMIXER,AIR LOOP HVAC ZONE MIXER 8,NODE 134,NODE 127,SYS_3_PSZ SP-SEATING AREA GENERAL-SCH-I-SPACE FUNCTION SYS-3 FLR-2 SCH-I HPLCMT-EAST ZN
! <#Nodes on Return Air Path>,<Number of Nodes>
! <Return Air Path Node>,<Node Type>,<Node Count>,<Node Name>,<AirLoopHVAC Name>
   #Nodes on Return Air Path,2
   Return Air Path Node,Outlet Node,1,NODE 127,SYS_3_PSZ SP-SEATING AREA GENERAL-SCH-I-SPACE FUNCTION SYS-3 FLR-2 SCH-I HPLCMT-EAST ZN
   Return Air Path Node,Inlet Node,2,NODE 134,SYS_3_PSZ SP-SEATING AREA GENERAL-SCH-I-SPACE FUNCTION SYS-3 FLR-2 SCH-I HPLCMT-EAST ZN
 Return Air Path,13,SYS_3_PSZ SP-SEATING AREA GENERAL-SCH-J-SPACE FUNCTION SYS-3 FLR-3 SCH-J HPLCMT-NORTH ZN RETURN PATH,SYS_3_PSZ SP-SEATING AREA GENERAL-SCH-J-SPACE FUNCTION SYS-3 FLR-3 SCH-J HPLCMT-NORTH ZN
   #Components on Return Air Path,1
   Return Air Path Component,1,AIRLOOPHVAC:ZONEMIXER,AIR LOOP HVAC ZONE MIXER 9,SYS_3_PSZ SP-SEATING AREA GENERAL-SCH-J-SPACE FUNCTION SYS-3 FLR-3 SCH-J HPLCMT-NORTH ZN
     #Inlet Nodes on Return Air Path Component,1
     Return Air Path Component Nodes,1,AIRLOOPHVAC:ZONEMIXER,AIR LOOP HVAC ZONE MIXER 9,NODE 147,NODE 140,SYS_3_PSZ SP-SEATING AREA GENERAL-SCH-J-SPACE FUNCTION SYS-3 FLR-3 SCH-J HPLCMT-NORTH ZN
! <#Nodes on Return Air Path>,<Number of Nodes>
! <Return Air Path Node>,<Node Type>,<Node Count>,<Node Name>,<AirLoopHVAC Name>
   #Nodes on Return Air Path,2
   Return Air Path Node,Outlet Node,1,NODE 140,SYS_3_PSZ SP-SEATING AREA GENERAL-SCH-J-SPACE FUNCTION SYS-3 FLR-3 SCH-J HPLCMT-NORTH ZN
   Return Air Path Node,Inlet Node,2,NODE 147,SYS_3_PSZ SP-SEATING AREA GENERAL-SCH-J-SPACE FUNCTION SYS-3 FLR-3 SCH-J HPLCMT-NORTH ZN
 Return Air Path,14,SYS_3_PSZ SP-SEATING AREA GENERAL-SCH-K-SPACE FUNCTION SYS-3 FLR-2 SCH-K HPLCMT-SOUTH ZN RETURN PATH,SYS_3_PSZ SP-SEATING AREA GENERAL-SCH-K-SPACE FUNCTION SYS-3 FLR-2 SCH-K HPLCMT-SOUTH ZN
   #Components on Return Air Path,1
   Return Air Path Component,1,AIRLOOPHVAC:ZONEMIXER,AIR LOOP HVAC ZONE MIXER 4,SYS_3_PSZ SP-SEATING AREA GENERAL-SCH-K-SPACE FUNCTION SYS-3 FLR-2 SCH-K HPLCMT-SOUTH ZN
     #Inlet Nodes on Return Air Path Component,1
     Return Air Path Component Nodes,1,AIRLOOPHVAC:ZONEMIXER,AIR LOOP HVAC ZONE MIXER 4,NODE 82,NODE 75,SYS_3_PSZ SP-SEATING AREA GENERAL-SCH-K-SPACE FUNCTION SYS-3 FLR-2 SCH-K HPLCMT-SOUTH ZN
! <#Nodes on Return Air Path>,<Number of Nodes>
! <Return Air Path Node>,<Node Type>,<Node Count>,<Node Name>,<AirLoopHVAC Name>
   #Nodes on Return Air Path,2
   Return Air Path Node,Outlet Node,1,NODE 75,SYS_3_PSZ SP-SEATING AREA GENERAL-SCH-K-SPACE FUNCTION SYS-3 FLR-2 SCH-K HPLCMT-SOUTH ZN
   Return Air Path Node,Inlet Node,2,NODE 82,SYS_3_PSZ SP-SEATING AREA GENERAL-SCH-K-SPACE FUNCTION SYS-3 FLR-2 SCH-K HPLCMT-SOUTH ZN
 Return Air Path,15,SYS_6_VAV WITH REHEAT RETURN PATH,SYS_6_VAV WITH REHEAT
   #Components on Return Air Path,1
   Return Air Path Component,1,AIRLOOPHVAC:ZONEMIXER,AIR LOOP HVAC ZONE MIXER 15,SYS_6_VAV WITH REHEAT
     #Inlet Nodes on Return Air Path Component,2
     Return Air Path Component Nodes,1,AIRLOOPHVAC:ZONEMIXER,AIR LOOP HVAC ZONE MIXER 15,NODE 258,NODE 245,SYS_6_VAV WITH REHEAT
     Return Air Path Component Nodes,2,AIRLOOPHVAC:ZONEMIXER,AIR LOOP HVAC ZONE MIXER 15,NODE 265,NODE 245,SYS_6_VAV WITH REHEAT
! <#Nodes on Return Air Path>,<Number of Nodes>
! <Return Air Path Node>,<Node Type>,<Node Count>,<Node Name>,<AirLoopHVAC Name>
   #Nodes on Return Air Path,3
   Return Air Path Node,Outlet Node,1,NODE 245,SYS_6_VAV WITH REHEAT
   Return Air Path Node,Inlet Node,2,NODE 258,SYS_6_VAV WITH REHEAT
   Return Air Path Node,Inlet Node,3,NODE 265,SYS_6_VAV WITH REHEAT
 Return Air Path,16,SYS_6_VAV WITH REHEAT 1 RETURN PATH,SYS_6_VAV WITH REHEAT 1
   #Components on Return Air Path,1
   Return Air Path Component,1,AIRLOOPHVAC:ZONEMIXER,AIR LOOP HVAC ZONE MIXER 16,SYS_6_VAV WITH REHEAT 1
     #Inlet Nodes on Return Air Path Component,1
     Return Air Path Component Nodes,1,AIRLOOPHVAC:ZONEMIXER,AIR LOOP HVAC ZONE MIXER 16,NODE 286,NODE 272,SYS_6_VAV WITH REHEAT 1
! <#Nodes on Return Air Path>,<Number of Nodes>
! <Return Air Path Node>,<Node Type>,<Node Count>,<Node Name>,<AirLoopHVAC Name>
   #Nodes on Return Air Path,2
   Return Air Path Node,Outlet Node,1,NODE 272,SYS_6_VAV WITH REHEAT 1
   Return Air Path Node,Inlet Node,2,NODE 286,SYS_6_VAV WITH REHEAT 1
 Return Air Path,17,SYS_6_VAV WITH REHEAT 2 RETURN PATH,SYS_6_VAV WITH REHEAT 2
   #Components on Return Air Path,1
   Return Air Path Component,1,AIRLOOPHVAC:ZONEMIXER,AIR LOOP HVAC ZONE MIXER 17,SYS_6_VAV WITH REHEAT 2
     #Inlet Nodes on Return Air Path Component,3
     Return Air Path Component Nodes,1,AIRLOOPHVAC:ZONEMIXER,AIR LOOP HVAC ZONE MIXER 17,NODE 307,NODE 293,SYS_6_VAV WITH REHEAT 2
     Return Air Path Component Nodes,2,AIRLOOPHVAC:ZONEMIXER,AIR LOOP HVAC ZONE MIXER 17,NODE 314,NODE 293,SYS_6_VAV WITH REHEAT 2
     Return Air Path Component Nodes,3,AIRLOOPHVAC:ZONEMIXER,AIR LOOP HVAC ZONE MIXER 17,NODE 321,NODE 293,SYS_6_VAV WITH REHEAT 2
! <#Nodes on Return Air Path>,<Number of Nodes>
! <Return Air Path Node>,<Node Type>,<Node Count>,<Node Name>,<AirLoopHVAC Name>
   #Nodes on Return Air Path,4
   Return Air Path Node,Outlet Node,1,NODE 293,SYS_6_VAV WITH REHEAT 2
   Return Air Path Node,Inlet Node,2,NODE 307,SYS_6_VAV WITH REHEAT 2
   Return Air Path Node,Inlet Node,3,NODE 314,SYS_6_VAV WITH REHEAT 2
   Return Air Path Node,Inlet Node,4,NODE 321,SYS_6_VAV WITH REHEAT 2
! ===============================================================
! #Outdoor Air Nodes,<Number of Outdoor Air Nodes>
 #Outdoor Air Nodes,18
! <Outdoor Air Node>,<NodeNumber>,<Node Name>
 Outdoor Air Node,349,NODE 155
 Outdoor Air Node,350,NODE 39
 Outdoor Air Node,351,NODE 194
 Outdoor Air Node,352,NODE 51
 Outdoor Air Node,353,NODE 90
 Outdoor Air Node,354,NODE 168
 Outdoor Air Node,355,NODE 64
 Outdoor Air Node,356,NODE 207
 Outdoor Air Node,357,NODE 181
 Outdoor Air Node,358,NODE 103
 Outdoor Air Node,359,NODE 116
 Outdoor Air Node,360,NODE 129
 Outdoor Air Node,361,NODE 142
 Outdoor Air Node,362,NODE 77
 Outdoor Air Node,363,NODE 250
 Outdoor Air Node,364,NODE 278
 Outdoor Air Node,365,NODE 299
 Outdoor Air Node,366,MODEL OUTDOOR AIR NODE
! ===============================================================
! <#Component Sets>,<Number of Component Sets>
 #Component Sets,214
! <Component Set>,<Component Set Count>,<Parent Object Type>,<Parent Object Name>,<Component Type>,<Component Name>,<Inlet Node ID>,<Outlet Node ID>,<Description>
 Component Set,1,BRANCH,SYS_3_PSZ SP-LOUNGE/BREAK ROOM - HEALTH CARE FACILITY-SPACE FUNCTION SYS-3 FLR-3 SCH-B HPLCMT-SOUTH ZN MAIN BRANCH,AIRLOOPHVAC:OUTDOORAIRSYSTEM,AIR LOOP HVAC OUTDOOR AIR SYSTEM 10,NODE 150,NODE 159,Air Nodes
 Component Set,2,BRANCH,SYS_3_PSZ SP-LOUNGE/BREAK ROOM - HEALTH CARE FACILITY-SPACE FUNCTION SYS-3 FLR-3 SCH-B HPLCMT-SOUTH ZN MAIN BRANCH,COILSYSTEM:COOLING:DX,COIL COOLING DX SINGLE SPEED 10 237KBTU/HR 9.08EER COILSYSTEM,NODE 159,NODE 158,Air Nodes
 Component Set,3,BRANCH,SYS_3_PSZ SP-LOUNGE/BREAK ROOM - HEALTH CARE FACILITY-SPACE FUNCTION SYS-3 FLR-3 SCH-B HPLCMT-SOUTH ZN MAIN BRANCH,COIL:HEATING:FUEL,COIL HEATING GAS 10,NODE 158,NODE 157,Air Nodes
 Component Set,4,BRANCH,SYS_3_PSZ SP-LOUNGE/BREAK ROOM - HEALTH CARE FACILITY-SPACE FUNCTION SYS-3 FLR-3 SCH-B HPLCMT-SOUTH ZN MAIN BRANCH,FAN:CONSTANTVOLUME,FAN CONSTANT VOLUME 10,NODE 157,NODE 151,Air Nodes
 Component Set,5,BRANCH,SYS_3_PSZ SP-LOUNGE/BREAK ROOM - OTHER-SPACE FUNCTION SYS-3 FLR-1 SCH-B HPLCMT-WEST ZN MAIN BRANCH,AIRLOOPHVAC:OUTDOORAIRSYSTEM,AIR LOOP HVAC OUTDOOR AIR SYSTEM 1,NODE 34,NODE 43,Air Nodes
 Component Set,6,BRANCH,SYS_3_PSZ SP-LOUNGE/BREAK ROOM - OTHER-SPACE FUNCTION SYS-3 FLR-1 SCH-B HPLCMT-WEST ZN MAIN BRANCH,COILSYSTEM:COOLING:DX,COIL COOLING DX SINGLE SPEED 1 110KBTU/HR 9.26EER COILSYSTEM,NODE 43,NODE 42,Air Nodes
 Component Set,7,BRANCH,SYS_3_PSZ SP-LOUNGE/BREAK ROOM - OTHER-SPACE FUNCTION SYS-3 FLR-1 SCH-B HPLCMT-WEST ZN MAIN BRANCH,COIL:HEATING:FUEL,COIL HEATING GAS 1,NODE 42,NODE 41,Air Nodes
 Component Set,8,BRANCH,SYS_3_PSZ SP-LOUNGE/BREAK ROOM - OTHER-SPACE FUNCTION SYS-3 FLR-1 SCH-B HPLCMT-WEST ZN MAIN BRANCH,FAN:CONSTANTVOLUME,FAN CONSTANT VOLUME 1,NODE 41,NODE 35,Air Nodes
 Component Set,9,BRANCH,SYS_3_PSZ SP-PHARMACY AREA-SPACE FUNCTION SYS-3 FLR-4 SCH-C HPLCMT-SOUTH ZN MAIN BRANCH,AIRLOOPHVAC:OUTDOORAIRSYSTEM,AIR LOOP HVAC OUTDOOR AIR SYSTEM 13,NODE 189,NODE 198,Air Nodes
 Component Set,10,BRANCH,SYS_3_PSZ SP-PHARMACY AREA-SPACE FUNCTION SYS-3 FLR-4 SCH-C HPLCMT-SOUTH ZN MAIN BRANCH,COILSYSTEM:COOLING:DX,COIL COOLING DX SINGLE SPEED 13 345KBTU/HR 8.21EER COILSYSTEM,NODE 198,NODE 197,Air Nodes
 Component Set,11,BRANCH,SYS_3_PSZ SP-PHARMACY AREA-SPACE FUNCTION SYS-3 FLR-4 SCH-C HPLCMT-SOUTH ZN MAIN BRANCH,COIL:HEATING:FUEL,COIL HEATING GAS 13,NODE 197,NODE 196,Air Nodes
 Component Set,12,BRANCH,SYS_3_PSZ SP-PHARMACY AREA-SPACE FUNCTION SYS-3 FLR-4 SCH-C HPLCMT-SOUTH ZN MAIN BRANCH,FAN:CONSTANTVOLUME,FAN CONSTANT VOLUME 13,NODE 196,NODE 190,Air Nodes
 Component Set,13,BRANCH,SYS_3_PSZ SP-SEATING AREA GENERAL-SCH-A-SPACE FUNCTION SYS-3 FLR-1 SCH-A HPLCMT-CORE ZN MAIN BRANCH,AIRLOOPHVAC:OUTDOORAIRSYSTEM,AIR LOOP HVAC OUTDOOR AIR SYSTEM 2,NODE 46,NODE 55,Air Nodes
 Component Set,14,BRANCH,SYS_3_PSZ SP-SEATING AREA GENERAL-SCH-A-SPACE FUNCTION SYS-3 FLR-1 SCH-A HPLCMT-CORE ZN MAIN BRANCH,COILSYSTEM:COOLING:DX,COIL COOLING DX SINGLE SPEED 2 587KBTU/HR 8.21EER COILSYSTEM,NODE 55,NODE 54,Air Nodes
 Component Set,15,BRANCH,SYS_3_PSZ SP-SEATING AREA GENERAL-SCH-A-SPACE FUNCTION SYS-3 FLR-1 SCH-A HPLCMT-CORE ZN MAIN BRANCH,COIL:HEATING:FUEL,COIL HEATING GAS 2,NODE 54,NODE 53,Air Nodes
 Component Set,16,BRANCH,SYS_3_PSZ SP-SEATING AREA GENERAL-SCH-A-SPACE FUNCTION SYS-3 FLR-1 SCH-A HPLCMT-CORE ZN MAIN BRANCH,FAN:CONSTANTVOLUME,FAN CONSTANT VOLUME 2,NODE 53,NODE 47,Air Nodes
 Component Set,17,BRANCH,SYS_3_PSZ SP-SEATING AREA GENERAL-SCH-B-SPACE FUNCTION SYS-3 FLR-2 SCH-B HPLCMT-CORE ZN MAIN BRANCH,AIRLOOPHVAC:OUTDOORAIRSYSTEM,AIR LOOP HVAC OUTDOOR AIR SYSTEM 5,NODE 85,NODE 94,Air Nodes
 Component Set,18,BRANCH,SYS_3_PSZ SP-SEATING AREA GENERAL-SCH-B-SPACE FUNCTION SYS-3 FLR-2 SCH-B HPLCMT-CORE ZN MAIN BRANCH,COILSYSTEM:COOLING:DX,COIL COOLING DX SINGLE SPEED 5 572KBTU/HR 8.21EER COILSYSTEM,NODE 94,NODE 93,Air Nodes
 Component Set,19,BRANCH,SYS_3_PSZ SP-SEATING AREA GENERAL-SCH-B-SPACE FUNCTION SYS-3 FLR-2 SCH-B HPLCMT-CORE ZN MAIN BRANCH,COIL:HEATING:FUEL,COIL HEATING GAS 5,NODE 93,NODE 92,Air Nodes
 Component Set,20,BRANCH,SYS_3_PSZ SP-SEATING AREA GENERAL-SCH-B-SPACE FUNCTION SYS-3 FLR-2 SCH-B HPLCMT-CORE ZN MAIN BRANCH,FAN:CONSTANTVOLUME,FAN CONSTANT VOLUME 5,NODE 92,NODE 86,Air Nodes
 Component Set,21,BRANCH,SYS_3_PSZ SP-SEATING AREA GENERAL-SCH-C-SPACE FUNCTION SYS-3 FLR-3 SCH-C HPLCMT-EAST ZN MAIN BRANCH,AIRLOOPHVAC:OUTDOORAIRSYSTEM,AIR LOOP HVAC OUTDOOR AIR SYSTEM 11,NODE 163,NODE 172,Air Nodes
 Component Set,22,BRANCH,SYS_3_PSZ SP-SEATING AREA GENERAL-SCH-C-SPACE FUNCTION SYS-3 FLR-3 SCH-C HPLCMT-EAST ZN MAIN BRANCH,COILSYSTEM:COOLING:DX,COIL COOLING DX SINGLE SPEED 11 429KBTU/HR 8.21EER COILSYSTEM,NODE 172,NODE 171,Air Nodes
 Component Set,23,BRANCH,SYS_3_PSZ SP-SEATING AREA GENERAL-SCH-C-SPACE FUNCTION SYS-3 FLR-3 SCH-C HPLCMT-EAST ZN MAIN BRANCH,COIL:HEATING:FUEL,COIL HEATING GAS 11,NODE 171,NODE 170,Air Nodes
 Component Set,24,BRANCH,SYS_3_PSZ SP-SEATING AREA GENERAL-SCH-C-SPACE FUNCTION SYS-3 FLR-3 SCH-C HPLCMT-EAST ZN MAIN BRANCH,FAN:CONSTANTVOLUME,FAN CONSTANT VOLUME 11,NODE 170,NODE 164,Air Nodes
 Component Set,25,BRANCH,SYS_3_PSZ SP-SEATING AREA GENERAL-SCH-D-SPACE FUNCTION SYS-3 FLR-1 SCH-D HPLCMT-EAST ZN MAIN BRANCH,AIRLOOPHVAC:OUTDOORAIRSYSTEM,AIR LOOP HVAC OUTDOOR AIR SYSTEM 3,NODE 59,NODE 68,Air Nodes
 Component Set,26,BRANCH,SYS_3_PSZ SP-SEATING AREA GENERAL-SCH-D-SPACE FUNCTION SYS-3 FLR-1 SCH-D HPLCMT-EAST ZN MAIN BRANCH,COILSYSTEM:COOLING:DX,COIL COOLING DX SINGLE SPEED 3 444KBTU/HR 8.21EER COILSYSTEM,NODE 68,NODE 67,Air Nodes
 Component Set,27,BRANCH,SYS_3_PSZ SP-SEATING AREA GENERAL-SCH-D-SPACE FUNCTION SYS-3 FLR-1 SCH-D HPLCMT-EAST ZN MAIN BRANCH,COIL:HEATING:FUEL,COIL HEATING GAS 3,NODE 67,NODE 66,Air Nodes
 Component Set,28,BRANCH,SYS_3_PSZ SP-SEATING AREA GENERAL-SCH-D-SPACE FUNCTION SYS-3 FLR-1 SCH-D HPLCMT-EAST ZN MAIN BRANCH,FAN:CONSTANTVOLUME,FAN CONSTANT VOLUME 3,NODE 66,NODE 60,Air Nodes
 Component Set,29,BRANCH,SYS_3_PSZ SP-SEATING AREA GENERAL-SCH-E-SPACE FUNCTION SYS-3 FLR-4 SCH-E HPLCMT-WEST ZN MAIN BRANCH,AIRLOOPHVAC:OUTDOORAIRSYSTEM,AIR LOOP HVAC OUTDOOR AIR SYSTEM 14,NODE 202,NODE 211,Air Nodes
 Component Set,30,BRANCH,SYS_3_PSZ SP-SEATING AREA GENERAL-SCH-E-SPACE FUNCTION SYS-3 FLR-4 SCH-E HPLCMT-WEST ZN MAIN BRANCH,COILSYSTEM:COOLING:DX,COIL COOLING DX SINGLE SPEED 14 454KBTU/HR 8.21EER COILSYSTEM,NODE 211,NODE 210,Air Nodes
 Component Set,31,BRANCH,SYS_3_PSZ SP-SEATING AREA GENERAL-SCH-E-SPACE FUNCTION SYS-3 FLR-4 SCH-E HPLCMT-WEST ZN MAIN BRANCH,COIL:HEATING:FUEL,COIL HEATING GAS 14,NODE 210,NODE 209,Air Nodes
 Component Set,32,BRANCH,SYS_3_PSZ SP-SEATING AREA GENERAL-SCH-E-SPACE FUNCTION SYS-3 FLR-4 SCH-E HPLCMT-WEST ZN MAIN BRANCH,FAN:CONSTANTVOLUME,FAN CONSTANT VOLUME 14,NODE 209,NODE 203,Air Nodes
 Component Set,33,BRANCH,SYS_3_PSZ SP-SEATING AREA GENERAL-SCH-F-SPACE FUNCTION SYS-3 FLR-3 SCH-F HPLCMT-WEST ZN MAIN BRANCH,AIRLOOPHVAC:OUTDOORAIRSYSTEM,AIR LOOP HVAC OUTDOOR AIR SYSTEM 12,NODE 176,NODE 185,Air Nodes
 Component Set,34,BRANCH,SYS_3_PSZ SP-SEATING AREA GENERAL-SCH-F-SPACE FUNCTION SYS-3 FLR-3 SCH-F HPLCMT-WEST ZN MAIN BRANCH,COILSYSTEM:COOLING:DX,COIL COOLING DX SINGLE SPEED 12 429KBTU/HR 8.21EER COILSYSTEM,NODE 185,NODE 184,Air Nodes
 Component Set,35,BRANCH,SYS_3_PSZ SP-SEATING AREA GENERAL-SCH-F-SPACE FUNCTION SYS-3 FLR-3 SCH-F HPLCMT-WEST ZN MAIN BRANCH,COIL:HEATING:FUEL,COIL HEATING GAS 12,NODE 184,NODE 183,Air Nodes
 Component Set,36,BRANCH,SYS_3_PSZ SP-SEATING AREA GENERAL-SCH-F-SPACE FUNCTION SYS-3 FLR-3 SCH-F HPLCMT-WEST ZN MAIN BRANCH,FAN:CONSTANTVOLUME,FAN CONSTANT VOLUME 12,NODE 183,NODE 177,Air Nodes
 Component Set,37,BRANCH,SYS_3_PSZ SP-SEATING AREA GENERAL-SCH-G-SPACE FUNCTION SYS-3 FLR-2 SCH-G HPLCMT-NORTH ZN MAIN BRANCH,AIRLOOPHVAC:OUTDOORAIRSYSTEM,AIR LOOP HVAC OUTDOOR AIR SYSTEM 6,NODE 98,NODE 107,Air Nodes
 Component Set,38,BRANCH,SYS_3_PSZ SP-SEATING AREA GENERAL-SCH-G-SPACE FUNCTION SYS-3 FLR-2 SCH-G HPLCMT-NORTH ZN MAIN BRANCH,COILSYSTEM:COOLING:DX,COIL COOLING DX SINGLE SPEED 6 429KBTU/HR 8.21EER COILSYSTEM,NODE 107,NODE 106,Air Nodes
 Component Set,39,BRANCH,SYS_3_PSZ SP-SEATING AREA GENERAL-SCH-G-SPACE FUNCTION SYS-3 FLR-2 SCH-G HPLCMT-NORTH ZN MAIN BRANCH,COIL:HEATING:FUEL,COIL HEATING GAS 6,NODE 106,NODE 105,Air Nodes
 Component Set,40,BRANCH,SYS_3_PSZ SP-SEATING AREA GENERAL-SCH-G-SPACE FUNCTION SYS-3 FLR-2 SCH-G HPLCMT-NORTH ZN MAIN BRANCH,FAN:CONSTANTVOLUME,FAN CONSTANT VOLUME 6,NODE 105,NODE 99,Air Nodes
 Component Set,41,BRANCH,SYS_3_PSZ SP-SEATING AREA GENERAL-SCH-H-SPACE FUNCTION SYS-3 FLR-2 SCH-H HPLCMT-WEST ZN MAIN BRANCH,AIRLOOPHVAC:OUTDOORAIRSYSTEM,AIR LOOP HVAC OUTDOOR AIR SYSTEM 7,NODE 111,NODE 120,Air Nodes
 Component Set,42,BRANCH,SYS_3_PSZ SP-SEATING AREA GENERAL-SCH-H-SPACE FUNCTION SYS-3 FLR-2 SCH-H HPLCMT-WEST ZN MAIN BRANCH,COILSYSTEM:COOLING:DX,COIL COOLING DX SINGLE SPEED 7 429KBTU/HR 8.21EER COILSYSTEM,NODE 120,NODE 119,Air Nodes
 Component Set,43,BRANCH,SYS_3_PSZ SP-SEATING AREA GENERAL-SCH-H-SPACE FUNCTION SYS-3 FLR-2 SCH-H HPLCMT-WEST ZN MAIN BRANCH,COIL:HEATING:FUEL,COIL HEATING GAS 7,NODE 119,NODE 118,Air Nodes
 Component Set,44,BRANCH,SYS_3_PSZ SP-SEATING AREA GENERAL-SCH-H-SPACE FUNCTION SYS-3 FLR-2 SCH-H HPLCMT-WEST ZN MAIN BRANCH,FAN:CONSTANTVOLUME,FAN CONSTANT VOLUME 7,NODE 118,NODE 112,Air Nodes
 Component Set,45,BRANCH,SYS_3_PSZ SP-SEATING AREA GENERAL-SCH-I-SPACE FUNCTION SYS-3 FLR-2 SCH-I HPLCMT-EAST ZN MAIN BRANCH,AIRLOOPHVAC:OUTDOORAIRSYSTEM,AIR LOOP HVAC OUTDOOR AIR SYSTEM 8,NODE 124,NODE 133,Air Nodes
 Component Set,46,BRANCH,SYS_3_PSZ SP-SEATING AREA GENERAL-SCH-I-SPACE FUNCTION SYS-3 FLR-2 SCH-I HPLCMT-EAST ZN MAIN BRANCH,COILSYSTEM:COOLING:DX,COIL COOLING DX SINGLE SPEED 8 488KBTU/HR 8.21EER COILSYSTEM,NODE 133,NODE 132,Air Nodes
 Component Set,47,BRANCH,SYS_3_PSZ SP-SEATING AREA GENERAL-SCH-I-SPACE FUNCTION SYS-3 FLR-2 SCH-I HPLCMT-EAST ZN MAIN BRANCH,COIL:HEATING:FUEL,COIL HEATING GAS 8,NODE 132,NODE 131,Air Nodes
 Component Set,48,BRANCH,SYS_3_PSZ SP-SEATING AREA GENERAL-SCH-I-SPACE FUNCTION SYS-3 FLR-2 SCH-I HPLCMT-EAST ZN MAIN BRANCH,FAN:CONSTANTVOLUME,FAN CONSTANT VOLUME 8,NODE 131,NODE 125,Air Nodes
 Component Set,49,BRANCH,SYS_3_PSZ SP-SEATING AREA GENERAL-SCH-J-SPACE FUNCTION SYS-3 FLR-3 SCH-J HPLCMT-NORTH ZN MAIN BRANCH,AIRLOOPHVAC:OUTDOORAIRSYSTEM,AIR LOOP HVAC OUTDOOR AIR SYSTEM 9,NODE 137,NODE 146,Air Nodes
 Component Set,50,BRANCH,SYS_3_PSZ SP-SEATING AREA GENERAL-SCH-J-SPACE FUNCTION SYS-3 FLR-3 SCH-J HPLCMT-NORTH ZN MAIN BRANCH,COILSYSTEM:COOLING:DX,COIL COOLING DX SINGLE SPEED 9 429KBTU/HR 8.21EER COILSYSTEM,NODE 146,NODE 145,Air Nodes
 Component Set,51,BRANCH,SYS_3_PSZ SP-SEATING AREA GENERAL-SCH-J-SPACE FUNCTION SYS-3 FLR-3 SCH-J HPLCMT-NORTH ZN MAIN BRANCH,COIL:HEATING:FUEL,COIL HEATING GAS 9,NODE 145,NODE 144,Air Nodes
 Component Set,52,BRANCH,SYS_3_PSZ SP-SEATING AREA GENERAL-SCH-J-SPACE FUNCTION SYS-3 FLR-3 SCH-J HPLCMT-NORTH ZN MAIN BRANCH,FAN:CONSTANTVOLUME,FAN CONSTANT VOLUME 9,NODE 144,NODE 138,Air Nodes
 Component Set,53,BRANCH,SYS_3_PSZ SP-SEATING AREA GENERAL-SCH-K-SPACE FUNCTION SYS-3 FLR-2 SCH-K HPLCMT-SOUTH ZN MAIN BRANCH,AIRLOOPHVAC:OUTDOORAIRSYSTEM,AIR LOOP HVAC OUTDOOR AIR SYSTEM 4,NODE 72,NODE 81,Air Nodes
 Component Set,54,BRANCH,SYS_3_PSZ SP-SEATING AREA GENERAL-SCH-K-SPACE FUNCTION SYS-3 FLR-2 SCH-K HPLCMT-SOUTH ZN MAIN BRANCH,COILSYSTEM:COOLING:DX,COIL COOLING DX SINGLE SPEED 4 488KBTU/HR 8.21EER COILSYSTEM,NODE 81,NODE 80,Air Nodes
 Component Set,55,BRANCH,SYS_3_PSZ SP-SEATING AREA GENERAL-SCH-K-SPACE FUNCTION SYS-3 FLR-2 SCH-K HPLCMT-SOUTH ZN MAIN BRANCH,COIL:HEATING:FUEL,COIL HEATING GAS 4,NODE 80,NODE 79,Air Nodes
 Component Set,56,BRANCH,SYS_3_PSZ SP-SEATING AREA GENERAL-SCH-K-SPACE FUNCTION SYS-3 FLR-2 SCH-K HPLCMT-SOUTH ZN MAIN BRANCH,FAN:CONSTANTVOLUME,FAN CONSTANT VOLUME 4,NODE 79,NODE 73,Air Nodes
[...]
 Non-Parent Node Connection,NODE 156,HEATEXCHANGER:AIRTOAIR:SENSIBLEANDLATENT,SYS_3_PSZ SP-LOUNGE/BREAK ROOM - HEALTH CARE FACILITY-SPACE FUNCTION SYS-3 FLR-3 SCH-B HPLCMT-SOUTH ZN ERV,Outlet,2
 Non-Parent Node Connection,NODE 39,HEATEXCHANGER:AIRTOAIR:SENSIBLEANDLATENT,SYS_3_PSZ SP-LOUNGE/BREAK ROOM - OTHER-SPACE FUNCTION SYS-3 FLR-1 SCH-B HPLCMT-WEST ZN ERV,Inlet,1
 Non-Parent Node Connection,NODE 378,HEATEXCHANGER:AIRTOAIR:SENSIBLEANDLATENT,SYS_3_PSZ SP-LOUNGE/BREAK ROOM - OTHER-SPACE FUNCTION SYS-3 FLR-1 SCH-B HPLCMT-WEST ZN ERV,Outlet,1
 Non-Parent Node Connection,NODE 379,HEATEXCHANGER:AIRTOAIR:SENSIBLEANDLATENT,SYS_3_PSZ SP-LOUNGE/BREAK ROOM - OTHER-SPACE FUNCTION SYS-3 FLR-1 SCH-B HPLCMT-WEST ZN ERV,Inlet,2
 Non-Parent Node Connection,NODE 40,HEATEXCHANGER:AIRTOAIR:SENSIBLEANDLATENT,SYS_3_PSZ SP-LOUNGE/BREAK ROOM - OTHER-SPACE FUNCTION SYS-3 FLR-1 SCH-B HPLCMT-WEST ZN ERV,Outlet,2
 Non-Parent Node Connection,NODE 194,HEATEXCHANGER:AIRTOAIR:SENSIBLEANDLATENT,SYS_3_PSZ SP-PHARMACY AREA-SPACE FUNCTION SYS-3 FLR-4 SCH-C HPLCMT-SOUTH ZN ERV,Inlet,1
 Non-Parent Node Connection,NODE 380,HEATEXCHANGER:AIRTOAIR:SENSIBLEANDLATENT,SYS_3_PSZ SP-PHARMACY AREA-SPACE FUNCTION SYS-3 FLR-4 SCH-C HPLCMT-SOUTH ZN ERV,Outlet,1
 Non-Parent Node Connection,NODE 381,HEATEXCHANGER:AIRTOAIR:SENSIBLEANDLATENT,SYS_3_PSZ SP-PHARMACY AREA-SPACE FUNCTION SYS-3 FLR-4 SCH-C HPLCMT-SOUTH ZN ERV,Inlet,2
 Non-Parent Node Connection,NODE 195,HEATEXCHANGER:AIRTOAIR:SENSIBLEANDLATENT,SYS_3_PSZ SP-PHARMACY AREA-SPACE FUNCTION SYS-3 FLR-4 SCH-C HPLCMT-SOUTH ZN ERV,Outlet,2
 Non-Parent Node Connection,NODE 51,HEATEXCHANGER:AIRTOAIR:SENSIBLEANDLATENT,SYS_3_PSZ SP-SEATING AREA GENERAL-SCH-A-SPACE FUNCTION SYS-3 FLR-1 SCH-A HPLCMT-CORE ZN ERV,Inlet,1
 Non-Parent Node Connection,NODE 382,HEATEXCHANGER:AIRTOAIR:SENSIBLEANDLATENT,SYS_3_PSZ SP-SEATING AREA GENERAL-SCH-A-SPACE FUNCTION SYS-3 FLR-1 SCH-A HPLCMT-CORE ZN ERV,Outlet,1
 Non-Parent Node Connection,NODE 383,HEATEXCHANGER:AIRTOAIR:SENSIBLEANDLATENT,SYS_3_PSZ SP-SEATING AREA GENERAL-SCH-A-SPACE FUNCTION SYS-3 FLR-1 SCH-A HPLCMT-CORE ZN ERV,Inlet,2
 Non-Parent Node Connection,NODE 52,HEATEXCHANGER:AIRTOAIR:SENSIBLEANDLATENT,SYS_3_PSZ SP-SEATING AREA GENERAL-SCH-A-SPACE FUNCTION SYS-3 FLR-1 SCH-A HPLCMT-CORE ZN ERV,Outlet,2
 Non-Parent Node Connection,NODE 90,HEATEXCHANGER:AIRTOAIR:SENSIBLEANDLATENT,SYS_3_PSZ SP-SEATING AREA GENERAL-SCH-B-SPACE FUNCTION SYS-3 FLR-2 SCH-B HPLCMT-CORE ZN ERV,Inlet,1
 Non-Parent Node Connection,NODE 384,HEATEXCHANGER:AIRTOAIR:SENSIBLEANDLATENT,SYS_3_PSZ SP-SEATING AREA GENERAL-SCH-B-SPACE FUNCTION SYS-3 FLR-2 SCH-B HPLCMT-CORE ZN ERV,Outlet,1
 Non-Parent Node Connection,NODE 385,HEATEXCHANGER:AIRTOAIR:SENSIBLEANDLATENT,SYS_3_PSZ SP-SEATING AREA GENERAL-SCH-B-SPACE FUNCTION SYS-3 FLR-2 SCH-B HPLCMT-CORE ZN ERV,Inlet,2
 Non-Parent Node Connection,NODE 91,HEATEXCHANGER:AIRTOAIR:SENSIBLEANDLATENT,SYS_3_PSZ SP-SEATING AREA GENERAL-SCH-B-SPACE FUNCTION SYS-3 FLR-2 SCH-B HPLCMT-CORE ZN ERV,Outlet,2
 Non-Parent Node Connection,NODE 168,HEATEXCHANGER:AIRTOAIR:SENSIBLEANDLATENT,SYS_3_PSZ SP-SEATING AREA GENERAL-SCH-C-SPACE FUNCTION SYS-3 FLR-3 SCH-C HPLCMT-EAST ZN ERV,Inlet,1
 Non-Parent Node Connection,NODE 386,HEATEXCHANGER:AIRTOAIR:SENSIBLEANDLATENT,SYS_3_PSZ SP-SEATING AREA GENERAL-SCH-C-SPACE FUNCTION SYS-3 FLR-3 SCH-C HPLCMT-EAST ZN ERV,Outlet,1
 Non-Parent Node Connection,NODE 387,HEATEXCHANGER:AIRTOAIR:SENSIBLEANDLATENT,SYS_3_PSZ SP-SEATING AREA GENERAL-SCH-C-SPACE FUNCTION SYS-3 FLR-3 SCH-C HPLCMT-EAST ZN ERV,Inlet,2
 Non-Parent Node Connection,NODE 169,HEATEXCHANGER:AIRTOAIR:SENSIBLEANDLATENT,SYS_3_PSZ SP-SEATING AREA GENERAL-SCH-C-SPACE FUNCTION SYS-3 FLR-3 SCH-C HPLCMT-EAST ZN ERV,Outlet,2
 Non-Parent Node Connection,NODE 64,HEATEXCHANGER:AIRTOAIR:SENSIBLEANDLATENT,SYS_3_PSZ SP-SEATING AREA GENERAL-SCH-D-SPACE FUNCTION SYS-3 FLR-1 SCH-D HPLCMT-EAST ZN ERV,Inlet,1
 Non-Parent Node Connection,NODE 388,HEATEXCHANGER:AIRTOAIR:SENSIBLEANDLATENT,SYS_3_PSZ SP-SEATING AREA GENERAL-SCH-D-SPACE FUNCTION SYS-3 FLR-1 SCH-D HPLCMT-EAST ZN ERV,Outlet,1
 Non-Parent Node Connection,NODE 389,HEATEXCHANGER:AIRTOAIR:SENSIBLEANDLATENT,SYS_3_PSZ SP-SEATING AREA GENERAL-SCH-D-SPACE FUNCTION SYS-3 FLR-1 SCH-D HPLCMT-EAST ZN ERV,Inlet,2
 Non-Parent Node Connection,NODE 65,HEATEXCHANGER:AIRTOAIR:SENSIBLEANDLATENT,SYS_3_PSZ SP-SEATING AREA GENERAL-SCH-D-SPACE FUNCTION SYS-3 FLR-1 SCH-D HPLCMT-EAST ZN ERV,Outlet,2
 Non-Parent Node Connection,NODE 207,HEATEXCHANGER:AIRTOAIR:SENSIBLEANDLATENT,SYS_3_PSZ SP-SEATING AREA GENERAL-SCH-E-SPACE FUNCTION SYS-3 FLR-4 SCH-E HPLCMT-WEST ZN ERV,Inlet,1
 Non-Parent Node Connection,NODE 390,HEATEXCHANGER:AIRTOAIR:SENSIBLEANDLATENT,SYS_3_PSZ SP-SEATING AREA GENERAL-SCH-E-SPACE FUNCTION SYS-3 FLR-4 SCH-E HPLCMT-WEST ZN ERV,Outlet,1
 Non-Parent Node Connection,NODE 391,HEATEXCHANGER:AIRTOAIR:SENSIBLEANDLATENT,SYS_3_PSZ SP-SEATING AREA GENERAL-SCH-E-SPACE FUNCTION SYS-3 FLR-4 SCH-E HPLCMT-WEST ZN ERV,Inlet,2
 Non-Parent Node Connection,NODE 208,HEATEXCHANGER:AIRTOAIR:SENSIBLEANDLATENT,SYS_3_PSZ SP-SEATING AREA GENERAL-SCH-E-SPACE FUNCTION SYS-3 FLR-4 SCH-E HPLCMT-WEST ZN ERV,Outlet,2
 Non-Parent Node Connection,NODE 181,HEATEXCHANGER:AIRTOAIR:SENSIBLEANDLATENT,SYS_3_PSZ SP-SEATING AREA GENERAL-SCH-F-SPACE FUNCTION SYS-3 FLR-3 SCH-F HPLCMT-WEST ZN ERV,Inlet,1
 Non-Parent Node Connection,NODE 392,HEATEXCHANGER:AIRTOAIR:SENSIBLEANDLATENT,SYS_3_PSZ SP-SEATING AREA GENERAL-SCH-F-SPACE FUNCTION SYS-3 FLR-3 SCH-F HPLCMT-WEST ZN ERV,Outlet,1
 Non-Parent Node Connection,NODE 393,HEATEXCHANGER:AIRTOAIR:SENSIBLEANDLATENT,SYS_3_PSZ SP-SEATING AREA GENERAL-SCH-F-SPACE FUNCTION SYS-3 FLR-3 SCH-F HPLCMT-WEST ZN ERV,Inlet,2
 Non-Parent Node Connection,NODE 182,HEATEXCHANGER:AIRTOAIR:SENSIBLEANDLATENT,SYS_3_PSZ SP-SEATING AREA GENERAL-SCH-F-SPACE FUNCTION SYS-3 FLR-3 SCH-F HPLCMT-WEST ZN ERV,Outlet,2
 Non-Parent Node Connection,NODE 103,HEATEXCHANGER:AIRTOAIR:SENSIBLEANDLATENT,SYS_3_PSZ SP-SEATING AREA GENERAL-SCH-G-SPACE FUNCTION SYS-3 FLR-2 SCH-G HPLCMT-NORTH ZN ERV,Inlet,1
 Non-Parent Node Connection,NODE 394,HEATEXCHANGER:AIRTOAIR:SENSIBLEANDLATENT,SYS_3_PSZ SP-SEATING AREA GENERAL-SCH-G-SPACE FUNCTION SYS-3 FLR-2 SCH-G HPLCMT-NORTH ZN ERV,Outlet,1
 Non-Parent Node Connection,NODE 395,HEATEXCHANGER:AIRTOAIR:SENSIBLEANDLATENT,SYS_3_PSZ SP-SEATING AREA GENERAL-SCH-G-SPACE FUNCTION SYS-3 FLR-2 SCH-G HPLCMT-NORTH ZN ERV,Inlet,2
 Non-Parent Node Connection,NODE 104,HEATEXCHANGER:AIRTOAIR:SENSIBLEANDLATENT,SYS_3_PSZ SP-SEATING AREA GENERAL-SCH-G-SPACE FUNCTION SYS-3 FLR-2 SCH-G HPLCMT-NORTH ZN ERV,Outlet,2
 Non-Parent Node Connection,NODE 116,HEATEXCHANGER:AIRTOAIR:SENSIBLEANDLATENT,SYS_3_PSZ SP-SEATING AREA GENERAL-SCH-H-SPACE FUNCTION SYS-3 FLR-2 SCH-H HPLCMT-WEST ZN ERV,Inlet,1
 Non-Parent Node Connection,NODE 396,HEATEXCHANGER:AIRTOAIR:SENSIBLEANDLATENT,SYS_3_PSZ SP-SEATING AREA GENERAL-SCH-H-SPACE FUNCTION SYS-3 FLR-2 SCH-H HPLCMT-WEST ZN ERV,Outlet,1
 Non-Parent Node Connection,NODE 397,HEATEXCHANGER:AIRTOAIR:SENSIBLEANDLATENT,SYS_3_PSZ SP-SEATING AREA GENERAL-SCH-H-SPACE FUNCTION SYS-3 FLR-2 SCH-H HPLCMT-WEST ZN ERV,Inlet,2
 Non-Parent Node Connection,NODE 117,HEATEXCHANGER:AIRTOAIR:SENSIBLEANDLATENT,SYS_3_PSZ SP-SEATING AREA GENERAL-SCH-H-SPACE FUNCTION SYS-3 FLR-2 SCH-H HPLCMT-WEST ZN ERV,Outlet,2
 Non-Parent Node Connection,NODE 129,HEATEXCHANGER:AIRTOAIR:SENSIBLEANDLATENT,SYS_3_PSZ SP-SEATING AREA GENERAL-SCH-I-SPACE FUNCTION SYS-3 FLR-2 SCH-I HPLCMT-EAST ZN ERV,Inlet,1
 Non-Parent Node Connection,NODE 398,HEATEXCHANGER:AIRTOAIR:SENSIBLEANDLATENT,SYS_3_PSZ SP-SEATING AREA GENERAL-SCH-I-SPACE FUNCTION SYS-3 FLR-2 SCH-I HPLCMT-EAST ZN ERV,Outlet,1
 Non-Parent Node Connection,NODE 399,HEATEXCHANGER:AIRTOAIR:SENSIBLEANDLATENT,SYS_3_PSZ SP-SEATING AREA GENERAL-SCH-I-SPACE FUNCTION SYS-3 FLR-2 SCH-I HPLCMT-EAST ZN ERV,Inlet,2
 Non-Parent Node Connection,NODE 130,HEATEXCHANGER:AIRTOAIR:SENSIBLEANDLATENT,SYS_3_PSZ SP-SEATING AREA GENERAL-SCH-I-SPACE FUNCTION SYS-3 FLR-2 SCH-I HPLCMT-EAST ZN ERV,Outlet,2
 Non-Parent Node Connection,NODE 142,HEATEXCHANGER:AIRTOAIR:SENSIBLEANDLATENT,SYS_3_PSZ SP-SEATING AREA GENERAL-SCH-J-SPACE FUNCTION SYS-3 FLR-3 SCH-J HPLCMT-NORTH ZN ERV,Inlet,1
 Non-Parent Node Connection,NODE 400,HEATEXCHANGER:AIRTOAIR:SENSIBLEANDLATENT,SYS_3_PSZ SP-SEATING AREA GENERAL-SCH-J-SPACE FUNCTION SYS-3 FLR-3 SCH-J HPLCMT-NORTH ZN ERV,Outlet,1
 Non-Parent Node Connection,NODE 401,HEATEXCHANGER:AIRTOAIR:SENSIBLEANDLATENT,SYS_3_PSZ SP-SEATING AREA GENERAL-SCH-J-SPACE FUNCTION SYS-3 FLR-3 SCH-J HPLCMT-NORTH ZN ERV,Inlet,2
 Non-Parent Node Connection,NODE 143,HEATEXCHANGER:AIRTOAIR:SENSIBLEANDLATENT,SYS_3_PSZ SP-SEATING AREA GENERAL-SCH-J-SPACE FUNCTION SYS-3 FLR-3 SCH-J HPLCMT-NORTH ZN ERV,Outlet,2
 Non-Parent Node Connection,NODE 77,HEATEXCHANGER:AIRTOAIR:SENSIBLEANDLATENT,SYS_3_PSZ SP-SEATING AREA GENERAL-SCH-K-SPACE FUNCTION SYS-3 FLR-2 SCH-K HPLCMT-SOUTH ZN ERV,Inlet,1
 Non-Parent Node Connection,NODE 402,HEATEXCHANGER:AIRTOAIR:SENSIBLEANDLATENT,SYS_3_PSZ SP-SEATING AREA GENERAL-SCH-K-SPACE FUNCTION SYS-3 FLR-2 SCH-K HPLCMT-SOUTH ZN ERV,Outlet,1
 Non-Parent Node Connection,NODE 403,HEATEXCHANGER:AIRTOAIR:SENSIBLEANDLATENT,SYS_3_PSZ SP-SEATING AREA GENERAL-SCH-K-SPACE FUNCTION SYS-3 FLR-2 SCH-K HPLCMT-SOUTH ZN ERV,Inlet,2
 Non-Parent Node Connection,NODE 78,HEATEXCHANGER:AIRTOAIR:SENSIBLEANDLATENT,SYS_3_PSZ SP-SEATING AREA GENERAL-SCH-K-SPACE FUNCTION SYS-3 FLR-2 SCH-K HPLCMT-SOUTH ZN ERV,Outlet,2
 Non-Parent Node Connection,NODE 250,HEATEXCHANGER:AIRTOAIR:SENSIBLEANDLATENT,SYS_6_VAV WITH REHEAT ERV,Inlet,1
 Non-Parent Node Connection,NODE 404,HEATEXCHANGER:AIRTOAIR:SENSIBLEANDLATENT,SYS_6_VAV WITH REHEAT ERV,Outlet,1
 Non-Parent Node Connection,NODE 405,HEATEXCHANGER:AIRTOAIR:SENSIBLEANDLATENT,SYS_6_VAV WITH REHEAT ERV,Inlet,2
 Non-Parent Node Connection,NODE 251,HEATEXCHANGER:AIRTOAIR:SENSIBLEANDLATENT,SYS_6_VAV WITH REHEAT ERV,Outlet,2
 Non-Parent Node Connection,NODE 278,HEATEXCHANGER:AIRTOAIR:SENSIBLEANDLATENT,SYS_6_VAV WITH REHEAT 1 ERV,Inlet,1
 Non-Parent Node Connection,NODE 406,HEATEXCHANGER:AIRTOAIR:SENSIBLEANDLATENT,SYS_6_VAV WITH REHEAT 1 ERV,Outlet,1
 Non-Parent Node Connection,NODE 407,HEATEXCHANGER:AIRTOAIR:SENSIBLEANDLATENT,SYS_6_VAV WITH REHEAT 1 ERV,Inlet,2
 Non-Parent Node Connection,NODE 279,HEATEXCHANGER:AIRTOAIR:SENSIBLEANDLATENT,SYS_6_VAV WITH REHEAT 1 ERV,Outlet,2
 Non-Parent Node Connection,NODE 299,HEATEXCHANGER:AIRTOAIR:SENSIBLEANDLATENT,SYS_6_VAV WITH REHEAT 2 ERV,Inlet,1
 Non-Parent Node Connection,NODE 408,HEATEXCHANGER:AIRTOAIR:SENSIBLEANDLATENT,SYS_6_VAV WITH REHEAT 2 ERV,Outlet,1
 Non-Parent Node Connection,NODE 409,HEATEXCHANGER:AIRTOAIR:SENSIBLEANDLATENT,SYS_6_VAV WITH REHEAT 2 ERV,Inlet,2
 Non-Parent Node Connection,NODE 300,HEATEXCHANGER:AIRTOAIR:SENSIBLEANDLATENT,SYS_6_VAV WITH REHEAT 2 ERV,Outlet,2
 Non-Parent Node Connection,NODE 159,COIL:COOLING:DX:SINGLESPEED,COIL COOLING DX SINGLE SPEED 10 237KBTU/HR 9.08EER,Inlet,1
 Non-Parent Node Connection,NODE 158,COIL:COOLING:DX:SINGLESPEED,COIL COOLING DX SINGLE SPEED 10 237KBTU/HR 9.08EER,Outlet,1
 Non-Parent Node Connection,NODE 43,COIL:COOLING:DX:SINGLESPEED,COIL COOLING DX SINGLE SPEED 1 110KBTU/HR 9.26EER,Inlet,1
 Non-Parent Node Connection,NODE 42,COIL:COOLING:DX:SINGLESPEED,COIL COOLING DX SINGLE SPEED 1 110KBTU/HR 9.26EER,Outlet,1
 Non-Parent Node Connection,NODE 198,COIL:COOLING:DX:SINGLESPEED,COIL COOLING DX SINGLE SPEED 13 345KBTU/HR 8.21EER,Inlet,1
 Non-Parent Node Connection,NODE 197,COIL:COOLING:DX:SINGLESPEED,COIL COOLING DX SINGLE SPEED 13 345KBTU/HR 8.21EER,Outlet,1
 Non-Parent Node Connection,NODE 55,COIL:COOLING:DX:SINGLESPEED,COIL COOLING DX SINGLE SPEED 2 587KBTU/HR 8.21EER,Inlet,1
 Non-Parent Node Connection,NODE 54,COIL:COOLING:DX:SINGLESPEED,COIL COOLING DX SINGLE SPEED 2 587KBTU/HR 8.21EER,Outlet,1
 Non-Parent Node Connection,NODE 94,COIL:COOLING:DX:SINGLESPEED,COIL COOLING DX SINGLE SPEED 5 572KBTU/HR 8.21EER,Inlet,1
 Non-Parent Node Connection,NODE 93,COIL:COOLING:DX:SINGLESPEED,COIL COOLING DX SINGLE SPEED 5 572KBTU/HR 8.21EER,Outlet,1
 Non-Parent Node Connection,NODE 172,COIL:COOLING:DX:SINGLESPEED,COIL COOLING DX SINGLE SPEED 11 429KBTU/HR 8.21EER,Inlet,1
 Non-Parent Node Connection,NODE 171,COIL:COOLING:DX:SINGLESPEED,COIL COOLING DX SINGLE SPEED 11 429KBTU/HR 8.21EER,Outlet,1
 Non-Parent Node Connection,NODE 68,COIL:COOLING:DX:SINGLESPEED,COIL COOLING DX SINGLE SPEED 3 444KBTU/HR 8.21EER,Inlet,1
 Non-Parent Node Connection,NODE 67,COIL:COOLING:DX:SINGLESPEED,COIL COOLING DX SINGLE SPEED 3 444KBTU/HR 8.21EER,Outlet,1
 Non-Parent Node Connection,NODE 211,COIL:COOLING:DX:SINGLESPEED,COIL COOLING DX SINGLE SPEED 14 454KBTU/HR 8.21EER,Inlet,1
 Non-Parent Node Connection,NODE 210,COIL:COOLING:DX:SINGLESPEED,COIL COOLING DX SINGLE SPEED 14 454KBTU/HR 8.21EER,Outlet,1
 Non-Parent Node Connection,NODE 185,COIL:COOLING:DX:SINGLESPEED,COIL COOLING DX SINGLE SPEED 12 429KBTU/HR 8.21EER,Inlet,1
 Non-Parent Node Connection,NODE 184,COIL:COOLING:DX:SINGLESPEED,COIL COOLING DX SINGLE SPEED 12 429KBTU/HR 8.21EER,Outlet,1
 Non-Parent Node Connection,NODE 107,COIL:COOLING:DX:SINGLESPEED,COIL COOLING DX SINGLE SPEED 6 429KBTU/HR 8.21EER,Inlet,1
 Non-Parent Node Connection,NODE 106,COIL:COOLING:DX:SINGLESPEED,COIL COOLING DX SINGLE SPEED 6 429KBTU/HR 8.21EER,Outlet,1
 Non-Parent Node Connection,NODE 120,COIL:COOLING:DX:SINGLESPEED,COIL COOLING DX SINGLE SPEED 7 429KBTU/HR 8.21EER,Inlet,1
 Non-Parent Node Connection,NODE 119,COIL:COOLING:DX:SINGLESPEED,COIL COOLING DX SINGLE SPEED 7 429KBTU/HR 8.21EER,Outlet,1
 Non-Parent Node Connection,NODE 133,COIL:COOLING:DX:SINGLESPEED,COIL COOLING DX SINGLE SPEED 8 488KBTU/HR 8.21EER,Inlet,1
 Non-Parent Node Connection,NODE 132,COIL:COOLING:DX:SINGLESPEED,COIL COOLING DX SINGLE SPEED 8 488KBTU/HR 8.21EER,Outlet,1
 Non-Parent Node Connection,NODE 146,COIL:COOLING:DX:SINGLESPEED,COIL COOLING DX SINGLE SPEED 9 429KBTU/HR 8.21EER,Inlet,1
 Non-Parent Node Connection,NODE 145,COIL:COOLING:DX:SINGLESPEED,COIL COOLING DX SINGLE SPEED 9 429KBTU/HR 8.21EER,Outlet,1
 Non-Parent Node Connection,NODE 81,COIL:COOLING:DX:SINGLESPEED,COIL COOLING DX SINGLE SPEED 4 488KBTU/HR 8.21EER,Inlet,1
 Non-Parent Node Connection,NODE 80,COIL:COOLING:DX:SINGLESPEED,COIL COOLING DX SINGLE SPEED 4 488KBTU/HR 8.21EER,Outlet,1
 Non-Parent Node Connection,NODE 158,COIL:HEATING:FUEL,COIL HEATING GAS 10,Inlet,1
 Non-Parent Node Connection,NODE 157,COIL:HEATING:FUEL,COIL HEATING GAS 10,Outlet,1
 Non-Parent Node Connection,NODE 157,COIL:HEATING:FUEL,COIL HEATING GAS 10,Sensor,1
 Non-Parent Node Connection,NODE 42,COIL:HEATING:FUEL,COIL HEATING GAS 1,Inlet,1
 Non-Parent Node Connection,NODE 41,COIL:HEATING:FUEL,COIL HEATING GAS 1,Outlet,1
 Non-Parent Node Connection,NODE 41,COIL:HEATING:FUEL,COIL HEATING GAS 1,Sensor,1
 Non-Parent Node Connection,NODE 197,COIL:HEATING:FUEL,COIL HEATING GAS 13,Inlet,1
 Non-Parent Node Connection,NODE 196,COIL:HEATING:FUEL,COIL HEATING GAS 13,Outlet,1
 Non-Parent Node Connection,NODE 196,COIL:HEATING:FUEL,COIL HEATING GAS 13,Sensor,1
 Non-Parent Node Connection,NODE 54,COIL:HEATING:FUEL,COIL HEATING GAS 2,Inlet,1
 Non-Parent Node Connection,NODE 53,COIL:HEATING:FUEL,COIL HEATING GAS 2,Outlet,1
 Non-Parent Node Connection,NODE 53,COIL:HEATING:FUEL,COIL HEATING GAS 2,Sensor,1
 Non-Parent Node Connection,NODE 93,COIL:HEATING:FUEL,COIL HEATING GAS 5,Inlet,1
 Non-Parent Node Connection,NODE 92,COIL:HEATING:FUEL,COIL HEATING GAS 5,Outlet,1
 Non-Parent Node Connection,NODE 92,COIL:HEATING:FUEL,COIL HEATING GAS 5,Sensor,1
 Non-Parent Node Connection,NODE 171,COIL:HEATING:FUEL,COIL HEATING GAS 11,Inlet,1
 Non-Parent Node Connection,NODE 170,COIL:HEATING:FUEL,COIL HEATING GAS 11,Outlet,1
 Non-Parent Node Connection,NODE 170,COIL:HEATING:FUEL,COIL HEATING GAS 11,Sensor,1
 Non-Parent Node Connection,NODE 67,COIL:HEATING:FUEL,COIL HEATING GAS 3,Inlet,1
 Non-Parent Node Connection,NODE 66,COIL:HEATING:FUEL,COIL HEATING GAS 3,Outlet,1
 Non-Parent Node Connection,NODE 66,COIL:HEATING:FUEL,COIL HEATING GAS 3,Sensor,1
 Non-Parent Node Connection,NODE 210,COIL:HEATING:FUEL,COIL HEATING GAS 14,Inlet,1
 Non-Parent Node Connection,NODE 209,COIL:HEATING:FUEL,COIL HEATING GAS 14,Outlet,1
 Non-Parent Node Connection,NODE 209,COIL:HEATING:FUEL,COIL HEATING GAS 14,Sensor,1
 Non-Parent Node Connection,NODE 184,COIL:HEATING:FUEL,COIL HEATING GAS 12,Inlet,1
 Non-Parent Node Connection,NODE 183,COIL:HEATING:FUEL,COIL HEATING GAS 12,Outlet,1
 Non-Parent Node Connection,NODE 183,COIL:HEATING:FUEL,COIL HEATING GAS 12,Sensor,1
 Non-Parent Node Connection,NODE 106,COIL:HEATING:FUEL,COIL HEATING GAS 6,Inlet,1
 Non-Parent Node Connection,NODE 105,COIL:HEATING:FUEL,COIL HEATING GAS 6,Outlet,1
 Non-Parent Node Connection,NODE 105,COIL:HEATING:FUEL,COIL HEATING GAS 6,Sensor,1
 Non-Parent Node Connection,NODE 119,COIL:HEATING:FUEL,COIL HEATING GAS 7,Inlet,1
 Non-Parent Node Connection,NODE 118,COIL:HEATING:FUEL,COIL HEATING GAS 7,Outlet,1
 Non-Parent Node Connection,NODE 118,COIL:HEATING:FUEL,COIL HEATING GAS 7,Sensor,1
 Non-Parent Node Connection,NODE 132,COIL:HEATING:FUEL,COIL HEATING GAS 8,Inlet,1
 Non-Parent Node Connection,NODE 131,COIL:HEATING:FUEL,COIL HEATING GAS 8,Outlet,1
 Non-Parent Node Connection,NODE 131,COIL:HEATING:FUEL,COIL HEATING GAS 8,Sensor,1
 Non-Parent Node Connection,NODE 145,COIL:HEATING:FUEL,COIL HEATING GAS 9,Inlet,1
 Non-Parent Node Connection,NODE 144,COIL:HEATING:FUEL,COIL HEATING GAS 9,Outlet,1
 Non-Parent Node Connection,NODE 144,COIL:HEATING:FUEL,COIL HEATING GAS 9,Sensor,1
 Non-Parent Node Connection,NODE 80,COIL:HEATING:FUEL,COIL HEATING GAS 4,Inlet,1
 Non-Parent Node Connection,NODE 79,COIL:HEATING:FUEL,COIL HEATING GAS 4,Outlet,1
 Non-Parent Node Connection,NODE 79,COIL:HEATING:FUEL,COIL HEATING GAS 4,Sensor,1
 Non-Parent Node Connection,NODE 217,CHILLER:ELECTRIC:EIR,PRIMARY CHILLER WATERCOOLED SCROLL 124TONS 0.8KW/TON,Inlet,1
 Non-Parent Node Connection,NODE 222,CHILLER:ELECTRIC:EIR,PRIMARY CHILLER WATERCOOLED SCROLL 124TONS 0.8KW/TON,Outlet,1
 Non-Parent Node Connection,NODE 233,CHILLER:ELECTRIC:EIR,PRIMARY CHILLER WATERCOOLED SCROLL 124TONS 0.8KW/TON,Inlet,2
 Non-Parent Node Connection,NODE 239,CHILLER:ELECTRIC:EIR,PRIMARY CHILLER WATERCOOLED SCROLL 124TONS 0.8KW/TON,Outlet,2
 Non-Parent Node Connection,NODE 223,CHILLER:ELECTRIC:EIR,SECONDARY CHILLER WATERCOOLED SCROLL 0TONS 0.8KW/TON,Inlet,1
 Non-Parent Node Connection,NODE 224,CHILLER:ELECTRIC:EIR,SECONDARY CHILLER WATERCOOLED SCROLL 0TONS 0.8KW/TON,Outlet,1
 Non-Parent Node Connection,NODE 240,CHILLER:ELECTRIC:EIR,SECONDARY CHILLER WATERCOOLED SCROLL 0TONS 0.8KW/TON,Inlet,2
 Non-Parent Node Connection,NODE 241,CHILLER:ELECTRIC:EIR,SECONDARY CHILLER WATERCOOLED SCROLL 0TONS 0.8KW/TON,Outlet,2
 Non-Parent Node Connection,NODE 230,COOLINGTOWER:SINGLESPEED,COOLING TOWER SINGLE SPEED 1,Inlet,1
 Non-Parent Node Connection,NODE 235,COOLINGTOWER:SINGLESPEED,COOLING TOWER SINGLE SPEED 1,Outlet,1
 Non-Parent Node Connection,NODE 23,BOILER:HOTWATER,PRIMARY BOILER 3060KBTU/HR 0.833 COMBUSTION EFF,Inlet,1
 Non-Parent Node Connection,NODE 28,BOILER:HOTWATER,PRIMARY BOILER 3060KBTU/HR 0.833 COMBUSTION EFF,Outlet,1
 Non-Parent Node Connection,NODE 29,BOILER:HOTWATER,SECONDARY BOILER 0KBTU/HR 0.85 AFUE,Inlet,1
 Non-Parent Node Connection,NODE 30,BOILER:HOTWATER,SECONDARY BOILER 0KBTU/HR 0.85 AFUE,Outlet,1
 Non-Parent Node Connection,NODE 21,PUMP:VARIABLESPEED,PUMP VARIABLE SPEED 1,Inlet,1
 Non-Parent Node Connection,NODE 27,PUMP:VARIABLESPEED,PUMP VARIABLE SPEED 1,Outlet,1
 Non-Parent Node Connection,NODE 215,PUMP:CONSTANTSPEED,PUMP CONSTANT SPEED 1,Inlet,1
 Non-Parent Node Connection,NODE 221,PUMP:CONSTANTSPEED,PUMP CONSTANT SPEED 1,Outlet,1
 Non-Parent Node Connection,NODE 228,PUMP:CONSTANTSPEED,PUMP CONSTANT SPEED 2,Inlet,1
 Non-Parent Node Connection,NODE 234,PUMP:CONSTANTSPEED,PUMP CONSTANT SPEED 2,Outlet,1
 Non-Parent Node Connection,NODE 325,PUMP:CONSTANTSPEED,SERVICE WATER LOOP PUMP,Inlet,1
 Non-Parent Node Connection,NODE 331,PUMP:CONSTANTSPEED,SERVICE WATER LOOP PUMP,Outlet,1
