Program Version,EnergyPlus, Version 8.9.0-eba93e8e1b, YMD=2019.04.04 17:58
! <Version>, Version ID
 Version, 8.9
! <Timesteps per Hour>, #TimeSteps, Minutes per TimeStep {minutes}
 Timesteps per Hour,  6, 10
! <System Convergence Limits>, Minimum System TimeStep {minutes}, Max HVAC Iterations, Minimum Plant Iterations, Maximum Plant Iterations
 System Convergence Limits, 1, 20, 2, 8
! <Simulation Control>, Do Zone Sizing, Do System Sizing, Do Plant Sizing, Do Design Days, Do Weather Simulation, Do HVAC Sizing Simulation
 Simulation Control, Yes, Yes, Yes, Yes, No, No
! <Output Reporting Tolerances>, Tolerance for Time Heating Setpoint Not Met, Tolerance for Zone Cooling Setpoint Not Met Time
 Output Reporting Tolerances, 1.000, 1.000, 
! <Site:GroundTemperature:BuildingSurface>,Jan{C},Feb{C},Mar{C},Apr{C},May{C},Jun{C},Jul{C},Aug{C},Sep{C},Oct{C},Nov{C},Dec{C}
 Site:GroundTemperature:BuildingSurface,  19.53,  19.50,  19.54,  19.60,  20.00,  21.64,  22.23,  22.38,  21.45,  20.12,  19.80,  19.63
! <Site:GroundTemperature:FCfactorMethod>,Jan{C},Feb{C},Mar{C},Apr{C},May{C},Jun{C},Jul{C},Aug{C},Sep{C},Oct{C},Nov{C},Dec{C}
 Site:GroundTemperature:FCfactorMethod, -12.27, -13.66, -11.19,  -7.33,   2.77,  10.57,  15.83,  17.43,  14.70,   8.65,   0.56,  -6.95
! <Site:GroundTemperature:Shallow>,Jan{C},Feb{C},Mar{C},Apr{C},May{C},Jun{C},Jul{C},Aug{C},Sep{C},Oct{C},Nov{C},Dec{C}
 Site:GroundTemperature:Shallow,  13.00,  13.00,  13.00,  13.00,  13.00,  13.00,  13.00,  13.00,  13.00,  13.00,  13.00,  13.00
! <Site:GroundTemperature:Deep>,Jan{C},Feb{C},Mar{C},Apr{C},May{C},Jun{C},Jul{C},Aug{C},Sep{C},Oct{C},Nov{C},Dec{C}
 Site:GroundTemperature:Deep,  16.00,  16.00,  16.00,  16.00,  16.00,  16.00,  16.00,  16.00,  16.00,  16.00,  16.00,  16.00
! <Site:GroundReflectance>,Jan{dimensionless},Feb{dimensionless},Mar{dimensionless},Apr{dimensionless},May{dimensionless},Jun{dimensionless},Jul{dimensionless},Aug{dimensionless},Sep{dimensionless},Oct{dimensionless},Nov{dimensionless},Dec{dimensionless}
 Site:GroundReflectance,  0.20,  0.20,  0.20,  0.20,  0.20,  0.20,  0.20,  0.20,  0.20,  0.20,  0.20,  0.20
! <Site:GroundReflectance:SnowModifier>, Normal, Daylighting {dimensionless}
 Site:GroundReflectance:SnowModifier,   1.000,   1.000
! <Site:GroundReflectance:Snow>,Jan{dimensionless},Feb{dimensionless},Mar{dimensionless},Apr{dimensionless},May{dimensionless},Jun{dimensionless},Jul{dimensionless},Aug{dimensionless},Sep{dimensionless},Oct{dimensionless},Nov{dimensionless},Dec{dimensionless}
 Site:GroundReflectance:Snow,  0.20,  0.20,  0.20,  0.20,  0.20,  0.20,  0.20,  0.20,  0.20,  0.20,  0.20,  0.20
! <Site:GroundReflectance:Snow:Daylighting>,Jan{dimensionless},Feb{dimensionless},Mar{dimensionless},Apr{dimensionless},May{dimensionless},Jun{dimensionless},Jul{dimensionless},Aug{dimensionless},Sep{dimensionless},Oct{dimensionless},Nov{dimensionless},Dec{dimensionless}
 Site:GroundReflectance:Snow:Daylighting,  0.20,  0.20,  0.20,  0.20,  0.20,  0.20,  0.20,  0.20,  0.20,  0.20,  0.20,  0.20
! <Environment:Weather Station>,Wind Sensor Height Above Ground {m},Wind Speed Profile Exponent {},Wind Speed Profile Boundary Layer Thickness {m},Air Temperature Sensor Height Above Ground {m},Wind Speed Modifier Coefficient-Internal,Temperature Modifier Coefficient-Internal
Environment:Weather Station,10.000,0.140,270.000,1.500,1.586,9.750E-003
! <Site:Location>, Location Name, Latitude {N+/S- Deg}, Longitude {E+/W- Deg},  Time Zone Number {GMT+/-}, Elevation {m},  Standard Pressure at Elevation {Pa}, Standard RhoAir at Elevation
Site:Location,Fort McMurray AP AB CAN CWEC2016 WMO#=716890,56.65,-111.22,-7.00,369.10,96969,1.1525
! <Building Information>, Building Name,North Axis {deg},Terrain,  Loads Convergence Tolerance Value,Temperature Convergence Tolerance Value,  Solar Distribution,Maximum Number of Warmup Days,Minimum Number of Warmup Days
 Building Information,Building 1,0.000,Suburbs,4.00000E-002,0.40000,FullExterior,25,6
! <Inside Convection Algorithm>, Algorithm {Simple | TARP | CeilingDiffuser | AdaptiveConvectionAlgorithm}
Inside Convection Algorithm,TARP
! <Outside Convection Algorithm>, Algorithm {SimpleCombined | TARP | MoWitt | DOE-2 | AdaptiveConvectionAlgorithm}
Outside Convection Algorithm,TARP
! <Sky Radiance Distribution>, Value {Anisotropic}
Sky Radiance Distribution,Anisotropic
! <Zone Air Solution Algorithm>, Value {ThirdOrderBackwardDifference | AnalyticalSolution | EulerMethod}
 Zone Air Solution Algorithm, ThirdOrderBackwardDifference
! <Zone Air Carbon Dioxide Balance Simulation>, Simulation {Yes/No}, Carbon Dioxide Concentration
 Zone Air Carbon Dioxide Balance Simulation, No,N/A
! <Zone Air Generic Contaminant Balance Simulation>, Simulation {Yes/No}, Generic Contaminant Concentration
 Zone Air Generic Contaminant Balance Simulation, No,N/A
! <Zone Air Mass Flow Balance Simulation>, Enforce Mass Balance, Adjust Zone Mixing, Adjust Zone Infiltration {AddInfiltration | AdjustInfiltration | None}, Infiltration Zones {MixingSourceZonesOnly | AllZones}
 Zone Air Mass Flow Balance Simulation, No,N/A,N/A,N/A
! <HVACSystemRootFindingAlgorithm>, Value {RegulaFalsi | Bisection | BisectionThenRegulaFalsi | RegulaFalsiThenBisection}
 HVACSystemRootFindingAlgorithm, RegulaFalsi
! <Environment:Site Atmospheric Variation>,Wind Speed Profile Exponent {},Wind Speed Profile Boundary Layer Thickness {m},Air Temperature Gradient Coefficient {K/m}
Environment:Site Atmospheric Variation,0.220,370.000,6.500000E-003
! <Surface Geometry>,Starting Corner,Vertex Input Direction,Coordinate System,Daylight Reference Point Coordinate System,Rectangular (Simple) Surface Coordinate System
 Surface Geometry,UpperLeftCorner,Counterclockwise,RelativeCoordinateSystem,RelativeCoordinateSystem,RelativeToZoneOrigin
! <Surface Heat Transfer Algorithm>, Value {CTF - ConductionTransferFunction | EMPD - MoisturePenetrationDepthConductionTransferFunction | CondFD - ConductionFiniteDifference | HAMT - CombinedHeatAndMoistureFiniteElement} - Description,Inside Surface Max Temperature Limit{C}, Surface Convection Coefficient Lower Limit {W/m2-K}, Surface Convection Coefficient Upper Limit {W/m2-K}
Surface Heat Transfer Algorithm, CTF - ConductionTransferFunction,200,0.10,1000.0
! <Shading Summary>, Number of Fixed Detached Shades, Number of Building Detached Shades, Number of Attached Shades
 Shading Summary,0,0,0
! <Zone Summary>, Number of Zones, Number of Zone Surfaces, Number of SubSurfaces
 Zone Summary,5,30,0
! <Zone Information>,Zone Name,North Axis {deg},Origin X-Coordinate {m},Origin Y-Coordinate {m},Origin Z-Coordinate {m},Centroid X-Coordinate {m},Centroid Y-Coordinate {m},Centroid Z-Coordinate {m},Type,Zone Multiplier,Zone List Multiplier,Minimum X {m},Maximum X {m},Minimum Y {m},Maximum Y {m},Minimum Z {m},Maximum Z {m},Ceiling Height {m},Volume {m3},Zone Inside Convection Algorithm {Simple-Detailed-CeilingDiffuser-TrombeWall},Zone Outside Convection Algorithm {Simple-Detailed-Tarp-MoWitt-DOE-2-BLAST}, Floor Area {m2},Exterior Gross Wall Area {m2},Exterior Net Wall Area {m2},Exterior Window Area {m2}, Number of Surfaces, Number of SubSurfaces, Number of Shading SubSurfaces,  Part of Total Building Area
 Zone Information, ALL_ST=WAREHOUSE - FINE - REFRIGERATED_FL=STORY 1_SCH=A,0.0,0.00,0.00,0.00,50.00,10.85,1.90,1,1,1,0.00,100.00,0.00,25.00,0.00,3.80,3.80,7125.00,TARP,TARP,1875.00,0.00,0.00,0.00,6,0,0,Yes
 Zone Information, ALL_ST=WAREHOUSE - FINE_FL=STORY 1_SCH=A,0.0,25.00,25.00,0.00,50.00,50.00,1.90,1,1,1,25.00,75.00,25.00,75.00,0.00,3.80,3.80,9500.00,TARP,TARP,2500.00,0.00,0.00,0.00,6,0,0,Yes
 Zone Information, ALL_ST=WAREHOUSE - MED/BLK - REFRIGERATED_FL=STORY 1_SCH=A,0.0,25.00,75.00,0.00,50.00,89.15,1.90,1,1,1,0.00,100.00,75.00,100.00,0.00,3.80,3.80,7125.00,TARP,TARP,1875.00,0.00,0.00,0.00,6,0,0,Yes
 Zone Information, ALL_ST=WAREHOUSE - MED/BLK2_FL=STORY 1_SCH=A,0.0,0.00,0.00,0.00,10.85,50.00,1.90,1,1,1,0.00,25.00,0.00,100.00,0.00,3.80,3.80,7125.00,TARP,TARP,1875.00,0.00,0.00,0.00,6,0,0,Yes
 Zone Information, ALL_ST=WAREHOUSE - MED/BLK_FL=STORY 1_SCH=A,0.0,75.00,25.00,0.00,89.15,50.00,1.90,1,1,1,75.00,100.00,0.00,100.00,0.00,3.80,3.80,7125.00,TARP,TARP,1875.00,0.00,0.00,0.00,6,0,0,Yes
! <Zone Internal Gains Nominal>,Zone Name, Floor Area {m2},# Occupants,Area per Occupant {m2/person},Occupant per Area {person/m2},Interior Lighting {W/m2},Electric Load {W/m2},Gas Load {W/m2},Other Load {W/m2},Hot Water Eq {W/m2},Steam Equipment {W/m2},Sum Loads per Area {W/m2},Outdoor Controlled Baseboard Heat
 Zone Internal Gains Nominal, ALL_ST=WAREHOUSE - FINE - REFRIGERATED_FL=STORY 1_SCH=A,1875.00,37.5,49.948,2.002E-002,10.200,1.000,0.000,0.000,0.000,0.000,11.200,No
 Zone Internal Gains Nominal, ALL_ST=WAREHOUSE - FINE_FL=STORY 1_SCH=A,2500.00,50.1,49.948,2.002E-002,10.200,1.000,0.000,0.000,0.000,0.000,11.200,No
 Zone Internal Gains Nominal, ALL_ST=WAREHOUSE - MED/BLK - REFRIGERATED_FL=STORY 1_SCH=A,1875.00,18.8,99.896,1.001E-002,6.400,1.000,0.000,0.000,0.000,0.000,7.400,No
 Zone Internal Gains Nominal, ALL_ST=WAREHOUSE - MED/BLK2_FL=STORY 1_SCH=A,1875.00,18.8,99.896,1.001E-002,10.200,1.000,0.000,0.000,0.000,0.000,11.200,No
 Zone Internal Gains Nominal, ALL_ST=WAREHOUSE - MED/BLK_FL=STORY 1_SCH=A,1875.00,18.8,99.896,1.001E-002,6.400,1.000,0.000,0.000,0.000,0.000,7.400,No
! <People Internal Gains Nominal>,Name,Schedule Name,Zone Name,Zone Floor Area {m2},# Zone Occupants,Number of People {},People/Floor Area {person/m2},Floor Area per person {m2/person},Fraction Radiant,Fraction Convected,Sensible Fraction Calculation,Activity level,ASHRAE 55 Warnings,Carbon Dioxide Generation Rate,Nominal Minimum Number of People,Nominal Maximum Number of People
 People Internal Gains Nominal, ALL_ST=WAREHOUSE - FINE_FL=STORY 1_SCH=A SPACE FUNCTION WAREHOUSE - FINE PEOPLE,NECB-A-OCCUPANCY,ALL_ST=WAREHOUSE - FINE_FL=STORY 1_SCH=A,2500.00,50.1,50.1,2.002E-002,49.948,0.300,0.700,AutoCalculate,NECB-ACTIVITY,No,3.8200E-008,0,45
 People Internal Gains Nominal, ALL_ST=WAREHOUSE - FINE - REFRIGERATED_FL=STORY 1_SCH=A SPACE FUNCTION WAREHOUSE - FINE - REFRIGERATED PEOPLE,NECB-A-OCCUPANCY,ALL_ST=WAREHOUSE - FINE - REFRIGERATED_FL=STORY 1_SCH=A,1875.00,37.5,37.5,2.002E-002,49.948,0.300,0.700,AutoCalculate,NECB-ACTIVITY,No,3.8200E-008,0,34
 People Internal Gains Nominal, ALL_ST=WAREHOUSE - MED/BLK_FL=STORY 1_SCH=A SPACE FUNCTION WAREHOUSE - MED/BLK PEOPLE,NECB-A-OCCUPANCY,ALL_ST=WAREHOUSE - MED/BLK_FL=STORY 1_SCH=A,1875.00,18.8,18.8,1.001E-002,99.896,0.300,0.700,AutoCalculate,NECB-ACTIVITY,No,3.8200E-008,0,17
 People Internal Gains Nominal, ALL_ST=WAREHOUSE - MED/BLK - REFRIGERATED_FL=STORY 1_SCH=A SPACE FUNCTION WAREHOUSE - MED/BLK - REFRIGERATED PEOPLE,NECB-A-OCCUPANCY,ALL_ST=WAREHOUSE - MED/BLK - REFRIGERATED_FL=STORY 1_SCH=A,1875.00,18.8,18.8,1.001E-002,99.896,0.300,0.700,AutoCalculate,NECB-ACTIVITY,No,3.8200E-008,0,17
 People Internal Gains Nominal, ALL_ST=WAREHOUSE - MED/BLK2_FL=STORY 1_SCH=A SPACE FUNCTION WAREHOUSE - MED/BLK2 PEOPLE,NECB-A-OCCUPANCY,ALL_ST=WAREHOUSE - MED/BLK2_FL=STORY 1_SCH=A,1875.00,18.8,18.8,1.001E-002,99.896,0.300,0.700,AutoCalculate,NECB-ACTIVITY,No,3.8200E-008,0,17
! <Lights Internal Gains Nominal>,Name,Schedule Name,Zone Name,Zone Floor Area {m2},# Zone Occupants,Lighting Level {W},Lights/Floor Area {W/m2},Lights per person {W/person},Fraction Return Air,Fraction Radiant,Fraction Short Wave,Fraction Convected,Fraction Replaceable,End-Use Category,Nominal Minimum Lighting Level {W},Nominal Maximum Lighting Level {W}
 Lights Internal Gains Nominal, ALL_ST=WAREHOUSE - FINE_FL=STORY 1_SCH=A SPACE FUNCTION WAREHOUSE - FINE LIGHTS,NECB-A-LIGHTING,ALL_ST=WAREHOUSE - FINE_FL=STORY 1_SCH=A,2500.00,50.1,25499.788,10.200,509.464,0.000,0.500,0.200,0.300,1.000,General,1274.989,22949.809
 Lights Internal Gains Nominal, ALL_ST=WAREHOUSE - FINE - REFRIGERATED_FL=STORY 1_SCH=A SPACE FUNCTION WAREHOUSE - FINE - REFRIGERATED LIGHTS,NECB-A-LIGHTING,ALL_ST=WAREHOUSE - FINE - REFRIGERATED_FL=STORY 1_SCH=A,1875.00,37.5,19124.841,10.200,509.464,0.000,0.500,0.200,0.300,1.000,General,956.242,17212.357
 Lights Internal Gains Nominal, ALL_ST=WAREHOUSE - MED/BLK_FL=STORY 1_SCH=A SPACE FUNCTION WAREHOUSE - MED/BLK LIGHTS,NECB-A-LIGHTING,ALL_ST=WAREHOUSE - MED/BLK_FL=STORY 1_SCH=A,1875.00,18.8,11999.900,6.400,639.327,0.000,0.500,0.200,0.300,1.000,General,599.995,10799.910
 Lights Internal Gains Nominal, ALL_ST=WAREHOUSE - MED/BLK - REFRIGERATED_FL=STORY 1_SCH=A SPACE FUNCTION WAREHOUSE - MED/BLK - REFRIGERATED LIGHTS,NECB-A-LIGHTING,ALL_ST=WAREHOUSE - MED/BLK - REFRIGERATED_FL=STORY 1_SCH=A,1875.00,18.8,11999.900,6.400,639.327,0.000,0.500,0.200,0.300,1.000,General,599.995,10799.910
 Lights Internal Gains Nominal, ALL_ST=WAREHOUSE - MED/BLK2_FL=STORY 1_SCH=A SPACE FUNCTION WAREHOUSE - MED/BLK2 LIGHTS,NECB-A-LIGHTING,ALL_ST=WAREHOUSE - MED/BLK2_FL=STORY 1_SCH=A,1875.00,18.8,19124.841,10.200,1018.928,0.000,0.500,0.200,0.300,1.000,General,956.242,17212.357
! <ElectricEquipment Internal Gains Nominal>,Name,Schedule Name,Zone Name,Zone Floor Area {m2},# Zone Occupants,Equipment Level {W},Equipment/Floor Area {W/m2},Equipment per person {W/person},Fraction Latent,Fraction Radiant,Fraction Lost,Fraction Convected,End-Use SubCategory,Nominal Minimum Equipment Level {W},Nominal Maximum Equipment Level {W}
 ElectricEquipment Internal Gains Nominal, ALL_ST=WAREHOUSE - FINE_FL=STORY 1_SCH=A SPACE FUNCTION WAREHOUSE - FINE ELEC EQUIP,NECB-A-ELECTRIC-EQUIPMENT,ALL_ST=WAREHOUSE - FINE_FL=STORY 1_SCH=A,2500.00,50.1,2499.979,1.000,49.947,0.000,0.500,0.000,0.500,General,499.996,2249.981
 ElectricEquipment Internal Gains Nominal, ALL_ST=WAREHOUSE - FINE - REFRIGERATED_FL=STORY 1_SCH=A SPACE FUNCTION WAREHOUSE - FINE - REFRIGERATED ELEC EQUIP,NECB-A-ELECTRIC-EQUIPMENT,ALL_ST=WAREHOUSE - FINE - REFRIGERATED_FL=STORY 1_SCH=A,1875.00,37.5,1874.984,1.000,49.947,0.000,0.500,0.000,0.500,General,374.997,1687.486
 ElectricEquipment Internal Gains Nominal, ALL_ST=WAREHOUSE - MED/BLK_FL=STORY 1_SCH=A SPACE FUNCTION WAREHOUSE - MED/BLK ELEC EQUIP,NECB-A-ELECTRIC-EQUIPMENT,ALL_ST=WAREHOUSE - MED/BLK_FL=STORY 1_SCH=A,1875.00,18.8,1874.984,1.000,99.895,0.000,0.500,0.000,0.500,General,374.997,1687.486
 ElectricEquipment Internal Gains Nominal, ALL_ST=WAREHOUSE - MED/BLK - REFRIGERATED_FL=STORY 1_SCH=A SPACE FUNCTION WAREHOUSE - MED/BLK - REFRIGERATED ELEC EQUIP,NECB-A-ELECTRIC-EQUIPMENT,ALL_ST=WAREHOUSE - MED/BLK - REFRIGERATED_FL=STORY 1_SCH=A,1875.00,18.8,1874.984,1.000,99.895,0.000,0.500,0.000,0.500,General,374.997,1687.486
 ElectricEquipment Internal Gains Nominal, ALL_ST=WAREHOUSE - MED/BLK2_FL=STORY 1_SCH=A SPACE FUNCTION WAREHOUSE - MED/BLK2 ELEC EQUIP,NECB-A-ELECTRIC-EQUIPMENT,ALL_ST=WAREHOUSE - MED/BLK2_FL=STORY 1_SCH=A,1875.00,18.8,1874.984,1.000,99.895,0.000,0.500,0.000,0.500,General,374.997,1687.486
! <Shadowing/Sun Position Calculations Annual Simulations>, Calculation Method, Value {days}, Allowable Number Figures in Shadow Overlap {}, Polygon Clipping Algorithm, Sky Diffuse Modeling Algorithm, External Shading Calculation Method, Output External Shading Calculation Results, Disable Self-Shading Within Shading Zone Groups, Disable Self-Shading From Shading Zone Groups to Other Zones
Shadowing/Sun Position Calculations Annual Simulations,AverageOverDaysInFrequency,20,15000,SutherlandHodgman,SimpleSkyDiffuseModeling,InternalCalculation,No,No,No
! <Water Heater Information>,Type,Name,Volume {m3},Maximum Capacity {W},Standard Rated Recovery Efficiency, Standard Rated Energy Factor
! <RoomAir Model>, Zone Name, Mixing/Mundt/UCSDDV/UCSDCV/UCSDUFI/UCSDUFE/User Defined
RoomAir Model,ALL_ST=WAREHOUSE - FINE - REFRIGERATED_FL=STORY 1_SCH=A,Mixing/Well-Stirred
RoomAir Model,ALL_ST=WAREHOUSE - FINE_FL=STORY 1_SCH=A,Mixing/Well-Stirred
RoomAir Model,ALL_ST=WAREHOUSE - MED/BLK - REFRIGERATED_FL=STORY 1_SCH=A,Mixing/Well-Stirred
RoomAir Model,ALL_ST=WAREHOUSE - MED/BLK2_FL=STORY 1_SCH=A,Mixing/Well-Stirred
RoomAir Model,ALL_ST=WAREHOUSE - MED/BLK_FL=STORY 1_SCH=A,Mixing/Well-Stirred
! <AirflowNetwork Model:Control>, No Multizone or Distribution/Multizone with Distribution/Multizone without Distribution/Multizone with Distribution only during Fan Operation
AirflowNetwork Model:Control,NoMultizoneOrDistribution
! <Zone Volume Capacitance Multiplier>, Sensible Heat Capacity Multiplier, Moisture Capacity Multiplier, Carbon Dioxide Capacity Multiplier, Generic Contaminant Capacity Multiplier
Zone Volume Capacitance Multiplier,   1.000 ,   1.000,   1.000,   1.000
! <Load Timesteps in Zone Design Calculation Averaging Window>, Value
 Load Timesteps in Zone Design Calculation Averaging Window,    6
! <Heating Sizing Factor Information>, Sizing Factor ID, Value
 Heating Sizing Factor Information, Global,   1.3000    
 Heating Sizing Factor Information, Zone ALL_ST=WAREHOUSE - FINE - REFRIGERATED_FL=STORY 1_SCH=A,   1.3000    
 Heating Sizing Factor Information, Zone ALL_ST=WAREHOUSE - FINE_FL=STORY 1_SCH=A,   1.3000    
 Heating Sizing Factor Information, Zone ALL_ST=WAREHOUSE - MED/BLK - REFRIGERATED_FL=STORY 1_SCH=A,   1.3000    
 Heating Sizing Factor Information, Zone ALL_ST=WAREHOUSE - MED/BLK2_FL=STORY 1_SCH=A,   1.3000    
 Heating Sizing Factor Information, Zone ALL_ST=WAREHOUSE - MED/BLK_FL=STORY 1_SCH=A,   1.3000    
! <Cooling Sizing Factor Information>, Sizing Factor ID, Value
 Cooling Sizing Factor Information, Global,   1.1000    
 Cooling Sizing Factor Information, Zone ALL_ST=WAREHOUSE - FINE - REFRIGERATED_FL=STORY 1_SCH=A,   1.1000    
 Cooling Sizing Factor Information, Zone ALL_ST=WAREHOUSE - FINE_FL=STORY 1_SCH=A,   1.1000    
 Cooling Sizing Factor Information, Zone ALL_ST=WAREHOUSE - MED/BLK - REFRIGERATED_FL=STORY 1_SCH=A,   1.1000    
 Cooling Sizing Factor Information, Zone ALL_ST=WAREHOUSE - MED/BLK2_FL=STORY 1_SCH=A,   1.1000    
 Cooling Sizing Factor Information, Zone ALL_ST=WAREHOUSE - MED/BLK_FL=STORY 1_SCH=A,   1.1000    
! <Zone Sizing Information>, Zone Name, Load Type, Calc Des Load {W}, User Des Load {W}, Calc Des Air Flow Rate {m3/s}, User Des Air Flow Rate {m3/s}, Design Day Name, Date/Time of Peak, Temperature at Peak {C}, Humidity Ratio at Peak {kgWater/kgDryAir}, Floor Area {m2}, # Occupants, Calc Outdoor Air Flow Rate {m3/s}, Calc DOAS Heat Addition Rate {W}
 Zone Sizing Information, ALL_ST=WAREHOUSE - FINE - REFRIGERATED_FL=STORY 1_SCH=A, Cooling, 14954.79912, 16450.27903, 1.15580, 1.27137, FORT MCMURRAY AP ANN CLG .4% CONDNS DB=>MWB, 7/21 17:00:00, 27.16400, 8.76969E-003, 1875.00000, 37.53914, 0.57150, 0.00000
 Zone Sizing Information, ALL_ST=WAREHOUSE - FINE - REFRIGERATED_FL=STORY 1_SCH=A, Heating, 6430.24972, 8359.32463, 0.24296, 0.57150, FORT MCMURRAY AP ANN HTG 99.6% CONDNS DB, 1/21 07:10:00, -36.20000, 1.25811E-004, 1875.00000, 37.53914, 0.57150, 0.00000
 Zone Sizing Information, ALL_ST=WAREHOUSE - FINE_FL=STORY 1_SCH=A, Cooling, 19817.47721, 21799.22494, 1.53161, 1.68477, FORT MCMURRAY AP ANN CLG .4% CONDNS DB=>MWB, 7/21 17:00:00, 27.16400, 8.76969E-003, 2500.00000, 50.05218, 0.76200, 0.00000
 Zone Sizing Information, ALL_ST=WAREHOUSE - FINE_FL=STORY 1_SCH=A, Heating, 8396.79482, 10915.83326, 0.31770, 0.76200, FORT MCMURRAY AP ANN HTG 99.6% CONDNS DB, 1/21 07:10:00, -36.20000, 1.25811E-004, 2500.00000, 50.05218, 0.76200, 0.00000
 Zone Sizing Information, ALL_ST=WAREHOUSE - MED/BLK - REFRIGERATED_FL=STORY 1_SCH=A, Cooling, 8869.43240, 9756.37564, 0.68547, 0.75401, FORT MCMURRAY AP ANN CLG .4% CONDNS DB=>MWB, 7/21 17:00:00, 27.16400, 8.76969E-003, 1875.00000, 18.76957, 0.57150, 0.00000
 Zone Sizing Information, ALL_ST=WAREHOUSE - MED/BLK - REFRIGERATED_FL=STORY 1_SCH=A, Heating, 7357.58594, 9564.86173, 0.27702, 0.57150, FORT MCMURRAY AP ANN HTG 99.6% CONDNS DB, 1/21 07:50:00, -36.20000, 1.25811E-004, 1875.00000, 18.76957, 0.57150, 0.00000
 Zone Sizing Information, ALL_ST=WAREHOUSE - MED/BLK2_FL=STORY 1_SCH=A, Cooling, 13881.96080, 15270.15688, 1.07286, 1.18014, FORT MCMURRAY AP ANN CLG .4% CONDNS DB=>MWB, 7/21 17:00:00, 27.16400, 8.76969E-003, 1875.00000, 18.76957, 0.57150, 0.00000
 Zone Sizing Information, ALL_ST=WAREHOUSE - MED/BLK2_FL=STORY 1_SCH=A, Heating, 6435.73872, 8366.46033, 0.24316, 0.57150, FORT MCMURRAY AP ANN HTG 99.6% CONDNS DB, 1/21 07:10:00, -36.20000, 1.25811E-004, 1875.00000, 18.76957, 0.57150, 0.00000
 Zone Sizing Information, ALL_ST=WAREHOUSE - MED/BLK_FL=STORY 1_SCH=A, Cooling, 8877.24166, 9764.96582, 0.68607, 0.75468, FORT MCMURRAY AP ANN CLG .4% CONDNS DB=>MWB, 7/21 17:00:00, 27.16400, 8.76969E-003, 1875.00000, 18.76957, 0.57150, 0.00000
 Zone Sizing Information, ALL_ST=WAREHOUSE - MED/BLK_FL=STORY 1_SCH=A, Heating, 7355.86256, 9562.62133, 0.27696, 0.57150, FORT MCMURRAY AP ANN HTG 99.6% CONDNS DB, 1/21 07:50:00, -36.20000, 1.25811E-004, 1875.00000, 18.76957, 0.57150, 0.00000
! <System Sizing Information>, System Name, Load Type, Peak Load Kind, User Design Capacity, Calc Des Air Flow Rate [m3/s], User Des Air Flow Rate [m3/s], Design Day Name, Date/Time of Peak
 System Sizing Information, SYS_2_MAKE-UP AIR UNIT, Cooling, Sensible, 18290.39, 1.27137, 1.27137, FORT MCMURRAY AP ANN CLG .4% CONDNS DB=>MWB, 7/21 00:00:00
 System Sizing Information, SYS_2_MAKE-UP AIR UNIT, Heating, Sensible, 32630.32, 0.57150, 0.57150, FORT MCMURRAY AP ANN HTG 99.6% CONDNS DB, 1/21 00:10:00
 System Sizing Information, SYS_2_MAKE-UP AIR UNIT 1, Cooling, Sensible, 11699.84, 0.75401, 0.75401, FORT MCMURRAY AP ANN CLG .4% CONDNS DB=>MWB, 7/21 00:00:00
 System Sizing Information, SYS_2_MAKE-UP AIR UNIT 1, Heating, Sensible, 32630.32, 0.57150, 0.57150, FORT MCMURRAY AP ANN HTG 99.6% CONDNS DB, 1/21 00:10:00
 System Sizing Information, SYS_4_PSZ_ALL_ST=WAREHOUSE - FINE_FL=STORY 1_SCH=A, Cooling, Sensible, 24254.79, 1.68477, 1.68477, FORT MCMURRAY AP ANN CLG .4% CONDNS DB=>MWB, 7/21 05:00:00
 System Sizing Information, SYS_4_PSZ_ALL_ST=WAREHOUSE - FINE_FL=STORY 1_SCH=A, Heating, Sensible, 69893.74, 0.76200, 0.76200, FORT MCMURRAY AP ANN HTG 99.6% CONDNS DB, 1/21 00:10:00
 System Sizing Information, SYS_4_PSZ_ALL_ST=WAREHOUSE - MED/BLK2_FL=STORY 1_SCH=A, Cooling, Sensible, 17128.35, 1.18014, 1.18014, FORT MCMURRAY AP ANN CLG .4% CONDNS DB=>MWB, 7/21 05:00:00
 System Sizing Information, SYS_4_PSZ_ALL_ST=WAREHOUSE - MED/BLK2_FL=STORY 1_SCH=A, Heating, Sensible, 52420.30, 0.57150, 0.57150, FORT MCMURRAY AP ANN HTG 99.6% CONDNS DB, 1/21 00:10:00
 System Sizing Information, SYS_4_PSZ_ALL_ST=WAREHOUSE - MED/BLK_FL=STORY 1_SCH=A, Cooling, Sensible, 11708.29, 0.75468, 0.75468, FORT MCMURRAY AP ANN CLG .4% CONDNS DB=>MWB, 7/21 05:00:00
 System Sizing Information, SYS_4_PSZ_ALL_ST=WAREHOUSE - MED/BLK_FL=STORY 1_SCH=A, Heating, Sensible, 52420.30, 0.57150, 0.57150, FORT MCMURRAY AP ANN HTG 99.6% CONDNS DB, 1/21 00:10:00
! <Component Sizing Information>, Component Type, Component Name, Input Field Description, Value
 Component Sizing Information, ZoneHVAC:FourPipeFanCoil, ZONE HVAC FOUR PIPE FAN COIL 1, Design Size Maximum Supply Air Flow Rate [m3/s], 1.27137
 Component Sizing Information, Fan:ConstantVolume, FAN CONSTANT VOLUME 5, Design Size Maximum Flow Rate [m3/s], 1.27137
 Component Sizing Information, ZoneHVAC:FourPipeFanCoil, ZONE HVAC FOUR PIPE FAN COIL 1, Design Size Maximum Outdoor Air Flow Rate [m3/s], 0.57150
 Component Sizing Information, ZoneHVAC:FourPipeFanCoil, ZONE HVAC FOUR PIPE FAN COIL 1, Design Size Maximum Hot Water Flow [m3/s], 7.54520E-004
 Component Sizing Information, ZoneHVAC:FourPipeFanCoil, ZONE HVAC FOUR PIPE FAN COIL 1, Design Size Maximum Cold Water Flow [m3/s], 7.92648E-004
 Component Sizing Information, Coil:Cooling:Water, COIL COOLING WATER 1, Design Size Design Water Flow Rate [m3/s], 7.92648E-004
 Component Sizing Information, Coil:Cooling:Water, COIL COOLING WATER 1, Design Size Design Air Flow Rate [m3/s], 1.27137
 Component Sizing Information, Coil:Cooling:Water, COIL COOLING WATER 1, User-Specified Design Air Flow Rate [m3/s], 1.27137
 Component Sizing Information, Coil:Cooling:Water, COIL COOLING WATER 1, Design Size Design Inlet Air Temperature [C], 25.42199
 Component Sizing Information, Coil:Cooling:Water, COIL COOLING WATER 1, Design Size Design Inlet Water Temperature [C], 7.00000
 Component Sizing Information, Coil:Cooling:Water, COIL COOLING WATER 1, Design Size Design Inlet Air Humidity Ratio, 8.92929E-003
 Component Sizing Information, Coil:Cooling:Water, COIL COOLING WATER 1, Design Size Design Outlet Air Temperature [C], 13.00000
 Component Sizing Information, Coil:Cooling:Water, COIL COOLING WATER 1, Design Size Design Outlet Air Humidity Ratio, 8.50000E-003
! <Water Cooling Coil Capacity Information>,Component Type,Name,Nominal Total Capacity {W},Nominal Sensible Capacity {W},Nominal Latent Capacity {W},Nominal Sensible Heat Ratio, Nominal Coil UA Value {W/C}, Nominal Coil Surface Area {m2}
Water Cooling Coil Capacity Information,Coil:Cooling:Water,COIL COOLING WATER 1,26838.42,19233.21,7605.21,0.72,2874.35,29.15
 Component Sizing Information, Coil:Heating:Water, COIL HEATING WATER 1, Design Size Rated Capacity [W], 50517.50300
 Component Sizing Information, Coil:Heating:Water, COIL HEATING WATER 1, Design Size Maximum Water Flow Rate [m3/s], 7.54520E-004
 Component Sizing Information, Coil:Heating:Water, COIL HEATING WATER 1, Design Size U-Factor Times Area Value [W/K], 747.85087
! <Water Heating Coil Capacity Information>,Component Type,Name,Nominal Total Capacity {W}
Water Heating Coil Capacity Information,Coil:Heating:Water,COIL HEATING WATER 1,27723.38
 Component Sizing Information, AirTerminal:SingleDuct:Uncontrolled, AIR TERMINAL SINGLE DUCT UNCONTROLLED 4, Design Size Maximum Air Flow Rate [m3/s], 1.27137
 Component Sizing Information, AirTerminal:SingleDuct:Uncontrolled, AIR TERMINAL SINGLE DUCT UNCONTROLLED 1, Design Size Maximum Air Flow Rate [m3/s], 1.68477
 Component Sizing Information, ZoneHVAC:Baseboard:Convective:Water, ZONE HVAC BASEBOARD CONVECTIVE WATER 1, Design Size Maximum Water Flow Rate [m3/s], 1.63037E-004
 Component Sizing Information, ZoneHVAC:Baseboard:Convective:Water, ZONE HVAC BASEBOARD CONVECTIVE WATER 1, Design Size U-Factor Times Area Value [W/K], 213.25732
 Component Sizing Information, ZoneHVAC:FourPipeFanCoil, ZONE HVAC FOUR PIPE FAN COIL 2, Design Size Maximum Supply Air Flow Rate [m3/s], 0.75401
 Component Sizing Information, Fan:ConstantVolume, FAN CONSTANT VOLUME 7, Design Size Maximum Flow Rate [m3/s], 0.75401
 Component Sizing Information, ZoneHVAC:FourPipeFanCoil, ZONE HVAC FOUR PIPE FAN COIL 2, Design Size Maximum Outdoor Air Flow Rate [m3/s], 0.57150
 Component Sizing Information, ZoneHVAC:FourPipeFanCoil, ZONE HVAC FOUR PIPE FAN COIL 2, Design Size Maximum Hot Water Flow [m3/s], 7.29424E-004
 Component Sizing Information, ZoneHVAC:FourPipeFanCoil, ZONE HVAC FOUR PIPE FAN COIL 2, Design Size Maximum Cold Water Flow [m3/s], 4.90213E-004
 Component Sizing Information, Coil:Cooling:Water, COIL COOLING WATER 2, Design Size Design Water Flow Rate [m3/s], 4.90213E-004
 Component Sizing Information, Coil:Cooling:Water, COIL COOLING WATER 2, Design Size Design Air Flow Rate [m3/s], 0.75401
 Component Sizing Information, Coil:Cooling:Water, COIL COOLING WATER 2, User-Specified Design Air Flow Rate [m3/s], 0.75401
 Component Sizing Information, Coil:Cooling:Water, COIL COOLING WATER 2, Design Size Design Inlet Air Temperature [C], 26.39807
 Component Sizing Information, Coil:Cooling:Water, COIL COOLING WATER 2, Design Size Design Inlet Water Temperature [C], 7.00000
 Component Sizing Information, Coil:Cooling:Water, COIL COOLING WATER 2, Design Size Design Inlet Air Humidity Ratio, 8.81650E-003
 Component Sizing Information, Coil:Cooling:Water, COIL COOLING WATER 2, Design Size Design Outlet Air Temperature [C], 13.00000
 Component Sizing Information, Coil:Cooling:Water, COIL COOLING WATER 2, Design Size Design Outlet Air Humidity Ratio, 8.50000E-003
Water Cooling Coil Capacity Information,Coil:Cooling:Water,COIL COOLING WATER 2,16245.48,11558.63,4686.85,0.71,1740.10,17.65
 Component Sizing Information, Coil:Heating:Water, COIL HEATING WATER 2, Design Size Rated Capacity [W], 48837.27193
 Component Sizing Information, Coil:Heating:Water, COIL HEATING WATER 2, Design Size Maximum Water Flow Rate [m3/s], 7.29424E-004
 Component Sizing Information, Coil:Heating:Water, COIL HEATING WATER 2, Design Size U-Factor Times Area Value [W/K], 705.17661
Water Heating Coil Capacity Information,Coil:Heating:Water,COIL HEATING WATER 2,26796.18
 Component Sizing Information, AirTerminal:SingleDuct:Uncontrolled, AIR TERMINAL SINGLE DUCT UNCONTROLLED 5, Design Size Maximum Air Flow Rate [m3/s], 0.75401
 Component Sizing Information, AirTerminal:SingleDuct:Uncontrolled, AIR TERMINAL SINGLE DUCT UNCONTROLLED 3, Design Size Maximum Air Flow Rate [m3/s], 1.18014
 Component Sizing Information, ZoneHVAC:Baseboard:Convective:Water, ZONE HVAC BASEBOARD CONVECTIVE WATER 3, Design Size Maximum Water Flow Rate [m3/s], 1.24960E-004
 Component Sizing Information, ZoneHVAC:Baseboard:Convective:Water, ZONE HVAC BASEBOARD CONVECTIVE WATER 3, Design Size U-Factor Times Area Value [W/K], 163.44222
 Component Sizing Information, AirTerminal:SingleDuct:Uncontrolled, AIR TERMINAL SINGLE DUCT UNCONTROLLED 2, Design Size Maximum Air Flow Rate [m3/s], 0.75468
 Component Sizing Information, ZoneHVAC:Baseboard:Convective:Water, ZONE HVAC BASEBOARD CONVECTIVE WATER 2, Design Size Maximum Water Flow Rate [m3/s], 1.42826E-004
 Component Sizing Information, ZoneHVAC:Baseboard:Convective:Water, ZONE HVAC BASEBOARD CONVECTIVE WATER 2, Design Size U-Factor Times Area Value [W/K], 290.93523
 Component Sizing Information, AirLoopHVAC, SYS_2_MAKE-UP AIR UNIT, Sum of Air Terminal Maximum Heating Flow Rates [m3/s], 1.27137
 Component Sizing Information, AirLoopHVAC, SYS_2_MAKE-UP AIR UNIT, Sum of Air Terminal Minimum Heating Flow Rates [m3/s], 1.27137
 Component Sizing Information, AirLoopHVAC, SYS_2_MAKE-UP AIR UNIT, Sum of Air Terminal Maximum Flow Rates [m3/s], 1.27137
 Component Sizing Information, AirLoopHVAC, SYS_2_MAKE-UP AIR UNIT, Adjusted Heating Design Air Flow Rate [m3/s], 1.27137
 Component Sizing Information, AirLoopHVAC, SYS_2_MAKE-UP AIR UNIT, Adjusted Cooling Design Air Flow Rate [m3/s], 1.27137
 Component Sizing Information, AirLoopHVAC, SYS_2_MAKE-UP AIR UNIT, Adjusted Main Design Air Flow Rate [m3/s], 1.27137
 Component Sizing Information, AirLoopHVAC, SYS_2_MAKE-UP AIR UNIT, User Heating Air Flow Ratio [], 1.00000
 Component Sizing Information, AirLoopHVAC, SYS_2_MAKE-UP AIR UNIT, Calculated Heating Air Flow Ratio [], 1.00000
 Component Sizing Information, AirLoopHVAC, SYS_2_MAKE-UP AIR UNIT 1, Sum of Air Terminal Maximum Heating Flow Rates [m3/s], 0.75401
 Component Sizing Information, AirLoopHVAC, SYS_2_MAKE-UP AIR UNIT 1, Sum of Air Terminal Minimum Heating Flow Rates [m3/s], 0.75401
 Component Sizing Information, AirLoopHVAC, SYS_2_MAKE-UP AIR UNIT 1, Sum of Air Terminal Maximum Flow Rates [m3/s], 0.75401
 Component Sizing Information, AirLoopHVAC, SYS_2_MAKE-UP AIR UNIT 1, Adjusted Heating Design Air Flow Rate [m3/s], 0.75401
 Component Sizing Information, AirLoopHVAC, SYS_2_MAKE-UP AIR UNIT 1, Adjusted Cooling Design Air Flow Rate [m3/s], 0.75401
 Component Sizing Information, AirLoopHVAC, SYS_2_MAKE-UP AIR UNIT 1, Adjusted Main Design Air Flow Rate [m3/s], 0.75401
 Component Sizing Information, AirLoopHVAC, SYS_2_MAKE-UP AIR UNIT 1, User Heating Air Flow Ratio [], 1.00000
 Component Sizing Information, AirLoopHVAC, SYS_2_MAKE-UP AIR UNIT 1, Calculated Heating Air Flow Ratio [], 1.00000
 Component Sizing Information, AirLoopHVAC, SYS_4_PSZ_ALL_ST=WAREHOUSE - FINE_FL=STORY 1_SCH=A, Sum of Air Terminal Maximum Heating Flow Rates [m3/s], 1.68477
 Component Sizing Information, AirLoopHVAC, SYS_4_PSZ_ALL_ST=WAREHOUSE - FINE_FL=STORY 1_SCH=A, Sum of Air Terminal Minimum Heating Flow Rates [m3/s], 1.68477
 Component Sizing Information, AirLoopHVAC, SYS_4_PSZ_ALL_ST=WAREHOUSE - FINE_FL=STORY 1_SCH=A, Sum of Air Terminal Maximum Flow Rates [m3/s], 1.68477
 Component Sizing Information, AirLoopHVAC, SYS_4_PSZ_ALL_ST=WAREHOUSE - FINE_FL=STORY 1_SCH=A, Adjusted Heating Design Air Flow Rate [m3/s], 1.68477
 Component Sizing Information, AirLoopHVAC, SYS_4_PSZ_ALL_ST=WAREHOUSE - FINE_FL=STORY 1_SCH=A, Adjusted Cooling Design Air Flow Rate [m3/s], 1.68477
 Component Sizing Information, AirLoopHVAC, SYS_4_PSZ_ALL_ST=WAREHOUSE - FINE_FL=STORY 1_SCH=A, Adjusted Main Design Air Flow Rate [m3/s], 1.68477
 Component Sizing Information, AirLoopHVAC, SYS_4_PSZ_ALL_ST=WAREHOUSE - FINE_FL=STORY 1_SCH=A, User Heating Air Flow Ratio [], 1.00000
 Component Sizing Information, AirLoopHVAC, SYS_4_PSZ_ALL_ST=WAREHOUSE - FINE_FL=STORY 1_SCH=A, Calculated Heating Air Flow Ratio [], 1.00000
 Component Sizing Information, AirLoopHVAC, SYS_4_PSZ_ALL_ST=WAREHOUSE - MED/BLK2_FL=STORY 1_SCH=A, Sum of Air Terminal Maximum Heating Flow Rates [m3/s], 1.18014
 Component Sizing Information, AirLoopHVAC, SYS_4_PSZ_ALL_ST=WAREHOUSE - MED/BLK2_FL=STORY 1_SCH=A, Sum of Air Terminal Minimum Heating Flow Rates [m3/s], 1.18014
 Component Sizing Information, AirLoopHVAC, SYS_4_PSZ_ALL_ST=WAREHOUSE - MED/BLK2_FL=STORY 1_SCH=A, Sum of Air Terminal Maximum Flow Rates [m3/s], 1.18014
 Component Sizing Information, AirLoopHVAC, SYS_4_PSZ_ALL_ST=WAREHOUSE - MED/BLK2_FL=STORY 1_SCH=A, Adjusted Heating Design Air Flow Rate [m3/s], 1.18014
 Component Sizing Information, AirLoopHVAC, SYS_4_PSZ_ALL_ST=WAREHOUSE - MED/BLK2_FL=STORY 1_SCH=A, Adjusted Cooling Design Air Flow Rate [m3/s], 1.18014
 Component Sizing Information, AirLoopHVAC, SYS_4_PSZ_ALL_ST=WAREHOUSE - MED/BLK2_FL=STORY 1_SCH=A, Adjusted Main Design Air Flow Rate [m3/s], 1.18014
 Component Sizing Information, AirLoopHVAC, SYS_4_PSZ_ALL_ST=WAREHOUSE - MED/BLK2_FL=STORY 1_SCH=A, User Heating Air Flow Ratio [], 1.00000
 Component Sizing Information, AirLoopHVAC, SYS_4_PSZ_ALL_ST=WAREHOUSE - MED/BLK2_FL=STORY 1_SCH=A, Calculated Heating Air Flow Ratio [], 1.00000
 Component Sizing Information, AirLoopHVAC, SYS_4_PSZ_ALL_ST=WAREHOUSE - MED/BLK_FL=STORY 1_SCH=A, Sum of Air Terminal Maximum Heating Flow Rates [m3/s], 0.75468
 Component Sizing Information, AirLoopHVAC, SYS_4_PSZ_ALL_ST=WAREHOUSE - MED/BLK_FL=STORY 1_SCH=A, Sum of Air Terminal Minimum Heating Flow Rates [m3/s], 0.75468
 Component Sizing Information, AirLoopHVAC, SYS_4_PSZ_ALL_ST=WAREHOUSE - MED/BLK_FL=STORY 1_SCH=A, Sum of Air Terminal Maximum Flow Rates [m3/s], 0.75468
 Component Sizing Information, AirLoopHVAC, SYS_4_PSZ_ALL_ST=WAREHOUSE - MED/BLK_FL=STORY 1_SCH=A, Adjusted Heating Design Air Flow Rate [m3/s], 0.75468
 Component Sizing Information, AirLoopHVAC, SYS_4_PSZ_ALL_ST=WAREHOUSE - MED/BLK_FL=STORY 1_SCH=A, Adjusted Cooling Design Air Flow Rate [m3/s], 0.75468
 Component Sizing Information, AirLoopHVAC, SYS_4_PSZ_ALL_ST=WAREHOUSE - MED/BLK_FL=STORY 1_SCH=A, Adjusted Main Design Air Flow Rate [m3/s], 0.75468
 Component Sizing Information, AirLoopHVAC, SYS_4_PSZ_ALL_ST=WAREHOUSE - MED/BLK_FL=STORY 1_SCH=A, User Heating Air Flow Ratio [], 1.00000
 Component Sizing Information, AirLoopHVAC, SYS_4_PSZ_ALL_ST=WAREHOUSE - MED/BLK_FL=STORY 1_SCH=A, Calculated Heating Air Flow Ratio [], 1.00000
 Component Sizing Information, AirLoopHVAC, SYS_2_MAKE-UP AIR UNIT, Design Supply Air Flow Rate [m3/s], 1.27137
 Component Sizing Information, AirLoopHVAC, SYS_2_MAKE-UP AIR UNIT 1, Design Supply Air Flow Rate [m3/s], 0.75401
 Component Sizing Information, AirLoopHVAC, SYS_4_PSZ_ALL_ST=WAREHOUSE - FINE_FL=STORY 1_SCH=A, Design Supply Air Flow Rate [m3/s], 1.68477
 Component Sizing Information, AirLoopHVAC, SYS_4_PSZ_ALL_ST=WAREHOUSE - MED/BLK2_FL=STORY 1_SCH=A, Design Supply Air Flow Rate [m3/s], 1.18014
 Component Sizing Information, AirLoopHVAC, SYS_4_PSZ_ALL_ST=WAREHOUSE - MED/BLK_FL=STORY 1_SCH=A, Design Supply Air Flow Rate [m3/s], 0.75468
!<Controller:MechanicalVentilation>,Name,Availability Schedule Name,Demand Controlled Ventilation {Yes/No},System Outdoor Air Method,Zone Maximum Outdoor Air Fraction,Number of Zones,Zone Name,DSOA Name,DSZAD Name
 Controller:MechanicalVentilation,CONTROLLER MECHANICAL VENTILATION 4,ALWAYS ON DISCRETE,No,ZoneSum,1.00,1,ALL_ST=WAREHOUSE - FINE - REFRIGERATED_FL=STORY 1_SCH=A,SPACE FUNCTION WAREHOUSE - FINE - REFRIGERATED VENTILATION,ALL_ST=WAREHOUSE - FINE - REFRIGERATED_FL=STORY 1_SCH=A DESIGN SPEC ZONE AIR DIST
 Controller:MechanicalVentilation,CONTROLLER MECHANICAL VENTILATION 1,ALWAYS ON DISCRETE,No,ZoneSum,1.00,1,ALL_ST=WAREHOUSE - FINE_FL=STORY 1_SCH=A,SPACE FUNCTION WAREHOUSE - FINE VENTILATION,ALL_ST=WAREHOUSE - FINE_FL=STORY 1_SCH=A DESIGN SPEC ZONE AIR DIST
 Controller:MechanicalVentilation,CONTROLLER MECHANICAL VENTILATION 5,ALWAYS ON DISCRETE,No,ZoneSum,1.00,1,ALL_ST=WAREHOUSE - MED/BLK - REFRIGERATED_FL=STORY 1_SCH=A,SPACE FUNCTION WAREHOUSE - MED/BLK - REFRIGERATED VENTILATION,ALL_ST=WAREHOUSE - MED/BLK - REFRIGERATED_FL=STORY 1_SCH=A DESIGN SPEC ZONE AIR DIST
 Controller:MechanicalVentilation,CONTROLLER MECHANICAL VENTILATION 3,ALWAYS ON DISCRETE,No,ZoneSum,1.00,1,ALL_ST=WAREHOUSE - MED/BLK2_FL=STORY 1_SCH=A,SPACE FUNCTION WAREHOUSE - MED/BLK2 VENTILATION,ALL_ST=WAREHOUSE - MED/BLK2_FL=STORY 1_SCH=A DESIGN SPEC ZONE AIR DIST
 Controller:MechanicalVentilation,CONTROLLER MECHANICAL VENTILATION 2,ALWAYS ON DISCRETE,No,ZoneSum,1.00,1,ALL_ST=WAREHOUSE - MED/BLK_FL=STORY 1_SCH=A,SPACE FUNCTION WAREHOUSE - MED/BLK VENTILATION,ALL_ST=WAREHOUSE - MED/BLK_FL=STORY 1_SCH=A DESIGN SPEC ZONE AIR DIST
 Component Sizing Information, Controller:OutdoorAir, CONTROLLER OUTDOOR AIR 4, Maximum Outdoor Air Flow Rate [m3/s], 1.27137
 Component Sizing Information, Controller:OutdoorAir, CONTROLLER OUTDOOR AIR 4, Minimum Outdoor Air Flow Rate [m3/s], 0.57150
 Component Sizing Information, Coil:Cooling:DX:SingleSpeed, COIL COOLING DX SINGLE SPEED 4, Design Size Rated Air Flow Rate [m3/s], 1.27137
 Component Sizing Information, Coil:Cooling:DX:SingleSpeed, COIL COOLING DX SINGLE SPEED 4, Design Size Gross Rated Total Cooling Capacity [W], 21045.76243
 Component Sizing Information, Coil:Cooling:DX:SingleSpeed, COIL COOLING DX SINGLE SPEED 4, Design Size Gross Rated Sensible Heat Ratio, 0.80066
! <DX Cooling Coil Standard Rating Information>, Component Type, Component Name, Standard Rating (Net) Cooling Capacity {W}, Standard Rated Net COP {W/W}, EER {Btu/W-h}, SEER {Btu/W-h}, IEER {Btu/W-h}
 DX Cooling Coil Standard Rating Information, Coil:Cooling:DX:SingleSpeed, COIL COOLING DX SINGLE SPEED 4, 20058.7, 2.51, 8.56, 9.04, 8.63
 Component Sizing Information, Coil:Heating:Fuel, COIL HEATING GAS 4, Design Size Nominal Capacity [W], 25314.04136
 Component Sizing Information, Fan:ConstantVolume, FAN CONSTANT VOLUME 4, Design Size Maximum Flow Rate [m3/s], 1.27137
 Component Sizing Information, Controller:OutdoorAir, CONTROLLER OUTDOOR AIR 5, Maximum Outdoor Air Flow Rate [m3/s], 0.75401
 Component Sizing Information, Controller:OutdoorAir, CONTROLLER OUTDOOR AIR 5, Minimum Outdoor Air Flow Rate [m3/s], 0.57150
 Component Sizing Information, Coil:Cooling:DX:SingleSpeed, COIL COOLING DX SINGLE SPEED 5, Design Size Rated Air Flow Rate [m3/s], 0.75401
 Component Sizing Information, Coil:Cooling:DX:SingleSpeed, COIL COOLING DX SINGLE SPEED 5, Design Size Gross Rated Total Cooling Capacity [W], 12481.60665
 Component Sizing Information, Coil:Cooling:DX:SingleSpeed, COIL COOLING DX SINGLE SPEED 5, Design Size Gross Rated Sensible Heat Ratio, 0.80066
 DX Cooling Coil Standard Rating Information, Coil:Cooling:DX:SingleSpeed, COIL COOLING DX SINGLE SPEED 5, 11896.2, 2.51, 8.56, 9.04, 8.63
 Component Sizing Information, Coil:Heating:Fuel, COIL HEATING GAS 5, Design Size Nominal Capacity [W], 30851.88633
 Component Sizing Information, Fan:ConstantVolume, FAN CONSTANT VOLUME 6, Design Size Maximum Flow Rate [m3/s], 0.75401
 Component Sizing Information, Controller:OutdoorAir, CONTROLLER OUTDOOR AIR 1, Maximum Outdoor Air Flow Rate [m3/s], 1.68477
 Component Sizing Information, Controller:OutdoorAir, CONTROLLER OUTDOOR AIR 1, Minimum Outdoor Air Flow Rate [m3/s], 0.76200
 Component Sizing Information, Coil:Cooling:DX:SingleSpeed, COIL COOLING DX SINGLE SPEED 1, Design Size Rated Air Flow Rate [m3/s], 1.68477
 Component Sizing Information, Coil:Cooling:DX:SingleSpeed, COIL COOLING DX SINGLE SPEED 1, Design Size Gross Rated Total Cooling Capacity [W], 27888.98040
 Component Sizing Information, Coil:Cooling:DX:SingleSpeed, COIL COOLING DX SINGLE SPEED 1, Design Size Gross Rated Sensible Heat Ratio, 0.80066
 DX Cooling Coil Standard Rating Information, Coil:Cooling:DX:SingleSpeed, COIL COOLING DX SINGLE SPEED 1, 26580.9, 2.51, 8.56, 9.04, 8.63
 Component Sizing Information, Coil:Heating:Fuel, COIL HEATING GAS 1, Design Size Nominal Capacity [W], 92225.69330
 Component Sizing Information, Fan:ConstantVolume, FAN CONSTANT VOLUME 1, Design Size Maximum Flow Rate [m3/s], 1.68477
 Component Sizing Information, Controller:OutdoorAir, CONTROLLER OUTDOOR AIR 3, Maximum Outdoor Air Flow Rate [m3/s], 1.18014
 Component Sizing Information, Controller:OutdoorAir, CONTROLLER OUTDOOR AIR 3, Minimum Outdoor Air Flow Rate [m3/s], 0.57150
 Component Sizing Information, Coil:Cooling:DX:SingleSpeed, COIL COOLING DX SINGLE SPEED 3, Design Size Rated Air Flow Rate [m3/s], 1.18014
 Component Sizing Information, Coil:Cooling:DX:SingleSpeed, COIL COOLING DX SINGLE SPEED 3, Design Size Gross Rated Total Cooling Capacity [W], 19535.53253
 Component Sizing Information, Coil:Cooling:DX:SingleSpeed, COIL COOLING DX SINGLE SPEED 3, Design Size Gross Rated Sensible Heat Ratio, 0.80066
 DX Cooling Coil Standard Rating Information, Coil:Cooling:DX:SingleSpeed, COIL COOLING DX SINGLE SPEED 3, 18619.3, 2.51, 8.56, 9.04, 8.63
 Component Sizing Information, Coil:Heating:Fuel, COIL HEATING GAS 3, Design Size Nominal Capacity [W], 67140.30911
 Component Sizing Information, Fan:ConstantVolume, FAN CONSTANT VOLUME 3, Design Size Maximum Flow Rate [m3/s], 1.18014
 Component Sizing Information, Controller:OutdoorAir, CONTROLLER OUTDOOR AIR 2, Maximum Outdoor Air Flow Rate [m3/s], 0.75468
 Component Sizing Information, Controller:OutdoorAir, CONTROLLER OUTDOOR AIR 2, Minimum Outdoor Air Flow Rate [m3/s], 0.57150
 Component Sizing Information, Coil:Cooling:DX:SingleSpeed, COIL COOLING DX SINGLE SPEED 2, Design Size Rated Air Flow Rate [m3/s], 0.75468
 Component Sizing Information, Coil:Cooling:DX:SingleSpeed, COIL COOLING DX SINGLE SPEED 2, Design Size Gross Rated Total Cooling Capacity [W], 12492.59632
 Component Sizing Information, Coil:Cooling:DX:SingleSpeed, COIL COOLING DX SINGLE SPEED 2, Design Size Gross Rated Sensible Heat Ratio, 0.80066
 DX Cooling Coil Standard Rating Information, Coil:Cooling:DX:SingleSpeed, COIL COOLING DX SINGLE SPEED 2, 11906.7, 2.51, 8.56, 9.04, 8.63
 Component Sizing Information, Coil:Heating:Fuel, COIL HEATING GAS 2, Design Size Nominal Capacity [W], 56978.49430
 Component Sizing Information, Fan:ConstantVolume, FAN CONSTANT VOLUME 2, Design Size Maximum Flow Rate [m3/s], 0.75468
Water Heater Information,WaterHeater:Mixed,53GAL NATURALGAS WATER HEATER - 36KBTU/HR,0.1992,10412.8,0.818,0.5806
 Component Sizing Information, PlantLoop, CHILLED WATER LOOP, Maximum Loop Flow Rate [m3/s], 7.92648E-004
 Component Sizing Information, PlantLoop, CHILLED WATER LOOP, Plant Loop Volume [m3], 9.51177E-002
 Component Sizing Information, Pump:ConstantSpeed, PUMP CONSTANT SPEED 1, Design Flow Rate [m3/s], 7.92648E-004
 Component Sizing Information, Pump:ConstantSpeed, PUMP CONSTANT SPEED 1, Design Power Consumption [W], 202.51131
 Component Sizing Information, Chiller:Electric:EIR, PRIMARY CHILLER WATERCOOLED SCROLL, Design Size Reference Chilled Water Flow Rate [m3/s], 7.92648E-004
 Component Sizing Information, Chiller:Electric:EIR, PRIMARY CHILLER WATERCOOLED SCROLL, Design Size Reference Capacity [W], 19962.83960
 Component Sizing Information, Chiller:Electric:EIR, PRIMARY CHILLER WATERCOOLED SCROLL, Design Size Reference Condenser Fluid Flow Rate [m3/s], 9.40811E-004
! <Chiller Standard Rating Information>, Component Type, Component Name, IPLV in SI Units {W/W}, IPLV in IP Units {Btu/W-h}
 Chiller Standard Rating Information, Chiller:Electric:EIR, PRIMARY CHILLER WATERCOOLED SCROLL, 7.88, 26.88
 Component Sizing Information, Chiller:Electric:EIR, SECONDARY CHILLER WATERCOOLED SCROLL, Design Size Reference Chilled Water Flow Rate [m3/s], 7.92648E-004
 Component Sizing Information, Chiller:Electric:EIR, SECONDARY CHILLER WATERCOOLED SCROLL, Design Size Reference Capacity [W], 19962.83960
 Component Sizing Information, Chiller:Electric:EIR, SECONDARY CHILLER WATERCOOLED SCROLL, Design Size Reference Condenser Fluid Flow Rate [m3/s], 9.40811E-004
 Chiller Standard Rating Information, Chiller:Electric:EIR, SECONDARY CHILLER WATERCOOLED SCROLL, 7.88, 26.88
 Component Sizing Information, PlantLoop, CHILLED WATER LOOP 1, Maximum Loop Flow Rate [m3/s], 4.90213E-004
 Component Sizing Information, PlantLoop, CHILLED WATER LOOP 1, Plant Loop Volume [m3], 5.88256E-002
 Component Sizing Information, Pump:ConstantSpeed, PUMP CONSTANT SPEED 3, Design Flow Rate [m3/s], 4.90213E-004
 Component Sizing Information, Pump:ConstantSpeed, PUMP CONSTANT SPEED 3, Design Power Consumption [W], 125.24322
 Component Sizing Information, Chiller:Electric:EIR, PRIMARY CHILLER WATERCOOLED SCROLL 1, Design Size Reference Chilled Water Flow Rate [m3/s], 4.90213E-004
 Component Sizing Information, Chiller:Electric:EIR, PRIMARY CHILLER WATERCOOLED SCROLL 1, Design Size Reference Capacity [W], 12346.02769
 Component Sizing Information, Chiller:Electric:EIR, PRIMARY CHILLER WATERCOOLED SCROLL 1, Design Size Reference Condenser Fluid Flow Rate [m3/s], 5.81845E-004
 Chiller Standard Rating Information, Chiller:Electric:EIR, PRIMARY CHILLER WATERCOOLED SCROLL 1, 7.88, 26.88
 Component Sizing Information, Chiller:Electric:EIR, SECONDARY CHILLER WATERCOOLED SCROLL 1, Design Size Reference Chilled Water Flow Rate [m3/s], 4.90213E-004
 Component Sizing Information, Chiller:Electric:EIR, SECONDARY CHILLER WATERCOOLED SCROLL 1, Design Size Reference Capacity [W], 12346.02769
 Component Sizing Information, Chiller:Electric:EIR, SECONDARY CHILLER WATERCOOLED SCROLL 1, Design Size Reference Condenser Fluid Flow Rate [m3/s], 5.81845E-004
 Chiller Standard Rating Information, Chiller:Electric:EIR, SECONDARY CHILLER WATERCOOLED SCROLL 1, 7.88, 26.88
 Component Sizing Information, PlantLoop, CONDENSER WATER LOOP, Maximum Loop Flow Rate [m3/s], 1.88162E-003
 Component Sizing Information, PlantLoop, CONDENSER WATER LOOP, Plant Loop Volume [m3], 0.22579
 Component Sizing Information, Pump:ConstantSpeed, PUMP CONSTANT SPEED 2, Design Flow Rate [m3/s], 1.88162E-003
 Component Sizing Information, Pump:ConstantSpeed, PUMP CONSTANT SPEED 2, Design Power Consumption [W], 480.73011
 Component Sizing Information, CoolingTower:SingleSpeed, COOLING TOWER SINGLE SPEED 1, Design Water Flow Rate [m3/s], 1.88162E-003
 Component Sizing Information, CoolingTower:SingleSpeed, COOLING TOWER SINGLE SPEED 1, Fan Power at Design Air Flow Rate [W], 412.85992
 Component Sizing Information, CoolingTower:SingleSpeed, COOLING TOWER SINGLE SPEED 1, Design Air Flow Rate [m3/s], 1.13528
 Component Sizing Information, CoolingTower:SingleSpeed, COOLING TOWER SINGLE SPEED 1, U-Factor Times Area Value at Design Air Flow Rate [W/C], 2027.31070
 Component Sizing Information, CoolingTower:SingleSpeed, COOLING TOWER SINGLE SPEED 1, Free Convection Regime Air Flow Rate [m3/s], 0.11353
 Component Sizing Information, CoolingTower:SingleSpeed, COOLING TOWER SINGLE SPEED 1, Free Convection U-Factor Times Area Value [W/K], 202.73107
 Component Sizing Information, PlantLoop, CONDENSER WATER LOOP 1, Maximum Loop Flow Rate [m3/s], 1.16369E-003
 Component Sizing Information, PlantLoop, CONDENSER WATER LOOP 1, Plant Loop Volume [m3], 0.13964
 Component Sizing Information, Pump:ConstantSpeed, PUMP CONSTANT SPEED 4, Design Flow Rate [m3/s], 1.16369E-003
 Component Sizing Information, Pump:ConstantSpeed, PUMP CONSTANT SPEED 4, Design Power Consumption [W], 297.30777
 Component Sizing Information, CoolingTower:SingleSpeed, COOLING TOWER SINGLE SPEED 2, Design Water Flow Rate [m3/s], 1.16369E-003
 Component Sizing Information, CoolingTower:SingleSpeed, COOLING TOWER SINGLE SPEED 2, Fan Power at Design Air Flow Rate [W], 255.33341
 Component Sizing Information, CoolingTower:SingleSpeed, COOLING TOWER SINGLE SPEED 2, Design Air Flow Rate [m3/s], 0.70212
 Component Sizing Information, CoolingTower:SingleSpeed, COOLING TOWER SINGLE SPEED 2, U-Factor Times Area Value at Design Air Flow Rate [W/C], 1253.79127
 Component Sizing Information, CoolingTower:SingleSpeed, COOLING TOWER SINGLE SPEED 2, Free Convection Regime Air Flow Rate [m3/s], 7.02116E-002
 Component Sizing Information, CoolingTower:SingleSpeed, COOLING TOWER SINGLE SPEED 2, Free Convection U-Factor Times Area Value [W/K], 125.37913
 Component Sizing Information, PlantLoop, HOT WATER LOOP, Maximum Loop Flow Rate [m3/s], 1.91477E-003
 Component Sizing Information, PlantLoop, HOT WATER LOOP, Plant Loop Volume [m3], 0.22977
 Component Sizing Information, Pump:VariableSpeed, PUMP VARIABLE SPEED 1, Design Flow Rate [m3/s], 1.91477E-003
 Component Sizing Information, Pump:VariableSpeed, PUMP VARIABLE SPEED 1, Design Power Consumption [W], 489.19830
 Component Sizing Information, Boiler:HotWater, PRIMARY BOILER, Design Size Nominal Capacity [W], 128695.94671
 Component Sizing Information, Boiler:HotWater, PRIMARY BOILER, Design Size Design Water Flow Rate [m3/s], 1.91477E-003
 Component Sizing Information, Boiler:HotWater, SECONDARY BOILER, Design Size Nominal Capacity [W], 128695.94671
 Component Sizing Information, Boiler:HotWater, SECONDARY BOILER, Design Size Design Water Flow Rate [m3/s], 1.91477E-003
 Component Sizing Information, PlantLoop, MAIN SERVICE WATER LOOP, Maximum Loop Flow Rate [m3/s], 5.03257E-005
 Component Sizing Information, PlantLoop, MAIN SERVICE WATER LOOP, Plant Loop Volume [m3], 6.03908E-003
 Component Sizing Information, Pump:ConstantSpeed, SERVICE WATER LOOP PUMP, Design Flow Rate [m3/s], 5.03257E-005
 Component Sizing Information, Pump:ConstantSpeed, SERVICE WATER LOOP PUMP, Design Power Consumption [W], 0.15239
 Component Sizing Information, WaterHeater:Mixed, 53GAL NATURALGAS WATER HEATER - 36KBTU/HR, Use Side Design Flow Rate [m3/s], 5.03257E-005
! <Environment>,Environment Name,Environment Type, Start Date, End Date, Start DayOfWeek, Duration {#days}, Source:Start DayOfWeek,  Use Daylight Saving, Use Holidays, Apply Weekend Holiday Rule,  Use Rain Values, Use Snow Values
! <Environment:Special Days>, Special Day Name, Special Day Type, Source, Start Date, Duration {#days}
! <Environment:Daylight Saving>, Daylight Saving Indicator, Source, Start Date, End Date
! <Environment:WarmupDays>, NumberofWarmupDays
Environment,FORT MCMURRAY AP ANN CLG .4% CONDNS DB=>MWB,SizingPeriod:DesignDay,07/21,07/21,SummerDesignDay,1,N/A,N/A,N/A,N/A,N/A,N/A
Environment:Daylight Saving,No,SizingPeriod:DesignDay
! <Environment:Design Day Data>, Max Dry-Bulb Temp {C}, Temp Range {dC}, Temp Range Ind Type, Hum Ind Value at Max Temp, Hum Ind Type,Pressure {Pa}, Wind Direction {deg CW from N}, Wind Speed {m/s}, Clearness, Rain, Snow
! <Environment:Design Day Misc>,DayOfYear,ASHRAE A Coeff,ASHRAE B Coeff,ASHRAE C Coeff,Solar Constant-Annual Variation,Eq of Time {minutes}, Solar Declination Angle {deg}, Solar Model
Environment:Design Day Data,28.90,12.40,DefaultMultipliers,96969,250,3.7,0.00,No,No
Environment:Design Day Misc,202,1084.4,0.2082,0.1365,1.0,-6.23,20.6,ASHRAETau
Environment:WarmupDays,  6
! <Tabular Report>,Style,Unit Conversion
Tabular Report,HTML,None
! <Warmup Convergence Information>,Zone Name,Environment Type/Name,Average Warmup Temperature Difference {deltaC},Std Dev Warmup Temperature Difference {deltaC},Max Temperature Pass/Fail Convergence,Min Temperature Pass/Fail Convergence,Average Warmup Load Difference {W},Std Dev Warmup Load Difference {W},Heating Load Pass/Fail Convergence,Cooling Load Pass/Fail Convergence
 Warmup Convergence Information,ALL_ST=WAREHOUSE - FINE - REFRIGERATED_FL=STORY 1_SCH=A,SizingPeriod: FORT MCMURRAY AP ANN CLG .4% CONDNS DB=>MWB,0.1356520694,0.1257971699,Pass,Pass,4.1023856350E-002,3.8319559348E-002,Pass,Pass
 Warmup Convergence Information,ALL_ST=WAREHOUSE - FINE_FL=STORY 1_SCH=A,SizingPeriod: FORT MCMURRAY AP ANN CLG .4% CONDNS DB=>MWB,4.4947167391E-002,9.3851276891E-002,Pass,Pass,5.2338878573E-002,0.1604802216,Pass,Pass
 Warmup Convergence Information,ALL_ST=WAREHOUSE - MED/BLK - REFRIGERATED_FL=STORY 1_SCH=A,SizingPeriod: FORT MCMURRAY AP ANN CLG .4% CONDNS DB=>MWB,0.1159571174,9.9445343372E-002,Pass,Pass,0.1342713349,0.3531105634,Pass,Pass
 Warmup Convergence Information,ALL_ST=WAREHOUSE - MED/BLK2_FL=STORY 1_SCH=A,SizingPeriod: FORT MCMURRAY AP ANN CLG .4% CONDNS DB=>MWB,4.3206422071E-002,9.1558409049E-002,Pass,Pass,5.1296398914E-002,0.1558895111,Pass,Pass
 Warmup Convergence Information,ALL_ST=WAREHOUSE - MED/BLK_FL=STORY 1_SCH=A,SizingPeriod: FORT MCMURRAY AP ANN CLG .4% CONDNS DB=>MWB,4.9185412071E-002,8.7918517992E-002,Pass,Pass,4.7656541355E-002,0.1383737953,Pass,Pass
Environment,FORT MCMURRAY AP ANN HTG 99.6% CONDNS DB,SizingPeriod:DesignDay,01/21,01/21,WinterDesignDay,1,N/A,N/A,N/A,N/A,N/A,N/A
Environment:Daylight Saving,No,SizingPeriod:DesignDay
Environment:Design Day Data,-36.20,0.00,DefaultMultipliers,96969,90,1.0,0.00,No,No
Environment:Design Day Misc, 21,1229.0,0.1415,5.7310E-002,1.0,-11.15,-20.1,ASHRAEClearSky
Environment:WarmupDays,  6
 Warmup Convergence Information,ALL_ST=WAREHOUSE - FINE - REFRIGERATED_FL=STORY 1_SCH=A,SizingPeriod: FORT MCMURRAY AP ANN HTG 99.6% CONDNS DB,8.4168736201E-002,9.9751630023E-002,Pass,Pass,3.2749334001E-003,4.2612301455E-003,Pass,Pass
 Warmup Convergence Information,ALL_ST=WAREHOUSE - FINE_FL=STORY 1_SCH=A,SizingPeriod: FORT MCMURRAY AP ANN HTG 99.6% CONDNS DB,5.5558657641E-002,0.1999654728,Pass,Pass,0.4448143709,2.0328361284,Pass,Pass
 Warmup Convergence Information,ALL_ST=WAREHOUSE - MED/BLK - REFRIGERATED_FL=STORY 1_SCH=A,SizingPeriod: FORT MCMURRAY AP ANN HTG 99.6% CONDNS DB,5.8109539341E-002,6.8652419561E-002,Pass,Pass,2.6064320247E-003,3.1126750706E-003,Pass,Pass
 Warmup Convergence Information,ALL_ST=WAREHOUSE - MED/BLK2_FL=STORY 1_SCH=A,SizingPeriod: FORT MCMURRAY AP ANN HTG 99.6% CONDNS DB,5.5558177519E-002,0.1970767112,Pass,Pass,0.2797021529,0.9916431113,Pass,Pass
 Warmup Convergence Information,ALL_ST=WAREHOUSE - MED/BLK_FL=STORY 1_SCH=A,SizingPeriod: FORT MCMURRAY AP ANN HTG 99.6% CONDNS DB,5.5562218821E-002,0.1814940372,Pass,Pass,0.9019621029,6.1280893970,Pass,Pass
! <Program Control Information:Threads/Parallel Sims>, Threading Supported,Maximum Number of Threads, Env Set Threads (OMP_NUM_THREADS), EP Env Set Threads (EP_OMP_NUM_THREADS), IDF Set Threads, Number of Threads Used (Interior Radiant Exchange), Number Nominal Surfaces, Number Parallel Sims
Program Control:Threads/Parallel Sims, No,1, N/A, N/A, N/A, N/A, N/A, N/A
End of Data
