Program Version,EnergyPlus, Version 8.9.0-eba93e8e1b, YMD=2019.03.28 14:11
! <Version>, Version ID
 Version, 8.9
! <Timesteps per Hour>, #TimeSteps, Minutes per TimeStep {minutes}
 Timesteps per Hour,  6, 10
! <System Convergence Limits>, Minimum System TimeStep {minutes}, Max HVAC Iterations, Minimum Plant Iterations, Maximum Plant Iterations
 System Convergence Limits, 1, 20, 2, 8
! <Simulation Control>, Do Zone Sizing, Do System Sizing, Do Plant Sizing, Do Design Days, Do Weather Simulation, Do HVAC Sizing Simulation
 Simulation Control, Yes, Yes, Yes, Yes, No, No
! <Output Reporting Tolerances>, Tolerance for Time Heating Setpoint Not Met, Tolerance for Zone Cooling Setpoint Not Met Time
 Output Reporting Tolerances, 1.000, 1.000, 
! <Site:GroundTemperature:BuildingSurface>,Jan{C},Feb{C},Mar{C},Apr{C},May{C},Jun{C},Jul{C},Aug{C},Sep{C},Oct{C},Nov{C},Dec{C}
 Site:GroundTemperature:BuildingSurface,  19.53,  19.50,  19.54,  19.60,  20.00,  21.64,  22.23,  22.38,  21.45,  20.12,  19.80,  19.63
! <Site:GroundTemperature:FCfactorMethod>,Jan{C},Feb{C},Mar{C},Apr{C},May{C},Jun{C},Jul{C},Aug{C},Sep{C},Oct{C},Nov{C},Dec{C}
 Site:GroundTemperature:FCfactorMethod, -12.27, -13.66, -11.19,  -7.33,   2.77,  10.57,  15.83,  17.43,  14.70,   8.65,   0.56,  -6.95
! <Site:GroundTemperature:Shallow>,Jan{C},Feb{C},Mar{C},Apr{C},May{C},Jun{C},Jul{C},Aug{C},Sep{C},Oct{C},Nov{C},Dec{C}
 Site:GroundTemperature:Shallow,  13.00,  13.00,  13.00,  13.00,  13.00,  13.00,  13.00,  13.00,  13.00,  13.00,  13.00,  13.00
! <Site:GroundTemperature:Deep>,Jan{C},Feb{C},Mar{C},Apr{C},May{C},Jun{C},Jul{C},Aug{C},Sep{C},Oct{C},Nov{C},Dec{C}
 Site:GroundTemperature:Deep,  16.00,  16.00,  16.00,  16.00,  16.00,  16.00,  16.00,  16.00,  16.00,  16.00,  16.00,  16.00
! <Site:GroundReflectance>,Jan{dimensionless},Feb{dimensionless},Mar{dimensionless},Apr{dimensionless},May{dimensionless},Jun{dimensionless},Jul{dimensionless},Aug{dimensionless},Sep{dimensionless},Oct{dimensionless},Nov{dimensionless},Dec{dimensionless}
 Site:GroundReflectance,  0.20,  0.20,  0.20,  0.20,  0.20,  0.20,  0.20,  0.20,  0.20,  0.20,  0.20,  0.20
! <Site:GroundReflectance:SnowModifier>, Normal, Daylighting {dimensionless}
 Site:GroundReflectance:SnowModifier,   1.000,   1.000
! <Site:GroundReflectance:Snow>,Jan{dimensionless},Feb{dimensionless},Mar{dimensionless},Apr{dimensionless},May{dimensionless},Jun{dimensionless},Jul{dimensionless},Aug{dimensionless},Sep{dimensionless},Oct{dimensionless},Nov{dimensionless},Dec{dimensionless}
 Site:GroundReflectance:Snow,  0.20,  0.20,  0.20,  0.20,  0.20,  0.20,  0.20,  0.20,  0.20,  0.20,  0.20,  0.20
! <Site:GroundReflectance:Snow:Daylighting>,Jan{dimensionless},Feb{dimensionless},Mar{dimensionless},Apr{dimensionless},May{dimensionless},Jun{dimensionless},Jul{dimensionless},Aug{dimensionless},Sep{dimensionless},Oct{dimensionless},Nov{dimensionless},Dec{dimensionless}
 Site:GroundReflectance:Snow:Daylighting,  0.20,  0.20,  0.20,  0.20,  0.20,  0.20,  0.20,  0.20,  0.20,  0.20,  0.20,  0.20
! <Environment:Weather Station>,Wind Sensor Height Above Ground {m},Wind Speed Profile Exponent {},Wind Speed Profile Boundary Layer Thickness {m},Air Temperature Sensor Height Above Ground {m},Wind Speed Modifier Coefficient-Internal,Temperature Modifier Coefficient-Internal
Environment:Weather Station,10.000,0.140,270.000,1.500,1.586,9.750E-003
! <Site:Location>, Location Name, Latitude {N+/S- Deg}, Longitude {E+/W- Deg},  Time Zone Number {GMT+/-}, Elevation {m},  Standard Pressure at Elevation {Pa}, Standard RhoAir at Elevation
Site:Location,Fort McMurray AP AB CAN CWEC2016 WMO#=716890,56.65,-111.22,-7.00,369.10,96969,1.1525
! <Building Information>, Building Name,North Axis {deg},Terrain,  Loads Convergence Tolerance Value,Temperature Convergence Tolerance Value,  Solar Distribution,Maximum Number of Warmup Days,Minimum Number of Warmup Days
 Building Information,Building 1,0.000,Suburbs,4.00000E-002,0.40000,FullExterior,25,6
! <Inside Convection Algorithm>, Algorithm {Simple | TARP | CeilingDiffuser | AdaptiveConvectionAlgorithm}
Inside Convection Algorithm,TARP
! <Outside Convection Algorithm>, Algorithm {SimpleCombined | TARP | MoWitt | DOE-2 | AdaptiveConvectionAlgorithm}
Outside Convection Algorithm,TARP
! <Sky Radiance Distribution>, Value {Anisotropic}
Sky Radiance Distribution,Anisotropic
! <Zone Air Solution Algorithm>, Value {ThirdOrderBackwardDifference | AnalyticalSolution | EulerMethod}
 Zone Air Solution Algorithm, ThirdOrderBackwardDifference
! <Zone Air Carbon Dioxide Balance Simulation>, Simulation {Yes/No}, Carbon Dioxide Concentration
 Zone Air Carbon Dioxide Balance Simulation, No,N/A
! <Zone Air Generic Contaminant Balance Simulation>, Simulation {Yes/No}, Generic Contaminant Concentration
 Zone Air Generic Contaminant Balance Simulation, No,N/A
! <Zone Air Mass Flow Balance Simulation>, Enforce Mass Balance, Adjust Zone Mixing, Adjust Zone Infiltration {AddInfiltration | AdjustInfiltration | None}, Infiltration Zones {MixingSourceZonesOnly | AllZones}
 Zone Air Mass Flow Balance Simulation, No,N/A,N/A,N/A
! <HVACSystemRootFindingAlgorithm>, Value {RegulaFalsi | Bisection | BisectionThenRegulaFalsi | RegulaFalsiThenBisection}
 HVACSystemRootFindingAlgorithm, RegulaFalsi
! <Environment:Site Atmospheric Variation>,Wind Speed Profile Exponent {},Wind Speed Profile Boundary Layer Thickness {m},Air Temperature Gradient Coefficient {K/m}
Environment:Site Atmospheric Variation,0.220,370.000,6.500000E-003
! <Surface Geometry>,Starting Corner,Vertex Input Direction,Coordinate System,Daylight Reference Point Coordinate System,Rectangular (Simple) Surface Coordinate System
 Surface Geometry,UpperLeftCorner,Counterclockwise,RelativeCoordinateSystem,RelativeCoordinateSystem,RelativeToZoneOrigin
! <Surface Heat Transfer Algorithm>, Value {CTF - ConductionTransferFunction | EMPD - MoisturePenetrationDepthConductionTransferFunction | CondFD - ConductionFiniteDifference | HAMT - CombinedHeatAndMoistureFiniteElement} - Description,Inside Surface Max Temperature Limit{C}, Surface Convection Coefficient Lower Limit {W/m2-K}, Surface Convection Coefficient Upper Limit {W/m2-K}
Surface Heat Transfer Algorithm, CTF - ConductionTransferFunction,200,0.10,1000.0
! <Shading Summary>, Number of Fixed Detached Shades, Number of Building Detached Shades, Number of Attached Shades
 Shading Summary,0,0,0
! <Zone Summary>, Number of Zones, Number of Zone Surfaces, Number of SubSurfaces
 Zone Summary,20,137,17
! <Zone Information>,Zone Name,North Axis {deg},Origin X-Coordinate {m},Origin Y-Coordinate {m},Origin Z-Coordinate {m},Centroid X-Coordinate {m},Centroid Y-Coordinate {m},Centroid Z-Coordinate {m},Type,Zone Multiplier,Zone List Multiplier,Minimum X {m},Maximum X {m},Minimum Y {m},Maximum Y {m},Minimum Z {m},Maximum Z {m},Ceiling Height {m},Volume {m3},Zone Inside Convection Algorithm {Simple-Detailed-CeilingDiffuser-TrombeWall},Zone Outside Convection Algorithm {Simple-Detailed-Tarp-MoWitt-DOE-2-BLAST}, Floor Area {m2},Exterior Gross Wall Area {m2},Exterior Net Wall Area {m2},Exterior Window Area {m2}, Number of Surfaces, Number of SubSurfaces, Number of Shading SubSurfaces,  Part of Total Building Area
 Zone Information, SP-ATRIUM (6 =< HEIGHT <= 12M)-SCH-G-SPACE FUNCTION SYS-6 FLR-4 SCH-G HPLCMT-SOUTH ZN,0.0,0.00,0.00,11.40,50.00,10.85,13.30,1,1,1,0.00,100.00,0.00,25.00,11.40,15.20,3.80,7125.00,TARP,TARP,1875.00,380.00,285.00,132.50,6,2,0,Yes
 Zone Information, SP-ATRIUM (6 =< HEIGHT <= 12M)-SCH-H-SPACE FUNCTION SYS-6 FLR-3 SCH-H HPLCMT-CORE ZN,0.0,25.00,25.00,7.60,50.00,50.00,9.50,1,1,1,25.00,75.00,25.00,75.00,7.60,11.40,3.80,9500.00,TARP,TARP,2500.00,0.00,0.00,0.00,6,0,0,Yes
 Zone Information, SP-ATRIUM (6 =< HEIGHT <= 12M)-SCH-I-SPACE FUNCTION SYS-6 FLR-3 SCH-I HPLCMT-EAST ZN,0.0,75.00,25.00,7.60,89.15,50.00,9.50,1,1,1,75.00,100.00,0.00,100.00,7.60,11.40,3.80,7125.00,TARP,TARP,1875.00,380.00,285.00,95.00,6,1,0,Yes
 Zone Information, SP-ATRIUM (6 =< HEIGHT <= 12M)-SCH-J-SPACE FUNCTION SYS-6 FLR-3 SCH-J HPLCMT-NORTH ZN,0.0,25.00,75.00,7.60,50.00,89.15,9.50,1,1,1,0.00,100.00,75.00,100.00,7.60,11.40,3.80,7125.00,TARP,TARP,1875.00,380.00,285.00,95.00,6,1,0,Yes
 Zone Information, SP-ATRIUM (6 =< HEIGHT <= 12M)-SCH-K-SPACE FUNCTION SYS-6 FLR-1 SCH-K HPLCMT-WEST ZN,0.0,0.00,0.00,0.00,10.85,50.00,1.90,1,1,1,0.00,25.00,0.00,100.00,0.00,3.80,3.80,7125.00,TARP,TARP,1875.00,0.00,0.00,0.00,6,0,0,Yes
 Zone Information, SP-AUDIENCE SEATING AREA PERMANENT - AUDITORIUM-SPACE FUNCTION SYS-3 FLR-4 SCH-C HPLCMT-CORE ZN,0.0,25.00,25.00,11.40,50.00,50.00,13.30,1,1,1,25.00,75.00,25.00,75.00,11.40,15.20,3.80,9500.00,TARP,TARP,2500.00,0.00,0.00,50.00,6,1,0,Yes
 Zone Information, SP-AUDIENCE SEATING AREA PERMANENT - CONVENTION CENTRE-SPACE FUNCTION SYS-3 FLR-3 SCH-C HPLCMT-SOUTH ZN,0.0,0.00,0.00,7.60,50.00,10.85,9.50,1,1,1,0.00,100.00,0.00,25.00,7.60,11.40,3.80,7125.00,TARP,TARP,1875.00,380.00,285.00,95.00,6,1,0,Yes
 Zone Information, SP-AUDIENCE SEATING AREA PERMANENT - GYMNASIUM-SPACE FUNCTION SYS-6 FLR-2 SCH-B HPLCMT-SOUTH ZN,0.0,0.00,0.00,3.80,50.00,10.85,5.70,1,1,1,0.00,100.00,0.00,25.00,3.80,7.60,3.80,7125.00,TARP,TARP,1875.00,380.00,285.00,95.00,6,1,0,Yes
 Zone Information, SP-AUDIENCE SEATING AREA PERMANENT - MOTION PICTURE THEATRE-SPACE FUNCTION SYS-3 FLR-1 SCH-C HPLCMT-NORTH ZN,0.0,25.00,75.00,0.00,50.00,89.15,1.90,1,1,1,0.00,100.00,75.00,100.00,0.00,3.80,3.80,7125.00,TARP,TARP,1875.00,0.00,0.00,0.00,6,0,0,Yes
 Zone Information, SP-AUDIENCE SEATING AREA PERMANENT - OTHER-SCH-A-SPACE FUNCTION SYS-3 FLR-1 SCH-A HPLCMT-SOUTH ZN,0.0,0.00,0.00,0.00,50.00,10.85,1.90,1,1,1,0.00,100.00,0.00,25.00,0.00,3.80,3.80,7125.00,TARP,TARP,1875.00,0.00,0.00,0.00,6,0,0,Yes
 Zone Information, SP-AUDIENCE SEATING AREA PERMANENT - OTHER-SCH-B-SPACE FUNCTION SYS-3 FLR-1 SCH-B HPLCMT-EAST ZN,0.0,75.00,25.00,0.00,89.15,50.00,1.90,1,1,1,75.00,100.00,0.00,100.00,0.00,3.80,3.80,7125.00,TARP,TARP,1875.00,0.00,0.00,0.00,6,0,0,Yes
 Zone Information, SP-AUDIENCE SEATING AREA PERMANENT - OTHER-SCH-C-SPACE FUNCTION SYS-3 FLR-2 SCH-C HPLCMT-WEST ZN,0.0,0.00,0.00,3.80,10.85,50.00,5.70,1,1,1,0.00,25.00,0.00,100.00,3.80,7.60,3.80,7125.00,TARP,TARP,1875.00,380.00,285.00,95.00,6,1,0,Yes
 Zone Information, SP-AUDIENCE SEATING AREA PERMANENT - OTHER-SCH-D-SPACE FUNCTION SYS-3 FLR-3 SCH-D HPLCMT-WEST ZN,0.0,0.00,0.00,7.60,10.85,50.00,9.50,1,1,1,0.00,25.00,0.00,100.00,7.60,11.40,3.80,7125.00,TARP,TARP,1875.00,380.00,285.00,95.00,6,1,0,Yes
 Zone Information, SP-AUDIENCE SEATING AREA PERMANENT - OTHER-SCH-E-SPACE FUNCTION SYS-3 FLR-1 SCH-E HPLCMT-CORE ZN,0.0,25.00,25.00,0.00,50.00,50.00,1.90,1,1,1,25.00,75.00,25.00,75.00,0.00,3.80,3.80,9500.00,TARP,TARP,2500.00,0.00,0.00,0.00,6,0,0,Yes
 Zone Information, SP-AUDIENCE SEATING AREA PERMANENT - OTHER-SCH-F-SPACE FUNCTION SYS-3 FLR-2 SCH-F HPLCMT-NORTH ZN,0.0,25.00,75.00,3.80,50.00,89.15,5.70,1,1,1,0.00,100.00,75.00,100.00,3.80,7.60,3.80,7125.00,TARP,TARP,1875.00,380.00,285.00,95.00,6,1,0,Yes
 Zone Information, SP-AUDIENCE SEATING AREA PERMANENT - OTHER-SCH-G-SPACE FUNCTION SYS-3 FLR-2 SCH-G HPLCMT-EAST ZN,0.0,75.00,25.00,3.80,89.15,50.00,5.70,1,1,1,75.00,100.00,0.00,100.00,3.80,7.60,3.80,7125.00,TARP,TARP,1875.00,380.00,285.00,95.00,6,1,0,Yes
 Zone Information, SP-AUDIENCE SEATING AREA PERMANENT - PENITENTIARY-SPACE FUNCTION SYS-3 FLR-4 SCH-C HPLCMT-WEST ZN,0.0,0.00,0.00,11.40,10.85,50.00,13.30,1,1,1,0.00,25.00,0.00,100.00,11.40,15.20,3.80,7125.00,TARP,TARP,1875.00,380.00,285.00,132.50,6,2,0,Yes
 Zone Information, SP-AUDIENCE SEATING AREA PERMANENT - PERFORMING ARTS THEATRE-SPACE FUNCTION SYS-3 FLR-2 SCH-C HPLCMT-CORE ZN,0.0,25.00,25.00,3.80,50.00,50.00,5.70,1,1,1,25.00,75.00,25.00,75.00,3.80,7.60,3.80,9500.00,TARP,TARP,2500.00,0.00,0.00,0.00,6,0,0,Yes
 Zone Information, SP-AUDIENCE SEATING AREA PERMANENT - RELIGIOUS BUILDING-SPACE FUNCTION SYS-3 FLR-4 SCH-I HPLCMT-EAST ZN,0.0,75.00,25.00,11.40,89.15,50.00,13.30,1,1,1,75.00,100.00,0.00,100.00,11.40,15.20,3.80,7125.00,TARP,TARP,1875.00,380.00,285.00,132.50,6,2,0,Yes
 Zone Information, SP-AUDIENCE SEATING AREA PERMANENT - SPORTS ARENA-SPACE FUNCTION SYS-6 FLR-4 SCH-B HPLCMT-NORTH ZN,0.0,25.00,75.00,11.40,50.00,89.15,13.30,1,1,1,0.00,100.00,75.00,100.00,11.40,15.20,3.80,7125.00,TARP,TARP,1875.00,380.00,285.00,132.50,6,2,0,Yes
! <Zone Internal Gains Nominal>,Zone Name, Floor Area {m2},# Occupants,Area per Occupant {m2/person},Occupant per Area {person/m2},Interior Lighting {W/m2},Electric Load {W/m2},Gas Load {W/m2},Other Load {W/m2},Hot Water Eq {W/m2},Steam Equipment {W/m2},Sum Loads per Area {W/m2},Outdoor Controlled Baseboard Heat
 Zone Internal Gains Nominal, SP-ATRIUM (6 =< HEIGHT <= 12M)-SCH-G-SPACE FUNCTION SYS-6 FLR-4 SCH-G HPLCMT-SOUTH ZN,1875.00,187.6,9.996,0.100,1.060,2.501,0.000,0.000,0.000,0.000,3.561,No
 Zone Internal Gains Nominal, SP-ATRIUM (6 =< HEIGHT <= 12M)-SCH-H-SPACE FUNCTION SYS-6 FLR-3 SCH-H HPLCMT-CORE ZN,2500.00,250.1,9.996,0.100,1.060,2.501,0.000,0.000,0.000,0.000,3.561,No
 Zone Internal Gains Nominal, SP-ATRIUM (6 =< HEIGHT <= 12M)-SCH-I-SPACE FUNCTION SYS-6 FLR-3 SCH-I HPLCMT-EAST ZN,1875.00,187.6,9.996,0.100,1.060,2.501,0.000,0.000,0.000,0.000,3.561,No
 Zone Internal Gains Nominal, SP-ATRIUM (6 =< HEIGHT <= 12M)-SCH-J-SPACE FUNCTION SYS-6 FLR-3 SCH-J HPLCMT-NORTH ZN,1875.00,187.6,9.996,0.100,1.060,2.501,0.000,0.000,0.000,0.000,3.561,No
 Zone Internal Gains Nominal, SP-ATRIUM (6 =< HEIGHT <= 12M)-SCH-K-SPACE FUNCTION SYS-6 FLR-1 SCH-K HPLCMT-WEST ZN,1875.00,187.6,9.996,0.100,1.060,2.501,0.000,0.000,0.000,0.000,3.561,No
 Zone Internal Gains Nominal, SP-AUDIENCE SEATING AREA PERMANENT - AUDITORIUM-SPACE FUNCTION SYS-3 FLR-4 SCH-C HPLCMT-CORE ZN,2500.00,500.2,4.998,0.200,6.802,2.501,0.000,0.000,0.000,0.000,9.303,No
 Zone Internal Gains Nominal, SP-AUDIENCE SEATING AREA PERMANENT - CONVENTION CENTRE-SPACE FUNCTION SYS-3 FLR-3 SCH-C HPLCMT-SOUTH ZN,1875.00,375.1,4.998,0.200,8.800,2.501,0.000,0.000,0.000,0.000,11.301,No
 Zone Internal Gains Nominal, SP-AUDIENCE SEATING AREA PERMANENT - GYMNASIUM-SPACE FUNCTION SYS-6 FLR-2 SCH-B HPLCMT-SOUTH ZN,1875.00,375.1,4.998,0.200,7.003,0.000,0.000,0.000,0.000,0.000,7.003,No
 Zone Internal Gains Nominal, SP-AUDIENCE SEATING AREA PERMANENT - MOTION PICTURE THEATRE-SPACE FUNCTION SYS-3 FLR-1 SCH-C HPLCMT-NORTH ZN,1875.00,375.1,4.998,0.200,12.304,2.501,0.000,0.000,0.000,0.000,14.805,No
 Zone Internal Gains Nominal, SP-AUDIENCE SEATING AREA PERMANENT - OTHER-SCH-A-SPACE FUNCTION SYS-3 FLR-1 SCH-A HPLCMT-SOUTH ZN,1875.00,375.1,4.998,0.200,4.602,1.000,0.000,0.000,0.000,0.000,5.602,No
 Zone Internal Gains Nominal, SP-AUDIENCE SEATING AREA PERMANENT - OTHER-SCH-B-SPACE FUNCTION SYS-3 FLR-1 SCH-B HPLCMT-EAST ZN,1875.00,375.1,4.998,0.200,4.602,1.000,0.000,0.000,0.000,0.000,5.602,No
 Zone Internal Gains Nominal, SP-AUDIENCE SEATING AREA PERMANENT - OTHER-SCH-C-SPACE FUNCTION SYS-3 FLR-2 SCH-C HPLCMT-WEST ZN,1875.00,375.1,4.998,0.200,4.602,1.000,0.000,0.000,0.000,0.000,5.602,No
 Zone Internal Gains Nominal, SP-AUDIENCE SEATING AREA PERMANENT - OTHER-SCH-D-SPACE FUNCTION SYS-3 FLR-3 SCH-D HPLCMT-WEST ZN,1875.00,375.1,4.998,0.200,4.602,1.000,0.000,0.000,0.000,0.000,5.602,No
 Zone Internal Gains Nominal, SP-AUDIENCE SEATING AREA PERMANENT - OTHER-SCH-E-SPACE FUNCTION SYS-3 FLR-1 SCH-E HPLCMT-CORE ZN,2500.00,500.2,4.998,0.200,4.602,1.000,0.000,0.000,0.000,0.000,5.602,No
 Zone Internal Gains Nominal, SP-AUDIENCE SEATING AREA PERMANENT - OTHER-SCH-F-SPACE FUNCTION SYS-3 FLR-2 SCH-F HPLCMT-NORTH ZN,1875.00,375.1,4.998,0.200,4.602,1.000,0.000,0.000,0.000,0.000,5.602,No
 Zone Internal Gains Nominal, SP-AUDIENCE SEATING AREA PERMANENT - OTHER-SCH-G-SPACE FUNCTION SYS-3 FLR-2 SCH-G HPLCMT-EAST ZN,1875.00,375.1,4.998,0.200,4.602,1.000,0.000,0.000,0.000,0.000,5.602,No
 Zone Internal Gains Nominal, SP-AUDIENCE SEATING AREA PERMANENT - PENITENTIARY-SPACE FUNCTION SYS-3 FLR-4 SCH-C HPLCMT-WEST ZN,1875.00,375.1,4.998,0.200,3.001,2.501,0.000,0.000,0.000,0.000,5.502,No
 Zone Internal Gains Nominal, SP-AUDIENCE SEATING AREA PERMANENT - PERFORMING ARTS THEATRE-SPACE FUNCTION SYS-3 FLR-2 SCH-C HPLCMT-CORE ZN,2500.00,333.5,7.497,0.133,21.800,2.501,0.000,0.000,0.000,0.000,24.301,No
 Zone Internal Gains Nominal, SP-AUDIENCE SEATING AREA PERMANENT - RELIGIOUS BUILDING-SPACE FUNCTION SYS-3 FLR-4 SCH-I HPLCMT-EAST ZN,1875.00,375.1,4.998,0.200,16.506,1.000,0.000,0.000,0.000,0.000,17.506,No
 Zone Internal Gains Nominal, SP-AUDIENCE SEATING AREA PERMANENT - SPORTS ARENA-SPACE FUNCTION SYS-6 FLR-4 SCH-B HPLCMT-NORTH ZN,1875.00,375.1,4.998,0.200,4.602,0.000,0.000,0.000,0.000,0.000,4.602,No
! <People Internal Gains Nominal>,Name,Schedule Name,Zone Name,Zone Floor Area {m2},# Zone Occupants,Number of People {},People/Floor Area {person/m2},Floor Area per person {m2/person},Fraction Radiant,Fraction Convected,Sensible Fraction Calculation,Activity level,ASHRAE 55 Warnings,Carbon Dioxide Generation Rate,Nominal Minimum Number of People,Nominal Maximum Number of People
 People Internal Gains Nominal, SP-ATRIUM (6 =< HEIGHT <= 12M)-SCH-G-SPACE FUNCTION SYS-6 FLR-4 SCH-G HPLCMT-SOUTH ZN SPACE FUNCTION ATRIUM (6 =< HEIGHT <= 12M)-SCH-G PEOPLE,NECB-G-OCCUPANCY,SP-ATRIUM (6 =< HEIGHT <= 12M)-SCH-G-SPACE FUNCTION SYS-6 FLR-4 SCH-G HPLCMT-SOUTH ZN,1875.00,187.6,187.6,0.100,9.996,0.300,0.700,AutoCalculate,NECB-ACTIVITY,No,3.8200E-008,56,169
 People Internal Gains Nominal, SP-ATRIUM (6 =< HEIGHT <= 12M)-SCH-H-SPACE FUNCTION SYS-6 FLR-3 SCH-H HPLCMT-CORE ZN SPACE FUNCTION ATRIUM (6 =< HEIGHT <= 12M)-SCH-H PEOPLE,NECB-H-OCCUPANCY,SP-ATRIUM (6 =< HEIGHT <= 12M)-SCH-H-SPACE FUNCTION SYS-6 FLR-3 SCH-H HPLCMT-CORE ZN,2500.00,250.1,250.1,0.100,9.996,0.300,0.700,AutoCalculate,NECB-ACTIVITY,No,3.8200E-008,225,225
 People Internal Gains Nominal, SP-ATRIUM (6 =< HEIGHT <= 12M)-SCH-I-SPACE FUNCTION SYS-6 FLR-3 SCH-I HPLCMT-EAST ZN SPACE FUNCTION ATRIUM (6 =< HEIGHT <= 12M)-SCH-I PEOPLE,NECB-I-OCCUPANCY,SP-ATRIUM (6 =< HEIGHT <= 12M)-SCH-I-SPACE FUNCTION SYS-6 FLR-3 SCH-I HPLCMT-EAST ZN,1875.00,187.6,187.6,0.100,9.996,0.300,0.700,AutoCalculate,NECB-ACTIVITY,No,3.8200E-008,0,150
 People Internal Gains Nominal, SP-ATRIUM (6 =< HEIGHT <= 12M)-SCH-J-SPACE FUNCTION SYS-6 FLR-3 SCH-J HPLCMT-NORTH ZN SPACE FUNCTION ATRIUM (6 =< HEIGHT <= 12M)-SCH-J PEOPLE,NECB-J-OCCUPANCY,SP-ATRIUM (6 =< HEIGHT <= 12M)-SCH-J-SPACE FUNCTION SYS-6 FLR-3 SCH-J HPLCMT-NORTH ZN,1875.00,187.6,187.6,0.100,9.996,0.300,0.700,AutoCalculate,NECB-ACTIVITY,No,3.8200E-008,113,169
 People Internal Gains Nominal, SP-ATRIUM (6 =< HEIGHT <= 12M)-SCH-K-SPACE FUNCTION SYS-6 FLR-1 SCH-K HPLCMT-WEST ZN SPACE FUNCTION ATRIUM (6 =< HEIGHT <= 12M)-SCH-K PEOPLE,NECB-K-OCCUPANCY,SP-ATRIUM (6 =< HEIGHT <= 12M)-SCH-K-SPACE FUNCTION SYS-6 FLR-1 SCH-K HPLCMT-WEST ZN,1875.00,187.6,187.6,0.100,9.996,0.300,0.700,AutoCalculate,NECB-ACTIVITY,No,3.8200E-008,0,169
 People Internal Gains Nominal, SP-AUDIENCE SEATING AREA PERMANENT - AUDITORIUM-SPACE FUNCTION SYS-3 FLR-4 SCH-C HPLCMT-CORE ZN SPACE FUNCTION AUDIENCE SEATING AREA PERMANENT - AUDITORIUM PEOPLE,NECB-C-OCCUPANCY,SP-AUDIENCE SEATING AREA PERMANENT - AUDITORIUM-SPACE FUNCTION SYS-3 FLR-4 SCH-C HPLCMT-CORE ZN,2500.00,500.2,500.2,0.200,4.998,0.300,0.700,AutoCalculate,NECB-ACTIVITY,No,3.8200E-008,0,450
 People Internal Gains Nominal, SP-AUDIENCE SEATING AREA PERMANENT - CONVENTION CENTRE-SPACE FUNCTION SYS-3 FLR-3 SCH-C HPLCMT-SOUTH ZN SPACE FUNCTION AUDIENCE SEATING AREA PERMANENT - CONVENTION CENTRE PEOPLE,NECB-C-OCCUPANCY,SP-AUDIENCE SEATING AREA PERMANENT - CONVENTION CENTRE-SPACE FUNCTION SYS-3 FLR-3 SCH-C HPLCMT-SOUTH ZN,1875.00,375.1,375.1,0.200,4.998,0.300,0.700,AutoCalculate,NECB-ACTIVITY,No,3.8200E-008,0,338
 People Internal Gains Nominal, SP-AUDIENCE SEATING AREA PERMANENT - GYMNASIUM-SPACE FUNCTION SYS-6 FLR-2 SCH-B HPLCMT-SOUTH ZN SPACE FUNCTION AUDIENCE SEATING AREA PERMANENT - GYMNASIUM PEOPLE,NECB-B-OCCUPANCY,SP-AUDIENCE SEATING AREA PERMANENT - GYMNASIUM-SPACE FUNCTION SYS-6 FLR-2 SCH-B HPLCMT-SOUTH ZN,1875.00,375.1,375.1,0.200,4.998,0.300,0.700,AutoCalculate,NECB-ACTIVITY,No,3.8200E-008,0,338
 People Internal Gains Nominal, SP-AUDIENCE SEATING AREA PERMANENT - MOTION PICTURE THEATRE-SPACE FUNCTION SYS-3 FLR-1 SCH-C HPLCMT-NORTH ZN SPACE FUNCTION AUDIENCE SEATING AREA PERMANENT - MOTION PICTURE THEATRE PEOPLE,NECB-C-OCCUPANCY,SP-AUDIENCE SEATING AREA PERMANENT - MOTION PICTURE THEATRE-SPACE FUNCTION SYS-3 FLR-1 SCH-C HPLCMT-NORTH ZN,1875.00,375.1,375.1,0.200,4.998,0.300,0.700,AutoCalculate,NECB-ACTIVITY,No,3.8200E-008,0,338
 People Internal Gains Nominal, SP-AUDIENCE SEATING AREA PERMANENT - OTHER-SCH-A-SPACE FUNCTION SYS-3 FLR-1 SCH-A HPLCMT-SOUTH ZN SPACE FUNCTION AUDIENCE SEATING AREA PERMANENT - OTHER-SCH-A PEOPLE,NECB-A-OCCUPANCY,SP-AUDIENCE SEATING AREA PERMANENT - OTHER-SCH-A-SPACE FUNCTION SYS-3 FLR-1 SCH-A HPLCMT-SOUTH ZN,1875.00,375.1,375.1,0.200,4.998,0.300,0.700,AutoCalculate,NECB-ACTIVITY,No,3.8200E-008,0,338
 People Internal Gains Nominal, SP-AUDIENCE SEATING AREA PERMANENT - OTHER-SCH-B-SPACE FUNCTION SYS-3 FLR-1 SCH-B HPLCMT-EAST ZN SPACE FUNCTION AUDIENCE SEATING AREA PERMANENT - OTHER-SCH-B PEOPLE,NECB-B-OCCUPANCY,SP-AUDIENCE SEATING AREA PERMANENT - OTHER-SCH-B-SPACE FUNCTION SYS-3 FLR-1 SCH-B HPLCMT-EAST ZN,1875.00,375.1,375.1,0.200,4.998,0.300,0.700,AutoCalculate,NECB-ACTIVITY,No,3.8200E-008,0,338
 People Internal Gains Nominal, SP-AUDIENCE SEATING AREA PERMANENT - OTHER-SCH-C-SPACE FUNCTION SYS-3 FLR-2 SCH-C HPLCMT-WEST ZN SPACE FUNCTION AUDIENCE SEATING AREA PERMANENT - OTHER-SCH-C PEOPLE,NECB-C-OCCUPANCY,SP-AUDIENCE SEATING AREA PERMANENT - OTHER-SCH-C-SPACE FUNCTION SYS-3 FLR-2 SCH-C HPLCMT-WEST ZN,1875.00,375.1,375.1,0.200,4.998,0.300,0.700,AutoCalculate,NECB-ACTIVITY,No,3.8200E-008,0,338
 People Internal Gains Nominal, SP-AUDIENCE SEATING AREA PERMANENT - OTHER-SCH-D-SPACE FUNCTION SYS-3 FLR-3 SCH-D HPLCMT-WEST ZN SPACE FUNCTION AUDIENCE SEATING AREA PERMANENT - OTHER-SCH-D PEOPLE,NECB-D-OCCUPANCY,SP-AUDIENCE SEATING AREA PERMANENT - OTHER-SCH-D-SPACE FUNCTION SYS-3 FLR-3 SCH-D HPLCMT-WEST ZN,1875.00,375.1,375.1,0.200,4.998,0.300,0.700,AutoCalculate,NECB-ACTIVITY,No,3.8200E-008,0,338
 People Internal Gains Nominal, SP-AUDIENCE SEATING AREA PERMANENT - OTHER-SCH-E-SPACE FUNCTION SYS-3 FLR-1 SCH-E HPLCMT-CORE ZN SPACE FUNCTION AUDIENCE SEATING AREA PERMANENT - OTHER-SCH-E PEOPLE,NECB-E-OCCUPANCY,SP-AUDIENCE SEATING AREA PERMANENT - OTHER-SCH-E-SPACE FUNCTION SYS-3 FLR-1 SCH-E HPLCMT-CORE ZN,2500.00,500.2,500.2,0.200,4.998,0.300,0.700,AutoCalculate,NECB-ACTIVITY,No,3.8200E-008,0,450
 People Internal Gains Nominal, SP-AUDIENCE SEATING AREA PERMANENT - OTHER-SCH-F-SPACE FUNCTION SYS-3 FLR-2 SCH-F HPLCMT-NORTH ZN SPACE FUNCTION AUDIENCE SEATING AREA PERMANENT - OTHER-SCH-F PEOPLE,NECB-F-OCCUPANCY,SP-AUDIENCE SEATING AREA PERMANENT - OTHER-SCH-F-SPACE FUNCTION SYS-3 FLR-2 SCH-F HPLCMT-NORTH ZN,1875.00,375.1,375.1,0.200,4.998,0.300,0.700,AutoCalculate,NECB-ACTIVITY,No,3.8200E-008,53,236
 People Internal Gains Nominal, SP-AUDIENCE SEATING AREA PERMANENT - OTHER-SCH-G-SPACE FUNCTION SYS-3 FLR-2 SCH-G HPLCMT-EAST ZN SPACE FUNCTION AUDIENCE SEATING AREA PERMANENT - OTHER-SCH-G PEOPLE,NECB-G-OCCUPANCY,SP-AUDIENCE SEATING AREA PERMANENT - OTHER-SCH-G-SPACE FUNCTION SYS-3 FLR-2 SCH-G HPLCMT-EAST ZN,1875.00,375.1,375.1,0.200,4.998,0.300,0.700,AutoCalculate,NECB-ACTIVITY,No,3.8200E-008,113,338
 People Internal Gains Nominal, SP-AUDIENCE SEATING AREA PERMANENT - PENITENTIARY-SPACE FUNCTION SYS-3 FLR-4 SCH-C HPLCMT-WEST ZN SPACE FUNCTION AUDIENCE SEATING AREA PERMANENT - PENITENTIARY PEOPLE,NECB-C-OCCUPANCY,SP-AUDIENCE SEATING AREA PERMANENT - PENITENTIARY-SPACE FUNCTION SYS-3 FLR-4 SCH-C HPLCMT-WEST ZN,1875.00,375.1,375.1,0.200,4.998,0.300,0.700,AutoCalculate,NECB-ACTIVITY,No,3.8200E-008,0,338
 People Internal Gains Nominal, SP-AUDIENCE SEATING AREA PERMANENT - PERFORMING ARTS THEATRE-SPACE FUNCTION SYS-3 FLR-2 SCH-C HPLCMT-CORE ZN SPACE FUNCTION AUDIENCE SEATING AREA PERMANENT - PERFORMING ARTS THEATRE PEOPLE,NECB-C-OCCUPANCY,SP-AUDIENCE SEATING AREA PERMANENT - PERFORMING ARTS THEATRE-SPACE FUNCTION SYS-3 FLR-2 SCH-C HPLCMT-CORE ZN,2500.00,333.5,333.5,0.133,7.497,0.300,0.700,AutoCalculate,NECB-ACTIVITY,No,3.8200E-008,0,300
 People Internal Gains Nominal, SP-AUDIENCE SEATING AREA PERMANENT - RELIGIOUS BUILDING-SPACE FUNCTION SYS-3 FLR-4 SCH-I HPLCMT-EAST ZN SPACE FUNCTION AUDIENCE SEATING AREA PERMANENT - RELIGIOUS BUILDING PEOPLE,NECB-I-OCCUPANCY,SP-AUDIENCE SEATING AREA PERMANENT - RELIGIOUS BUILDING-SPACE FUNCTION SYS-3 FLR-4 SCH-I HPLCMT-EAST ZN,1875.00,375.1,375.1,0.200,4.998,0.300,0.700,AutoCalculate,NECB-ACTIVITY,No,3.8200E-008,0,300
 People Internal Gains Nominal, SP-AUDIENCE SEATING AREA PERMANENT - SPORTS ARENA-SPACE FUNCTION SYS-6 FLR-4 SCH-B HPLCMT-NORTH ZN SPACE FUNCTION AUDIENCE SEATING AREA PERMANENT - SPORTS ARENA PEOPLE,NECB-B-OCCUPANCY,SP-AUDIENCE SEATING AREA PERMANENT - SPORTS ARENA-SPACE FUNCTION SYS-6 FLR-4 SCH-B HPLCMT-NORTH ZN,1875.00,375.1,375.1,0.200,4.998,0.300,0.700,AutoCalculate,NECB-ACTIVITY,No,3.8200E-008,0,338
! <Lights Internal Gains Nominal>,Name,Schedule Name,Zone Name,Zone Floor Area {m2},# Zone Occupants,Lighting Level {W},Lights/Floor Area {W/m2},Lights per person {W/person},Fraction Return Air,Fraction Radiant,Fraction Short Wave,Fraction Convected,Fraction Replaceable,End-Use Category,Nominal Minimum Lighting Level {W},Nominal Maximum Lighting Level {W}
 Lights Internal Gains Nominal, SP-ATRIUM (6 =< HEIGHT <= 12M)-SCH-G-SPACE FUNCTION SYS-6 FLR-4 SCH-G HPLCMT-SOUTH ZN SPACE FUNCTION ATRIUM (6 =< HEIGHT <= 12M)-SCH-G LIGHTS,NECB-G-LIGHTING,SP-ATRIUM (6 =< HEIGHT <= 12M)-SCH-G-SPACE FUNCTION SYS-6 FLR-4 SCH-G HPLCMT-SOUTH ZN,1875.00,187.6,1988.222,1.060,10.600,0.000,0.500,0.200,0.300,1.000,General,0.000,1789.400
 Lights Internal Gains Nominal, SP-ATRIUM (6 =< HEIGHT <= 12M)-SCH-H-SPACE FUNCTION SYS-6 FLR-3 SCH-H HPLCMT-CORE ZN SPACE FUNCTION ATRIUM (6 =< HEIGHT <= 12M)-SCH-H LIGHTS,NECB-H-LIGHTING,SP-ATRIUM (6 =< HEIGHT <= 12M)-SCH-H-SPACE FUNCTION SYS-6 FLR-3 SCH-H HPLCMT-CORE ZN,2500.00,250.1,2650.963,1.060,10.600,0.000,0.500,0.200,0.300,1.000,General,2385.867,2385.867
 Lights Internal Gains Nominal, SP-ATRIUM (6 =< HEIGHT <= 12M)-SCH-I-SPACE FUNCTION SYS-6 FLR-3 SCH-I HPLCMT-EAST ZN SPACE FUNCTION ATRIUM (6 =< HEIGHT <= 12M)-SCH-I LIGHTS,NECB-I-LIGHTING,SP-ATRIUM (6 =< HEIGHT <= 12M)-SCH-I-SPACE FUNCTION SYS-6 FLR-3 SCH-I HPLCMT-EAST ZN,1875.00,187.6,1988.222,1.060,10.600,0.000,0.500,0.200,0.300,1.000,General,99.411,1789.400
 Lights Internal Gains Nominal, SP-ATRIUM (6 =< HEIGHT <= 12M)-SCH-J-SPACE FUNCTION SYS-6 FLR-3 SCH-J HPLCMT-NORTH ZN SPACE FUNCTION ATRIUM (6 =< HEIGHT <= 12M)-SCH-J LIGHTS,NECB-J-LIGHTING,SP-ATRIUM (6 =< HEIGHT <= 12M)-SCH-J-SPACE FUNCTION SYS-6 FLR-3 SCH-J HPLCMT-NORTH ZN,1875.00,187.6,1988.222,1.060,10.600,0.000,0.500,0.200,0.300,1.000,General,198.822,1391.756
 Lights Internal Gains Nominal, SP-ATRIUM (6 =< HEIGHT <= 12M)-SCH-K-SPACE FUNCTION SYS-6 FLR-1 SCH-K HPLCMT-WEST ZN SPACE FUNCTION ATRIUM (6 =< HEIGHT <= 12M)-SCH-K LIGHTS,NECB-K-LIGHTING,SP-ATRIUM (6 =< HEIGHT <= 12M)-SCH-K-SPACE FUNCTION SYS-6 FLR-1 SCH-K HPLCMT-WEST ZN,1875.00,187.6,1988.222,1.060,10.600,0.000,0.500,0.200,0.300,1.000,General,1789.400,1789.400
 Lights Internal Gains Nominal, SP-AUDIENCE SEATING AREA PERMANENT - AUDITORIUM-SPACE FUNCTION SYS-3 FLR-4 SCH-C HPLCMT-CORE ZN SPACE FUNCTION AUDIENCE SEATING AREA PERMANENT - AUDITORIUM LIGHTS,NECB-C-LIGHTING,SP-AUDIENCE SEATING AREA PERMANENT - AUDITORIUM-SPACE FUNCTION SYS-3 FLR-4 SCH-C HPLCMT-CORE ZN,2500.00,500.2,17006.178,6.802,34.000,0.000,0.500,0.200,0.300,1.000,General,850.309,15305.560
 Lights Internal Gains Nominal, SP-AUDIENCE SEATING AREA PERMANENT - CONVENTION CENTRE-SPACE FUNCTION SYS-3 FLR-3 SCH-C HPLCMT-SOUTH ZN SPACE FUNCTION AUDIENCE SEATING AREA PERMANENT - CONVENTION CENTRE LIGHTS,NECB-C-OCCUPANCY-NECB-C-LIGHTING-0.2-0.0-0.67-LIGHT RULESET,SP-AUDIENCE SEATING AREA PERMANENT - CONVENTION CENTRE-SPACE FUNCTION SYS-3 FLR-3 SCH-C HPLCMT-SOUTH ZN,1875.00,375.1,16499.864,8.800,43.984,0.000,0.500,0.200,0.300,1.000,General,714.444,14849.877
 Lights Internal Gains Nominal, SP-AUDIENCE SEATING AREA PERMANENT - GYMNASIUM-SPACE FUNCTION SYS-6 FLR-2 SCH-B HPLCMT-SOUTH ZN SPACE FUNCTION AUDIENCE SEATING AREA PERMANENT - GYMNASIUM LIGHTS,NECB-B-LIGHTING,SP-AUDIENCE SEATING AREA PERMANENT - GYMNASIUM-SPACE FUNCTION SYS-6 FLR-2 SCH-B HPLCMT-SOUTH ZN,1875.00,375.1,13129.770,7.003,35.000,0.000,0.500,0.200,0.300,1.000,General,1312.977,11816.793
 Lights Internal Gains Nominal, SP-AUDIENCE SEATING AREA PERMANENT - MOTION PICTURE THEATRE-SPACE FUNCTION SYS-3 FLR-1 SCH-C HPLCMT-NORTH ZN SPACE FUNCTION AUDIENCE SEATING AREA PERMANENT - MOTION PICTURE THEATRE LIGHTS,NECB-C-OCCUPANCY-NECB-C-LIGHTING-0.0-0.0-0.67-LIGHT RULESET,SP-AUDIENCE SEATING AREA PERMANENT - MOTION PICTURE THEATRE-SPACE FUNCTION SYS-3 FLR-1 SCH-C HPLCMT-NORTH ZN,1875.00,375.1,23070.881,12.304,61.500,0.000,0.500,0.200,0.300,1.000,General,1153.544,20763.793
 Lights Internal Gains Nominal, SP-AUDIENCE SEATING AREA PERMANENT - OTHER-SCH-A-SPACE FUNCTION SYS-3 FLR-1 SCH-A HPLCMT-SOUTH ZN SPACE FUNCTION AUDIENCE SEATING AREA PERMANENT - OTHER-SCH-A LIGHTS,NECB-A-LIGHTING,SP-AUDIENCE SEATING AREA PERMANENT - OTHER-SCH-A-SPACE FUNCTION SYS-3 FLR-1 SCH-A HPLCMT-SOUTH ZN,1875.00,375.1,8628.135,4.602,23.000,0.000,0.500,0.200,0.300,1.000,General,431.407,7765.321
 Lights Internal Gains Nominal, SP-AUDIENCE SEATING AREA PERMANENT - OTHER-SCH-B-SPACE FUNCTION SYS-3 FLR-1 SCH-B HPLCMT-EAST ZN SPACE FUNCTION AUDIENCE SEATING AREA PERMANENT - OTHER-SCH-B LIGHTS,NECB-B-LIGHTING,SP-AUDIENCE SEATING AREA PERMANENT - OTHER-SCH-B-SPACE FUNCTION SYS-3 FLR-1 SCH-B HPLCMT-EAST ZN,1875.00,375.1,8628.135,4.602,23.000,0.000,0.500,0.200,0.300,1.000,General,862.813,7765.321
 Lights Internal Gains Nominal, SP-AUDIENCE SEATING AREA PERMANENT - OTHER-SCH-C-SPACE FUNCTION SYS-3 FLR-2 SCH-C HPLCMT-WEST ZN SPACE FUNCTION AUDIENCE SEATING AREA PERMANENT - OTHER-SCH-C LIGHTS,NECB-C-LIGHTING,SP-AUDIENCE SEATING AREA PERMANENT - OTHER-SCH-C-SPACE FUNCTION SYS-3 FLR-2 SCH-C HPLCMT-WEST ZN,1875.00,375.1,8628.135,4.602,23.000,0.000,0.500,0.200,0.300,1.000,General,431.407,7765.321
 Lights Internal Gains Nominal, SP-AUDIENCE SEATING AREA PERMANENT - OTHER-SCH-D-SPACE FUNCTION SYS-3 FLR-3 SCH-D HPLCMT-WEST ZN SPACE FUNCTION AUDIENCE SEATING AREA PERMANENT - OTHER-SCH-D LIGHTS,NECB-D-LIGHTING,SP-AUDIENCE SEATING AREA PERMANENT - OTHER-SCH-D-SPACE FUNCTION SYS-3 FLR-3 SCH-D HPLCMT-WEST ZN,1875.00,375.1,8628.135,4.602,23.000,0.000,0.500,0.200,0.300,1.000,General,431.407,7765.321
 Lights Internal Gains Nominal, SP-AUDIENCE SEATING AREA PERMANENT - OTHER-SCH-E-SPACE FUNCTION SYS-3 FLR-1 SCH-E HPLCMT-CORE ZN SPACE FUNCTION AUDIENCE SEATING AREA PERMANENT - OTHER-SCH-E LIGHTS,NECB-E-LIGHTING,SP-AUDIENCE SEATING AREA PERMANENT - OTHER-SCH-E-SPACE FUNCTION SYS-3 FLR-1 SCH-E HPLCMT-CORE ZN,2500.00,500.2,11504.179,4.602,23.000,0.000,0.500,0.200,0.300,1.000,General,575.209,10353.761
 Lights Internal Gains Nominal, SP-AUDIENCE SEATING AREA PERMANENT - OTHER-SCH-F-SPACE FUNCTION SYS-3 FLR-2 SCH-F HPLCMT-NORTH ZN SPACE FUNCTION AUDIENCE SEATING AREA PERMANENT - OTHER-SCH-F LIGHTS,NECB-F-LIGHTING,SP-AUDIENCE SEATING AREA PERMANENT - OTHER-SCH-F-SPACE FUNCTION SYS-3 FLR-2 SCH-F HPLCMT-NORTH ZN,1875.00,375.1,8628.135,4.602,23.000,0.000,0.500,0.200,0.300,1.000,General,603.969,5435.725
 Lights Internal Gains Nominal, SP-AUDIENCE SEATING AREA PERMANENT - OTHER-SCH-G-SPACE FUNCTION SYS-3 FLR-2 SCH-G HPLCMT-EAST ZN SPACE FUNCTION AUDIENCE SEATING AREA PERMANENT - OTHER-SCH-G LIGHTS,NECB-G-LIGHTING,SP-AUDIENCE SEATING AREA PERMANENT - OTHER-SCH-G-SPACE FUNCTION SYS-3 FLR-2 SCH-G HPLCMT-EAST ZN,1875.00,375.1,8628.135,4.602,23.000,0.000,0.500,0.200,0.300,1.000,General,0.000,7765.321
 Lights Internal Gains Nominal, SP-AUDIENCE SEATING AREA PERMANENT - PENITENTIARY-SPACE FUNCTION SYS-3 FLR-4 SCH-C HPLCMT-WEST ZN SPACE FUNCTION AUDIENCE SEATING AREA PERMANENT - PENITENTIARY LIGHTS,NECB-C-LIGHTING,SP-AUDIENCE SEATING AREA PERMANENT - PENITENTIARY-SPACE FUNCTION SYS-3 FLR-4 SCH-C HPLCMT-WEST ZN,1875.00,375.1,5627.044,3.001,15.000,0.000,0.500,0.200,0.300,1.000,General,281.352,5064.340
 Lights Internal Gains Nominal, SP-AUDIENCE SEATING AREA PERMANENT - PERFORMING ARTS THEATRE-SPACE FUNCTION SYS-3 FLR-2 SCH-C HPLCMT-CORE ZN SPACE FUNCTION AUDIENCE SEATING AREA PERMANENT - PERFORMING ARTS THEATRE LIGHTS,NECB-C-OCCUPANCY-NECB-C-LIGHTING-0.0-0.0-0.67-LIGHT RULESET,SP-AUDIENCE SEATING AREA PERMANENT - PERFORMING ARTS THEATRE-SPACE FUNCTION SYS-3 FLR-2 SCH-C HPLCMT-CORE ZN,2500.00,333.5,54499.535,21.800,163.439,0.000,0.500,0.200,0.300,1.000,General,2724.977,49049.582
 Lights Internal Gains Nominal, SP-AUDIENCE SEATING AREA PERMANENT - RELIGIOUS BUILDING-SPACE FUNCTION SYS-3 FLR-4 SCH-I HPLCMT-EAST ZN SPACE FUNCTION AUDIENCE SEATING AREA PERMANENT - RELIGIOUS BUILDING LIGHTS,NECB-I-OCCUPANCY-NECB-I-LIGHTING-0.3-0.0-0.67-LIGHT RULESET,SP-AUDIENCE SEATING AREA PERMANENT - RELIGIOUS BUILDING-SPACE FUNCTION SYS-3 FLR-4 SCH-I HPLCMT-EAST ZN,1875.00,375.1,30948.743,16.506,82.500,0.000,0.500,0.200,0.300,1.000,General,1236.402,27853.869
 Lights Internal Gains Nominal, SP-AUDIENCE SEATING AREA PERMANENT - SPORTS ARENA-SPACE FUNCTION SYS-6 FLR-4 SCH-B HPLCMT-NORTH ZN SPACE FUNCTION AUDIENCE SEATING AREA PERMANENT - SPORTS ARENA LIGHTS,NECB-B-LIGHTING,SP-AUDIENCE SEATING AREA PERMANENT - SPORTS ARENA-SPACE FUNCTION SYS-6 FLR-4 SCH-B HPLCMT-NORTH ZN,1875.00,375.1,8628.135,4.602,23.000,0.000,0.500,0.200,0.300,1.000,General,862.813,7765.321
! <ElectricEquipment Internal Gains Nominal>,Name,Schedule Name,Zone Name,Zone Floor Area {m2},# Zone Occupants,Equipment Level {W},Equipment/Floor Area {W/m2},Equipment per person {W/person},Fraction Latent,Fraction Radiant,Fraction Lost,Fraction Convected,End-Use SubCategory,Nominal Minimum Equipment Level {W},Nominal Maximum Equipment Level {W}
 ElectricEquipment Internal Gains Nominal, SP-ATRIUM (6 =< HEIGHT <= 12M)-SCH-G-SPACE FUNCTION SYS-6 FLR-4 SCH-G HPLCMT-SOUTH ZN SPACE FUNCTION ATRIUM (6 =< HEIGHT <= 12M)-SCH-G ELEC EQUIP,NECB-G-ELECTRIC-EQUIPMENT,SP-ATRIUM (6 =< HEIGHT <= 12M)-SCH-G-SPACE FUNCTION SYS-6 FLR-4 SCH-G HPLCMT-SOUTH ZN,1875.00,187.6,4689.204,2.501,25.000,0.000,0.500,0.000,0.500,General,937.841,4220.283
 ElectricEquipment Internal Gains Nominal, SP-ATRIUM (6 =< HEIGHT <= 12M)-SCH-H-SPACE FUNCTION SYS-6 FLR-3 SCH-H HPLCMT-CORE ZN SPACE FUNCTION ATRIUM (6 =< HEIGHT <= 12M)-SCH-H ELEC EQUIP,NECB-H-ELECTRIC-EQUIPMENT,SP-ATRIUM (6 =< HEIGHT <= 12M)-SCH-H-SPACE FUNCTION SYS-6 FLR-3 SCH-H HPLCMT-CORE ZN,2500.00,250.1,6252.271,2.501,25.000,0.000,0.500,0.000,0.500,General,5627.044,5627.044
 ElectricEquipment Internal Gains Nominal, SP-ATRIUM (6 =< HEIGHT <= 12M)-SCH-I-SPACE FUNCTION SYS-6 FLR-3 SCH-I HPLCMT-EAST ZN SPACE FUNCTION ATRIUM (6 =< HEIGHT <= 12M)-SCH-I ELEC EQUIP,NECB-I-ELECTRIC-EQUIPMENT,SP-ATRIUM (6 =< HEIGHT <= 12M)-SCH-I-SPACE FUNCTION SYS-6 FLR-3 SCH-I HPLCMT-EAST ZN,1875.00,187.6,4689.204,2.501,25.000,0.000,0.500,0.000,0.500,General,468.920,3751.363
 ElectricEquipment Internal Gains Nominal, SP-ATRIUM (6 =< HEIGHT <= 12M)-SCH-J-SPACE FUNCTION SYS-6 FLR-3 SCH-J HPLCMT-NORTH ZN SPACE FUNCTION ATRIUM (6 =< HEIGHT <= 12M)-SCH-J ELEC EQUIP,NECB-J-ELECTRIC-EQUIPMENT,SP-ATRIUM (6 =< HEIGHT <= 12M)-SCH-J-SPACE FUNCTION SYS-6 FLR-3 SCH-J HPLCMT-NORTH ZN,1875.00,187.6,4689.204,2.501,25.000,0.000,0.500,0.000,0.500,General,468.920,3282.442
 ElectricEquipment Internal Gains Nominal, SP-ATRIUM (6 =< HEIGHT <= 12M)-SCH-K-SPACE FUNCTION SYS-6 FLR-1 SCH-K HPLCMT-WEST ZN SPACE FUNCTION ATRIUM (6 =< HEIGHT <= 12M)-SCH-K ELEC EQUIP,NECB-K-ELECTRIC-EQUIPMENT,SP-ATRIUM (6 =< HEIGHT <= 12M)-SCH-K-SPACE FUNCTION SYS-6 FLR-1 SCH-K HPLCMT-WEST ZN,1875.00,187.6,4689.204,2.501,25.000,0.000,0.500,0.000,0.500,General,0.000,0.000
 ElectricEquipment Internal Gains Nominal, SP-AUDIENCE SEATING AREA PERMANENT - AUDITORIUM-SPACE FUNCTION SYS-3 FLR-4 SCH-C HPLCMT-CORE ZN SPACE FUNCTION AUDIENCE SEATING AREA PERMANENT - AUDITORIUM ELEC EQUIP,NECB-C-ELECTRIC-EQUIPMENT,SP-AUDIENCE SEATING AREA PERMANENT - AUDITORIUM-SPACE FUNCTION SYS-3 FLR-4 SCH-C HPLCMT-CORE ZN,2500.00,500.2,6252.271,2.501,12.500,0.000,0.500,0.000,0.500,General,312.614,5627.044
 ElectricEquipment Internal Gains Nominal, SP-AUDIENCE SEATING AREA PERMANENT - CONVENTION CENTRE-SPACE FUNCTION SYS-3 FLR-3 SCH-C HPLCMT-SOUTH ZN SPACE FUNCTION AUDIENCE SEATING AREA PERMANENT - CONVENTION CENTRE ELEC EQUIP,NECB-C-ELECTRIC-EQUIPMENT,SP-AUDIENCE SEATING AREA PERMANENT - CONVENTION CENTRE-SPACE FUNCTION SYS-3 FLR-3 SCH-C HPLCMT-SOUTH ZN,1875.00,375.1,4689.204,2.501,12.500,0.000,0.500,0.000,0.500,General,234.460,4220.283
 ElectricEquipment Internal Gains Nominal, SP-AUDIENCE SEATING AREA PERMANENT - MOTION PICTURE THEATRE-SPACE FUNCTION SYS-3 FLR-1 SCH-C HPLCMT-NORTH ZN SPACE FUNCTION AUDIENCE SEATING AREA PERMANENT - MOTION PICTURE THEATRE ELEC EQUIP,NECB-C-ELECTRIC-EQUIPMENT,SP-AUDIENCE SEATING AREA PERMANENT - MOTION PICTURE THEATRE-SPACE FUNCTION SYS-3 FLR-1 SCH-C HPLCMT-NORTH ZN,1875.00,375.1,4689.204,2.501,12.500,0.000,0.500,0.000,0.500,General,234.460,4220.283
 ElectricEquipment Internal Gains Nominal, SP-AUDIENCE SEATING AREA PERMANENT - OTHER-SCH-A-SPACE FUNCTION SYS-3 FLR-1 SCH-A HPLCMT-SOUTH ZN SPACE FUNCTION AUDIENCE SEATING AREA PERMANENT - OTHER-SCH-A ELEC EQUIP,NECB-A-ELECTRIC-EQUIPMENT,SP-AUDIENCE SEATING AREA PERMANENT - OTHER-SCH-A-SPACE FUNCTION SYS-3 FLR-1 SCH-A HPLCMT-SOUTH ZN,1875.00,375.1,1875.681,1.000,5.000,0.000,0.500,0.000,0.500,General,375.136,1688.113
 ElectricEquipment Internal Gains Nominal, SP-AUDIENCE SEATING AREA PERMANENT - OTHER-SCH-B-SPACE FUNCTION SYS-3 FLR-1 SCH-B HPLCMT-EAST ZN SPACE FUNCTION AUDIENCE SEATING AREA PERMANENT - OTHER-SCH-B ELEC EQUIP,NECB-B-ELECTRIC-EQUIPMENT,SP-AUDIENCE SEATING AREA PERMANENT - OTHER-SCH-B-SPACE FUNCTION SYS-3 FLR-1 SCH-B HPLCMT-EAST ZN,1875.00,375.1,1875.681,1.000,5.000,0.000,0.500,0.000,0.500,General,187.568,1688.113
 ElectricEquipment Internal Gains Nominal, SP-AUDIENCE SEATING AREA PERMANENT - OTHER-SCH-C-SPACE FUNCTION SYS-3 FLR-2 SCH-C HPLCMT-WEST ZN SPACE FUNCTION AUDIENCE SEATING AREA PERMANENT - OTHER-SCH-C ELEC EQUIP,NECB-C-ELECTRIC-EQUIPMENT,SP-AUDIENCE SEATING AREA PERMANENT - OTHER-SCH-C-SPACE FUNCTION SYS-3 FLR-2 SCH-C HPLCMT-WEST ZN,1875.00,375.1,1875.681,1.000,5.000,0.000,0.500,0.000,0.500,General,93.784,1688.113
 ElectricEquipment Internal Gains Nominal, SP-AUDIENCE SEATING AREA PERMANENT - OTHER-SCH-D-SPACE FUNCTION SYS-3 FLR-3 SCH-D HPLCMT-WEST ZN SPACE FUNCTION AUDIENCE SEATING AREA PERMANENT - OTHER-SCH-D ELEC EQUIP,NECB-D-ELECTRIC-EQUIPMENT,SP-AUDIENCE SEATING AREA PERMANENT - OTHER-SCH-D-SPACE FUNCTION SYS-3 FLR-3 SCH-D HPLCMT-WEST ZN,1875.00,375.1,1875.681,1.000,5.000,0.000,0.500,0.000,0.500,General,93.784,1688.113
 ElectricEquipment Internal Gains Nominal, SP-AUDIENCE SEATING AREA PERMANENT - OTHER-SCH-E-SPACE FUNCTION SYS-3 FLR-1 SCH-E HPLCMT-CORE ZN SPACE FUNCTION AUDIENCE SEATING AREA PERMANENT - OTHER-SCH-E ELEC EQUIP,NECB-E-ELECTRIC-EQUIPMENT,SP-AUDIENCE SEATING AREA PERMANENT - OTHER-SCH-E-SPACE FUNCTION SYS-3 FLR-1 SCH-E HPLCMT-CORE ZN,2500.00,500.2,2500.909,1.000,5.000,0.000,0.500,0.000,0.500,General,125.045,2250.818
 ElectricEquipment Internal Gains Nominal, SP-AUDIENCE SEATING AREA PERMANENT - OTHER-SCH-F-SPACE FUNCTION SYS-3 FLR-2 SCH-F HPLCMT-NORTH ZN SPACE FUNCTION AUDIENCE SEATING AREA PERMANENT - OTHER-SCH-F ELEC EQUIP,NECB-F-ELECTRIC-EQUIPMENT,SP-AUDIENCE SEATING AREA PERMANENT - OTHER-SCH-F-SPACE FUNCTION SYS-3 FLR-2 SCH-F HPLCMT-NORTH ZN,1875.00,375.1,1875.681,1.000,5.000,0.000,0.500,0.000,0.500,General,131.298,1181.679
 ElectricEquipment Internal Gains Nominal, SP-AUDIENCE SEATING AREA PERMANENT - OTHER-SCH-G-SPACE FUNCTION SYS-3 FLR-2 SCH-G HPLCMT-EAST ZN SPACE FUNCTION AUDIENCE SEATING AREA PERMANENT - OTHER-SCH-G ELEC EQUIP,NECB-G-ELECTRIC-EQUIPMENT,SP-AUDIENCE SEATING AREA PERMANENT - OTHER-SCH-G-SPACE FUNCTION SYS-3 FLR-2 SCH-G HPLCMT-EAST ZN,1875.00,375.1,1875.681,1.000,5.000,0.000,0.500,0.000,0.500,General,375.136,1688.113
 ElectricEquipment Internal Gains Nominal, SP-AUDIENCE SEATING AREA PERMANENT - PENITENTIARY-SPACE FUNCTION SYS-3 FLR-4 SCH-C HPLCMT-WEST ZN SPACE FUNCTION AUDIENCE SEATING AREA PERMANENT - PENITENTIARY ELEC EQUIP,NECB-C-ELECTRIC-EQUIPMENT,SP-AUDIENCE SEATING AREA PERMANENT - PENITENTIARY-SPACE FUNCTION SYS-3 FLR-4 SCH-C HPLCMT-WEST ZN,1875.00,375.1,4689.204,2.501,12.500,0.000,0.500,0.000,0.500,General,234.460,4220.283
 ElectricEquipment Internal Gains Nominal, SP-AUDIENCE SEATING AREA PERMANENT - PERFORMING ARTS THEATRE-SPACE FUNCTION SYS-3 FLR-2 SCH-C HPLCMT-CORE ZN SPACE FUNCTION AUDIENCE SEATING AREA PERMANENT - PERFORMING ARTS THEATRE ELEC EQUIP,NECB-C-ELECTRIC-EQUIPMENT,SP-AUDIENCE SEATING AREA PERMANENT - PERFORMING ARTS THEATRE-SPACE FUNCTION SYS-3 FLR-2 SCH-C HPLCMT-CORE ZN,2500.00,333.5,6252.271,2.501,18.750,0.000,0.500,0.000,0.500,General,312.614,5627.044
 ElectricEquipment Internal Gains Nominal, SP-AUDIENCE SEATING AREA PERMANENT - RELIGIOUS BUILDING-SPACE FUNCTION SYS-3 FLR-4 SCH-I HPLCMT-EAST ZN SPACE FUNCTION AUDIENCE SEATING AREA PERMANENT - RELIGIOUS BUILDING ELEC EQUIP,NECB-I-ELECTRIC-EQUIPMENT,SP-AUDIENCE SEATING AREA PERMANENT - RELIGIOUS BUILDING-SPACE FUNCTION SYS-3 FLR-4 SCH-I HPLCMT-EAST ZN,1875.00,375.1,1875.681,1.000,5.000,0.000,0.500,0.000,0.500,General,187.568,1500.545
! <Shadowing/Sun Position Calculations Annual Simulations>, Calculation Method, Value {days}, Allowable Number Figures in Shadow Overlap {}, Polygon Clipping Algorithm, Sky Diffuse Modeling Algorithm, External Shading Calculation Method, Output External Shading Calculation Results, Disable Self-Shading Within Shading Zone Groups, Disable Self-Shading From Shading Zone Groups to Other Zones
Shadowing/Sun Position Calculations Annual Simulations,AverageOverDaysInFrequency,20,15000,SutherlandHodgman,SimpleSkyDiffuseModeling,InternalCalculation,No,No,No
! <Water Heater Information>,Type,Name,Volume {m3},Maximum Capacity {W},Standard Rated Recovery Efficiency, Standard Rated Energy Factor
! <ZoneInfiltration Airflow Stats Nominal>,Name,Schedule Name,Zone Name, Zone Floor Area {m2}, # Zone Occupants,Design Volume Flow Rate {m3/s},Volume Flow Rate/Floor Area {m3/s/m2},Volume Flow Rate/Exterior Surface Area {m3/s/m2},ACH - Air Changes per Hour,Equation A - Constant Term Coefficient {},Equation B - Temperature Term Coefficient {1/C},Equation C - Velocity Term Coefficient {s/m}, Equation D - Velocity Squared Term Coefficient {s2/m2}
 ZoneInfiltration Airflow Stats Nominal, ATRIUM (6 =< HEIGHT <= 12M)-SCH-G-SPACE FUNCTION INFILTRATION,ALWAYS ON DISCRETE,SP-ATRIUM (6 =< HEIGHT <= 12M)-SCH-G-SPACE FUNCTION SYS-6 FLR-4 SCH-G HPLCMT-SOUTH ZN,1875.00,187.6,0.564,3.007E-004,2.500E-004,0.285,0.000,0.000,0.224,0.000
 ZoneInfiltration Airflow Stats Nominal, ATRIUM (6 =< HEIGHT <= 12M)-SCH-I-SPACE FUNCTION INFILTRATION,ALWAYS ON DISCRETE,SP-ATRIUM (6 =< HEIGHT <= 12M)-SCH-I-SPACE FUNCTION SYS-6 FLR-3 SCH-I HPLCMT-EAST ZN,1875.00,187.6,9.500E-002,5.067E-005,2.500E-004,4.800E-002,0.000,0.000,0.224,0.000
 ZoneInfiltration Airflow Stats Nominal, ATRIUM (6 =< HEIGHT <= 12M)-SCH-J-SPACE FUNCTION INFILTRATION,ALWAYS ON DISCRETE,SP-ATRIUM (6 =< HEIGHT <= 12M)-SCH-J-SPACE FUNCTION SYS-6 FLR-3 SCH-J HPLCMT-NORTH ZN,1875.00,187.6,9.500E-002,5.067E-005,2.500E-004,4.800E-002,0.000,0.000,0.224,0.000
 ZoneInfiltration Airflow Stats Nominal, AUDIENCE SEATING AREA PERMANENT - AUDITORIUM-SPACE FUNCTION INFILTRATION,ALWAYS ON DISCRETE,SP-AUDIENCE SEATING AREA PERMANENT - AUDITORIUM-SPACE FUNCTION SYS-3 FLR-4 SCH-C HPLCMT-CORE ZN,2500.00,500.2,0.625,2.500E-004,2.500E-004,0.237,0.000,0.000,0.224,0.000
 ZoneInfiltration Airflow Stats Nominal, AUDIENCE SEATING AREA PERMANENT - CONVENTION CENTRE-SPACE FUNCTION INFILTRATION,ALWAYS ON DISCRETE,SP-AUDIENCE SEATING AREA PERMANENT - CONVENTION CENTRE-SPACE FUNCTION SYS-3 FLR-3 SCH-C HPLCMT-SOUTH ZN,1875.00,375.1,9.500E-002,5.067E-005,2.500E-004,4.800E-002,0.000,0.000,0.224,0.000
 ZoneInfiltration Airflow Stats Nominal, AUDIENCE SEATING AREA PERMANENT - GYMNASIUM-SPACE FUNCTION INFILTRATION,ALWAYS ON DISCRETE,SP-AUDIENCE SEATING AREA PERMANENT - GYMNASIUM-SPACE FUNCTION SYS-6 FLR-2 SCH-B HPLCMT-SOUTH ZN,1875.00,375.1,9.500E-002,5.067E-005,2.500E-004,4.800E-002,0.000,0.000,0.224,0.000
 ZoneInfiltration Airflow Stats Nominal, AUDIENCE SEATING AREA PERMANENT - OTHER-SCH-C-SPACE FUNCTION INFILTRATION,ALWAYS ON DISCRETE,SP-AUDIENCE SEATING AREA PERMANENT - OTHER-SCH-C-SPACE FUNCTION SYS-3 FLR-2 SCH-C HPLCMT-WEST ZN,1875.00,375.1,9.500E-002,5.067E-005,2.500E-004,4.800E-002,0.000,0.000,0.224,0.000
 ZoneInfiltration Airflow Stats Nominal, AUDIENCE SEATING AREA PERMANENT - OTHER-SCH-D-SPACE FUNCTION INFILTRATION,ALWAYS ON DISCRETE,SP-AUDIENCE SEATING AREA PERMANENT - OTHER-SCH-D-SPACE FUNCTION SYS-3 FLR-3 SCH-D HPLCMT-WEST ZN,1875.00,375.1,9.500E-002,5.067E-005,2.500E-004,4.800E-002,0.000,0.000,0.224,0.000
 ZoneInfiltration Airflow Stats Nominal, AUDIENCE SEATING AREA PERMANENT - OTHER-SCH-F-SPACE FUNCTION INFILTRATION,ALWAYS ON DISCRETE,SP-AUDIENCE SEATING AREA PERMANENT - OTHER-SCH-F-SPACE FUNCTION SYS-3 FLR-2 SCH-F HPLCMT-NORTH ZN,1875.00,375.1,9.500E-002,5.067E-005,2.500E-004,4.800E-002,0.000,0.000,0.224,0.000
 ZoneInfiltration Airflow Stats Nominal, AUDIENCE SEATING AREA PERMANENT - OTHER-SCH-G-SPACE FUNCTION INFILTRATION,ALWAYS ON DISCRETE,SP-AUDIENCE SEATING AREA PERMANENT - OTHER-SCH-G-SPACE FUNCTION SYS-3 FLR-2 SCH-G HPLCMT-EAST ZN,1875.00,375.1,9.500E-002,5.067E-005,2.500E-004,4.800E-002,0.000,0.000,0.224,0.000
 ZoneInfiltration Airflow Stats Nominal, AUDIENCE SEATING AREA PERMANENT - PENITENTIARY-SPACE FUNCTION INFILTRATION,ALWAYS ON DISCRETE,SP-AUDIENCE SEATING AREA PERMANENT - PENITENTIARY-SPACE FUNCTION SYS-3 FLR-4 SCH-C HPLCMT-WEST ZN,1875.00,375.1,0.564,3.007E-004,2.500E-004,0.285,0.000,0.000,0.224,0.000
 ZoneInfiltration Airflow Stats Nominal, AUDIENCE SEATING AREA PERMANENT - RELIGIOUS BUILDING-SPACE FUNCTION INFILTRATION,ALWAYS ON DISCRETE,SP-AUDIENCE SEATING AREA PERMANENT - RELIGIOUS BUILDING-SPACE FUNCTION SYS-3 FLR-4 SCH-I HPLCMT-EAST ZN,1875.00,375.1,0.564,3.007E-004,2.500E-004,0.285,0.000,0.000,0.224,0.000
 ZoneInfiltration Airflow Stats Nominal, AUDIENCE SEATING AREA PERMANENT - SPORTS ARENA-SPACE FUNCTION INFILTRATION,ALWAYS ON DISCRETE,SP-AUDIENCE SEATING AREA PERMANENT - SPORTS ARENA-SPACE FUNCTION SYS-6 FLR-4 SCH-B HPLCMT-NORTH ZN,1875.00,375.1,0.564,3.007E-004,2.500E-004,0.285,0.000,0.000,0.224,0.000
! <AirFlow Model>, Simple
 AirFlow Model, Simple
! <RoomAir Model>, Zone Name, Mixing/Mundt/UCSDDV/UCSDCV/UCSDUFI/UCSDUFE/User Defined
RoomAir Model,SP-ATRIUM (6 =< HEIGHT <= 12M)-SCH-G-SPACE FUNCTION SYS-6 FLR-4 SCH-G HPLCMT-SOUTH ZN,Mixing/Well-Stirred
RoomAir Model,SP-ATRIUM (6 =< HEIGHT <= 12M)-SCH-H-SPACE FUNCTION SYS-6 FLR-3 SCH-H HPLCMT-CORE ZN,Mixing/Well-Stirred
RoomAir Model,SP-ATRIUM (6 =< HEIGHT <= 12M)-SCH-I-SPACE FUNCTION SYS-6 FLR-3 SCH-I HPLCMT-EAST ZN,Mixing/Well-Stirred
RoomAir Model,SP-ATRIUM (6 =< HEIGHT <= 12M)-SCH-J-SPACE FUNCTION SYS-6 FLR-3 SCH-J HPLCMT-NORTH ZN,Mixing/Well-Stirred
RoomAir Model,SP-ATRIUM (6 =< HEIGHT <= 12M)-SCH-K-SPACE FUNCTION SYS-6 FLR-1 SCH-K HPLCMT-WEST ZN,Mixing/Well-Stirred
RoomAir Model,SP-AUDIENCE SEATING AREA PERMANENT - AUDITORIUM-SPACE FUNCTION SYS-3 FLR-4 SCH-C HPLCMT-CORE ZN,Mixing/Well-Stirred
RoomAir Model,SP-AUDIENCE SEATING AREA PERMANENT - CONVENTION CENTRE-SPACE FUNCTION SYS-3 FLR-3 SCH-C HPLCMT-SOUTH ZN,Mixing/Well-Stirred
RoomAir Model,SP-AUDIENCE SEATING AREA PERMANENT - GYMNASIUM-SPACE FUNCTION SYS-6 FLR-2 SCH-B HPLCMT-SOUTH ZN,Mixing/Well-Stirred
RoomAir Model,SP-AUDIENCE SEATING AREA PERMANENT - MOTION PICTURE THEATRE-SPACE FUNCTION SYS-3 FLR-1 SCH-C HPLCMT-NORTH ZN,Mixing/Well-Stirred
RoomAir Model,SP-AUDIENCE SEATING AREA PERMANENT - OTHER-SCH-A-SPACE FUNCTION SYS-3 FLR-1 SCH-A HPLCMT-SOUTH ZN,Mixing/Well-Stirred
RoomAir Model,SP-AUDIENCE SEATING AREA PERMANENT - OTHER-SCH-B-SPACE FUNCTION SYS-3 FLR-1 SCH-B HPLCMT-EAST ZN,Mixing/Well-Stirred
RoomAir Model,SP-AUDIENCE SEATING AREA PERMANENT - OTHER-SCH-C-SPACE FUNCTION SYS-3 FLR-2 SCH-C HPLCMT-WEST ZN,Mixing/Well-Stirred
RoomAir Model,SP-AUDIENCE SEATING AREA PERMANENT - OTHER-SCH-D-SPACE FUNCTION SYS-3 FLR-3 SCH-D HPLCMT-WEST ZN,Mixing/Well-Stirred
RoomAir Model,SP-AUDIENCE SEATING AREA PERMANENT - OTHER-SCH-E-SPACE FUNCTION SYS-3 FLR-1 SCH-E HPLCMT-CORE ZN,Mixing/Well-Stirred
RoomAir Model,SP-AUDIENCE SEATING AREA PERMANENT - OTHER-SCH-F-SPACE FUNCTION SYS-3 FLR-2 SCH-F HPLCMT-NORTH ZN,Mixing/Well-Stirred
RoomAir Model,SP-AUDIENCE SEATING AREA PERMANENT - OTHER-SCH-G-SPACE FUNCTION SYS-3 FLR-2 SCH-G HPLCMT-EAST ZN,Mixing/Well-Stirred
RoomAir Model,SP-AUDIENCE SEATING AREA PERMANENT - PENITENTIARY-SPACE FUNCTION SYS-3 FLR-4 SCH-C HPLCMT-WEST ZN,Mixing/Well-Stirred
RoomAir Model,SP-AUDIENCE SEATING AREA PERMANENT - PERFORMING ARTS THEATRE-SPACE FUNCTION SYS-3 FLR-2 SCH-C HPLCMT-CORE ZN,Mixing/Well-Stirred
RoomAir Model,SP-AUDIENCE SEATING AREA PERMANENT - RELIGIOUS BUILDING-SPACE FUNCTION SYS-3 FLR-4 SCH-I HPLCMT-EAST ZN,Mixing/Well-Stirred
RoomAir Model,SP-AUDIENCE SEATING AREA PERMANENT - SPORTS ARENA-SPACE FUNCTION SYS-6 FLR-4 SCH-B HPLCMT-NORTH ZN,Mixing/Well-Stirred
! <AirflowNetwork Model:Control>, No Multizone or Distribution/Multizone with Distribution/Multizone without Distribution/Multizone with Distribution only during Fan Operation
AirflowNetwork Model:Control,NoMultizoneOrDistribution
! <Zone Volume Capacitance Multiplier>, Sensible Heat Capacity Multiplier, Moisture Capacity Multiplier, Carbon Dioxide Capacity Multiplier, Generic Contaminant Capacity Multiplier
Zone Volume Capacitance Multiplier,   1.000 ,   1.000,   1.000,   1.000
! <Load Timesteps in Zone Design Calculation Averaging Window>, Value
 Load Timesteps in Zone Design Calculation Averaging Window,    6
! <Heating Sizing Factor Information>, Sizing Factor ID, Value
 Heating Sizing Factor Information, Global,   1.3000    
 Heating Sizing Factor Information, Zone SP-ATRIUM (6 =< HEIGHT <= 12M)-SCH-G-SPACE FUNCTION SYS-6 FLR-4 SCH-G HPLCMT-SOUTH ZN,   1.3000    
 Heating Sizing Factor Information, Zone SP-ATRIUM (6 =< HEIGHT <= 12M)-SCH-H-SPACE FUNCTION SYS-6 FLR-3 SCH-H HPLCMT-CORE ZN,   1.3000    
 Heating Sizing Factor Information, Zone SP-ATRIUM (6 =< HEIGHT <= 12M)-SCH-I-SPACE FUNCTION SYS-6 FLR-3 SCH-I HPLCMT-EAST ZN,   1.3000    
 Heating Sizing Factor Information, Zone SP-ATRIUM (6 =< HEIGHT <= 12M)-SCH-J-SPACE FUNCTION SYS-6 FLR-3 SCH-J HPLCMT-NORTH ZN,   1.3000    
 Heating Sizing Factor Information, Zone SP-ATRIUM (6 =< HEIGHT <= 12M)-SCH-K-SPACE FUNCTION SYS-6 FLR-1 SCH-K HPLCMT-WEST ZN,   1.3000    
 Heating Sizing Factor Information, Zone SP-AUDIENCE SEATING AREA PERMANENT - AUDITORIUM-SPACE FUNCTION SYS-3 FLR-4 SCH-C HPLCMT-CORE ZN,   1.3000    
 Heating Sizing Factor Information, Zone SP-AUDIENCE SEATING AREA PERMANENT - CONVENTION CENTRE-SPACE FUNCTION SYS-3 FLR-3 SCH-C HPLCMT-SOUTH ZN,   1.3000    
 Heating Sizing Factor Information, Zone SP-AUDIENCE SEATING AREA PERMANENT - GYMNASIUM-SPACE FUNCTION SYS-6 FLR-2 SCH-B HPLCMT-SOUTH ZN,   1.3000    
 Heating Sizing Factor Information, Zone SP-AUDIENCE SEATING AREA PERMANENT - MOTION PICTURE THEATRE-SPACE FUNCTION SYS-3 FLR-1 SCH-C HPLCMT-NORTH ZN,   1.3000    
 Heating Sizing Factor Information, Zone SP-AUDIENCE SEATING AREA PERMANENT - OTHER-SCH-A-SPACE FUNCTION SYS-3 FLR-1 SCH-A HPLCMT-SOUTH ZN,   1.3000    
 Heating Sizing Factor Information, Zone SP-AUDIENCE SEATING AREA PERMANENT - OTHER-SCH-B-SPACE FUNCTION SYS-3 FLR-1 SCH-B HPLCMT-EAST ZN,   1.3000    
 Heating Sizing Factor Information, Zone SP-AUDIENCE SEATING AREA PERMANENT - OTHER-SCH-C-SPACE FUNCTION SYS-3 FLR-2 SCH-C HPLCMT-WEST ZN,   1.3000    
 Heating Sizing Factor Information, Zone SP-AUDIENCE SEATING AREA PERMANENT - OTHER-SCH-D-SPACE FUNCTION SYS-3 FLR-3 SCH-D HPLCMT-WEST ZN,   1.3000    
 Heating Sizing Factor Information, Zone SP-AUDIENCE SEATING AREA PERMANENT - OTHER-SCH-E-SPACE FUNCTION SYS-3 FLR-1 SCH-E HPLCMT-CORE ZN,   1.3000    
 Heating Sizing Factor Information, Zone SP-AUDIENCE SEATING AREA PERMANENT - OTHER-SCH-F-SPACE FUNCTION SYS-3 FLR-2 SCH-F HPLCMT-NORTH ZN,   1.3000    
 Heating Sizing Factor Information, Zone SP-AUDIENCE SEATING AREA PERMANENT - OTHER-SCH-G-SPACE FUNCTION SYS-3 FLR-2 SCH-G HPLCMT-EAST ZN,   1.3000    
 Heating Sizing Factor Information, Zone SP-AUDIENCE SEATING AREA PERMANENT - PENITENTIARY-SPACE FUNCTION SYS-3 FLR-4 SCH-C HPLCMT-WEST ZN,   1.3000    
 Heating Sizing Factor Information, Zone SP-AUDIENCE SEATING AREA PERMANENT - PERFORMING ARTS THEATRE-SPACE FUNCTION SYS-3 FLR-2 SCH-C HPLCMT-CORE ZN,   1.3000    
 Heating Sizing Factor Information, Zone SP-AUDIENCE SEATING AREA PERMANENT - RELIGIOUS BUILDING-SPACE FUNCTION SYS-3 FLR-4 SCH-I HPLCMT-EAST ZN,   1.3000    
 Heating Sizing Factor Information, Zone SP-AUDIENCE SEATING AREA PERMANENT - SPORTS ARENA-SPACE FUNCTION SYS-6 FLR-4 SCH-B HPLCMT-NORTH ZN,   1.3000    
! <Cooling Sizing Factor Information>, Sizing Factor ID, Value
 Cooling Sizing Factor Information, Global,   1.1000    
 Cooling Sizing Factor Information, Zone SP-ATRIUM (6 =< HEIGHT <= 12M)-SCH-G-SPACE FUNCTION SYS-6 FLR-4 SCH-G HPLCMT-SOUTH ZN,   1.1000    
 Cooling Sizing Factor Information, Zone SP-ATRIUM (6 =< HEIGHT <= 12M)-SCH-H-SPACE FUNCTION SYS-6 FLR-3 SCH-H HPLCMT-CORE ZN,   1.1000    
 Cooling Sizing Factor Information, Zone SP-ATRIUM (6 =< HEIGHT <= 12M)-SCH-I-SPACE FUNCTION SYS-6 FLR-3 SCH-I HPLCMT-EAST ZN,   1.1000    
 Cooling Sizing Factor Information, Zone SP-ATRIUM (6 =< HEIGHT <= 12M)-SCH-J-SPACE FUNCTION SYS-6 FLR-3 SCH-J HPLCMT-NORTH ZN,   1.1000    
 Cooling Sizing Factor Information, Zone SP-ATRIUM (6 =< HEIGHT <= 12M)-SCH-K-SPACE FUNCTION SYS-6 FLR-1 SCH-K HPLCMT-WEST ZN,   1.1000    
 Cooling Sizing Factor Information, Zone SP-AUDIENCE SEATING AREA PERMANENT - AUDITORIUM-SPACE FUNCTION SYS-3 FLR-4 SCH-C HPLCMT-CORE ZN,   1.1000    
 Cooling Sizing Factor Information, Zone SP-AUDIENCE SEATING AREA PERMANENT - CONVENTION CENTRE-SPACE FUNCTION SYS-3 FLR-3 SCH-C HPLCMT-SOUTH ZN,   1.1000    
 Cooling Sizing Factor Information, Zone SP-AUDIENCE SEATING AREA PERMANENT - GYMNASIUM-SPACE FUNCTION SYS-6 FLR-2 SCH-B HPLCMT-SOUTH ZN,   1.1000    
 Cooling Sizing Factor Information, Zone SP-AUDIENCE SEATING AREA PERMANENT - MOTION PICTURE THEATRE-SPACE FUNCTION SYS-3 FLR-1 SCH-C HPLCMT-NORTH ZN,   1.1000    
 Cooling Sizing Factor Information, Zone SP-AUDIENCE SEATING AREA PERMANENT - OTHER-SCH-A-SPACE FUNCTION SYS-3 FLR-1 SCH-A HPLCMT-SOUTH ZN,   1.1000    
 Cooling Sizing Factor Information, Zone SP-AUDIENCE SEATING AREA PERMANENT - OTHER-SCH-B-SPACE FUNCTION SYS-3 FLR-1 SCH-B HPLCMT-EAST ZN,   1.1000    
 Cooling Sizing Factor Information, Zone SP-AUDIENCE SEATING AREA PERMANENT - OTHER-SCH-C-SPACE FUNCTION SYS-3 FLR-2 SCH-C HPLCMT-WEST ZN,   1.1000    
 Cooling Sizing Factor Information, Zone SP-AUDIENCE SEATING AREA PERMANENT - OTHER-SCH-D-SPACE FUNCTION SYS-3 FLR-3 SCH-D HPLCMT-WEST ZN,   1.1000    
 Cooling Sizing Factor Information, Zone SP-AUDIENCE SEATING AREA PERMANENT - OTHER-SCH-E-SPACE FUNCTION SYS-3 FLR-1 SCH-E HPLCMT-CORE ZN,   1.1000    
 Cooling Sizing Factor Information, Zone SP-AUDIENCE SEATING AREA PERMANENT - OTHER-SCH-F-SPACE FUNCTION SYS-3 FLR-2 SCH-F HPLCMT-NORTH ZN,   1.1000    
 Cooling Sizing Factor Information, Zone SP-AUDIENCE SEATING AREA PERMANENT - OTHER-SCH-G-SPACE FUNCTION SYS-3 FLR-2 SCH-G HPLCMT-EAST ZN,   1.1000    
 Cooling Sizing Factor Information, Zone SP-AUDIENCE SEATING AREA PERMANENT - PENITENTIARY-SPACE FUNCTION SYS-3 FLR-4 SCH-C HPLCMT-WEST ZN,   1.1000    
 Cooling Sizing Factor Information, Zone SP-AUDIENCE SEATING AREA PERMANENT - PERFORMING ARTS THEATRE-SPACE FUNCTION SYS-3 FLR-2 SCH-C HPLCMT-CORE ZN,   1.1000    
 Cooling Sizing Factor Information, Zone SP-AUDIENCE SEATING AREA PERMANENT - RELIGIOUS BUILDING-SPACE FUNCTION SYS-3 FLR-4 SCH-I HPLCMT-EAST ZN,   1.1000    
 Cooling Sizing Factor Information, Zone SP-AUDIENCE SEATING AREA PERMANENT - SPORTS ARENA-SPACE FUNCTION SYS-6 FLR-4 SCH-B HPLCMT-NORTH ZN,   1.1000    
! <Zone Sizing Information>, Zone Name, Load Type, Calc Des Load {W}, User Des Load {W}, Calc Des Air Flow Rate {m3/s}, User Des Air Flow Rate {m3/s}, Design Day Name, Date/Time of Peak, Temperature at Peak {C}, Humidity Ratio at Peak {kgWater/kgDryAir}, Floor Area {m2}, # Occupants, Calc Outdoor Air Flow Rate {m3/s}, Calc DOAS Heat Addition Rate {W}
 Zone Sizing Information, SP-ATRIUM (6 =< HEIGHT <= 12M)-SCH-G-SPACE FUNCTION SYS-6 FLR-4 SCH-G HPLCMT-SOUTH ZN, Cooling, 50915.46698, 56007.01368, 3.93516, 4.32868, FORT MCMURRAY AP ANN CLG .4% CONDNS DB=>MWB, 7/21 13:30:00, 28.59000, 8.76969E-003, 1875.00000, 187.56814, 0.57150, 0.00000
 Zone Sizing Information, SP-ATRIUM (6 =< HEIGHT <= 12M)-SCH-G-SPACE FUNCTION SYS-6 FLR-4 SCH-G HPLCMT-SOUTH ZN, Heating, 37086.11907, 48211.95480, 1.47157, 1.91304, FORT MCMURRAY AP ANN HTG 99.6% CONDNS DB, 1/21 09:00:00, -36.20000, 1.25811E-004, 1875.00000, 187.56814, 0.57150, 0.00000
 Zone Sizing Information, SP-ATRIUM (6 =< HEIGHT <= 12M)-SCH-H-SPACE FUNCTION SYS-6 FLR-3 SCH-H HPLCMT-CORE ZN, Cooling, 34092.61159, 37501.87275, 2.63538, 2.89891, FORT MCMURRAY AP ANN CLG .4% CONDNS DB=>MWB, 7/21 18:50:00, 24.37400, 8.76969E-003, 2500.00000, 250.09086, 0.76200, 0.00000
 Zone Sizing Information, SP-ATRIUM (6 =< HEIGHT <= 12M)-SCH-H-SPACE FUNCTION SYS-6 FLR-3 SCH-H HPLCMT-CORE ZN, Heating, 0.00000, 0.00000, 0.00000, 0.76200, FORT MCMURRAY AP ANN HTG 99.6% CONDNS DB, , -36.20000, 1.25811E-004, 2500.00000, 250.09086, 0.76200, 0.00000
 Zone Sizing Information, SP-ATRIUM (6 =< HEIGHT <= 12M)-SCH-I-SPACE FUNCTION SYS-6 FLR-3 SCH-I HPLCMT-EAST ZN, Cooling, 54603.88348, 60064.27183, 3.73204, 4.10524, FORT MCMURRAY AP ANN CLG .4% CONDNS DB=>MWB, 7/21 15:00:00, 28.90000, 8.76969E-003, 1875.00000, 187.56814, 0.57150, 0.00000
 Zone Sizing Information, SP-ATRIUM (6 =< HEIGHT <= 12M)-SCH-I-SPACE FUNCTION SYS-6 FLR-3 SCH-I HPLCMT-EAST ZN, Heating, 26054.87339, 33871.33540, 1.02615, 1.33399, FORT MCMURRAY AP ANN HTG 99.6% CONDNS DB, 1/21 16:00:00, -36.20000, 1.25811E-004, 1875.00000, 187.56814, 0.57150, 0.00000
 Zone Sizing Information, SP-ATRIUM (6 =< HEIGHT <= 12M)-SCH-J-SPACE FUNCTION SYS-6 FLR-3 SCH-J HPLCMT-NORTH ZN, Cooling, 21106.07089, 23216.67798, 1.63139, 1.79453, FORT MCMURRAY AP ANN CLG .4% CONDNS DB=>MWB, 7/21 20:40:00, 21.95600, 8.76969E-003, 1875.00000, 187.56814, 0.57150, 0.00000
 Zone Sizing Information, SP-ATRIUM (6 =< HEIGHT <= 12M)-SCH-J-SPACE FUNCTION SYS-6 FLR-3 SCH-J HPLCMT-NORTH ZN, Heating, 3329.67087, 4328.57214, 0.13492, 0.57150, FORT MCMURRAY AP ANN HTG 99.6% CONDNS DB, 1/21 09:50:00, -36.20000, 1.25811E-004, 1875.00000, 187.56814, 0.57150, 0.00000
 Zone Sizing Information, SP-ATRIUM (6 =< HEIGHT <= 12M)-SCH-K-SPACE FUNCTION SYS-6 FLR-1 SCH-K HPLCMT-WEST ZN, Cooling, 0.00000, 0.00000, 0.00000, 0.57150, FORT MCMURRAY AP ANN CLG .4% CONDNS DB=>MWB, , 28.90000, 8.76969E-003, 1875.00000, 187.56814, 0.57150, 0.00000
 Zone Sizing Information, SP-ATRIUM (6 =< HEIGHT <= 12M)-SCH-K-SPACE FUNCTION SYS-6 FLR-1 SCH-K HPLCMT-WEST ZN, Heating, 0.00000, 0.00000, 0.00000, 0.57150, FORT MCMURRAY AP ANN HTG 99.6% CONDNS DB, , -36.20000, 1.25811E-004, 1875.00000, 187.56814, 0.57150, 0.00000
 Zone Sizing Information, SP-AUDIENCE SEATING AREA PERMANENT - AUDITORIUM-SPACE FUNCTION SYS-3 FLR-4 SCH-C HPLCMT-CORE ZN, Cooling, 68588.67170, 75447.53887, 5.30240, 10.28700, FORT MCMURRAY AP ANN CLG .4% CONDNS DB=>MWB, 7/21 14:00:00, 28.90000, 8.76969E-003, 2500.00000, 500.18171, 10.28700, 0.00000
 Zone Sizing Information, SP-AUDIENCE SEATING AREA PERMANENT - AUDITORIUM-SPACE FUNCTION SYS-3 FLR-4 SCH-C HPLCMT-CORE ZN, Heating, 29072.80614, 37794.64798, 1.08399, 10.28700, FORT MCMURRAY AP ANN HTG 99.6% CONDNS DB, 1/21 08:20:00, -36.20000, 1.25811E-004, 2500.00000, 500.18171, 10.28700, 0.00000
 Zone Sizing Information, SP-AUDIENCE SEATING AREA PERMANENT - CONVENTION CENTRE-SPACE FUNCTION SYS-3 FLR-3 SCH-C HPLCMT-SOUTH ZN, Cooling, 49531.05189, 54484.15708, 3.82900, 7.71525, FORT MCMURRAY AP ANN CLG .4% CONDNS DB=>MWB, 7/21 14:10:00, 28.90000, 8.76969E-003, 1875.00000, 375.13628, 7.71525, 0.00000
 Zone Sizing Information, SP-AUDIENCE SEATING AREA PERMANENT - CONVENTION CENTRE-SPACE FUNCTION SYS-3 FLR-3 SCH-C HPLCMT-SOUTH ZN, Heating, 17181.97004, 22336.56105, 0.66614, 7.71525, FORT MCMURRAY AP ANN HTG 99.6% CONDNS DB, 1/21 09:00:00, -36.20000, 1.25811E-004, 1875.00000, 375.13628, 7.71525, 0.00000
 Zone Sizing Information, SP-AUDIENCE SEATING AREA PERMANENT - GYMNASIUM-SPACE FUNCTION SYS-6 FLR-2 SCH-B HPLCMT-SOUTH ZN, Cooling, 44857.30702, 49343.03772, 3.46775, 7.71525, FORT MCMURRAY AP ANN CLG .4% CONDNS DB=>MWB, 7/21 13:00:00, 28.28000, 8.76969E-003, 1875.00000, 375.13628, 7.71525, 0.00000
 Zone Sizing Information, SP-AUDIENCE SEATING AREA PERMANENT - GYMNASIUM-SPACE FUNCTION SYS-6 FLR-2 SCH-B HPLCMT-SOUTH ZN, Heating, 5241.12836, 6813.46686, 0.20643, 7.71525, FORT MCMURRAY AP ANN HTG 99.6% CONDNS DB, 1/21 09:40:00, -36.20000, 1.25811E-004, 1875.00000, 375.13628, 7.71525, 0.00000
 Zone Sizing Information, SP-AUDIENCE SEATING AREA PERMANENT - MOTION PICTURE THEATRE-SPACE FUNCTION SYS-3 FLR-1 SCH-C HPLCMT-NORTH ZN, Cooling, 34661.67315, 38127.84046, 2.67978, 7.71525, FORT MCMURRAY AP ANN CLG .4% CONDNS DB=>MWB, 7/21 17:00:00, 27.16400, 8.76969E-003, 1875.00000, 375.13628, 7.71525, 0.00000
 Zone Sizing Information, SP-AUDIENCE SEATING AREA PERMANENT - MOTION PICTURE THEATRE-SPACE FUNCTION SYS-3 FLR-1 SCH-C HPLCMT-NORTH ZN, Heating, 0.00000, 0.00000, 0.00000, 7.71525, FORT MCMURRAY AP ANN HTG 99.6% CONDNS DB, , -36.20000, 1.25811E-004, 1875.00000, 375.13628, 7.71525, 0.00000
 Zone Sizing Information, SP-AUDIENCE SEATING AREA PERMANENT - OTHER-SCH-A-SPACE FUNCTION SYS-3 FLR-1 SCH-A HPLCMT-SOUTH ZN, Cooling, 30803.40485, 33883.74534, 2.38166, 7.14375, FORT MCMURRAY AP ANN CLG .4% CONDNS DB=>MWB, 7/21 17:00:00, 27.16400, 8.76969E-003, 1875.00000, 375.13628, 7.14375, 0.00000
 Zone Sizing Information, SP-AUDIENCE SEATING AREA PERMANENT - OTHER-SCH-A-SPACE FUNCTION SYS-3 FLR-1 SCH-A HPLCMT-SOUTH ZN, Heating, 0.00000, 0.00000, 0.00000, 7.14375, FORT MCMURRAY AP ANN HTG 99.6% CONDNS DB, , -36.20000, 1.25811E-004, 1875.00000, 375.13628, 7.14375, 0.00000
 Zone Sizing Information, SP-AUDIENCE SEATING AREA PERMANENT - OTHER-SCH-B-SPACE FUNCTION SYS-3 FLR-1 SCH-B HPLCMT-EAST ZN, Cooling, 30049.15737, 33054.07311, 2.32301, 7.14375, FORT MCMURRAY AP ANN CLG .4% CONDNS DB=>MWB, 7/21 13:00:00, 28.28000, 8.76969E-003, 1875.00000, 375.13628, 7.14375, 0.00000
 Zone Sizing Information, SP-AUDIENCE SEATING AREA PERMANENT - OTHER-SCH-B-SPACE FUNCTION SYS-3 FLR-1 SCH-B HPLCMT-EAST ZN, Heating, 0.00000, 0.00000, 0.00000, 7.14375, FORT MCMURRAY AP ANN HTG 99.6% CONDNS DB, , -36.20000, 1.25811E-004, 1875.00000, 375.13628, 7.14375, 0.00000
 Zone Sizing Information, SP-AUDIENCE SEATING AREA PERMANENT - OTHER-SCH-C-SPACE FUNCTION SYS-3 FLR-2 SCH-C HPLCMT-WEST ZN, Cooling, 47555.93183, 52311.52501, 3.67666, 7.14375, FORT MCMURRAY AP ANN CLG .4% CONDNS DB=>MWB, 7/21 17:10:00, 26.95733, 8.76969E-003, 1875.00000, 375.13628, 7.14375, 0.00000
 Zone Sizing Information, SP-AUDIENCE SEATING AREA PERMANENT - OTHER-SCH-C-SPACE FUNCTION SYS-3 FLR-2 SCH-C HPLCMT-WEST ZN, Heating, 13755.98463, 17882.78002, 0.53365, 7.14375, FORT MCMURRAY AP ANN HTG 99.6% CONDNS DB, 1/21 09:00:00, -36.20000, 1.25811E-004, 1875.00000, 375.13628, 7.14375, 0.00000
 Zone Sizing Information, SP-AUDIENCE SEATING AREA PERMANENT - OTHER-SCH-D-SPACE FUNCTION SYS-3 FLR-3 SCH-D HPLCMT-WEST ZN, Cooling, 47287.18677, 52015.90544, 3.65603, 7.14375, FORT MCMURRAY AP ANN CLG .4% CONDNS DB=>MWB, 7/21 16:00:00, 28.15600, 8.76969E-003, 1875.00000, 375.13628, 7.14375, 0.00000
 Zone Sizing Information, SP-AUDIENCE SEATING AREA PERMANENT - OTHER-SCH-D-SPACE FUNCTION SYS-3 FLR-3 SCH-D HPLCMT-WEST ZN, Heating, 24840.84622, 32293.10009, 0.97606, 7.14375, FORT MCMURRAY AP ANN HTG 99.6% CONDNS DB, 1/21 09:00:00, -36.20000, 1.25811E-004, 1875.00000, 375.13628, 7.14375, 0.00000
 Zone Sizing Information, SP-AUDIENCE SEATING AREA PERMANENT - OTHER-SCH-E-SPACE FUNCTION SYS-3 FLR-1 SCH-E HPLCMT-CORE ZN, Cooling, 39136.49406, 43050.14347, 3.02581, 9.52500, FORT MCMURRAY AP ANN CLG .4% CONDNS DB=>MWB, 7/21 16:00:00, 28.15600, 8.76969E-003, 2500.00000, 500.18171, 9.52500, 0.00000
 Zone Sizing Information, SP-AUDIENCE SEATING AREA PERMANENT - OTHER-SCH-E-SPACE FUNCTION SYS-3 FLR-1 SCH-E HPLCMT-CORE ZN, Heating, 0.00000, 0.00000, 0.00000, 9.52500, FORT MCMURRAY AP ANN HTG 99.6% CONDNS DB, , -36.20000, 1.25811E-004, 2500.00000, 500.18171, 9.52500, 0.00000
 Zone Sizing Information, SP-AUDIENCE SEATING AREA PERMANENT - OTHER-SCH-F-SPACE FUNCTION SYS-3 FLR-2 SCH-F HPLCMT-NORTH ZN, Cooling, 22585.86675, 24844.45343, 1.74576, 7.14375, FORT MCMURRAY AP ANN CLG .4% CONDNS DB=>MWB, 7/21 24:00:00, 18.73200, 8.76969E-003, 1875.00000, 375.13628, 7.14375, 0.00000
 Zone Sizing Information, SP-AUDIENCE SEATING AREA PERMANENT - OTHER-SCH-F-SPACE FUNCTION SYS-3 FLR-2 SCH-F HPLCMT-NORTH ZN, Heating, 0.00000, 0.00000, 0.00000, 7.14375, FORT MCMURRAY AP ANN HTG 99.6% CONDNS DB, , -36.20000, 1.25811E-004, 1875.00000, 375.13628, 7.14375, 0.00000
 Zone Sizing Information, SP-AUDIENCE SEATING AREA PERMANENT - OTHER-SCH-G-SPACE FUNCTION SYS-3 FLR-2 SCH-G HPLCMT-EAST ZN, Cooling, 40687.34120, 44756.07532, 3.14501, 7.14375, FORT MCMURRAY AP ANN CLG .4% CONDNS DB=>MWB, 7/21 08:00:00, 19.72400, 8.76969E-003, 1875.00000, 375.13628, 7.14375, 0.00000
 Zone Sizing Information, SP-AUDIENCE SEATING AREA PERMANENT - OTHER-SCH-G-SPACE FUNCTION SYS-3 FLR-2 SCH-G HPLCMT-EAST ZN, Heating, 0.00000, 0.00000, 0.00000, 7.14375, FORT MCMURRAY AP ANN HTG 99.6% CONDNS DB, , -36.20000, 1.25811E-004, 1875.00000, 375.13628, 7.14375, 0.00000
 Zone Sizing Information, SP-AUDIENCE SEATING AREA PERMANENT - PENITENTIARY-SPACE FUNCTION SYS-3 FLR-4 SCH-C HPLCMT-WEST ZN, Cooling, 69682.88679, 76651.17547, 5.38708, 5.92579, FORT MCMURRAY AP ANN CLG .4% CONDNS DB=>MWB, 7/21 17:00:00, 27.16400, 8.76969E-003, 1875.00000, 375.13628, 3.90525, 0.00000
 Zone Sizing Information, SP-AUDIENCE SEATING AREA PERMANENT - PENITENTIARY-SPACE FUNCTION SYS-3 FLR-4 SCH-C HPLCMT-WEST ZN, Heating, 42771.07837, 55602.40188, 1.70123, 3.90525, FORT MCMURRAY AP ANN HTG 99.6% CONDNS DB, 1/21 09:00:00, -36.20000, 1.25811E-004, 1875.00000, 375.13628, 3.90525, 0.00000
 Zone Sizing Information, SP-AUDIENCE SEATING AREA PERMANENT - PERFORMING ARTS THEATRE-SPACE FUNCTION SYS-3 FLR-2 SCH-C HPLCMT-CORE ZN, Cooling, 54345.16714, 59779.68386, 4.20099, 10.28700, FORT MCMURRAY AP ANN CLG .4% CONDNS DB=>MWB, 7/21 17:00:00, 27.16400, 8.76969E-003, 2500.00000, 333.45447, 10.28700, 0.00000
 Zone Sizing Information, SP-AUDIENCE SEATING AREA PERMANENT - PERFORMING ARTS THEATRE-SPACE FUNCTION SYS-3 FLR-2 SCH-C HPLCMT-CORE ZN, Heating, 0.00000, 0.00000, 0.00000, 10.28700, FORT MCMURRAY AP ANN HTG 99.6% CONDNS DB, , -36.20000, 1.25811E-004, 2500.00000, 333.45447, 10.28700, 0.00000
 Zone Sizing Information, SP-AUDIENCE SEATING AREA PERMANENT - RELIGIOUS BUILDING-SPACE FUNCTION SYS-3 FLR-4 SCH-I HPLCMT-EAST ZN, Cooling, 81459.43121, 89605.37433, 5.15693, 6.28650, FORT MCMURRAY AP ANN CLG .4% CONDNS DB=>MWB, 7/21 15:00:00, 28.90000, 8.76969E-003, 1875.00000, 375.13628, 6.28650, 0.00000
 Zone Sizing Information, SP-AUDIENCE SEATING AREA PERMANENT - RELIGIOUS BUILDING-SPACE FUNCTION SYS-3 FLR-4 SCH-I HPLCMT-EAST ZN, Heating, 37279.36924, 48463.18001, 1.40349, 6.28650, FORT MCMURRAY AP ANN HTG 99.6% CONDNS DB, 1/21 15:20:00, -36.20000, 1.25811E-004, 1875.00000, 375.13628, 6.28650, 0.00000
 Zone Sizing Information, SP-AUDIENCE SEATING AREA PERMANENT - SPORTS ARENA-SPACE FUNCTION SYS-6 FLR-4 SCH-B HPLCMT-NORTH ZN, Cooling, 52679.70263, 57947.67289, 4.07241, 11.28713, FORT MCMURRAY AP ANN CLG .4% CONDNS DB=>MWB, 7/21 13:00:00, 28.28000, 8.76969E-003, 1875.00000, 375.13628, 11.28713, 0.00000
 Zone Sizing Information, SP-AUDIENCE SEATING AREA PERMANENT - SPORTS ARENA-SPACE FUNCTION SYS-6 FLR-4 SCH-B HPLCMT-NORTH ZN, Heating, 40094.45571, 52122.79242, 1.59313, 11.28713, FORT MCMURRAY AP ANN HTG 99.6% CONDNS DB, 1/21 10:00:00, -36.20000, 1.25811E-004, 1875.00000, 375.13628, 11.28713, 0.00000
! <System Sizing Information>, System Name, Load Type, Peak Load Kind, User Design Capacity, Calc Des Air Flow Rate [m3/s], User Des Air Flow Rate [m3/s], Design Day Name, Date/Time of Peak
 System Sizing Information, SYS_3_PSZ SP-AUDIENCE SEATING AREA PERMANENT - AUDITORIUM-SPACE FUNCTION SYS-3 FLR-4 SCH-C HPLCMT-CORE ZN, Cooling, Sensible, 189427.92, 10.28700, 10.28700, FORT MCMURRAY AP ANN CLG .4% CONDNS DB=>MWB, 7/21 05:00:00
 System Sizing Information, SYS_3_PSZ SP-AUDIENCE SEATING AREA PERMANENT - AUDITORIUM-SPACE FUNCTION SYS-3 FLR-4 SCH-C HPLCMT-CORE ZN, Heating, Sensible, 943565.47, 10.28700, 10.28700, FORT MCMURRAY AP ANN HTG 99.6% CONDNS DB, 1/21 00:10:00
 System Sizing Information, SYS_3_PSZ SP-AUDIENCE SEATING AREA PERMANENT - CONVENTION CENTRE-SPACE FUNCTION SYS-3 FLR-3 SCH-C HPLCMT-SOUTH ZN, Cooling, Sensible, 142070.94, 7.71525, 7.71525, FORT MCMURRAY AP ANN CLG .4% CONDNS DB=>MWB, 7/21 05:00:00
 System Sizing Information, SYS_3_PSZ SP-AUDIENCE SEATING AREA PERMANENT - CONVENTION CENTRE-SPACE FUNCTION SYS-3 FLR-3 SCH-C HPLCMT-SOUTH ZN, Heating, Sensible, 707674.10, 7.71525, 7.71525, FORT MCMURRAY AP ANN HTG 99.6% CONDNS DB, 1/21 00:10:00
 System Sizing Information, SYS_3_PSZ SP-AUDIENCE SEATING AREA PERMANENT - MOTION PICTURE THEATRE-SPACE FUNCTION SYS-3 FLR-1 SCH-C HPLCMT-NORTH ZN, Cooling, Sensible, 126559.29, 7.71525, 7.71525, FORT MCMURRAY AP ANN CLG .4% CONDNS DB=>MWB, 7/21 05:00:00
 System Sizing Information, SYS_3_PSZ SP-AUDIENCE SEATING AREA PERMANENT - MOTION PICTURE THEATRE-SPACE FUNCTION SYS-3 FLR-1 SCH-C HPLCMT-NORTH ZN, Heating, Sensible, 707674.10, 7.71525, 7.71525, FORT MCMURRAY AP ANN HTG 99.6% CONDNS DB, 1/21 00:10:00
 System Sizing Information, SYS_3_PSZ SP-AUDIENCE SEATING AREA PERMANENT - OTHER-SCH-A-SPACE FUNCTION SYS-3 FLR-1 SCH-A HPLCMT-SOUTH ZN, Cooling, Sensible, 117184.53, 7.14375, 7.14375, FORT MCMURRAY AP ANN CLG .4% CONDNS DB=>MWB, 7/21 05:00:00
 System Sizing Information, SYS_3_PSZ SP-AUDIENCE SEATING AREA PERMANENT - OTHER-SCH-A-SPACE FUNCTION SYS-3 FLR-1 SCH-A HPLCMT-SOUTH ZN, Heating, Sensible, 655253.80, 7.14375, 7.14375, FORT MCMURRAY AP ANN HTG 99.6% CONDNS DB, 1/21 00:10:00
 System Sizing Information, SYS_3_PSZ SP-AUDIENCE SEATING AREA PERMANENT - OTHER-SCH-B-SPACE FUNCTION SYS-3 FLR-1 SCH-B HPLCMT-EAST ZN, Cooling, Sensible, 126417.65, 7.14375, 7.14375, FORT MCMURRAY AP ANN CLG .4% CONDNS DB=>MWB, 7/21 05:00:00
 System Sizing Information, SYS_3_PSZ SP-AUDIENCE SEATING AREA PERMANENT - OTHER-SCH-B-SPACE FUNCTION SYS-3 FLR-1 SCH-B HPLCMT-EAST ZN, Heating, Sensible, 655253.80, 7.14375, 7.14375, FORT MCMURRAY AP ANN HTG 99.6% CONDNS DB, 1/21 00:10:00
 System Sizing Information, SYS_3_PSZ SP-AUDIENCE SEATING AREA PERMANENT - OTHER-SCH-C-SPACE FUNCTION SYS-3 FLR-2 SCH-C HPLCMT-WEST ZN, Cooling, Sensible, 115474.69, 7.14375, 7.14375, FORT MCMURRAY AP ANN CLG .4% CONDNS DB=>MWB, 7/21 05:00:00
 System Sizing Information, SYS_3_PSZ SP-AUDIENCE SEATING AREA PERMANENT - OTHER-SCH-C-SPACE FUNCTION SYS-3 FLR-2 SCH-C HPLCMT-WEST ZN, Heating, Sensible, 655253.80, 7.14375, 7.14375, FORT MCMURRAY AP ANN HTG 99.6% CONDNS DB, 1/21 10:20:00
 System Sizing Information, SYS_3_PSZ SP-AUDIENCE SEATING AREA PERMANENT - OTHER-SCH-D-SPACE FUNCTION SYS-3 FLR-3 SCH-D HPLCMT-WEST ZN, Cooling, Sensible, 125391.75, 7.14375, 7.14375, FORT MCMURRAY AP ANN CLG .4% CONDNS DB=>MWB, 7/21 05:00:00
 System Sizing Information, SYS_3_PSZ SP-AUDIENCE SEATING AREA PERMANENT - OTHER-SCH-D-SPACE FUNCTION SYS-3 FLR-3 SCH-D HPLCMT-WEST ZN, Heating, Sensible, 655253.80, 7.14375, 7.14375, FORT MCMURRAY AP ANN HTG 99.6% CONDNS DB, 1/21 00:10:00
 System Sizing Information, SYS_3_PSZ SP-AUDIENCE SEATING AREA PERMANENT - OTHER-SCH-E-SPACE FUNCTION SYS-3 FLR-1 SCH-E HPLCMT-CORE ZN, Cooling, Sensible, 167189.00, 9.52500, 9.52500, FORT MCMURRAY AP ANN CLG .4% CONDNS DB=>MWB, 7/21 05:00:00
 System Sizing Information, SYS_3_PSZ SP-AUDIENCE SEATING AREA PERMANENT - OTHER-SCH-E-SPACE FUNCTION SYS-3 FLR-1 SCH-E HPLCMT-CORE ZN, Heating, Sensible, 873671.73, 9.52500, 9.52500, FORT MCMURRAY AP ANN HTG 99.6% CONDNS DB, 1/21 00:10:00
 System Sizing Information, SYS_3_PSZ SP-AUDIENCE SEATING AREA PERMANENT - OTHER-SCH-F-SPACE FUNCTION SYS-3 FLR-2 SCH-F HPLCMT-NORTH ZN, Cooling, Sensible, 47423.17, 7.14375, 7.14375, FORT MCMURRAY AP ANN CLG .4% CONDNS DB=>MWB, 7/21 05:00:00
 System Sizing Information, SYS_3_PSZ SP-AUDIENCE SEATING AREA PERMANENT - OTHER-SCH-F-SPACE FUNCTION SYS-3 FLR-2 SCH-F HPLCMT-NORTH ZN, Heating, Sensible, 655253.80, 7.14375, 7.14375, FORT MCMURRAY AP ANN HTG 99.6% CONDNS DB, 1/21 00:10:00
 System Sizing Information, SYS_3_PSZ SP-AUDIENCE SEATING AREA PERMANENT - OTHER-SCH-G-SPACE FUNCTION SYS-3 FLR-2 SCH-G HPLCMT-EAST ZN, Cooling, Sensible, 55630.39, 7.14375, 7.14375, FORT MCMURRAY AP ANN CLG .4% CONDNS DB=>MWB, 7/21 05:00:00
 System Sizing Information, SYS_3_PSZ SP-AUDIENCE SEATING AREA PERMANENT - OTHER-SCH-G-SPACE FUNCTION SYS-3 FLR-2 SCH-G HPLCMT-EAST ZN, Heating, Sensible, 655253.80, 7.14375, 7.14375, FORT MCMURRAY AP ANN HTG 99.6% CONDNS DB, 1/21 00:10:00
 System Sizing Information, SYS_3_PSZ SP-AUDIENCE SEATING AREA PERMANENT - PENITENTIARY-SPACE FUNCTION SYS-3 FLR-4 SCH-C HPLCMT-WEST ZN, Cooling, Sensible, 89792.77, 5.92579, 5.92579, FORT MCMURRAY AP ANN CLG .4% CONDNS DB=>MWB, 7/21 05:00:00
 System Sizing Information, SYS_3_PSZ SP-AUDIENCE SEATING AREA PERMANENT - PENITENTIARY-SPACE FUNCTION SYS-3 FLR-4 SCH-C HPLCMT-WEST ZN, Heating, Sensible, 358205.41, 3.90525, 3.90525, FORT MCMURRAY AP ANN HTG 99.6% CONDNS DB, 1/21 00:10:00
 System Sizing Information, SYS_3_PSZ SP-AUDIENCE SEATING AREA PERMANENT - PERFORMING ARTS THEATRE-SPACE FUNCTION SYS-3 FLR-2 SCH-C HPLCMT-CORE ZN, Cooling, Sensible, 168745.72, 10.28700, 10.28700, FORT MCMURRAY AP ANN CLG .4% CONDNS DB=>MWB, 7/21 05:00:00
 System Sizing Information, SYS_3_PSZ SP-AUDIENCE SEATING AREA PERMANENT - PERFORMING ARTS THEATRE-SPACE FUNCTION SYS-3 FLR-2 SCH-C HPLCMT-CORE ZN, Heating, Sensible, 943565.47, 10.28700, 10.28700, FORT MCMURRAY AP ANN HTG 99.6% CONDNS DB, 1/21 00:10:00
 System Sizing Information, SYS_3_PSZ SP-AUDIENCE SEATING AREA PERMANENT - RELIGIOUS BUILDING-SPACE FUNCTION SYS-3 FLR-4 SCH-I HPLCMT-EAST ZN, Cooling, Sensible, 115761.50, 6.28650, 6.28650, FORT MCMURRAY AP ANN CLG .4% CONDNS DB=>MWB, 7/21 05:00:00
 System Sizing Information, SYS_3_PSZ SP-AUDIENCE SEATING AREA PERMANENT - RELIGIOUS BUILDING-SPACE FUNCTION SYS-3 FLR-4 SCH-I HPLCMT-EAST ZN, Heating, Sensible, 576623.34, 6.28650, 6.28650, FORT MCMURRAY AP ANN HTG 99.6% CONDNS DB, 1/21 00:10:00
 System Sizing Information, SYS_6_VAV WITH REHEAT, Cooling, Sensible, 10523.77, 0.57150, 0.57150, FORT MCMURRAY AP ANN CLG .4% CONDNS DB=>MWB, 7/21 00:00:00
 System Sizing Information, SYS_6_VAV WITH REHEAT, Heating, Sensible, 32630.32, 0.57150, 0.57150, FORT MCMURRAY AP ANN HTG 99.6% CONDNS DB, 1/21 00:10:00
 System Sizing Information, SYS_6_VAV WITH REHEAT 1, Cooling, Sensible, 136531.06, 7.71525, 7.71525, FORT MCMURRAY AP ANN CLG .4% CONDNS DB=>MWB, 7/21 00:00:00
 System Sizing Information, SYS_6_VAV WITH REHEAT 1, Heating, Sensible, 440509.26, 7.71525, 7.71525, FORT MCMURRAY AP ANN HTG 99.6% CONDNS DB, 1/21 00:10:00
 System Sizing Information, SYS_6_VAV WITH REHEAT 2, Cooling, Sensible, 116056.97, 8.79869, 8.79869, FORT MCMURRAY AP ANN CLG .4% CONDNS DB=>MWB, 7/21 00:00:00
 System Sizing Information, SYS_6_VAV WITH REHEAT 2, Heating, Sensible, 101032.85, 2.66749, 2.66749, FORT MCMURRAY AP ANN HTG 99.6% CONDNS DB, 1/21 00:10:00
 System Sizing Information, SYS_6_VAV WITH REHEAT 3, Cooling, Sensible, 258886.80, 15.61580, 15.61580, FORT MCMURRAY AP ANN CLG .4% CONDNS DB=>MWB, 7/21 00:00:00
 System Sizing Information, SYS_6_VAV WITH REHEAT 3, Heating, Sensible, 663568.21, 13.20016, 13.20016, FORT MCMURRAY AP ANN HTG 99.6% CONDNS DB, 1/21 01:30:00
! <Component Sizing Information>, Component Type, Component Name, Input Field Description, Value
 Component Sizing Information, AirTerminal:SingleDuct:VAV:Reheat, AIR TERMINAL SINGLE DUCT VAV REHEAT 6, Design Size Maximum Air Flow Rate [m3/s], 4.32868
 Component Sizing Information, AirTerminal:SingleDuct:VAV:Reheat, AIR TERMINAL SINGLE DUCT VAV REHEAT 6, Design Size Constant Minimum Air Flow Fraction, 0.33007
 Component Sizing Information, AirTerminal:SingleDuct:VAV:Reheat, AIR TERMINAL SINGLE DUCT VAV REHEAT 6, User-Specified Constant Minimum Air Flow Fraction, 0.30000
 Component Sizing Information, AirTerminal:SingleDuct:VAV:Reheat, AIR TERMINAL SINGLE DUCT VAV REHEAT 6, Design Size Minimum Air Flow Rate [m3/s], 1.29860
 Component Sizing Information, AirTerminal:SingleDuct:VAV:Reheat, AIR TERMINAL SINGLE DUCT VAV REHEAT 6, Design Size Maximum Flow per Zone Floor Area during Reheat [m3/s-m2], 6.92588E-004
 Component Sizing Information, AirTerminal:SingleDuct:VAV:Reheat, AIR TERMINAL SINGLE DUCT VAV REHEAT 6, Design Size Maximum Flow Fraction during Reheat [], 0.30000
 Component Sizing Information, AirTerminal:SingleDuct:VAV:Reheat, AIR TERMINAL SINGLE DUCT VAV REHEAT 6, Design Size Maximum Reheat Water Flow Rate [m3/s], 1.03732E-003
 Component Sizing Information, AirTerminal:SingleDuct:VAV:Reheat, AIR TERMINAL SINGLE DUCT VAV REHEAT 6, Design Size Reheat Coil Sizing Air Volume Flow Rate [m3/s], 1.91304
 Component Sizing Information, AirTerminal:SingleDuct:VAV:Reheat, AIR TERMINAL SINGLE DUCT VAV REHEAT 6, Design Size Reheat Coil Sizing Inlet Air Temperature [C], 13.10000
 Component Sizing Information, AirTerminal:SingleDuct:VAV:Reheat, AIR TERMINAL SINGLE DUCT VAV REHEAT 6, Design Size Reheat Coil Sizing Inlet Air Humidity Ratio [kgWater/kgDryAir], 8.00000E-003
 Component Sizing Information, Coil:Heating:Water, COIL HEATING WATER 10, Design Size Rated Capacity [W], 69451.77428
 Component Sizing Information, Coil:Heating:Water, COIL HEATING WATER 10, Design Size Maximum Water Flow Rate [m3/s], 1.03732E-003
 Component Sizing Information, Coil:Heating:Water, COIL HEATING WATER 10, Design Size U-Factor Times Area Value [W/K], 1585.68353
! <Water Heating Coil Capacity Information>,Component Type,Name,Nominal Total Capacity {W}
Water Heating Coil Capacity Information,Coil:Heating:Water,COIL HEATING WATER 10,58194.64
 Component Sizing Information, ZoneHVAC:Baseboard:Convective:Water, ZONE HVAC BASEBOARD CONVECTIVE WATER 19, Design Size Maximum Water Flow Rate [m3/s], 7.20085E-004
 Component Sizing Information, ZoneHVAC:Baseboard:Convective:Water, ZONE HVAC BASEBOARD CONVECTIVE WATER 19, Design Size U-Factor Times Area Value [W/K], 1466.33263
 Component Sizing Information, AirTerminal:SingleDuct:VAV:Reheat, AIR TERMINAL SINGLE DUCT VAV REHEAT 3, Design Size Maximum Air Flow Rate [m3/s], 2.89891
 Component Sizing Information, AirTerminal:SingleDuct:VAV:Reheat, AIR TERMINAL SINGLE DUCT VAV REHEAT 3, Design Size Constant Minimum Air Flow Fraction, 0.65714
 Component Sizing Information, AirTerminal:SingleDuct:VAV:Reheat, AIR TERMINAL SINGLE DUCT VAV REHEAT 3, User-Specified Constant Minimum Air Flow Fraction, 0.30000
 Component Sizing Information, AirTerminal:SingleDuct:VAV:Reheat, AIR TERMINAL SINGLE DUCT VAV REHEAT 3, Design Size Minimum Air Flow Rate [m3/s], 0.86967
 Component Sizing Information, AirTerminal:SingleDuct:VAV:Reheat, AIR TERMINAL SINGLE DUCT VAV REHEAT 3, Design Size Maximum Flow per Zone Floor Area during Reheat [m3/s-m2], 3.47870E-004
 Component Sizing Information, AirTerminal:SingleDuct:VAV:Reheat, AIR TERMINAL SINGLE DUCT VAV REHEAT 3, Design Size Maximum Flow Fraction during Reheat [], 0.30000
 Component Sizing Information, AirTerminal:SingleDuct:VAV:Reheat, AIR TERMINAL SINGLE DUCT VAV REHEAT 3, Design Size Maximum Reheat Water Flow Rate [m3/s], 1.38172E-004
 Component Sizing Information, AirTerminal:SingleDuct:VAV:Reheat, AIR TERMINAL SINGLE DUCT VAV REHEAT 3, Design Size Reheat Coil Sizing Air Volume Flow Rate [m3/s], 0.86967
[...]
 Component Sizing Information, Coil:Cooling:Water, COIL COOLING WATER 4, Design Size Design Coil Load [W], 317562.26851
 Component Sizing Information, Coil:Cooling:Water, COIL COOLING WATER 4, Design Size Design Water Flow Rate [m3/s], 1.26090E-002
 Component Sizing Information, Coil:Cooling:Water, COIL COOLING WATER 4, Design Size Design Air Flow Rate [m3/s], 15.61580
 Component Sizing Information, Coil:Cooling:Water, COIL COOLING WATER 4, Design Size Design Inlet Air Temperature [C], 27.31487
 Component Sizing Information, Coil:Cooling:Water, COIL COOLING WATER 4, Design Size Design Inlet Water Temperature [C], 7.00000
 Component Sizing Information, Coil:Cooling:Water, COIL COOLING WATER 4, Design Size Design Outlet Air Temperature [C], 13.00000
 Component Sizing Information, Coil:Cooling:Water, COIL COOLING WATER 4, Design Size Design Inlet Air Humidity Ratio, 8.97899E-003
 Component Sizing Information, Coil:Cooling:Water, COIL COOLING WATER 4, Design Size Design Outlet Air Humidity Ratio, 8.76847E-003
Water Cooling Coil Capacity Information,Coil:Cooling:Water,COIL COOLING WATER 4,375701.17,257345.88,118355.29,0.68,40368.29,409.44
 Component Sizing Information, Coil:Heating:Water, COIL HEATING WATER 9, Design Size Rated Capacity [W], 267479.55965
 Component Sizing Information, Coil:Heating:Water, COIL HEATING WATER 9, Design Size Maximum Water Flow Rate [m3/s], 3.99502E-003
 Component Sizing Information, Coil:Heating:Water, COIL HEATING WATER 9, Design Size U-Factor Times Area Value [W/K], 3264.03493
Water Heating Coil Capacity Information,Coil:Heating:Water,COIL HEATING WATER 9,149027.50
 Component Sizing Information, Fan:VariableVolume, SYS6 SUPPLY FAN 3, Design Size Maximum Flow Rate [m3/s], 15.61580
 Component Sizing Information, Controller:WaterCoil, CONTROLLER WATER COIL 13, Maximum Actuated Flow [m3/s], 1.26090E-002
 Component Sizing Information, Controller:WaterCoil, CONTROLLER WATER COIL 13, Controller Convergence Tolerance, 3.77660E-005
 Component Sizing Information, Controller:WaterCoil, CONTROLLER WATER COIL 12, Maximum Actuated Flow [m3/s], 3.99502E-003
 Component Sizing Information, Controller:WaterCoil, CONTROLLER WATER COIL 12, Controller Convergence Tolerance, 1.19196E-004
Water Heater Information,WaterHeater:Mixed,468GAL NATURALGAS WATER HEATER - 1038KBTU/HR,1.7710,304170.4,0.385,0.5668
 Component Sizing Information, PlantLoop, CHILLED WATER LOOP, Maximum Loop Flow Rate [m3/s], 2.59436E-002
 Component Sizing Information, PlantLoop, CHILLED WATER LOOP, Plant Loop Volume [m3], 3.11323
 Component Sizing Information, Pump:ConstantSpeed, PUMP CONSTANT SPEED 1, Design Flow Rate [m3/s], 2.59436E-002
 Component Sizing Information, Pump:ConstantSpeed, PUMP CONSTANT SPEED 1, Design Power Consumption [W], 6628.24728
 Component Sizing Information, Chiller:Electric:EIR, PRIMARY CHILLER WATERCOOLED SCROLL, Design Size Reference Chilled Water Flow Rate [m3/s], 2.59436E-002
 Component Sizing Information, Chiller:Electric:EIR, PRIMARY CHILLER WATERCOOLED SCROLL, Design Size Reference Capacity [W], 653388.87147
 Component Sizing Information, Chiller:Electric:EIR, PRIMARY CHILLER WATERCOOLED SCROLL, Design Size Reference Condenser Fluid Flow Rate [m3/s], 3.07930E-002
! <Chiller Standard Rating Information>, Component Type, Component Name, IPLV in SI Units {W/W}, IPLV in IP Units {Btu/W-h}
 Chiller Standard Rating Information, Chiller:Electric:EIR, PRIMARY CHILLER WATERCOOLED SCROLL, 7.88, 26.88
 Component Sizing Information, Chiller:Electric:EIR, SECONDARY CHILLER WATERCOOLED SCROLL, Design Size Reference Chilled Water Flow Rate [m3/s], 2.59436E-002
 Component Sizing Information, Chiller:Electric:EIR, SECONDARY CHILLER WATERCOOLED SCROLL, Design Size Reference Capacity [W], 653388.87147
 Component Sizing Information, Chiller:Electric:EIR, SECONDARY CHILLER WATERCOOLED SCROLL, Design Size Reference Condenser Fluid Flow Rate [m3/s], 3.07930E-002
 Chiller Standard Rating Information, Chiller:Electric:EIR, SECONDARY CHILLER WATERCOOLED SCROLL, 7.88, 26.88
 Component Sizing Information, PlantLoop, CONDENSER WATER LOOP, Maximum Loop Flow Rate [m3/s], 6.15859E-002
 Component Sizing Information, PlantLoop, CONDENSER WATER LOOP, Plant Loop Volume [m3], 7.39031
 Component Sizing Information, Pump:ConstantSpeed, PUMP CONSTANT SPEED 2, Design Flow Rate [m3/s], 6.15859E-002
 Component Sizing Information, Pump:ConstantSpeed, PUMP CONSTANT SPEED 2, Design Power Consumption [W], 15734.42020
 Component Sizing Information, CoolingTower:SingleSpeed, COOLING TOWER SINGLE SPEED 1, Design Water Flow Rate [m3/s], 6.15859E-002
 Component Sizing Information, CoolingTower:SingleSpeed, COOLING TOWER SINGLE SPEED 1, Fan Power at Design Air Flow Rate [W], 13513.01121
 Component Sizing Information, CoolingTower:SingleSpeed, COOLING TOWER SINGLE SPEED 1, Design Air Flow Rate [m3/s], 37.15807
 Component Sizing Information, CoolingTower:SingleSpeed, COOLING TOWER SINGLE SPEED 1, U-Factor Times Area Value at Design Air Flow Rate [W/C], 66354.40018
 Component Sizing Information, CoolingTower:SingleSpeed, COOLING TOWER SINGLE SPEED 1, Free Convection Regime Air Flow Rate [m3/s], 3.71581
 Component Sizing Information, CoolingTower:SingleSpeed, COOLING TOWER SINGLE SPEED 1, Free Convection U-Factor Times Area Value [W/K], 6635.44002
 Component Sizing Information, PlantLoop, HOT WATER LOOP, Maximum Loop Flow Rate [m3/s], 1.68626E-002
 Component Sizing Information, PlantLoop, HOT WATER LOOP, Plant Loop Volume [m3], 2.02351
 Component Sizing Information, Pump:VariableSpeed, PUMP VARIABLE SPEED 1, Design Flow Rate [m3/s], 1.68626E-002
 Component Sizing Information, Pump:VariableSpeed, PUMP VARIABLE SPEED 1, Design Power Consumption [W], 4308.17173
 Component Sizing Information, Boiler:HotWater, PRIMARY BOILER, Design Size Nominal Capacity [W], 1133373.18761
 Component Sizing Information, Boiler:HotWater, PRIMARY BOILER, Design Size Design Water Flow Rate [m3/s], 1.68626E-002
 Component Sizing Information, Boiler:HotWater, SECONDARY BOILER, Design Size Nominal Capacity [W], 1133373.18761
 Component Sizing Information, Boiler:HotWater, SECONDARY BOILER, Design Size Design Water Flow Rate [m3/s], 1.68626E-002
 Component Sizing Information, PlantLoop, MAIN SERVICE WATER LOOP, Maximum Loop Flow Rate [m3/s], 7.07058E-004
 Component Sizing Information, PlantLoop, MAIN SERVICE WATER LOOP, Plant Loop Volume [m3], 8.48470E-002
 Component Sizing Information, Pump:ConstantSpeed, SERVICE WATER LOOP PUMP, Design Flow Rate [m3/s], 7.07058E-004
 Component Sizing Information, Pump:ConstantSpeed, SERVICE WATER LOOP PUMP, Design Power Consumption [W], 406.87728
 Component Sizing Information, WaterHeater:Mixed, 468GAL NATURALGAS WATER HEATER - 1038KBTU/HR, Use Side Design Flow Rate [m3/s], 7.07058E-004
! <Environment>,Environment Name,Environment Type, Start Date, End Date, Start DayOfWeek, Duration {#days}, Source:Start DayOfWeek,  Use Daylight Saving, Use Holidays, Apply Weekend Holiday Rule,  Use Rain Values, Use Snow Values
! <Environment:Special Days>, Special Day Name, Special Day Type, Source, Start Date, Duration {#days}
! <Environment:Daylight Saving>, Daylight Saving Indicator, Source, Start Date, End Date
! <Environment:WarmupDays>, NumberofWarmupDays
Environment,FORT MCMURRAY AP ANN CLG .4% CONDNS DB=>MWB,SizingPeriod:DesignDay,07/21,07/21,SummerDesignDay,1,N/A,N/A,N/A,N/A,N/A,N/A
Environment:Daylight Saving,No,SizingPeriod:DesignDay
! <Environment:Design Day Data>, Max Dry-Bulb Temp {C}, Temp Range {dC}, Temp Range Ind Type, Hum Ind Value at Max Temp, Hum Ind Type,Pressure {Pa}, Wind Direction {deg CW from N}, Wind Speed {m/s}, Clearness, Rain, Snow
! <Environment:Design Day Misc>,DayOfYear,ASHRAE A Coeff,ASHRAE B Coeff,ASHRAE C Coeff,Solar Constant-Annual Variation,Eq of Time {minutes}, Solar Declination Angle {deg}, Solar Model
Environment:Design Day Data,28.90,12.40,DefaultMultipliers,96969,250,3.7,0.00,No,No
Environment:Design Day Misc,202,1084.4,0.2082,0.1365,1.0,-6.23,20.6,ASHRAETau
Environment:WarmupDays,  6
! <Tabular Report>,Style,Unit Conversion
Tabular Report,HTML,None
! <Warmup Convergence Information>,Zone Name,Environment Type/Name,Average Warmup Temperature Difference {deltaC},Std Dev Warmup Temperature Difference {deltaC},Max Temperature Pass/Fail Convergence,Min Temperature Pass/Fail Convergence,Average Warmup Load Difference {W},Std Dev Warmup Load Difference {W},Heating Load Pass/Fail Convergence,Cooling Load Pass/Fail Convergence
 Warmup Convergence Information,SP-ATRIUM (6 =< HEIGHT <= 12M)-SCH-G-SPACE FUNCTION SYS-6 FLR-4 SCH-G HPLCMT-SOUTH ZN,SizingPeriod: FORT MCMURRAY AP ANN CLG .4% CONDNS DB=>MWB,2.5943367949E-002,3.5176249717E-002,Pass,Pass,1.8901997652E-002,2.5587978532E-002,Pass,Pass
 Warmup Convergence Information,SP-ATRIUM (6 =< HEIGHT <= 12M)-SCH-H-SPACE FUNCTION SYS-6 FLR-3 SCH-H HPLCMT-CORE ZN,SizingPeriod: FORT MCMURRAY AP ANN CLG .4% CONDNS DB=>MWB,1.1787628870E-004,2.5511598656E-004,Pass,Pass,7.2488094058E-003,3.3240722406E-003,Pass,Pass
 Warmup Convergence Information,SP-ATRIUM (6 =< HEIGHT <= 12M)-SCH-I-SPACE FUNCTION SYS-6 FLR-3 SCH-I HPLCMT-EAST ZN,SizingPeriod: FORT MCMURRAY AP ANN CLG .4% CONDNS DB=>MWB,2.6352876870E-002,3.1007095578E-002,Pass,Pass,8.4696728128E-003,2.7922062955E-002,Pass,Pass
 Warmup Convergence Information,SP-ATRIUM (6 =< HEIGHT <= 12M)-SCH-J-SPACE FUNCTION SYS-6 FLR-3 SCH-J HPLCMT-NORTH ZN,SizingPeriod: FORT MCMURRAY AP ANN CLG .4% CONDNS DB=>MWB,9.8095860882E-005,2.0231064234E-004,Pass,Pass,1.4202802455E-002,2.2144825813E-002,Pass,Pass
 Warmup Convergence Information,SP-ATRIUM (6 =< HEIGHT <= 12M)-SCH-K-SPACE FUNCTION SYS-6 FLR-1 SCH-K HPLCMT-WEST ZN,SizingPeriod: FORT MCMURRAY AP ANN CLG .4% CONDNS DB=>MWB,4.2823019472E-002,5.0519890800E-002,Pass,Pass,3.7120801043E-003,4.4727118234E-003,Pass,Pass
 Warmup Convergence Information,SP-AUDIENCE SEATING AREA PERMANENT - AUDITORIUM-SPACE FUNCTION SYS-3 FLR-4 SCH-C HPLCMT-CORE ZN,SizingPeriod: FORT MCMURRAY AP ANN CLG .4% CONDNS DB=>MWB,7.1165482102E-002,0.1304498386,Pass,Pass,3.6893953663E-002,7.2097403199E-002,Pass,Pass
 Warmup Convergence Information,SP-AUDIENCE SEATING AREA PERMANENT - CONVENTION CENTRE-SPACE FUNCTION SYS-3 FLR-3 SCH-C HPLCMT-SOUTH ZN,SizingPeriod: FORT MCMURRAY AP ANN CLG .4% CONDNS DB=>MWB,5.5938264051E-002,9.8588402505E-002,Pass,Pass,4.0580006130E-002,7.3451985588E-002,Pass,Pass
 Warmup Convergence Information,SP-AUDIENCE SEATING AREA PERMANENT - GYMNASIUM-SPACE FUNCTION SYS-6 FLR-2 SCH-B HPLCMT-SOUTH ZN,SizingPeriod: FORT MCMURRAY AP ANN CLG .4% CONDNS DB=>MWB,7.1079783818E-002,0.1155259337,Pass,Pass,9.0462533221E-002,0.6161307192,Pass,Pass
 Warmup Convergence Information,SP-AUDIENCE SEATING AREA PERMANENT - MOTION PICTURE THEATRE-SPACE FUNCTION SYS-3 FLR-1 SCH-C HPLCMT-NORTH ZN,SizingPeriod: FORT MCMURRAY AP ANN CLG .4% CONDNS DB=>MWB,6.6650777637E-002,0.1431847880,Pass,Pass,5.7920594445E-002,0.1241826417,Pass,Pass
 Warmup Convergence Information,SP-AUDIENCE SEATING AREA PERMANENT - OTHER-SCH-A-SPACE FUNCTION SYS-3 FLR-1 SCH-A HPLCMT-SOUTH ZN,SizingPeriod: FORT MCMURRAY AP ANN CLG .4% CONDNS DB=>MWB,6.5038841890E-002,0.1708212214,Pass,Pass,9.4914296100E-002,0.3766252550,Pass,Pass
 Warmup Convergence Information,SP-AUDIENCE SEATING AREA PERMANENT - OTHER-SCH-B-SPACE FUNCTION SYS-3 FLR-1 SCH-B HPLCMT-EAST ZN,SizingPeriod: FORT MCMURRAY AP ANN CLG .4% CONDNS DB=>MWB,5.9415157120E-002,9.8566814309E-002,Pass,Pass,8.1147988157E-002,0.1855019349,Pass,Pass
 Warmup Convergence Information,SP-AUDIENCE SEATING AREA PERMANENT - OTHER-SCH-C-SPACE FUNCTION SYS-3 FLR-2 SCH-C HPLCMT-WEST ZN,SizingPeriod: FORT MCMURRAY AP ANN CLG .4% CONDNS DB=>MWB,5.5114467599E-002,9.5720029218E-002,Pass,Pass,5.0245198312E-002,0.1049599015,Pass,Pass
 Warmup Convergence Information,SP-AUDIENCE SEATING AREA PERMANENT - OTHER-SCH-D-SPACE FUNCTION SYS-3 FLR-3 SCH-D HPLCMT-WEST ZN,SizingPeriod: FORT MCMURRAY AP ANN CLG .4% CONDNS DB=>MWB,5.5595637600E-002,0.1069536669,Pass,Pass,4.4888468273E-002,9.2135143103E-002,Pass,Pass
 Warmup Convergence Information,SP-AUDIENCE SEATING AREA PERMANENT - OTHER-SCH-E-SPACE FUNCTION SYS-3 FLR-1 SCH-E HPLCMT-CORE ZN,SizingPeriod: FORT MCMURRAY AP ANN CLG .4% CONDNS DB=>MWB,6.9498110115E-002,0.1477530099,Pass,Pass,0.1160976566,0.3808715216,Pass,Pass
 Warmup Convergence Information,SP-AUDIENCE SEATING AREA PERMANENT - OTHER-SCH-F-SPACE FUNCTION SYS-3 FLR-2 SCH-F HPLCMT-NORTH ZN,SizingPeriod: FORT MCMURRAY AP ANN CLG .4% CONDNS DB=>MWB,4.1758888102E-002,5.8927931599E-002,Pass,Pass,4.7007465405E-002,0.1014161384,Pass,Pass
 Warmup Convergence Information,SP-AUDIENCE SEATING AREA PERMANENT - OTHER-SCH-G-SPACE FUNCTION SYS-3 FLR-2 SCH-G HPLCMT-EAST ZN,SizingPeriod: FORT MCMURRAY AP ANN CLG .4% CONDNS DB=>MWB,3.2419817097E-002,4.7887879840E-002,Pass,Pass,1.7740247474E-002,3.9825387832E-002,Pass,Pass
 Warmup Convergence Information,SP-AUDIENCE SEATING AREA PERMANENT - PENITENTIARY-SPACE FUNCTION SYS-3 FLR-4 SCH-C HPLCMT-WEST ZN,SizingPeriod: FORT MCMURRAY AP ANN CLG .4% CONDNS DB=>MWB,5.6636153682E-002,8.7511651181E-002,Pass,Pass,4.0196587016E-002,8.6988970717E-002,Pass,Pass
 Warmup Convergence Information,SP-AUDIENCE SEATING AREA PERMANENT - PERFORMING ARTS THEATRE-SPACE FUNCTION SYS-3 FLR-2 SCH-C HPLCMT-CORE ZN,SizingPeriod: FORT MCMURRAY AP ANN CLG .4% CONDNS DB=>MWB,5.8869202064E-002,0.1179344170,Pass,Pass,3.9938298562E-002,8.7581021785E-002,Pass,Pass
 Warmup Convergence Information,SP-AUDIENCE SEATING AREA PERMANENT - RELIGIOUS BUILDING-SPACE FUNCTION SYS-3 FLR-4 SCH-I HPLCMT-EAST ZN,SizingPeriod: FORT MCMURRAY AP ANN CLG .4% CONDNS DB=>MWB,0.1383325965,0.3175955413,Pass,Pass,9.3668474089E-002,0.4758463679,Pass,Pass
 Warmup Convergence Information,SP-AUDIENCE SEATING AREA PERMANENT - SPORTS ARENA-SPACE FUNCTION SYS-6 FLR-4 SCH-B HPLCMT-NORTH ZN,SizingPeriod: FORT MCMURRAY AP ANN CLG .4% CONDNS DB=>MWB,9.5887572692E-002,0.1922911747,Pass,Pass,4.8416753226E-002,0.1456379437,Pass,Pass
Environment,FORT MCMURRAY AP ANN HTG 99.6% CONDNS DB,SizingPeriod:DesignDay,01/21,01/21,WinterDesignDay,1,N/A,N/A,N/A,N/A,N/A,N/A
Environment:Daylight Saving,No,SizingPeriod:DesignDay
Environment:Design Day Data,-36.20,0.00,DefaultMultipliers,96969,90,1.0,0.00,No,No
Environment:Design Day Misc, 21,1229.0,0.1415,5.7310E-002,1.0,-11.15,-20.1,ASHRAEClearSky
Environment:WarmupDays,  6
 Warmup Convergence Information,SP-ATRIUM (6 =< HEIGHT <= 12M)-SCH-G-SPACE FUNCTION SYS-6 FLR-4 SCH-G HPLCMT-SOUTH ZN,SizingPeriod: FORT MCMURRAY AP ANN HTG 99.6% CONDNS DB,5.5604894524E-002,0.2914358165,Pass,Pass,7.3006580265E-002,0.4245088799,Pass,Pass
 Warmup Convergence Information,SP-ATRIUM (6 =< HEIGHT <= 12M)-SCH-H-SPACE FUNCTION SYS-6 FLR-3 SCH-H HPLCMT-CORE ZN,SizingPeriod: FORT MCMURRAY AP ANN HTG 99.6% CONDNS DB,1.2887227740E-002,8.6579198433E-003,Pass,Pass,3.3453590025E-003,9.2296345061E-003,Pass,Pass
 Warmup Convergence Information,SP-ATRIUM (6 =< HEIGHT <= 12M)-SCH-I-SPACE FUNCTION SYS-6 FLR-3 SCH-I HPLCMT-EAST ZN,SizingPeriod: FORT MCMURRAY AP ANN HTG 99.6% CONDNS DB,5.5589109910E-002,0.2330998610,Pass,Pass,0.1117421115,0.3532355445,Pass,Pass
 Warmup Convergence Information,SP-ATRIUM (6 =< HEIGHT <= 12M)-SCH-J-SPACE FUNCTION SYS-6 FLR-3 SCH-J HPLCMT-NORTH ZN,SizingPeriod: FORT MCMURRAY AP ANN HTG 99.6% CONDNS DB,1.2818606183E-002,1.3158627259E-002,Pass,Pass,4.1557902654E-003,5.0089975053E-003,Pass,Pass
 Warmup Convergence Information,SP-ATRIUM (6 =< HEIGHT <= 12M)-SCH-K-SPACE FUNCTION SYS-6 FLR-1 SCH-K HPLCMT-WEST ZN,SizingPeriod: FORT MCMURRAY AP ANN HTG 99.6% CONDNS DB,4.9448424805E-002,6.0540801287E-002,Pass,Pass,3.6976084098E-003,4.9850818652E-003,Pass,Pass
 Warmup Convergence Information,SP-AUDIENCE SEATING AREA PERMANENT - AUDITORIUM-SPACE FUNCTION SYS-3 FLR-4 SCH-C HPLCMT-CORE ZN,SizingPeriod: FORT MCMURRAY AP ANN HTG 99.6% CONDNS DB,5.5556526512E-002,0.3260545767,Pass,Pass,0.3585150231,2.4027932090,Pass,Pass
 Warmup Convergence Information,SP-AUDIENCE SEATING AREA PERMANENT - CONVENTION CENTRE-SPACE FUNCTION SYS-3 FLR-3 SCH-C HPLCMT-SOUTH ZN,SizingPeriod: FORT MCMURRAY AP ANN HTG 99.6% CONDNS DB,5.5560202696E-002,0.3292108768,Pass,Pass,7.3281849461E-002,0.3097139729,Pass,Pass
 Warmup Convergence Information,SP-AUDIENCE SEATING AREA PERMANENT - GYMNASIUM-SPACE FUNCTION SYS-6 FLR-2 SCH-B HPLCMT-SOUTH ZN,SizingPeriod: FORT MCMURRAY AP ANN HTG 99.6% CONDNS DB,5.5190823309E-002,7.2819126033E-002,Pass,Pass,6.2384221312E-003,1.0699540963E-002,Pass,Pass
 Warmup Convergence Information,SP-AUDIENCE SEATING AREA PERMANENT - MOTION PICTURE THEATRE-SPACE FUNCTION SYS-3 FLR-1 SCH-C HPLCMT-NORTH ZN,SizingPeriod: FORT MCMURRAY AP ANN HTG 99.6% CONDNS DB,5.5560429236E-002,0.3206345945,Pass,Pass,0.4189474912,3.7890850628,Pass,Pass
 Warmup Convergence Information,SP-AUDIENCE SEATING AREA PERMANENT - OTHER-SCH-A-SPACE FUNCTION SYS-3 FLR-1 SCH-A HPLCMT-SOUTH ZN,SizingPeriod: FORT MCMURRAY AP ANN HTG 99.6% CONDNS DB,5.5560900923E-002,0.3226504710,Pass,Pass,0.1103333792,0.3251789057,Pass,Pass
 Warmup Convergence Information,SP-AUDIENCE SEATING AREA PERMANENT - OTHER-SCH-B-SPACE FUNCTION SYS-3 FLR-1 SCH-B HPLCMT-EAST ZN,SizingPeriod: FORT MCMURRAY AP ANN HTG 99.6% CONDNS DB,5.5559858481E-002,0.3169780355,Pass,Pass,0.3259562635,1.5564259378,Pass,Pass
 Warmup Convergence Information,SP-AUDIENCE SEATING AREA PERMANENT - OTHER-SCH-C-SPACE FUNCTION SYS-3 FLR-2 SCH-C HPLCMT-WEST ZN,SizingPeriod: FORT MCMURRAY AP ANN HTG 99.6% CONDNS DB,5.5557005313E-002,0.3210297092,Pass,Pass,1.0465022834,6.5594281875,Pass,Pass
 Warmup Convergence Information,SP-AUDIENCE SEATING AREA PERMANENT - OTHER-SCH-D-SPACE FUNCTION SYS-3 FLR-3 SCH-D HPLCMT-WEST ZN,SizingPeriod: FORT MCMURRAY AP ANN HTG 99.6% CONDNS DB,5.5557968514E-002,0.3108037097,Pass,Pass,0.4907355663,2.1075738745,Pass,Pass
 Warmup Convergence Information,SP-AUDIENCE SEATING AREA PERMANENT - OTHER-SCH-E-SPACE FUNCTION SYS-3 FLR-1 SCH-E HPLCMT-CORE ZN,SizingPeriod: FORT MCMURRAY AP ANN HTG 99.6% CONDNS DB,5.5561989907E-002,0.3191214821,Pass,Pass,1.1942570919,11.4904982883,Pass,Pass
 Warmup Convergence Information,SP-AUDIENCE SEATING AREA PERMANENT - OTHER-SCH-F-SPACE FUNCTION SYS-3 FLR-2 SCH-F HPLCMT-NORTH ZN,SizingPeriod: FORT MCMURRAY AP ANN HTG 99.6% CONDNS DB,5.5559510915E-002,0.3132024858,Pass,Pass,0.2012826957,0.7524591476,Pass,Pass
 Warmup Convergence Information,SP-AUDIENCE SEATING AREA PERMANENT - OTHER-SCH-G-SPACE FUNCTION SYS-3 FLR-2 SCH-G HPLCMT-EAST ZN,SizingPeriod: FORT MCMURRAY AP ANN HTG 99.6% CONDNS DB,5.5561783216E-002,0.3036805852,Pass,Pass,5.5633138989E-002,0.1920965247,Pass,Pass
 Warmup Convergence Information,SP-AUDIENCE SEATING AREA PERMANENT - PENITENTIARY-SPACE FUNCTION SYS-3 FLR-4 SCH-C HPLCMT-WEST ZN,SizingPeriod: FORT MCMURRAY AP ANN HTG 99.6% CONDNS DB,5.5560951405E-002,0.3230140487,Pass,Pass,3.7296949859E-002,0.1087253452,Pass,Pass
 Warmup Convergence Information,SP-AUDIENCE SEATING AREA PERMANENT - PERFORMING ARTS THEATRE-SPACE FUNCTION SYS-3 FLR-2 SCH-C HPLCMT-CORE ZN,SizingPeriod: FORT MCMURRAY AP ANN HTG 99.6% CONDNS DB,5.5559511983E-002,0.3184793946,Pass,Pass,0.1389117138,1.0617417170,Pass,Pass
 Warmup Convergence Information,SP-AUDIENCE SEATING AREA PERMANENT - RELIGIOUS BUILDING-SPACE FUNCTION SYS-3 FLR-4 SCH-I HPLCMT-EAST ZN,SizingPeriod: FORT MCMURRAY AP ANN HTG 99.6% CONDNS DB,5.5557575854E-002,0.3090564557,Pass,Pass,0.2913186453,1.9112151565,Pass,Pass
 Warmup Convergence Information,SP-AUDIENCE SEATING AREA PERMANENT - SPORTS ARENA-SPACE FUNCTION SYS-6 FLR-4 SCH-B HPLCMT-NORTH ZN,SizingPeriod: FORT MCMURRAY AP ANN HTG 99.6% CONDNS DB,7.8346927207E-002,0.1560746691,Pass,Pass,1.0403935111,9.0344755634,Pass,Pass
! <Program Control Information:Threads/Parallel Sims>, Threading Supported,Maximum Number of Threads, Env Set Threads (OMP_NUM_THREADS), EP Env Set Threads (EP_OMP_NUM_THREADS), IDF Set Threads, Number of Threads Used (Interior Radiant Exchange), Number Nominal Surfaces, Number Parallel Sims
Program Control:Threads/Parallel Sims, No,1, N/A, N/A, N/A, N/A, N/A, N/A
End of Data
