Program Version,EnergyPlus, Version 8.9.0-eba93e8e1b, YMD=2019.03.28 14:11
! <Version>, Version ID
 Version, 8.9
! <Timesteps per Hour>, #TimeSteps, Minutes per TimeStep {minutes}
 Timesteps per Hour,  6, 10
! <System Convergence Limits>, Minimum System TimeStep {minutes}, Max HVAC Iterations, Minimum Plant Iterations, Maximum Plant Iterations
 System Convergence Limits, 1, 20, 2, 8
! <Simulation Control>, Do Zone Sizing, Do System Sizing, Do Plant Sizing, Do Design Days, Do Weather Simulation, Do HVAC Sizing Simulation
 Simulation Control, Yes, Yes, Yes, Yes, No, No
! <Output Reporting Tolerances>, Tolerance for Time Heating Setpoint Not Met, Tolerance for Zone Cooling Setpoint Not Met Time
 Output Reporting Tolerances, 1.000, 1.000, 
! <Site:GroundTemperature:BuildingSurface>,Jan{C},Feb{C},Mar{C},Apr{C},May{C},Jun{C},Jul{C},Aug{C},Sep{C},Oct{C},Nov{C},Dec{C}
 Site:GroundTemperature:BuildingSurface,  19.53,  19.50,  19.54,  19.60,  20.00,  21.64,  22.23,  22.38,  21.45,  20.12,  19.80,  19.63
! <Site:GroundTemperature:FCfactorMethod>,Jan{C},Feb{C},Mar{C},Apr{C},May{C},Jun{C},Jul{C},Aug{C},Sep{C},Oct{C},Nov{C},Dec{C}
 Site:GroundTemperature:FCfactorMethod, -12.27, -13.66, -11.19,  -7.33,   2.77,  10.57,  15.83,  17.43,  14.70,   8.65,   0.56,  -6.95
! <Site:GroundTemperature:Shallow>,Jan{C},Feb{C},Mar{C},Apr{C},May{C},Jun{C},Jul{C},Aug{C},Sep{C},Oct{C},Nov{C},Dec{C}
 Site:GroundTemperature:Shallow,  13.00,  13.00,  13.00,  13.00,  13.00,  13.00,  13.00,  13.00,  13.00,  13.00,  13.00,  13.00
! <Site:GroundTemperature:Deep>,Jan{C},Feb{C},Mar{C},Apr{C},May{C},Jun{C},Jul{C},Aug{C},Sep{C},Oct{C},Nov{C},Dec{C}
 Site:GroundTemperature:Deep,  16.00,  16.00,  16.00,  16.00,  16.00,  16.00,  16.00,  16.00,  16.00,  16.00,  16.00,  16.00
! <Site:GroundReflectance>,Jan{dimensionless},Feb{dimensionless},Mar{dimensionless},Apr{dimensionless},May{dimensionless},Jun{dimensionless},Jul{dimensionless},Aug{dimensionless},Sep{dimensionless},Oct{dimensionless},Nov{dimensionless},Dec{dimensionless}
 Site:GroundReflectance,  0.20,  0.20,  0.20,  0.20,  0.20,  0.20,  0.20,  0.20,  0.20,  0.20,  0.20,  0.20
! <Site:GroundReflectance:SnowModifier>, Normal, Daylighting {dimensionless}
 Site:GroundReflectance:SnowModifier,   1.000,   1.000
! <Site:GroundReflectance:Snow>,Jan{dimensionless},Feb{dimensionless},Mar{dimensionless},Apr{dimensionless},May{dimensionless},Jun{dimensionless},Jul{dimensionless},Aug{dimensionless},Sep{dimensionless},Oct{dimensionless},Nov{dimensionless},Dec{dimensionless}
 Site:GroundReflectance:Snow,  0.20,  0.20,  0.20,  0.20,  0.20,  0.20,  0.20,  0.20,  0.20,  0.20,  0.20,  0.20
! <Site:GroundReflectance:Snow:Daylighting>,Jan{dimensionless},Feb{dimensionless},Mar{dimensionless},Apr{dimensionless},May{dimensionless},Jun{dimensionless},Jul{dimensionless},Aug{dimensionless},Sep{dimensionless},Oct{dimensionless},Nov{dimensionless},Dec{dimensionless}
 Site:GroundReflectance:Snow:Daylighting,  0.20,  0.20,  0.20,  0.20,  0.20,  0.20,  0.20,  0.20,  0.20,  0.20,  0.20,  0.20
! <Environment:Weather Station>,Wind Sensor Height Above Ground {m},Wind Speed Profile Exponent {},Wind Speed Profile Boundary Layer Thickness {m},Air Temperature Sensor Height Above Ground {m},Wind Speed Modifier Coefficient-Internal,Temperature Modifier Coefficient-Internal
Environment:Weather Station,10.000,0.140,270.000,1.500,1.586,9.750E-003
! <Site:Location>, Location Name, Latitude {N+/S- Deg}, Longitude {E+/W- Deg},  Time Zone Number {GMT+/-}, Elevation {m},  Standard Pressure at Elevation {Pa}, Standard RhoAir at Elevation
Site:Location,Fort McMurray AP AB CAN CWEC2016 WMO#=716890,56.65,-111.22,-7.00,369.10,96969,1.1525
! <Building Information>, Building Name,North Axis {deg},Terrain,  Loads Convergence Tolerance Value,Temperature Convergence Tolerance Value,  Solar Distribution,Maximum Number of Warmup Days,Minimum Number of Warmup Days
 Building Information,Building 1,0.000,Suburbs,4.00000E-002,0.40000,FullExterior,25,6
! <Inside Convection Algorithm>, Algorithm {Simple | TARP | CeilingDiffuser | AdaptiveConvectionAlgorithm}
Inside Convection Algorithm,TARP
! <Outside Convection Algorithm>, Algorithm {SimpleCombined | TARP | MoWitt | DOE-2 | AdaptiveConvectionAlgorithm}
Outside Convection Algorithm,TARP
! <Sky Radiance Distribution>, Value {Anisotropic}
Sky Radiance Distribution,Anisotropic
! <Zone Air Solution Algorithm>, Value {ThirdOrderBackwardDifference | AnalyticalSolution | EulerMethod}
 Zone Air Solution Algorithm, ThirdOrderBackwardDifference
! <Zone Air Carbon Dioxide Balance Simulation>, Simulation {Yes/No}, Carbon Dioxide Concentration
 Zone Air Carbon Dioxide Balance Simulation, No,N/A
! <Zone Air Generic Contaminant Balance Simulation>, Simulation {Yes/No}, Generic Contaminant Concentration
 Zone Air Generic Contaminant Balance Simulation, No,N/A
! <Zone Air Mass Flow Balance Simulation>, Enforce Mass Balance, Adjust Zone Mixing, Adjust Zone Infiltration {AddInfiltration | AdjustInfiltration | None}, Infiltration Zones {MixingSourceZonesOnly | AllZones}
 Zone Air Mass Flow Balance Simulation, No,N/A,N/A,N/A
! <HVACSystemRootFindingAlgorithm>, Value {RegulaFalsi | Bisection | BisectionThenRegulaFalsi | RegulaFalsiThenBisection}
 HVACSystemRootFindingAlgorithm, RegulaFalsi
! <Environment:Site Atmospheric Variation>,Wind Speed Profile Exponent {},Wind Speed Profile Boundary Layer Thickness {m},Air Temperature Gradient Coefficient {K/m}
Environment:Site Atmospheric Variation,0.220,370.000,6.500000E-003
! <Surface Geometry>,Starting Corner,Vertex Input Direction,Coordinate System,Daylight Reference Point Coordinate System,Rectangular (Simple) Surface Coordinate System
 Surface Geometry,UpperLeftCorner,Counterclockwise,RelativeCoordinateSystem,RelativeCoordinateSystem,RelativeToZoneOrigin
! <Surface Heat Transfer Algorithm>, Value {CTF - ConductionTransferFunction | EMPD - MoisturePenetrationDepthConductionTransferFunction | CondFD - ConductionFiniteDifference | HAMT - CombinedHeatAndMoistureFiniteElement} - Description,Inside Surface Max Temperature Limit{C}, Surface Convection Coefficient Lower Limit {W/m2-K}, Surface Convection Coefficient Upper Limit {W/m2-K}
Surface Heat Transfer Algorithm, CTF - ConductionTransferFunction,200,0.10,1000.0
! <Shading Summary>, Number of Fixed Detached Shades, Number of Building Detached Shades, Number of Attached Shades
 Shading Summary,0,0,0
! <Zone Summary>, Number of Zones, Number of Zone Surfaces, Number of SubSurfaces
 Zone Summary,20,137,17
! <Zone Information>,Zone Name,North Axis {deg},Origin X-Coordinate {m},Origin Y-Coordinate {m},Origin Z-Coordinate {m},Centroid X-Coordinate {m},Centroid Y-Coordinate {m},Centroid Z-Coordinate {m},Type,Zone Multiplier,Zone List Multiplier,Minimum X {m},Maximum X {m},Minimum Y {m},Maximum Y {m},Minimum Z {m},Maximum Z {m},Ceiling Height {m},Volume {m3},Zone Inside Convection Algorithm {Simple-Detailed-CeilingDiffuser-TrombeWall},Zone Outside Convection Algorithm {Simple-Detailed-Tarp-MoWitt-DOE-2-BLAST}, Floor Area {m2},Exterior Gross Wall Area {m2},Exterior Net Wall Area {m2},Exterior Window Area {m2}, Number of Surfaces, Number of SubSurfaces, Number of Shading SubSurfaces,  Part of Total Building Area
 Zone Information, SP-WHOLEBUILDING-AUTOMOTIVE FACILITY SYS-4 FLR-4 SCH-E HPLCMT-SOUTH ZN,0.0,0.00,0.00,11.40,50.00,10.85,13.30,1,1,1,0.00,100.00,0.00,25.00,11.40,15.20,3.80,7125.00,TARP,TARP,1875.00,380.00,285.00,132.50,6,2,0,Yes
 Zone Information, SP-WHOLEBUILDING-CONVENTION CENTRE SYS-3 FLR-3 SCH-C HPLCMT-CORE ZN,0.0,25.00,25.00,7.60,50.00,50.00,9.50,1,1,1,25.00,75.00,25.00,75.00,7.60,11.40,3.80,9500.00,TARP,TARP,2500.00,0.00,0.00,0.00,6,0,0,Yes
 Zone Information, SP-WHOLEBUILDING-COURTHOUSE SYS-3 FLR-3 SCH-A HPLCMT-EAST ZN,0.0,75.00,25.00,7.60,89.15,50.00,9.50,1,1,1,75.00,100.00,0.00,100.00,7.60,11.40,3.80,7125.00,TARP,TARP,1875.00,380.00,285.00,95.00,6,1,0,Yes
 Zone Information, SP-WHOLEBUILDING-DINING - BAR LOUNGE/LEISURE SYS-3 FLR-3 SCH-B HPLCMT-NORTH ZN,0.0,25.00,75.00,7.60,50.00,89.15,9.50,1,1,1,0.00,100.00,75.00,100.00,7.60,11.40,3.80,7125.00,TARP,TARP,1875.00,380.00,285.00,95.00,6,1,0,Yes
 Zone Information, SP-WHOLEBUILDING-DINING - CAFETERIA/FAST FOOD SYS-3 FLR-1 SCH-B HPLCMT-WEST ZN,0.0,0.00,0.00,0.00,10.85,50.00,1.90,1,1,1,0.00,25.00,0.00,100.00,0.00,3.80,3.80,7125.00,TARP,TARP,1875.00,0.00,0.00,0.00,6,0,0,Yes
 Zone Information, SP-WHOLEBUILDING-DINING - FAMILY SYS-3 FLR-4 SCH-B HPLCMT-CORE ZN,0.0,25.00,25.00,11.40,50.00,50.00,13.30,1,1,1,25.00,75.00,25.00,75.00,11.40,15.20,3.80,9500.00,TARP,TARP,2500.00,0.00,0.00,50.00,6,1,0,Yes
 Zone Information, SP-WHOLEBUILDING-DORMITORY SYS-3 FLR-3 SCH-G HPLCMT-SOUTH ZN,0.0,0.00,0.00,7.60,50.00,10.85,9.50,1,1,1,0.00,100.00,0.00,25.00,7.60,11.40,3.80,7125.00,TARP,TARP,1875.00,380.00,285.00,95.00,6,1,0,Yes
 Zone Information, SP-WHOLEBUILDING-EXERCISE CENTRE SYS-6 FLR-2 SCH-B HPLCMT-SOUTH ZN,0.0,0.00,0.00,3.80,50.00,10.85,5.70,1,1,1,0.00,100.00,0.00,25.00,3.80,7.60,3.80,7125.00,TARP,TARP,1875.00,380.00,285.00,95.00,6,1,0,Yes
 Zone Information, SP-WHOLEBUILDING-FIRE STATION SYS-4 FLR-1 SCH-F HPLCMT-NORTH ZN,0.0,25.00,75.00,0.00,50.00,89.15,1.90,1,1,1,0.00,100.00,75.00,100.00,0.00,3.80,3.80,7125.00,TARP,TARP,1875.00,0.00,0.00,0.00,6,0,0,Yes
 Zone Information, SP-WHOLEBUILDING-GYMNASIUM SYS-6 FLR-4 SCH-B HPLCMT-WEST ZN,0.0,0.00,0.00,11.40,10.85,50.00,13.30,1,1,1,0.00,25.00,0.00,100.00,11.40,15.20,3.80,7125.00,TARP,TARP,1875.00,380.00,285.00,132.50,6,2,0,Yes
 Zone Information, SP-WHOLEBUILDING-HEALTH CARE CLINIC SYS-6 FLR-2 SCH-A HPLCMT-CORE ZN,0.0,25.00,25.00,3.80,50.00,50.00,5.70,1,1,1,25.00,75.00,25.00,75.00,3.80,7.60,3.80,9500.00,TARP,TARP,2500.00,0.00,0.00,0.00,6,0,0,Yes
 Zone Information, SP-WHOLEBUILDING-HOSPITAL SYS-3 FLR-4 SCH-H HPLCMT-EAST ZN,0.0,75.00,25.00,11.40,89.15,50.00,13.30,1,1,1,75.00,100.00,0.00,100.00,11.40,15.20,3.80,7125.00,TARP,TARP,1875.00,380.00,285.00,132.50,6,2,0,Yes
 Zone Information, SP-WHOLEBUILDING-HOTEL/MOTEL SYS-1 FLR-4 SCH-F HPLCMT-NORTH ZN,0.0,25.00,75.00,11.40,50.00,89.15,13.30,1,1,1,0.00,100.00,75.00,100.00,11.40,15.20,3.80,7125.00,TARP,TARP,1875.00,380.00,285.00,132.50,6,2,0,Yes
 Zone Information, SP-WHOLEBUILDING-LIBRARY SYS-2 FLR-1 SCH-C HPLCMT-SOUTH ZN,0.0,0.00,0.00,0.00,50.00,10.85,1.90,1,1,1,0.00,100.00,0.00,25.00,0.00,3.80,3.80,7125.00,TARP,TARP,1875.00,0.00,0.00,0.00,6,0,0,Yes
 Zone Information, SP-WHOLEBUILDING-LONG-TERM CARE - DWELLING UNITS SYS-1 FLR-1 SCH-J HPLCMT-EAST ZN,0.0,75.00,25.00,0.00,89.15,50.00,1.90,1,1,1,75.00,100.00,0.00,100.00,0.00,3.80,3.80,7125.00,TARP,TARP,1875.00,0.00,0.00,0.00,6,0,0,Yes
 Zone Information, SP-WHOLEBUILDING-LONG-TERM CARE - OTHER SYS-1 FLR-2 SCH-B HPLCMT-WEST ZN,0.0,0.00,0.00,3.80,10.85,50.00,5.70,1,1,1,0.00,25.00,0.00,100.00,3.80,7.60,3.80,7125.00,TARP,TARP,1875.00,380.00,285.00,95.00,6,1,0,Yes
 Zone Information, SP-WHOLEBUILDING-MANUFACTURING FACILITY SYS-3 FLR-3 SCH-A HPLCMT-WEST ZN,0.0,0.00,0.00,7.60,10.85,50.00,9.50,1,1,1,0.00,25.00,0.00,100.00,7.60,11.40,3.80,7125.00,TARP,TARP,1875.00,380.00,285.00,95.00,6,1,0,Yes
 Zone Information, SP-WHOLEBUILDING-MOTION PICTURE THEATRE SYS-3 FLR-1 SCH-C HPLCMT-CORE ZN,0.0,25.00,25.00,0.00,50.00,50.00,1.90,1,1,1,25.00,75.00,25.00,75.00,0.00,3.80,3.80,9500.00,TARP,TARP,2500.00,0.00,0.00,0.00,6,0,0,Yes
 Zone Information, SP-WHOLEBUILDING-MULTI-UNIT RESIDENTIAL BUILDING SYS-1 FLR-2 SCH-G HPLCMT-NORTH ZN,0.0,25.00,75.00,3.80,50.00,89.15,5.70,1,1,1,0.00,100.00,75.00,100.00,3.80,7.60,3.80,7125.00,TARP,TARP,1875.00,380.00,285.00,95.00,6,1,0,Yes
 Zone Information, SP-WHOLEBUILDING-MUSEUM SYS-2 FLR-2 SCH-C HPLCMT-EAST ZN,0.0,75.00,25.00,3.80,89.15,50.00,5.70,1,1,1,75.00,100.00,0.00,100.00,3.80,7.60,3.80,7125.00,TARP,TARP,1875.00,380.00,285.00,95.00,6,1,0,Yes
! <Zone Internal Gains Nominal>,Zone Name, Floor Area {m2},# Occupants,Area per Occupant {m2/person},Occupant per Area {person/m2},Interior Lighting {W/m2},Electric Load {W/m2},Gas Load {W/m2},Other Load {W/m2},Hot Water Eq {W/m2},Steam Equipment {W/m2},Sum Loads per Area {W/m2},Outdoor Controlled Baseboard Heat
 Zone Internal Gains Nominal, SP-WHOLEBUILDING-AUTOMOTIVE FACILITY SYS-4 FLR-4 SCH-E HPLCMT-SOUTH ZN,1875.00,93.8,19.993,5.002E-002,7.600,5.002,0.000,0.000,0.000,0.000,12.602,No
 Zone Internal Gains Nominal, SP-WHOLEBUILDING-CONVENTION CENTRE SYS-3 FLR-3 SCH-C HPLCMT-CORE ZN,2500.00,312.6,7.997,0.125,8.200,2.501,0.000,0.000,0.000,0.000,10.701,No
 Zone Internal Gains Nominal, SP-WHOLEBUILDING-COURTHOUSE SYS-3 FLR-3 SCH-A HPLCMT-EAST ZN,1875.00,125.0,14.995,6.669E-002,9.700,5.002,0.000,0.000,0.000,0.000,14.702,No
 Zone Internal Gains Nominal, SP-WHOLEBUILDING-DINING - BAR LOUNGE/LEISURE SYS-3 FLR-3 SCH-B HPLCMT-NORTH ZN,1875.00,187.6,9.996,0.100,9.700,1.000,0.000,0.000,0.000,0.000,10.700,No
 Zone Internal Gains Nominal, SP-WHOLEBUILDING-DINING - CAFETERIA/FAST FOOD SYS-3 FLR-1 SCH-B HPLCMT-WEST ZN,1875.00,187.6,9.996,0.100,8.500,1.000,0.000,0.000,0.000,0.000,9.500,No
 Zone Internal Gains Nominal, SP-WHOLEBUILDING-DINING - FAMILY SYS-3 FLR-4 SCH-B HPLCMT-CORE ZN,2500.00,250.1,9.996,0.100,8.400,1.000,0.000,0.000,0.000,0.000,9.400,No
 Zone Internal Gains Nominal, SP-WHOLEBUILDING-DORMITORY SYS-3 FLR-3 SCH-G HPLCMT-SOUTH ZN,1875.00,62.5,29.989,3.335E-002,6.600,2.501,0.000,0.000,0.000,0.000,9.101,No
 Zone Internal Gains Nominal, SP-WHOLEBUILDING-EXERCISE CENTRE SYS-6 FLR-2 SCH-B HPLCMT-SOUTH ZN,1875.00,187.6,9.996,0.100,7.000,1.000,0.000,0.000,0.000,0.000,8.000,No
 Zone Internal Gains Nominal, SP-WHOLEBUILDING-FIRE STATION SYS-4 FLR-1 SCH-F HPLCMT-NORTH ZN,1875.00,75.0,24.991,4.001E-002,5.700,2.501,0.000,0.000,0.000,0.000,8.201,No
 Zone Internal Gains Nominal, SP-WHOLEBUILDING-GYMNASIUM SYS-6 FLR-4 SCH-B HPLCMT-WEST ZN,1875.00,187.6,9.996,0.100,7.300,1.000,0.000,0.000,0.000,0.000,8.300,No
 Zone Internal Gains Nominal, SP-WHOLEBUILDING-HEALTH CARE CLINIC SYS-6 FLR-2 SCH-A HPLCMT-CORE ZN,2500.00,125.0,19.993,5.002E-002,8.800,7.503,0.000,0.000,0.000,0.000,16.303,No
 Zone Internal Gains Nominal, SP-WHOLEBUILDING-HOSPITAL SYS-3 FLR-4 SCH-H HPLCMT-EAST ZN,1875.00,93.8,19.993,5.002E-002,11.304,7.503,0.000,0.000,0.000,0.000,18.807,No
 Zone Internal Gains Nominal, SP-WHOLEBUILDING-HOTEL/MOTEL SYS-1 FLR-4 SCH-F HPLCMT-NORTH ZN,1875.00,75.0,24.991,4.001E-002,8.100,2.501,0.000,0.000,0.000,0.000,10.601,No
 Zone Internal Gains Nominal, SP-WHOLEBUILDING-LIBRARY SYS-2 FLR-1 SCH-C HPLCMT-SOUTH ZN,1875.00,93.8,19.993,5.002E-002,8.400,2.501,0.000,0.000,0.000,0.000,10.901,No
 Zone Internal Gains Nominal, SP-WHOLEBUILDING-LONG-TERM CARE - DWELLING UNITS SYS-1 FLR-1 SCH-J HPLCMT-EAST ZN,1875.00,75.0,24.991,4.001E-002,5.502,1.501,0.000,0.000,0.000,0.000,7.003,No
 Zone Internal Gains Nominal, SP-WHOLEBUILDING-LONG-TERM CARE - OTHER SYS-1 FLR-2 SCH-B HPLCMT-WEST ZN,1875.00,75.0,24.991,4.001E-002,5.502,1.501,0.000,0.000,0.000,0.000,7.003,No
 Zone Internal Gains Nominal, SP-WHOLEBUILDING-MANUFACTURING FACILITY SYS-3 FLR-3 SCH-A HPLCMT-WEST ZN,1875.00,62.5,29.989,3.335E-002,9.700,10.004,0.000,0.000,0.000,0.000,19.704,No
 Zone Internal Gains Nominal, SP-WHOLEBUILDING-MOTION PICTURE THEATRE SYS-3 FLR-1 SCH-C HPLCMT-CORE ZN,2500.00,312.6,7.997,0.125,8.900,1.000,0.000,0.000,0.000,0.000,9.900,No
 Zone Internal Gains Nominal, SP-WHOLEBUILDING-MULTI-UNIT RESIDENTIAL BUILDING SYS-1 FLR-2 SCH-G HPLCMT-NORTH ZN,1875.00,75.0,24.991,4.001E-002,7.300,5.002,0.000,0.000,0.000,0.000,12.302,No
 Zone Internal Gains Nominal, SP-WHOLEBUILDING-MUSEUM SYS-2 FLR-2 SCH-C HPLCMT-EAST ZN,1875.00,93.8,19.993,5.002E-002,11.400,2.501,0.000,0.000,0.000,0.000,13.901,No
! <People Internal Gains Nominal>,Name,Schedule Name,Zone Name,Zone Floor Area {m2},# Zone Occupants,Number of People {},People/Floor Area {person/m2},Floor Area per person {m2/person},Fraction Radiant,Fraction Convected,Sensible Fraction Calculation,Activity level,ASHRAE 55 Warnings,Carbon Dioxide Generation Rate,Nominal Minimum Number of People,Nominal Maximum Number of People
 People Internal Gains Nominal, SP-WHOLEBUILDING-AUTOMOTIVE FACILITY SYS-4 FLR-4 SCH-E HPLCMT-SOUTH ZN AUTOMOTIVE FACILITY WHOLEBUILDING PEOPLE,NECB-E-OCCUPANCY,SP-WHOLEBUILDING-AUTOMOTIVE FACILITY SYS-4 FLR-4 SCH-E HPLCMT-SOUTH ZN,1875.00,93.8,93.8,5.002E-002,19.993,0.300,0.700,AutoCalculate,NECB-ACTIVITY,No,3.8200E-008,0,84
 People Internal Gains Nominal, SP-WHOLEBUILDING-CONVENTION CENTRE SYS-3 FLR-3 SCH-C HPLCMT-CORE ZN CONVENTION CENTRE WHOLEBUILDING PEOPLE,NECB-C-OCCUPANCY,SP-WHOLEBUILDING-CONVENTION CENTRE SYS-3 FLR-3 SCH-C HPLCMT-CORE ZN,2500.00,312.6,312.6,0.125,7.997,0.300,0.700,AutoCalculate,NECB-ACTIVITY,No,3.8200E-008,0,281
 People Internal Gains Nominal, SP-WHOLEBUILDING-COURTHOUSE SYS-3 FLR-3 SCH-A HPLCMT-EAST ZN COURTHOUSE WHOLEBUILDING PEOPLE,NECB-A-OCCUPANCY,SP-WHOLEBUILDING-COURTHOUSE SYS-3 FLR-3 SCH-A HPLCMT-EAST ZN,1875.00,125.0,125.0,6.669E-002,14.995,0.300,0.700,AutoCalculate,NECB-ACTIVITY,No,3.8200E-008,0,113
 People Internal Gains Nominal, SP-WHOLEBUILDING-DINING - BAR LOUNGE/LEISURE SYS-3 FLR-3 SCH-B HPLCMT-NORTH ZN DINING - BAR LOUNGE/LEISURE WHOLEBUILDING PEOPLE,NECB-B-OCCUPANCY,SP-WHOLEBUILDING-DINING - BAR LOUNGE/LEISURE SYS-3 FLR-3 SCH-B HPLCMT-NORTH ZN,1875.00,187.6,187.6,0.100,9.996,0.300,0.700,AutoCalculate,NECB-ACTIVITY,No,3.8200E-008,0,169
 People Internal Gains Nominal, SP-WHOLEBUILDING-DINING - CAFETERIA/FAST FOOD SYS-3 FLR-1 SCH-B HPLCMT-WEST ZN DINING - CAFETERIA/FAST FOOD WHOLEBUILDING PEOPLE,NECB-B-OCCUPANCY,SP-WHOLEBUILDING-DINING - CAFETERIA/FAST FOOD SYS-3 FLR-1 SCH-B HPLCMT-WEST ZN,1875.00,187.6,187.6,0.100,9.996,0.300,0.700,AutoCalculate,NECB-ACTIVITY,No,3.8200E-008,0,169
 People Internal Gains Nominal, SP-WHOLEBUILDING-DINING - FAMILY SYS-3 FLR-4 SCH-B HPLCMT-CORE ZN DINING - FAMILY WHOLEBUILDING PEOPLE,NECB-B-OCCUPANCY,SP-WHOLEBUILDING-DINING - FAMILY SYS-3 FLR-4 SCH-B HPLCMT-CORE ZN,2500.00,250.1,250.1,0.100,9.996,0.300,0.700,AutoCalculate,NECB-ACTIVITY,No,3.8200E-008,0,225
 People Internal Gains Nominal, SP-WHOLEBUILDING-DORMITORY SYS-3 FLR-3 SCH-G HPLCMT-SOUTH ZN DORMITORY WHOLEBUILDING PEOPLE,NECB-G-OCCUPANCY,SP-WHOLEBUILDING-DORMITORY SYS-3 FLR-3 SCH-G HPLCMT-SOUTH ZN,1875.00,62.5,62.5,3.335E-002,29.989,0.300,0.700,AutoCalculate,NECB-ACTIVITY,No,3.8200E-008,19,56
 People Internal Gains Nominal, SP-WHOLEBUILDING-EXERCISE CENTRE SYS-6 FLR-2 SCH-B HPLCMT-SOUTH ZN EXERCISE CENTRE WHOLEBUILDING PEOPLE,NECB-B-OCCUPANCY,SP-WHOLEBUILDING-EXERCISE CENTRE SYS-6 FLR-2 SCH-B HPLCMT-SOUTH ZN,1875.00,187.6,187.6,0.100,9.996,0.300,0.700,AutoCalculate,NECB-ACTIVITY,No,3.8200E-008,0,169
 People Internal Gains Nominal, SP-WHOLEBUILDING-FIRE STATION SYS-4 FLR-1 SCH-F HPLCMT-NORTH ZN FIRE STATION WHOLEBUILDING PEOPLE,NECB-F-OCCUPANCY,SP-WHOLEBUILDING-FIRE STATION SYS-4 FLR-1 SCH-F HPLCMT-NORTH ZN,1875.00,75.0,75.0,4.001E-002,24.991,0.300,0.700,AutoCalculate,NECB-ACTIVITY,No,3.8200E-008,11,47
 People Internal Gains Nominal, SP-WHOLEBUILDING-GYMNASIUM SYS-6 FLR-4 SCH-B HPLCMT-WEST ZN GYMNASIUM WHOLEBUILDING PEOPLE,NECB-B-OCCUPANCY,SP-WHOLEBUILDING-GYMNASIUM SYS-6 FLR-4 SCH-B HPLCMT-WEST ZN,1875.00,187.6,187.6,0.100,9.996,0.300,0.700,AutoCalculate,NECB-ACTIVITY,No,3.8200E-008,0,169
 People Internal Gains Nominal, SP-WHOLEBUILDING-HEALTH CARE CLINIC SYS-6 FLR-2 SCH-A HPLCMT-CORE ZN HEALTH CARE CLINIC WHOLEBUILDING PEOPLE,NECB-A-OCCUPANCY,SP-WHOLEBUILDING-HEALTH CARE CLINIC SYS-6 FLR-2 SCH-A HPLCMT-CORE ZN,2500.00,125.0,125.0,5.002E-002,19.993,0.300,0.700,AutoCalculate,NECB-ACTIVITY,No,3.8200E-008,0,113
 People Internal Gains Nominal, SP-WHOLEBUILDING-HOSPITAL SYS-3 FLR-4 SCH-H HPLCMT-EAST ZN HOSPITAL WHOLEBUILDING PEOPLE,NECB-H-OCCUPANCY,SP-WHOLEBUILDING-HOSPITAL SYS-3 FLR-4 SCH-H HPLCMT-EAST ZN,1875.00,93.8,93.8,5.002E-002,19.993,0.300,0.700,AutoCalculate,NECB-ACTIVITY,No,3.8200E-008,84,84
 People Internal Gains Nominal, SP-WHOLEBUILDING-HOTEL/MOTEL SYS-1 FLR-4 SCH-F HPLCMT-NORTH ZN HOTEL/MOTEL WHOLEBUILDING PEOPLE,NECB-F-OCCUPANCY,SP-WHOLEBUILDING-HOTEL/MOTEL SYS-1 FLR-4 SCH-F HPLCMT-NORTH ZN,1875.00,75.0,75.0,4.001E-002,24.991,0.300,0.700,AutoCalculate,NECB-ACTIVITY,No,3.8200E-008,11,47
 People Internal Gains Nominal, SP-WHOLEBUILDING-LIBRARY SYS-2 FLR-1 SCH-C HPLCMT-SOUTH ZN LIBRARY WHOLEBUILDING PEOPLE,NECB-C-OCCUPANCY,SP-WHOLEBUILDING-LIBRARY SYS-2 FLR-1 SCH-C HPLCMT-SOUTH ZN,1875.00,93.8,93.8,5.002E-002,19.993,0.300,0.700,AutoCalculate,NECB-ACTIVITY,No,3.8200E-008,0,84
 People Internal Gains Nominal, SP-WHOLEBUILDING-LONG-TERM CARE - DWELLING UNITS SYS-1 FLR-1 SCH-J HPLCMT-EAST ZN LONG-TERM CARE - DWELLING UNITS WHOLEBUILDING PEOPLE,NECB-J-OCCUPANCY,SP-WHOLEBUILDING-LONG-TERM CARE - DWELLING UNITS SYS-1 FLR-1 SCH-J HPLCMT-EAST ZN,1875.00,75.0,75.0,4.001E-002,24.991,0.300,0.700,AutoCalculate,NECB-ACTIVITY,No,3.8200E-008,45,68
 People Internal Gains Nominal, SP-WHOLEBUILDING-LONG-TERM CARE - OTHER SYS-1 FLR-2 SCH-B HPLCMT-WEST ZN LONG-TERM CARE - OTHER WHOLEBUILDING PEOPLE,NECB-B-OCCUPANCY,SP-WHOLEBUILDING-LONG-TERM CARE - OTHER SYS-1 FLR-2 SCH-B HPLCMT-WEST ZN,1875.00,75.0,75.0,4.001E-002,24.991,0.300,0.700,AutoCalculate,NECB-ACTIVITY,No,3.8200E-008,0,68
 People Internal Gains Nominal, SP-WHOLEBUILDING-MANUFACTURING FACILITY SYS-3 FLR-3 SCH-A HPLCMT-WEST ZN MANUFACTURING FACILITY WHOLEBUILDING PEOPLE,NECB-A-OCCUPANCY,SP-WHOLEBUILDING-MANUFACTURING FACILITY SYS-3 FLR-3 SCH-A HPLCMT-WEST ZN,1875.00,62.5,62.5,3.335E-002,29.989,0.300,0.700,AutoCalculate,NECB-ACTIVITY,No,3.8200E-008,0,56
 People Internal Gains Nominal, SP-WHOLEBUILDING-MOTION PICTURE THEATRE SYS-3 FLR-1 SCH-C HPLCMT-CORE ZN MOTION PICTURE THEATRE WHOLEBUILDING PEOPLE,NECB-C-OCCUPANCY,SP-WHOLEBUILDING-MOTION PICTURE THEATRE SYS-3 FLR-1 SCH-C HPLCMT-CORE ZN,2500.00,312.6,312.6,0.125,7.997,0.300,0.700,AutoCalculate,NECB-ACTIVITY,No,3.8200E-008,0,281
 People Internal Gains Nominal, SP-WHOLEBUILDING-MULTI-UNIT RESIDENTIAL BUILDING SYS-1 FLR-2 SCH-G HPLCMT-NORTH ZN MULTI-UNIT RESIDENTIAL BUILDING WHOLEBUILDING PEOPLE,NECB-G-OCCUPANCY,SP-WHOLEBUILDING-MULTI-UNIT RESIDENTIAL BUILDING SYS-1 FLR-2 SCH-G HPLCMT-NORTH ZN,1875.00,75.0,75.0,4.001E-002,24.991,0.300,0.700,AutoCalculate,NECB-ACTIVITY,No,3.8200E-008,23,68
 People Internal Gains Nominal, SP-WHOLEBUILDING-MUSEUM SYS-2 FLR-2 SCH-C HPLCMT-EAST ZN MUSEUM WHOLEBUILDING PEOPLE,NECB-C-OCCUPANCY,SP-WHOLEBUILDING-MUSEUM SYS-2 FLR-2 SCH-C HPLCMT-EAST ZN,1875.00,93.8,93.8,5.002E-002,19.993,0.300,0.700,AutoCalculate,NECB-ACTIVITY,No,3.8200E-008,0,84
! <Lights Internal Gains Nominal>,Name,Schedule Name,Zone Name,Zone Floor Area {m2},# Zone Occupants,Lighting Level {W},Lights/Floor Area {W/m2},Lights per person {W/person},Fraction Return Air,Fraction Radiant,Fraction Short Wave,Fraction Convected,Fraction Replaceable,End-Use Category,Nominal Minimum Lighting Level {W},Nominal Maximum Lighting Level {W}
 Lights Internal Gains Nominal, SP-WHOLEBUILDING-AUTOMOTIVE FACILITY SYS-4 FLR-4 SCH-E HPLCMT-SOUTH ZN AUTOMOTIVE FACILITY WHOLEBUILDING LIGHTS,NECB-E-LIGHTING,SP-WHOLEBUILDING-AUTOMOTIVE FACILITY SYS-4 FLR-4 SCH-E HPLCMT-SOUTH ZN,1875.00,93.8,14249.877,7.600,151.943,0.000,0.500,0.200,0.300,1.000,General,712.494,12824.889
 Lights Internal Gains Nominal, SP-WHOLEBUILDING-CONVENTION CENTRE SYS-3 FLR-3 SCH-C HPLCMT-CORE ZN CONVENTION CENTRE WHOLEBUILDING LIGHTS,NECB-C-LIGHTING,SP-WHOLEBUILDING-CONVENTION CENTRE SYS-3 FLR-3 SCH-C HPLCMT-CORE ZN,2500.00,312.6,20499.840,8.200,65.576,0.000,0.500,0.200,0.300,1.000,General,1024.992,18449.856
 Lights Internal Gains Nominal, SP-WHOLEBUILDING-COURTHOUSE SYS-3 FLR-3 SCH-A HPLCMT-EAST ZN COURTHOUSE WHOLEBUILDING LIGHTS,NECB-A-OCCUPANCY-NECB-A-LIGHTING-0.0-0.0-0.0-LIGHT RULESET,SP-WHOLEBUILDING-COURTHOUSE SYS-3 FLR-3 SCH-A HPLCMT-EAST ZN,1875.00,125.0,18187.349,9.700,145.446,0.000,0.500,0.200,0.300,1.000,General,909.367,16368.614
 Lights Internal Gains Nominal, SP-WHOLEBUILDING-DINING - BAR LOUNGE/LEISURE SYS-3 FLR-3 SCH-B HPLCMT-NORTH ZN DINING - BAR LOUNGE/LEISURE WHOLEBUILDING LIGHTS,NECB-B-OCCUPANCY-NECB-B-LIGHTING-0.0-0.0-0.0-LIGHT RULESET,SP-WHOLEBUILDING-DINING - BAR LOUNGE/LEISURE SYS-3 FLR-3 SCH-B HPLCMT-NORTH ZN,1875.00,187.6,18187.349,9.700,96.964,0.000,0.500,0.200,0.300,1.000,General,1818.735,16368.614
 Lights Internal Gains Nominal, SP-WHOLEBUILDING-DINING - CAFETERIA/FAST FOOD SYS-3 FLR-1 SCH-B HPLCMT-WEST ZN DINING - CAFETERIA/FAST FOOD WHOLEBUILDING LIGHTS,NECB-B-LIGHTING,SP-WHOLEBUILDING-DINING - CAFETERIA/FAST FOOD SYS-3 FLR-1 SCH-B HPLCMT-WEST ZN,1875.00,187.6,15937.362,8.500,84.968,0.000,0.500,0.200,0.300,1.000,General,1593.736,14343.626
 Lights Internal Gains Nominal, SP-WHOLEBUILDING-DINING - FAMILY SYS-3 FLR-4 SCH-B HPLCMT-CORE ZN DINING - FAMILY WHOLEBUILDING LIGHTS,NECB-B-LIGHTING,SP-WHOLEBUILDING-DINING - FAMILY SYS-3 FLR-4 SCH-B HPLCMT-CORE ZN,2500.00,250.1,20999.824,8.400,83.969,0.000,0.500,0.200,0.300,1.000,General,2099.982,18899.842
 Lights Internal Gains Nominal, SP-WHOLEBUILDING-DORMITORY SYS-3 FLR-3 SCH-G HPLCMT-SOUTH ZN DORMITORY WHOLEBUILDING LIGHTS,NECB-G-LIGHTING,SP-WHOLEBUILDING-DORMITORY SYS-3 FLR-3 SCH-G HPLCMT-SOUTH ZN,1875.00,62.5,12374.898,6.600,197.926,0.000,0.500,0.200,0.300,1.000,General,0.000,11137.408
 Lights Internal Gains Nominal, SP-WHOLEBUILDING-EXERCISE CENTRE SYS-6 FLR-2 SCH-B HPLCMT-SOUTH ZN EXERCISE CENTRE WHOLEBUILDING LIGHTS,NECB-B-LIGHTING,SP-WHOLEBUILDING-EXERCISE CENTRE SYS-6 FLR-2 SCH-B HPLCMT-SOUTH ZN,1875.00,187.6,13124.893,7.000,69.974,0.000,0.500,0.200,0.300,1.000,General,1312.489,11812.404
 Lights Internal Gains Nominal, SP-WHOLEBUILDING-FIRE STATION SYS-4 FLR-1 SCH-F HPLCMT-NORTH ZN FIRE STATION WHOLEBUILDING LIGHTS,NECB-F-LIGHTING,SP-WHOLEBUILDING-FIRE STATION SYS-4 FLR-1 SCH-F HPLCMT-NORTH ZN,1875.00,75.0,10687.413,5.700,142.447,0.000,0.500,0.200,0.300,1.000,General,748.119,6733.070
 Lights Internal Gains Nominal, SP-WHOLEBUILDING-GYMNASIUM SYS-6 FLR-4 SCH-B HPLCMT-WEST ZN GYMNASIUM WHOLEBUILDING LIGHTS,NECB-B-LIGHTING,SP-WHOLEBUILDING-GYMNASIUM SYS-6 FLR-4 SCH-B HPLCMT-WEST ZN,1875.00,187.6,13687.395,7.300,72.973,0.000,0.500,0.200,0.300,1.000,General,1368.740,12318.656
 Lights Internal Gains Nominal, SP-WHOLEBUILDING-HEALTH CARE CLINIC SYS-6 FLR-2 SCH-A HPLCMT-CORE ZN HEALTH CARE CLINIC WHOLEBUILDING LIGHTS,NECB-A-OCCUPANCY-NECB-A-LIGHTING-0.0-0.0-0.0-LIGHT RULESET,SP-WHOLEBUILDING-HEALTH CARE CLINIC SYS-6 FLR-2 SCH-A HPLCMT-CORE ZN,2500.00,125.0,21999.818,8.800,175.935,0.000,0.500,0.200,0.300,1.000,General,1099.991,19799.836
 Lights Internal Gains Nominal, SP-WHOLEBUILDING-HOSPITAL SYS-3 FLR-4 SCH-H HPLCMT-EAST ZN HOSPITAL WHOLEBUILDING LIGHTS,NECB-H-OCCUPANCY-NECB-H-LIGHTING-0.0-0.0-0.0-LIGHT RULESET,SP-WHOLEBUILDING-HOSPITAL SYS-3 FLR-4 SCH-H HPLCMT-EAST ZN,1875.00,93.8,21195.200,11.304,226.000,0.000,0.500,0.200,0.300,1.000,General,19075.680,19075.680
 Lights Internal Gains Nominal, SP-WHOLEBUILDING-HOTEL/MOTEL SYS-1 FLR-4 SCH-F HPLCMT-NORTH ZN HOTEL/MOTEL WHOLEBUILDING LIGHTS,NECB-F-LIGHTING,SP-WHOLEBUILDING-HOTEL/MOTEL SYS-1 FLR-4 SCH-F HPLCMT-NORTH ZN,1875.00,75.0,15187.366,8.100,202.425,0.000,0.500,0.200,0.300,1.000,General,1063.116,9568.041
 Lights Internal Gains Nominal, SP-WHOLEBUILDING-LIBRARY SYS-2 FLR-1 SCH-C HPLCMT-SOUTH ZN LIBRARY WHOLEBUILDING LIGHTS,NECB-C-LIGHTING,SP-WHOLEBUILDING-LIBRARY SYS-2 FLR-1 SCH-C HPLCMT-SOUTH ZN,1875.00,93.8,15749.868,8.400,167.938,0.000,0.500,0.200,0.300,1.000,General,787.493,14174.881
 Lights Internal Gains Nominal, SP-WHOLEBUILDING-LONG-TERM CARE - DWELLING UNITS SYS-1 FLR-1 SCH-J HPLCMT-EAST ZN LONG-TERM CARE - DWELLING UNITS WHOLEBUILDING LIGHTS,NECB-J-LIGHTING,SP-WHOLEBUILDING-LONG-TERM CARE - DWELLING UNITS SYS-1 FLR-1 SCH-J HPLCMT-EAST ZN,1875.00,75.0,10316.248,5.502,137.500,0.000,0.500,0.200,0.300,1.000,General,1031.625,7221.373
 Lights Internal Gains Nominal, SP-WHOLEBUILDING-LONG-TERM CARE - OTHER SYS-1 FLR-2 SCH-B HPLCMT-WEST ZN LONG-TERM CARE - OTHER WHOLEBUILDING LIGHTS,NECB-B-LIGHTING,SP-WHOLEBUILDING-LONG-TERM CARE - OTHER SYS-1 FLR-2 SCH-B HPLCMT-WEST ZN,1875.00,75.0,10316.248,5.502,137.500,0.000,0.500,0.200,0.300,1.000,General,1031.625,9284.623
 Lights Internal Gains Nominal, SP-WHOLEBUILDING-MANUFACTURING FACILITY SYS-3 FLR-3 SCH-A HPLCMT-WEST ZN MANUFACTURING FACILITY WHOLEBUILDING LIGHTS,NECB-A-OCCUPANCY-NECB-A-LIGHTING-0.0-0.0-0.0-LIGHT RULESET,SP-WHOLEBUILDING-MANUFACTURING FACILITY SYS-3 FLR-3 SCH-A HPLCMT-WEST ZN,1875.00,62.5,18187.349,9.700,290.892,0.000,0.500,0.200,0.300,1.000,General,909.367,16368.614
 Lights Internal Gains Nominal, SP-WHOLEBUILDING-MOTION PICTURE THEATRE SYS-3 FLR-1 SCH-C HPLCMT-CORE ZN MOTION PICTURE THEATRE WHOLEBUILDING LIGHTS,NECB-C-OCCUPANCY-NECB-C-LIGHTING-0.0-0.0-0.0-LIGHT RULESET,SP-WHOLEBUILDING-MOTION PICTURE THEATRE SYS-3 FLR-1 SCH-C HPLCMT-CORE ZN,2500.00,312.6,22249.810,8.900,71.174,0.000,0.500,0.200,0.300,1.000,General,1112.491,20024.829
 Lights Internal Gains Nominal, SP-WHOLEBUILDING-MULTI-UNIT RESIDENTIAL BUILDING SYS-1 FLR-2 SCH-G HPLCMT-NORTH ZN MULTI-UNIT RESIDENTIAL BUILDING WHOLEBUILDING LIGHTS,NECB-G-LIGHTING,SP-WHOLEBUILDING-MULTI-UNIT RESIDENTIAL BUILDING SYS-1 FLR-2 SCH-G HPLCMT-NORTH ZN,1875.00,75.0,13687.395,7.300,182.432,0.000,0.500,0.200,0.300,1.000,General,0.000,12318.656
 Lights Internal Gains Nominal, SP-WHOLEBUILDING-MUSEUM SYS-2 FLR-2 SCH-C HPLCMT-EAST ZN MUSEUM WHOLEBUILDING LIGHTS,NECB-C-OCCUPANCY-NECB-C-LIGHTING-0.0-0.0-0.0-LIGHT RULESET,SP-WHOLEBUILDING-MUSEUM SYS-2 FLR-2 SCH-C HPLCMT-EAST ZN,1875.00,93.8,21374.825,11.400,227.915,0.000,0.500,0.200,0.300,1.000,General,1068.741,19237.343
! <ElectricEquipment Internal Gains Nominal>,Name,Schedule Name,Zone Name,Zone Floor Area {m2},# Zone Occupants,Equipment Level {W},Equipment/Floor Area {W/m2},Equipment per person {W/person},Fraction Latent,Fraction Radiant,Fraction Lost,Fraction Convected,End-Use SubCategory,Nominal Minimum Equipment Level {W},Nominal Maximum Equipment Level {W}
 ElectricEquipment Internal Gains Nominal, SP-WHOLEBUILDING-AUTOMOTIVE FACILITY SYS-4 FLR-4 SCH-E HPLCMT-SOUTH ZN AUTOMOTIVE FACILITY WHOLEBUILDING ELEC EQUIP,NECB-E-ELECTRIC-EQUIPMENT,SP-WHOLEBUILDING-AUTOMOTIVE FACILITY SYS-4 FLR-4 SCH-E HPLCMT-SOUTH ZN,1875.00,93.8,9378.407,5.002,100.000,0.000,0.500,0.000,0.500,General,468.920,8440.566
 ElectricEquipment Internal Gains Nominal, SP-WHOLEBUILDING-CONVENTION CENTRE SYS-3 FLR-3 SCH-C HPLCMT-CORE ZN CONVENTION CENTRE WHOLEBUILDING ELEC EQUIP,NECB-C-ELECTRIC-EQUIPMENT,SP-WHOLEBUILDING-CONVENTION CENTRE SYS-3 FLR-3 SCH-C HPLCMT-CORE ZN,2500.00,312.6,6252.271,2.501,20.000,0.000,0.500,0.000,0.500,General,312.614,5627.044
 ElectricEquipment Internal Gains Nominal, SP-WHOLEBUILDING-COURTHOUSE SYS-3 FLR-3 SCH-A HPLCMT-EAST ZN COURTHOUSE WHOLEBUILDING ELEC EQUIP,NECB-A-ELECTRIC-EQUIPMENT,SP-WHOLEBUILDING-COURTHOUSE SYS-3 FLR-3 SCH-A HPLCMT-EAST ZN,1875.00,125.0,9378.407,5.002,75.000,0.000,0.500,0.000,0.500,General,1875.681,8440.566
 ElectricEquipment Internal Gains Nominal, SP-WHOLEBUILDING-DINING - BAR LOUNGE/LEISURE SYS-3 FLR-3 SCH-B HPLCMT-NORTH ZN DINING - BAR LOUNGE/LEISURE WHOLEBUILDING ELEC EQUIP,NECB-B-ELECTRIC-EQUIPMENT,SP-WHOLEBUILDING-DINING - BAR LOUNGE/LEISURE SYS-3 FLR-3 SCH-B HPLCMT-NORTH ZN,1875.00,187.6,1875.681,1.000,10.000,0.000,0.500,0.000,0.500,General,187.568,1688.113
 ElectricEquipment Internal Gains Nominal, SP-WHOLEBUILDING-DINING - CAFETERIA/FAST FOOD SYS-3 FLR-1 SCH-B HPLCMT-WEST ZN DINING - CAFETERIA/FAST FOOD WHOLEBUILDING ELEC EQUIP,NECB-B-ELECTRIC-EQUIPMENT,SP-WHOLEBUILDING-DINING - CAFETERIA/FAST FOOD SYS-3 FLR-1 SCH-B HPLCMT-WEST ZN,1875.00,187.6,1875.681,1.000,10.000,0.000,0.500,0.000,0.500,General,187.568,1688.113
 ElectricEquipment Internal Gains Nominal, SP-WHOLEBUILDING-DINING - FAMILY SYS-3 FLR-4 SCH-B HPLCMT-CORE ZN DINING - FAMILY WHOLEBUILDING ELEC EQUIP,NECB-B-ELECTRIC-EQUIPMENT,SP-WHOLEBUILDING-DINING - FAMILY SYS-3 FLR-4 SCH-B HPLCMT-CORE ZN,2500.00,250.1,2500.909,1.000,10.000,0.000,0.500,0.000,0.500,General,250.091,2250.818
 ElectricEquipment Internal Gains Nominal, SP-WHOLEBUILDING-DORMITORY SYS-3 FLR-3 SCH-G HPLCMT-SOUTH ZN DORMITORY WHOLEBUILDING ELEC EQUIP,NECB-G-ELECTRIC-EQUIPMENT,SP-WHOLEBUILDING-DORMITORY SYS-3 FLR-3 SCH-G HPLCMT-SOUTH ZN,1875.00,62.5,4689.204,2.501,75.000,0.000,0.500,0.000,0.500,General,937.841,4220.283
 ElectricEquipment Internal Gains Nominal, SP-WHOLEBUILDING-EXERCISE CENTRE SYS-6 FLR-2 SCH-B HPLCMT-SOUTH ZN EXERCISE CENTRE WHOLEBUILDING ELEC EQUIP,NECB-B-ELECTRIC-EQUIPMENT,SP-WHOLEBUILDING-EXERCISE CENTRE SYS-6 FLR-2 SCH-B HPLCMT-SOUTH ZN,1875.00,187.6,1875.681,1.000,10.000,0.000,0.500,0.000,0.500,General,187.568,1688.113
 ElectricEquipment Internal Gains Nominal, SP-WHOLEBUILDING-FIRE STATION SYS-4 FLR-1 SCH-F HPLCMT-NORTH ZN FIRE STATION WHOLEBUILDING ELEC EQUIP,NECB-F-ELECTRIC-EQUIPMENT,SP-WHOLEBUILDING-FIRE STATION SYS-4 FLR-1 SCH-F HPLCMT-NORTH ZN,1875.00,75.0,4689.204,2.501,62.500,0.000,0.500,0.000,0.500,General,328.244,2954.198
 ElectricEquipment Internal Gains Nominal, SP-WHOLEBUILDING-GYMNASIUM SYS-6 FLR-4 SCH-B HPLCMT-WEST ZN GYMNASIUM WHOLEBUILDING ELEC EQUIP,NECB-B-ELECTRIC-EQUIPMENT,SP-WHOLEBUILDING-GYMNASIUM SYS-6 FLR-4 SCH-B HPLCMT-WEST ZN,1875.00,187.6,1875.681,1.000,10.000,0.000,0.500,0.000,0.500,General,187.568,1688.113
 ElectricEquipment Internal Gains Nominal, SP-WHOLEBUILDING-HEALTH CARE CLINIC SYS-6 FLR-2 SCH-A HPLCMT-CORE ZN HEALTH CARE CLINIC WHOLEBUILDING ELEC EQUIP,NECB-A-ELECTRIC-EQUIPMENT,SP-WHOLEBUILDING-HEALTH CARE CLINIC SYS-6 FLR-2 SCH-A HPLCMT-CORE ZN,2500.00,125.0,18756.814,7.503,150.000,0.000,0.500,0.000,0.500,General,3751.363,16881.133
 ElectricEquipment Internal Gains Nominal, SP-WHOLEBUILDING-HOSPITAL SYS-3 FLR-4 SCH-H HPLCMT-EAST ZN HOSPITAL WHOLEBUILDING ELEC EQUIP,NECB-H-ELECTRIC-EQUIPMENT,SP-WHOLEBUILDING-HOSPITAL SYS-3 FLR-4 SCH-H HPLCMT-EAST ZN,1875.00,93.8,14067.611,7.503,150.000,0.000,0.500,0.000,0.500,General,12660.850,12660.850
 ElectricEquipment Internal Gains Nominal, SP-WHOLEBUILDING-HOTEL/MOTEL SYS-1 FLR-4 SCH-F HPLCMT-NORTH ZN HOTEL/MOTEL WHOLEBUILDING ELEC EQUIP,NECB-F-ELECTRIC-EQUIPMENT,SP-WHOLEBUILDING-HOTEL/MOTEL SYS-1 FLR-4 SCH-F HPLCMT-NORTH ZN,1875.00,75.0,4689.204,2.501,62.500,0.000,0.500,0.000,0.500,General,328.244,2954.198
 ElectricEquipment Internal Gains Nominal, SP-WHOLEBUILDING-LIBRARY SYS-2 FLR-1 SCH-C HPLCMT-SOUTH ZN LIBRARY WHOLEBUILDING ELEC EQUIP,NECB-C-ELECTRIC-EQUIPMENT,SP-WHOLEBUILDING-LIBRARY SYS-2 FLR-1 SCH-C HPLCMT-SOUTH ZN,1875.00,93.8,4689.204,2.501,50.000,0.000,0.500,0.000,0.500,General,234.460,4220.283
 ElectricEquipment Internal Gains Nominal, SP-WHOLEBUILDING-LONG-TERM CARE - DWELLING UNITS SYS-1 FLR-1 SCH-J HPLCMT-EAST ZN LONG-TERM CARE - DWELLING UNITS WHOLEBUILDING ELEC EQUIP,NECB-J-ELECTRIC-EQUIPMENT,SP-WHOLEBUILDING-LONG-TERM CARE - DWELLING UNITS SYS-1 FLR-1 SCH-J HPLCMT-EAST ZN,1875.00,75.0,2813.522,1.501,37.500,0.000,0.500,0.000,0.500,General,281.352,1969.465
 ElectricEquipment Internal Gains Nominal, SP-WHOLEBUILDING-LONG-TERM CARE - OTHER SYS-1 FLR-2 SCH-B HPLCMT-WEST ZN LONG-TERM CARE - OTHER WHOLEBUILDING ELEC EQUIP,NECB-B-ELECTRIC-EQUIPMENT,SP-WHOLEBUILDING-LONG-TERM CARE - OTHER SYS-1 FLR-2 SCH-B HPLCMT-WEST ZN,1875.00,75.0,2813.522,1.501,37.500,0.000,0.500,0.000,0.500,General,281.352,2532.170
 ElectricEquipment Internal Gains Nominal, SP-WHOLEBUILDING-MANUFACTURING FACILITY SYS-3 FLR-3 SCH-A HPLCMT-WEST ZN MANUFACTURING FACILITY WHOLEBUILDING ELEC EQUIP,NECB-A-ELECTRIC-EQUIPMENT,SP-WHOLEBUILDING-MANUFACTURING FACILITY SYS-3 FLR-3 SCH-A HPLCMT-WEST ZN,1875.00,62.5,18756.814,10.004,300.000,0.000,0.500,0.000,0.500,General,3751.363,16881.133
 ElectricEquipment Internal Gains Nominal, SP-WHOLEBUILDING-MOTION PICTURE THEATRE SYS-3 FLR-1 SCH-C HPLCMT-CORE ZN MOTION PICTURE THEATRE WHOLEBUILDING ELEC EQUIP,NECB-C-ELECTRIC-EQUIPMENT,SP-WHOLEBUILDING-MOTION PICTURE THEATRE SYS-3 FLR-1 SCH-C HPLCMT-CORE ZN,2500.00,312.6,2500.909,1.000,8.000,0.000,0.500,0.000,0.500,General,125.045,2250.818
 ElectricEquipment Internal Gains Nominal, SP-WHOLEBUILDING-MULTI-UNIT RESIDENTIAL BUILDING SYS-1 FLR-2 SCH-G HPLCMT-NORTH ZN MULTI-UNIT RESIDENTIAL BUILDING WHOLEBUILDING ELEC EQUIP,NECB-G-ELECTRIC-EQUIPMENT,SP-WHOLEBUILDING-MULTI-UNIT RESIDENTIAL BUILDING SYS-1 FLR-2 SCH-G HPLCMT-NORTH ZN,1875.00,75.0,9378.407,5.002,125.000,0.000,0.500,0.000,0.500,General,1875.681,8440.566
 ElectricEquipment Internal Gains Nominal, SP-WHOLEBUILDING-MUSEUM SYS-2 FLR-2 SCH-C HPLCMT-EAST ZN MUSEUM WHOLEBUILDING ELEC EQUIP,NECB-C-ELECTRIC-EQUIPMENT,SP-WHOLEBUILDING-MUSEUM SYS-2 FLR-2 SCH-C HPLCMT-EAST ZN,1875.00,93.8,4689.204,2.501,50.000,0.000,0.500,0.000,0.500,General,234.460,4220.283
! <Shadowing/Sun Position Calculations Annual Simulations>, Calculation Method, Value {days}, Allowable Number Figures in Shadow Overlap {}, Polygon Clipping Algorithm, Sky Diffuse Modeling Algorithm, External Shading Calculation Method, Output External Shading Calculation Results, Disable Self-Shading Within Shading Zone Groups, Disable Self-Shading From Shading Zone Groups to Other Zones
Shadowing/Sun Position Calculations Annual Simulations,AverageOverDaysInFrequency,20,15000,SutherlandHodgman,SimpleSkyDiffuseModeling,InternalCalculation,No,No,No
! <Water Heater Information>,Type,Name,Volume {m3},Maximum Capacity {W},Standard Rated Recovery Efficiency, Standard Rated Energy Factor
! <ZoneInfiltration Airflow Stats Nominal>,Name,Schedule Name,Zone Name, Zone Floor Area {m2}, # Zone Occupants,Design Volume Flow Rate {m3/s},Volume Flow Rate/Floor Area {m3/s/m2},Volume Flow Rate/Exterior Surface Area {m3/s/m2},ACH - Air Changes per Hour,Equation A - Constant Term Coefficient {},Equation B - Temperature Term Coefficient {1/C},Equation C - Velocity Term Coefficient {s/m}, Equation D - Velocity Squared Term Coefficient {s2/m2}
 ZoneInfiltration Airflow Stats Nominal, WHOLEBUILDING-AUTOMOTIVE FACILITY INFILTRATION,ALWAYS ON DISCRETE,SP-WHOLEBUILDING-AUTOMOTIVE FACILITY SYS-4 FLR-4 SCH-E HPLCMT-SOUTH ZN,1875.00,93.8,0.564,3.007E-004,2.500E-004,0.285,0.000,0.000,0.224,0.000
 ZoneInfiltration Airflow Stats Nominal, WHOLEBUILDING-COURTHOUSE INFILTRATION,ALWAYS ON DISCRETE,SP-WHOLEBUILDING-COURTHOUSE SYS-3 FLR-3 SCH-A HPLCMT-EAST ZN,1875.00,125.0,9.500E-002,5.067E-005,2.500E-004,4.800E-002,0.000,0.000,0.224,0.000
 ZoneInfiltration Airflow Stats Nominal, WHOLEBUILDING-DINING - BAR LOUNGE/LEISURE INFILTRATION,ALWAYS ON DISCRETE,SP-WHOLEBUILDING-DINING - BAR LOUNGE/LEISURE SYS-3 FLR-3 SCH-B HPLCMT-NORTH ZN,1875.00,187.6,9.500E-002,5.067E-005,2.500E-004,4.800E-002,0.000,0.000,0.224,0.000
 ZoneInfiltration Airflow Stats Nominal, WHOLEBUILDING-DINING - FAMILY INFILTRATION,ALWAYS ON DISCRETE,SP-WHOLEBUILDING-DINING - FAMILY SYS-3 FLR-4 SCH-B HPLCMT-CORE ZN,2500.00,250.1,0.625,2.500E-004,2.500E-004,0.237,0.000,0.000,0.224,0.000
 ZoneInfiltration Airflow Stats Nominal, WHOLEBUILDING-DORMITORY INFILTRATION,ALWAYS ON DISCRETE,SP-WHOLEBUILDING-DORMITORY SYS-3 FLR-3 SCH-G HPLCMT-SOUTH ZN,1875.00,62.5,9.500E-002,5.067E-005,2.500E-004,4.800E-002,0.000,0.000,0.224,0.000
 ZoneInfiltration Airflow Stats Nominal, WHOLEBUILDING-EXERCISE CENTRE INFILTRATION,ALWAYS ON DISCRETE,SP-WHOLEBUILDING-EXERCISE CENTRE SYS-6 FLR-2 SCH-B HPLCMT-SOUTH ZN,1875.00,187.6,9.500E-002,5.067E-005,2.500E-004,4.800E-002,0.000,0.000,0.224,0.000
 ZoneInfiltration Airflow Stats Nominal, WHOLEBUILDING-GYMNASIUM INFILTRATION,ALWAYS ON DISCRETE,SP-WHOLEBUILDING-GYMNASIUM SYS-6 FLR-4 SCH-B HPLCMT-WEST ZN,1875.00,187.6,0.564,3.007E-004,2.500E-004,0.285,0.000,0.000,0.224,0.000
 ZoneInfiltration Airflow Stats Nominal, WHOLEBUILDING-HOSPITAL INFILTRATION,ALWAYS ON DISCRETE,SP-WHOLEBUILDING-HOSPITAL SYS-3 FLR-4 SCH-H HPLCMT-EAST ZN,1875.00,93.8,0.564,3.007E-004,2.500E-004,0.285,0.000,0.000,0.224,0.000
 ZoneInfiltration Airflow Stats Nominal, WHOLEBUILDING-HOTEL/MOTEL INFILTRATION,ALWAYS ON DISCRETE,SP-WHOLEBUILDING-HOTEL/MOTEL SYS-1 FLR-4 SCH-F HPLCMT-NORTH ZN,1875.00,75.0,0.564,3.007E-004,2.500E-004,0.285,0.000,0.000,0.224,0.000
 ZoneInfiltration Airflow Stats Nominal, WHOLEBUILDING-LONG-TERM CARE - OTHER INFILTRATION,ALWAYS ON DISCRETE,SP-WHOLEBUILDING-LONG-TERM CARE - OTHER SYS-1 FLR-2 SCH-B HPLCMT-WEST ZN,1875.00,75.0,9.500E-002,5.067E-005,2.500E-004,4.800E-002,0.000,0.000,0.224,0.000
 ZoneInfiltration Airflow Stats Nominal, WHOLEBUILDING-MANUFACTURING FACILITY INFILTRATION,ALWAYS ON DISCRETE,SP-WHOLEBUILDING-MANUFACTURING FACILITY SYS-3 FLR-3 SCH-A HPLCMT-WEST ZN,1875.00,62.5,9.500E-002,5.067E-005,2.500E-004,4.800E-002,0.000,0.000,0.224,0.000
 ZoneInfiltration Airflow Stats Nominal, WHOLEBUILDING-MULTI-UNIT RESIDENTIAL BUILDING INFILTRATION,ALWAYS ON DISCRETE,SP-WHOLEBUILDING-MULTI-UNIT RESIDENTIAL BUILDING SYS-1 FLR-2 SCH-G HPLCMT-NORTH ZN,1875.00,75.0,9.500E-002,5.067E-005,2.500E-004,4.800E-002,0.000,0.000,0.224,0.000
 ZoneInfiltration Airflow Stats Nominal, WHOLEBUILDING-MUSEUM INFILTRATION,ALWAYS ON DISCRETE,SP-WHOLEBUILDING-MUSEUM SYS-2 FLR-2 SCH-C HPLCMT-EAST ZN,1875.00,93.8,9.500E-002,5.067E-005,2.500E-004,4.800E-002,0.000,0.000,0.224,0.000
! <AirFlow Model>, Simple
 AirFlow Model, Simple
! <RoomAir Model>, Zone Name, Mixing/Mundt/UCSDDV/UCSDCV/UCSDUFI/UCSDUFE/User Defined
RoomAir Model,SP-WHOLEBUILDING-AUTOMOTIVE FACILITY SYS-4 FLR-4 SCH-E HPLCMT-SOUTH ZN,Mixing/Well-Stirred
RoomAir Model,SP-WHOLEBUILDING-CONVENTION CENTRE SYS-3 FLR-3 SCH-C HPLCMT-CORE ZN,Mixing/Well-Stirred
RoomAir Model,SP-WHOLEBUILDING-COURTHOUSE SYS-3 FLR-3 SCH-A HPLCMT-EAST ZN,Mixing/Well-Stirred
RoomAir Model,SP-WHOLEBUILDING-DINING - BAR LOUNGE/LEISURE SYS-3 FLR-3 SCH-B HPLCMT-NORTH ZN,Mixing/Well-Stirred
RoomAir Model,SP-WHOLEBUILDING-DINING - CAFETERIA/FAST FOOD SYS-3 FLR-1 SCH-B HPLCMT-WEST ZN,Mixing/Well-Stirred
RoomAir Model,SP-WHOLEBUILDING-DINING - FAMILY SYS-3 FLR-4 SCH-B HPLCMT-CORE ZN,Mixing/Well-Stirred
RoomAir Model,SP-WHOLEBUILDING-DORMITORY SYS-3 FLR-3 SCH-G HPLCMT-SOUTH ZN,Mixing/Well-Stirred
RoomAir Model,SP-WHOLEBUILDING-EXERCISE CENTRE SYS-6 FLR-2 SCH-B HPLCMT-SOUTH ZN,Mixing/Well-Stirred
RoomAir Model,SP-WHOLEBUILDING-FIRE STATION SYS-4 FLR-1 SCH-F HPLCMT-NORTH ZN,Mixing/Well-Stirred
RoomAir Model,SP-WHOLEBUILDING-GYMNASIUM SYS-6 FLR-4 SCH-B HPLCMT-WEST ZN,Mixing/Well-Stirred
RoomAir Model,SP-WHOLEBUILDING-HEALTH CARE CLINIC SYS-6 FLR-2 SCH-A HPLCMT-CORE ZN,Mixing/Well-Stirred
RoomAir Model,SP-WHOLEBUILDING-HOSPITAL SYS-3 FLR-4 SCH-H HPLCMT-EAST ZN,Mixing/Well-Stirred
RoomAir Model,SP-WHOLEBUILDING-HOTEL/MOTEL SYS-1 FLR-4 SCH-F HPLCMT-NORTH ZN,Mixing/Well-Stirred
RoomAir Model,SP-WHOLEBUILDING-LIBRARY SYS-2 FLR-1 SCH-C HPLCMT-SOUTH ZN,Mixing/Well-Stirred
RoomAir Model,SP-WHOLEBUILDING-LONG-TERM CARE - DWELLING UNITS SYS-1 FLR-1 SCH-J HPLCMT-EAST ZN,Mixing/Well-Stirred
RoomAir Model,SP-WHOLEBUILDING-LONG-TERM CARE - OTHER SYS-1 FLR-2 SCH-B HPLCMT-WEST ZN,Mixing/Well-Stirred
RoomAir Model,SP-WHOLEBUILDING-MANUFACTURING FACILITY SYS-3 FLR-3 SCH-A HPLCMT-WEST ZN,Mixing/Well-Stirred
RoomAir Model,SP-WHOLEBUILDING-MOTION PICTURE THEATRE SYS-3 FLR-1 SCH-C HPLCMT-CORE ZN,Mixing/Well-Stirred
RoomAir Model,SP-WHOLEBUILDING-MULTI-UNIT RESIDENTIAL BUILDING SYS-1 FLR-2 SCH-G HPLCMT-NORTH ZN,Mixing/Well-Stirred
RoomAir Model,SP-WHOLEBUILDING-MUSEUM SYS-2 FLR-2 SCH-C HPLCMT-EAST ZN,Mixing/Well-Stirred
! <AirflowNetwork Model:Control>, No Multizone or Distribution/Multizone with Distribution/Multizone without Distribution/Multizone with Distribution only during Fan Operation
AirflowNetwork Model:Control,NoMultizoneOrDistribution
! <Zone Volume Capacitance Multiplier>, Sensible Heat Capacity Multiplier, Moisture Capacity Multiplier, Carbon Dioxide Capacity Multiplier, Generic Contaminant Capacity Multiplier
Zone Volume Capacitance Multiplier,   1.000 ,   1.000,   1.000,   1.000
! <Load Timesteps in Zone Design Calculation Averaging Window>, Value
 Load Timesteps in Zone Design Calculation Averaging Window,    6
! <Heating Sizing Factor Information>, Sizing Factor ID, Value
 Heating Sizing Factor Information, Global,   1.3000    
 Heating Sizing Factor Information, Zone SP-WHOLEBUILDING-AUTOMOTIVE FACILITY SYS-4 FLR-4 SCH-E HPLCMT-SOUTH ZN,   1.3000    
 Heating Sizing Factor Information, Zone SP-WHOLEBUILDING-CONVENTION CENTRE SYS-3 FLR-3 SCH-C HPLCMT-CORE ZN,   1.3000    
 Heating Sizing Factor Information, Zone SP-WHOLEBUILDING-COURTHOUSE SYS-3 FLR-3 SCH-A HPLCMT-EAST ZN,   1.3000    
 Heating Sizing Factor Information, Zone SP-WHOLEBUILDING-DINING - BAR LOUNGE/LEISURE SYS-3 FLR-3 SCH-B HPLCMT-NORTH ZN,   1.3000    
 Heating Sizing Factor Information, Zone SP-WHOLEBUILDING-DINING - CAFETERIA/FAST FOOD SYS-3 FLR-1 SCH-B HPLCMT-WEST ZN,   1.3000    
 Heating Sizing Factor Information, Zone SP-WHOLEBUILDING-DINING - FAMILY SYS-3 FLR-4 SCH-B HPLCMT-CORE ZN,   1.3000    
 Heating Sizing Factor Information, Zone SP-WHOLEBUILDING-DORMITORY SYS-3 FLR-3 SCH-G HPLCMT-SOUTH ZN,   1.3000    
 Heating Sizing Factor Information, Zone SP-WHOLEBUILDING-EXERCISE CENTRE SYS-6 FLR-2 SCH-B HPLCMT-SOUTH ZN,   1.3000    
 Heating Sizing Factor Information, Zone SP-WHOLEBUILDING-FIRE STATION SYS-4 FLR-1 SCH-F HPLCMT-NORTH ZN,   1.3000    
 Heating Sizing Factor Information, Zone SP-WHOLEBUILDING-GYMNASIUM SYS-6 FLR-4 SCH-B HPLCMT-WEST ZN,   1.3000    
 Heating Sizing Factor Information, Zone SP-WHOLEBUILDING-HEALTH CARE CLINIC SYS-6 FLR-2 SCH-A HPLCMT-CORE ZN,   1.3000    
 Heating Sizing Factor Information, Zone SP-WHOLEBUILDING-HOSPITAL SYS-3 FLR-4 SCH-H HPLCMT-EAST ZN,   1.3000    
 Heating Sizing Factor Information, Zone SP-WHOLEBUILDING-HOTEL/MOTEL SYS-1 FLR-4 SCH-F HPLCMT-NORTH ZN,   1.3000    
 Heating Sizing Factor Information, Zone SP-WHOLEBUILDING-LIBRARY SYS-2 FLR-1 SCH-C HPLCMT-SOUTH ZN,   1.3000    
 Heating Sizing Factor Information, Zone SP-WHOLEBUILDING-LONG-TERM CARE - DWELLING UNITS SYS-1 FLR-1 SCH-J HPLCMT-EAST ZN,   1.3000    
 Heating Sizing Factor Information, Zone SP-WHOLEBUILDING-LONG-TERM CARE - OTHER SYS-1 FLR-2 SCH-B HPLCMT-WEST ZN,   1.3000    
 Heating Sizing Factor Information, Zone SP-WHOLEBUILDING-MANUFACTURING FACILITY SYS-3 FLR-3 SCH-A HPLCMT-WEST ZN,   1.3000    
 Heating Sizing Factor Information, Zone SP-WHOLEBUILDING-MOTION PICTURE THEATRE SYS-3 FLR-1 SCH-C HPLCMT-CORE ZN,   1.3000    
 Heating Sizing Factor Information, Zone SP-WHOLEBUILDING-MULTI-UNIT RESIDENTIAL BUILDING SYS-1 FLR-2 SCH-G HPLCMT-NORTH ZN,   1.3000    
 Heating Sizing Factor Information, Zone SP-WHOLEBUILDING-MUSEUM SYS-2 FLR-2 SCH-C HPLCMT-EAST ZN,   1.3000    
! <Cooling Sizing Factor Information>, Sizing Factor ID, Value
 Cooling Sizing Factor Information, Global,   1.1000    
 Cooling Sizing Factor Information, Zone SP-WHOLEBUILDING-AUTOMOTIVE FACILITY SYS-4 FLR-4 SCH-E HPLCMT-SOUTH ZN,   1.1000    
 Cooling Sizing Factor Information, Zone SP-WHOLEBUILDING-CONVENTION CENTRE SYS-3 FLR-3 SCH-C HPLCMT-CORE ZN,   1.1000    
 Cooling Sizing Factor Information, Zone SP-WHOLEBUILDING-COURTHOUSE SYS-3 FLR-3 SCH-A HPLCMT-EAST ZN,   1.1000    
 Cooling Sizing Factor Information, Zone SP-WHOLEBUILDING-DINING - BAR LOUNGE/LEISURE SYS-3 FLR-3 SCH-B HPLCMT-NORTH ZN,   1.1000    
 Cooling Sizing Factor Information, Zone SP-WHOLEBUILDING-DINING - CAFETERIA/FAST FOOD SYS-3 FLR-1 SCH-B HPLCMT-WEST ZN,   1.1000    
 Cooling Sizing Factor Information, Zone SP-WHOLEBUILDING-DINING - FAMILY SYS-3 FLR-4 SCH-B HPLCMT-CORE ZN,   1.1000    
 Cooling Sizing Factor Information, Zone SP-WHOLEBUILDING-DORMITORY SYS-3 FLR-3 SCH-G HPLCMT-SOUTH ZN,   1.1000    
 Cooling Sizing Factor Information, Zone SP-WHOLEBUILDING-EXERCISE CENTRE SYS-6 FLR-2 SCH-B HPLCMT-SOUTH ZN,   1.1000    
 Cooling Sizing Factor Information, Zone SP-WHOLEBUILDING-FIRE STATION SYS-4 FLR-1 SCH-F HPLCMT-NORTH ZN,   1.1000    
 Cooling Sizing Factor Information, Zone SP-WHOLEBUILDING-GYMNASIUM SYS-6 FLR-4 SCH-B HPLCMT-WEST ZN,   1.1000    
 Cooling Sizing Factor Information, Zone SP-WHOLEBUILDING-HEALTH CARE CLINIC SYS-6 FLR-2 SCH-A HPLCMT-CORE ZN,   1.1000    
 Cooling Sizing Factor Information, Zone SP-WHOLEBUILDING-HOSPITAL SYS-3 FLR-4 SCH-H HPLCMT-EAST ZN,   1.1000    
 Cooling Sizing Factor Information, Zone SP-WHOLEBUILDING-HOTEL/MOTEL SYS-1 FLR-4 SCH-F HPLCMT-NORTH ZN,   1.1000    
 Cooling Sizing Factor Information, Zone SP-WHOLEBUILDING-LIBRARY SYS-2 FLR-1 SCH-C HPLCMT-SOUTH ZN,   1.1000    
 Cooling Sizing Factor Information, Zone SP-WHOLEBUILDING-LONG-TERM CARE - DWELLING UNITS SYS-1 FLR-1 SCH-J HPLCMT-EAST ZN,   1.1000    
 Cooling Sizing Factor Information, Zone SP-WHOLEBUILDING-LONG-TERM CARE - OTHER SYS-1 FLR-2 SCH-B HPLCMT-WEST ZN,   1.1000    
 Cooling Sizing Factor Information, Zone SP-WHOLEBUILDING-MANUFACTURING FACILITY SYS-3 FLR-3 SCH-A HPLCMT-WEST ZN,   1.1000    
 Cooling Sizing Factor Information, Zone SP-WHOLEBUILDING-MOTION PICTURE THEATRE SYS-3 FLR-1 SCH-C HPLCMT-CORE ZN,   1.1000    
 Cooling Sizing Factor Information, Zone SP-WHOLEBUILDING-MULTI-UNIT RESIDENTIAL BUILDING SYS-1 FLR-2 SCH-G HPLCMT-NORTH ZN,   1.1000    
 Cooling Sizing Factor Information, Zone SP-WHOLEBUILDING-MUSEUM SYS-2 FLR-2 SCH-C HPLCMT-EAST ZN,   1.1000    
! <Zone Sizing Information>, Zone Name, Load Type, Calc Des Load {W}, User Des Load {W}, Calc Des Air Flow Rate {m3/s}, User Des Air Flow Rate {m3/s}, Design Day Name, Date/Time of Peak, Temperature at Peak {C}, Humidity Ratio at Peak {kgWater/kgDryAir}, Floor Area {m2}, # Occupants, Calc Outdoor Air Flow Rate {m3/s}, Calc DOAS Heat Addition Rate {W}
 Zone Sizing Information, SP-WHOLEBUILDING-AUTOMOTIVE FACILITY SYS-4 FLR-4 SCH-E HPLCMT-SOUTH ZN, Cooling, 64206.81444, 70627.49588, 4.96259, 5.45885, FORT MCMURRAY AP ANN CLG .4% CONDNS DB=>MWB, 7/21 13:30:00, 28.59000, 8.76969E-003, 1875.00000, 93.78407, 2.15265, 0.00000
 Zone Sizing Information, SP-WHOLEBUILDING-AUTOMOTIVE FACILITY SYS-4 FLR-4 SCH-E HPLCMT-SOUTH ZN, Heating, 40095.24038, 52123.81249, 1.59322, 2.15265, FORT MCMURRAY AP ANN HTG 99.6% CONDNS DB, 1/21 09:00:00, -36.20000, 1.25811E-004, 1875.00000, 93.78407, 2.15265, 0.00000
 Zone Sizing Information, SP-WHOLEBUILDING-CONVENTION CENTRE SYS-3 FLR-3 SCH-C HPLCMT-CORE ZN, Cooling, 43021.82947, 47324.01242, 3.32563, 3.65819, FORT MCMURRAY AP ANN CLG .4% CONDNS DB=>MWB, 7/21 17:00:00, 27.16400, 8.76969E-003, 2500.00000, 312.61357, 1.86690, 0.00000
 Zone Sizing Information, SP-WHOLEBUILDING-CONVENTION CENTRE SYS-3 FLR-3 SCH-C HPLCMT-CORE ZN, Heating, 0.00000, 0.00000, 0.00000, 1.86690, FORT MCMURRAY AP ANN HTG 99.6% CONDNS DB, , -36.20000, 1.25811E-004, 2500.00000, 312.61357, 1.86690, 0.00000
 Zone Sizing Information, SP-WHOLEBUILDING-COURTHOUSE SYS-3 FLR-3 SCH-A HPLCMT-EAST ZN, Cooling, 49990.76348, 54989.83983, 3.86383, 4.25021, FORT MCMURRAY AP ANN CLG .4% CONDNS DB=>MWB, 7/21 10:00:00, 24.18800, 8.76969E-003, 1875.00000, 125.04543, 0.86678, 0.00000
 Zone Sizing Information, SP-WHOLEBUILDING-COURTHOUSE SYS-3 FLR-3 SCH-A HPLCMT-EAST ZN, Heating, 7652.22304, 9947.88995, 0.30160, 0.86678, FORT MCMURRAY AP ANN HTG 99.6% CONDNS DB, 1/21 08:00:00, -36.20000, 1.25811E-004, 1875.00000, 125.04543, 0.86678, 0.00000
 Zone Sizing Information, SP-WHOLEBUILDING-DINING - BAR LOUNGE/LEISURE SYS-3 FLR-3 SCH-B HPLCMT-NORTH ZN, Cooling, 30850.69877, 33935.76865, 2.38459, 2.62305, FORT MCMURRAY AP ANN CLG .4% CONDNS DB=>MWB, 7/21 20:20:00, 22.32800, 8.76969E-003, 1875.00000, 187.56814, 2.38125, 0.00000
 Zone Sizing Information, SP-WHOLEBUILDING-DINING - BAR LOUNGE/LEISURE SYS-3 FLR-3 SCH-B HPLCMT-NORTH ZN, Heating, 18163.65792, 23612.75529, 0.70574, 2.38125, FORT MCMURRAY AP ANN HTG 99.6% CONDNS DB, 1/21 10:00:00, -36.20000, 1.25811E-004, 1875.00000, 187.56814, 2.38125, 0.00000
 Zone Sizing Information, SP-WHOLEBUILDING-DINING - CAFETERIA/FAST FOOD SYS-3 FLR-1 SCH-B HPLCMT-WEST ZN, Cooling, 25550.93014, 28106.02315, 1.97504, 2.38125, FORT MCMURRAY AP ANN CLG .4% CONDNS DB=>MWB, 7/21 21:00:00, 21.58400, 8.76969E-003, 1875.00000, 187.56814, 2.38125, 0.00000
 Zone Sizing Information, SP-WHOLEBUILDING-DINING - CAFETERIA/FAST FOOD SYS-3 FLR-1 SCH-B HPLCMT-WEST ZN, Heating, 0.00000, 0.00000, 0.00000, 2.38125, FORT MCMURRAY AP ANN HTG 99.6% CONDNS DB, , -36.20000, 1.25811E-004, 1875.00000, 187.56814, 2.38125, 0.00000
 Zone Sizing Information, SP-WHOLEBUILDING-DINING - FAMILY SYS-3 FLR-4 SCH-B HPLCMT-CORE ZN, Cooling, 60455.61261, 66501.17387, 4.67289, 5.14018, FORT MCMURRAY AP ANN CLG .4% CONDNS DB=>MWB, 7/21 13:10:00, 28.38333, 8.76969E-003, 2500.00000, 250.09086, 3.17500, 0.00000
 Zone Sizing Information, SP-WHOLEBUILDING-DINING - FAMILY SYS-3 FLR-4 SCH-B HPLCMT-CORE ZN, Heating, 28292.35419, 36780.06044, 1.10504, 3.17500, FORT MCMURRAY AP ANN HTG 99.6% CONDNS DB, 1/21 10:00:00, -36.20000, 1.25811E-004, 2500.00000, 250.09086, 3.17500, 0.00000
 Zone Sizing Information, SP-WHOLEBUILDING-DORMITORY SYS-3 FLR-3 SCH-G HPLCMT-SOUTH ZN, Cooling, 26390.55413, 29029.60954, 2.03963, 2.24359, FORT MCMURRAY AP ANN CLG .4% CONDNS DB=>MWB, 7/21 20:00:00, 22.70000, 8.76969E-003, 1875.00000, 62.52271, 0.71438, 0.00000
 Zone Sizing Information, SP-WHOLEBUILDING-DORMITORY SYS-3 FLR-3 SCH-G HPLCMT-SOUTH ZN, Heating, 17571.64164, 22843.13414, 0.69455, 0.90292, FORT MCMURRAY AP ANN HTG 99.6% CONDNS DB, 1/21 09:00:00, -36.20000, 1.25811E-004, 1875.00000, 62.52271, 0.71438, 0.00000
 Zone Sizing Information, SP-WHOLEBUILDING-EXERCISE CENTRE SYS-6 FLR-2 SCH-B HPLCMT-SOUTH ZN, Cooling, 34966.17658, 38462.79424, 2.70270, 2.97297, FORT MCMURRAY AP ANN CLG .4% CONDNS DB=>MWB, 7/21 13:10:00, 28.38333, 8.76969E-003, 1875.00000, 187.56814, 2.34315, 0.00000
 Zone Sizing Information, SP-WHOLEBUILDING-EXERCISE CENTRE SYS-6 FLR-2 SCH-B HPLCMT-SOUTH ZN, Heating, 8543.16314, 11106.11209, 0.33522, 2.34315, FORT MCMURRAY AP ANN HTG 99.6% CONDNS DB, 1/21 10:00:00, -36.20000, 1.25811E-004, 1875.00000, 187.56814, 2.34315, 0.00000
 Zone Sizing Information, SP-WHOLEBUILDING-FIRE STATION SYS-4 FLR-1 SCH-F HPLCMT-NORTH ZN, Cooling, 9495.10609, 10444.61670, 0.73382, 1.40970, FORT MCMURRAY AP ANN CLG .4% CONDNS DB=>MWB, 7/21 22:00:00, 20.46800, 8.76969E-003, 1875.00000, 75.02726, 1.40970, 0.00000
 Zone Sizing Information, SP-WHOLEBUILDING-FIRE STATION SYS-4 FLR-1 SCH-F HPLCMT-NORTH ZN, Heating, 0.00000, 0.00000, 0.00000, 1.40970, FORT MCMURRAY AP ANN HTG 99.6% CONDNS DB, , -36.20000, 1.25811E-004, 1875.00000, 75.02726, 1.40970, 0.00000
 Zone Sizing Information, SP-WHOLEBUILDING-GYMNASIUM SYS-6 FLR-4 SCH-B HPLCMT-WEST ZN, Cooling, 58836.17890, 64719.79679, 4.54729, 5.00202, FORT MCMURRAY AP ANN CLG .4% CONDNS DB=>MWB, 7/21 16:40:00, 27.49467, 8.76969E-003, 1875.00000, 187.56814, 2.34315, 0.00000
 Zone Sizing Information, SP-WHOLEBUILDING-GYMNASIUM SYS-6 FLR-4 SCH-B HPLCMT-WEST ZN, Heating, 37884.05173, 49249.26724, 1.50327, 2.34315, FORT MCMURRAY AP ANN HTG 99.6% CONDNS DB, 1/21 10:00:00, -36.20000, 1.25811E-004, 1875.00000, 187.56814, 2.34315, 0.00000
 Zone Sizing Information, SP-WHOLEBUILDING-HEALTH CARE CLINIC SYS-6 FLR-2 SCH-A HPLCMT-CORE ZN, Cooling, 38711.20293, 42582.32323, 2.99204, 5.71500, FORT MCMURRAY AP ANN CLG .4% CONDNS DB=>MWB, 7/21 17:00:00, 27.16400, 8.76969E-003, 2500.00000, 125.04543, 5.71500, 0.00000
 Zone Sizing Information, SP-WHOLEBUILDING-HEALTH CARE CLINIC SYS-6 FLR-2 SCH-A HPLCMT-CORE ZN, Heating, 0.00000, 0.00000, 0.00000, 5.71500, FORT MCMURRAY AP ANN HTG 99.6% CONDNS DB, , -36.20000, 1.25811E-004, 2500.00000, 125.04543, 5.71500, 0.00000
 Zone Sizing Information, SP-WHOLEBUILDING-HOSPITAL SYS-3 FLR-4 SCH-H HPLCMT-EAST ZN, Cooling, 71120.87102, 78232.95812, 5.49698, 6.04668, FORT MCMURRAY AP ANN CLG .4% CONDNS DB=>MWB, 7/21 10:00:00, 24.18800, 8.76969E-003, 1875.00000, 93.78407, 4.28625, 0.00000
 Zone Sizing Information, SP-WHOLEBUILDING-HOSPITAL SYS-3 FLR-4 SCH-H HPLCMT-EAST ZN, Heating, 8017.80691, 10423.14898, 0.31868, 4.28625, FORT MCMURRAY AP ANN HTG 99.6% CONDNS DB, 1/21 09:00:00, -36.20000, 1.25811E-004, 1875.00000, 93.78407, 4.28625, 0.00000
 Zone Sizing Information, SP-WHOLEBUILDING-HOTEL/MOTEL SYS-1 FLR-4 SCH-F HPLCMT-NORTH ZN, Cooling, 30473.92936, 33521.32230, 2.35514, 2.59066, FORT MCMURRAY AP ANN CLG .4% CONDNS DB=>MWB, 7/21 14:00:00, 28.90000, 8.76969E-003, 1875.00000, 75.02726, 0.75248, 0.00000
 Zone Sizing Information, SP-WHOLEBUILDING-HOTEL/MOTEL SYS-1 FLR-4 SCH-F HPLCMT-NORTH ZN, Heating, 39439.05500, 51270.77150, 1.56677, 2.03681, FORT MCMURRAY AP ANN HTG 99.6% CONDNS DB, 1/21 09:00:00, -36.20000, 1.25811E-004, 1875.00000, 75.02726, 0.75248, 0.00000
 Zone Sizing Information, SP-WHOLEBUILDING-LIBRARY SYS-2 FLR-1 SCH-C HPLCMT-SOUTH ZN, Cooling, 20551.08951, 22606.19846, 1.58839, 1.74723, FORT MCMURRAY AP ANN CLG .4% CONDNS DB=>MWB, 7/21 17:00:00, 27.16400, 8.76969E-003, 1875.00000, 93.78407, 1.36208, 0.00000
 Zone Sizing Information, SP-WHOLEBUILDING-LIBRARY SYS-2 FLR-1 SCH-C HPLCMT-SOUTH ZN, Heating, 0.00000, 0.00000, 0.00000, 1.36208, FORT MCMURRAY AP ANN HTG 99.6% CONDNS DB, , -36.20000, 1.25811E-004, 1875.00000, 93.78407, 1.36208, 0.00000
 Zone Sizing Information, SP-WHOLEBUILDING-LONG-TERM CARE - DWELLING UNITS SYS-1 FLR-1 SCH-J HPLCMT-EAST ZN, Cooling, 14075.70800, 15483.27880, 1.08789, 1.19668, FORT MCMURRAY AP ANN CLG .4% CONDNS DB=>MWB, 7/21 11:00:00, 26.04800, 8.76969E-003, 1875.00000, 75.02726, 1.04775, 0.00000
 Zone Sizing Information, SP-WHOLEBUILDING-LONG-TERM CARE - DWELLING UNITS SYS-1 FLR-1 SCH-J HPLCMT-EAST ZN, Heating, 0.00000, 0.00000, 0.00000, 1.04775, FORT MCMURRAY AP ANN HTG 99.6% CONDNS DB, , -36.20000, 1.25811E-004, 1875.00000, 75.02726, 1.04775, 0.00000
 Zone Sizing Information, SP-WHOLEBUILDING-LONG-TERM CARE - OTHER SYS-1 FLR-2 SCH-B HPLCMT-WEST ZN, Cooling, 35015.92400, 38517.51640, 2.70621, 2.97683, FORT MCMURRAY AP ANN CLG .4% CONDNS DB=>MWB, 7/21 18:50:00, 24.37400, 8.76969E-003, 1875.00000, 75.02726, 1.04775, 0.00000
 Zone Sizing Information, SP-WHOLEBUILDING-LONG-TERM CARE - OTHER SYS-1 FLR-2 SCH-B HPLCMT-WEST ZN, Heating, 5928.34261, 7706.84539, 0.23471, 1.04775, FORT MCMURRAY AP ANN HTG 99.6% CONDNS DB, 1/21 10:00:00, -36.20000, 1.25811E-004, 1875.00000, 75.02726, 1.04775, 0.00000
 Zone Sizing Information, SP-WHOLEBUILDING-MANUFACTURING FACILITY SYS-3 FLR-3 SCH-A HPLCMT-WEST ZN, Cooling, 54050.51374, 59455.56511, 4.17746, 4.59521, FORT MCMURRAY AP ANN CLG .4% CONDNS DB=>MWB, 7/21 17:40:00, 26.33733, 8.76969E-003, 1875.00000, 62.52271, 2.00978, 0.00000
 Zone Sizing Information, SP-WHOLEBUILDING-MANUFACTURING FACILITY SYS-3 FLR-3 SCH-A HPLCMT-WEST ZN, Heating, 14179.25412, 18433.03035, 0.55526, 2.00978, FORT MCMURRAY AP ANN HTG 99.6% CONDNS DB, 1/21 08:00:00, -36.20000, 1.25811E-004, 1875.00000, 62.52271, 2.00978, 0.00000
 Zone Sizing Information, SP-WHOLEBUILDING-MOTION PICTURE THEATRE SYS-3 FLR-1 SCH-C HPLCMT-CORE ZN, Cooling, 31798.04045, 34977.84450, 2.45803, 2.70384, FORT MCMURRAY AP ANN CLG .4% CONDNS DB=>MWB, 7/21 17:00:00, 27.16400, 8.76969E-003, 2500.00000, 312.61357, 1.49860, 0.00000
 Zone Sizing Information, SP-WHOLEBUILDING-MOTION PICTURE THEATRE SYS-3 FLR-1 SCH-C HPLCMT-CORE ZN, Heating, 0.00000, 0.00000, 0.00000, 1.49860, FORT MCMURRAY AP ANN HTG 99.6% CONDNS DB, , -36.20000, 1.25811E-004, 2500.00000, 312.61357, 1.49860, 0.00000
 Zone Sizing Information, SP-WHOLEBUILDING-MULTI-UNIT RESIDENTIAL BUILDING SYS-1 FLR-2 SCH-G HPLCMT-NORTH ZN, Cooling, 22164.28834, 24380.71717, 1.71304, 1.88434, FORT MCMURRAY AP ANN CLG .4% CONDNS DB=>MWB, 7/21 20:10:00, 22.51400, 8.76969E-003, 1875.00000, 75.02726, 0.64770, 0.00000
 Zone Sizing Information, SP-WHOLEBUILDING-MULTI-UNIT RESIDENTIAL BUILDING SYS-1 FLR-2 SCH-G HPLCMT-NORTH ZN, Heating, 2665.30350, 3464.89454, 0.10800, 0.64770, FORT MCMURRAY AP ANN HTG 99.6% CONDNS DB, 1/21 18:00:00, -36.20000, 1.25811E-004, 1875.00000, 75.02726, 0.64770, 0.00000
 Zone Sizing Information, SP-WHOLEBUILDING-MUSEUM SYS-2 FLR-2 SCH-C HPLCMT-EAST ZN, Cooling, 41443.70821, 45588.07903, 2.92744, 3.22019, FORT MCMURRAY AP ANN CLG .4% CONDNS DB=>MWB, 7/21 08:00:00, 19.72400, 8.76969E-003, 1875.00000, 93.78407, 0.90488, 0.00000
 Zone Sizing Information, SP-WHOLEBUILDING-MUSEUM SYS-2 FLR-2 SCH-C HPLCMT-EAST ZN, Heating, 2586.75107, 3362.77639, 0.10188, 0.90488, FORT MCMURRAY AP ANN HTG 99.6% CONDNS DB, 1/21 08:40:00, -36.20000, 1.25811E-004, 1875.00000, 93.78407, 0.90488, 0.00000
! <System Sizing Information>, System Name, Load Type, Peak Load Kind, User Design Capacity, Calc Des Air Flow Rate [m3/s], User Des Air Flow Rate [m3/s], Design Day Name, Date/Time of Peak
 System Sizing Information, SYS_1_MAKE-UP AIR UNIT, Cooling, Sensible, 50832.92, 8.64851, 3.49568, FORT MCMURRAY AP ANN CLG .4% CONDNS DB=>MWB, 7/21 05:00:00
 System Sizing Information, SYS_1_MAKE-UP AIR UNIT, Heating, Sensible, 320637.53, 4.78001, 3.49568, FORT MCMURRAY AP ANN HTG 99.6% CONDNS DB, 1/21 09:00:00
 System Sizing Information, SYS_2_MAKE-UP AIR UNIT, Cooling, Sensible, 58770.54, 4.96742, 4.96742, FORT MCMURRAY AP ANN CLG .4% CONDNS DB=>MWB, 7/21 00:00:00
 System Sizing Information, SYS_2_MAKE-UP AIR UNIT, Heating, Sensible, 129433.58, 2.26695, 2.26695, FORT MCMURRAY AP ANN HTG 99.6% CONDNS DB, 1/21 00:10:00
 System Sizing Information, SYS_3_PSZ SP-WHOLEBUILDING-CONVENTION CENTRE SYS-3 FLR-3 SCH-C HPLCMT-CORE ZN, Cooling, Sensible, 53438.82, 3.65819, 3.65819, FORT MCMURRAY AP ANN CLG .4% CONDNS DB=>MWB, 7/21 05:00:00
 System Sizing Information, SYS_3_PSZ SP-WHOLEBUILDING-CONVENTION CENTRE SYS-3 FLR-3 SCH-C HPLCMT-CORE ZN, Heating, Sensible, 171239.66, 1.86690, 1.86690, FORT MCMURRAY AP ANN HTG 99.6% CONDNS DB, 1/21 00:10:00
 System Sizing Information, SYS_3_PSZ SP-WHOLEBUILDING-COURTHOUSE SYS-3 FLR-3 SCH-A HPLCMT-EAST ZN, Cooling, Sensible, 54329.44, 4.25021, 4.25021, FORT MCMURRAY AP ANN CLG .4% CONDNS DB=>MWB, 7/21 05:00:00
 System Sizing Information, SYS_3_PSZ SP-WHOLEBUILDING-COURTHOUSE SYS-3 FLR-3 SCH-A HPLCMT-EAST ZN, Heating, Sensible, 79504.13, 0.86678, 0.86678, FORT MCMURRAY AP ANN HTG 99.6% CONDNS DB, 1/21 00:10:00
 System Sizing Information, SYS_3_PSZ SP-WHOLEBUILDING-DINING - BAR LOUNGE/LEISURE SYS-3 FLR-3 SCH-B HPLCMT-NORTH ZN, Cooling, Sensible, 28804.66, 2.62305, 2.62305, FORT MCMURRAY AP ANN CLG .4% CONDNS DB=>MWB, 7/21 05:00:00
 System Sizing Information, SYS_3_PSZ SP-WHOLEBUILDING-DINING - BAR LOUNGE/LEISURE SYS-3 FLR-3 SCH-B HPLCMT-NORTH ZN, Heating, Sensible, 218417.93, 2.38125, 2.38125, FORT MCMURRAY AP ANN HTG 99.6% CONDNS DB, 1/21 00:10:00
 System Sizing Information, SYS_3_PSZ SP-WHOLEBUILDING-DINING - CAFETERIA/FAST FOOD SYS-3 FLR-1 SCH-B HPLCMT-WEST ZN, Cooling, Sensible, 23672.97, 2.38125, 2.38125, FORT MCMURRAY AP ANN CLG .4% CONDNS DB=>MWB, 7/21 05:00:00
 System Sizing Information, SYS_3_PSZ SP-WHOLEBUILDING-DINING - CAFETERIA/FAST FOOD SYS-3 FLR-1 SCH-B HPLCMT-WEST ZN, Heating, Sensible, 218417.93, 2.38125, 2.38125, FORT MCMURRAY AP ANN HTG 99.6% CONDNS DB, 1/21 00:10:00
 System Sizing Information, SYS_3_PSZ SP-WHOLEBUILDING-DINING - FAMILY SYS-3 FLR-4 SCH-B HPLCMT-CORE ZN, Cooling, Sensible, 81597.01, 5.14018, 5.14018, FORT MCMURRAY AP ANN CLG .4% CONDNS DB=>MWB, 7/21 05:00:00
 System Sizing Information, SYS_3_PSZ SP-WHOLEBUILDING-DINING - FAMILY SYS-3 FLR-4 SCH-B HPLCMT-CORE ZN, Heating, Sensible, 291223.91, 3.17500, 3.17500, FORT MCMURRAY AP ANN HTG 99.6% CONDNS DB, 1/21 00:10:00
 System Sizing Information, SYS_3_PSZ SP-WHOLEBUILDING-DORMITORY SYS-3 FLR-3 SCH-G HPLCMT-SOUTH ZN, Cooling, Sensible, 27505.63, 2.24359, 2.24359, FORT MCMURRAY AP ANN CLG .4% CONDNS DB=>MWB, 7/21 05:00:00
 System Sizing Information, SYS_3_PSZ SP-WHOLEBUILDING-DORMITORY SYS-3 FLR-3 SCH-G HPLCMT-SOUTH ZN, Heating, Sensible, 70182.68, 0.90292, 0.90292, FORT MCMURRAY AP ANN HTG 99.6% CONDNS DB, 1/21 09:00:00
 System Sizing Information, SYS_3_PSZ SP-WHOLEBUILDING-HOSPITAL SYS-3 FLR-4 SCH-H HPLCMT-EAST ZN, Cooling, Sensible, 77962.25, 6.04668, 6.04668, FORT MCMURRAY AP ANN CLG .4% CONDNS DB=>MWB, 7/21 05:00:00
 System Sizing Information, SYS_3_PSZ SP-WHOLEBUILDING-HOSPITAL SYS-3 FLR-4 SCH-H HPLCMT-EAST ZN, Heating, Sensible, 393152.28, 4.28625, 4.28625, FORT MCMURRAY AP ANN HTG 99.6% CONDNS DB, 1/21 00:10:00
 System Sizing Information, SYS_3_PSZ SP-WHOLEBUILDING-MANUFACTURING FACILITY SYS-3 FLR-3 SCH-A HPLCMT-WEST ZN, Cooling, Sensible, 63978.38, 4.59521, 4.59521, FORT MCMURRAY AP ANN CLG .4% CONDNS DB=>MWB, 7/21 05:00:00
 System Sizing Information, SYS_3_PSZ SP-WHOLEBUILDING-MANUFACTURING FACILITY SYS-3 FLR-3 SCH-A HPLCMT-WEST ZN, Heating, Sensible, 184344.74, 2.00978, 2.00978, FORT MCMURRAY AP ANN HTG 99.6% CONDNS DB, 1/21 00:10:00
 System Sizing Information, SYS_3_PSZ SP-WHOLEBUILDING-MOTION PICTURE THEATRE SYS-3 FLR-1 SCH-C HPLCMT-CORE ZN, Cooling, Sensible, 39933.01, 2.70384, 2.70384, FORT MCMURRAY AP ANN CLG .4% CONDNS DB=>MWB, 7/21 05:00:00
 System Sizing Information, SYS_3_PSZ SP-WHOLEBUILDING-MOTION PICTURE THEATRE SYS-3 FLR-1 SCH-C HPLCMT-CORE ZN, Heating, Sensible, 137457.69, 1.49860, 1.49860, FORT MCMURRAY AP ANN HTG 99.6% CONDNS DB, 1/21 00:10:00
 System Sizing Information, SYS_4_PSZ_SP-WHOLEBUILDING-AUTOMOTIVE FACILITY SYS-4 FLR-4 SCH-E HPLCMT-SOUTH ZN, Cooling, Sensible, 80981.38, 5.45885, 5.45885, FORT MCMURRAY AP ANN CLG .4% CONDNS DB=>MWB, 7/21 05:00:00
 System Sizing Information, SYS_4_PSZ_SP-WHOLEBUILDING-AUTOMOTIVE FACILITY SYS-4 FLR-4 SCH-E HPLCMT-SOUTH ZN, Heating, Sensible, 197449.81, 2.15265, 2.15265, FORT MCMURRAY AP ANN HTG 99.6% CONDNS DB, 1/21 00:10:00
 System Sizing Information, SYS_4_PSZ_SP-WHOLEBUILDING-FIRE STATION SYS-4 FLR-1 SCH-F HPLCMT-NORTH ZN, Cooling, Sensible, 12192.40, 1.40970, 1.40970, FORT MCMURRAY AP ANN CLG .4% CONDNS DB=>MWB, 7/21 05:00:00
 System Sizing Information, SYS_4_PSZ_SP-WHOLEBUILDING-FIRE STATION SYS-4 FLR-1 SCH-F HPLCMT-NORTH ZN, Heating, Sensible, 129303.42, 1.40970, 1.40970, FORT MCMURRAY AP ANN HTG 99.6% CONDNS DB, 1/21 00:10:00
 System Sizing Information, SYS_6_VAV WITH REHEAT, Cooling, Sensible, 144100.59, 8.68797, 8.68797, FORT MCMURRAY AP ANN CLG .4% CONDNS DB=>MWB, 7/21 00:00:00
 System Sizing Information, SYS_6_VAV WITH REHEAT, Heating, Sensible, 460087.45, 8.05815, 8.05815, FORT MCMURRAY AP ANN HTG 99.6% CONDNS DB, 1/21 00:10:00
 System Sizing Information, SYS_6_VAV WITH REHEAT 1, Cooling, Sensible, 73204.28, 5.00202, 5.00202, FORT MCMURRAY AP ANN CLG .4% CONDNS DB=>MWB, 7/21 00:00:00
 System Sizing Information, SYS_6_VAV WITH REHEAT 1, Heating, Sensible, 133784.29, 2.34315, 2.34315, FORT MCMURRAY AP ANN HTG 99.6% CONDNS DB, 1/21 00:10:00
! <Component Sizing Information>, Component Type, Component Name, Input Field Description, Value
 Component Sizing Information, AirTerminal:SingleDuct:Uncontrolled, AIR TERMINAL SINGLE DUCT UNCONTROLLED 17, Design Size Maximum Air Flow Rate [m3/s], 5.45885
 Component Sizing Information, ZoneHVAC:Baseboard:Convective:Water, ZONE HVAC BASEBOARD CONVECTIVE WATER 15, Design Size Maximum Water Flow Rate [m3/s], 7.78511E-004
 Component Sizing Information, ZoneHVAC:Baseboard:Convective:Water, ZONE HVAC BASEBOARD CONVECTIVE WATER 15, Design Size U-Factor Times Area Value [W/K], 1589.27491
 Component Sizing Information, AirTerminal:SingleDuct:Uncontrolled, AIR TERMINAL SINGLE DUCT UNCONTROLLED 9, Design Size Maximum Air Flow Rate [m3/s], 3.65819
 Component Sizing Information, ZoneHVAC:Baseboard:Convective:Water, ZONE HVAC BASEBOARD CONVECTIVE WATER 7, Design Size Maximum Water Flow Rate [m3/s], 0.00000
 Component Sizing Information, ZoneHVAC:Baseboard:Convective:Water, ZONE HVAC BASEBOARD CONVECTIVE WATER 7, Design Size U-Factor Times Area Value [W/K], 0.00000
 Component Sizing Information, AirTerminal:SingleDuct:Uncontrolled, AIR TERMINAL SINGLE DUCT UNCONTROLLED 10, Design Size Maximum Air Flow Rate [m3/s], 4.25021
 Component Sizing Information, ZoneHVAC:Baseboard:Convective:Water, ZONE HVAC BASEBOARD CONVECTIVE WATER 8, Design Size Maximum Water Flow Rate [m3/s], 1.48580E-004
 Component Sizing Information, ZoneHVAC:Baseboard:Convective:Water, ZONE HVAC BASEBOARD CONVECTIVE WATER 8, Design Size U-Factor Times Area Value [W/K], 300.76743
 Component Sizing Information, AirTerminal:SingleDuct:Uncontrolled, AIR TERMINAL SINGLE DUCT UNCONTROLLED 12, Design Size Maximum Air Flow Rate [m3/s], 2.62305
 Component Sizing Information, ZoneHVAC:Baseboard:Convective:Water, ZONE HVAC BASEBOARD CONVECTIVE WATER 10, Design Size Maximum Water Flow Rate [m3/s], 3.52676E-004
 Component Sizing Information, ZoneHVAC:Baseboard:Convective:Water, ZONE HVAC BASEBOARD CONVECTIVE WATER 10, Design Size U-Factor Times Area Value [W/K], 715.30234
 Component Sizing Information, AirTerminal:SingleDuct:Uncontrolled, AIR TERMINAL SINGLE DUCT UNCONTROLLED 8, Design Size Maximum Air Flow Rate [m3/s], 2.38125
 Component Sizing Information, ZoneHVAC:Baseboard:Convective:Water, ZONE HVAC BASEBOARD CONVECTIVE WATER 6, Design Size Maximum Water Flow Rate [m3/s], 0.00000
 Component Sizing Information, ZoneHVAC:Baseboard:Convective:Water, ZONE HVAC BASEBOARD CONVECTIVE WATER 6, Design Size U-Factor Times Area Value [W/K], 0.00000
 Component Sizing Information, AirTerminal:SingleDuct:Uncontrolled, AIR TERMINAL SINGLE DUCT UNCONTROLLED 14, Design Size Maximum Air Flow Rate [m3/s], 5.14018
 Component Sizing Information, ZoneHVAC:Baseboard:Convective:Water, ZONE HVAC BASEBOARD CONVECTIVE WATER 12, Design Size Maximum Water Flow Rate [m3/s], 5.49340E-004
 Component Sizing Information, ZoneHVAC:Baseboard:Convective:Water, ZONE HVAC BASEBOARD CONVECTIVE WATER 12, Design Size U-Factor Times Area Value [W/K], 1119.69398
 Component Sizing Information, AirTerminal:SingleDuct:Uncontrolled, AIR TERMINAL SINGLE DUCT UNCONTROLLED 13, Design Size Maximum Air Flow Rate [m3/s], 2.24359
 Component Sizing Information, ZoneHVAC:Baseboard:Convective:Water, ZONE HVAC BASEBOARD CONVECTIVE WATER 11, Design Size Maximum Water Flow Rate [m3/s], 3.41181E-004
 Component Sizing Information, ZoneHVAC:Baseboard:Convective:Water, ZONE HVAC BASEBOARD CONVECTIVE WATER 11, Design Size U-Factor Times Area Value [W/K], 693.43640
 Component Sizing Information, AirTerminal:SingleDuct:VAV:Reheat, AIR TERMINAL SINGLE DUCT VAV REHEAT 1, Design Size Maximum Air Flow Rate [m3/s], 2.97297
 Component Sizing Information, AirTerminal:SingleDuct:VAV:Reheat, AIR TERMINAL SINGLE DUCT VAV REHEAT 1, Design Size Constant Minimum Air Flow Fraction, 0.48058
 Component Sizing Information, AirTerminal:SingleDuct:VAV:Reheat, AIR TERMINAL SINGLE DUCT VAV REHEAT 1, User-Specified Constant Minimum Air Flow Fraction, 0.30000
 Component Sizing Information, AirTerminal:SingleDuct:VAV:Reheat, AIR TERMINAL SINGLE DUCT VAV REHEAT 1, Design Size Minimum Air Flow Rate [m3/s], 0.89189
 Component Sizing Information, AirTerminal:SingleDuct:VAV:Reheat, AIR TERMINAL SINGLE DUCT VAV REHEAT 1, Design Size Maximum Flow per Zone Floor Area during Reheat [m3/s-m2], 4.75675E-004
 Component Sizing Information, AirTerminal:SingleDuct:VAV:Reheat, AIR TERMINAL SINGLE DUCT VAV REHEAT 1, Design Size Maximum Flow Fraction during Reheat [], 0.30000
 Component Sizing Information, AirTerminal:SingleDuct:VAV:Reheat, AIR TERMINAL SINGLE DUCT VAV REHEAT 1, Design Size Maximum Reheat Water Flow Rate [m3/s], 3.12319E-004
 Component Sizing Information, AirTerminal:SingleDuct:VAV:Reheat, AIR TERMINAL SINGLE DUCT VAV REHEAT 1, Design Size Reheat Coil Sizing Air Volume Flow Rate [m3/s], 0.89189
 Component Sizing Information, AirTerminal:SingleDuct:VAV:Reheat, AIR TERMINAL SINGLE DUCT VAV REHEAT 1, Design Size Reheat Coil Sizing Inlet Air Temperature [C], 13.10000
 Component Sizing Information, AirTerminal:SingleDuct:VAV:Reheat, AIR TERMINAL SINGLE DUCT VAV REHEAT 1, Design Size Reheat Coil Sizing Inlet Air Humidity Ratio [kgWater/kgDryAir], 8.00000E-003
 Component Sizing Information, Coil:Heating:Water, COIL HEATING WATER 5, Design Size Rated Capacity [W], 20910.76779
 Component Sizing Information, Coil:Heating:Water, COIL HEATING WATER 5, Design Size Maximum Water Flow Rate [m3/s], 3.12319E-004
 Component Sizing Information, Coil:Heating:Water, COIL HEATING WATER 5, Design Size U-Factor Times Area Value [W/K], 426.77885
! <Water Heating Coil Capacity Information>,Component Type,Name,Nominal Total Capacity {W}
Water Heating Coil Capacity Information,Coil:Heating:Water,COIL HEATING WATER 5,19621.69
 Component Sizing Information, ZoneHVAC:Baseboard:Convective:Water, ZONE HVAC BASEBOARD CONVECTIVE WATER 16, Design Size Maximum Water Flow Rate [m3/s], 1.65879E-004
 Component Sizing Information, ZoneHVAC:Baseboard:Convective:Water, ZONE HVAC BASEBOARD CONVECTIVE WATER 16, Design Size U-Factor Times Area Value [W/K], 335.81087
 Component Sizing Information, AirTerminal:SingleDuct:Uncontrolled, AIR TERMINAL SINGLE DUCT UNCONTROLLED 16, Design Size Maximum Air Flow Rate [m3/s], 1.40970
 Component Sizing Information, ZoneHVAC:Baseboard:Convective:Water, ZONE HVAC BASEBOARD CONVECTIVE WATER 14, Design Size Maximum Water Flow Rate [m3/s], 0.00000
 Component Sizing Information, ZoneHVAC:Baseboard:Convective:Water, ZONE HVAC BASEBOARD CONVECTIVE WATER 14, Design Size U-Factor Times Area Value [W/K], 0.00000
 Component Sizing Information, AirTerminal:SingleDuct:VAV:Reheat, AIR TERMINAL SINGLE DUCT VAV REHEAT 3, Design Size Maximum Air Flow Rate [m3/s], 5.00202
 Component Sizing Information, AirTerminal:SingleDuct:VAV:Reheat, AIR TERMINAL SINGLE DUCT VAV REHEAT 3, Design Size Constant Minimum Air Flow Fraction, 0.28563
 Component Sizing Information, AirTerminal:SingleDuct:VAV:Reheat, AIR TERMINAL SINGLE DUCT VAV REHEAT 3, User-Specified Constant Minimum Air Flow Fraction, 0.30000
 Component Sizing Information, AirTerminal:SingleDuct:VAV:Reheat, AIR TERMINAL SINGLE DUCT VAV REHEAT 3, Design Size Minimum Air Flow Rate [m3/s], 1.50061
 Component Sizing Information, AirTerminal:SingleDuct:VAV:Reheat, AIR TERMINAL SINGLE DUCT VAV REHEAT 3, Design Size Maximum Flow per Zone Floor Area during Reheat [m3/s-m2], 8.00323E-004
 Component Sizing Information, AirTerminal:SingleDuct:VAV:Reheat, AIR TERMINAL SINGLE DUCT VAV REHEAT 3, Design Size Maximum Flow Fraction during Reheat [], 0.30000
 Component Sizing Information, AirTerminal:SingleDuct:VAV:Reheat, AIR TERMINAL SINGLE DUCT VAV REHEAT 3, Design Size Maximum Reheat Water Flow Rate [m3/s], 1.05812E-003
 Component Sizing Information, AirTerminal:SingleDuct:VAV:Reheat, AIR TERMINAL SINGLE DUCT VAV REHEAT 3, Design Size Reheat Coil Sizing Air Volume Flow Rate [m3/s], 1.95425
 Component Sizing Information, AirTerminal:SingleDuct:VAV:Reheat, AIR TERMINAL SINGLE DUCT VAV REHEAT 3, Design Size Reheat Coil Sizing Inlet Air Temperature [C], 13.10000
 Component Sizing Information, AirTerminal:SingleDuct:VAV:Reheat, AIR TERMINAL SINGLE DUCT VAV REHEAT 3, Design Size Reheat Coil Sizing Inlet Air Humidity Ratio [kgWater/kgDryAir], 8.00000E-003
 Component Sizing Information, Coil:Heating:Water, COIL HEATING WATER 8, Design Size Rated Capacity [W], 70844.69335
 Component Sizing Information, Coil:Heating:Water, COIL HEATING WATER 8, Design Size Maximum Water Flow Rate [m3/s], 1.05812E-003
 Component Sizing Information, Coil:Heating:Water, COIL HEATING WATER 8, Design Size U-Factor Times Area Value [W/K], 1616.61767
Water Heating Coil Capacity Information,Coil:Heating:Water,COIL HEATING WATER 8,61840.95
 Component Sizing Information, ZoneHVAC:Baseboard:Convective:Water, ZONE HVAC BASEBOARD CONVECTIVE WATER 18, Design Size Maximum Water Flow Rate [m3/s], 7.35578E-004
 Component Sizing Information, ZoneHVAC:Baseboard:Convective:Water, ZONE HVAC BASEBOARD CONVECTIVE WATER 18, Design Size U-Factor Times Area Value [W/K], 1501.53861
 Component Sizing Information, AirTerminal:SingleDuct:VAV:Reheat, AIR TERMINAL SINGLE DUCT VAV REHEAT 2, Design Size Maximum Air Flow Rate [m3/s], 5.71500
 Component Sizing Information, AirTerminal:SingleDuct:VAV:Reheat, AIR TERMINAL SINGLE DUCT VAV REHEAT 2, Design Size Constant Minimum Air Flow Fraction, 0.33333
 Component Sizing Information, AirTerminal:SingleDuct:VAV:Reheat, AIR TERMINAL SINGLE DUCT VAV REHEAT 2, User-Specified Constant Minimum Air Flow Fraction, 0.30000
 Component Sizing Information, AirTerminal:SingleDuct:VAV:Reheat, AIR TERMINAL SINGLE DUCT VAV REHEAT 2, Design Size Minimum Air Flow Rate [m3/s], 1.71450
 Component Sizing Information, AirTerminal:SingleDuct:VAV:Reheat, AIR TERMINAL SINGLE DUCT VAV REHEAT 2, Design Size Maximum Flow per Zone Floor Area during Reheat [m3/s-m2], 6.85800E-004
 Component Sizing Information, AirTerminal:SingleDuct:VAV:Reheat, AIR TERMINAL SINGLE DUCT VAV REHEAT 2, Design Size Maximum Flow Fraction during Reheat [], 0.30000
 Component Sizing Information, AirTerminal:SingleDuct:VAV:Reheat, AIR TERMINAL SINGLE DUCT VAV REHEAT 2, Design Size Maximum Reheat Water Flow Rate [m3/s], 2.72396E-004
 Component Sizing Information, AirTerminal:SingleDuct:VAV:Reheat, AIR TERMINAL SINGLE DUCT VAV REHEAT 2, Design Size Reheat Coil Sizing Air Volume Flow Rate [m3/s], 1.71450
 Component Sizing Information, AirTerminal:SingleDuct:VAV:Reheat, AIR TERMINAL SINGLE DUCT VAV REHEAT 2, Design Size Reheat Coil Sizing Inlet Air Temperature [C], 13.10000
 Component Sizing Information, AirTerminal:SingleDuct:VAV:Reheat, AIR TERMINAL SINGLE DUCT VAV REHEAT 2, Design Size Reheat Coil Sizing Inlet Air Humidity Ratio [kgWater/kgDryAir], 8.00000E-003
 Component Sizing Information, Coil:Heating:Water, COIL HEATING WATER 6, Design Size Rated Capacity [W], 18237.77507
 Component Sizing Information, Coil:Heating:Water, COIL HEATING WATER 6, Design Size Maximum Water Flow Rate [m3/s], 2.72396E-004
 Component Sizing Information, Coil:Heating:Water, COIL HEATING WATER 6, Design Size U-Factor Times Area Value [W/K], 328.83315
Water Heating Coil Capacity Information,Coil:Heating:Water,COIL HEATING WATER 6,17100.44
 Component Sizing Information, ZoneHVAC:Baseboard:Convective:Water, ZONE HVAC BASEBOARD CONVECTIVE WATER 17, Design Size Maximum Water Flow Rate [m3/s], 0.00000
 Component Sizing Information, ZoneHVAC:Baseboard:Convective:Water, ZONE HVAC BASEBOARD CONVECTIVE WATER 17, Design Size U-Factor Times Area Value [W/K], 0.00000
 Component Sizing Information, AirTerminal:SingleDuct:Uncontrolled, AIR TERMINAL SINGLE DUCT UNCONTROLLED 15, Design Size Maximum Air Flow Rate [m3/s], 6.04668
 Component Sizing Information, ZoneHVAC:Baseboard:Convective:Water, ZONE HVAC BASEBOARD CONVECTIVE WATER 13, Design Size Maximum Water Flow Rate [m3/s], 1.55678E-004
 Component Sizing Information, ZoneHVAC:Baseboard:Convective:Water, ZONE HVAC BASEBOARD CONVECTIVE WATER 13, Design Size U-Factor Times Area Value [W/K], 316.48191
 Component Sizing Information, ZoneHVAC:PackagedTerminalAirConditioner, SP-WHOLEBUILDING-HOTEL/MOTEL SYS-1 FLR-4 SCH-F HPLCMT-NORTH ZN PTAC, Design Size Cooling Supply Air Flow Rate [m3/s], 2.59066
 Component Sizing Information, ZoneHVAC:PackagedTerminalAirConditioner, SP-WHOLEBUILDING-HOTEL/MOTEL SYS-1 FLR-4 SCH-F HPLCMT-NORTH ZN PTAC, Design Size Heating Supply Air Flow Rate [m3/s], 2.59066
 Component Sizing Information, ZoneHVAC:PackagedTerminalAirConditioner, SP-WHOLEBUILDING-HOTEL/MOTEL SYS-1 FLR-4 SCH-F HPLCMT-NORTH ZN PTAC, Design Size No Load Supply Air Flow Rate [m3/s], 2.59066
 Component Sizing Information, ZoneHVAC:PackagedTerminalAirConditioner, SP-WHOLEBUILDING-HOTEL/MOTEL SYS-1 FLR-4 SCH-F HPLCMT-NORTH ZN PTAC, Design Size Outdoor Air Flow Rate During Cooling Operation [m3/s], 0.75248
 Component Sizing Information, ZoneHVAC:PackagedTerminalAirConditioner, SP-WHOLEBUILDING-HOTEL/MOTEL SYS-1 FLR-4 SCH-F HPLCMT-NORTH ZN PTAC, Design Size Outdoor Air Flow Rate During Heating Operation [m3/s], 0.75248
 Component Sizing Information, ZoneHVAC:PackagedTerminalAirConditioner, SP-WHOLEBUILDING-HOTEL/MOTEL SYS-1 FLR-4 SCH-F HPLCMT-NORTH ZN PTAC, Design Size Outdoor Air Flow Rate When No Cooling or Heating is Needed [m3/s], 0.75248
 Component Sizing Information, Coil:Cooling:DX:SingleSpeed, COIL COOLING DX SINGLE SPEED 5, Design Size Rated Air Flow Rate [m3/s], 2.59066
 Component Sizing Information, Coil:Cooling:DX:SingleSpeed, COIL COOLING DX SINGLE SPEED 5, Design Size Gross Rated Total Cooling Capacity [W], 42884.58040
 Component Sizing Information, Coil:Cooling:DX:SingleSpeed, COIL COOLING DX SINGLE SPEED 5, Design Size Gross Rated Sensible Heat Ratio, 0.80066
! <DX Cooling Coil Standard Rating Information>, Component Type, Component Name, Standard Rating (Net) Cooling Capacity {W}, Standard Rated Net COP {W/W}, EER {Btu/W-h}, SEER {Btu/W-h}, IEER {Btu/W-h}
 DX Cooling Coil Standard Rating Information, Coil:Cooling:DX:SingleSpeed, COIL COOLING DX SINGLE SPEED 5, 40873.2, 2.51, 8.56, 9.04, 8.63
 Component Sizing Information, Coil:Heating:Electric, COIL HEATING ELECTRIC 4, Design Size Nominal Capacity [W], 101739.09813
[...]
 Component Sizing Information, Controller:WaterCoil, CONTROLLER WATER COIL 11, Controller Convergence Tolerance, 1.32481E-004
 Component Sizing Information, Controller:WaterCoil, CONTROLLER WATER COIL 10, Maximum Actuated Flow [m3/s], 1.27968E-003
 Component Sizing Information, Controller:WaterCoil, CONTROLLER WATER COIL 10, Controller Convergence Tolerance, 3.72117E-004
Water Heater Information,WaterHeater:Mixed,1131GAL NATURALGAS WATER HEATER - 1788KBTU/HR,4.2829,524048.4,0.160,0.9279
 Component Sizing Information, PlantLoop, CHILLED WATER LOOP, Maximum Loop Flow Rate [m3/s], 2.73039E-003
 Component Sizing Information, PlantLoop, CHILLED WATER LOOP, Plant Loop Volume [m3], 0.32765
 Component Sizing Information, Pump:ConstantSpeed, PUMP CONSTANT SPEED 1, Design Flow Rate [m3/s], 2.73039E-003
 Component Sizing Information, Pump:ConstantSpeed, PUMP CONSTANT SPEED 1, Design Power Consumption [W], 697.58071
 Component Sizing Information, Chiller:Electric:EIR, PRIMARY CHILLER WATERCOOLED SCROLL, Design Size Reference Chilled Water Flow Rate [m3/s], 2.73039E-003
 Component Sizing Information, Chiller:Electric:EIR, PRIMARY CHILLER WATERCOOLED SCROLL, Design Size Reference Capacity [W], 68765.00726
 Component Sizing Information, Chiller:Electric:EIR, PRIMARY CHILLER WATERCOOLED SCROLL, Design Size Reference Condenser Fluid Flow Rate [m3/s], 3.24076E-003
! <Chiller Standard Rating Information>, Component Type, Component Name, IPLV in SI Units {W/W}, IPLV in IP Units {Btu/W-h}
 Chiller Standard Rating Information, Chiller:Electric:EIR, PRIMARY CHILLER WATERCOOLED SCROLL, 7.88, 26.88
 Component Sizing Information, Chiller:Electric:EIR, SECONDARY CHILLER WATERCOOLED SCROLL, Design Size Reference Chilled Water Flow Rate [m3/s], 2.73039E-003
 Component Sizing Information, Chiller:Electric:EIR, SECONDARY CHILLER WATERCOOLED SCROLL, Design Size Reference Capacity [W], 68765.00726
 Component Sizing Information, Chiller:Electric:EIR, SECONDARY CHILLER WATERCOOLED SCROLL, Design Size Reference Condenser Fluid Flow Rate [m3/s], 3.24076E-003
 Chiller Standard Rating Information, Chiller:Electric:EIR, SECONDARY CHILLER WATERCOOLED SCROLL, 7.88, 26.88
 Component Sizing Information, PlantLoop, CHILLED WATER LOOP 1, Maximum Loop Flow Rate [m3/s], 1.03464E-002
 Component Sizing Information, PlantLoop, CHILLED WATER LOOP 1, Plant Loop Volume [m3], 1.24157
 Component Sizing Information, Pump:ConstantSpeed, PUMP CONSTANT SPEED 3, Design Flow Rate [m3/s], 1.03464E-002
 Component Sizing Information, Pump:ConstantSpeed, PUMP CONSTANT SPEED 3, Design Power Consumption [W], 2643.36915
 Component Sizing Information, Chiller:Electric:EIR, PRIMARY CHILLER WATERCOOLED SCROLL 1, Design Size Reference Chilled Water Flow Rate [m3/s], 1.03464E-002
 Component Sizing Information, Chiller:Electric:EIR, PRIMARY CHILLER WATERCOOLED SCROLL 1, Design Size Reference Capacity [W], 260573.86134
 Component Sizing Information, Chiller:Electric:EIR, PRIMARY CHILLER WATERCOOLED SCROLL 1, Design Size Reference Condenser Fluid Flow Rate [m3/s], 1.22804E-002
 Chiller Standard Rating Information, Chiller:Electric:EIR, PRIMARY CHILLER WATERCOOLED SCROLL 1, 7.88, 26.88
 Component Sizing Information, Chiller:Electric:EIR, SECONDARY CHILLER WATERCOOLED SCROLL 1, Design Size Reference Chilled Water Flow Rate [m3/s], 1.03464E-002
 Component Sizing Information, Chiller:Electric:EIR, SECONDARY CHILLER WATERCOOLED SCROLL 1, Design Size Reference Capacity [W], 260573.86134
 Component Sizing Information, Chiller:Electric:EIR, SECONDARY CHILLER WATERCOOLED SCROLL 1, Design Size Reference Condenser Fluid Flow Rate [m3/s], 1.22804E-002
 Chiller Standard Rating Information, Chiller:Electric:EIR, SECONDARY CHILLER WATERCOOLED SCROLL 1, 7.88, 26.88
 Component Sizing Information, PlantLoop, CONDENSER WATER LOOP, Maximum Loop Flow Rate [m3/s], 6.48153E-003
 Component Sizing Information, PlantLoop, CONDENSER WATER LOOP, Plant Loop Volume [m3], 0.77778
 Component Sizing Information, Pump:ConstantSpeed, PUMP CONSTANT SPEED 2, Design Flow Rate [m3/s], 6.48153E-003
 Component Sizing Information, Pump:ConstantSpeed, PUMP CONSTANT SPEED 2, Design Power Consumption [W], 1655.94727
 Component Sizing Information, CoolingTower:SingleSpeed, COOLING TOWER SINGLE SPEED 1, Design Water Flow Rate [m3/s], 6.48153E-003
 Component Sizing Information, CoolingTower:SingleSpeed, COOLING TOWER SINGLE SPEED 1, Fan Power at Design Air Flow Rate [W], 1422.15816
 Component Sizing Information, CoolingTower:SingleSpeed, COOLING TOWER SINGLE SPEED 1, Design Air Flow Rate [m3/s], 3.91065
 Component Sizing Information, CoolingTower:SingleSpeed, COOLING TOWER SINGLE SPEED 1, U-Factor Times Area Value at Design Air Flow Rate [W/C], 6983.37699
 Component Sizing Information, CoolingTower:SingleSpeed, COOLING TOWER SINGLE SPEED 1, Free Convection Regime Air Flow Rate [m3/s], 0.39107
 Component Sizing Information, CoolingTower:SingleSpeed, COOLING TOWER SINGLE SPEED 1, Free Convection U-Factor Times Area Value [W/K], 698.33770
 Component Sizing Information, PlantLoop, CONDENSER WATER LOOP 1, Maximum Loop Flow Rate [m3/s], 2.45607E-002
 Component Sizing Information, PlantLoop, CONDENSER WATER LOOP 1, Plant Loop Volume [m3], 2.94728
 Component Sizing Information, Pump:ConstantSpeed, PUMP CONSTANT SPEED 4, Design Flow Rate [m3/s], 2.45607E-002
 Component Sizing Information, Pump:ConstantSpeed, PUMP CONSTANT SPEED 4, Design Power Consumption [W], 6274.94407
 Component Sizing Information, CoolingTower:SingleSpeed, COOLING TOWER SINGLE SPEED 2, Design Water Flow Rate [m3/s], 2.45607E-002
 Component Sizing Information, CoolingTower:SingleSpeed, COOLING TOWER SINGLE SPEED 2, Fan Power at Design Air Flow Rate [W], 5389.03808
 Component Sizing Information, CoolingTower:SingleSpeed, COOLING TOWER SINGLE SPEED 2, Design Air Flow Rate [m3/s], 14.81878
 Component Sizing Information, CoolingTower:SingleSpeed, COOLING TOWER SINGLE SPEED 2, U-Factor Times Area Value at Design Air Flow Rate [W/C], 26462.37643
 Component Sizing Information, CoolingTower:SingleSpeed, COOLING TOWER SINGLE SPEED 2, Free Convection Regime Air Flow Rate [m3/s], 1.48188
 Component Sizing Information, CoolingTower:SingleSpeed, COOLING TOWER SINGLE SPEED 2, Free Convection U-Factor Times Area Value [W/K], 2646.23764
 Component Sizing Information, PlantLoop, HOT WATER LOOP, Maximum Loop Flow Rate [m3/s], 1.72629E-002
 Component Sizing Information, PlantLoop, HOT WATER LOOP, Plant Loop Volume [m3], 2.07154
 Component Sizing Information, Pump:VariableSpeed, PUMP VARIABLE SPEED 1, Design Flow Rate [m3/s], 1.72629E-002
 Component Sizing Information, Pump:VariableSpeed, PUMP VARIABLE SPEED 1, Design Power Consumption [W], 4410.44069
 Component Sizing Information, Boiler:HotWater, PRIMARY BOILER, Design Size Nominal Capacity [W], 1160277.61562
 Component Sizing Information, Boiler:HotWater, PRIMARY BOILER, Design Size Design Water Flow Rate [m3/s], 1.72629E-002
 Component Sizing Information, Boiler:HotWater, SECONDARY BOILER, Design Size Nominal Capacity [W], 1160277.61562
 Component Sizing Information, Boiler:HotWater, SECONDARY BOILER, Design Size Design Water Flow Rate [m3/s], 1.72629E-002
 Component Sizing Information, PlantLoop, MAIN SERVICE WATER LOOP, Maximum Loop Flow Rate [m3/s], 2.07636E-003
 Component Sizing Information, PlantLoop, MAIN SERVICE WATER LOOP, Plant Loop Volume [m3], 0.24916
 Component Sizing Information, Pump:ConstantSpeed, SERVICE WATER LOOP PUMP, Design Flow Rate [m3/s], 2.07636E-003
 Component Sizing Information, Pump:ConstantSpeed, SERVICE WATER LOOP PUMP, Design Power Consumption [W], 421.34302
 Component Sizing Information, WaterHeater:Mixed, 1131GAL NATURALGAS WATER HEATER - 1788KBTU/HR, Use Side Design Flow Rate [m3/s], 2.07636E-003
! <Environment>,Environment Name,Environment Type, Start Date, End Date, Start DayOfWeek, Duration {#days}, Source:Start DayOfWeek,  Use Daylight Saving, Use Holidays, Apply Weekend Holiday Rule,  Use Rain Values, Use Snow Values
! <Environment:Special Days>, Special Day Name, Special Day Type, Source, Start Date, Duration {#days}
! <Environment:Daylight Saving>, Daylight Saving Indicator, Source, Start Date, End Date
! <Environment:WarmupDays>, NumberofWarmupDays
Environment,FORT MCMURRAY AP ANN CLG .4% CONDNS DB=>MWB,SizingPeriod:DesignDay,07/21,07/21,SummerDesignDay,1,N/A,N/A,N/A,N/A,N/A,N/A
Environment:Daylight Saving,No,SizingPeriod:DesignDay
! <Environment:Design Day Data>, Max Dry-Bulb Temp {C}, Temp Range {dC}, Temp Range Ind Type, Hum Ind Value at Max Temp, Hum Ind Type,Pressure {Pa}, Wind Direction {deg CW from N}, Wind Speed {m/s}, Clearness, Rain, Snow
! <Environment:Design Day Misc>,DayOfYear,ASHRAE A Coeff,ASHRAE B Coeff,ASHRAE C Coeff,Solar Constant-Annual Variation,Eq of Time {minutes}, Solar Declination Angle {deg}, Solar Model
Environment:Design Day Data,28.90,12.40,DefaultMultipliers,96969,250,3.7,0.00,No,No
Environment:Design Day Misc,202,1084.4,0.2082,0.1365,1.0,-6.23,20.6,ASHRAETau
Environment:WarmupDays,  6
! <Tabular Report>,Style,Unit Conversion
Tabular Report,HTML,None
! <Warmup Convergence Information>,Zone Name,Environment Type/Name,Average Warmup Temperature Difference {deltaC},Std Dev Warmup Temperature Difference {deltaC},Max Temperature Pass/Fail Convergence,Min Temperature Pass/Fail Convergence,Average Warmup Load Difference {W},Std Dev Warmup Load Difference {W},Heating Load Pass/Fail Convergence,Cooling Load Pass/Fail Convergence
 Warmup Convergence Information,SP-WHOLEBUILDING-AUTOMOTIVE FACILITY SYS-4 FLR-4 SCH-E HPLCMT-SOUTH ZN,SizingPeriod: FORT MCMURRAY AP ANN CLG .4% CONDNS DB=>MWB,5.2042264934E-002,7.6051374357E-002,Pass,Pass,7.3819935444E-002,0.4230789532,Pass,Pass
 Warmup Convergence Information,SP-WHOLEBUILDING-CONVENTION CENTRE SYS-3 FLR-3 SCH-C HPLCMT-CORE ZN,SizingPeriod: FORT MCMURRAY AP ANN CLG .4% CONDNS DB=>MWB,2.0634841891E-002,3.9461449121E-002,Pass,Pass,4.6234938382E-002,0.2374180158,Pass,Pass
 Warmup Convergence Information,SP-WHOLEBUILDING-COURTHOUSE SYS-3 FLR-3 SCH-A HPLCMT-EAST ZN,SizingPeriod: FORT MCMURRAY AP ANN CLG .4% CONDNS DB=>MWB,3.8771918652E-002,0.1360674041,Pass,Pass,6.2057357891E-002,0.2990446957,Pass,Pass
 Warmup Convergence Information,SP-WHOLEBUILDING-DINING - BAR LOUNGE/LEISURE SYS-3 FLR-3 SCH-B HPLCMT-NORTH ZN,SizingPeriod: FORT MCMURRAY AP ANN CLG .4% CONDNS DB=>MWB,1.7624764630E-002,3.8986275181E-002,Pass,Pass,2.9144684993E-002,5.3355754929E-002,Pass,Pass
 Warmup Convergence Information,SP-WHOLEBUILDING-DINING - CAFETERIA/FAST FOOD SYS-3 FLR-1 SCH-B HPLCMT-WEST ZN,SizingPeriod: FORT MCMURRAY AP ANN CLG .4% CONDNS DB=>MWB,2.4058079684E-002,4.7005641568E-002,Pass,Pass,4.0178033486E-002,9.9730875043E-002,Pass,Pass
 Warmup Convergence Information,SP-WHOLEBUILDING-DINING - FAMILY SYS-3 FLR-4 SCH-B HPLCMT-CORE ZN,SizingPeriod: FORT MCMURRAY AP ANN CLG .4% CONDNS DB=>MWB,3.6818293328E-002,6.8535140580E-002,Pass,Pass,2.9280280396E-002,4.3232571351E-002,Pass,Pass
 Warmup Convergence Information,SP-WHOLEBUILDING-DORMITORY SYS-3 FLR-3 SCH-G HPLCMT-SOUTH ZN,SizingPeriod: FORT MCMURRAY AP ANN CLG .4% CONDNS DB=>MWB,1.1330444367E-004,2.1830102689E-004,Pass,Pass,2.3134539375E-002,3.6128473842E-002,Pass,Pass
 Warmup Convergence Information,SP-WHOLEBUILDING-EXERCISE CENTRE SYS-6 FLR-2 SCH-B HPLCMT-SOUTH ZN,SizingPeriod: FORT MCMURRAY AP ANN CLG .4% CONDNS DB=>MWB,1.4557704235E-002,3.8774844276E-002,Pass,Pass,2.0547149942E-002,5.8207040662E-002,Pass,Pass
 Warmup Convergence Information,SP-WHOLEBUILDING-FIRE STATION SYS-4 FLR-1 SCH-F HPLCMT-NORTH ZN,SizingPeriod: FORT MCMURRAY AP ANN CLG .4% CONDNS DB=>MWB,1.4271710414E-002,2.4892530042E-002,Pass,Pass,2.2993034919E-002,4.4563591165E-002,Pass,Pass
 Warmup Convergence Information,SP-WHOLEBUILDING-GYMNASIUM SYS-6 FLR-4 SCH-B HPLCMT-WEST ZN,SizingPeriod: FORT MCMURRAY AP ANN CLG .4% CONDNS DB=>MWB,3.7806003358E-002,7.0074956665E-002,Pass,Pass,2.1187180324E-002,2.9811570222E-002,Pass,Pass
 Warmup Convergence Information,SP-WHOLEBUILDING-HEALTH CARE CLINIC SYS-6 FLR-2 SCH-A HPLCMT-CORE ZN,SizingPeriod: FORT MCMURRAY AP ANN CLG .4% CONDNS DB=>MWB,2.1344641844E-002,4.8837125317E-002,Pass,Pass,9.7472673989E-003,3.6618900056E-002,Pass,Pass
 Warmup Convergence Information,SP-WHOLEBUILDING-HOSPITAL SYS-3 FLR-4 SCH-H HPLCMT-EAST ZN,SizingPeriod: FORT MCMURRAY AP ANN CLG .4% CONDNS DB=>MWB,7.1395183902E-003,2.0626194157E-002,Pass,Pass,1.1618806878E-002,1.1065417506E-002,Pass,Pass
 Warmup Convergence Information,SP-WHOLEBUILDING-HOTEL/MOTEL SYS-1 FLR-4 SCH-F HPLCMT-NORTH ZN,SizingPeriod: FORT MCMURRAY AP ANN CLG .4% CONDNS DB=>MWB,6.0997140924E-003,1.5409757350E-002,Pass,Pass,4.8699489482E-002,6.8792908504E-002,Pass,Pass
 Warmup Convergence Information,SP-WHOLEBUILDING-LIBRARY SYS-2 FLR-1 SCH-C HPLCMT-SOUTH ZN,SizingPeriod: FORT MCMURRAY AP ANN CLG .4% CONDNS DB=>MWB,2.8663981224E-002,4.0590844274E-002,Pass,Pass,3.5252046265E-002,0.1160217212,Pass,Pass
 Warmup Convergence Information,SP-WHOLEBUILDING-LONG-TERM CARE - DWELLING UNITS SYS-1 FLR-1 SCH-J HPLCMT-EAST ZN,SizingPeriod: FORT MCMURRAY AP ANN CLG .4% CONDNS DB=>MWB,6.7655460806E-003,2.0997653140E-002,Pass,Pass,3.7725407474E-002,6.2161286934E-002,Pass,Pass
 Warmup Convergence Information,SP-WHOLEBUILDING-LONG-TERM CARE - OTHER SYS-1 FLR-2 SCH-B HPLCMT-WEST ZN,SizingPeriod: FORT MCMURRAY AP ANN CLG .4% CONDNS DB=>MWB,2.6955231044E-002,9.0791354304E-002,Pass,Pass,5.8537568240E-002,0.2591362980,Pass,Pass
 Warmup Convergence Information,SP-WHOLEBUILDING-MANUFACTURING FACILITY SYS-3 FLR-3 SCH-A HPLCMT-WEST ZN,SizingPeriod: FORT MCMURRAY AP ANN CLG .4% CONDNS DB=>MWB,2.7537156564E-002,7.3730827347E-002,Pass,Pass,3.4946871421E-002,0.1544398260,Pass,Pass
 Warmup Convergence Information,SP-WHOLEBUILDING-MOTION PICTURE THEATRE SYS-3 FLR-1 SCH-C HPLCMT-CORE ZN,SizingPeriod: FORT MCMURRAY AP ANN CLG .4% CONDNS DB=>MWB,1.9545425719E-002,3.5297779403E-002,Pass,Pass,4.8972730720E-002,0.2407594764,Pass,Pass
 Warmup Convergence Information,SP-WHOLEBUILDING-MULTI-UNIT RESIDENTIAL BUILDING SYS-1 FLR-2 SCH-G HPLCMT-NORTH ZN,SizingPeriod: FORT MCMURRAY AP ANN CLG .4% CONDNS DB=>MWB,4.3312234249E-003,1.3229711666E-002,Pass,Pass,3.3570926937E-002,5.6969040662E-002,Pass,Pass
 Warmup Convergence Information,SP-WHOLEBUILDING-MUSEUM SYS-2 FLR-2 SCH-C HPLCMT-EAST ZN,SizingPeriod: FORT MCMURRAY AP ANN CLG .4% CONDNS DB=>MWB,3.1801294407E-002,4.1010992008E-002,Pass,Pass,3.7307278502E-002,0.1654113874,Pass,Pass
Environment,FORT MCMURRAY AP ANN HTG 99.6% CONDNS DB,SizingPeriod:DesignDay,01/21,01/21,WinterDesignDay,1,N/A,N/A,N/A,N/A,N/A,N/A
Environment:Daylight Saving,No,SizingPeriod:DesignDay
Environment:Design Day Data,-36.20,0.00,DefaultMultipliers,96969,90,1.0,0.00,No,No
Environment:Design Day Misc, 21,1229.0,0.1415,5.7310E-002,1.0,-11.15,-20.1,ASHRAEClearSky
Environment:WarmupDays,  6
 Warmup Convergence Information,SP-WHOLEBUILDING-AUTOMOTIVE FACILITY SYS-4 FLR-4 SCH-E HPLCMT-SOUTH ZN,SizingPeriod: FORT MCMURRAY AP ANN HTG 99.6% CONDNS DB,5.5568169198E-002,0.3097551083,Pass,Pass,5.2509023441E-002,0.1961447800,Pass,Pass
 Warmup Convergence Information,SP-WHOLEBUILDING-CONVENTION CENTRE SYS-3 FLR-3 SCH-C HPLCMT-CORE ZN,SizingPeriod: FORT MCMURRAY AP ANN HTG 99.6% CONDNS DB,5.5702658376E-002,0.2380100075,Pass,Pass,0.2314984158,0.5422935044,Pass,Pass
 Warmup Convergence Information,SP-WHOLEBUILDING-COURTHOUSE SYS-3 FLR-3 SCH-A HPLCMT-EAST ZN,SizingPeriod: FORT MCMURRAY AP ANN HTG 99.6% CONDNS DB,5.5561968431E-002,0.2644061790,Pass,Pass,0.2494760643,0.5978740994,Pass,Pass
 Warmup Convergence Information,SP-WHOLEBUILDING-DINING - BAR LOUNGE/LEISURE SYS-3 FLR-3 SCH-B HPLCMT-NORTH ZN,SizingPeriod: FORT MCMURRAY AP ANN HTG 99.6% CONDNS DB,5.5803351581E-002,0.2431689390,Pass,Pass,0.8196526436,5.3968302376,Pass,Pass
 Warmup Convergence Information,SP-WHOLEBUILDING-DINING - CAFETERIA/FAST FOOD SYS-3 FLR-1 SCH-B HPLCMT-WEST ZN,SizingPeriod: FORT MCMURRAY AP ANN HTG 99.6% CONDNS DB,5.6747279891E-002,0.2163486458,Pass,Pass,0.2800350236,1.0925377149,Pass,Pass
 Warmup Convergence Information,SP-WHOLEBUILDING-DINING - FAMILY SYS-3 FLR-4 SCH-B HPLCMT-CORE ZN,SizingPeriod: FORT MCMURRAY AP ANN HTG 99.6% CONDNS DB,5.5591557451E-002,0.2785963627,Pass,Pass,0.2137352526,0.6799697703,Pass,Pass
 Warmup Convergence Information,SP-WHOLEBUILDING-DORMITORY SYS-3 FLR-3 SCH-G HPLCMT-SOUTH ZN,SizingPeriod: FORT MCMURRAY AP ANN HTG 99.6% CONDNS DB,5.6033991645E-002,0.2458656075,Pass,Pass,0.1441922958,0.4438429565,Pass,Pass
 Warmup Convergence Information,SP-WHOLEBUILDING-EXERCISE CENTRE SYS-6 FLR-2 SCH-B HPLCMT-SOUTH ZN,SizingPeriod: FORT MCMURRAY AP ANN HTG 99.6% CONDNS DB,4.6816073351E-002,4.8038787748E-002,Pass,Pass,7.2495265336E-003,7.9593308701E-003,Pass,Pass
 Warmup Convergence Information,SP-WHOLEBUILDING-FIRE STATION SYS-4 FLR-1 SCH-F HPLCMT-NORTH ZN,SizingPeriod: FORT MCMURRAY AP ANN HTG 99.6% CONDNS DB,3.7042944467E-002,0.1409240823,Pass,Pass,0.3489554826,1.7491470987,Pass,Pass
 Warmup Convergence Information,SP-WHOLEBUILDING-GYMNASIUM SYS-6 FLR-4 SCH-B HPLCMT-WEST ZN,SizingPeriod: FORT MCMURRAY AP ANN HTG 99.6% CONDNS DB,5.6346848282E-002,0.2757607864,Pass,Pass,6.8735540223E-002,0.1817906945,Pass,Pass
 Warmup Convergence Information,SP-WHOLEBUILDING-HEALTH CARE CLINIC SYS-6 FLR-2 SCH-A HPLCMT-CORE ZN,SizingPeriod: FORT MCMURRAY AP ANN HTG 99.6% CONDNS DB,3.3882121221E-002,4.4695181924E-002,Pass,Pass,2.5856512697E-003,4.3634025953E-003,Pass,Pass
 Warmup Convergence Information,SP-WHOLEBUILDING-HOSPITAL SYS-3 FLR-4 SCH-H HPLCMT-EAST ZN,SizingPeriod: FORT MCMURRAY AP ANN HTG 99.6% CONDNS DB,5.5564496985E-002,0.2855563005,Pass,Pass,0.2157273135,1.2722399245,Pass,Pass
 Warmup Convergence Information,SP-WHOLEBUILDING-HOTEL/MOTEL SYS-1 FLR-4 SCH-F HPLCMT-NORTH ZN,SizingPeriod: FORT MCMURRAY AP ANN HTG 99.6% CONDNS DB,5.7133179167E-002,0.1918408952,Pass,Pass,147.1476811220,1758.8867705580,Pass,Pass
 Warmup Convergence Information,SP-WHOLEBUILDING-LIBRARY SYS-2 FLR-1 SCH-C HPLCMT-SOUTH ZN,SizingPeriod: FORT MCMURRAY AP ANN HTG 99.6% CONDNS DB,6.7168037841E-002,0.2508688537,Pass,Pass,0.6174565122,5.2683790862,Pass,Pass
 Warmup Convergence Information,SP-WHOLEBUILDING-LONG-TERM CARE - DWELLING UNITS SYS-1 FLR-1 SCH-J HPLCMT-EAST ZN,SizingPeriod: FORT MCMURRAY AP ANN HTG 99.6% CONDNS DB,1.8918594929E-002,1.6172565454E-002,Pass,Pass,9.2225141927E-003,8.3256557491E-003,Pass,Pass
 Warmup Convergence Information,SP-WHOLEBUILDING-LONG-TERM CARE - OTHER SYS-1 FLR-2 SCH-B HPLCMT-WEST ZN,SizingPeriod: FORT MCMURRAY AP ANN HTG 99.6% CONDNS DB,4.0696674225E-002,7.7410280134E-002,Pass,Pass,0.7527585807,5.5031401533,Pass,Pass
 Warmup Convergence Information,SP-WHOLEBUILDING-MANUFACTURING FACILITY SYS-3 FLR-3 SCH-A HPLCMT-WEST ZN,SizingPeriod: FORT MCMURRAY AP ANN HTG 99.6% CONDNS DB,5.5559484869E-002,0.2714093853,Pass,Pass,0.1956672230,0.4130735266,Pass,Pass
 Warmup Convergence Information,SP-WHOLEBUILDING-MOTION PICTURE THEATRE SYS-3 FLR-1 SCH-C HPLCMT-CORE ZN,SizingPeriod: FORT MCMURRAY AP ANN HTG 99.6% CONDNS DB,5.5576356900E-002,0.2150041509,Pass,Pass,0.2203804374,0.4807701588,Pass,Pass
 Warmup Convergence Information,SP-WHOLEBUILDING-MULTI-UNIT RESIDENTIAL BUILDING SYS-1 FLR-2 SCH-G HPLCMT-NORTH ZN,SizingPeriod: FORT MCMURRAY AP ANN HTG 99.6% CONDNS DB,4.0071417701E-002,5.3664832974E-002,Pass,Pass,0.1142975959,0.2343900040,Pass,Pass
 Warmup Convergence Information,SP-WHOLEBUILDING-MUSEUM SYS-2 FLR-2 SCH-C HPLCMT-EAST ZN,SizingPeriod: FORT MCMURRAY AP ANN HTG 99.6% CONDNS DB,8.0867077961E-002,0.2515127013,Pass,Pass,0.2897403525,0.8828817736,Pass,Pass
! <Program Control Information:Threads/Parallel Sims>, Threading Supported,Maximum Number of Threads, Env Set Threads (OMP_NUM_THREADS), EP Env Set Threads (EP_OMP_NUM_THREADS), IDF Set Threads, Number of Threads Used (Interior Radiant Exchange), Number Nominal Surfaces, Number Parallel Sims
Program Control:Threads/Parallel Sims, No,1, N/A, N/A, N/A, N/A, N/A, N/A
End of Data
