Program Version,EnergyPlus, Version 8.9.0-eba93e8e1b, YMD=2019.03.28 13:55
! <Version>, Version ID
 Version, 8.9
! <Timesteps per Hour>, #TimeSteps, Minutes per TimeStep {minutes}
 Timesteps per Hour,  6, 10
! <System Convergence Limits>, Minimum System TimeStep {minutes}, Max HVAC Iterations, Minimum Plant Iterations, Maximum Plant Iterations
 System Convergence Limits, 1, 20, 2, 8
! <Simulation Control>, Do Zone Sizing, Do System Sizing, Do Plant Sizing, Do Design Days, Do Weather Simulation, Do HVAC Sizing Simulation
 Simulation Control, Yes, Yes, Yes, Yes, No, No
! <Output Reporting Tolerances>, Tolerance for Time Heating Setpoint Not Met, Tolerance for Zone Cooling Setpoint Not Met Time
 Output Reporting Tolerances, 1.000, 1.000, 
! <Site:GroundTemperature:BuildingSurface>,Jan{C},Feb{C},Mar{C},Apr{C},May{C},Jun{C},Jul{C},Aug{C},Sep{C},Oct{C},Nov{C},Dec{C}
 Site:GroundTemperature:BuildingSurface,  19.53,  19.50,  19.54,  19.60,  20.00,  21.64,  22.23,  22.38,  21.45,  20.12,  19.80,  19.63
! <Site:GroundTemperature:FCfactorMethod>,Jan{C},Feb{C},Mar{C},Apr{C},May{C},Jun{C},Jul{C},Aug{C},Sep{C},Oct{C},Nov{C},Dec{C}
 Site:GroundTemperature:FCfactorMethod, -12.27, -13.66, -11.19,  -7.33,   2.77,  10.57,  15.83,  17.43,  14.70,   8.65,   0.56,  -6.95
! <Site:GroundTemperature:Shallow>,Jan{C},Feb{C},Mar{C},Apr{C},May{C},Jun{C},Jul{C},Aug{C},Sep{C},Oct{C},Nov{C},Dec{C}
 Site:GroundTemperature:Shallow,  13.00,  13.00,  13.00,  13.00,  13.00,  13.00,  13.00,  13.00,  13.00,  13.00,  13.00,  13.00
! <Site:GroundTemperature:Deep>,Jan{C},Feb{C},Mar{C},Apr{C},May{C},Jun{C},Jul{C},Aug{C},Sep{C},Oct{C},Nov{C},Dec{C}
 Site:GroundTemperature:Deep,  16.00,  16.00,  16.00,  16.00,  16.00,  16.00,  16.00,  16.00,  16.00,  16.00,  16.00,  16.00
! <Site:GroundReflectance>,Jan{dimensionless},Feb{dimensionless},Mar{dimensionless},Apr{dimensionless},May{dimensionless},Jun{dimensionless},Jul{dimensionless},Aug{dimensionless},Sep{dimensionless},Oct{dimensionless},Nov{dimensionless},Dec{dimensionless}
 Site:GroundReflectance,  0.20,  0.20,  0.20,  0.20,  0.20,  0.20,  0.20,  0.20,  0.20,  0.20,  0.20,  0.20
! <Site:GroundReflectance:SnowModifier>, Normal, Daylighting {dimensionless}
 Site:GroundReflectance:SnowModifier,   1.000,   1.000
! <Site:GroundReflectance:Snow>,Jan{dimensionless},Feb{dimensionless},Mar{dimensionless},Apr{dimensionless},May{dimensionless},Jun{dimensionless},Jul{dimensionless},Aug{dimensionless},Sep{dimensionless},Oct{dimensionless},Nov{dimensionless},Dec{dimensionless}
 Site:GroundReflectance:Snow,  0.20,  0.20,  0.20,  0.20,  0.20,  0.20,  0.20,  0.20,  0.20,  0.20,  0.20,  0.20
! <Site:GroundReflectance:Snow:Daylighting>,Jan{dimensionless},Feb{dimensionless},Mar{dimensionless},Apr{dimensionless},May{dimensionless},Jun{dimensionless},Jul{dimensionless},Aug{dimensionless},Sep{dimensionless},Oct{dimensionless},Nov{dimensionless},Dec{dimensionless}
 Site:GroundReflectance:Snow:Daylighting,  0.20,  0.20,  0.20,  0.20,  0.20,  0.20,  0.20,  0.20,  0.20,  0.20,  0.20,  0.20
! <Environment:Weather Station>,Wind Sensor Height Above Ground {m},Wind Speed Profile Exponent {},Wind Speed Profile Boundary Layer Thickness {m},Air Temperature Sensor Height Above Ground {m},Wind Speed Modifier Coefficient-Internal,Temperature Modifier Coefficient-Internal
Environment:Weather Station,10.000,0.140,270.000,1.500,1.586,9.750E-003
! <Site:Location>, Location Name, Latitude {N+/S- Deg}, Longitude {E+/W- Deg},  Time Zone Number {GMT+/-}, Elevation {m},  Standard Pressure at Elevation {Pa}, Standard RhoAir at Elevation
Site:Location,Fort McMurray AP AB CAN CWEC2016 WMO#=716890,56.65,-111.22,-7.00,369.10,96969,1.1525
! <Building Information>, Building Name,North Axis {deg},Terrain,  Loads Convergence Tolerance Value,Temperature Convergence Tolerance Value,  Solar Distribution,Maximum Number of Warmup Days,Minimum Number of Warmup Days
 Building Information,Building 1,0.000,Suburbs,4.00000E-002,0.40000,FullExterior,25,6
! <Inside Convection Algorithm>, Algorithm {Simple | TARP | CeilingDiffuser | AdaptiveConvectionAlgorithm}
Inside Convection Algorithm,TARP
! <Outside Convection Algorithm>, Algorithm {SimpleCombined | TARP | MoWitt | DOE-2 | AdaptiveConvectionAlgorithm}
Outside Convection Algorithm,TARP
! <Sky Radiance Distribution>, Value {Anisotropic}
Sky Radiance Distribution,Anisotropic
! <Zone Air Solution Algorithm>, Value {ThirdOrderBackwardDifference | AnalyticalSolution | EulerMethod}
 Zone Air Solution Algorithm, ThirdOrderBackwardDifference
! <Zone Air Carbon Dioxide Balance Simulation>, Simulation {Yes/No}, Carbon Dioxide Concentration
 Zone Air Carbon Dioxide Balance Simulation, No,N/A
! <Zone Air Generic Contaminant Balance Simulation>, Simulation {Yes/No}, Generic Contaminant Concentration
 Zone Air Generic Contaminant Balance Simulation, No,N/A
! <Zone Air Mass Flow Balance Simulation>, Enforce Mass Balance, Adjust Zone Mixing, Adjust Zone Infiltration {AddInfiltration | AdjustInfiltration | None}, Infiltration Zones {MixingSourceZonesOnly | AllZones}
 Zone Air Mass Flow Balance Simulation, No,N/A,N/A,N/A
! <HVACSystemRootFindingAlgorithm>, Value {RegulaFalsi | Bisection | BisectionThenRegulaFalsi | RegulaFalsiThenBisection}
 HVACSystemRootFindingAlgorithm, RegulaFalsi
! <Environment:Site Atmospheric Variation>,Wind Speed Profile Exponent {},Wind Speed Profile Boundary Layer Thickness {m},Air Temperature Gradient Coefficient {K/m}
Environment:Site Atmospheric Variation,0.220,370.000,6.500000E-003
! <Surface Geometry>,Starting Corner,Vertex Input Direction,Coordinate System,Daylight Reference Point Coordinate System,Rectangular (Simple) Surface Coordinate System
 Surface Geometry,UpperLeftCorner,Counterclockwise,RelativeCoordinateSystem,RelativeCoordinateSystem,RelativeToZoneOrigin
! <Surface Heat Transfer Algorithm>, Value {CTF - ConductionTransferFunction | EMPD - MoisturePenetrationDepthConductionTransferFunction | CondFD - ConductionFiniteDifference | HAMT - CombinedHeatAndMoistureFiniteElement} - Description,Inside Surface Max Temperature Limit{C}, Surface Convection Coefficient Lower Limit {W/m2-K}, Surface Convection Coefficient Upper Limit {W/m2-K}
Surface Heat Transfer Algorithm, CTF - ConductionTransferFunction,200,0.10,1000.0
! <Shading Summary>, Number of Fixed Detached Shades, Number of Building Detached Shades, Number of Attached Shades
 Shading Summary,0,0,0
! <Zone Summary>, Number of Zones, Number of Zone Surfaces, Number of SubSurfaces
 Zone Summary,20,137,17
! <Zone Information>,Zone Name,North Axis {deg},Origin X-Coordinate {m},Origin Y-Coordinate {m},Origin Z-Coordinate {m},Centroid X-Coordinate {m},Centroid Y-Coordinate {m},Centroid Z-Coordinate {m},Type,Zone Multiplier,Zone List Multiplier,Minimum X {m},Maximum X {m},Minimum Y {m},Maximum Y {m},Minimum Z {m},Maximum Z {m},Ceiling Height {m},Volume {m3},Zone Inside Convection Algorithm {Simple-Detailed-CeilingDiffuser-TrombeWall},Zone Outside Convection Algorithm {Simple-Detailed-Tarp-MoWitt-DOE-2-BLAST}, Floor Area {m2},Exterior Gross Wall Area {m2},Exterior Net Wall Area {m2},Exterior Window Area {m2}, Number of Surfaces, Number of SubSurfaces, Number of Shading SubSurfaces,  Part of Total Building Area
 Zone Information, SP-FIRE STATION SLEEPING QUARTERS-SPACE FUNCTION SYS-3 FLR-4 SCH-G HPLCMT-CORE ZN,0.0,25.00,25.00,11.40,50.00,50.00,13.30,1,1,1,25.00,75.00,25.00,75.00,11.40,15.20,3.80,9500.00,TARP,TARP,2500.00,0.00,0.00,125.00,6,1,0,Yes
 Zone Information, SP-GYMNASIUM/FITNESS CENTRE EXERCISE AREA-SPACE FUNCTION SYS-6 FLR-4 SCH-B HPLCMT-NORTH ZN,0.0,25.00,75.00,11.40,50.00,89.15,13.30,1,1,1,0.00,100.00,75.00,100.00,11.40,15.20,3.80,7125.00,TARP,TARP,1875.00,380.00,285.00,188.75,6,2,0,Yes
 Zone Information, SP-GYMNASIUM/FITNESS CENTRE PLAYING AREA-SPACE FUNCTION SYS-6 FLR-4 SCH-B HPLCMT-WEST ZN,0.0,0.00,0.00,11.40,10.85,50.00,13.30,1,1,1,0.00,25.00,0.00,100.00,11.40,15.20,3.80,7125.00,TARP,TARP,1875.00,380.00,285.00,188.75,6,2,0,Yes
 Zone Information, SP-HEALTH CARE FACILITY EXAM/TREATMENT ROOM-SPACE FUNCTION SYS-3 FLR-3 SCH-C HPLCMT-EAST ZN,0.0,75.00,25.00,7.60,89.15,50.00,9.50,1,1,1,75.00,100.00,0.00,100.00,7.60,11.40,3.80,7125.00,TARP,TARP,1875.00,380.00,285.00,95.00,6,1,0,Yes
 Zone Information, SP-HEALTH CARE FACILITY IMAGING ROOM-SPACE FUNCTION SYS-3 FLR-3 SCH-H HPLCMT-WEST ZN,0.0,0.00,0.00,7.60,10.85,50.00,9.50,1,1,1,0.00,25.00,0.00,100.00,7.60,11.40,3.80,7125.00,TARP,TARP,1875.00,380.00,285.00,95.00,6,1,0,Yes
 Zone Information, SP-HEALTH CARE FACILITY MEDICAL SUPPLY ROOM-SPACE FUNCTION SYS-3 FLR-4 SCH-H HPLCMT-SOUTH ZN,0.0,0.00,0.00,11.40,50.00,10.85,13.30,1,1,1,0.00,100.00,0.00,25.00,11.40,15.20,3.80,7125.00,TARP,TARP,1875.00,380.00,285.00,188.75,6,2,0,Yes
 Zone Information, SP-HEALTH CARE FACILITY NURSERY-SPACE FUNCTION SYS-3 FLR-4 SCH-H HPLCMT-EAST ZN,0.0,75.00,25.00,11.40,89.15,50.00,13.30,1,1,1,75.00,100.00,0.00,100.00,11.40,15.20,3.80,7125.00,TARP,TARP,1875.00,380.00,285.00,188.75,6,2,0,Yes
 Zone Information, SP-HEALTH CARE FACILITY NURSES STATION-SPACE FUNCTION SYS-3 FLR-1 SCH-H HPLCMT-WEST ZN,0.0,0.00,0.00,0.00,10.85,50.00,1.90,1,1,1,0.00,25.00,0.00,100.00,0.00,3.80,3.80,7125.00,TARP,TARP,1875.00,0.00,0.00,0.00,6,0,0,Yes
 Zone Information, SP-HEALTH CARE FACILITY OPERATING ROOM-SPACE FUNCTION SYS-3 FLR-1 SCH-H HPLCMT-NORTH ZN,0.0,25.00,75.00,0.00,50.00,89.15,1.90,1,1,1,0.00,100.00,75.00,100.00,0.00,3.80,3.80,7125.00,TARP,TARP,1875.00,0.00,0.00,0.00,6,0,0,Yes
 Zone Information, SP-HEALTH CARE FACILITY PATIENT ROOM-SPACE FUNCTION SYS-3 FLR-1 SCH-H HPLCMT-SOUTH ZN,0.0,0.00,0.00,0.00,50.00,10.85,1.90,1,1,1,0.00,100.00,0.00,25.00,0.00,3.80,3.80,7125.00,TARP,TARP,1875.00,0.00,0.00,0.00,6,0,0,Yes
 Zone Information, SP-HEALTH CARE FACILITY PHYSICAL THERAPY ROOM-SPACE FUNCTION SYS-3 FLR-1 SCH-C HPLCMT-EAST ZN,0.0,75.00,25.00,0.00,89.15,50.00,1.90,1,1,1,75.00,100.00,0.00,100.00,0.00,3.80,3.80,7125.00,TARP,TARP,1875.00,0.00,0.00,0.00,6,0,0,Yes
 Zone Information, SP-HEALTH CARE FACILITY RECOVERY ROOM-SPACE FUNCTION SYS-3 FLR-3 SCH-H HPLCMT-CORE ZN,0.0,25.00,25.00,7.60,50.00,50.00,9.50,1,1,1,25.00,75.00,25.00,75.00,7.60,11.40,3.80,9500.00,TARP,TARP,2500.00,0.00,0.00,0.00,6,0,0,Yes
 Zone Information, SP-LIBRARY READING AREA-SPACE FUNCTION SYS-6 FLR-1 SCH-C HPLCMT-CORE ZN,0.0,25.00,25.00,0.00,50.00,50.00,1.90,1,1,1,25.00,75.00,25.00,75.00,0.00,3.80,3.80,9500.00,TARP,TARP,2500.00,0.00,0.00,0.00,6,0,0,Yes
 Zone Information, SP-LIBRARY STACKS-SPACE FUNCTION SYS-6 FLR-2 SCH-C HPLCMT-WEST ZN,0.0,0.00,0.00,3.80,10.85,50.00,5.70,1,1,1,0.00,25.00,0.00,100.00,3.80,7.60,3.80,7125.00,TARP,TARP,1875.00,380.00,285.00,95.00,6,1,0,Yes
 Zone Information, SP-MANUFACTURING FACILITY DETAILED MANUFACTURING AREA-SPACE FUNCTION SYS-3 FLR-3 SCH-A HPLCMT-NORTH ZN,0.0,25.00,75.00,7.60,50.00,89.15,9.50,1,1,1,0.00,100.00,75.00,100.00,7.60,11.40,3.80,7125.00,TARP,TARP,1875.00,380.00,285.00,95.00,6,1,0,Yes
 Zone Information, SP-MANUFACTURING FACILITY EQUIPMENT ROOM-SPACE FUNCTION SYS-3 FLR-2 SCH-A HPLCMT-EAST ZN,0.0,75.00,25.00,3.80,89.15,50.00,5.70,1,1,1,75.00,100.00,0.00,100.00,3.80,7.60,3.80,7125.00,TARP,TARP,1875.00,380.00,285.00,95.00,6,1,0,Yes
 Zone Information, SP-MANUFACTURING FACILITY EXTRA HIGH BAY AREA (> 15 M FLOOR-TO-CEILING HEIGHT)-SPACE FUNCTION SYS-3 FLR-3 SCH-A HPLCMT-SOUTH ZN,0.0,0.00,0.00,7.60,50.00,10.85,9.50,1,1,1,0.00,100.00,0.00,25.00,7.60,11.40,3.80,7125.00,TARP,TARP,1875.00,380.00,285.00,95.00,6,1,0,Yes
 Zone Information, SP-MANUFACTURING FACILITY HIGH BAY AREA (7.5 TO 15 M FLOOR-TO-CEILING HEIGHT)-SPACE FUNCTION SYS-3 FLR-2 SCH-A HPLCMT-NORTH ZN,0.0,25.00,75.00,3.80,50.00,89.15,5.70,1,1,1,0.00,100.00,75.00,100.00,3.80,7.60,3.80,7125.00,TARP,TARP,1875.00,380.00,285.00,95.00,6,1,0,Yes
 Zone Information, SP-MANUFACTURING FACILITY LOW BAY AREA (< 7.5 M FLOOR-TO-CEILING HEIGHT)-SPACE FUNCTION SYS-3 FLR-2 SCH-A HPLCMT-SOUTH ZN,0.0,0.00,0.00,3.80,50.00,10.85,5.70,1,1,1,0.00,100.00,0.00,25.00,3.80,7.60,3.80,7125.00,TARP,TARP,1875.00,380.00,285.00,95.00,6,1,0,Yes
 Zone Information, SP-MUSEUM GENERAL EXHIBITION AREA-SPACE FUNCTION SYS-2 FLR-2 SCH-C HPLCMT-CORE ZN,0.0,25.00,25.00,3.80,50.00,50.00,5.70,1,1,1,25.00,75.00,25.00,75.00,3.80,7.60,3.80,9500.00,TARP,TARP,2500.00,0.00,0.00,0.00,6,0,0,Yes
! <Zone Internal Gains Nominal>,Zone Name, Floor Area {m2},# Occupants,Area per Occupant {m2/person},Occupant per Area {person/m2},Interior Lighting {W/m2},Electric Load {W/m2},Gas Load {W/m2},Other Load {W/m2},Hot Water Eq {W/m2},Steam Equipment {W/m2},Sum Loads per Area {W/m2},Outdoor Controlled Baseboard Heat
 Zone Internal Gains Nominal, SP-FIRE STATION SLEEPING QUARTERS-SPACE FUNCTION SYS-3 FLR-4 SCH-G HPLCMT-CORE ZN,2500.00,100.0,24.991,4.001E-002,2.401,2.501,0.000,0.000,0.000,0.000,4.902,No
 Zone Internal Gains Nominal, SP-GYMNASIUM/FITNESS CENTRE EXERCISE AREA-SPACE FUNCTION SYS-6 FLR-4 SCH-B HPLCMT-NORTH ZN,1875.00,375.1,4.998,0.200,7.803,1.000,0.000,0.000,0.000,0.000,8.803,No
 Zone Internal Gains Nominal, SP-GYMNASIUM/FITNESS CENTRE PLAYING AREA-SPACE FUNCTION SYS-6 FLR-4 SCH-B HPLCMT-WEST ZN,1875.00,375.1,4.998,0.200,13.005,1.501,0.000,0.000,0.000,0.000,14.505,No
 Zone Internal Gains Nominal, SP-HEALTH CARE FACILITY EXAM/TREATMENT ROOM-SPACE FUNCTION SYS-3 FLR-3 SCH-C HPLCMT-EAST ZN,1875.00,93.8,19.993,5.002E-002,18.007,10.004,0.000,0.000,0.000,0.000,28.010,No
 Zone Internal Gains Nominal, SP-HEALTH CARE FACILITY IMAGING ROOM-SPACE FUNCTION SYS-3 FLR-3 SCH-H HPLCMT-WEST ZN,1875.00,93.8,19.993,5.002E-002,16.306,10.004,0.000,0.000,0.000,0.000,26.310,No
 Zone Internal Gains Nominal, SP-HEALTH CARE FACILITY MEDICAL SUPPLY ROOM-SPACE FUNCTION SYS-3 FLR-4 SCH-H HPLCMT-SOUTH ZN,1875.00,93.8,19.993,5.002E-002,8.003,1.000,0.000,0.000,0.000,0.000,9.003,No
 Zone Internal Gains Nominal, SP-HEALTH CARE FACILITY NURSERY-SPACE FUNCTION SYS-3 FLR-4 SCH-H HPLCMT-EAST ZN,1875.00,93.8,19.993,5.002E-002,9.503,10.004,0.000,0.000,0.000,0.000,19.507,No
 Zone Internal Gains Nominal, SP-HEALTH CARE FACILITY NURSES STATION-SPACE FUNCTION SYS-3 FLR-1 SCH-H HPLCMT-WEST ZN,1875.00,93.8,19.993,5.002E-002,7.603,2.501,0.000,0.000,0.000,0.000,10.104,No
 Zone Internal Gains Nominal, SP-HEALTH CARE FACILITY OPERATING ROOM-SPACE FUNCTION SYS-3 FLR-1 SCH-H HPLCMT-NORTH ZN,1875.00,93.8,19.993,5.002E-002,26.810,10.004,0.000,0.000,0.000,0.000,36.813,No
 Zone Internal Gains Nominal, SP-HEALTH CARE FACILITY PATIENT ROOM-SPACE FUNCTION SYS-3 FLR-1 SCH-H HPLCMT-SOUTH ZN,1875.00,93.8,19.993,5.002E-002,6.702,10.004,0.000,0.000,0.000,0.000,16.706,No
 Zone Internal Gains Nominal, SP-HEALTH CARE FACILITY PHYSICAL THERAPY ROOM-SPACE FUNCTION SYS-3 FLR-1 SCH-C HPLCMT-EAST ZN,1875.00,93.8,19.993,5.002E-002,9.904,10.004,0.000,0.000,0.000,0.000,19.907,No
 Zone Internal Gains Nominal, SP-HEALTH CARE FACILITY RECOVERY ROOM-SPACE FUNCTION SYS-3 FLR-3 SCH-H HPLCMT-CORE ZN,2500.00,125.0,19.993,5.002E-002,12.405,10.004,0.000,0.000,0.000,0.000,22.408,No
 Zone Internal Gains Nominal, SP-LIBRARY READING AREA-SPACE FUNCTION SYS-6 FLR-1 SCH-C HPLCMT-CORE ZN,2500.00,125.0,19.993,5.002E-002,11.504,1.000,0.000,0.000,0.000,0.000,12.505,No
 Zone Internal Gains Nominal, SP-LIBRARY STACKS-SPACE FUNCTION SYS-6 FLR-2 SCH-C HPLCMT-WEST ZN,1875.00,93.8,19.993,5.002E-002,18.407,0.000,0.000,0.000,0.000,0.000,18.407,No
 Zone Internal Gains Nominal, SP-MANUFACTURING FACILITY DETAILED MANUFACTURING AREA-SPACE FUNCTION SYS-3 FLR-3 SCH-A HPLCMT-NORTH ZN,1875.00,62.5,29.989,3.335E-002,13.905,10.004,0.000,0.000,0.000,0.000,23.909,No
 Zone Internal Gains Nominal, SP-MANUFACTURING FACILITY EQUIPMENT ROOM-SPACE FUNCTION SYS-3 FLR-2 SCH-A HPLCMT-EAST ZN,1875.00,62.5,29.989,3.335E-002,8.003,10.004,0.000,0.000,0.000,0.000,18.007,No
 Zone Internal Gains Nominal, SP-MANUFACTURING FACILITY EXTRA HIGH BAY AREA (> 15 M FLOOR-TO-CEILING HEIGHT)-SPACE FUNCTION SYS-3 FLR-3 SCH-A HPLCMT-SOUTH ZN,1875.00,62.5,29.989,3.335E-002,11.304,10.004,0.000,0.000,0.000,0.000,21.308,No
 Zone Internal Gains Nominal, SP-MANUFACTURING FACILITY HIGH BAY AREA (7.5 TO 15 M FLOOR-TO-CEILING HEIGHT)-SPACE FUNCTION SYS-3 FLR-2 SCH-A HPLCMT-NORTH ZN,1875.00,62.5,29.989,3.335E-002,13.305,10.004,0.000,0.000,0.000,0.000,23.308,No
 Zone Internal Gains Nominal, SP-MANUFACTURING FACILITY LOW BAY AREA (< 7.5 M FLOOR-TO-CEILING HEIGHT)-SPACE FUNCTION SYS-3 FLR-2 SCH-A HPLCMT-SOUTH ZN,1875.00,62.5,29.989,3.335E-002,12.905,10.004,0.000,0.000,0.000,0.000,22.908,No
 Zone Internal Gains Nominal, SP-MUSEUM GENERAL EXHIBITION AREA-SPACE FUNCTION SYS-2 FLR-2 SCH-C HPLCMT-CORE ZN,2500.00,500.2,4.998,0.200,11.404,2.501,0.000,0.000,0.000,0.000,13.905,No
! <People Internal Gains Nominal>,Name,Schedule Name,Zone Name,Zone Floor Area {m2},# Zone Occupants,Number of People {},People/Floor Area {person/m2},Floor Area per person {m2/person},Fraction Radiant,Fraction Convected,Sensible Fraction Calculation,Activity level,ASHRAE 55 Warnings,Carbon Dioxide Generation Rate,Nominal Minimum Number of People,Nominal Maximum Number of People
 People Internal Gains Nominal, SP-FIRE STATION SLEEPING QUARTERS-SPACE FUNCTION SYS-3 FLR-4 SCH-G HPLCMT-CORE ZN SPACE FUNCTION FIRE STATION SLEEPING QUARTERS PEOPLE,NECB-G-OCCUPANCY,SP-FIRE STATION SLEEPING QUARTERS-SPACE FUNCTION SYS-3 FLR-4 SCH-G HPLCMT-CORE ZN,2500.00,100.0,100.0,4.001E-002,24.991,0.300,0.700,AutoCalculate,NECB-ACTIVITY,No,3.8200E-008,30,90
 People Internal Gains Nominal, SP-GYMNASIUM/FITNESS CENTRE EXERCISE AREA-SPACE FUNCTION SYS-6 FLR-4 SCH-B HPLCMT-NORTH ZN SPACE FUNCTION GYMNASIUM/FITNESS CENTRE EXERCISE AREA PEOPLE,NECB-B-OCCUPANCY,SP-GYMNASIUM/FITNESS CENTRE EXERCISE AREA-SPACE FUNCTION SYS-6 FLR-4 SCH-B HPLCMT-NORTH ZN,1875.00,375.1,375.1,0.200,4.998,0.300,0.700,AutoCalculate,NECB-ACTIVITY,No,3.8200E-008,0,338
 People Internal Gains Nominal, SP-GYMNASIUM/FITNESS CENTRE PLAYING AREA-SPACE FUNCTION SYS-6 FLR-4 SCH-B HPLCMT-WEST ZN SPACE FUNCTION GYMNASIUM/FITNESS CENTRE PLAYING AREA PEOPLE,NECB-B-OCCUPANCY,SP-GYMNASIUM/FITNESS CENTRE PLAYING AREA-SPACE FUNCTION SYS-6 FLR-4 SCH-B HPLCMT-WEST ZN,1875.00,375.1,375.1,0.200,4.998,0.300,0.700,AutoCalculate,NECB-ACTIVITY,No,3.8200E-008,0,338
 People Internal Gains Nominal, SP-HEALTH CARE FACILITY EXAM/TREATMENT ROOM-SPACE FUNCTION SYS-3 FLR-3 SCH-C HPLCMT-EAST ZN SPACE FUNCTION HEALTH CARE FACILITY EXAM/TREATMENT ROOM PEOPLE,NECB-C-OCCUPANCY,SP-HEALTH CARE FACILITY EXAM/TREATMENT ROOM-SPACE FUNCTION SYS-3 FLR-3 SCH-C HPLCMT-EAST ZN,1875.00,93.8,93.8,5.002E-002,19.993,0.300,0.700,AutoCalculate,NECB-ACTIVITY,No,3.8200E-008,0,84
 People Internal Gains Nominal, SP-HEALTH CARE FACILITY IMAGING ROOM-SPACE FUNCTION SYS-3 FLR-3 SCH-H HPLCMT-WEST ZN SPACE FUNCTION HEALTH CARE FACILITY IMAGING ROOM PEOPLE,NECB-H-OCCUPANCY,SP-HEALTH CARE FACILITY IMAGING ROOM-SPACE FUNCTION SYS-3 FLR-3 SCH-H HPLCMT-WEST ZN,1875.00,93.8,93.8,5.002E-002,19.993,0.300,0.700,AutoCalculate,NECB-ACTIVITY,No,3.8200E-008,84,84
 People Internal Gains Nominal, SP-HEALTH CARE FACILITY MEDICAL SUPPLY ROOM-SPACE FUNCTION SYS-3 FLR-4 SCH-H HPLCMT-SOUTH ZN SPACE FUNCTION HEALTH CARE FACILITY MEDICAL SUPPLY ROOM PEOPLE,NECB-H-OCCUPANCY,SP-HEALTH CARE FACILITY MEDICAL SUPPLY ROOM-SPACE FUNCTION SYS-3 FLR-4 SCH-H HPLCMT-SOUTH ZN,1875.00,93.8,93.8,5.002E-002,19.993,0.300,0.700,AutoCalculate,NECB-ACTIVITY,No,3.8200E-008,84,84
 People Internal Gains Nominal, SP-HEALTH CARE FACILITY NURSERY-SPACE FUNCTION SYS-3 FLR-4 SCH-H HPLCMT-EAST ZN SPACE FUNCTION HEALTH CARE FACILITY NURSERY PEOPLE,NECB-H-OCCUPANCY,SP-HEALTH CARE FACILITY NURSERY-SPACE FUNCTION SYS-3 FLR-4 SCH-H HPLCMT-EAST ZN,1875.00,93.8,93.8,5.002E-002,19.993,0.300,0.700,AutoCalculate,NECB-ACTIVITY,No,3.8200E-008,84,84
 People Internal Gains Nominal, SP-HEALTH CARE FACILITY NURSES STATION-SPACE FUNCTION SYS-3 FLR-1 SCH-H HPLCMT-WEST ZN SPACE FUNCTION HEALTH CARE FACILITY NURSES STATION PEOPLE,NECB-H-OCCUPANCY,SP-HEALTH CARE FACILITY NURSES STATION-SPACE FUNCTION SYS-3 FLR-1 SCH-H HPLCMT-WEST ZN,1875.00,93.8,93.8,5.002E-002,19.993,0.300,0.700,AutoCalculate,NECB-ACTIVITY,No,3.8200E-008,84,84
 People Internal Gains Nominal, SP-HEALTH CARE FACILITY OPERATING ROOM-SPACE FUNCTION SYS-3 FLR-1 SCH-H HPLCMT-NORTH ZN SPACE FUNCTION HEALTH CARE FACILITY OPERATING ROOM PEOPLE,NECB-H-OCCUPANCY,SP-HEALTH CARE FACILITY OPERATING ROOM-SPACE FUNCTION SYS-3 FLR-1 SCH-H HPLCMT-NORTH ZN,1875.00,93.8,93.8,5.002E-002,19.993,0.300,0.700,AutoCalculate,NECB-ACTIVITY,No,3.8200E-008,84,84
 People Internal Gains Nominal, SP-HEALTH CARE FACILITY PATIENT ROOM-SPACE FUNCTION SYS-3 FLR-1 SCH-H HPLCMT-SOUTH ZN SPACE FUNCTION HEALTH CARE FACILITY PATIENT ROOM PEOPLE,NECB-H-OCCUPANCY,SP-HEALTH CARE FACILITY PATIENT ROOM-SPACE FUNCTION SYS-3 FLR-1 SCH-H HPLCMT-SOUTH ZN,1875.00,93.8,93.8,5.002E-002,19.993,0.300,0.700,AutoCalculate,NECB-ACTIVITY,No,3.8200E-008,84,84
 People Internal Gains Nominal, SP-HEALTH CARE FACILITY PHYSICAL THERAPY ROOM-SPACE FUNCTION SYS-3 FLR-1 SCH-C HPLCMT-EAST ZN SPACE FUNCTION HEALTH CARE FACILITY PHYSICAL THERAPY ROOM PEOPLE,NECB-C-OCCUPANCY,SP-HEALTH CARE FACILITY PHYSICAL THERAPY ROOM-SPACE FUNCTION SYS-3 FLR-1 SCH-C HPLCMT-EAST ZN,1875.00,93.8,93.8,5.002E-002,19.993,0.300,0.700,AutoCalculate,NECB-ACTIVITY,No,3.8200E-008,0,84
 People Internal Gains Nominal, SP-HEALTH CARE FACILITY RECOVERY ROOM-SPACE FUNCTION SYS-3 FLR-3 SCH-H HPLCMT-CORE ZN SPACE FUNCTION HEALTH CARE FACILITY RECOVERY ROOM PEOPLE,NECB-H-OCCUPANCY,SP-HEALTH CARE FACILITY RECOVERY ROOM-SPACE FUNCTION SYS-3 FLR-3 SCH-H HPLCMT-CORE ZN,2500.00,125.0,125.0,5.002E-002,19.993,0.300,0.700,AutoCalculate,NECB-ACTIVITY,No,3.8200E-008,113,113
 People Internal Gains Nominal, SP-LIBRARY READING AREA-SPACE FUNCTION SYS-6 FLR-1 SCH-C HPLCMT-CORE ZN SPACE FUNCTION LIBRARY READING AREA PEOPLE,NECB-C-OCCUPANCY,SP-LIBRARY READING AREA-SPACE FUNCTION SYS-6 FLR-1 SCH-C HPLCMT-CORE ZN,2500.00,125.0,125.0,5.002E-002,19.993,0.300,0.700,AutoCalculate,NECB-ACTIVITY,No,3.8200E-008,0,113
 People Internal Gains Nominal, SP-LIBRARY STACKS-SPACE FUNCTION SYS-6 FLR-2 SCH-C HPLCMT-WEST ZN SPACE FUNCTION LIBRARY STACKS PEOPLE,NECB-C-OCCUPANCY,SP-LIBRARY STACKS-SPACE FUNCTION SYS-6 FLR-2 SCH-C HPLCMT-WEST ZN,1875.00,93.8,93.8,5.002E-002,19.993,0.300,0.700,AutoCalculate,NECB-ACTIVITY,No,3.8200E-008,0,84
 People Internal Gains Nominal, SP-MANUFACTURING FACILITY DETAILED MANUFACTURING AREA-SPACE FUNCTION SYS-3 FLR-3 SCH-A HPLCMT-NORTH ZN SPACE FUNCTION MANUFACTURING FACILITY DETAILED MANUFACTURING AREA PEOPLE,NECB-A-OCCUPANCY,SP-MANUFACTURING FACILITY DETAILED MANUFACTURING AREA-SPACE FUNCTION SYS-3 FLR-3 SCH-A HPLCMT-NORTH ZN,1875.00,62.5,62.5,3.335E-002,29.989,0.300,0.700,AutoCalculate,NECB-ACTIVITY,No,3.8200E-008,0,56
 People Internal Gains Nominal, SP-MANUFACTURING FACILITY EQUIPMENT ROOM-SPACE FUNCTION SYS-3 FLR-2 SCH-A HPLCMT-EAST ZN SPACE FUNCTION MANUFACTURING FACILITY EQUIPMENT ROOM PEOPLE,NECB-A-OCCUPANCY,SP-MANUFACTURING FACILITY EQUIPMENT ROOM-SPACE FUNCTION SYS-3 FLR-2 SCH-A HPLCMT-EAST ZN,1875.00,62.5,62.5,3.335E-002,29.989,0.300,0.700,AutoCalculate,NECB-ACTIVITY,No,3.8200E-008,0,56
 People Internal Gains Nominal, SP-MANUFACTURING FACILITY EXTRA HIGH BAY AREA (> 15 M FLOOR-TO-CEILING HEIGHT)-SPACE FUNCTION SYS-3 FLR-3 SCH-A HPLCMT-SOUTH ZN SPACE FUNCTION MANUFACTURING FACILITY EXTRA HIGH BAY AREA (> 15 M FLOOR-TO-CEILING HEIGHT) PEOPLE,NECB-A-OCCUPANCY,SP-MANUFACTURING FACILITY EXTRA HIGH BAY AREA (> 15 M FLOOR-TO-CEILING HEIGHT)-SPACE FUNCTION SYS-3 FLR-3 SCH-A HPLCMT-SOUTH ZN,1875.00,62.5,62.5,3.335E-002,29.989,0.300,0.700,AutoCalculate,NECB-ACTIVITY,No,3.8200E-008,0,56
 People Internal Gains Nominal, SP-MANUFACTURING FACILITY HIGH BAY AREA (7.5 TO 15 M FLOOR-TO-CEILING HEIGHT)-SPACE FUNCTION SYS-3 FLR-2 SCH-A HPLCMT-NORTH ZN SPACE FUNCTION MANUFACTURING FACILITY HIGH BAY AREA (7.5 TO 15 M FLOOR-TO-CEILING HEIGHT) PEOPLE,NECB-A-OCCUPANCY,SP-MANUFACTURING FACILITY HIGH BAY AREA (7.5 TO 15 M FLOOR-TO-CEILING HEIGHT)-SPACE FUNCTION SYS-3 FLR-2 SCH-A HPLCMT-NORTH ZN,1875.00,62.5,62.5,3.335E-002,29.989,0.300,0.700,AutoCalculate,NECB-ACTIVITY,No,3.8200E-008,0,56
 People Internal Gains Nominal, SP-MANUFACTURING FACILITY LOW BAY AREA (< 7.5 M FLOOR-TO-CEILING HEIGHT)-SPACE FUNCTION SYS-3 FLR-2 SCH-A HPLCMT-SOUTH ZN SPACE FUNCTION MANUFACTURING FACILITY LOW BAY AREA (< 7.5 M FLOOR-TO-CEILING HEIGHT) PEOPLE,NECB-A-OCCUPANCY,SP-MANUFACTURING FACILITY LOW BAY AREA (< 7.5 M FLOOR-TO-CEILING HEIGHT)-SPACE FUNCTION SYS-3 FLR-2 SCH-A HPLCMT-SOUTH ZN,1875.00,62.5,62.5,3.335E-002,29.989,0.300,0.700,AutoCalculate,NECB-ACTIVITY,No,3.8200E-008,0,56
 People Internal Gains Nominal, SP-MUSEUM GENERAL EXHIBITION AREA-SPACE FUNCTION SYS-2 FLR-2 SCH-C HPLCMT-CORE ZN SPACE FUNCTION MUSEUM GENERAL EXHIBITION AREA PEOPLE,NECB-C-OCCUPANCY,SP-MUSEUM GENERAL EXHIBITION AREA-SPACE FUNCTION SYS-2 FLR-2 SCH-C HPLCMT-CORE ZN,2500.00,500.2,500.2,0.200,4.998,0.300,0.700,AutoCalculate,NECB-ACTIVITY,No,3.8200E-008,0,450
! <Lights Internal Gains Nominal>,Name,Schedule Name,Zone Name,Zone Floor Area {m2},# Zone Occupants,Lighting Level {W},Lights/Floor Area {W/m2},Lights per person {W/person},Fraction Return Air,Fraction Radiant,Fraction Short Wave,Fraction Convected,Fraction Replaceable,End-Use Category,Nominal Minimum Lighting Level {W},Nominal Maximum Lighting Level {W}
 Lights Internal Gains Nominal, SP-FIRE STATION SLEEPING QUARTERS-SPACE FUNCTION SYS-3 FLR-4 SCH-G HPLCMT-CORE ZN SPACE FUNCTION FIRE STATION SLEEPING QUARTERS LIGHTS,NECB-G-LIGHTING,SP-FIRE STATION SLEEPING QUARTERS-SPACE FUNCTION SYS-3 FLR-4 SCH-G HPLCMT-CORE ZN,2500.00,100.0,6002.181,2.401,60.000,0.000,0.500,0.200,0.300,1.000,General,0.000,5401.962
 Lights Internal Gains Nominal, SP-GYMNASIUM/FITNESS CENTRE EXERCISE AREA-SPACE FUNCTION SYS-6 FLR-4 SCH-B HPLCMT-NORTH ZN SPACE FUNCTION GYMNASIUM/FITNESS CENTRE EXERCISE AREA LIGHTS,NECB-B-LIGHTING,SP-GYMNASIUM/FITNESS CENTRE EXERCISE AREA-SPACE FUNCTION SYS-6 FLR-4 SCH-B HPLCMT-NORTH ZN,1875.00,375.1,14630.315,7.803,39.000,0.000,0.500,0.200,0.300,1.000,General,1463.032,13167.284
 Lights Internal Gains Nominal, SP-GYMNASIUM/FITNESS CENTRE PLAYING AREA-SPACE FUNCTION SYS-6 FLR-4 SCH-B HPLCMT-WEST ZN SPACE FUNCTION GYMNASIUM/FITNESS CENTRE PLAYING AREA LIGHTS,NECB-B-OCCUPANCY-NECB-B-LIGHTING-0.0-0.0-0.67-LIGHT RULESET,SP-GYMNASIUM/FITNESS CENTRE PLAYING AREA-SPACE FUNCTION SYS-6 FLR-4 SCH-B HPLCMT-WEST ZN,1875.00,375.1,24383.858,13.005,65.000,0.000,0.500,0.200,0.300,1.000,General,2438.386,21945.473
 Lights Internal Gains Nominal, SP-HEALTH CARE FACILITY EXAM/TREATMENT ROOM-SPACE FUNCTION SYS-3 FLR-3 SCH-C HPLCMT-EAST ZN SPACE FUNCTION HEALTH CARE FACILITY EXAM/TREATMENT ROOM LIGHTS,NECB-C-OCCUPANCY-NECB-C-LIGHTING-0.3-0.0-0.67-LIGHT RULESET,SP-HEALTH CARE FACILITY EXAM/TREATMENT ROOM-SPACE FUNCTION SYS-3 FLR-3 SCH-C HPLCMT-EAST ZN,1875.00,93.8,33762.265,18.007,360.000,0.000,0.500,0.200,0.300,1.000,General,1348.803,30386.039
 Lights Internal Gains Nominal, SP-HEALTH CARE FACILITY IMAGING ROOM-SPACE FUNCTION SYS-3 FLR-3 SCH-H HPLCMT-WEST ZN SPACE FUNCTION HEALTH CARE FACILITY IMAGING ROOM LIGHTS,NECB-H-OCCUPANCY-NECB-H-LIGHTING-0.0-0.0-0.67-LIGHT RULESET,SP-HEALTH CARE FACILITY IMAGING ROOM-SPACE FUNCTION SYS-3 FLR-3 SCH-H HPLCMT-WEST ZN,1875.00,93.8,30573.607,16.306,326.000,0.000,0.500,0.200,0.300,1.000,General,27516.246,27516.246
 Lights Internal Gains Nominal, SP-HEALTH CARE FACILITY MEDICAL SUPPLY ROOM-SPACE FUNCTION SYS-3 FLR-4 SCH-H HPLCMT-SOUTH ZN SPACE FUNCTION HEALTH CARE FACILITY MEDICAL SUPPLY ROOM LIGHTS,NECB-H-LIGHTING,SP-HEALTH CARE FACILITY MEDICAL SUPPLY ROOM-SPACE FUNCTION SYS-3 FLR-4 SCH-H HPLCMT-SOUTH ZN,1875.00,93.8,15005.451,8.003,160.000,0.000,0.500,0.200,0.300,1.000,General,13504.906,13504.906
 Lights Internal Gains Nominal, SP-HEALTH CARE FACILITY NURSERY-SPACE FUNCTION SYS-3 FLR-4 SCH-H HPLCMT-EAST ZN SPACE FUNCTION HEALTH CARE FACILITY NURSERY LIGHTS,NECB-H-OCCUPANCY-NECB-H-LIGHTING-0.0-0.0-0.67-LIGHT RULESET,SP-HEALTH CARE FACILITY NURSERY-SPACE FUNCTION SYS-3 FLR-4 SCH-H HPLCMT-EAST ZN,1875.00,93.8,17818.973,9.503,190.000,0.000,0.500,0.200,0.300,1.000,General,16037.076,16037.076
 Lights Internal Gains Nominal, SP-HEALTH CARE FACILITY NURSES STATION-SPACE FUNCTION SYS-3 FLR-1 SCH-H HPLCMT-WEST ZN SPACE FUNCTION HEALTH CARE FACILITY NURSES STATION LIGHTS,NECB-H-LIGHTING,SP-HEALTH CARE FACILITY NURSES STATION-SPACE FUNCTION SYS-3 FLR-1 SCH-H HPLCMT-WEST ZN,1875.00,93.8,14255.179,7.603,152.000,0.000,0.500,0.200,0.300,1.000,General,12829.661,12829.661
 Lights Internal Gains Nominal, SP-HEALTH CARE FACILITY OPERATING ROOM-SPACE FUNCTION SYS-3 FLR-1 SCH-H HPLCMT-NORTH ZN SPACE FUNCTION HEALTH CARE FACILITY OPERATING ROOM LIGHTS,NECB-H-OCCUPANCY-NECB-H-LIGHTING-0.1-0.0-0.67-LIGHT RULESET,SP-HEALTH CARE FACILITY OPERATING ROOM-SPACE FUNCTION SYS-3 FLR-1 SCH-H HPLCMT-NORTH ZN,1875.00,93.8,50268.262,26.810,536.000,0.000,0.500,0.200,0.300,1.000,General,45241.436,45241.436
 Lights Internal Gains Nominal, SP-HEALTH CARE FACILITY PATIENT ROOM-SPACE FUNCTION SYS-3 FLR-1 SCH-H HPLCMT-SOUTH ZN SPACE FUNCTION HEALTH CARE FACILITY PATIENT ROOM LIGHTS,NECB-H-LIGHTING,SP-HEALTH CARE FACILITY PATIENT ROOM-SPACE FUNCTION SYS-3 FLR-1 SCH-H HPLCMT-SOUTH ZN,1875.00,93.8,12567.065,6.702,134.000,0.000,0.500,0.200,0.300,1.000,General,11310.359,11310.359
 Lights Internal Gains Nominal, SP-HEALTH CARE FACILITY PHYSICAL THERAPY ROOM-SPACE FUNCTION SYS-3 FLR-1 SCH-C HPLCMT-EAST ZN SPACE FUNCTION HEALTH CARE FACILITY PHYSICAL THERAPY ROOM LIGHTS,NECB-C-OCCUPANCY-NECB-C-LIGHTING-0.2-0.0-0.67-LIGHT RULESET,SP-HEALTH CARE FACILITY PHYSICAL THERAPY ROOM-SPACE FUNCTION SYS-3 FLR-1 SCH-C HPLCMT-EAST ZN,1875.00,93.8,18569.246,9.904,198.000,0.000,0.500,0.200,0.300,1.000,General,804.048,16712.321
 Lights Internal Gains Nominal, SP-HEALTH CARE FACILITY RECOVERY ROOM-SPACE FUNCTION SYS-3 FLR-3 SCH-H HPLCMT-CORE ZN SPACE FUNCTION HEALTH CARE FACILITY RECOVERY ROOM LIGHTS,NECB-H-OCCUPANCY-NECB-H-LIGHTING-0.0-0.0-0.67-LIGHT RULESET,SP-HEALTH CARE FACILITY RECOVERY ROOM-SPACE FUNCTION SYS-3 FLR-3 SCH-H HPLCMT-CORE ZN,2500.00,125.0,31011.266,12.405,248.000,0.000,0.500,0.200,0.300,1.000,General,27910.139,27910.139
 Lights Internal Gains Nominal, SP-LIBRARY READING AREA-SPACE FUNCTION SYS-6 FLR-1 SCH-C HPLCMT-CORE ZN SPACE FUNCTION LIBRARY READING AREA LIGHTS,NECB-C-OCCUPANCY-NECB-C-LIGHTING-0.0-0.0-0.67-LIGHT RULESET,SP-LIBRARY READING AREA-SPACE FUNCTION SYS-6 FLR-1 SCH-C HPLCMT-CORE ZN,2500.00,125.0,28760.448,11.504,230.000,0.000,0.500,0.200,0.300,1.000,General,1438.022,25884.404
 Lights Internal Gains Nominal, SP-LIBRARY STACKS-SPACE FUNCTION SYS-6 FLR-2 SCH-C HPLCMT-WEST ZN SPACE FUNCTION LIBRARY STACKS LIGHTS,NECB-C-OCCUPANCY-NECB-C-LIGHTING-0.0-0.0-0.67-LIGHT RULESET,SP-LIBRARY STACKS-SPACE FUNCTION SYS-6 FLR-2 SCH-C HPLCMT-WEST ZN,1875.00,93.8,34512.538,18.407,368.000,0.000,0.500,0.200,0.300,1.000,General,1725.627,31061.284
 Lights Internal Gains Nominal, SP-MANUFACTURING FACILITY DETAILED MANUFACTURING AREA-SPACE FUNCTION SYS-3 FLR-3 SCH-A HPLCMT-NORTH ZN SPACE FUNCTION MANUFACTURING FACILITY DETAILED MANUFACTURING AREA LIGHTS,NECB-A-OCCUPANCY-NECB-A-LIGHTING-0.0-0.0-0.67-LIGHT RULESET,SP-MANUFACTURING FACILITY DETAILED MANUFACTURING AREA-SPACE FUNCTION SYS-3 FLR-3 SCH-A HPLCMT-NORTH ZN,1875.00,62.5,26071.972,13.905,417.000,0.000,0.500,0.200,0.300,1.000,General,1303.599,23464.775
 Lights Internal Gains Nominal, SP-MANUFACTURING FACILITY EQUIPMENT ROOM-SPACE FUNCTION SYS-3 FLR-2 SCH-A HPLCMT-EAST ZN SPACE FUNCTION MANUFACTURING FACILITY EQUIPMENT ROOM LIGHTS,NECB-A-LIGHTING,SP-MANUFACTURING FACILITY EQUIPMENT ROOM-SPACE FUNCTION SYS-3 FLR-2 SCH-A HPLCMT-EAST ZN,1875.00,62.5,15005.451,8.003,240.000,0.000,0.500,0.200,0.300,1.000,General,750.273,13504.906
 Lights Internal Gains Nominal, SP-MANUFACTURING FACILITY EXTRA HIGH BAY AREA (> 15 M FLOOR-TO-CEILING HEIGHT)-SPACE FUNCTION SYS-3 FLR-3 SCH-A HPLCMT-SOUTH ZN SPACE FUNCTION MANUFACTURING FACILITY EXTRA HIGH BAY AREA (> 15 M FLOOR-TO-CEILING HEIGHT) LIGHTS,NECB-A-OCCUPANCY-NECB-A-LIGHTING-0.0-0.0-0.67-LIGHT RULESET,SP-MANUFACTURING FACILITY EXTRA HIGH BAY AREA (> 15 M FLOOR-TO-CEILING HEIGHT)-SPACE FUNCTION SYS-3 FLR-3 SCH-A HPLCMT-SOUTH ZN,1875.00,62.5,21195.200,11.304,339.000,0.000,0.500,0.200,0.300,1.000,General,1059.760,19075.680
 Lights Internal Gains Nominal, SP-MANUFACTURING FACILITY HIGH BAY AREA (7.5 TO 15 M FLOOR-TO-CEILING HEIGHT)-SPACE FUNCTION SYS-3 FLR-2 SCH-A HPLCMT-NORTH ZN SPACE FUNCTION MANUFACTURING FACILITY HIGH BAY AREA (7.5 TO 15 M FLOOR-TO-CEILING HEIGHT) LIGHTS,NECB-A-OCCUPANCY-NECB-A-LIGHTING-0.0-0.0-0.67-LIGHT RULESET,SP-MANUFACTURING FACILITY HIGH BAY AREA (7.5 TO 15 M FLOOR-TO-CEILING HEIGHT)-SPACE FUNCTION SYS-3 FLR-2 SCH-A HPLCMT-NORTH ZN,1875.00,62.5,24946.563,13.305,399.000,0.000,0.500,0.200,0.300,1.000,General,1247.328,22451.907
 Lights Internal Gains Nominal, SP-MANUFACTURING FACILITY LOW BAY AREA (< 7.5 M FLOOR-TO-CEILING HEIGHT)-SPACE FUNCTION SYS-3 FLR-2 SCH-A HPLCMT-SOUTH ZN SPACE FUNCTION MANUFACTURING FACILITY LOW BAY AREA (< 7.5 M FLOOR-TO-CEILING HEIGHT) LIGHTS,NECB-A-OCCUPANCY-NECB-A-LIGHTING-0.0-0.0-0.67-LIGHT RULESET,SP-MANUFACTURING FACILITY LOW BAY AREA (< 7.5 M FLOOR-TO-CEILING HEIGHT)-SPACE FUNCTION SYS-3 FLR-2 SCH-A HPLCMT-SOUTH ZN,1875.00,62.5,24196.290,12.905,387.000,0.000,0.500,0.200,0.300,1.000,General,1209.815,21776.661
 Lights Internal Gains Nominal, SP-MUSEUM GENERAL EXHIBITION AREA-SPACE FUNCTION SYS-2 FLR-2 SCH-C HPLCMT-CORE ZN SPACE FUNCTION MUSEUM GENERAL EXHIBITION AREA LIGHTS,NECB-C-OCCUPANCY-NECB-C-LIGHTING-0.2-0.0-0.67-LIGHT RULESET,SP-MUSEUM GENERAL EXHIBITION AREA-SPACE FUNCTION SYS-2 FLR-2 SCH-C HPLCMT-CORE ZN,2500.00,500.2,28510.358,11.404,57.000,0.000,0.500,0.200,0.300,1.000,General,1234.498,25659.322
! <ElectricEquipment Internal Gains Nominal>,Name,Schedule Name,Zone Name,Zone Floor Area {m2},# Zone Occupants,Equipment Level {W},Equipment/Floor Area {W/m2},Equipment per person {W/person},Fraction Latent,Fraction Radiant,Fraction Lost,Fraction Convected,End-Use SubCategory,Nominal Minimum Equipment Level {W},Nominal Maximum Equipment Level {W}
 ElectricEquipment Internal Gains Nominal, SP-FIRE STATION SLEEPING QUARTERS-SPACE FUNCTION SYS-3 FLR-4 SCH-G HPLCMT-CORE ZN SPACE FUNCTION FIRE STATION SLEEPING QUARTERS ELEC EQUIP,NECB-G-ELECTRIC-EQUIPMENT,SP-FIRE STATION SLEEPING QUARTERS-SPACE FUNCTION SYS-3 FLR-4 SCH-G HPLCMT-CORE ZN,2500.00,100.0,6252.271,2.501,62.500,0.000,0.500,0.000,0.500,General,1250.454,5627.044
 ElectricEquipment Internal Gains Nominal, SP-GYMNASIUM/FITNESS CENTRE EXERCISE AREA-SPACE FUNCTION SYS-6 FLR-4 SCH-B HPLCMT-NORTH ZN SPACE FUNCTION GYMNASIUM/FITNESS CENTRE EXERCISE AREA ELEC EQUIP,NECB-B-ELECTRIC-EQUIPMENT,SP-GYMNASIUM/FITNESS CENTRE EXERCISE AREA-SPACE FUNCTION SYS-6 FLR-4 SCH-B HPLCMT-NORTH ZN,1875.00,375.1,1875.681,1.000,5.000,0.000,0.500,0.000,0.500,General,187.568,1688.113
 ElectricEquipment Internal Gains Nominal, SP-GYMNASIUM/FITNESS CENTRE PLAYING AREA-SPACE FUNCTION SYS-6 FLR-4 SCH-B HPLCMT-WEST ZN SPACE FUNCTION GYMNASIUM/FITNESS CENTRE PLAYING AREA ELEC EQUIP,NECB-B-ELECTRIC-EQUIPMENT,SP-GYMNASIUM/FITNESS CENTRE PLAYING AREA-SPACE FUNCTION SYS-6 FLR-4 SCH-B HPLCMT-WEST ZN,1875.00,375.1,2813.522,1.501,7.500,0.000,0.500,0.000,0.500,General,281.352,2532.170
 ElectricEquipment Internal Gains Nominal, SP-HEALTH CARE FACILITY EXAM/TREATMENT ROOM-SPACE FUNCTION SYS-3 FLR-3 SCH-C HPLCMT-EAST ZN SPACE FUNCTION HEALTH CARE FACILITY EXAM/TREATMENT ROOM ELEC EQUIP,NECB-C-ELECTRIC-EQUIPMENT,SP-HEALTH CARE FACILITY EXAM/TREATMENT ROOM-SPACE FUNCTION SYS-3 FLR-3 SCH-C HPLCMT-EAST ZN,1875.00,93.8,18756.814,10.004,200.000,0.000,0.500,0.000,0.500,General,937.841,16881.133
 ElectricEquipment Internal Gains Nominal, SP-HEALTH CARE FACILITY IMAGING ROOM-SPACE FUNCTION SYS-3 FLR-3 SCH-H HPLCMT-WEST ZN SPACE FUNCTION HEALTH CARE FACILITY IMAGING ROOM ELEC EQUIP,NECB-H-ELECTRIC-EQUIPMENT,SP-HEALTH CARE FACILITY IMAGING ROOM-SPACE FUNCTION SYS-3 FLR-3 SCH-H HPLCMT-WEST ZN,1875.00,93.8,18756.814,10.004,200.000,0.000,0.500,0.000,0.500,General,16881.133,16881.133
 ElectricEquipment Internal Gains Nominal, SP-HEALTH CARE FACILITY MEDICAL SUPPLY ROOM-SPACE FUNCTION SYS-3 FLR-4 SCH-H HPLCMT-SOUTH ZN SPACE FUNCTION HEALTH CARE FACILITY MEDICAL SUPPLY ROOM ELEC EQUIP,NECB-H-ELECTRIC-EQUIPMENT,SP-HEALTH CARE FACILITY MEDICAL SUPPLY ROOM-SPACE FUNCTION SYS-3 FLR-4 SCH-H HPLCMT-SOUTH ZN,1875.00,93.8,1875.681,1.000,20.000,0.000,0.500,0.000,0.500,General,1688.113,1688.113
 ElectricEquipment Internal Gains Nominal, SP-HEALTH CARE FACILITY NURSERY-SPACE FUNCTION SYS-3 FLR-4 SCH-H HPLCMT-EAST ZN SPACE FUNCTION HEALTH CARE FACILITY NURSERY ELEC EQUIP,NECB-H-ELECTRIC-EQUIPMENT,SP-HEALTH CARE FACILITY NURSERY-SPACE FUNCTION SYS-3 FLR-4 SCH-H HPLCMT-EAST ZN,1875.00,93.8,18756.814,10.004,200.000,0.000,0.500,0.000,0.500,General,16881.133,16881.133
 ElectricEquipment Internal Gains Nominal, SP-HEALTH CARE FACILITY NURSES STATION-SPACE FUNCTION SYS-3 FLR-1 SCH-H HPLCMT-WEST ZN SPACE FUNCTION HEALTH CARE FACILITY NURSES STATION ELEC EQUIP,NECB-H-ELECTRIC-EQUIPMENT,SP-HEALTH CARE FACILITY NURSES STATION-SPACE FUNCTION SYS-3 FLR-1 SCH-H HPLCMT-WEST ZN,1875.00,93.8,4689.204,2.501,50.000,0.000,0.500,0.000,0.500,General,4220.283,4220.283
 ElectricEquipment Internal Gains Nominal, SP-HEALTH CARE FACILITY OPERATING ROOM-SPACE FUNCTION SYS-3 FLR-1 SCH-H HPLCMT-NORTH ZN SPACE FUNCTION HEALTH CARE FACILITY OPERATING ROOM ELEC EQUIP,NECB-H-ELECTRIC-EQUIPMENT,SP-HEALTH CARE FACILITY OPERATING ROOM-SPACE FUNCTION SYS-3 FLR-1 SCH-H HPLCMT-NORTH ZN,1875.00,93.8,18756.814,10.004,200.000,0.000,0.500,0.000,0.500,General,16881.133,16881.133
 ElectricEquipment Internal Gains Nominal, SP-HEALTH CARE FACILITY PATIENT ROOM-SPACE FUNCTION SYS-3 FLR-1 SCH-H HPLCMT-SOUTH ZN SPACE FUNCTION HEALTH CARE FACILITY PATIENT ROOM ELEC EQUIP,NECB-H-ELECTRIC-EQUIPMENT,SP-HEALTH CARE FACILITY PATIENT ROOM-SPACE FUNCTION SYS-3 FLR-1 SCH-H HPLCMT-SOUTH ZN,1875.00,93.8,18756.814,10.004,200.000,0.000,0.500,0.000,0.500,General,16881.133,16881.133
 ElectricEquipment Internal Gains Nominal, SP-HEALTH CARE FACILITY PHYSICAL THERAPY ROOM-SPACE FUNCTION SYS-3 FLR-1 SCH-C HPLCMT-EAST ZN SPACE FUNCTION HEALTH CARE FACILITY PHYSICAL THERAPY ROOM ELEC EQUIP,NECB-C-ELECTRIC-EQUIPMENT,SP-HEALTH CARE FACILITY PHYSICAL THERAPY ROOM-SPACE FUNCTION SYS-3 FLR-1 SCH-C HPLCMT-EAST ZN,1875.00,93.8,18756.814,10.004,200.000,0.000,0.500,0.000,0.500,General,937.841,16881.133
 ElectricEquipment Internal Gains Nominal, SP-HEALTH CARE FACILITY RECOVERY ROOM-SPACE FUNCTION SYS-3 FLR-3 SCH-H HPLCMT-CORE ZN SPACE FUNCTION HEALTH CARE FACILITY RECOVERY ROOM ELEC EQUIP,NECB-H-ELECTRIC-EQUIPMENT,SP-HEALTH CARE FACILITY RECOVERY ROOM-SPACE FUNCTION SYS-3 FLR-3 SCH-H HPLCMT-CORE ZN,2500.00,125.0,25009.086,10.004,200.000,0.000,0.500,0.000,0.500,General,22508.177,22508.177
 ElectricEquipment Internal Gains Nominal, SP-LIBRARY READING AREA-SPACE FUNCTION SYS-6 FLR-1 SCH-C HPLCMT-CORE ZN SPACE FUNCTION LIBRARY READING AREA ELEC EQUIP,NECB-C-ELECTRIC-EQUIPMENT,SP-LIBRARY READING AREA-SPACE FUNCTION SYS-6 FLR-1 SCH-C HPLCMT-CORE ZN,2500.00,125.0,2500.909,1.000,20.000,0.000,0.500,0.000,0.500,General,125.045,2250.818
 ElectricEquipment Internal Gains Nominal, SP-MANUFACTURING FACILITY DETAILED MANUFACTURING AREA-SPACE FUNCTION SYS-3 FLR-3 SCH-A HPLCMT-NORTH ZN SPACE FUNCTION MANUFACTURING FACILITY DETAILED MANUFACTURING AREA ELEC EQUIP,NECB-A-ELECTRIC-EQUIPMENT,SP-MANUFACTURING FACILITY DETAILED MANUFACTURING AREA-SPACE FUNCTION SYS-3 FLR-3 SCH-A HPLCMT-NORTH ZN,1875.00,62.5,18756.814,10.004,300.000,0.000,0.500,0.000,0.500,General,3751.363,16881.133
 ElectricEquipment Internal Gains Nominal, SP-MANUFACTURING FACILITY EQUIPMENT ROOM-SPACE FUNCTION SYS-3 FLR-2 SCH-A HPLCMT-EAST ZN SPACE FUNCTION MANUFACTURING FACILITY EQUIPMENT ROOM ELEC EQUIP,NECB-A-ELECTRIC-EQUIPMENT,SP-MANUFACTURING FACILITY EQUIPMENT ROOM-SPACE FUNCTION SYS-3 FLR-2 SCH-A HPLCMT-EAST ZN,1875.00,62.5,18756.814,10.004,300.000,0.000,0.500,0.000,0.500,General,3751.363,16881.133
 ElectricEquipment Internal Gains Nominal, SP-MANUFACTURING FACILITY EXTRA HIGH BAY AREA (> 15 M FLOOR-TO-CEILING HEIGHT)-SPACE FUNCTION SYS-3 FLR-3 SCH-A HPLCMT-SOUTH ZN SPACE FUNCTION MANUFACTURING FACILITY EXTRA HIGH BAY AREA (> 15 M FLOOR-TO-CEILING HEIGHT) ELEC EQUIP,NECB-A-ELECTRIC-EQUIPMENT,SP-MANUFACTURING FACILITY EXTRA HIGH BAY AREA (> 15 M FLOOR-TO-CEILING HEIGHT)-SPACE FUNCTION SYS-3 FLR-3 SCH-A HPLCMT-SOUTH ZN,1875.00,62.5,18756.814,10.004,300.000,0.000,0.500,0.000,0.500,General,3751.363,16881.133
 ElectricEquipment Internal Gains Nominal, SP-MANUFACTURING FACILITY HIGH BAY AREA (7.5 TO 15 M FLOOR-TO-CEILING HEIGHT)-SPACE FUNCTION SYS-3 FLR-2 SCH-A HPLCMT-NORTH ZN SPACE FUNCTION MANUFACTURING FACILITY HIGH BAY AREA (7.5 TO 15 M FLOOR-TO-CEILING HEIGHT) ELEC EQUIP,NECB-A-ELECTRIC-EQUIPMENT,SP-MANUFACTURING FACILITY HIGH BAY AREA (7.5 TO 15 M FLOOR-TO-CEILING HEIGHT)-SPACE FUNCTION SYS-3 FLR-2 SCH-A HPLCMT-NORTH ZN,1875.00,62.5,18756.814,10.004,300.000,0.000,0.500,0.000,0.500,General,3751.363,16881.133
 ElectricEquipment Internal Gains Nominal, SP-MANUFACTURING FACILITY LOW BAY AREA (< 7.5 M FLOOR-TO-CEILING HEIGHT)-SPACE FUNCTION SYS-3 FLR-2 SCH-A HPLCMT-SOUTH ZN SPACE FUNCTION MANUFACTURING FACILITY LOW BAY AREA (< 7.5 M FLOOR-TO-CEILING HEIGHT) ELEC EQUIP,NECB-A-ELECTRIC-EQUIPMENT,SP-MANUFACTURING FACILITY LOW BAY AREA (< 7.5 M FLOOR-TO-CEILING HEIGHT)-SPACE FUNCTION SYS-3 FLR-2 SCH-A HPLCMT-SOUTH ZN,1875.00,62.5,18756.814,10.004,300.000,0.000,0.500,0.000,0.500,General,3751.363,16881.133
 ElectricEquipment Internal Gains Nominal, SP-MUSEUM GENERAL EXHIBITION AREA-SPACE FUNCTION SYS-2 FLR-2 SCH-C HPLCMT-CORE ZN SPACE FUNCTION MUSEUM GENERAL EXHIBITION AREA ELEC EQUIP,NECB-C-ELECTRIC-EQUIPMENT,SP-MUSEUM GENERAL EXHIBITION AREA-SPACE FUNCTION SYS-2 FLR-2 SCH-C HPLCMT-CORE ZN,2500.00,500.2,6252.271,2.501,12.500,0.000,0.500,0.000,0.500,General,312.614,5627.044
! <Shadowing/Sun Position Calculations Annual Simulations>, Calculation Method, Value {days}, Allowable Number Figures in Shadow Overlap {}, Polygon Clipping Algorithm, Sky Diffuse Modeling Algorithm, External Shading Calculation Method, Output External Shading Calculation Results, Disable Self-Shading Within Shading Zone Groups, Disable Self-Shading From Shading Zone Groups to Other Zones
Shadowing/Sun Position Calculations Annual Simulations,AverageOverDaysInFrequency,20,15000,SutherlandHodgman,SimpleSkyDiffuseModeling,InternalCalculation,No,No,No
! <Water Heater Information>,Type,Name,Volume {m3},Maximum Capacity {W},Standard Rated Recovery Efficiency, Standard Rated Energy Factor
! <ZoneInfiltration Airflow Stats Nominal>,Name,Schedule Name,Zone Name, Zone Floor Area {m2}, # Zone Occupants,Design Volume Flow Rate {m3/s},Volume Flow Rate/Floor Area {m3/s/m2},Volume Flow Rate/Exterior Surface Area {m3/s/m2},ACH - Air Changes per Hour,Equation A - Constant Term Coefficient {},Equation B - Temperature Term Coefficient {1/C},Equation C - Velocity Term Coefficient {s/m}, Equation D - Velocity Squared Term Coefficient {s2/m2}
 ZoneInfiltration Airflow Stats Nominal, FIRE STATION SLEEPING QUARTERS-SPACE FUNCTION INFILTRATION,ALWAYS ON DISCRETE,SP-FIRE STATION SLEEPING QUARTERS-SPACE FUNCTION SYS-3 FLR-4 SCH-G HPLCMT-CORE ZN,2500.00,100.0,0.625,2.500E-004,2.500E-004,0.237,0.000,0.000,0.224,0.000
 ZoneInfiltration Airflow Stats Nominal, GYMNASIUM/FITNESS CENTRE EXERCISE AREA-SPACE FUNCTION INFILTRATION,ALWAYS ON DISCRETE,SP-GYMNASIUM/FITNESS CENTRE EXERCISE AREA-SPACE FUNCTION SYS-6 FLR-4 SCH-B HPLCMT-NORTH ZN,1875.00,375.1,0.564,3.007E-004,2.500E-004,0.285,0.000,0.000,0.224,0.000
 ZoneInfiltration Airflow Stats Nominal, GYMNASIUM/FITNESS CENTRE PLAYING AREA-SPACE FUNCTION INFILTRATION,ALWAYS ON DISCRETE,SP-GYMNASIUM/FITNESS CENTRE PLAYING AREA-SPACE FUNCTION SYS-6 FLR-4 SCH-B HPLCMT-WEST ZN,1875.00,375.1,0.564,3.007E-004,2.500E-004,0.285,0.000,0.000,0.224,0.000
 ZoneInfiltration Airflow Stats Nominal, HEALTH CARE FACILITY EXAM/TREATMENT ROOM-SPACE FUNCTION INFILTRATION,ALWAYS ON DISCRETE,SP-HEALTH CARE FACILITY EXAM/TREATMENT ROOM-SPACE FUNCTION SYS-3 FLR-3 SCH-C HPLCMT-EAST ZN,1875.00,93.8,9.500E-002,5.067E-005,2.500E-004,4.800E-002,0.000,0.000,0.224,0.000
 ZoneInfiltration Airflow Stats Nominal, HEALTH CARE FACILITY IMAGING ROOM-SPACE FUNCTION INFILTRATION,ALWAYS ON DISCRETE,SP-HEALTH CARE FACILITY IMAGING ROOM-SPACE FUNCTION SYS-3 FLR-3 SCH-H HPLCMT-WEST ZN,1875.00,93.8,9.500E-002,5.067E-005,2.500E-004,4.800E-002,0.000,0.000,0.224,0.000
 ZoneInfiltration Airflow Stats Nominal, HEALTH CARE FACILITY MEDICAL SUPPLY ROOM-SPACE FUNCTION INFILTRATION,ALWAYS ON DISCRETE,SP-HEALTH CARE FACILITY MEDICAL SUPPLY ROOM-SPACE FUNCTION SYS-3 FLR-4 SCH-H HPLCMT-SOUTH ZN,1875.00,93.8,0.564,3.007E-004,2.500E-004,0.285,0.000,0.000,0.224,0.000
 ZoneInfiltration Airflow Stats Nominal, HEALTH CARE FACILITY NURSERY-SPACE FUNCTION INFILTRATION,ALWAYS ON DISCRETE,SP-HEALTH CARE FACILITY NURSERY-SPACE FUNCTION SYS-3 FLR-4 SCH-H HPLCMT-EAST ZN,1875.00,93.8,0.564,3.007E-004,2.500E-004,0.285,0.000,0.000,0.224,0.000
 ZoneInfiltration Airflow Stats Nominal, LIBRARY STACKS-SPACE FUNCTION INFILTRATION,ALWAYS ON DISCRETE,SP-LIBRARY STACKS-SPACE FUNCTION SYS-6 FLR-2 SCH-C HPLCMT-WEST ZN,1875.00,93.8,9.500E-002,5.067E-005,2.500E-004,4.800E-002,0.000,0.000,0.224,0.000
 ZoneInfiltration Airflow Stats Nominal, MANUFACTURING FACILITY DETAILED MANUFACTURING AREA-SPACE FUNCTION INFILTRATION,ALWAYS ON DISCRETE,SP-MANUFACTURING FACILITY DETAILED MANUFACTURING AREA-SPACE FUNCTION SYS-3 FLR-3 SCH-A HPLCMT-NORTH ZN,1875.00,62.5,9.500E-002,5.067E-005,2.500E-004,4.800E-002,0.000,0.000,0.224,0.000
 ZoneInfiltration Airflow Stats Nominal, MANUFACTURING FACILITY EQUIPMENT ROOM-SPACE FUNCTION INFILTRATION,ALWAYS ON DISCRETE,SP-MANUFACTURING FACILITY EQUIPMENT ROOM-SPACE FUNCTION SYS-3 FLR-2 SCH-A HPLCMT-EAST ZN,1875.00,62.5,9.500E-002,5.067E-005,2.500E-004,4.800E-002,0.000,0.000,0.224,0.000
 ZoneInfiltration Airflow Stats Nominal, MANUFACTURING FACILITY EXTRA HIGH BAY AREA (> 15 M FLOOR-TO-CEILING HEIGHT)-SPACE FUNCTION INFILTRATION,ALWAYS ON DISCRETE,SP-MANUFACTURING FACILITY EXTRA HIGH BAY AREA (> 15 M FLOOR-TO-CEILING HEIGHT)-SPACE FUNCTION SYS-3 FLR-3 SCH-A HPLCMT-SOUTH ZN,1875.00,62.5,9.500E-002,5.067E-005,2.500E-004,4.800E-002,0.000,0.000,0.224,0.000
 ZoneInfiltration Airflow Stats Nominal, MANUFACTURING FACILITY HIGH BAY AREA (7.5 TO 15 M FLOOR-TO-CEILING HEIGHT)-SPACE FUNCTION INFILTRATION,ALWAYS ON DISCRETE,SP-MANUFACTURING FACILITY HIGH BAY AREA (7.5 TO 15 M FLOOR-TO-CEILING HEIGHT)-SPACE FUNCTION SYS-3 FLR-2 SCH-A HPLCMT-NORTH ZN,1875.00,62.5,9.500E-002,5.067E-005,2.500E-004,4.800E-002,0.000,0.000,0.224,0.000
 ZoneInfiltration Airflow Stats Nominal, MANUFACTURING FACILITY LOW BAY AREA (< 7.5 M FLOOR-TO-CEILING HEIGHT)-SPACE FUNCTION INFILTRATION,ALWAYS ON DISCRETE,SP-MANUFACTURING FACILITY LOW BAY AREA (< 7.5 M FLOOR-TO-CEILING HEIGHT)-SPACE FUNCTION SYS-3 FLR-2 SCH-A HPLCMT-SOUTH ZN,1875.00,62.5,9.500E-002,5.067E-005,2.500E-004,4.800E-002,0.000,0.000,0.224,0.000
! <AirFlow Model>, Simple
 AirFlow Model, Simple
! <RoomAir Model>, Zone Name, Mixing/Mundt/UCSDDV/UCSDCV/UCSDUFI/UCSDUFE/User Defined
RoomAir Model,SP-FIRE STATION SLEEPING QUARTERS-SPACE FUNCTION SYS-3 FLR-4 SCH-G HPLCMT-CORE ZN,Mixing/Well-Stirred
RoomAir Model,SP-GYMNASIUM/FITNESS CENTRE EXERCISE AREA-SPACE FUNCTION SYS-6 FLR-4 SCH-B HPLCMT-NORTH ZN,Mixing/Well-Stirred
RoomAir Model,SP-GYMNASIUM/FITNESS CENTRE PLAYING AREA-SPACE FUNCTION SYS-6 FLR-4 SCH-B HPLCMT-WEST ZN,Mixing/Well-Stirred
RoomAir Model,SP-HEALTH CARE FACILITY EXAM/TREATMENT ROOM-SPACE FUNCTION SYS-3 FLR-3 SCH-C HPLCMT-EAST ZN,Mixing/Well-Stirred
RoomAir Model,SP-HEALTH CARE FACILITY IMAGING ROOM-SPACE FUNCTION SYS-3 FLR-3 SCH-H HPLCMT-WEST ZN,Mixing/Well-Stirred
RoomAir Model,SP-HEALTH CARE FACILITY MEDICAL SUPPLY ROOM-SPACE FUNCTION SYS-3 FLR-4 SCH-H HPLCMT-SOUTH ZN,Mixing/Well-Stirred
RoomAir Model,SP-HEALTH CARE FACILITY NURSERY-SPACE FUNCTION SYS-3 FLR-4 SCH-H HPLCMT-EAST ZN,Mixing/Well-Stirred
RoomAir Model,SP-HEALTH CARE FACILITY NURSES STATION-SPACE FUNCTION SYS-3 FLR-1 SCH-H HPLCMT-WEST ZN,Mixing/Well-Stirred
RoomAir Model,SP-HEALTH CARE FACILITY OPERATING ROOM-SPACE FUNCTION SYS-3 FLR-1 SCH-H HPLCMT-NORTH ZN,Mixing/Well-Stirred
RoomAir Model,SP-HEALTH CARE FACILITY PATIENT ROOM-SPACE FUNCTION SYS-3 FLR-1 SCH-H HPLCMT-SOUTH ZN,Mixing/Well-Stirred
RoomAir Model,SP-HEALTH CARE FACILITY PHYSICAL THERAPY ROOM-SPACE FUNCTION SYS-3 FLR-1 SCH-C HPLCMT-EAST ZN,Mixing/Well-Stirred
RoomAir Model,SP-HEALTH CARE FACILITY RECOVERY ROOM-SPACE FUNCTION SYS-3 FLR-3 SCH-H HPLCMT-CORE ZN,Mixing/Well-Stirred
RoomAir Model,SP-LIBRARY READING AREA-SPACE FUNCTION SYS-6 FLR-1 SCH-C HPLCMT-CORE ZN,Mixing/Well-Stirred
RoomAir Model,SP-LIBRARY STACKS-SPACE FUNCTION SYS-6 FLR-2 SCH-C HPLCMT-WEST ZN,Mixing/Well-Stirred
RoomAir Model,SP-MANUFACTURING FACILITY DETAILED MANUFACTURING AREA-SPACE FUNCTION SYS-3 FLR-3 SCH-A HPLCMT-NORTH ZN,Mixing/Well-Stirred
RoomAir Model,SP-MANUFACTURING FACILITY EQUIPMENT ROOM-SPACE FUNCTION SYS-3 FLR-2 SCH-A HPLCMT-EAST ZN,Mixing/Well-Stirred
RoomAir Model,SP-MANUFACTURING FACILITY EXTRA HIGH BAY AREA (> 15 M FLOOR-TO-CEILING HEIGHT)-SPACE FUNCTION SYS-3 FLR-3 SCH-A HPLCMT-SOUTH ZN,Mixing/Well-Stirred
RoomAir Model,SP-MANUFACTURING FACILITY HIGH BAY AREA (7.5 TO 15 M FLOOR-TO-CEILING HEIGHT)-SPACE FUNCTION SYS-3 FLR-2 SCH-A HPLCMT-NORTH ZN,Mixing/Well-Stirred
RoomAir Model,SP-MANUFACTURING FACILITY LOW BAY AREA (< 7.5 M FLOOR-TO-CEILING HEIGHT)-SPACE FUNCTION SYS-3 FLR-2 SCH-A HPLCMT-SOUTH ZN,Mixing/Well-Stirred
RoomAir Model,SP-MUSEUM GENERAL EXHIBITION AREA-SPACE FUNCTION SYS-2 FLR-2 SCH-C HPLCMT-CORE ZN,Mixing/Well-Stirred
! <AirflowNetwork Model:Control>, No Multizone or Distribution/Multizone with Distribution/Multizone without Distribution/Multizone with Distribution only during Fan Operation
AirflowNetwork Model:Control,NoMultizoneOrDistribution
! <Zone Volume Capacitance Multiplier>, Sensible Heat Capacity Multiplier, Moisture Capacity Multiplier, Carbon Dioxide Capacity Multiplier, Generic Contaminant Capacity Multiplier
Zone Volume Capacitance Multiplier,   1.000 ,   1.000,   1.000,   1.000
! <Load Timesteps in Zone Design Calculation Averaging Window>, Value
 Load Timesteps in Zone Design Calculation Averaging Window,    6
! <Heating Sizing Factor Information>, Sizing Factor ID, Value
 Heating Sizing Factor Information, Global,   1.3000    
 Heating Sizing Factor Information, Zone SP-FIRE STATION SLEEPING QUARTERS-SPACE FUNCTION SYS-3 FLR-4 SCH-G HPLCMT-CORE ZN,   1.3000    
 Heating Sizing Factor Information, Zone SP-GYMNASIUM/FITNESS CENTRE EXERCISE AREA-SPACE FUNCTION SYS-6 FLR-4 SCH-B HPLCMT-NORTH ZN,   1.3000    
 Heating Sizing Factor Information, Zone SP-GYMNASIUM/FITNESS CENTRE PLAYING AREA-SPACE FUNCTION SYS-6 FLR-4 SCH-B HPLCMT-WEST ZN,   1.3000    
 Heating Sizing Factor Information, Zone SP-HEALTH CARE FACILITY EXAM/TREATMENT ROOM-SPACE FUNCTION SYS-3 FLR-3 SCH-C HPLCMT-EAST ZN,   1.3000    
 Heating Sizing Factor Information, Zone SP-HEALTH CARE FACILITY IMAGING ROOM-SPACE FUNCTION SYS-3 FLR-3 SCH-H HPLCMT-WEST ZN,   1.3000    
 Heating Sizing Factor Information, Zone SP-HEALTH CARE FACILITY MEDICAL SUPPLY ROOM-SPACE FUNCTION SYS-3 FLR-4 SCH-H HPLCMT-SOUTH ZN,   1.3000    
 Heating Sizing Factor Information, Zone SP-HEALTH CARE FACILITY NURSERY-SPACE FUNCTION SYS-3 FLR-4 SCH-H HPLCMT-EAST ZN,   1.3000    
 Heating Sizing Factor Information, Zone SP-HEALTH CARE FACILITY NURSES STATION-SPACE FUNCTION SYS-3 FLR-1 SCH-H HPLCMT-WEST ZN,   1.3000    
 Heating Sizing Factor Information, Zone SP-HEALTH CARE FACILITY OPERATING ROOM-SPACE FUNCTION SYS-3 FLR-1 SCH-H HPLCMT-NORTH ZN,   1.3000    
 Heating Sizing Factor Information, Zone SP-HEALTH CARE FACILITY PATIENT ROOM-SPACE FUNCTION SYS-3 FLR-1 SCH-H HPLCMT-SOUTH ZN,   1.3000    
 Heating Sizing Factor Information, Zone SP-HEALTH CARE FACILITY PHYSICAL THERAPY ROOM-SPACE FUNCTION SYS-3 FLR-1 SCH-C HPLCMT-EAST ZN,   1.3000    
 Heating Sizing Factor Information, Zone SP-HEALTH CARE FACILITY RECOVERY ROOM-SPACE FUNCTION SYS-3 FLR-3 SCH-H HPLCMT-CORE ZN,   1.3000    
 Heating Sizing Factor Information, Zone SP-LIBRARY READING AREA-SPACE FUNCTION SYS-6 FLR-1 SCH-C HPLCMT-CORE ZN,   1.3000    
 Heating Sizing Factor Information, Zone SP-LIBRARY STACKS-SPACE FUNCTION SYS-6 FLR-2 SCH-C HPLCMT-WEST ZN,   1.3000    
 Heating Sizing Factor Information, Zone SP-MANUFACTURING FACILITY DETAILED MANUFACTURING AREA-SPACE FUNCTION SYS-3 FLR-3 SCH-A HPLCMT-NORTH ZN,   1.3000    
 Heating Sizing Factor Information, Zone SP-MANUFACTURING FACILITY EQUIPMENT ROOM-SPACE FUNCTION SYS-3 FLR-2 SCH-A HPLCMT-EAST ZN,   1.3000    
 Heating Sizing Factor Information, Zone SP-MANUFACTURING FACILITY EXTRA HIGH BAY AREA (> 15 M FLOOR-TO-CEILING HEIGHT)-SPACE FUNCTION SYS-3 FLR-3 SCH-A HPLCMT-SOUTH ZN,   1.3000    
 Heating Sizing Factor Information, Zone SP-MANUFACTURING FACILITY HIGH BAY AREA (7.5 TO 15 M FLOOR-TO-CEILING HEIGHT)-SPACE FUNCTION SYS-3 FLR-2 SCH-A HPLCMT-NORTH ZN,   1.3000    
 Heating Sizing Factor Information, Zone SP-MANUFACTURING FACILITY LOW BAY AREA (< 7.5 M FLOOR-TO-CEILING HEIGHT)-SPACE FUNCTION SYS-3 FLR-2 SCH-A HPLCMT-SOUTH ZN,   1.3000    
 Heating Sizing Factor Information, Zone SP-MUSEUM GENERAL EXHIBITION AREA-SPACE FUNCTION SYS-2 FLR-2 SCH-C HPLCMT-CORE ZN,   1.3000    
! <Cooling Sizing Factor Information>, Sizing Factor ID, Value
 Cooling Sizing Factor Information, Global,   1.1000    
 Cooling Sizing Factor Information, Zone SP-FIRE STATION SLEEPING QUARTERS-SPACE FUNCTION SYS-3 FLR-4 SCH-G HPLCMT-CORE ZN,   1.1000    
 Cooling Sizing Factor Information, Zone SP-GYMNASIUM/FITNESS CENTRE EXERCISE AREA-SPACE FUNCTION SYS-6 FLR-4 SCH-B HPLCMT-NORTH ZN,   1.1000    
 Cooling Sizing Factor Information, Zone SP-GYMNASIUM/FITNESS CENTRE PLAYING AREA-SPACE FUNCTION SYS-6 FLR-4 SCH-B HPLCMT-WEST ZN,   1.1000    
 Cooling Sizing Factor Information, Zone SP-HEALTH CARE FACILITY EXAM/TREATMENT ROOM-SPACE FUNCTION SYS-3 FLR-3 SCH-C HPLCMT-EAST ZN,   1.1000    
 Cooling Sizing Factor Information, Zone SP-HEALTH CARE FACILITY IMAGING ROOM-SPACE FUNCTION SYS-3 FLR-3 SCH-H HPLCMT-WEST ZN,   1.1000    
 Cooling Sizing Factor Information, Zone SP-HEALTH CARE FACILITY MEDICAL SUPPLY ROOM-SPACE FUNCTION SYS-3 FLR-4 SCH-H HPLCMT-SOUTH ZN,   1.1000    
 Cooling Sizing Factor Information, Zone SP-HEALTH CARE FACILITY NURSERY-SPACE FUNCTION SYS-3 FLR-4 SCH-H HPLCMT-EAST ZN,   1.1000    
 Cooling Sizing Factor Information, Zone SP-HEALTH CARE FACILITY NURSES STATION-SPACE FUNCTION SYS-3 FLR-1 SCH-H HPLCMT-WEST ZN,   1.1000    
 Cooling Sizing Factor Information, Zone SP-HEALTH CARE FACILITY OPERATING ROOM-SPACE FUNCTION SYS-3 FLR-1 SCH-H HPLCMT-NORTH ZN,   1.1000    
 Cooling Sizing Factor Information, Zone SP-HEALTH CARE FACILITY PATIENT ROOM-SPACE FUNCTION SYS-3 FLR-1 SCH-H HPLCMT-SOUTH ZN,   1.1000    
 Cooling Sizing Factor Information, Zone SP-HEALTH CARE FACILITY PHYSICAL THERAPY ROOM-SPACE FUNCTION SYS-3 FLR-1 SCH-C HPLCMT-EAST ZN,   1.1000    
 Cooling Sizing Factor Information, Zone SP-HEALTH CARE FACILITY RECOVERY ROOM-SPACE FUNCTION SYS-3 FLR-3 SCH-H HPLCMT-CORE ZN,   1.1000    
 Cooling Sizing Factor Information, Zone SP-LIBRARY READING AREA-SPACE FUNCTION SYS-6 FLR-1 SCH-C HPLCMT-CORE ZN,   1.1000    
 Cooling Sizing Factor Information, Zone SP-LIBRARY STACKS-SPACE FUNCTION SYS-6 FLR-2 SCH-C HPLCMT-WEST ZN,   1.1000    
 Cooling Sizing Factor Information, Zone SP-MANUFACTURING FACILITY DETAILED MANUFACTURING AREA-SPACE FUNCTION SYS-3 FLR-3 SCH-A HPLCMT-NORTH ZN,   1.1000    
 Cooling Sizing Factor Information, Zone SP-MANUFACTURING FACILITY EQUIPMENT ROOM-SPACE FUNCTION SYS-3 FLR-2 SCH-A HPLCMT-EAST ZN,   1.1000    
 Cooling Sizing Factor Information, Zone SP-MANUFACTURING FACILITY EXTRA HIGH BAY AREA (> 15 M FLOOR-TO-CEILING HEIGHT)-SPACE FUNCTION SYS-3 FLR-3 SCH-A HPLCMT-SOUTH ZN,   1.1000    
 Cooling Sizing Factor Information, Zone SP-MANUFACTURING FACILITY HIGH BAY AREA (7.5 TO 15 M FLOOR-TO-CEILING HEIGHT)-SPACE FUNCTION SYS-3 FLR-2 SCH-A HPLCMT-NORTH ZN,   1.1000    
 Cooling Sizing Factor Information, Zone SP-MANUFACTURING FACILITY LOW BAY AREA (< 7.5 M FLOOR-TO-CEILING HEIGHT)-SPACE FUNCTION SYS-3 FLR-2 SCH-A HPLCMT-SOUTH ZN,   1.1000    
 Cooling Sizing Factor Information, Zone SP-MUSEUM GENERAL EXHIBITION AREA-SPACE FUNCTION SYS-2 FLR-2 SCH-C HPLCMT-CORE ZN,   1.1000    
! <Zone Sizing Information>, Zone Name, Load Type, Calc Des Load {W}, User Des Load {W}, Calc Des Air Flow Rate {m3/s}, User Des Air Flow Rate {m3/s}, Design Day Name, Date/Time of Peak, Temperature at Peak {C}, Humidity Ratio at Peak {kgWater/kgDryAir}, Floor Area {m2}, # Occupants, Calc Outdoor Air Flow Rate {m3/s}, Calc DOAS Heat Addition Rate {W}
 Zone Sizing Information, SP-FIRE STATION SLEEPING QUARTERS-SPACE FUNCTION SYS-3 FLR-4 SCH-G HPLCMT-CORE ZN, Cooling, 61707.97128, 67878.76840, 4.76910, 5.24601, FORT MCMURRAY AP ANN CLG .4% CONDNS DB=>MWB, 7/21 13:40:00, 28.69333, 8.76969E-003, 2500.00000, 100.03634, 2.03200, 0.00000
 Zone Sizing Information, SP-FIRE STATION SLEEPING QUARTERS-SPACE FUNCTION SYS-3 FLR-4 SCH-G HPLCMT-CORE ZN, Heating, 30120.20317, 39156.26412, 1.17977, 2.03200, FORT MCMURRAY AP ANN HTG 99.6% CONDNS DB, 1/21 09:00:00, -36.20000, 1.25811E-004, 2500.00000, 100.03634, 2.03200, 0.00000
 Zone Sizing Information, SP-GYMNASIUM/FITNESS CENTRE EXERCISE AREA-SPACE FUNCTION SYS-6 FLR-4 SCH-B HPLCMT-NORTH ZN, Cooling, 79217.50077, 87139.25085, 6.12397, 8.19150, FORT MCMURRAY AP ANN CLG .4% CONDNS DB=>MWB, 7/21 13:00:00, 28.28000, 8.76969E-003, 1875.00000, 375.13628, 8.19150, 0.00000
 Zone Sizing Information, SP-GYMNASIUM/FITNESS CENTRE EXERCISE AREA-SPACE FUNCTION SYS-6 FLR-4 SCH-B HPLCMT-NORTH ZN, Heating, 39817.23309, 51762.40302, 1.58250, 8.19150, FORT MCMURRAY AP ANN HTG 99.6% CONDNS DB, 1/21 10:00:00, -36.20000, 1.25811E-004, 1875.00000, 375.13628, 8.19150, 0.00000
 Zone Sizing Information, SP-GYMNASIUM/FITNESS CENTRE PLAYING AREA-SPACE FUNCTION SYS-6 FLR-4 SCH-B HPLCMT-WEST ZN, Cooling, 88690.56809, 97559.62489, 6.85683, 7.54252, FORT MCMURRAY AP ANN CLG .4% CONDNS DB=>MWB, 7/21 14:00:00, 28.90000, 8.76969E-003, 1875.00000, 375.13628, 2.85750, 0.00000
 Zone Sizing Information, SP-GYMNASIUM/FITNESS CENTRE PLAYING AREA-SPACE FUNCTION SYS-6 FLR-4 SCH-B HPLCMT-WEST ZN, Heating, 32274.63974, 41957.03166, 1.23596, 2.85750, FORT MCMURRAY AP ANN HTG 99.6% CONDNS DB, 1/21 09:30:00, -36.20000, 1.25811E-004, 1875.00000, 375.13628, 2.85750, 0.00000
 Zone Sizing Information, SP-HEALTH CARE FACILITY EXAM/TREATMENT ROOM-SPACE FUNCTION SYS-3 FLR-3 SCH-C HPLCMT-EAST ZN, Cooling, 61690.00521, 67859.00573, 4.76773, 5.24450, FORT MCMURRAY AP ANN CLG .4% CONDNS DB=>MWB, 7/21 11:00:00, 26.04800, 8.76969E-003, 1875.00000, 93.78407, 2.85750, 0.00000
 Zone Sizing Information, SP-HEALTH CARE FACILITY EXAM/TREATMENT ROOM-SPACE FUNCTION SYS-3 FLR-3 SCH-C HPLCMT-EAST ZN, Heating, 3285.67775, 4271.38107, 0.12817, 2.85750, FORT MCMURRAY AP ANN HTG 99.6% CONDNS DB, 1/21 08:10:00, -36.20000, 1.25811E-004, 1875.00000, 93.78407, 2.85750, 0.00000
 Zone Sizing Information, SP-HEALTH CARE FACILITY IMAGING ROOM-SPACE FUNCTION SYS-3 FLR-3 SCH-H HPLCMT-WEST ZN, Cooling, 72845.51536, 80130.06689, 5.63029, 6.19331, FORT MCMURRAY AP ANN CLG .4% CONDNS DB=>MWB, 7/21 18:20:00, 25.30400, 8.76968E-003, 1875.00000, 93.78407, 4.28625, 0.00000
 Zone Sizing Information, SP-HEALTH CARE FACILITY IMAGING ROOM-SPACE FUNCTION SYS-3 FLR-3 SCH-H HPLCMT-WEST ZN, Heating, 0.00000, 0.00000, 0.00000, 4.28625, FORT MCMURRAY AP ANN HTG 99.6% CONDNS DB, , -36.20000, 1.25811E-004, 1875.00000, 93.78407, 4.28625, 0.00000
 Zone Sizing Information, SP-HEALTH CARE FACILITY MEDICAL SUPPLY ROOM-SPACE FUNCTION SYS-3 FLR-4 SCH-H HPLCMT-SOUTH ZN, Cooling, 81015.82079, 89117.40287, 6.26176, 6.88793, FORT MCMURRAY AP ANN CLG .4% CONDNS DB=>MWB, 7/21 13:30:00, 28.59000, 8.76969E-003, 1875.00000, 93.78407, 2.85750, 0.00000
 Zone Sizing Information, SP-HEALTH CARE FACILITY MEDICAL SUPPLY ROOM-SPACE FUNCTION SYS-3 FLR-4 SCH-H HPLCMT-SOUTH ZN, Heating, 31946.81043, 41530.85356, 1.26394, 2.85750, FORT MCMURRAY AP ANN HTG 99.6% CONDNS DB, 1/21 09:00:00, -36.20000, 1.25811E-004, 1875.00000, 93.78407, 2.85750, 0.00000
 Zone Sizing Information, SP-HEALTH CARE FACILITY NURSERY-SPACE FUNCTION SYS-3 FLR-4 SCH-H HPLCMT-EAST ZN, Cooling, 86444.92045, 95089.41250, 6.68138, 7.34952, FORT MCMURRAY AP ANN CLG .4% CONDNS DB=>MWB, 7/21 10:20:00, 24.80800, 8.76969E-003, 1875.00000, 93.78407, 2.85750, 0.00000
 Zone Sizing Information, SP-HEALTH CARE FACILITY NURSERY-SPACE FUNCTION SYS-3 FLR-4 SCH-H HPLCMT-EAST ZN, Heating, 16796.66539, 21835.66501, 0.65049, 2.85750, FORT MCMURRAY AP ANN HTG 99.6% CONDNS DB, 1/21 09:00:00, -36.20000, 1.25811E-004, 1875.00000, 93.78407, 2.85750, 0.00000
 Zone Sizing Information, SP-HEALTH CARE FACILITY NURSES STATION-SPACE FUNCTION SYS-3 FLR-1 SCH-H HPLCMT-WEST ZN, Cooling, 25225.52085, 27748.07293, 1.94972, 2.85750, FORT MCMURRAY AP ANN CLG .4% CONDNS DB=>MWB, 7/21 20:30:00, 22.14200, 8.76969E-003, 1875.00000, 93.78407, 2.85750, 0.00000
 Zone Sizing Information, SP-HEALTH CARE FACILITY NURSES STATION-SPACE FUNCTION SYS-3 FLR-1 SCH-H HPLCMT-WEST ZN, Heating, 0.00000, 0.00000, 0.00000, 2.85750, FORT MCMURRAY AP ANN HTG 99.6% CONDNS DB, , -36.20000, 1.25811E-004, 1875.00000, 93.78407, 2.85750, 0.00000
 Zone Sizing Information, SP-HEALTH CARE FACILITY OPERATING ROOM-SPACE FUNCTION SYS-3 FLR-1 SCH-H HPLCMT-NORTH ZN, Cooling, 55923.63567, 61515.99924, 4.32220, 8.57250, FORT MCMURRAY AP ANN CLG .4% CONDNS DB=>MWB, 7/21 07:00:00, 17.61600, 8.76969E-003, 1875.00000, 93.78407, 8.57250, 0.00000
 Zone Sizing Information, SP-HEALTH CARE FACILITY OPERATING ROOM-SPACE FUNCTION SYS-3 FLR-1 SCH-H HPLCMT-NORTH ZN, Heating, 0.00000, 0.00000, 0.00000, 8.57250, FORT MCMURRAY AP ANN HTG 99.6% CONDNS DB, , -36.20000, 1.25811E-004, 1875.00000, 93.78407, 8.57250, 0.00000
 Zone Sizing Information, SP-HEALTH CARE FACILITY PATIENT ROOM-SPACE FUNCTION SYS-3 FLR-1 SCH-H HPLCMT-SOUTH ZN, Cooling, 32851.89961, 36137.08957, 2.53917, 2.85750, FORT MCMURRAY AP ANN CLG .4% CONDNS DB=>MWB, 7/21 17:00:00, 27.16400, 8.76969E-003, 1875.00000, 93.78407, 2.85750, 0.00000
 Zone Sizing Information, SP-HEALTH CARE FACILITY PATIENT ROOM-SPACE FUNCTION SYS-3 FLR-1 SCH-H HPLCMT-SOUTH ZN, Heating, 0.00000, 0.00000, 0.00000, 2.85750, FORT MCMURRAY AP ANN HTG 99.6% CONDNS DB, , -36.20000, 1.25811E-004, 1875.00000, 93.78407, 2.85750, 0.00000
 Zone Sizing Information, SP-HEALTH CARE FACILITY PHYSICAL THERAPY ROOM-SPACE FUNCTION SYS-3 FLR-1 SCH-C HPLCMT-EAST ZN, Cooling, 35208.57525, 38729.43277, 2.72126, 4.28625, FORT MCMURRAY AP ANN CLG .4% CONDNS DB=>MWB, 7/21 17:00:00, 27.16400, 8.76969E-003, 1875.00000, 93.78407, 4.28625, 0.00000
 Zone Sizing Information, SP-HEALTH CARE FACILITY PHYSICAL THERAPY ROOM-SPACE FUNCTION SYS-3 FLR-1 SCH-C HPLCMT-EAST ZN, Heating, 0.00000, 0.00000, 0.00000, 4.28625, FORT MCMURRAY AP ANN HTG 99.6% CONDNS DB, , -36.20000, 1.25811E-004, 1875.00000, 93.78407, 4.28625, 0.00000
 Zone Sizing Information, SP-HEALTH CARE FACILITY RECOVERY ROOM-SPACE FUNCTION SYS-3 FLR-3 SCH-H HPLCMT-CORE ZN, Cooling, 58913.89826, 64805.28809, 4.55353, 11.43000, FORT MCMURRAY AP ANN CLG .4% CONDNS DB=>MWB, 7/21 17:40:00, 26.33733, 8.76969E-003, 2500.00000, 125.04543, 11.43000, 0.00000
 Zone Sizing Information, SP-HEALTH CARE FACILITY RECOVERY ROOM-SPACE FUNCTION SYS-3 FLR-3 SCH-H HPLCMT-CORE ZN, Heating, 0.00000, 0.00000, 0.00000, 11.43000, FORT MCMURRAY AP ANN HTG 99.6% CONDNS DB, , -36.20000, 1.25811E-004, 2500.00000, 125.04543, 11.43000, 0.00000
 Zone Sizing Information, SP-LIBRARY READING AREA-SPACE FUNCTION SYS-6 FLR-1 SCH-C HPLCMT-CORE ZN, Cooling, 30060.69474, 33066.76422, 2.32338, 2.55572, FORT MCMURRAY AP ANN CLG .4% CONDNS DB=>MWB, 7/21 17:00:00, 27.16400, 8.76969E-003, 2500.00000, 125.04543, 2.15900, 0.00000
 Zone Sizing Information, SP-LIBRARY READING AREA-SPACE FUNCTION SYS-6 FLR-1 SCH-C HPLCMT-CORE ZN, Heating, 0.00000, 0.00000, 0.00000, 2.15900, FORT MCMURRAY AP ANN HTG 99.6% CONDNS DB, , -36.20000, 1.25811E-004, 2500.00000, 125.04543, 2.15900, 0.00000
 Zone Sizing Information, SP-LIBRARY STACKS-SPACE FUNCTION SYS-6 FLR-2 SCH-C HPLCMT-WEST ZN, Cooling, 52291.87920, 57521.06712, 4.04162, 4.44578, FORT MCMURRAY AP ANN CLG .4% CONDNS DB=>MWB, 7/21 18:00:00, 25.92400, 8.76969E-003, 1875.00000, 93.78407, 1.61925, 0.00000
 Zone Sizing Information, SP-LIBRARY STACKS-SPACE FUNCTION SYS-6 FLR-2 SCH-C HPLCMT-WEST ZN, Heating, 0.00000, 0.00000, 0.00000, 1.61925, FORT MCMURRAY AP ANN HTG 99.6% CONDNS DB, , -36.20000, 1.25811E-004, 1875.00000, 93.78407, 1.61925, 0.00000
 Zone Sizing Information, SP-MANUFACTURING FACILITY DETAILED MANUFACTURING AREA-SPACE FUNCTION SYS-3 FLR-3 SCH-A HPLCMT-NORTH ZN, Cooling, 50873.49132, 55960.84045, 3.93192, 4.32511, FORT MCMURRAY AP ANN CLG .4% CONDNS DB=>MWB, 7/21 17:00:00, 27.16400, 8.76969E-003, 1875.00000, 62.52271, 2.38125, 0.00000
 Zone Sizing Information, SP-MANUFACTURING FACILITY DETAILED MANUFACTURING AREA-SPACE FUNCTION SYS-3 FLR-3 SCH-A HPLCMT-NORTH ZN, Heating, 1816.13237, 2360.97207, 7.24497E-002, 2.38125, FORT MCMURRAY AP ANN HTG 99.6% CONDNS DB, 1/21 07:40:00, -36.20000, 1.25811E-004, 1875.00000, 62.52271, 2.38125, 0.00000
 Zone Sizing Information, SP-MANUFACTURING FACILITY EQUIPMENT ROOM-SPACE FUNCTION SYS-3 FLR-2 SCH-A HPLCMT-EAST ZN, Cooling, 51137.30551, 56251.03606, 3.95224, 4.34746, FORT MCMURRAY AP ANN CLG .4% CONDNS DB=>MWB, 7/21 10:00:00, 24.18800, 8.76969E-003, 1875.00000, 62.52271, 2.38125, 0.00000
 Zone Sizing Information, SP-MANUFACTURING FACILITY EQUIPMENT ROOM-SPACE FUNCTION SYS-3 FLR-2 SCH-A HPLCMT-EAST ZN, Heating, 0.00000, 0.00000, 0.00000, 2.38125, FORT MCMURRAY AP ANN HTG 99.6% CONDNS DB, , -36.20000, 1.25811E-004, 1875.00000, 62.52271, 2.38125, 0.00000
 Zone Sizing Information, SP-MANUFACTURING FACILITY EXTRA HIGH BAY AREA (> 15 M FLOOR-TO-CEILING HEIGHT)-SPACE FUNCTION SYS-3 FLR-3 SCH-A HPLCMT-SOUTH ZN, Cooling, 56598.10274, 62257.91302, 4.37426, 4.81169, FORT MCMURRAY AP ANN CLG .4% CONDNS DB=>MWB, 7/21 15:00:00, 28.90000, 8.76969E-003, 1875.00000, 62.52271, 2.38125, 0.00000
 Zone Sizing Information, SP-MANUFACTURING FACILITY EXTRA HIGH BAY AREA (> 15 M FLOOR-TO-CEILING HEIGHT)-SPACE FUNCTION SYS-3 FLR-3 SCH-A HPLCMT-SOUTH ZN, Heating, 5746.46666, 7470.40665, 0.22811, 2.38125, FORT MCMURRAY AP ANN HTG 99.6% CONDNS DB, 1/21 08:00:00, -36.20000, 1.25811E-004, 1875.00000, 62.52271, 2.38125, 0.00000
 Zone Sizing Information, SP-MANUFACTURING FACILITY HIGH BAY AREA (7.5 TO 15 M FLOOR-TO-CEILING HEIGHT)-SPACE FUNCTION SYS-3 FLR-2 SCH-A HPLCMT-NORTH ZN, Cooling, 47578.90173, 52336.79191, 3.67727, 4.04500, FORT MCMURRAY AP ANN CLG .4% CONDNS DB=>MWB, 7/21 16:00:00, 28.15600, 8.76969E-003, 1875.00000, 62.52271, 2.38125, 0.00000
 Zone Sizing Information, SP-MANUFACTURING FACILITY HIGH BAY AREA (7.5 TO 15 M FLOOR-TO-CEILING HEIGHT)-SPACE FUNCTION SYS-3 FLR-2 SCH-A HPLCMT-NORTH ZN, Heating, 0.00000, 0.00000, 0.00000, 2.38125, FORT MCMURRAY AP ANN HTG 99.6% CONDNS DB, , -36.20000, 1.25811E-004, 1875.00000, 62.52271, 2.38125, 0.00000
 Zone Sizing Information, SP-MANUFACTURING FACILITY LOW BAY AREA (< 7.5 M FLOOR-TO-CEILING HEIGHT)-SPACE FUNCTION SYS-3 FLR-2 SCH-A HPLCMT-SOUTH ZN, Cooling, 51283.54437, 56411.89881, 3.96349, 4.35984, FORT MCMURRAY AP ANN CLG .4% CONDNS DB=>MWB, 7/21 14:30:00, 28.90000, 8.76969E-003, 1875.00000, 62.52271, 2.38125, 0.00000
 Zone Sizing Information, SP-MANUFACTURING FACILITY LOW BAY AREA (< 7.5 M FLOOR-TO-CEILING HEIGHT)-SPACE FUNCTION SYS-3 FLR-2 SCH-A HPLCMT-SOUTH ZN, Heating, 0.00000, 0.00000, 0.00000, 2.38125, FORT MCMURRAY AP ANN HTG 99.6% CONDNS DB, , -36.20000, 1.25811E-004, 1875.00000, 62.52271, 2.38125, 0.00000
 Zone Sizing Information, SP-MUSEUM GENERAL EXHIBITION AREA-SPACE FUNCTION SYS-2 FLR-2 SCH-C HPLCMT-CORE ZN, Cooling, 55283.84327, 60812.22760, 4.27410, 4.70151, FORT MCMURRAY AP ANN CLG .4% CONDNS DB=>MWB, 7/21 17:00:00, 27.16400, 8.76969E-003, 2500.00000, 500.18171, 4.57200, 0.00000
 Zone Sizing Information, SP-MUSEUM GENERAL EXHIBITION AREA-SPACE FUNCTION SYS-2 FLR-2 SCH-C HPLCMT-CORE ZN, Heating, 0.00000, 0.00000, 0.00000, 4.57200, FORT MCMURRAY AP ANN HTG 99.6% CONDNS DB, , -36.20000, 1.25811E-004, 2500.00000, 500.18171, 4.57200, 0.00000
! <System Sizing Information>, System Name, Load Type, Peak Load Kind, User Design Capacity, Calc Des Air Flow Rate [m3/s], User Des Air Flow Rate [m3/s], Design Day Name, Date/Time of Peak
 System Sizing Information, SYS_2_MAKE-UP AIR UNIT, Cooling, Sensible, 76647.34, 4.70151, 4.70151, FORT MCMURRAY AP ANN CLG .4% CONDNS DB=>MWB, 7/21 00:00:00
 System Sizing Information, SYS_2_MAKE-UP AIR UNIT, Heating, Sensible, 261042.52, 4.57200, 4.57200, FORT MCMURRAY AP ANN HTG 99.6% CONDNS DB, 1/21 00:10:00
 System Sizing Information, SYS_3_PSZ SP-FIRE STATION SLEEPING QUARTERS-SPACE FUNCTION SYS-3 FLR-4 SCH-G HPLCMT-CORE ZN, Cooling, Sensible, 77874.90, 5.24601, 5.24601, FORT MCMURRAY AP ANN CLG .4% CONDNS DB=>MWB, 7/21 05:00:00
 System Sizing Information, SYS_3_PSZ SP-FIRE STATION SLEEPING QUARTERS-SPACE FUNCTION SYS-3 FLR-4 SCH-G HPLCMT-CORE ZN, Heating, Sensible, 186383.30, 2.03200, 2.03200, FORT MCMURRAY AP ANN HTG 99.6% CONDNS DB, 1/21 00:10:00
 System Sizing Information, SYS_3_PSZ SP-HEALTH CARE FACILITY EXAM/TREATMENT ROOM-SPACE FUNCTION SYS-3 FLR-3 SCH-C HPLCMT-EAST ZN, Cooling, Sensible, 73588.53, 5.24450, 5.24450, FORT MCMURRAY AP ANN CLG .4% CONDNS DB=>MWB, 7/21 05:00:00
 System Sizing Information, SYS_3_PSZ SP-HEALTH CARE FACILITY EXAM/TREATMENT ROOM-SPACE FUNCTION SYS-3 FLR-3 SCH-C HPLCMT-EAST ZN, Heating, Sensible, 262101.52, 2.85750, 2.85750, FORT MCMURRAY AP ANN HTG 99.6% CONDNS DB, 1/21 00:10:00
 System Sizing Information, SYS_3_PSZ SP-HEALTH CARE FACILITY IMAGING ROOM-SPACE FUNCTION SYS-3 FLR-3 SCH-H HPLCMT-WEST ZN, Cooling, Sensible, 85369.95, 6.19331, 6.19331, FORT MCMURRAY AP ANN CLG .4% CONDNS DB=>MWB, 7/21 05:00:00
 System Sizing Information, SYS_3_PSZ SP-HEALTH CARE FACILITY IMAGING ROOM-SPACE FUNCTION SYS-3 FLR-3 SCH-H HPLCMT-WEST ZN, Heating, Sensible, 393152.28, 4.28625, 4.28625, FORT MCMURRAY AP ANN HTG 99.6% CONDNS DB, 1/21 00:10:00
 System Sizing Information, SYS_3_PSZ SP-HEALTH CARE FACILITY MEDICAL SUPPLY ROOM-SPACE FUNCTION SYS-3 FLR-4 SCH-H HPLCMT-SOUTH ZN, Cooling, Sensible, 102933.13, 6.88793, 6.88793, FORT MCMURRAY AP ANN CLG .4% CONDNS DB=>MWB, 7/21 05:00:00
 System Sizing Information, SYS_3_PSZ SP-HEALTH CARE FACILITY MEDICAL SUPPLY ROOM-SPACE FUNCTION SYS-3 FLR-4 SCH-H HPLCMT-SOUTH ZN, Heating, Sensible, 262101.52, 2.85750, 2.85750, FORT MCMURRAY AP ANN HTG 99.6% CONDNS DB, 1/21 00:10:00
 System Sizing Information, SYS_3_PSZ SP-HEALTH CARE FACILITY NURSERY-SPACE FUNCTION SYS-3 FLR-4 SCH-H HPLCMT-EAST ZN, Cooling, Sensible, 96296.82, 7.34952, 7.34952, FORT MCMURRAY AP ANN CLG .4% CONDNS DB=>MWB, 7/21 05:00:00
 System Sizing Information, SYS_3_PSZ SP-HEALTH CARE FACILITY NURSERY-SPACE FUNCTION SYS-3 FLR-4 SCH-H HPLCMT-EAST ZN, Heating, Sensible, 262101.52, 2.85750, 2.85750, FORT MCMURRAY AP ANN HTG 99.6% CONDNS DB, 1/21 00:10:00
 System Sizing Information, SYS_3_PSZ SP-HEALTH CARE FACILITY NURSES STATION-SPACE FUNCTION SYS-3 FLR-1 SCH-H HPLCMT-WEST ZN, Cooling, Sensible, 30254.19, 2.85750, 2.85750, FORT MCMURRAY AP ANN CLG .4% CONDNS DB=>MWB, 7/21 05:00:00
 System Sizing Information, SYS_3_PSZ SP-HEALTH CARE FACILITY NURSES STATION-SPACE FUNCTION SYS-3 FLR-1 SCH-H HPLCMT-WEST ZN, Heating, Sensible, 262101.52, 2.85750, 2.85750, FORT MCMURRAY AP ANN HTG 99.6% CONDNS DB, 1/21 00:10:00
 System Sizing Information, SYS_3_PSZ SP-HEALTH CARE FACILITY OPERATING ROOM-SPACE FUNCTION SYS-3 FLR-1 SCH-H HPLCMT-NORTH ZN, Cooling, Sensible, 45828.05, 8.57250, 8.57250, FORT MCMURRAY AP ANN CLG .4% CONDNS DB=>MWB, 7/21 05:00:00
 System Sizing Information, SYS_3_PSZ SP-HEALTH CARE FACILITY OPERATING ROOM-SPACE FUNCTION SYS-3 FLR-1 SCH-H HPLCMT-NORTH ZN, Heating, Sensible, 786304.56, 8.57250, 8.57250, FORT MCMURRAY AP ANN HTG 99.6% CONDNS DB, 1/21 00:10:00
 System Sizing Information, SYS_3_PSZ SP-HEALTH CARE FACILITY PATIENT ROOM-SPACE FUNCTION SYS-3 FLR-1 SCH-H HPLCMT-SOUTH ZN, Cooling, Sensible, 46873.81, 2.85750, 2.85750, FORT MCMURRAY AP ANN CLG .4% CONDNS DB=>MWB, 7/21 05:00:00
 System Sizing Information, SYS_3_PSZ SP-HEALTH CARE FACILITY PATIENT ROOM-SPACE FUNCTION SYS-3 FLR-1 SCH-H HPLCMT-SOUTH ZN, Heating, Sensible, 262101.52, 2.85750, 2.85750, FORT MCMURRAY AP ANN HTG 99.6% CONDNS DB, 1/21 00:10:00
 System Sizing Information, SYS_3_PSZ SP-HEALTH CARE FACILITY PHYSICAL THERAPY ROOM-SPACE FUNCTION SYS-3 FLR-1 SCH-C HPLCMT-EAST ZN, Cooling, Sensible, 70310.72, 4.28625, 4.28625, FORT MCMURRAY AP ANN CLG .4% CONDNS DB=>MWB, 7/21 05:00:00
 System Sizing Information, SYS_3_PSZ SP-HEALTH CARE FACILITY PHYSICAL THERAPY ROOM-SPACE FUNCTION SYS-3 FLR-1 SCH-C HPLCMT-EAST ZN, Heating, Sensible, 393152.28, 4.28625, 4.28625, FORT MCMURRAY AP ANN HTG 99.6% CONDNS DB, 1/21 00:10:00
 System Sizing Information, SYS_3_PSZ SP-HEALTH CARE FACILITY RECOVERY ROOM-SPACE FUNCTION SYS-3 FLR-3 SCH-H HPLCMT-CORE ZN, Cooling, Sensible, 176552.29, 11.43000, 11.43000, FORT MCMURRAY AP ANN CLG .4% CONDNS DB=>MWB, 7/21 05:00:00
 System Sizing Information, SYS_3_PSZ SP-HEALTH CARE FACILITY RECOVERY ROOM-SPACE FUNCTION SYS-3 FLR-3 SCH-H HPLCMT-CORE ZN, Heating, Sensible, 1048406.08, 11.43000, 11.43000, FORT MCMURRAY AP ANN HTG 99.6% CONDNS DB, 1/21 00:10:00
 System Sizing Information, SYS_3_PSZ SP-MANUFACTURING FACILITY DETAILED MANUFACTURING AREA-SPACE FUNCTION SYS-3 FLR-3 SCH-A HPLCMT-NORTH ZN, Cooling, Sensible, 63823.39, 4.32511, 4.32511, FORT MCMURRAY AP ANN CLG .4% CONDNS DB=>MWB, 7/21 05:00:00
 System Sizing Information, SYS_3_PSZ SP-MANUFACTURING FACILITY DETAILED MANUFACTURING AREA-SPACE FUNCTION SYS-3 FLR-3 SCH-A HPLCMT-NORTH ZN, Heating, Sensible, 218417.93, 2.38125, 2.38125, FORT MCMURRAY AP ANN HTG 99.6% CONDNS DB, 1/21 00:10:00
 System Sizing Information, SYS_3_PSZ SP-MANUFACTURING FACILITY EQUIPMENT ROOM-SPACE FUNCTION SYS-3 FLR-2 SCH-A HPLCMT-EAST ZN, Cooling, Sensible, 55901.34, 4.34746, 4.34746, FORT MCMURRAY AP ANN CLG .4% CONDNS DB=>MWB, 7/21 05:00:00
 System Sizing Information, SYS_3_PSZ SP-MANUFACTURING FACILITY EQUIPMENT ROOM-SPACE FUNCTION SYS-3 FLR-2 SCH-A HPLCMT-EAST ZN, Heating, Sensible, 218417.93, 2.38125, 2.38125, FORT MCMURRAY AP ANN HTG 99.6% CONDNS DB, 1/21 00:10:00
 System Sizing Information, SYS_3_PSZ SP-MANUFACTURING FACILITY EXTRA HIGH BAY AREA (> 15 M FLOOR-TO-CEILING HEIGHT)-SPACE FUNCTION SYS-3 FLR-3 SCH-A HPLCMT-SOUTH ZN, Cooling, Sensible, 74809.97, 4.81169, 4.81169, FORT MCMURRAY AP ANN CLG .4% CONDNS DB=>MWB, 7/21 05:00:00
 System Sizing Information, SYS_3_PSZ SP-MANUFACTURING FACILITY EXTRA HIGH BAY AREA (> 15 M FLOOR-TO-CEILING HEIGHT)-SPACE FUNCTION SYS-3 FLR-3 SCH-A HPLCMT-SOUTH ZN, Heating, Sensible, 218417.93, 2.38125, 2.38125, FORT MCMURRAY AP ANN HTG 99.6% CONDNS DB, 1/21 00:10:00
 System Sizing Information, SYS_3_PSZ SP-MANUFACTURING FACILITY HIGH BAY AREA (7.5 TO 15 M FLOOR-TO-CEILING HEIGHT)-SPACE FUNCTION SYS-3 FLR-2 SCH-A HPLCMT-NORTH ZN, Cooling, Sensible, 62991.03, 4.04500, 4.04500, FORT MCMURRAY AP ANN CLG .4% CONDNS DB=>MWB, 7/21 05:00:00
 System Sizing Information, SYS_3_PSZ SP-MANUFACTURING FACILITY HIGH BAY AREA (7.5 TO 15 M FLOOR-TO-CEILING HEIGHT)-SPACE FUNCTION SYS-3 FLR-2 SCH-A HPLCMT-NORTH ZN, Heating, Sensible, 218417.93, 2.38125, 2.38125, FORT MCMURRAY AP ANN HTG 99.6% CONDNS DB, 1/21 00:10:00
 System Sizing Information, SYS_3_PSZ SP-MANUFACTURING FACILITY LOW BAY AREA (< 7.5 M FLOOR-TO-CEILING HEIGHT)-SPACE FUNCTION SYS-3 FLR-2 SCH-A HPLCMT-SOUTH ZN, Cooling, Sensible, 69054.12, 4.35984, 4.35984, FORT MCMURRAY AP ANN CLG .4% CONDNS DB=>MWB, 7/21 05:00:00
 System Sizing Information, SYS_3_PSZ SP-MANUFACTURING FACILITY LOW BAY AREA (< 7.5 M FLOOR-TO-CEILING HEIGHT)-SPACE FUNCTION SYS-3 FLR-2 SCH-A HPLCMT-SOUTH ZN, Heating, Sensible, 218417.93, 2.38125, 2.38125, FORT MCMURRAY AP ANN HTG 99.6% CONDNS DB, 1/21 00:10:00
 System Sizing Information, SYS_6_VAV WITH REHEAT, Cooling, Sensible, 40469.33, 2.55572, 2.55572, FORT MCMURRAY AP ANN CLG .4% CONDNS DB=>MWB, 7/21 00:00:00
 System Sizing Information, SYS_6_VAV WITH REHEAT, Heating, Sensible, 123270.08, 2.15900, 2.15900, FORT MCMURRAY AP ANN HTG 99.6% CONDNS DB, 1/21 00:10:00
 System Sizing Information, SYS_6_VAV WITH REHEAT 1, Cooling, Sensible, 60241.61, 4.44578, 4.44578, FORT MCMURRAY AP ANN CLG .4% CONDNS DB=>MWB, 7/21 00:00:00
 System Sizing Information, SYS_6_VAV WITH REHEAT 1, Heating, Sensible, 92452.56, 1.61925, 1.61925, FORT MCMURRAY AP ANN HTG 99.6% CONDNS DB, 1/21 00:10:00
 System Sizing Information, SYS_6_VAV WITH REHEAT 2, Cooling, Sensible, 258993.51, 15.73402, 15.73402, FORT MCMURRAY AP ANN CLG .4% CONDNS DB=>MWB, 7/21 00:00:00
 System Sizing Information, SYS_6_VAV WITH REHEAT 2, Heating, Sensible, 630852.77, 11.04900, 11.04900, FORT MCMURRAY AP ANN HTG 99.6% CONDNS DB, 1/21 01:10:00
! <Component Sizing Information>, Component Type, Component Name, Input Field Description, Value
 Component Sizing Information, AirTerminal:SingleDuct:Uncontrolled, AIR TERMINAL SINGLE DUCT UNCONTROLLED 14, Design Size Maximum Air Flow Rate [m3/s], 5.24601
 Component Sizing Information, ZoneHVAC:Baseboard:Convective:Water, ZONE HVAC BASEBOARD CONVECTIVE WATER 13, Design Size Maximum Water Flow Rate [m3/s], 5.84831E-004
 Component Sizing Information, ZoneHVAC:Baseboard:Convective:Water, ZONE HVAC BASEBOARD CONVECTIVE WATER 13, Design Size U-Factor Times Area Value [W/K], 1192.60093
 Component Sizing Information, AirTerminal:SingleDuct:VAV:Reheat, AIR TERMINAL SINGLE DUCT VAV REHEAT 3, Design Size Maximum Air Flow Rate [m3/s], 8.19150
 Component Sizing Information, AirTerminal:SingleDuct:VAV:Reheat, AIR TERMINAL SINGLE DUCT VAV REHEAT 3, Design Size Constant Minimum Air Flow Fraction, 0.17442
 Component Sizing Information, AirTerminal:SingleDuct:VAV:Reheat, AIR TERMINAL SINGLE DUCT VAV REHEAT 3, User-Specified Constant Minimum Air Flow Fraction, 0.30000
 Component Sizing Information, AirTerminal:SingleDuct:VAV:Reheat, AIR TERMINAL SINGLE DUCT VAV REHEAT 3, Design Size Minimum Air Flow Rate [m3/s], 2.45745
 Component Sizing Information, AirTerminal:SingleDuct:VAV:Reheat, AIR TERMINAL SINGLE DUCT VAV REHEAT 3, Design Size Maximum Flow per Zone Floor Area during Reheat [m3/s-m2], 1.31064E-003
 Component Sizing Information, AirTerminal:SingleDuct:VAV:Reheat, AIR TERMINAL SINGLE DUCT VAV REHEAT 3, Design Size Maximum Flow Fraction during Reheat [], 0.30000
 Component Sizing Information, AirTerminal:SingleDuct:VAV:Reheat, AIR TERMINAL SINGLE DUCT VAV REHEAT 3, Design Size Maximum Reheat Water Flow Rate [m3/s], 1.17634E-003
 Component Sizing Information, AirTerminal:SingleDuct:VAV:Reheat, AIR TERMINAL SINGLE DUCT VAV REHEAT 3, Design Size Reheat Coil Sizing Air Volume Flow Rate [m3/s], 2.45745
 Component Sizing Information, AirTerminal:SingleDuct:VAV:Reheat, AIR TERMINAL SINGLE DUCT VAV REHEAT 3, Design Size Reheat Coil Sizing Inlet Air Temperature [C], 13.10000
 Component Sizing Information, AirTerminal:SingleDuct:VAV:Reheat, AIR TERMINAL SINGLE DUCT VAV REHEAT 3, Design Size Reheat Coil Sizing Inlet Air Humidity Ratio [kgWater/kgDryAir], 8.00000E-003
 Component Sizing Information, Coil:Heating:Water, COIL HEATING WATER 7, Design Size Rated Capacity [W], 78759.59856
 Component Sizing Information, Coil:Heating:Water, COIL HEATING WATER 7, Design Size Maximum Water Flow Rate [m3/s], 1.17634E-003
 Component Sizing Information, Coil:Heating:Water, COIL HEATING WATER 7, Design Size U-Factor Times Area Value [W/K], 1725.72557
! <Water Heating Coil Capacity Information>,Component Type,Name,Nominal Total Capacity {W}
Water Heating Coil Capacity Information,Coil:Heating:Water,COIL HEATING WATER 7,73866.82
 Component Sizing Information, ZoneHVAC:Baseboard:Convective:Water, ZONE HVAC BASEBOARD CONVECTIVE WATER 18, Design Size Maximum Water Flow Rate [m3/s], 7.73114E-004
 Component Sizing Information, ZoneHVAC:Baseboard:Convective:Water, ZONE HVAC BASEBOARD CONVECTIVE WATER 18, Design Size U-Factor Times Area Value [W/K], 1577.73565
[...]
 Component Sizing Information, Chiller:Electric:EIR, SECONDARY CHILLER WATERCOOLED SCROLL 0TONS 0.8KW/TON, Design Size Reference Capacity [W], 82732.49908
 Component Sizing Information, Chiller:Electric:EIR, SECONDARY CHILLER WATERCOOLED SCROLL 0TONS 0.8KW/TON, User-Specified Reference Capacity [W], 1.00000E-003
 Component Sizing Information, Chiller:Electric:EIR, SECONDARY CHILLER WATERCOOLED SCROLL 0TONS 0.8KW/TON, Design Size Reference Condenser Fluid Flow Rate [m3/s], 4.87330E-011
 Chiller Standard Rating Information, Chiller:Electric:EIR, SECONDARY CHILLER WATERCOOLED SCROLL 0TONS 0.8KW/TON, 5.61, 19.14
 Component Sizing Information, PlantLoop, CHILLED WATER LOOP 1, Maximum Loop Flow Rate [m3/s], 1.75467E-002
 Component Sizing Information, PlantLoop, CHILLED WATER LOOP 1, Plant Loop Volume [m3], 2.10560
 Component Sizing Information, Pump:ConstantSpeed, PUMP CONSTANT SPEED 3, Design Flow Rate [m3/s], 1.75467E-002
 Component Sizing Information, Pump:ConstantSpeed, PUMP CONSTANT SPEED 3, Design Power Consumption [W], 4399.83794
 Component Sizing Information, Chiller:Electric:EIR, PRIMARY CHILLER WATERCOOLED SCROLL 1 127TONS 0.8KW/TON, Design Size Reference Chilled Water Flow Rate [m3/s], 1.75467E-002
 Component Sizing Information, Chiller:Electric:EIR, PRIMARY CHILLER WATERCOOLED SCROLL 1 127TONS 0.8KW/TON, Design Size Reference Capacity [W], 441912.75587
 Component Sizing Information, Chiller:Electric:EIR, PRIMARY CHILLER WATERCOOLED SCROLL 1 127TONS 0.8KW/TON, User-Specified Reference Capacity [W], 445566.55932
 Component Sizing Information, Chiller:Electric:EIR, PRIMARY CHILLER WATERCOOLED SCROLL 1 127TONS 0.8KW/TON, Design Size Reference Condenser Fluid Flow Rate [m3/s], 2.16784E-002
 Chiller Standard Rating Information, Chiller:Electric:EIR, PRIMARY CHILLER WATERCOOLED SCROLL 1 127TONS 0.8KW/TON, 5.66, 19.31
 Component Sizing Information, Chiller:Electric:EIR, SECONDARY CHILLER WATERCOOLED SCROLL 1 0TONS 0.8KW/TON, Design Size Reference Chilled Water Flow Rate [m3/s], 1.75467E-002
 Component Sizing Information, Chiller:Electric:EIR, SECONDARY CHILLER WATERCOOLED SCROLL 1 0TONS 0.8KW/TON, Design Size Reference Capacity [W], 441912.75587
 Component Sizing Information, Chiller:Electric:EIR, SECONDARY CHILLER WATERCOOLED SCROLL 1 0TONS 0.8KW/TON, User-Specified Reference Capacity [W], 1.00000E-003
 Component Sizing Information, Chiller:Electric:EIR, SECONDARY CHILLER WATERCOOLED SCROLL 1 0TONS 0.8KW/TON, Design Size Reference Condenser Fluid Flow Rate [m3/s], 4.87330E-011
 Chiller Standard Rating Information, Chiller:Electric:EIR, SECONDARY CHILLER WATERCOOLED SCROLL 1 0TONS 0.8KW/TON, 5.61, 19.14
 Component Sizing Information, PlantLoop, CONDENSER WATER LOOP, Maximum Loop Flow Rate [m3/s], 4.03180E-003
 Component Sizing Information, PlantLoop, CONDENSER WATER LOOP, Plant Loop Volume [m3], 0.48382
 Component Sizing Information, Pump:ConstantSpeed, PUMP CONSTANT SPEED 2, Design Flow Rate [m3/s], 4.03180E-003
 Component Sizing Information, Pump:ConstantSpeed, PUMP CONSTANT SPEED 2, Design Power Consumption [W], 1035.82887
 Component Sizing Information, CoolingTower:SingleSpeed, COOLING TOWER SINGLE SPEED 1, Design Water Flow Rate [m3/s], 4.03180E-003
 Component Sizing Information, CoolingTower:SingleSpeed, COOLING TOWER SINGLE SPEED 1, Fan Power at Design Air Flow Rate [W], 884.64684
 Component Sizing Information, CoolingTower:SingleSpeed, COOLING TOWER SINGLE SPEED 1, Design Air Flow Rate [m3/s], 2.43260
 Component Sizing Information, CoolingTower:SingleSpeed, COOLING TOWER SINGLE SPEED 1, U-Factor Times Area Value at Design Air Flow Rate [W/C], 4343.97706
 Component Sizing Information, CoolingTower:SingleSpeed, COOLING TOWER SINGLE SPEED 1, Free Convection Regime Air Flow Rate [m3/s], 0.24326
 Component Sizing Information, CoolingTower:SingleSpeed, COOLING TOWER SINGLE SPEED 1, Free Convection U-Factor Times Area Value [W/K], 434.39771
 Component Sizing Information, PlantLoop, CONDENSER WATER LOOP 1, Maximum Loop Flow Rate [m3/s], 2.16784E-002
 Component Sizing Information, PlantLoop, CONDENSER WATER LOOP 1, Plant Loop Volume [m3], 2.60141
 Component Sizing Information, Pump:ConstantSpeed, PUMP CONSTANT SPEED 4, Design Flow Rate [m3/s], 2.16784E-002
 Component Sizing Information, Pump:ConstantSpeed, PUMP CONSTANT SPEED 4, Design Power Consumption [W], 5394.70402
 Component Sizing Information, CoolingTower:SingleSpeed, COOLING TOWER SINGLE SPEED 2, Design Water Flow Rate [m3/s], 2.16784E-002
 Component Sizing Information, CoolingTower:SingleSpeed, COOLING TOWER SINGLE SPEED 2, Design Air Flow Rate [m3/s], 19.43315
 Component Sizing Information, CoolingTower:SingleSpeed, COOLING TOWER SINGLE SPEED 2, U-Factor Times Area Value at Design Air Flow Rate [W/C], 19692.71174
 Component Sizing Information, CoolingTower:SingleSpeed, COOLING TOWER SINGLE SPEED 2, Free Convection Regime Air Flow Rate [m3/s], 1.94331
 Component Sizing Information, CoolingTower:SingleSpeed, COOLING TOWER SINGLE SPEED 2, Free Convection U-Factor Times Area Value [W/K], 1969.27117
 Component Sizing Information, PlantLoop, HOT WATER LOOP, Maximum Loop Flow Rate [m3/s], 1.73003E-002
 Component Sizing Information, PlantLoop, HOT WATER LOOP, Plant Loop Volume [m3], 2.07604
 Component Sizing Information, Pump:VariableSpeed, PUMP VARIABLE SPEED 1, Design Flow Rate [m3/s], 1.73003E-002
 Component Sizing Information, Pump:VariableSpeed, PUMP VARIABLE SPEED 1, Design Power Consumption [W], 4338.07167
 Component Sizing Information, Boiler:HotWater, PRIMARY BOILER 3968KBTU/HR 0.833 COMBUSTION EFF, Design Size Nominal Capacity [W], 1162795.85863
 Component Sizing Information, Boiler:HotWater, PRIMARY BOILER 3968KBTU/HR 0.833 COMBUSTION EFF, User-Specified Nominal Capacity [W], 1162795.85863
 Component Sizing Information, Boiler:HotWater, PRIMARY BOILER 3968KBTU/HR 0.833 COMBUSTION EFF, Design Size Design Water Flow Rate [m3/s], 1.73003E-002
 Component Sizing Information, Boiler:HotWater, SECONDARY BOILER 0KBTU/HR 0.85 AFUE, Design Size Nominal Capacity [W], 1162795.85863
 Component Sizing Information, Boiler:HotWater, SECONDARY BOILER 0KBTU/HR 0.85 AFUE, User-Specified Nominal Capacity [W], 1.00000E-003
 Component Sizing Information, Boiler:HotWater, SECONDARY BOILER 0KBTU/HR 0.85 AFUE, Design Size Design Water Flow Rate [m3/s], 1.73003E-002
 Component Sizing Information, PlantLoop, MAIN SERVICE WATER LOOP, Maximum Loop Flow Rate [m3/s], 1.53030E-003
 Component Sizing Information, PlantLoop, MAIN SERVICE WATER LOOP, Plant Loop Volume [m3], 0.18364
 Component Sizing Information, Pump:ConstantSpeed, SERVICE WATER LOOP PUMP, Design Flow Rate [m3/s], 1.53030E-003
 Component Sizing Information, Pump:ConstantSpeed, SERVICE WATER LOOP PUMP, Design Power Consumption [W], 2872.59049
 Component Sizing Information, WaterHeater:Mixed, 1025GAL NATURALGAS WATER HEATER - 2336KBTU/HR 0.802 THERM EFF, Use Side Design Flow Rate [m3/s], 1.53030E-003
! <Environment>,Environment Name,Environment Type, Start Date, End Date, Start DayOfWeek, Duration {#days}, Source:Start DayOfWeek,  Use Daylight Saving, Use Holidays, Apply Weekend Holiday Rule,  Use Rain Values, Use Snow Values
! <Environment:Special Days>, Special Day Name, Special Day Type, Source, Start Date, Duration {#days}
! <Environment:Daylight Saving>, Daylight Saving Indicator, Source, Start Date, End Date
! <Environment:WarmupDays>, NumberofWarmupDays
Environment,FORT MCMURRAY AP ANN CLG .4% CONDNS DB=>MWB,SizingPeriod:DesignDay,07/21,07/21,SummerDesignDay,1,N/A,N/A,N/A,N/A,N/A,N/A
Environment:Daylight Saving,No,SizingPeriod:DesignDay
! <Environment:Design Day Data>, Max Dry-Bulb Temp {C}, Temp Range {dC}, Temp Range Ind Type, Hum Ind Value at Max Temp, Hum Ind Type,Pressure {Pa}, Wind Direction {deg CW from N}, Wind Speed {m/s}, Clearness, Rain, Snow
! <Environment:Design Day Misc>,DayOfYear,ASHRAE A Coeff,ASHRAE B Coeff,ASHRAE C Coeff,Solar Constant-Annual Variation,Eq of Time {minutes}, Solar Declination Angle {deg}, Solar Model
Environment:Design Day Data,28.90,12.40,DefaultMultipliers,96969,250,3.7,0.00,No,No
Environment:Design Day Misc,202,1084.4,0.2082,0.1365,1.0,-6.23,20.6,ASHRAETau
Environment:WarmupDays,  7
! <Tabular Report>,Style,Unit Conversion
Tabular Report,HTML,None
! <Warmup Convergence Information>,Zone Name,Environment Type/Name,Average Warmup Temperature Difference {deltaC},Std Dev Warmup Temperature Difference {deltaC},Max Temperature Pass/Fail Convergence,Min Temperature Pass/Fail Convergence,Average Warmup Load Difference {W},Std Dev Warmup Load Difference {W},Heating Load Pass/Fail Convergence,Cooling Load Pass/Fail Convergence
 Warmup Convergence Information,SP-FIRE STATION SLEEPING QUARTERS-SPACE FUNCTION SYS-3 FLR-4 SCH-G HPLCMT-CORE ZN,SizingPeriod: FORT MCMURRAY AP ANN CLG .4% CONDNS DB=>MWB,3.3062774605E-002,6.6854359991E-002,Pass,Pass,2.1251419669E-002,2.5709738286E-002,Pass,Pass
 Warmup Convergence Information,SP-GYMNASIUM/FITNESS CENTRE EXERCISE AREA-SPACE FUNCTION SYS-6 FLR-4 SCH-B HPLCMT-NORTH ZN,SizingPeriod: FORT MCMURRAY AP ANN CLG .4% CONDNS DB=>MWB,9.4401266684E-002,0.2096294519,Pass,Pass,5.1094978476E-002,0.1016998761,Pass,Pass
 Warmup Convergence Information,SP-GYMNASIUM/FITNESS CENTRE PLAYING AREA-SPACE FUNCTION SYS-6 FLR-4 SCH-B HPLCMT-WEST ZN,SizingPeriod: FORT MCMURRAY AP ANN CLG .4% CONDNS DB=>MWB,8.4593346459E-002,0.1690537947,Pass,Pass,2.7521736839E-002,5.1435113840E-002,Pass,Pass
 Warmup Convergence Information,SP-HEALTH CARE FACILITY EXAM/TREATMENT ROOM-SPACE FUNCTION SYS-3 FLR-3 SCH-C HPLCMT-EAST ZN,SizingPeriod: FORT MCMURRAY AP ANN CLG .4% CONDNS DB=>MWB,3.2826234350E-002,0.1281606589,Pass,Pass,3.3324117287E-002,0.1774886797,Pass,Pass
 Warmup Convergence Information,SP-HEALTH CARE FACILITY IMAGING ROOM-SPACE FUNCTION SYS-3 FLR-3 SCH-H HPLCMT-WEST ZN,SizingPeriod: FORT MCMURRAY AP ANN CLG .4% CONDNS DB=>MWB,2.6908735948E-003,7.3856230737E-003,Pass,Pass,7.6716375974E-003,5.5402115194E-003,Pass,Pass
 Warmup Convergence Information,SP-HEALTH CARE FACILITY MEDICAL SUPPLY ROOM-SPACE FUNCTION SYS-3 FLR-4 SCH-H HPLCMT-SOUTH ZN,SizingPeriod: FORT MCMURRAY AP ANN CLG .4% CONDNS DB=>MWB,7.8657770846E-003,1.2837924499E-002,Pass,Pass,2.1138301413E-002,1.5125981532E-002,Pass,Pass
 Warmup Convergence Information,SP-HEALTH CARE FACILITY NURSERY-SPACE FUNCTION SYS-3 FLR-4 SCH-H HPLCMT-EAST ZN,SizingPeriod: FORT MCMURRAY AP ANN CLG .4% CONDNS DB=>MWB,5.2551861600E-003,1.4761334572E-002,Pass,Pass,1.3740999427E-002,1.2213663683E-002,Pass,Pass
 Warmup Convergence Information,SP-HEALTH CARE FACILITY NURSES STATION-SPACE FUNCTION SYS-3 FLR-1 SCH-H HPLCMT-WEST ZN,SizingPeriod: FORT MCMURRAY AP ANN CLG .4% CONDNS DB=>MWB,1.2226280024E-003,3.5961532120E-003,Pass,Pass,3.6128739470E-003,4.1725941042E-003,Pass,Pass
 Warmup Convergence Information,SP-HEALTH CARE FACILITY OPERATING ROOM-SPACE FUNCTION SYS-3 FLR-1 SCH-H HPLCMT-NORTH ZN,SizingPeriod: FORT MCMURRAY AP ANN CLG .4% CONDNS DB=>MWB,5.4923780995E-004,1.6785131522E-003,Pass,Pass,7.5993195895E-004,1.6195449934E-003,Pass,Pass
 Warmup Convergence Information,SP-HEALTH CARE FACILITY PATIENT ROOM-SPACE FUNCTION SYS-3 FLR-1 SCH-H HPLCMT-SOUTH ZN,SizingPeriod: FORT MCMURRAY AP ANN CLG .4% CONDNS DB=>MWB,1.4839418999E-004,3.3524720685E-004,Pass,Pass,1.4256841087E-003,7.6802349548E-004,Pass,Pass
 Warmup Convergence Information,SP-HEALTH CARE FACILITY PHYSICAL THERAPY ROOM-SPACE FUNCTION SYS-3 FLR-1 SCH-C HPLCMT-EAST ZN,SizingPeriod: FORT MCMURRAY AP ANN CLG .4% CONDNS DB=>MWB,1.5539073622E-002,3.8253220869E-002,Pass,Pass,3.0423373335E-002,0.1743740907,Pass,Pass
 Warmup Convergence Information,SP-HEALTH CARE FACILITY RECOVERY ROOM-SPACE FUNCTION SYS-3 FLR-3 SCH-H HPLCMT-CORE ZN,SizingPeriod: FORT MCMURRAY AP ANN CLG .4% CONDNS DB=>MWB,4.6408417702E-003,1.4437456739E-002,Pass,Pass,4.1735107712E-003,8.6153700438E-003,Pass,Pass
 Warmup Convergence Information,SP-LIBRARY READING AREA-SPACE FUNCTION SYS-6 FLR-1 SCH-C HPLCMT-CORE ZN,SizingPeriod: FORT MCMURRAY AP ANN CLG .4% CONDNS DB=>MWB,3.2411597615E-002,4.6231899478E-002,Pass,Pass,5.3676329785E-003,8.4844183153E-003,Pass,Pass
 Warmup Convergence Information,SP-LIBRARY STACKS-SPACE FUNCTION SYS-6 FLR-2 SCH-C HPLCMT-WEST ZN,SizingPeriod: FORT MCMURRAY AP ANN CLG .4% CONDNS DB=>MWB,3.8857716474E-002,5.6578571913E-002,Pass,Pass,1.0033853958E-002,2.8597851043E-002,Pass,Pass
 Warmup Convergence Information,SP-MANUFACTURING FACILITY DETAILED MANUFACTURING AREA-SPACE FUNCTION SYS-3 FLR-3 SCH-A HPLCMT-NORTH ZN,SizingPeriod: FORT MCMURRAY AP ANN CLG .4% CONDNS DB=>MWB,3.5999038689E-002,9.8205898114E-002,Pass,Pass,3.6720649637E-002,0.1453712471,Pass,Pass
 Warmup Convergence Information,SP-MANUFACTURING FACILITY EQUIPMENT ROOM-SPACE FUNCTION SYS-3 FLR-2 SCH-A HPLCMT-EAST ZN,SizingPeriod: FORT MCMURRAY AP ANN CLG .4% CONDNS DB=>MWB,2.7595191876E-002,0.1101157923,Pass,Pass,2.9582611637E-002,0.1285585145,Pass,Pass
 Warmup Convergence Information,SP-MANUFACTURING FACILITY EXTRA HIGH BAY AREA (> 15 M FLOOR-TO-CEILING HEIGHT)-SPACE FUNCTION SYS-3 FLR-3 SCH-A HPLCMT-SOUTH ZN,SizingPeriod: FORT MCMURRAY AP ANN CLG .4% CONDNS DB=>MWB,3.4944893377E-002,0.1159616120,Pass,Pass,3.3483068797E-002,0.1365600517,Pass,Pass
 Warmup Convergence Information,SP-MANUFACTURING FACILITY HIGH BAY AREA (7.5 TO 15 M FLOOR-TO-CEILING HEIGHT)-SPACE FUNCTION SYS-3 FLR-2 SCH-A HPLCMT-NORTH ZN,SizingPeriod: FORT MCMURRAY AP ANN CLG .4% CONDNS DB=>MWB,2.8971498268E-002,0.1165950544,Pass,Pass,3.1281397694E-002,0.1523105413,Pass,Pass
 Warmup Convergence Information,SP-MANUFACTURING FACILITY LOW BAY AREA (< 7.5 M FLOOR-TO-CEILING HEIGHT)-SPACE FUNCTION SYS-3 FLR-2 SCH-A HPLCMT-SOUTH ZN,SizingPeriod: FORT MCMURRAY AP ANN CLG .4% CONDNS DB=>MWB,3.0770709073E-002,0.1037893792,Pass,Pass,3.3353643180E-002,0.1409166499,Pass,Pass
 Warmup Convergence Information,SP-MUSEUM GENERAL EXHIBITION AREA-SPACE FUNCTION SYS-2 FLR-2 SCH-C HPLCMT-CORE ZN,SizingPeriod: FORT MCMURRAY AP ANN CLG .4% CONDNS DB=>MWB,6.9748239941E-002,6.2705312275E-002,Pass,Pass,4.5900095851E-002,0.1106786239,Pass,Pass
Environment,FORT MCMURRAY AP ANN HTG 99.6% CONDNS DB,SizingPeriod:DesignDay,01/21,01/21,WinterDesignDay,1,N/A,N/A,N/A,N/A,N/A,N/A
Environment:Daylight Saving,No,SizingPeriod:DesignDay
Environment:Design Day Data,-36.20,0.00,DefaultMultipliers,96969,90,1.0,0.00,No,No
Environment:Design Day Misc, 21,1229.0,0.1415,5.7310E-002,1.0,-11.15,-20.1,ASHRAEClearSky
Environment:WarmupDays,  6
 Warmup Convergence Information,SP-FIRE STATION SLEEPING QUARTERS-SPACE FUNCTION SYS-3 FLR-4 SCH-G HPLCMT-CORE ZN,SizingPeriod: FORT MCMURRAY AP ANN HTG 99.6% CONDNS DB,5.5644479041E-002,0.2772631406,Pass,Pass,0.1034556034,0.5584154317,Pass,Pass
 Warmup Convergence Information,SP-GYMNASIUM/FITNESS CENTRE EXERCISE AREA-SPACE FUNCTION SYS-6 FLR-4 SCH-B HPLCMT-NORTH ZN,SizingPeriod: FORT MCMURRAY AP ANN HTG 99.6% CONDNS DB,7.3494864841E-002,0.2956111067,Pass,Pass,0.1926713655,0.3950344181,Pass,Pass
 Warmup Convergence Information,SP-GYMNASIUM/FITNESS CENTRE PLAYING AREA-SPACE FUNCTION SYS-6 FLR-4 SCH-B HPLCMT-WEST ZN,SizingPeriod: FORT MCMURRAY AP ANN HTG 99.6% CONDNS DB,0.1614743763,0.2224113279,Pass,Pass,0.3921090868,0.8606213825,Pass,Pass
 Warmup Convergence Information,SP-HEALTH CARE FACILITY EXAM/TREATMENT ROOM-SPACE FUNCTION SYS-3 FLR-3 SCH-C HPLCMT-EAST ZN,SizingPeriod: FORT MCMURRAY AP ANN HTG 99.6% CONDNS DB,5.5557607375E-002,0.2787577717,Pass,Pass,0.7246712728,7.2044306152,Pass,Pass
 Warmup Convergence Information,SP-HEALTH CARE FACILITY IMAGING ROOM-SPACE FUNCTION SYS-3 FLR-3 SCH-H HPLCMT-WEST ZN,SizingPeriod: FORT MCMURRAY AP ANN HTG 99.6% CONDNS DB,5.5618606513E-002,0.2595606708,Pass,Pass,6.0641820272E-002,0.2808887767,Pass,Pass
 Warmup Convergence Information,SP-HEALTH CARE FACILITY MEDICAL SUPPLY ROOM-SPACE FUNCTION SYS-3 FLR-4 SCH-H HPLCMT-SOUTH ZN,SizingPeriod: FORT MCMURRAY AP ANN HTG 99.6% CONDNS DB,5.5575635722E-002,0.3149399794,Pass,Pass,0.1735395521,1.1440885104,Pass,Pass
 Warmup Convergence Information,SP-HEALTH CARE FACILITY NURSERY-SPACE FUNCTION SYS-3 FLR-4 SCH-H HPLCMT-EAST ZN,SizingPeriod: FORT MCMURRAY AP ANN HTG 99.6% CONDNS DB,5.5573245112E-002,0.3044533678,Pass,Pass,9.9985682591E-002,0.3244760309,Pass,Pass
 Warmup Convergence Information,SP-HEALTH CARE FACILITY NURSES STATION-SPACE FUNCTION SYS-3 FLR-1 SCH-H HPLCMT-WEST ZN,SizingPeriod: FORT MCMURRAY AP ANN HTG 99.6% CONDNS DB,3.4225893579E-002,0.1607725104,Pass,Pass,1.8611061038E-002,7.8106483047E-002,Pass,Pass
 Warmup Convergence Information,SP-HEALTH CARE FACILITY OPERATING ROOM-SPACE FUNCTION SYS-3 FLR-1 SCH-H HPLCMT-NORTH ZN,SizingPeriod: FORT MCMURRAY AP ANN HTG 99.6% CONDNS DB,4.0634872032E-002,0.2047070576,Pass,Pass,1.4654971913E-002,6.0922141569E-002,Pass,Pass
 Warmup Convergence Information,SP-HEALTH CARE FACILITY PATIENT ROOM-SPACE FUNCTION SYS-3 FLR-1 SCH-H HPLCMT-SOUTH ZN,SizingPeriod: FORT MCMURRAY AP ANN HTG 99.6% CONDNS DB,1.8642338477E-002,0.1127819158,Pass,Pass,1.4340699257E-002,8.8041234624E-002,Pass,Pass
 Warmup Convergence Information,SP-HEALTH CARE FACILITY PHYSICAL THERAPY ROOM-SPACE FUNCTION SYS-3 FLR-1 SCH-C HPLCMT-EAST ZN,SizingPeriod: FORT MCMURRAY AP ANN HTG 99.6% CONDNS DB,5.5562278489E-002,0.2556545933,Pass,Pass,0.6153281294,3.6295123968,Pass,Pass
 Warmup Convergence Information,SP-HEALTH CARE FACILITY RECOVERY ROOM-SPACE FUNCTION SYS-3 FLR-3 SCH-H HPLCMT-CORE ZN,SizingPeriod: FORT MCMURRAY AP ANN HTG 99.6% CONDNS DB,5.7184781862E-002,0.2875874907,Pass,Pass,3.3569943933E-002,0.1432661666,Pass,Pass
 Warmup Convergence Information,SP-LIBRARY READING AREA-SPACE FUNCTION SYS-6 FLR-1 SCH-C HPLCMT-CORE ZN,SizingPeriod: FORT MCMURRAY AP ANN HTG 99.6% CONDNS DB,3.7230124812E-002,3.7461933379E-002,Pass,Pass,5.3999611883E-003,1.2885596547E-002,Pass,Pass
 Warmup Convergence Information,SP-LIBRARY STACKS-SPACE FUNCTION SYS-6 FLR-2 SCH-C HPLCMT-WEST ZN,SizingPeriod: FORT MCMURRAY AP ANN HTG 99.6% CONDNS DB,5.3713962519E-002,9.4318012850E-002,Pass,Pass,0.2372651937,1.5262105307,Pass,Pass
 Warmup Convergence Information,SP-MANUFACTURING FACILITY DETAILED MANUFACTURING AREA-SPACE FUNCTION SYS-3 FLR-3 SCH-A HPLCMT-NORTH ZN,SizingPeriod: FORT MCMURRAY AP ANN HTG 99.6% CONDNS DB,5.5557556281E-002,0.2632886903,Pass,Pass,0.1710204237,0.6381723837,Pass,Pass
 Warmup Convergence Information,SP-MANUFACTURING FACILITY EQUIPMENT ROOM-SPACE FUNCTION SYS-3 FLR-2 SCH-A HPLCMT-EAST ZN,SizingPeriod: FORT MCMURRAY AP ANN HTG 99.6% CONDNS DB,5.5561074150E-002,0.2623547632,Pass,Pass,0.1739953774,0.6698634535,Pass,Pass
 Warmup Convergence Information,SP-MANUFACTURING FACILITY EXTRA HIGH BAY AREA (> 15 M FLOOR-TO-CEILING HEIGHT)-SPACE FUNCTION SYS-3 FLR-3 SCH-A HPLCMT-SOUTH ZN,SizingPeriod: FORT MCMURRAY AP ANN HTG 99.6% CONDNS DB,5.5557758593E-002,0.2715711410,Pass,Pass,0.3801106030,2.2670469323,Pass,Pass
 Warmup Convergence Information,SP-MANUFACTURING FACILITY HIGH BAY AREA (7.5 TO 15 M FLOOR-TO-CEILING HEIGHT)-SPACE FUNCTION SYS-3 FLR-2 SCH-A HPLCMT-NORTH ZN,SizingPeriod: FORT MCMURRAY AP ANN HTG 99.6% CONDNS DB,5.5568305033E-002,0.2472641461,Pass,Pass,0.2538604097,1.5434105860,Pass,Pass
 Warmup Convergence Information,SP-MANUFACTURING FACILITY LOW BAY AREA (< 7.5 M FLOOR-TO-CEILING HEIGHT)-SPACE FUNCTION SYS-3 FLR-2 SCH-A HPLCMT-SOUTH ZN,SizingPeriod: FORT MCMURRAY AP ANN HTG 99.6% CONDNS DB,5.5639195345E-002,0.2601869167,Pass,Pass,0.3407999487,1.9396340653,Pass,Pass
 Warmup Convergence Information,SP-MUSEUM GENERAL EXHIBITION AREA-SPACE FUNCTION SYS-2 FLR-2 SCH-C HPLCMT-CORE ZN,SizingPeriod: FORT MCMURRAY AP ANN HTG 99.6% CONDNS DB,8.9764410614E-002,0.2958463699,Pass,Pass,0.1339090668,0.3616494747,Pass,Pass
! <Program Control Information:Threads/Parallel Sims>, Threading Supported,Maximum Number of Threads, Env Set Threads (OMP_NUM_THREADS), EP Env Set Threads (EP_OMP_NUM_THREADS), IDF Set Threads, Number of Threads Used (Interior Radiant Exchange), Number Nominal Surfaces, Number Parallel Sims
Program Control:Threads/Parallel Sims, No,1, N/A, N/A, N/A, N/A, N/A, N/A
End of Data
