Program Version,EnergyPlus, Version 8.9.0-eba93e8e1b, YMD=2019.03.20 17:57
! This file shows details about the branches, nodes, and other
! elements of the flow connections.
! This file is intended for use in "debugging" potential problems
! that may also be detected by the program, but may be more easily
! identified by "eye".
! This file is also intended to support software which draws a
! schematic diagram of the HVAC system.
! ===============================================================
! #Nodes,<Number of Unique Nodes>
 #Nodes,366
! <Node>,<NodeNumber>,<Node Name>,<Node Fluid Type>,<# Times Node Referenced After Definition>
 Node,1,NODE 109,Air,4
 Node,2,NODE 89,Air,4
 Node,3,NODE 130,Air,4
 Node,4,NODE 143,Air,4
 Node,5,NODE 156,Air,4
 Node,6,NODE 169,Air,4
 Node,7,NODE 195,Air,4
 Node,8,NODE 182,Air,4
 Node,9,NODE 208,Air,4
 Node,10,NODE 221,Air,4
 Node,11,NODE 234,Air,4
 Node,12,NODE 247,Air,4
 Node,13,NODE 260,Air,4
 Node,14,NODE 273,Air,4
 Node,15,NODE 286,Air,4
 Node,16,NODE 299,Air,4
 Node,17,NODE 27,Air,4
 Node,18,NODE 39,Air,3
 Node,19,NODE 45,Air,3
 Node,20,NODE 51,Air,3
 Node,21,NODE 127,Air,10
 Node,22,NODE 128,Air,3
 Node,23,NODE 140,Air,10
 Node,24,NODE 141,Air,3
 Node,25,NODE 153,Air,10
 Node,26,NODE 154,Air,3
 Node,27,NODE 166,Air,10
 Node,28,NODE 167,Air,3
 Node,29,NODE 192,Air,10
 Node,30,NODE 193,Air,3
 Node,31,NODE 179,Air,10
 Node,32,NODE 180,Air,3
 Node,33,NODE 205,Air,10
 Node,34,NODE 206,Air,3
 Node,35,NODE 218,Air,10
 Node,36,NODE 219,Air,3
 Node,37,NODE 231,Air,10
 Node,38,NODE 232,Air,3
 Node,39,NODE 244,Air,10
 Node,40,NODE 245,Air,3
 Node,41,NODE 257,Air,10
 Node,42,NODE 258,Air,3
 Node,43,NODE 270,Air,10
 Node,44,NODE 271,Air,3
 Node,45,NODE 283,Air,10
 Node,46,NODE 284,Air,3
 Node,47,NODE 296,Air,10
 Node,48,NODE 297,Air,3
 Node,49,NODE 23,Air,10
 Node,50,NODE 24,Air,3
 Node,51,NODE 86,Air,12
 Node,52,NODE 87,Air,3
 Node,53,NODE 106,Air,12
 Node,54,NODE 107,Air,3
 Node,55,NODE 126,Air,3
 Node,56,NODE 135,Air,6
 Node,57,NODE 134,Air,6
 Node,58,NODE 133,Air,8
 Node,59,NODE 139,Air,3
 Node,60,NODE 148,Air,6
 Node,61,NODE 147,Air,6
 Node,62,NODE 146,Air,8
 Node,63,NODE 152,Air,3
 Node,64,NODE 161,Air,6
 Node,65,NODE 160,Air,6
 Node,66,NODE 159,Air,8
 Node,67,NODE 165,Air,3
 Node,68,NODE 174,Air,6
 Node,69,NODE 173,Air,6
 Node,70,NODE 172,Air,8
 Node,71,NODE 191,Air,3
 Node,72,NODE 200,Air,6
 Node,73,NODE 199,Air,6
 Node,74,NODE 198,Air,8
 Node,75,NODE 178,Air,3
 Node,76,NODE 187,Air,6
 Node,77,NODE 186,Air,6
 Node,78,NODE 185,Air,8
 Node,79,NODE 204,Air,3
 Node,80,NODE 213,Air,6
 Node,81,NODE 212,Air,6
 Node,82,NODE 211,Air,8
 Node,83,NODE 217,Air,3
 Node,84,NODE 226,Air,6
 Node,85,NODE 225,Air,6
 Node,86,NODE 224,Air,8
 Node,87,NODE 230,Air,3
 Node,88,NODE 239,Air,6
 Node,89,NODE 238,Air,6
 Node,90,NODE 237,Air,8
 Node,91,NODE 243,Air,3
 Node,92,NODE 252,Air,6
 Node,93,NODE 251,Air,6
 Node,94,NODE 250,Air,8
 Node,95,NODE 256,Air,3
 Node,96,NODE 265,Air,6
 Node,97,NODE 264,Air,6
 Node,98,NODE 263,Air,8
 Node,99,NODE 269,Air,3
 Node,100,NODE 278,Air,6
 Node,101,NODE 277,Air,6
 Node,102,NODE 276,Air,8
 Node,103,NODE 282,Air,3
 Node,104,NODE 291,Air,6
 Node,105,NODE 290,Air,6
 Node,106,NODE 289,Air,8
 Node,107,NODE 295,Air,3
 Node,108,NODE 304,Air,6
 Node,109,NODE 303,Air,6
 Node,110,NODE 302,Air,8
 Node,111,NODE 21,Air,3
 Node,112,NODE 35,Air,6
 Node,113,NODE 33,Air,6
 Node,114,NODE 32,Air,8
 Node,115,NODE 85,Air,2
 Node,116,NODE 98,Air,5
 Node,117,NODE 97,Air,5
 Node,118,NODE 96,Air,5
 Node,119,NODE 95,Air,9
 Node,120,NODE 105,Air,2
 Node,121,NODE 119,Air,5
 Node,122,NODE 118,Air,5
 Node,123,NODE 117,Air,5
 Node,124,NODE 116,Air,9
 Node,125,NODE 57,Water,2
 Node,126,NODE 64,Water,1
 Node,127,NODE 60,Water,1
 Node,128,NODE 65,Water,1
 Node,129,NODE 66,Water,1
 Node,130,NODE 67,Water,1
 Node,131,NODE 68,Water,1
 Node,132,NODE 69,Water,1
 Node,133,NODE 70,Water,1
 Node,134,NODE 59,Water,4
 Node,135,NODE 61,Water,2
 Node,136,CHILLED WATER LOOP DEMAND INLET PIPE NODE,Water,1
 Node,137,NODE 63,Water,2
 Node,138,NODE 92,Water,1
 Node,139,NODE 112,Water,2
 Node,140,NODE 113,Water,1
 Node,141,CHILLED WATER LOOP DEMAND BYPASS PIPE INLET NODE,Water,1
 Node,142,CHILLED WATER LOOP DEMAND BYPASS PIPE OUTLET NODE,Water,1
 Node,143,CHILLED WATER LOOP DEMAND OUTLET PIPE NODE,Water,1
 Node,144,NODE 62,Water,2
 Node,145,NODE 71,Water,2
 Node,146,NODE 77,Water,1
 Node,147,NODE 73,Water,1
 Node,148,NODE 78,Water,1
 Node,149,NODE 79,Water,1
 Node,150,NODE 80,Water,1
 Node,151,NODE 81,Water,1
 Node,152,NODE 72,Water,4
 Node,153,NODE 74,Water,2
 Node,154,CONDENSER WATER LOOP DEMAND INLET PIPE NODE,Water,1
 Node,155,NODE 76,Water,1
 Node,156,NODE 82,Water,1
 Node,157,NODE 83,Water,1
 Node,158,NODE 84,Water,1
 Node,159,CONDENSER WATER LOOP DEMAND BYPASS PIPE INLET NODE,Water,1
 Node,160,CONDENSER WATER LOOP DEMAND BYPASS PIPE OUTLET NODE,Water,1
 Node,161,CONDENSER WATER LOOP DEMAND OUTLET PIPE NODE,Water,1
 Node,162,NODE 75,Water,2
 Node,163,NODE 2,Water,2
 Node,164,NODE 11,Water,1
 Node,165,NODE 5,Water,1
 Node,166,NODE 12,Water,1
 Node,167,NODE 14,Water,1
 Node,168,NODE 15,Water,1
 Node,169,NODE 17,Water,1
 Node,170,NODE 18,Water,1
 Node,171,NODE 20,Water,1
 Node,172,NODE 3,Water,4
 Node,173,NODE 6,Water,2
 Node,174,HOT WATER LOOP DEMAND INLET PIPE NODE,Water,1
 Node,175,NODE 9,Water,1
 Node,176,NODE 38,Water,1
 Node,177,NODE 42,Water,1
 Node,178,NODE 44,Water,1
 Node,179,NODE 48,Water,1
 Node,180,NODE 50,Water,1
 Node,181,NODE 54,Water,1
 Node,182,NODE 56,Water,1
 Node,183,NODE 90,Water,2
 Node,184,NODE 91,Water,1
 Node,185,NODE 99,Water,1
 Node,186,NODE 100,Water,1
 Node,187,NODE 103,Water,1
 Node,188,NODE 104,Water,1
 Node,189,NODE 110,Water,2
 Node,190,NODE 111,Water,1
 Node,191,NODE 120,Water,1
 Node,192,NODE 121,Water,1
 Node,193,NODE 124,Water,1
 Node,194,NODE 125,Water,1
 Node,195,NODE 137,Water,1
 Node,196,NODE 138,Water,1
 Node,197,NODE 150,Water,1
 Node,198,NODE 151,Water,1
 Node,199,NODE 163,Water,1
 Node,200,NODE 164,Water,1
 Node,201,NODE 176,Water,1
 Node,202,NODE 177,Water,1
 Node,203,NODE 189,Water,1
 Node,204,NODE 190,Water,1
 Node,205,NODE 202,Water,1
 Node,206,NODE 203,Water,1
 Node,207,NODE 215,Water,1
 Node,208,NODE 216,Water,1
 Node,209,NODE 228,Water,1
 Node,210,NODE 229,Water,1
 Node,211,NODE 241,Water,1
 Node,212,NODE 242,Water,1
 Node,213,NODE 254,Water,1
 Node,214,NODE 255,Water,1
 Node,215,NODE 267,Water,1
 Node,216,NODE 268,Water,1
 Node,217,NODE 280,Water,1
 Node,218,NODE 281,Water,1
 Node,219,NODE 293,Water,1
 Node,220,NODE 294,Water,1
 Node,221,NODE 306,Water,1
 Node,222,NODE 307,Water,1
 Node,223,HOT WATER LOOP DEMAND BYPASS PIPE INLET NODE,Water,1
 Node,224,HOT WATER LOOP DEMAND BYPASS PIPE OUTLET NODE,Water,1
 Node,225,HOT WATER LOOP DEMAND OUTLET PIPE NODE,Water,1
 Node,226,NODE 8,Water,2
 Node,227,NODE 308,Water,2
 Node,228,NODE 314,Water,1
 Node,229,NODE 310,Water,1
 Node,230,NODE 315,Water,1
 Node,231,NODE 316,Water,1
 Node,232,NODE 317,Water,1
 Node,233,NODE 319,Water,1
 Node,234,NODE 309,Water,4
 Node,235,NODE 311,Water,2
 Node,236,NODE 320,Water,1
 Node,237,NODE 313,Water,1
 Node,238,NODE 318,Water,1
 Node,239,NODE 322,Water,1
 Node,240,NODE 323,Water,1
 Node,241,NODE 324,Water,1
 Node,242,NODE 325,Water,1
 Node,243,NODE 326,Water,1
 Node,244,NODE 327,Water,1
 Node,245,NODE 328,Water,1
 Node,246,NODE 329,Water,1
 Node,247,NODE 330,Water,1
 Node,248,NODE 331,Water,1
 Node,249,NODE 332,Water,1
 Node,250,NODE 333,Water,1
 Node,251,NODE 334,Water,1
 Node,252,NODE 335,Water,1
 Node,253,NODE 336,Water,1
 Node,254,NODE 337,Water,1
 Node,255,NODE 338,Water,1
 Node,256,NODE 339,Water,1
 Node,257,NODE 340,Water,1
 Node,258,NODE 341,Water,1
 Node,259,NODE 342,Water,1
 Node,260,NODE 343,Water,1
 Node,261,NODE 344,Water,1
 Node,262,NODE 345,Water,1
 Node,263,NODE 346,Water,1
 Node,264,NODE 347,Water,1
 Node,265,NODE 348,Water,1
 Node,266,NODE 349,Water,1
 Node,267,MAIN SERVICE WATER LOOP DEMAND BYPASS PIPE INLET NODE,Water,1
 Node,268,MAIN SERVICE WATER LOOP DEMAND BYPASS PIPE OUTLET NODE,Water,1
 Node,269,NODE 321,Water,1
 Node,270,NODE 312,Water,2
 Node,271,NODE 1,Air,0
 Node,272,NODE 122,Air,1
 Node,273,NODE 4,Air,0
 Node,274,NODE 101,Air,1
 Node,275,NODE 7,Air,1
 Node,276,NODE 136,Air,1
 Node,277,NODE 10,Air,1
 Node,278,NODE 149,Air,1
 Node,279,NODE 13,Air,1
 Node,280,NODE 162,Air,1
 Node,281,NODE 16,Air,1
 Node,282,NODE 175,Air,1
 Node,283,NODE 22,Air,1
 Node,284,NODE 201,Air,1
 Node,285,NODE 19,Air,1
 Node,286,NODE 188,Air,1
 Node,287,NODE 25,Air,1
 Node,288,NODE 214,Air,1
 Node,289,NODE 28,Air,1
 Node,290,NODE 227,Air,1
 Node,291,NODE 31,Air,1
 Node,292,NODE 240,Air,1
 Node,293,NODE 34,Air,1
 Node,294,NODE 253,Air,1
 Node,295,NODE 37,Air,1
 Node,296,NODE 266,Air,1
 Node,297,NODE 40,Air,1
 Node,298,NODE 279,Air,1
 Node,299,NODE 43,Air,1
 Node,300,NODE 292,Air,1
 Node,301,NODE 46,Air,1
 Node,302,NODE 305,Air,1
 Node,303,NODE 49,Air,1
 Node,304,NODE 36,Air,1
 Node,305,NODE 52,Air,0
 Node,306,NODE 41,Air,1
 Node,307,NODE 55,Air,0
 Node,308,NODE 47,Air,1
 Node,309,NODE 58,Air,0
 Node,310,NODE 53,Air,1
 Node,311,NODE 129,Air,2
 Node,312,NODE 142,Air,2
 Node,313,NODE 155,Air,2
 Node,314,NODE 168,Air,2
 Node,315,NODE 194,Air,2
 Node,316,NODE 181,Air,2
 Node,317,NODE 207,Air,2
 Node,318,NODE 220,Air,2
 Node,319,NODE 233,Air,2
 Node,320,NODE 246,Air,2
 Node,321,NODE 259,Air,2
 Node,322,NODE 272,Air,2
 Node,323,NODE 285,Air,2
 Node,324,NODE 298,Air,2
 Node,325,NODE 26,Air,2
 Node,326,NODE 88,Air,2
 Node,327,NODE 108,Air,2
 Node,328,NODE 131,Air,2
 Node,329,NODE 144,Air,2
 Node,330,NODE 157,Air,2
 Node,331,NODE 170,Air,2
 Node,332,NODE 196,Air,2
 Node,333,NODE 183,Air,2
 Node,334,NODE 209,Air,2
 Node,335,NODE 222,Air,2
 Node,336,NODE 235,Air,2
 Node,337,NODE 248,Air,2
 Node,338,NODE 261,Air,2
 Node,339,NODE 274,Air,2
 Node,340,NODE 287,Air,2
 Node,341,NODE 300,Air,2
 Node,342,NODE 29,Air,2
 Node,343,NODE 93,Air,2
 Node,344,NODE 114,Air,2
 Node,345,MODEL OUTDOOR AIR NODE,Air,0
 Node,346,NODE 102,Air,1
 Node,347,NODE 123,Air,1
 Node,348,AIR TERMINAL SINGLE DUCT VAV REHEAT 2 DAMPER OUTLET,Air,1
 Node,349,AIR TERMINAL SINGLE DUCT VAV REHEAT 1 DAMPER OUTLET,Air,1
 Node,350,NODE 132,Air,1
 Node,351,NODE 145,Air,1
 Node,352,NODE 158,Air,1
 Node,353,NODE 171,Air,1
 Node,354,NODE 197,Air,1
 Node,355,NODE 184,Air,1
 Node,356,NODE 210,Air,1
 Node,357,NODE 223,Air,1
 Node,358,NODE 236,Air,1
 Node,359,NODE 249,Air,1
 Node,360,NODE 262,Air,1
 Node,361,NODE 275,Air,1
 Node,362,NODE 288,Air,1
 Node,363,NODE 301,Air,1
 Node,364,NODE 30,Air,1
 Node,365,NODE 94,Air,1
 Node,366,NODE 115,Air,1
! ===============================================================
! Suspicious nodes have 0 references.  It is normal for some nodes, however.
! Listing nodes with 0 references (culled from previous list):
! <Suspicious Node>,<NodeNumber>,<Node Name>,<Node Fluid Type>,<# Times Node Referenced After Definition>
 Suspicious Node,271,NODE 1,Air,0
 Suspicious Node,273,NODE 4,Air,0
 Suspicious Node,305,NODE 52,Air,0
 Suspicious Node,307,NODE 55,Air,0
 Suspicious Node,309,NODE 58,Air,0
 Suspicious Node,345,MODEL OUTDOOR AIR NODE,Air,0
! ===============================================================
! <#Branch Lists>,<Number of Branch Lists>
 #Branch Lists,25
! <Branch List>,<Branch List Count>,<Branch List Name>,<Loop Name>,<Loop Type>,<Number of Branches>
! <Branch>,<Branch Count>,<Branch Name>,<Loop Name>,<Loop Type>,<Branch Inlet Node Name>,<Branch Outlet Node Name>
 Branch List,1,SYS_3_PSZ ALL_ST=HOSPITAL - EMERGENCY_FL=STORY 4_SCH=H SUPPLY BRANCHES,SYS_3_PSZ ALL_ST=HOSPITAL - EMERGENCY_FL=STORY 4_SCH=H,Air,1
   Branch,1,SYS_3_PSZ ALL_ST=HOSPITAL - EMERGENCY_FL=STORY 4_SCH=H MAIN BRANCH,SYS_3_PSZ ALL_ST=HOSPITAL - EMERGENCY_FL=STORY 4_SCH=H,Air,NODE 126,NODE 127
 Branch List,2,SYS_3_PSZ ALL_ST=HOSPITAL - EXAM_FL=STORY 3_SCH=C SUPPLY BRANCHES,SYS_3_PSZ ALL_ST=HOSPITAL - EXAM_FL=STORY 3_SCH=C,Air,1
   Branch,1,SYS_3_PSZ ALL_ST=HOSPITAL - EXAM_FL=STORY 3_SCH=C MAIN BRANCH,SYS_3_PSZ ALL_ST=HOSPITAL - EXAM_FL=STORY 3_SCH=C,Air,NODE 139,NODE 140
 Branch List,3,SYS_3_PSZ ALL_ST=HOSPITAL - LAUNDRY/WASHING_FL=STORY 4_SCH=C SUPPLY BRANCHES,SYS_3_PSZ ALL_ST=HOSPITAL - LAUNDRY/WASHING_FL=STORY 4_SCH=C,Air,1
   Branch,1,SYS_3_PSZ ALL_ST=HOSPITAL - LAUNDRY/WASHING_FL=STORY 4_SCH=C MAIN BRANCH,SYS_3_PSZ ALL_ST=HOSPITAL - LAUNDRY/WASHING_FL=STORY 4_SCH=C,Air,NODE 152,NODE 153
 Branch List,4,SYS_3_PSZ ALL_ST=HOSPITAL - LOUNGE/RECREATION_FL=STORY 1_SCH=B SUPPLY BRANCHES,SYS_3_PSZ ALL_ST=HOSPITAL - LOUNGE/RECREATION_FL=STORY 1_SCH=B,Air,1
   Branch,1,SYS_3_PSZ ALL_ST=HOSPITAL - LOUNGE/RECREATION_FL=STORY 1_SCH=B MAIN BRANCH,SYS_3_PSZ ALL_ST=HOSPITAL - LOUNGE/RECREATION_FL=STORY 1_SCH=B,Air,NODE 165,NODE 166
 Branch List,5,SYS_3_PSZ ALL_ST=HOSPITAL - MEDICAL SUPPLY - OCCSENS_FL=STORY 3_SCH=H SUPPLY BRANCHES,SYS_3_PSZ ALL_ST=HOSPITAL - MEDICAL SUPPLY - OCCSENS_FL=STORY 3_SCH=H,Air,1
   Branch,1,SYS_3_PSZ ALL_ST=HOSPITAL - MEDICAL SUPPLY - OCCSENS_FL=STORY 3_SCH=H MAIN BRANCH,SYS_3_PSZ ALL_ST=HOSPITAL - MEDICAL SUPPLY - OCCSENS_FL=STORY 3_SCH=H,Air,NODE 191,NODE 192
 Branch List,6,SYS_3_PSZ ALL_ST=HOSPITAL - MEDICAL SUPPLY_FL=STORY 1_SCH=H SUPPLY BRANCHES,SYS_3_PSZ ALL_ST=HOSPITAL - MEDICAL SUPPLY_FL=STORY 1_SCH=H,Air,1
   Branch,1,SYS_3_PSZ ALL_ST=HOSPITAL - MEDICAL SUPPLY_FL=STORY 1_SCH=H MAIN BRANCH,SYS_3_PSZ ALL_ST=HOSPITAL - MEDICAL SUPPLY_FL=STORY 1_SCH=H,Air,NODE 178,NODE 179
 Branch List,7,SYS_3_PSZ ALL_ST=HOSPITAL - NURSERY_FL=STORY 1_SCH=H SUPPLY BRANCHES,SYS_3_PSZ ALL_ST=HOSPITAL - NURSERY_FL=STORY 1_SCH=H,Air,1
   Branch,1,SYS_3_PSZ ALL_ST=HOSPITAL - NURSERY_FL=STORY 1_SCH=H MAIN BRANCH,SYS_3_PSZ ALL_ST=HOSPITAL - NURSERY_FL=STORY 1_SCH=H,Air,NODE 204,NODE 205
 Branch List,8,SYS_3_PSZ ALL_ST=HOSPITAL - NURSES STATION_FL=STORY 3_SCH=H SUPPLY BRANCHES,SYS_3_PSZ ALL_ST=HOSPITAL - NURSES STATION_FL=STORY 3_SCH=H,Air,1
   Branch,1,SYS_3_PSZ ALL_ST=HOSPITAL - NURSES STATION_FL=STORY 3_SCH=H MAIN BRANCH,SYS_3_PSZ ALL_ST=HOSPITAL - NURSES STATION_FL=STORY 3_SCH=H,Air,NODE 217,NODE 218
 Branch List,9,SYS_3_PSZ ALL_ST=HOSPITAL - OPERATING ROOM_FL=STORY 1_SCH=H SUPPLY BRANCHES,SYS_3_PSZ ALL_ST=HOSPITAL - OPERATING ROOM_FL=STORY 1_SCH=H,Air,1
   Branch,1,SYS_3_PSZ ALL_ST=HOSPITAL - OPERATING ROOM_FL=STORY 1_SCH=H MAIN BRANCH,SYS_3_PSZ ALL_ST=HOSPITAL - OPERATING ROOM_FL=STORY 1_SCH=H,Air,NODE 230,NODE 231
 Branch List,10,SYS_3_PSZ ALL_ST=HOSPITAL - PATIENT ROOM_FL=STORY 1_SCH=H SUPPLY BRANCHES,SYS_3_PSZ ALL_ST=HOSPITAL - PATIENT ROOM_FL=STORY 1_SCH=H,Air,1
   Branch,1,SYS_3_PSZ ALL_ST=HOSPITAL - PATIENT ROOM_FL=STORY 1_SCH=H MAIN BRANCH,SYS_3_PSZ ALL_ST=HOSPITAL - PATIENT ROOM_FL=STORY 1_SCH=H,Air,NODE 243,NODE 244
 Branch List,11,SYS_3_PSZ ALL_ST=HOSPITAL - PHARMACY_FL=STORY 2_SCH=C SUPPLY BRANCHES,SYS_3_PSZ ALL_ST=HOSPITAL - PHARMACY_FL=STORY 2_SCH=C,Air,1
   Branch,1,SYS_3_PSZ ALL_ST=HOSPITAL - PHARMACY_FL=STORY 2_SCH=C MAIN BRANCH,SYS_3_PSZ ALL_ST=HOSPITAL - PHARMACY_FL=STORY 2_SCH=C,Air,NODE 256,NODE 257
 Branch List,12,SYS_3_PSZ ALL_ST=HOSPITAL - PHYSICAL THERAPY_FL=STORY 4_SCH=C SUPPLY BRANCHES,SYS_3_PSZ ALL_ST=HOSPITAL - PHYSICAL THERAPY_FL=STORY 4_SCH=C,Air,1
   Branch,1,SYS_3_PSZ ALL_ST=HOSPITAL - PHYSICAL THERAPY_FL=STORY 4_SCH=C MAIN BRANCH,SYS_3_PSZ ALL_ST=HOSPITAL - PHYSICAL THERAPY_FL=STORY 4_SCH=C,Air,NODE 269,NODE 270
 Branch List,13,SYS_3_PSZ ALL_ST=HOSPITAL - RADIOLOGY/IMAGING_FL=STORY 2_SCH=H SUPPLY BRANCHES,SYS_3_PSZ ALL_ST=HOSPITAL - RADIOLOGY/IMAGING_FL=STORY 2_SCH=H,Air,1
   Branch,1,SYS_3_PSZ ALL_ST=HOSPITAL - RADIOLOGY/IMAGING_FL=STORY 2_SCH=H MAIN BRANCH,SYS_3_PSZ ALL_ST=HOSPITAL - RADIOLOGY/IMAGING_FL=STORY 2_SCH=H,Air,NODE 282,NODE 283
 Branch List,14,SYS_3_PSZ ALL_ST=HOSPITAL - RECOVERY_FL=STORY 4_SCH=H SUPPLY BRANCHES,SYS_3_PSZ ALL_ST=HOSPITAL - RECOVERY_FL=STORY 4_SCH=H,Air,1
   Branch,1,SYS_3_PSZ ALL_ST=HOSPITAL - RECOVERY_FL=STORY 4_SCH=H MAIN BRANCH,SYS_3_PSZ ALL_ST=HOSPITAL - RECOVERY_FL=STORY 4_SCH=H,Air,NODE 295,NODE 296
 Branch List,15,SYS_4_PSZ_WILD_ST=HOSPITAL CORR. < 2.4M-SCH-A_FL=STORY 3_SCH=H SUPPLY BRANCHES,SYS_4_PSZ_WILD_ST=HOSPITAL CORR. < 2.4M-SCH-A_FL=STORY 3_SCH=H,Air,1
   Branch,1,SYS_4_PSZ_WILD_ST=HOSPITAL CORR. < 2.4M-SCH-A_FL=STORY 3_SCH=H MAIN BRANCH,SYS_4_PSZ_WILD_ST=HOSPITAL CORR. < 2.4M-SCH-A_FL=STORY 3_SCH=H,Air,NODE 21,NODE 23
 Branch List,16,SYS_6_VAV WITH REHEAT SUPPLY BRANCHES,SYS_6_VAV WITH REHEAT,Air,1
   Branch,1,SYS_6_VAV WITH REHEAT MAIN BRANCH,SYS_6_VAV WITH REHEAT,Air,NODE 85,NODE 86
 Branch List,17,SYS_6_VAV WITH REHEAT 1 SUPPLY BRANCHES,SYS_6_VAV WITH REHEAT 1,Air,1
   Branch,1,SYS_6_VAV WITH REHEAT 1 MAIN BRANCH,SYS_6_VAV WITH REHEAT 1,Air,NODE 105,NODE 106
 Branch List,18,CHILLED WATER LOOP SUPPLY BRANCHES,CHILLED WATER LOOP,Plant Supply,5
   Branch,1,CHILLED WATER LOOP SUPPLY INLET BRANCH,CHILLED WATER LOOP,Plant Supply,NODE 57,NODE 64
   Branch,2,CHILLED WATER LOOP SUPPLY BRANCH 1,CHILLED WATER LOOP,Plant Supply,NODE 60,NODE 65
   Branch,3,CHILLED WATER LOOP SUPPLY BRANCH 2,CHILLED WATER LOOP,Plant Supply,NODE 66,NODE 67
   Branch,4,CHILLED WATER LOOP SUPPLY BRANCH 3,CHILLED WATER LOOP,Plant Supply,NODE 68,NODE 69
   Branch,5,CHILLED WATER LOOP SUPPLY OUTLET BRANCH,CHILLED WATER LOOP,Plant Supply,NODE 70,NODE 59
 Branch List,19,CHILLED WATER LOOP DEMAND BRANCHES,CHILLED WATER LOOP,Plant Demand,5
   Branch,1,CHILLED WATER LOOP DEMAND INLET BRANCH,CHILLED WATER LOOP,Plant Demand,NODE 61,CHILLED WATER LOOP DEMAND INLET PIPE NODE
   Branch,2,CHILLED WATER LOOP DEMAND BRANCH 1,CHILLED WATER LOOP,Plant Demand,NODE 63,NODE 92
   Branch,3,CHILLED WATER LOOP DEMAND BRANCH 2,CHILLED WATER LOOP,Plant Demand,NODE 112,NODE 113
   Branch,4,CHILLED WATER LOOP DEMAND BYPASS BRANCH,CHILLED WATER LOOP,Plant Demand,CHILLED WATER LOOP DEMAND BYPASS PIPE INLET NODE,CHILLED WATER LOOP DEMAND BYPASS PIPE OUTLET NODE
   Branch,5,CHILLED WATER LOOP DEMAND OUTLET BRANCH,CHILLED WATER LOOP,Plant Demand,CHILLED WATER LOOP DEMAND OUTLET PIPE NODE,NODE 62
 Branch List,20,CONDENSER WATER LOOP SUPPLY BRANCHES,CONDENSER WATER LOOP,Plant Supply,4
   Branch,1,CONDENSER WATER LOOP SUPPLY INLET BRANCH,CONDENSER WATER LOOP,Plant Supply,NODE 71,NODE 77
   Branch,2,CONDENSER WATER LOOP SUPPLY BRANCH 1,CONDENSER WATER LOOP,Plant Supply,NODE 73,NODE 78
   Branch,3,CONDENSER WATER LOOP SUPPLY BRANCH 2,CONDENSER WATER LOOP,Plant Supply,NODE 79,NODE 80
   Branch,4,CONDENSER WATER LOOP SUPPLY OUTLET BRANCH,CONDENSER WATER LOOP,Plant Supply,NODE 81,NODE 72
 Branch List,21,CONDENSER WATER LOOP DEMAND BRANCHES,CONDENSER WATER LOOP,Plant Demand,5
   Branch,1,CONDENSER WATER LOOP DEMAND INLET BRANCH,CONDENSER WATER LOOP,Plant Demand,NODE 74,CONDENSER WATER LOOP DEMAND INLET PIPE NODE
   Branch,2,CONDENSER WATER LOOP DEMAND BRANCH 1,CONDENSER WATER LOOP,Plant Demand,NODE 76,NODE 82
   Branch,3,CONDENSER WATER LOOP DEMAND BRANCH 2,CONDENSER WATER LOOP,Plant Demand,NODE 83,NODE 84
   Branch,4,CONDENSER WATER LOOP DEMAND BYPASS BRANCH,CONDENSER WATER LOOP,Plant Demand,CONDENSER WATER LOOP DEMAND BYPASS PIPE INLET NODE,CONDENSER WATER LOOP DEMAND BYPASS PIPE OUTLET NODE
   Branch,5,CONDENSER WATER LOOP DEMAND OUTLET BRANCH,CONDENSER WATER LOOP,Plant Demand,CONDENSER WATER LOOP DEMAND OUTLET PIPE NODE,NODE 75
 Branch List,22,HOT WATER LOOP SUPPLY BRANCHES,HOT WATER LOOP,Plant Supply,5
   Branch,1,HOT WATER LOOP SUPPLY INLET BRANCH,HOT WATER LOOP,Plant Supply,NODE 2,NODE 11
   Branch,2,HOT WATER LOOP SUPPLY BRANCH 1,HOT WATER LOOP,Plant Supply,NODE 5,NODE 12
   Branch,3,HOT WATER LOOP SUPPLY BRANCH 2,HOT WATER LOOP,Plant Supply,NODE 14,NODE 15
   Branch,4,HOT WATER LOOP SUPPLY BRANCH 3,HOT WATER LOOP,Plant Supply,NODE 17,NODE 18
   Branch,5,HOT WATER LOOP SUPPLY OUTLET BRANCH,HOT WATER LOOP,Plant Supply,NODE 20,NODE 3
 Branch List,23,HOT WATER LOOP DEMAND BRANCHES,HOT WATER LOOP,Plant Demand,27
   Branch,1,HOT WATER LOOP DEMAND INLET BRANCH,HOT WATER LOOP,Plant Demand,NODE 6,HOT WATER LOOP DEMAND INLET PIPE NODE
   Branch,2,HOT WATER LOOP DEMAND BRANCH 1,HOT WATER LOOP,Plant Demand,NODE 9,NODE 38
   Branch,3,HOT WATER LOOP DEMAND BRANCH 2,HOT WATER LOOP,Plant Demand,NODE 42,NODE 44
   Branch,4,HOT WATER LOOP DEMAND BRANCH 3,HOT WATER LOOP,Plant Demand,NODE 48,NODE 50
   Branch,5,HOT WATER LOOP DEMAND BRANCH 4,HOT WATER LOOP,Plant Demand,NODE 54,NODE 56
   Branch,6,HOT WATER LOOP DEMAND BRANCH 5,HOT WATER LOOP,Plant Demand,NODE 90,NODE 91
   Branch,7,HOT WATER LOOP DEMAND BRANCH 6,HOT WATER LOOP,Plant Demand,NODE 99,NODE 100
   Branch,8,HOT WATER LOOP DEMAND BRANCH 7,HOT WATER LOOP,Plant Demand,NODE 103,NODE 104
   Branch,9,HOT WATER LOOP DEMAND BRANCH 8,HOT WATER LOOP,Plant Demand,NODE 110,NODE 111
   Branch,10,HOT WATER LOOP DEMAND BRANCH 9,HOT WATER LOOP,Plant Demand,NODE 120,NODE 121
   Branch,11,HOT WATER LOOP DEMAND BRANCH 10,HOT WATER LOOP,Plant Demand,NODE 124,NODE 125
   Branch,12,HOT WATER LOOP DEMAND BRANCH 11,HOT WATER LOOP,Plant Demand,NODE 137,NODE 138
   Branch,13,HOT WATER LOOP DEMAND BRANCH 12,HOT WATER LOOP,Plant Demand,NODE 150,NODE 151
   Branch,14,HOT WATER LOOP DEMAND BRANCH 13,HOT WATER LOOP,Plant Demand,NODE 163,NODE 164
   Branch,15,HOT WATER LOOP DEMAND BRANCH 14,HOT WATER LOOP,Plant Demand,NODE 176,NODE 177
   Branch,16,HOT WATER LOOP DEMAND BRANCH 15,HOT WATER LOOP,Plant Demand,NODE 189,NODE 190
   Branch,17,HOT WATER LOOP DEMAND BRANCH 16,HOT WATER LOOP,Plant Demand,NODE 202,NODE 203
   Branch,18,HOT WATER LOOP DEMAND BRANCH 17,HOT WATER LOOP,Plant Demand,NODE 215,NODE 216
   Branch,19,HOT WATER LOOP DEMAND BRANCH 18,HOT WATER LOOP,Plant Demand,NODE 228,NODE 229
   Branch,20,HOT WATER LOOP DEMAND BRANCH 19,HOT WATER LOOP,Plant Demand,NODE 241,NODE 242
   Branch,21,HOT WATER LOOP DEMAND BRANCH 20,HOT WATER LOOP,Plant Demand,NODE 254,NODE 255
   Branch,22,HOT WATER LOOP DEMAND BRANCH 21,HOT WATER LOOP,Plant Demand,NODE 267,NODE 268
   Branch,23,HOT WATER LOOP DEMAND BRANCH 22,HOT WATER LOOP,Plant Demand,NODE 280,NODE 281
   Branch,24,HOT WATER LOOP DEMAND BRANCH 23,HOT WATER LOOP,Plant Demand,NODE 293,NODE 294
   Branch,25,HOT WATER LOOP DEMAND BRANCH 24,HOT WATER LOOP,Plant Demand,NODE 306,NODE 307
   Branch,26,HOT WATER LOOP DEMAND BYPASS BRANCH,HOT WATER LOOP,Plant Demand,HOT WATER LOOP DEMAND BYPASS PIPE INLET NODE,HOT WATER LOOP DEMAND BYPASS PIPE OUTLET NODE
   Branch,27,HOT WATER LOOP DEMAND OUTLET BRANCH,HOT WATER LOOP,Plant Demand,HOT WATER LOOP DEMAND OUTLET PIPE NODE,NODE 8
 Branch List,24,MAIN SERVICE WATER LOOP SUPPLY BRANCHES,MAIN SERVICE WATER LOOP,Plant Supply,4
   Branch,1,MAIN SERVICE WATER LOOP SUPPLY INLET BRANCH,MAIN SERVICE WATER LOOP,Plant Supply,NODE 308,NODE 314
   Branch,2,MAIN SERVICE WATER LOOP SUPPLY BRANCH 1,MAIN SERVICE WATER LOOP,Plant Supply,NODE 310,NODE 315
   Branch,3,MAIN SERVICE WATER LOOP SUPPLY BRANCH 2,MAIN SERVICE WATER LOOP,Plant Supply,NODE 316,NODE 317
   Branch,4,MAIN SERVICE WATER LOOP SUPPLY OUTLET BRANCH,MAIN SERVICE WATER LOOP,Plant Supply,NODE 319,NODE 309
 Branch List,25,MAIN SERVICE WATER LOOP DEMAND BRANCHES,MAIN SERVICE WATER LOOP,Plant Demand,18
   Branch,1,MAIN SERVICE WATER LOOP DEMAND INLET BRANCH,MAIN SERVICE WATER LOOP,Plant Demand,NODE 311,NODE 320
   Branch,2,MAIN SERVICE WATER LOOP DEMAND BRANCH 1,MAIN SERVICE WATER LOOP,Plant Demand,NODE 313,NODE 318
   Branch,3,MAIN SERVICE WATER LOOP DEMAND BRANCH 2,MAIN SERVICE WATER LOOP,Plant Demand,NODE 322,NODE 323
   Branch,4,MAIN SERVICE WATER LOOP DEMAND BRANCH 3,MAIN SERVICE WATER LOOP,Plant Demand,NODE 324,NODE 325
   Branch,5,MAIN SERVICE WATER LOOP DEMAND BRANCH 4,MAIN SERVICE WATER LOOP,Plant Demand,NODE 326,NODE 327
   Branch,6,MAIN SERVICE WATER LOOP DEMAND BRANCH 5,MAIN SERVICE WATER LOOP,Plant Demand,NODE 328,NODE 329
   Branch,7,MAIN SERVICE WATER LOOP DEMAND BRANCH 6,MAIN SERVICE WATER LOOP,Plant Demand,NODE 330,NODE 331
   Branch,8,MAIN SERVICE WATER LOOP DEMAND BRANCH 7,MAIN SERVICE WATER LOOP,Plant Demand,NODE 332,NODE 333
   Branch,9,MAIN SERVICE WATER LOOP DEMAND BRANCH 8,MAIN SERVICE WATER LOOP,Plant Demand,NODE 334,NODE 335
   Branch,10,MAIN SERVICE WATER LOOP DEMAND BRANCH 9,MAIN SERVICE WATER LOOP,Plant Demand,NODE 336,NODE 337
   Branch,11,MAIN SERVICE WATER LOOP DEMAND BRANCH 10,MAIN SERVICE WATER LOOP,Plant Demand,NODE 338,NODE 339
   Branch,12,MAIN SERVICE WATER LOOP DEMAND BRANCH 11,MAIN SERVICE WATER LOOP,Plant Demand,NODE 340,NODE 341
   Branch,13,MAIN SERVICE WATER LOOP DEMAND BRANCH 12,MAIN SERVICE WATER LOOP,Plant Demand,NODE 342,NODE 343
   Branch,14,MAIN SERVICE WATER LOOP DEMAND BRANCH 13,MAIN SERVICE WATER LOOP,Plant Demand,NODE 344,NODE 345
   Branch,15,MAIN SERVICE WATER LOOP DEMAND BRANCH 14,MAIN SERVICE WATER LOOP,Plant Demand,NODE 346,NODE 347
   Branch,16,MAIN SERVICE WATER LOOP DEMAND BRANCH 15,MAIN SERVICE WATER LOOP,Plant Demand,NODE 348,NODE 349
   Branch,17,MAIN SERVICE WATER LOOP DEMAND BYPASS BRANCH,MAIN SERVICE WATER LOOP,Plant Demand,MAIN SERVICE WATER LOOP DEMAND BYPASS PIPE INLET NODE,MAIN SERVICE WATER LOOP DEMAND BYPASS PIPE OUTLET NODE
   Branch,18,MAIN SERVICE WATER LOOP DEMAND OUTLET BRANCH,MAIN SERVICE WATER LOOP,Plant Demand,NODE 321,NODE 312
! ===============================================================
! <#Supply Air Paths>,<Number of Supply Air Paths>
 #Supply Air Paths,17
! <Supply Air Path>,<Supply Air Path Count>,<Supply Air Path Name>,<AirLoopHVAC Name>
! <#Components on Supply Air Path>,<Number of Components>
! <Supply Air Path Component>,<Component Count>,<Component Type>,<Component Name>,<AirLoopHVAC Name>
! <#Outlet Nodes on Supply Air Path Component>,<Number of Nodes>
! <Supply Air Path Component Nodes>,<Node Count>,<Component Type>,<Component Name>,<Inlet Node Name>,<Outlet Node Name>,<AirLoopHVAC Name>
 Supply Air Path,1,SYS_3_PSZ ALL_ST=HOSPITAL - EMERGENCY_FL=STORY 4_SCH=H NODE 128 SUPPLY PATH,SYS_3_PSZ ALL_ST=HOSPITAL - EMERGENCY_FL=STORY 4_SCH=H
   #Components on Supply Air Path,1
   Supply Air Path Component,1,AIRLOOPHVAC:ZONESPLITTER,AIR LOOP HVAC ZONE SPLITTER 4,SYS_3_PSZ ALL_ST=HOSPITAL - EMERGENCY_FL=STORY 4_SCH=H
     #Outlet Nodes on Supply Air Path Component,1
     Supply Air Path Component Nodes,1,AIRLOOPHVAC:ZONESPLITTER,AIR LOOP HVAC ZONE SPLITTER 4,NODE 128,NODE 130,SYS_3_PSZ ALL_ST=HOSPITAL - EMERGENCY_FL=STORY 4_SCH=H
! <#Nodes on Supply Air Path>,<Number of Nodes>
! <Supply Air Path Node>,<Node Type>,<Node Count>,<Node Name>,<AirLoopHVAC Name>
#Nodes on Supply Air Path,2
   Supply Air Path Node,Inlet Node,1,NODE 128,SYS_3_PSZ ALL_ST=HOSPITAL - EMERGENCY_FL=STORY 4_SCH=H
   Supply Air Path Node,Outlet Node,2,NODE 130,SYS_3_PSZ ALL_ST=HOSPITAL - EMERGENCY_FL=STORY 4_SCH=H
 Supply Air Path,2,SYS_3_PSZ ALL_ST=HOSPITAL - EXAM_FL=STORY 3_SCH=C NODE 141 SUPPLY PATH,SYS_3_PSZ ALL_ST=HOSPITAL - EXAM_FL=STORY 3_SCH=C
   #Components on Supply Air Path,1
   Supply Air Path Component,1,AIRLOOPHVAC:ZONESPLITTER,AIR LOOP HVAC ZONE SPLITTER 5,SYS_3_PSZ ALL_ST=HOSPITAL - EXAM_FL=STORY 3_SCH=C
     #Outlet Nodes on Supply Air Path Component,1
     Supply Air Path Component Nodes,1,AIRLOOPHVAC:ZONESPLITTER,AIR LOOP HVAC ZONE SPLITTER 5,NODE 141,NODE 143,SYS_3_PSZ ALL_ST=HOSPITAL - EXAM_FL=STORY 3_SCH=C
! <#Nodes on Supply Air Path>,<Number of Nodes>
! <Supply Air Path Node>,<Node Type>,<Node Count>,<Node Name>,<AirLoopHVAC Name>
#Nodes on Supply Air Path,2
   Supply Air Path Node,Inlet Node,1,NODE 141,SYS_3_PSZ ALL_ST=HOSPITAL - EXAM_FL=STORY 3_SCH=C
   Supply Air Path Node,Outlet Node,2,NODE 143,SYS_3_PSZ ALL_ST=HOSPITAL - EXAM_FL=STORY 3_SCH=C
 Supply Air Path,3,SYS_3_PSZ ALL_ST=HOSPITAL - LAUNDRY/WASHING_FL=STORY 4_SCH=C NODE 154 SUPPLY PATH,SYS_3_PSZ ALL_ST=HOSPITAL - LAUNDRY/WASHING_FL=STORY 4_SCH=C
   #Components on Supply Air Path,1
   Supply Air Path Component,1,AIRLOOPHVAC:ZONESPLITTER,AIR LOOP HVAC ZONE SPLITTER 6,SYS_3_PSZ ALL_ST=HOSPITAL - LAUNDRY/WASHING_FL=STORY 4_SCH=C
     #Outlet Nodes on Supply Air Path Component,1
     Supply Air Path Component Nodes,1,AIRLOOPHVAC:ZONESPLITTER,AIR LOOP HVAC ZONE SPLITTER 6,NODE 154,NODE 156,SYS_3_PSZ ALL_ST=HOSPITAL - LAUNDRY/WASHING_FL=STORY 4_SCH=C
! <#Nodes on Supply Air Path>,<Number of Nodes>
! <Supply Air Path Node>,<Node Type>,<Node Count>,<Node Name>,<AirLoopHVAC Name>
#Nodes on Supply Air Path,2
   Supply Air Path Node,Inlet Node,1,NODE 154,SYS_3_PSZ ALL_ST=HOSPITAL - LAUNDRY/WASHING_FL=STORY 4_SCH=C
   Supply Air Path Node,Outlet Node,2,NODE 156,SYS_3_PSZ ALL_ST=HOSPITAL - LAUNDRY/WASHING_FL=STORY 4_SCH=C
 Supply Air Path,4,SYS_3_PSZ ALL_ST=HOSPITAL - LOUNGE/RECREATION_FL=STORY 1_SCH=B NODE 167 SUPPLY PATH,SYS_3_PSZ ALL_ST=HOSPITAL - LOUNGE/RECREATION_FL=STORY 1_SCH=B
   #Components on Supply Air Path,1
   Supply Air Path Component,1,AIRLOOPHVAC:ZONESPLITTER,AIR LOOP HVAC ZONE SPLITTER 7,SYS_3_PSZ ALL_ST=HOSPITAL - LOUNGE/RECREATION_FL=STORY 1_SCH=B
     #Outlet Nodes on Supply Air Path Component,1
     Supply Air Path Component Nodes,1,AIRLOOPHVAC:ZONESPLITTER,AIR LOOP HVAC ZONE SPLITTER 7,NODE 167,NODE 169,SYS_3_PSZ ALL_ST=HOSPITAL - LOUNGE/RECREATION_FL=STORY 1_SCH=B
! <#Nodes on Supply Air Path>,<Number of Nodes>
! <Supply Air Path Node>,<Node Type>,<Node Count>,<Node Name>,<AirLoopHVAC Name>
#Nodes on Supply Air Path,2
   Supply Air Path Node,Inlet Node,1,NODE 167,SYS_3_PSZ ALL_ST=HOSPITAL - LOUNGE/RECREATION_FL=STORY 1_SCH=B
   Supply Air Path Node,Outlet Node,2,NODE 169,SYS_3_PSZ ALL_ST=HOSPITAL - LOUNGE/RECREATION_FL=STORY 1_SCH=B
 Supply Air Path,5,SYS_3_PSZ ALL_ST=HOSPITAL - MEDICAL SUPPLY - OCCSENS_FL=STORY 3_SCH=H NODE 193 SUPPLY PATH,SYS_3_PSZ ALL_ST=HOSPITAL - MEDICAL SUPPLY - OCCSENS_FL=STORY 3_SCH=H
   #Components on Supply Air Path,1
   Supply Air Path Component,1,AIRLOOPHVAC:ZONESPLITTER,AIR LOOP HVAC ZONE SPLITTER 9,SYS_3_PSZ ALL_ST=HOSPITAL - MEDICAL SUPPLY - OCCSENS_FL=STORY 3_SCH=H
     #Outlet Nodes on Supply Air Path Component,1
     Supply Air Path Component Nodes,1,AIRLOOPHVAC:ZONESPLITTER,AIR LOOP HVAC ZONE SPLITTER 9,NODE 193,NODE 195,SYS_3_PSZ ALL_ST=HOSPITAL - MEDICAL SUPPLY - OCCSENS_FL=STORY 3_SCH=H
! <#Nodes on Supply Air Path>,<Number of Nodes>
! <Supply Air Path Node>,<Node Type>,<Node Count>,<Node Name>,<AirLoopHVAC Name>
#Nodes on Supply Air Path,2
   Supply Air Path Node,Inlet Node,1,NODE 193,SYS_3_PSZ ALL_ST=HOSPITAL - MEDICAL SUPPLY - OCCSENS_FL=STORY 3_SCH=H
   Supply Air Path Node,Outlet Node,2,NODE 195,SYS_3_PSZ ALL_ST=HOSPITAL - MEDICAL SUPPLY - OCCSENS_FL=STORY 3_SCH=H
 Supply Air Path,6,SYS_3_PSZ ALL_ST=HOSPITAL - MEDICAL SUPPLY_FL=STORY 1_SCH=H NODE 180 SUPPLY PATH,SYS_3_PSZ ALL_ST=HOSPITAL - MEDICAL SUPPLY_FL=STORY 1_SCH=H
   #Components on Supply Air Path,1
   Supply Air Path Component,1,AIRLOOPHVAC:ZONESPLITTER,AIR LOOP HVAC ZONE SPLITTER 8,SYS_3_PSZ ALL_ST=HOSPITAL - MEDICAL SUPPLY_FL=STORY 1_SCH=H
     #Outlet Nodes on Supply Air Path Component,1
     Supply Air Path Component Nodes,1,AIRLOOPHVAC:ZONESPLITTER,AIR LOOP HVAC ZONE SPLITTER 8,NODE 180,NODE 182,SYS_3_PSZ ALL_ST=HOSPITAL - MEDICAL SUPPLY_FL=STORY 1_SCH=H
! <#Nodes on Supply Air Path>,<Number of Nodes>
! <Supply Air Path Node>,<Node Type>,<Node Count>,<Node Name>,<AirLoopHVAC Name>
#Nodes on Supply Air Path,2
   Supply Air Path Node,Inlet Node,1,NODE 180,SYS_3_PSZ ALL_ST=HOSPITAL - MEDICAL SUPPLY_FL=STORY 1_SCH=H
   Supply Air Path Node,Outlet Node,2,NODE 182,SYS_3_PSZ ALL_ST=HOSPITAL - MEDICAL SUPPLY_FL=STORY 1_SCH=H
 Supply Air Path,7,SYS_3_PSZ ALL_ST=HOSPITAL - NURSERY_FL=STORY 1_SCH=H NODE 206 SUPPLY PATH,SYS_3_PSZ ALL_ST=HOSPITAL - NURSERY_FL=STORY 1_SCH=H
   #Components on Supply Air Path,1
   Supply Air Path Component,1,AIRLOOPHVAC:ZONESPLITTER,AIR LOOP HVAC ZONE SPLITTER 10,SYS_3_PSZ ALL_ST=HOSPITAL - NURSERY_FL=STORY 1_SCH=H
     #Outlet Nodes on Supply Air Path Component,1
     Supply Air Path Component Nodes,1,AIRLOOPHVAC:ZONESPLITTER,AIR LOOP HVAC ZONE SPLITTER 10,NODE 206,NODE 208,SYS_3_PSZ ALL_ST=HOSPITAL - NURSERY_FL=STORY 1_SCH=H
! <#Nodes on Supply Air Path>,<Number of Nodes>
! <Supply Air Path Node>,<Node Type>,<Node Count>,<Node Name>,<AirLoopHVAC Name>
#Nodes on Supply Air Path,2
   Supply Air Path Node,Inlet Node,1,NODE 206,SYS_3_PSZ ALL_ST=HOSPITAL - NURSERY_FL=STORY 1_SCH=H
   Supply Air Path Node,Outlet Node,2,NODE 208,SYS_3_PSZ ALL_ST=HOSPITAL - NURSERY_FL=STORY 1_SCH=H
 Supply Air Path,8,SYS_3_PSZ ALL_ST=HOSPITAL - NURSES STATION_FL=STORY 3_SCH=H NODE 219 SUPPLY PATH,SYS_3_PSZ ALL_ST=HOSPITAL - NURSES STATION_FL=STORY 3_SCH=H
   #Components on Supply Air Path,1
   Supply Air Path Component,1,AIRLOOPHVAC:ZONESPLITTER,AIR LOOP HVAC ZONE SPLITTER 11,SYS_3_PSZ ALL_ST=HOSPITAL - NURSES STATION_FL=STORY 3_SCH=H
     #Outlet Nodes on Supply Air Path Component,1
     Supply Air Path Component Nodes,1,AIRLOOPHVAC:ZONESPLITTER,AIR LOOP HVAC ZONE SPLITTER 11,NODE 219,NODE 221,SYS_3_PSZ ALL_ST=HOSPITAL - NURSES STATION_FL=STORY 3_SCH=H
! <#Nodes on Supply Air Path>,<Number of Nodes>
! <Supply Air Path Node>,<Node Type>,<Node Count>,<Node Name>,<AirLoopHVAC Name>
#Nodes on Supply Air Path,2
   Supply Air Path Node,Inlet Node,1,NODE 219,SYS_3_PSZ ALL_ST=HOSPITAL - NURSES STATION_FL=STORY 3_SCH=H
   Supply Air Path Node,Outlet Node,2,NODE 221,SYS_3_PSZ ALL_ST=HOSPITAL - NURSES STATION_FL=STORY 3_SCH=H
 Supply Air Path,9,SYS_3_PSZ ALL_ST=HOSPITAL - OPERATING ROOM_FL=STORY 1_SCH=H NODE 232 SUPPLY PATH,SYS_3_PSZ ALL_ST=HOSPITAL - OPERATING ROOM_FL=STORY 1_SCH=H
   #Components on Supply Air Path,1
   Supply Air Path Component,1,AIRLOOPHVAC:ZONESPLITTER,AIR LOOP HVAC ZONE SPLITTER 12,SYS_3_PSZ ALL_ST=HOSPITAL - OPERATING ROOM_FL=STORY 1_SCH=H
     #Outlet Nodes on Supply Air Path Component,1
     Supply Air Path Component Nodes,1,AIRLOOPHVAC:ZONESPLITTER,AIR LOOP HVAC ZONE SPLITTER 12,NODE 232,NODE 234,SYS_3_PSZ ALL_ST=HOSPITAL - OPERATING ROOM_FL=STORY 1_SCH=H
! <#Nodes on Supply Air Path>,<Number of Nodes>
! <Supply Air Path Node>,<Node Type>,<Node Count>,<Node Name>,<AirLoopHVAC Name>
#Nodes on Supply Air Path,2
   Supply Air Path Node,Inlet Node,1,NODE 232,SYS_3_PSZ ALL_ST=HOSPITAL - OPERATING ROOM_FL=STORY 1_SCH=H
   Supply Air Path Node,Outlet Node,2,NODE 234,SYS_3_PSZ ALL_ST=HOSPITAL - OPERATING ROOM_FL=STORY 1_SCH=H
 Supply Air Path,10,SYS_3_PSZ ALL_ST=HOSPITAL - PATIENT ROOM_FL=STORY 1_SCH=H NODE 245 SUPPLY PATH,SYS_3_PSZ ALL_ST=HOSPITAL - PATIENT ROOM_FL=STORY 1_SCH=H
   #Components on Supply Air Path,1
   Supply Air Path Component,1,AIRLOOPHVAC:ZONESPLITTER,AIR LOOP HVAC ZONE SPLITTER 13,SYS_3_PSZ ALL_ST=HOSPITAL - PATIENT ROOM_FL=STORY 1_SCH=H
     #Outlet Nodes on Supply Air Path Component,1
     Supply Air Path Component Nodes,1,AIRLOOPHVAC:ZONESPLITTER,AIR LOOP HVAC ZONE SPLITTER 13,NODE 245,NODE 247,SYS_3_PSZ ALL_ST=HOSPITAL - PATIENT ROOM_FL=STORY 1_SCH=H
! <#Nodes on Supply Air Path>,<Number of Nodes>
! <Supply Air Path Node>,<Node Type>,<Node Count>,<Node Name>,<AirLoopHVAC Name>
#Nodes on Supply Air Path,2
   Supply Air Path Node,Inlet Node,1,NODE 245,SYS_3_PSZ ALL_ST=HOSPITAL - PATIENT ROOM_FL=STORY 1_SCH=H
   Supply Air Path Node,Outlet Node,2,NODE 247,SYS_3_PSZ ALL_ST=HOSPITAL - PATIENT ROOM_FL=STORY 1_SCH=H
 Supply Air Path,11,SYS_3_PSZ ALL_ST=HOSPITAL - PHARMACY_FL=STORY 2_SCH=C NODE 258 SUPPLY PATH,SYS_3_PSZ ALL_ST=HOSPITAL - PHARMACY_FL=STORY 2_SCH=C
   #Components on Supply Air Path,1
   Supply Air Path Component,1,AIRLOOPHVAC:ZONESPLITTER,AIR LOOP HVAC ZONE SPLITTER 14,SYS_3_PSZ ALL_ST=HOSPITAL - PHARMACY_FL=STORY 2_SCH=C
     #Outlet Nodes on Supply Air Path Component,1
     Supply Air Path Component Nodes,1,AIRLOOPHVAC:ZONESPLITTER,AIR LOOP HVAC ZONE SPLITTER 14,NODE 258,NODE 260,SYS_3_PSZ ALL_ST=HOSPITAL - PHARMACY_FL=STORY 2_SCH=C
! <#Nodes on Supply Air Path>,<Number of Nodes>
! <Supply Air Path Node>,<Node Type>,<Node Count>,<Node Name>,<AirLoopHVAC Name>
#Nodes on Supply Air Path,2
   Supply Air Path Node,Inlet Node,1,NODE 258,SYS_3_PSZ ALL_ST=HOSPITAL - PHARMACY_FL=STORY 2_SCH=C
   Supply Air Path Node,Outlet Node,2,NODE 260,SYS_3_PSZ ALL_ST=HOSPITAL - PHARMACY_FL=STORY 2_SCH=C
 Supply Air Path,12,SYS_3_PSZ ALL_ST=HOSPITAL - PHYSICAL THERAPY_FL=STORY 4_SCH=C NODE 271 SUPPLY PATH,SYS_3_PSZ ALL_ST=HOSPITAL - PHYSICAL THERAPY_FL=STORY 4_SCH=C
   #Components on Supply Air Path,1
   Supply Air Path Component,1,AIRLOOPHVAC:ZONESPLITTER,AIR LOOP HVAC ZONE SPLITTER 15,SYS_3_PSZ ALL_ST=HOSPITAL - PHYSICAL THERAPY_FL=STORY 4_SCH=C
     #Outlet Nodes on Supply Air Path Component,1
     Supply Air Path Component Nodes,1,AIRLOOPHVAC:ZONESPLITTER,AIR LOOP HVAC ZONE SPLITTER 15,NODE 271,NODE 273,SYS_3_PSZ ALL_ST=HOSPITAL - PHYSICAL THERAPY_FL=STORY 4_SCH=C
! <#Nodes on Supply Air Path>,<Number of Nodes>
! <Supply Air Path Node>,<Node Type>,<Node Count>,<Node Name>,<AirLoopHVAC Name>
#Nodes on Supply Air Path,2
   Supply Air Path Node,Inlet Node,1,NODE 271,SYS_3_PSZ ALL_ST=HOSPITAL - PHYSICAL THERAPY_FL=STORY 4_SCH=C
   Supply Air Path Node,Outlet Node,2,NODE 273,SYS_3_PSZ ALL_ST=HOSPITAL - PHYSICAL THERAPY_FL=STORY 4_SCH=C
 Supply Air Path,13,SYS_3_PSZ ALL_ST=HOSPITAL - RADIOLOGY/IMAGING_FL=STORY 2_SCH=H NODE 284 SUPPLY PATH,SYS_3_PSZ ALL_ST=HOSPITAL - RADIOLOGY/IMAGING_FL=STORY 2_SCH=H
   #Components on Supply Air Path,1
   Supply Air Path Component,1,AIRLOOPHVAC:ZONESPLITTER,AIR LOOP HVAC ZONE SPLITTER 16,SYS_3_PSZ ALL_ST=HOSPITAL - RADIOLOGY/IMAGING_FL=STORY 2_SCH=H
     #Outlet Nodes on Supply Air Path Component,1
     Supply Air Path Component Nodes,1,AIRLOOPHVAC:ZONESPLITTER,AIR LOOP HVAC ZONE SPLITTER 16,NODE 284,NODE 286,SYS_3_PSZ ALL_ST=HOSPITAL - RADIOLOGY/IMAGING_FL=STORY 2_SCH=H
! <#Nodes on Supply Air Path>,<Number of Nodes>
! <Supply Air Path Node>,<Node Type>,<Node Count>,<Node Name>,<AirLoopHVAC Name>
#Nodes on Supply Air Path,2
   Supply Air Path Node,Inlet Node,1,NODE 284,SYS_3_PSZ ALL_ST=HOSPITAL - RADIOLOGY/IMAGING_FL=STORY 2_SCH=H
   Supply Air Path Node,Outlet Node,2,NODE 286,SYS_3_PSZ ALL_ST=HOSPITAL - RADIOLOGY/IMAGING_FL=STORY 2_SCH=H
 Supply Air Path,14,SYS_3_PSZ ALL_ST=HOSPITAL - RECOVERY_FL=STORY 4_SCH=H NODE 297 SUPPLY PATH,SYS_3_PSZ ALL_ST=HOSPITAL - RECOVERY_FL=STORY 4_SCH=H
   #Components on Supply Air Path,1
   Supply Air Path Component,1,AIRLOOPHVAC:ZONESPLITTER,AIR LOOP HVAC ZONE SPLITTER 17,SYS_3_PSZ ALL_ST=HOSPITAL - RECOVERY_FL=STORY 4_SCH=H
     #Outlet Nodes on Supply Air Path Component,1
     Supply Air Path Component Nodes,1,AIRLOOPHVAC:ZONESPLITTER,AIR LOOP HVAC ZONE SPLITTER 17,NODE 297,NODE 299,SYS_3_PSZ ALL_ST=HOSPITAL - RECOVERY_FL=STORY 4_SCH=H
! <#Nodes on Supply Air Path>,<Number of Nodes>
! <Supply Air Path Node>,<Node Type>,<Node Count>,<Node Name>,<AirLoopHVAC Name>
#Nodes on Supply Air Path,2
   Supply Air Path Node,Inlet Node,1,NODE 297,SYS_3_PSZ ALL_ST=HOSPITAL - RECOVERY_FL=STORY 4_SCH=H
   Supply Air Path Node,Outlet Node,2,NODE 299,SYS_3_PSZ ALL_ST=HOSPITAL - RECOVERY_FL=STORY 4_SCH=H
 Supply Air Path,15,SYS_4_PSZ_WILD_ST=HOSPITAL CORR. < 2.4M-SCH-A_FL=STORY 3_SCH=H NODE 24 SUPPLY PATH,SYS_4_PSZ_WILD_ST=HOSPITAL CORR. < 2.4M-SCH-A_FL=STORY 3_SCH=H
   #Components on Supply Air Path,1
   Supply Air Path Component,1,AIRLOOPHVAC:ZONESPLITTER,AIR LOOP HVAC ZONE SPLITTER 1,SYS_4_PSZ_WILD_ST=HOSPITAL CORR. < 2.4M-SCH-A_FL=STORY 3_SCH=H
     #Outlet Nodes on Supply Air Path Component,4
     Supply Air Path Component Nodes,1,AIRLOOPHVAC:ZONESPLITTER,AIR LOOP HVAC ZONE SPLITTER 1,NODE 24,NODE 27,SYS_4_PSZ_WILD_ST=HOSPITAL CORR. < 2.4M-SCH-A_FL=STORY 3_SCH=H
     Supply Air Path Component Nodes,2,AIRLOOPHVAC:ZONESPLITTER,AIR LOOP HVAC ZONE SPLITTER 1,NODE 24,NODE 39,SYS_4_PSZ_WILD_ST=HOSPITAL CORR. < 2.4M-SCH-A_FL=STORY 3_SCH=H
     Supply Air Path Component Nodes,3,AIRLOOPHVAC:ZONESPLITTER,AIR LOOP HVAC ZONE SPLITTER 1,NODE 24,NODE 45,SYS_4_PSZ_WILD_ST=HOSPITAL CORR. < 2.4M-SCH-A_FL=STORY 3_SCH=H
     Supply Air Path Component Nodes,4,AIRLOOPHVAC:ZONESPLITTER,AIR LOOP HVAC ZONE SPLITTER 1,NODE 24,NODE 51,SYS_4_PSZ_WILD_ST=HOSPITAL CORR. < 2.4M-SCH-A_FL=STORY 3_SCH=H
! <#Nodes on Supply Air Path>,<Number of Nodes>
! <Supply Air Path Node>,<Node Type>,<Node Count>,<Node Name>,<AirLoopHVAC Name>
#Nodes on Supply Air Path,5
   Supply Air Path Node,Inlet Node,1,NODE 24,SYS_4_PSZ_WILD_ST=HOSPITAL CORR. < 2.4M-SCH-A_FL=STORY 3_SCH=H
   Supply Air Path Node,Outlet Node,2,NODE 27,SYS_4_PSZ_WILD_ST=HOSPITAL CORR. < 2.4M-SCH-A_FL=STORY 3_SCH=H
   Supply Air Path Node,Outlet Node,3,NODE 39,SYS_4_PSZ_WILD_ST=HOSPITAL CORR. < 2.4M-SCH-A_FL=STORY 3_SCH=H
   Supply Air Path Node,Outlet Node,4,NODE 45,SYS_4_PSZ_WILD_ST=HOSPITAL CORR. < 2.4M-SCH-A_FL=STORY 3_SCH=H
   Supply Air Path Node,Outlet Node,5,NODE 51,SYS_4_PSZ_WILD_ST=HOSPITAL CORR. < 2.4M-SCH-A_FL=STORY 3_SCH=H
 Supply Air Path,16,SYS_6_VAV WITH REHEAT NODE 87 SUPPLY PATH,SYS_6_VAV WITH REHEAT
   #Components on Supply Air Path,1
   Supply Air Path Component,1,AIRLOOPHVAC:ZONESPLITTER,AIR LOOP HVAC ZONE SPLITTER 2,SYS_6_VAV WITH REHEAT
     #Outlet Nodes on Supply Air Path Component,1
     Supply Air Path Component Nodes,1,AIRLOOPHVAC:ZONESPLITTER,AIR LOOP HVAC ZONE SPLITTER 2,NODE 87,NODE 102,SYS_6_VAV WITH REHEAT
! <#Nodes on Supply Air Path>,<Number of Nodes>
! <Supply Air Path Node>,<Node Type>,<Node Count>,<Node Name>,<AirLoopHVAC Name>
#Nodes on Supply Air Path,2
   Supply Air Path Node,Inlet Node,1,NODE 87,SYS_6_VAV WITH REHEAT
   Supply Air Path Node,Outlet Node,2,NODE 102,SYS_6_VAV WITH REHEAT
 Supply Air Path,17,SYS_6_VAV WITH REHEAT 1 NODE 107 SUPPLY PATH,SYS_6_VAV WITH REHEAT 1
   #Components on Supply Air Path,1
   Supply Air Path Component,1,AIRLOOPHVAC:ZONESPLITTER,AIR LOOP HVAC ZONE SPLITTER 3,SYS_6_VAV WITH REHEAT 1
     #Outlet Nodes on Supply Air Path Component,1
     Supply Air Path Component Nodes,1,AIRLOOPHVAC:ZONESPLITTER,AIR LOOP HVAC ZONE SPLITTER 3,NODE 107,NODE 123,SYS_6_VAV WITH REHEAT 1
! <#Nodes on Supply Air Path>,<Number of Nodes>
! <Supply Air Path Node>,<Node Type>,<Node Count>,<Node Name>,<AirLoopHVAC Name>
#Nodes on Supply Air Path,2
   Supply Air Path Node,Inlet Node,1,NODE 107,SYS_6_VAV WITH REHEAT 1
   Supply Air Path Node,Outlet Node,2,NODE 123,SYS_6_VAV WITH REHEAT 1
! ===============================================================
! <#Return Air Paths>,<Number of Return Air Paths>
 #Return Air Paths,17
! <Return Air Path>,<Return Air Path Count>,<Return Air Path Name>,<AirLoopHVAC Name>
! <#Components on Return Air Path>,<Number of Components>
! <Return Air Path Component>,<Component Count>,<Component Type>,<Component Name>,<AirLoopHVAC Name>
! <#Inlet Nodes on Return Air Path Component>,<Number of Nodes>
! <Return Air Path Component Nodes>,<Node Count>,<Component Type>,<Component Name>,<Inlet Node Name>,<Outlet Node Name>,<AirLoopHVAC Name>
 Return Air Path,1,SYS_3_PSZ ALL_ST=HOSPITAL - EMERGENCY_FL=STORY 4_SCH=H RETURN PATH,SYS_3_PSZ ALL_ST=HOSPITAL - EMERGENCY_FL=STORY 4_SCH=H
   #Components on Return Air Path,1
   Return Air Path Component,1,AIRLOOPHVAC:ZONEMIXER,AIR LOOP HVAC ZONE MIXER 4,SYS_3_PSZ ALL_ST=HOSPITAL - EMERGENCY_FL=STORY 4_SCH=H
     #Inlet Nodes on Return Air Path Component,1
     Return Air Path Component Nodes,1,AIRLOOPHVAC:ZONEMIXER,AIR LOOP HVAC ZONE MIXER 4,NODE 136,NODE 129,SYS_3_PSZ ALL_ST=HOSPITAL - EMERGENCY_FL=STORY 4_SCH=H
! <#Nodes on Return Air Path>,<Number of Nodes>
! <Return Air Path Node>,<Node Type>,<Node Count>,<Node Name>,<AirLoopHVAC Name>
   #Nodes on Return Air Path,2
   Return Air Path Node,Outlet Node,1,NODE 129,SYS_3_PSZ ALL_ST=HOSPITAL - EMERGENCY_FL=STORY 4_SCH=H
   Return Air Path Node,Inlet Node,2,NODE 136,SYS_3_PSZ ALL_ST=HOSPITAL - EMERGENCY_FL=STORY 4_SCH=H
 Return Air Path,2,SYS_3_PSZ ALL_ST=HOSPITAL - EXAM_FL=STORY 3_SCH=C RETURN PATH,SYS_3_PSZ ALL_ST=HOSPITAL - EXAM_FL=STORY 3_SCH=C
   #Components on Return Air Path,1
   Return Air Path Component,1,AIRLOOPHVAC:ZONEMIXER,AIR LOOP HVAC ZONE MIXER 5,SYS_3_PSZ ALL_ST=HOSPITAL - EXAM_FL=STORY 3_SCH=C
     #Inlet Nodes on Return Air Path Component,1
     Return Air Path Component Nodes,1,AIRLOOPHVAC:ZONEMIXER,AIR LOOP HVAC ZONE MIXER 5,NODE 149,NODE 142,SYS_3_PSZ ALL_ST=HOSPITAL - EXAM_FL=STORY 3_SCH=C
! <#Nodes on Return Air Path>,<Number of Nodes>
! <Return Air Path Node>,<Node Type>,<Node Count>,<Node Name>,<AirLoopHVAC Name>
   #Nodes on Return Air Path,2
   Return Air Path Node,Outlet Node,1,NODE 142,SYS_3_PSZ ALL_ST=HOSPITAL - EXAM_FL=STORY 3_SCH=C
   Return Air Path Node,Inlet Node,2,NODE 149,SYS_3_PSZ ALL_ST=HOSPITAL - EXAM_FL=STORY 3_SCH=C
 Return Air Path,3,SYS_3_PSZ ALL_ST=HOSPITAL - LAUNDRY/WASHING_FL=STORY 4_SCH=C RETURN PATH,SYS_3_PSZ ALL_ST=HOSPITAL - LAUNDRY/WASHING_FL=STORY 4_SCH=C
   #Components on Return Air Path,1
   Return Air Path Component,1,AIRLOOPHVAC:ZONEMIXER,AIR LOOP HVAC ZONE MIXER 6,SYS_3_PSZ ALL_ST=HOSPITAL - LAUNDRY/WASHING_FL=STORY 4_SCH=C
     #Inlet Nodes on Return Air Path Component,1
     Return Air Path Component Nodes,1,AIRLOOPHVAC:ZONEMIXER,AIR LOOP HVAC ZONE MIXER 6,NODE 162,NODE 155,SYS_3_PSZ ALL_ST=HOSPITAL - LAUNDRY/WASHING_FL=STORY 4_SCH=C
! <#Nodes on Return Air Path>,<Number of Nodes>
! <Return Air Path Node>,<Node Type>,<Node Count>,<Node Name>,<AirLoopHVAC Name>
   #Nodes on Return Air Path,2
   Return Air Path Node,Outlet Node,1,NODE 155,SYS_3_PSZ ALL_ST=HOSPITAL - LAUNDRY/WASHING_FL=STORY 4_SCH=C
   Return Air Path Node,Inlet Node,2,NODE 162,SYS_3_PSZ ALL_ST=HOSPITAL - LAUNDRY/WASHING_FL=STORY 4_SCH=C
 Return Air Path,4,SYS_3_PSZ ALL_ST=HOSPITAL - LOUNGE/RECREATION_FL=STORY 1_SCH=B RETURN PATH,SYS_3_PSZ ALL_ST=HOSPITAL - LOUNGE/RECREATION_FL=STORY 1_SCH=B
   #Components on Return Air Path,1
   Return Air Path Component,1,AIRLOOPHVAC:ZONEMIXER,AIR LOOP HVAC ZONE MIXER 7,SYS_3_PSZ ALL_ST=HOSPITAL - LOUNGE/RECREATION_FL=STORY 1_SCH=B
     #Inlet Nodes on Return Air Path Component,1
     Return Air Path Component Nodes,1,AIRLOOPHVAC:ZONEMIXER,AIR LOOP HVAC ZONE MIXER 7,NODE 175,NODE 168,SYS_3_PSZ ALL_ST=HOSPITAL - LOUNGE/RECREATION_FL=STORY 1_SCH=B
! <#Nodes on Return Air Path>,<Number of Nodes>
! <Return Air Path Node>,<Node Type>,<Node Count>,<Node Name>,<AirLoopHVAC Name>
   #Nodes on Return Air Path,2
   Return Air Path Node,Outlet Node,1,NODE 168,SYS_3_PSZ ALL_ST=HOSPITAL - LOUNGE/RECREATION_FL=STORY 1_SCH=B
   Return Air Path Node,Inlet Node,2,NODE 175,SYS_3_PSZ ALL_ST=HOSPITAL - LOUNGE/RECREATION_FL=STORY 1_SCH=B
 Return Air Path,5,SYS_3_PSZ ALL_ST=HOSPITAL - MEDICAL SUPPLY - OCCSENS_FL=STORY 3_SCH=H RETURN PATH,SYS_3_PSZ ALL_ST=HOSPITAL - MEDICAL SUPPLY - OCCSENS_FL=STORY 3_SCH=H
   #Components on Return Air Path,1
   Return Air Path Component,1,AIRLOOPHVAC:ZONEMIXER,AIR LOOP HVAC ZONE MIXER 9,SYS_3_PSZ ALL_ST=HOSPITAL - MEDICAL SUPPLY - OCCSENS_FL=STORY 3_SCH=H
     #Inlet Nodes on Return Air Path Component,1
     Return Air Path Component Nodes,1,AIRLOOPHVAC:ZONEMIXER,AIR LOOP HVAC ZONE MIXER 9,NODE 201,NODE 194,SYS_3_PSZ ALL_ST=HOSPITAL - MEDICAL SUPPLY - OCCSENS_FL=STORY 3_SCH=H
! <#Nodes on Return Air Path>,<Number of Nodes>
! <Return Air Path Node>,<Node Type>,<Node Count>,<Node Name>,<AirLoopHVAC Name>
   #Nodes on Return Air Path,2
   Return Air Path Node,Outlet Node,1,NODE 194,SYS_3_PSZ ALL_ST=HOSPITAL - MEDICAL SUPPLY - OCCSENS_FL=STORY 3_SCH=H
   Return Air Path Node,Inlet Node,2,NODE 201,SYS_3_PSZ ALL_ST=HOSPITAL - MEDICAL SUPPLY - OCCSENS_FL=STORY 3_SCH=H
 Return Air Path,6,SYS_3_PSZ ALL_ST=HOSPITAL - MEDICAL SUPPLY_FL=STORY 1_SCH=H RETURN PATH,SYS_3_PSZ ALL_ST=HOSPITAL - MEDICAL SUPPLY_FL=STORY 1_SCH=H
   #Components on Return Air Path,1
   Return Air Path Component,1,AIRLOOPHVAC:ZONEMIXER,AIR LOOP HVAC ZONE MIXER 8,SYS_3_PSZ ALL_ST=HOSPITAL - MEDICAL SUPPLY_FL=STORY 1_SCH=H
     #Inlet Nodes on Return Air Path Component,1
     Return Air Path Component Nodes,1,AIRLOOPHVAC:ZONEMIXER,AIR LOOP HVAC ZONE MIXER 8,NODE 188,NODE 181,SYS_3_PSZ ALL_ST=HOSPITAL - MEDICAL SUPPLY_FL=STORY 1_SCH=H
! <#Nodes on Return Air Path>,<Number of Nodes>
! <Return Air Path Node>,<Node Type>,<Node Count>,<Node Name>,<AirLoopHVAC Name>
   #Nodes on Return Air Path,2
   Return Air Path Node,Outlet Node,1,NODE 181,SYS_3_PSZ ALL_ST=HOSPITAL - MEDICAL SUPPLY_FL=STORY 1_SCH=H
   Return Air Path Node,Inlet Node,2,NODE 188,SYS_3_PSZ ALL_ST=HOSPITAL - MEDICAL SUPPLY_FL=STORY 1_SCH=H
 Return Air Path,7,SYS_3_PSZ ALL_ST=HOSPITAL - NURSERY_FL=STORY 1_SCH=H RETURN PATH,SYS_3_PSZ ALL_ST=HOSPITAL - NURSERY_FL=STORY 1_SCH=H
   #Components on Return Air Path,1
   Return Air Path Component,1,AIRLOOPHVAC:ZONEMIXER,AIR LOOP HVAC ZONE MIXER 10,SYS_3_PSZ ALL_ST=HOSPITAL - NURSERY_FL=STORY 1_SCH=H
     #Inlet Nodes on Return Air Path Component,1
     Return Air Path Component Nodes,1,AIRLOOPHVAC:ZONEMIXER,AIR LOOP HVAC ZONE MIXER 10,NODE 214,NODE 207,SYS_3_PSZ ALL_ST=HOSPITAL - NURSERY_FL=STORY 1_SCH=H
! <#Nodes on Return Air Path>,<Number of Nodes>
! <Return Air Path Node>,<Node Type>,<Node Count>,<Node Name>,<AirLoopHVAC Name>
   #Nodes on Return Air Path,2
   Return Air Path Node,Outlet Node,1,NODE 207,SYS_3_PSZ ALL_ST=HOSPITAL - NURSERY_FL=STORY 1_SCH=H
   Return Air Path Node,Inlet Node,2,NODE 214,SYS_3_PSZ ALL_ST=HOSPITAL - NURSERY_FL=STORY 1_SCH=H
 Return Air Path,8,SYS_3_PSZ ALL_ST=HOSPITAL - NURSES STATION_FL=STORY 3_SCH=H RETURN PATH,SYS_3_PSZ ALL_ST=HOSPITAL - NURSES STATION_FL=STORY 3_SCH=H
   #Components on Return Air Path,1
   Return Air Path Component,1,AIRLOOPHVAC:ZONEMIXER,AIR LOOP HVAC ZONE MIXER 11,SYS_3_PSZ ALL_ST=HOSPITAL - NURSES STATION_FL=STORY 3_SCH=H
     #Inlet Nodes on Return Air Path Component,1
     Return Air Path Component Nodes,1,AIRLOOPHVAC:ZONEMIXER,AIR LOOP HVAC ZONE MIXER 11,NODE 227,NODE 220,SYS_3_PSZ ALL_ST=HOSPITAL - NURSES STATION_FL=STORY 3_SCH=H
! <#Nodes on Return Air Path>,<Number of Nodes>
! <Return Air Path Node>,<Node Type>,<Node Count>,<Node Name>,<AirLoopHVAC Name>
   #Nodes on Return Air Path,2
   Return Air Path Node,Outlet Node,1,NODE 220,SYS_3_PSZ ALL_ST=HOSPITAL - NURSES STATION_FL=STORY 3_SCH=H
   Return Air Path Node,Inlet Node,2,NODE 227,SYS_3_PSZ ALL_ST=HOSPITAL - NURSES STATION_FL=STORY 3_SCH=H
 Return Air Path,9,SYS_3_PSZ ALL_ST=HOSPITAL - OPERATING ROOM_FL=STORY 1_SCH=H RETURN PATH,SYS_3_PSZ ALL_ST=HOSPITAL - OPERATING ROOM_FL=STORY 1_SCH=H
   #Components on Return Air Path,1
   Return Air Path Component,1,AIRLOOPHVAC:ZONEMIXER,AIR LOOP HVAC ZONE MIXER 12,SYS_3_PSZ ALL_ST=HOSPITAL - OPERATING ROOM_FL=STORY 1_SCH=H
     #Inlet Nodes on Return Air Path Component,1
     Return Air Path Component Nodes,1,AIRLOOPHVAC:ZONEMIXER,AIR LOOP HVAC ZONE MIXER 12,NODE 240,NODE 233,SYS_3_PSZ ALL_ST=HOSPITAL - OPERATING ROOM_FL=STORY 1_SCH=H
! <#Nodes on Return Air Path>,<Number of Nodes>
! <Return Air Path Node>,<Node Type>,<Node Count>,<Node Name>,<AirLoopHVAC Name>
   #Nodes on Return Air Path,2
   Return Air Path Node,Outlet Node,1,NODE 233,SYS_3_PSZ ALL_ST=HOSPITAL - OPERATING ROOM_FL=STORY 1_SCH=H
   Return Air Path Node,Inlet Node,2,NODE 240,SYS_3_PSZ ALL_ST=HOSPITAL - OPERATING ROOM_FL=STORY 1_SCH=H
 Return Air Path,10,SYS_3_PSZ ALL_ST=HOSPITAL - PATIENT ROOM_FL=STORY 1_SCH=H RETURN PATH,SYS_3_PSZ ALL_ST=HOSPITAL - PATIENT ROOM_FL=STORY 1_SCH=H
   #Components on Return Air Path,1
   Return Air Path Component,1,AIRLOOPHVAC:ZONEMIXER,AIR LOOP HVAC ZONE MIXER 13,SYS_3_PSZ ALL_ST=HOSPITAL - PATIENT ROOM_FL=STORY 1_SCH=H
     #Inlet Nodes on Return Air Path Component,1
     Return Air Path Component Nodes,1,AIRLOOPHVAC:ZONEMIXER,AIR LOOP HVAC ZONE MIXER 13,NODE 253,NODE 246,SYS_3_PSZ ALL_ST=HOSPITAL - PATIENT ROOM_FL=STORY 1_SCH=H
! <#Nodes on Return Air Path>,<Number of Nodes>
! <Return Air Path Node>,<Node Type>,<Node Count>,<Node Name>,<AirLoopHVAC Name>
   #Nodes on Return Air Path,2
   Return Air Path Node,Outlet Node,1,NODE 246,SYS_3_PSZ ALL_ST=HOSPITAL - PATIENT ROOM_FL=STORY 1_SCH=H
   Return Air Path Node,Inlet Node,2,NODE 253,SYS_3_PSZ ALL_ST=HOSPITAL - PATIENT ROOM_FL=STORY 1_SCH=H
 Return Air Path,11,SYS_3_PSZ ALL_ST=HOSPITAL - PHARMACY_FL=STORY 2_SCH=C RETURN PATH,SYS_3_PSZ ALL_ST=HOSPITAL - PHARMACY_FL=STORY 2_SCH=C
   #Components on Return Air Path,1
   Return Air Path Component,1,AIRLOOPHVAC:ZONEMIXER,AIR LOOP HVAC ZONE MIXER 14,SYS_3_PSZ ALL_ST=HOSPITAL - PHARMACY_FL=STORY 2_SCH=C
     #Inlet Nodes on Return Air Path Component,1
     Return Air Path Component Nodes,1,AIRLOOPHVAC:ZONEMIXER,AIR LOOP HVAC ZONE MIXER 14,NODE 266,NODE 259,SYS_3_PSZ ALL_ST=HOSPITAL - PHARMACY_FL=STORY 2_SCH=C
! <#Nodes on Return Air Path>,<Number of Nodes>
! <Return Air Path Node>,<Node Type>,<Node Count>,<Node Name>,<AirLoopHVAC Name>
   #Nodes on Return Air Path,2
   Return Air Path Node,Outlet Node,1,NODE 259,SYS_3_PSZ ALL_ST=HOSPITAL - PHARMACY_FL=STORY 2_SCH=C
   Return Air Path Node,Inlet Node,2,NODE 266,SYS_3_PSZ ALL_ST=HOSPITAL - PHARMACY_FL=STORY 2_SCH=C
 Return Air Path,12,SYS_3_PSZ ALL_ST=HOSPITAL - PHYSICAL THERAPY_FL=STORY 4_SCH=C RETURN PATH,SYS_3_PSZ ALL_ST=HOSPITAL - PHYSICAL THERAPY_FL=STORY 4_SCH=C
   #Components on Return Air Path,1
   Return Air Path Component,1,AIRLOOPHVAC:ZONEMIXER,AIR LOOP HVAC ZONE MIXER 15,SYS_3_PSZ ALL_ST=HOSPITAL - PHYSICAL THERAPY_FL=STORY 4_SCH=C
     #Inlet Nodes on Return Air Path Component,1
     Return Air Path Component Nodes,1,AIRLOOPHVAC:ZONEMIXER,AIR LOOP HVAC ZONE MIXER 15,NODE 279,NODE 272,SYS_3_PSZ ALL_ST=HOSPITAL - PHYSICAL THERAPY_FL=STORY 4_SCH=C
! <#Nodes on Return Air Path>,<Number of Nodes>
! <Return Air Path Node>,<Node Type>,<Node Count>,<Node Name>,<AirLoopHVAC Name>
   #Nodes on Return Air Path,2
   Return Air Path Node,Outlet Node,1,NODE 272,SYS_3_PSZ ALL_ST=HOSPITAL - PHYSICAL THERAPY_FL=STORY 4_SCH=C
   Return Air Path Node,Inlet Node,2,NODE 279,SYS_3_PSZ ALL_ST=HOSPITAL - PHYSICAL THERAPY_FL=STORY 4_SCH=C
 Return Air Path,13,SYS_3_PSZ ALL_ST=HOSPITAL - RADIOLOGY/IMAGING_FL=STORY 2_SCH=H RETURN PATH,SYS_3_PSZ ALL_ST=HOSPITAL - RADIOLOGY/IMAGING_FL=STORY 2_SCH=H
   #Components on Return Air Path,1
   Return Air Path Component,1,AIRLOOPHVAC:ZONEMIXER,AIR LOOP HVAC ZONE MIXER 16,SYS_3_PSZ ALL_ST=HOSPITAL - RADIOLOGY/IMAGING_FL=STORY 2_SCH=H
     #Inlet Nodes on Return Air Path Component,1
     Return Air Path Component Nodes,1,AIRLOOPHVAC:ZONEMIXER,AIR LOOP HVAC ZONE MIXER 16,NODE 292,NODE 285,SYS_3_PSZ ALL_ST=HOSPITAL - RADIOLOGY/IMAGING_FL=STORY 2_SCH=H
! <#Nodes on Return Air Path>,<Number of Nodes>
! <Return Air Path Node>,<Node Type>,<Node Count>,<Node Name>,<AirLoopHVAC Name>
   #Nodes on Return Air Path,2
   Return Air Path Node,Outlet Node,1,NODE 285,SYS_3_PSZ ALL_ST=HOSPITAL - RADIOLOGY/IMAGING_FL=STORY 2_SCH=H
   Return Air Path Node,Inlet Node,2,NODE 292,SYS_3_PSZ ALL_ST=HOSPITAL - RADIOLOGY/IMAGING_FL=STORY 2_SCH=H
 Return Air Path,14,SYS_3_PSZ ALL_ST=HOSPITAL - RECOVERY_FL=STORY 4_SCH=H RETURN PATH,SYS_3_PSZ ALL_ST=HOSPITAL - RECOVERY_FL=STORY 4_SCH=H
   #Components on Return Air Path,1
   Return Air Path Component,1,AIRLOOPHVAC:ZONEMIXER,AIR LOOP HVAC ZONE MIXER 17,SYS_3_PSZ ALL_ST=HOSPITAL - RECOVERY_FL=STORY 4_SCH=H
     #Inlet Nodes on Return Air Path Component,1
     Return Air Path Component Nodes,1,AIRLOOPHVAC:ZONEMIXER,AIR LOOP HVAC ZONE MIXER 17,NODE 305,NODE 298,SYS_3_PSZ ALL_ST=HOSPITAL - RECOVERY_FL=STORY 4_SCH=H
! <#Nodes on Return Air Path>,<Number of Nodes>
! <Return Air Path Node>,<Node Type>,<Node Count>,<Node Name>,<AirLoopHVAC Name>
   #Nodes on Return Air Path,2
   Return Air Path Node,Outlet Node,1,NODE 298,SYS_3_PSZ ALL_ST=HOSPITAL - RECOVERY_FL=STORY 4_SCH=H
   Return Air Path Node,Inlet Node,2,NODE 305,SYS_3_PSZ ALL_ST=HOSPITAL - RECOVERY_FL=STORY 4_SCH=H
 Return Air Path,15,SYS_4_PSZ_WILD_ST=HOSPITAL CORR. < 2.4M-SCH-A_FL=STORY 3_SCH=H RETURN PATH,SYS_4_PSZ_WILD_ST=HOSPITAL CORR. < 2.4M-SCH-A_FL=STORY 3_SCH=H
   #Components on Return Air Path,1
   Return Air Path Component,1,AIRLOOPHVAC:ZONEMIXER,AIR LOOP HVAC ZONE MIXER 1,SYS_4_PSZ_WILD_ST=HOSPITAL CORR. < 2.4M-SCH-A_FL=STORY 3_SCH=H
     #Inlet Nodes on Return Air Path Component,4
     Return Air Path Component Nodes,1,AIRLOOPHVAC:ZONEMIXER,AIR LOOP HVAC ZONE MIXER 1,NODE 36,NODE 26,SYS_4_PSZ_WILD_ST=HOSPITAL CORR. < 2.4M-SCH-A_FL=STORY 3_SCH=H
     Return Air Path Component Nodes,2,AIRLOOPHVAC:ZONEMIXER,AIR LOOP HVAC ZONE MIXER 1,NODE 41,NODE 26,SYS_4_PSZ_WILD_ST=HOSPITAL CORR. < 2.4M-SCH-A_FL=STORY 3_SCH=H
     Return Air Path Component Nodes,3,AIRLOOPHVAC:ZONEMIXER,AIR LOOP HVAC ZONE MIXER 1,NODE 47,NODE 26,SYS_4_PSZ_WILD_ST=HOSPITAL CORR. < 2.4M-SCH-A_FL=STORY 3_SCH=H
     Return Air Path Component Nodes,4,AIRLOOPHVAC:ZONEMIXER,AIR LOOP HVAC ZONE MIXER 1,NODE 53,NODE 26,SYS_4_PSZ_WILD_ST=HOSPITAL CORR. < 2.4M-SCH-A_FL=STORY 3_SCH=H
! <#Nodes on Return Air Path>,<Number of Nodes>
! <Return Air Path Node>,<Node Type>,<Node Count>,<Node Name>,<AirLoopHVAC Name>
   #Nodes on Return Air Path,5
   Return Air Path Node,Outlet Node,1,NODE 26,SYS_4_PSZ_WILD_ST=HOSPITAL CORR. < 2.4M-SCH-A_FL=STORY 3_SCH=H
   Return Air Path Node,Inlet Node,2,NODE 36,SYS_4_PSZ_WILD_ST=HOSPITAL CORR. < 2.4M-SCH-A_FL=STORY 3_SCH=H
   Return Air Path Node,Inlet Node,3,NODE 41,SYS_4_PSZ_WILD_ST=HOSPITAL CORR. < 2.4M-SCH-A_FL=STORY 3_SCH=H
   Return Air Path Node,Inlet Node,4,NODE 47,SYS_4_PSZ_WILD_ST=HOSPITAL CORR. < 2.4M-SCH-A_FL=STORY 3_SCH=H
   Return Air Path Node,Inlet Node,5,NODE 53,SYS_4_PSZ_WILD_ST=HOSPITAL CORR. < 2.4M-SCH-A_FL=STORY 3_SCH=H
 Return Air Path,16,SYS_6_VAV WITH REHEAT RETURN PATH,SYS_6_VAV WITH REHEAT
   #Components on Return Air Path,1
   Return Air Path Component,1,AIRLOOPHVAC:ZONEMIXER,AIR LOOP HVAC ZONE MIXER 2,SYS_6_VAV WITH REHEAT
     #Inlet Nodes on Return Air Path Component,1
     Return Air Path Component Nodes,1,AIRLOOPHVAC:ZONEMIXER,AIR LOOP HVAC ZONE MIXER 2,NODE 101,NODE 88,SYS_6_VAV WITH REHEAT
! <#Nodes on Return Air Path>,<Number of Nodes>
! <Return Air Path Node>,<Node Type>,<Node Count>,<Node Name>,<AirLoopHVAC Name>
   #Nodes on Return Air Path,2
   Return Air Path Node,Outlet Node,1,NODE 88,SYS_6_VAV WITH REHEAT
   Return Air Path Node,Inlet Node,2,NODE 101,SYS_6_VAV WITH REHEAT
 Return Air Path,17,SYS_6_VAV WITH REHEAT 1 RETURN PATH,SYS_6_VAV WITH REHEAT 1
   #Components on Return Air Path,1
   Return Air Path Component,1,AIRLOOPHVAC:ZONEMIXER,AIR LOOP HVAC ZONE MIXER 3,SYS_6_VAV WITH REHEAT 1
     #Inlet Nodes on Return Air Path Component,1
     Return Air Path Component Nodes,1,AIRLOOPHVAC:ZONEMIXER,AIR LOOP HVAC ZONE MIXER 3,NODE 122,NODE 108,SYS_6_VAV WITH REHEAT 1
! <#Nodes on Return Air Path>,<Number of Nodes>
! <Return Air Path Node>,<Node Type>,<Node Count>,<Node Name>,<AirLoopHVAC Name>
   #Nodes on Return Air Path,2
   Return Air Path Node,Outlet Node,1,NODE 108,SYS_6_VAV WITH REHEAT 1
   Return Air Path Node,Inlet Node,2,NODE 122,SYS_6_VAV WITH REHEAT 1
! ===============================================================
! #Outdoor Air Nodes,<Number of Outdoor Air Nodes>
 #Outdoor Air Nodes,18
! <Outdoor Air Node>,<NodeNumber>,<Node Name>
 Outdoor Air Node,328,NODE 131
 Outdoor Air Node,329,NODE 144
 Outdoor Air Node,330,NODE 157
 Outdoor Air Node,331,NODE 170
 Outdoor Air Node,332,NODE 196
 Outdoor Air Node,333,NODE 183
 Outdoor Air Node,334,NODE 209
 Outdoor Air Node,335,NODE 222
 Outdoor Air Node,336,NODE 235
 Outdoor Air Node,337,NODE 248
 Outdoor Air Node,338,NODE 261
 Outdoor Air Node,339,NODE 274
 Outdoor Air Node,340,NODE 287
 Outdoor Air Node,341,NODE 300
 Outdoor Air Node,342,NODE 29
 Outdoor Air Node,343,NODE 93
 Outdoor Air Node,344,NODE 114
 Outdoor Air Node,345,MODEL OUTDOOR AIR NODE
! ===============================================================
! <#Component Sets>,<Number of Component Sets>
 #Component Sets,179
! <Component Set>,<Component Set Count>,<Parent Object Type>,<Parent Object Name>,<Component Type>,<Component Name>,<Inlet Node ID>,<Outlet Node ID>,<Description>
 Component Set,1,BRANCH,SYS_3_PSZ ALL_ST=HOSPITAL - EMERGENCY_FL=STORY 4_SCH=H MAIN BRANCH,AIRLOOPHVAC:OUTDOORAIRSYSTEM,AIR LOOP HVAC OUTDOOR AIR SYSTEM 4,NODE 126,NODE 135,Air Nodes
 Component Set,2,BRANCH,SYS_3_PSZ ALL_ST=HOSPITAL - EMERGENCY_FL=STORY 4_SCH=H MAIN BRANCH,COILSYSTEM:COOLING:DX,COIL COOLING DX SINGLE SPEED 2 COILSYSTEM,NODE 135,NODE 134,Air Nodes
 Component Set,3,BRANCH,SYS_3_PSZ ALL_ST=HOSPITAL - EMERGENCY_FL=STORY 4_SCH=H MAIN BRANCH,COIL:HEATING:FUEL,COIL HEATING GAS 2,NODE 134,NODE 133,Air Nodes
 Component Set,4,BRANCH,SYS_3_PSZ ALL_ST=HOSPITAL - EMERGENCY_FL=STORY 4_SCH=H MAIN BRANCH,FAN:CONSTANTVOLUME,FAN CONSTANT VOLUME 2,NODE 133,NODE 127,Air Nodes
 Component Set,5,BRANCH,SYS_3_PSZ ALL_ST=HOSPITAL - EXAM_FL=STORY 3_SCH=C MAIN BRANCH,AIRLOOPHVAC:OUTDOORAIRSYSTEM,AIR LOOP HVAC OUTDOOR AIR SYSTEM 5,NODE 139,NODE 148,Air Nodes
 Component Set,6,BRANCH,SYS_3_PSZ ALL_ST=HOSPITAL - EXAM_FL=STORY 3_SCH=C MAIN BRANCH,COILSYSTEM:COOLING:DX,COIL COOLING DX SINGLE SPEED 3 COILSYSTEM,NODE 148,NODE 147,Air Nodes
 Component Set,7,BRANCH,SYS_3_PSZ ALL_ST=HOSPITAL - EXAM_FL=STORY 3_SCH=C MAIN BRANCH,COIL:HEATING:FUEL,COIL HEATING GAS 3,NODE 147,NODE 146,Air Nodes
 Component Set,8,BRANCH,SYS_3_PSZ ALL_ST=HOSPITAL - EXAM_FL=STORY 3_SCH=C MAIN BRANCH,FAN:CONSTANTVOLUME,FAN CONSTANT VOLUME 3,NODE 146,NODE 140,Air Nodes
 Component Set,9,BRANCH,SYS_3_PSZ ALL_ST=HOSPITAL - LAUNDRY/WASHING_FL=STORY 4_SCH=C MAIN BRANCH,AIRLOOPHVAC:OUTDOORAIRSYSTEM,AIR LOOP HVAC OUTDOOR AIR SYSTEM 6,NODE 152,NODE 161,Air Nodes
 Component Set,10,BRANCH,SYS_3_PSZ ALL_ST=HOSPITAL - LAUNDRY/WASHING_FL=STORY 4_SCH=C MAIN BRANCH,COILSYSTEM:COOLING:DX,COIL COOLING DX SINGLE SPEED 4 COILSYSTEM,NODE 161,NODE 160,Air Nodes
 Component Set,11,BRANCH,SYS_3_PSZ ALL_ST=HOSPITAL - LAUNDRY/WASHING_FL=STORY 4_SCH=C MAIN BRANCH,COIL:HEATING:FUEL,COIL HEATING GAS 4,NODE 160,NODE 159,Air Nodes
 Component Set,12,BRANCH,SYS_3_PSZ ALL_ST=HOSPITAL - LAUNDRY/WASHING_FL=STORY 4_SCH=C MAIN BRANCH,FAN:CONSTANTVOLUME,FAN CONSTANT VOLUME 4,NODE 159,NODE 153,Air Nodes
 Component Set,13,BRANCH,SYS_3_PSZ ALL_ST=HOSPITAL - LOUNGE/RECREATION_FL=STORY 1_SCH=B MAIN BRANCH,AIRLOOPHVAC:OUTDOORAIRSYSTEM,AIR LOOP HVAC OUTDOOR AIR SYSTEM 7,NODE 165,NODE 174,Air Nodes
 Component Set,14,BRANCH,SYS_3_PSZ ALL_ST=HOSPITAL - LOUNGE/RECREATION_FL=STORY 1_SCH=B MAIN BRANCH,COILSYSTEM:COOLING:DX,COIL COOLING DX SINGLE SPEED 5 COILSYSTEM,NODE 174,NODE 173,Air Nodes
 Component Set,15,BRANCH,SYS_3_PSZ ALL_ST=HOSPITAL - LOUNGE/RECREATION_FL=STORY 1_SCH=B MAIN BRANCH,COIL:HEATING:FUEL,COIL HEATING GAS 5,NODE 173,NODE 172,Air Nodes
 Component Set,16,BRANCH,SYS_3_PSZ ALL_ST=HOSPITAL - LOUNGE/RECREATION_FL=STORY 1_SCH=B MAIN BRANCH,FAN:CONSTANTVOLUME,FAN CONSTANT VOLUME 5,NODE 172,NODE 166,Air Nodes
 Component Set,17,BRANCH,SYS_3_PSZ ALL_ST=HOSPITAL - MEDICAL SUPPLY - OCCSENS_FL=STORY 3_SCH=H MAIN BRANCH,AIRLOOPHVAC:OUTDOORAIRSYSTEM,AIR LOOP HVAC OUTDOOR AIR SYSTEM 9,NODE 191,NODE 200,Air Nodes
 Component Set,18,BRANCH,SYS_3_PSZ ALL_ST=HOSPITAL - MEDICAL SUPPLY - OCCSENS_FL=STORY 3_SCH=H MAIN BRANCH,COILSYSTEM:COOLING:DX,COIL COOLING DX SINGLE SPEED 7 COILSYSTEM,NODE 200,NODE 199,Air Nodes
 Component Set,19,BRANCH,SYS_3_PSZ ALL_ST=HOSPITAL - MEDICAL SUPPLY - OCCSENS_FL=STORY 3_SCH=H MAIN BRANCH,COIL:HEATING:FUEL,COIL HEATING GAS 7,NODE 199,NODE 198,Air Nodes
 Component Set,20,BRANCH,SYS_3_PSZ ALL_ST=HOSPITAL - MEDICAL SUPPLY - OCCSENS_FL=STORY 3_SCH=H MAIN BRANCH,FAN:CONSTANTVOLUME,FAN CONSTANT VOLUME 7,NODE 198,NODE 192,Air Nodes
 Component Set,21,BRANCH,SYS_3_PSZ ALL_ST=HOSPITAL - MEDICAL SUPPLY_FL=STORY 1_SCH=H MAIN BRANCH,AIRLOOPHVAC:OUTDOORAIRSYSTEM,AIR LOOP HVAC OUTDOOR AIR SYSTEM 8,NODE 178,NODE 187,Air Nodes
 Component Set,22,BRANCH,SYS_3_PSZ ALL_ST=HOSPITAL - MEDICAL SUPPLY_FL=STORY 1_SCH=H MAIN BRANCH,COILSYSTEM:COOLING:DX,COIL COOLING DX SINGLE SPEED 6 COILSYSTEM,NODE 187,NODE 186,Air Nodes
 Component Set,23,BRANCH,SYS_3_PSZ ALL_ST=HOSPITAL - MEDICAL SUPPLY_FL=STORY 1_SCH=H MAIN BRANCH,COIL:HEATING:FUEL,COIL HEATING GAS 6,NODE 186,NODE 185,Air Nodes
 Component Set,24,BRANCH,SYS_3_PSZ ALL_ST=HOSPITAL - MEDICAL SUPPLY_FL=STORY 1_SCH=H MAIN BRANCH,FAN:CONSTANTVOLUME,FAN CONSTANT VOLUME 6,NODE 185,NODE 179,Air Nodes
 Component Set,25,BRANCH,SYS_3_PSZ ALL_ST=HOSPITAL - NURSERY_FL=STORY 1_SCH=H MAIN BRANCH,AIRLOOPHVAC:OUTDOORAIRSYSTEM,AIR LOOP HVAC OUTDOOR AIR SYSTEM 10,NODE 204,NODE 213,Air Nodes
 Component Set,26,BRANCH,SYS_3_PSZ ALL_ST=HOSPITAL - NURSERY_FL=STORY 1_SCH=H MAIN BRANCH,COILSYSTEM:COOLING:DX,COIL COOLING DX SINGLE SPEED 8 COILSYSTEM,NODE 213,NODE 212,Air Nodes
 Component Set,27,BRANCH,SYS_3_PSZ ALL_ST=HOSPITAL - NURSERY_FL=STORY 1_SCH=H MAIN BRANCH,COIL:HEATING:FUEL,COIL HEATING GAS 8,NODE 212,NODE 211,Air Nodes
 Component Set,28,BRANCH,SYS_3_PSZ ALL_ST=HOSPITAL - NURSERY_FL=STORY 1_SCH=H MAIN BRANCH,FAN:CONSTANTVOLUME,FAN CONSTANT VOLUME 8,NODE 211,NODE 205,Air Nodes
 Component Set,29,BRANCH,SYS_3_PSZ ALL_ST=HOSPITAL - NURSES STATION_FL=STORY 3_SCH=H MAIN BRANCH,AIRLOOPHVAC:OUTDOORAIRSYSTEM,AIR LOOP HVAC OUTDOOR AIR SYSTEM 11,NODE 217,NODE 226,Air Nodes
 Component Set,30,BRANCH,SYS_3_PSZ ALL_ST=HOSPITAL - NURSES STATION_FL=STORY 3_SCH=H MAIN BRANCH,COILSYSTEM:COOLING:DX,COIL COOLING DX SINGLE SPEED 9 COILSYSTEM,NODE 226,NODE 225,Air Nodes
 Component Set,31,BRANCH,SYS_3_PSZ ALL_ST=HOSPITAL - NURSES STATION_FL=STORY 3_SCH=H MAIN BRANCH,COIL:HEATING:FUEL,COIL HEATING GAS 9,NODE 225,NODE 224,Air Nodes
 Component Set,32,BRANCH,SYS_3_PSZ ALL_ST=HOSPITAL - NURSES STATION_FL=STORY 3_SCH=H MAIN BRANCH,FAN:CONSTANTVOLUME,FAN CONSTANT VOLUME 9,NODE 224,NODE 218,Air Nodes
 Component Set,33,BRANCH,SYS_3_PSZ ALL_ST=HOSPITAL - OPERATING ROOM_FL=STORY 1_SCH=H MAIN BRANCH,AIRLOOPHVAC:OUTDOORAIRSYSTEM,AIR LOOP HVAC OUTDOOR AIR SYSTEM 12,NODE 230,NODE 239,Air Nodes
 Component Set,34,BRANCH,SYS_3_PSZ ALL_ST=HOSPITAL - OPERATING ROOM_FL=STORY 1_SCH=H MAIN BRANCH,COILSYSTEM:COOLING:DX,COIL COOLING DX SINGLE SPEED 10 COILSYSTEM,NODE 239,NODE 238,Air Nodes
 Component Set,35,BRANCH,SYS_3_PSZ ALL_ST=HOSPITAL - OPERATING ROOM_FL=STORY 1_SCH=H MAIN BRANCH,COIL:HEATING:FUEL,COIL HEATING GAS 10,NODE 238,NODE 237,Air Nodes
 Component Set,36,BRANCH,SYS_3_PSZ ALL_ST=HOSPITAL - OPERATING ROOM_FL=STORY 1_SCH=H MAIN BRANCH,FAN:CONSTANTVOLUME,FAN CONSTANT VOLUME 10,NODE 237,NODE 231,Air Nodes
 Component Set,37,BRANCH,SYS_3_PSZ ALL_ST=HOSPITAL - PATIENT ROOM_FL=STORY 1_SCH=H MAIN BRANCH,AIRLOOPHVAC:OUTDOORAIRSYSTEM,AIR LOOP HVAC OUTDOOR AIR SYSTEM 13,NODE 243,NODE 252,Air Nodes
 Component Set,38,BRANCH,SYS_3_PSZ ALL_ST=HOSPITAL - PATIENT ROOM_FL=STORY 1_SCH=H MAIN BRANCH,COILSYSTEM:COOLING:DX,COIL COOLING DX SINGLE SPEED 11 COILSYSTEM,NODE 252,NODE 251,Air Nodes
 Component Set,39,BRANCH,SYS_3_PSZ ALL_ST=HOSPITAL - PATIENT ROOM_FL=STORY 1_SCH=H MAIN BRANCH,COIL:HEATING:FUEL,COIL HEATING GAS 11,NODE 251,NODE 250,Air Nodes
 Component Set,40,BRANCH,SYS_3_PSZ ALL_ST=HOSPITAL - PATIENT ROOM_FL=STORY 1_SCH=H MAIN BRANCH,FAN:CONSTANTVOLUME,FAN CONSTANT VOLUME 11,NODE 250,NODE 244,Air Nodes
 Component Set,41,BRANCH,SYS_3_PSZ ALL_ST=HOSPITAL - PHARMACY_FL=STORY 2_SCH=C MAIN BRANCH,AIRLOOPHVAC:OUTDOORAIRSYSTEM,AIR LOOP HVAC OUTDOOR AIR SYSTEM 14,NODE 256,NODE 265,Air Nodes
 Component Set,42,BRANCH,SYS_3_PSZ ALL_ST=HOSPITAL - PHARMACY_FL=STORY 2_SCH=C MAIN BRANCH,COILSYSTEM:COOLING:DX,COIL COOLING DX SINGLE SPEED 12 COILSYSTEM,NODE 265,NODE 264,Air Nodes
 Component Set,43,BRANCH,SYS_3_PSZ ALL_ST=HOSPITAL - PHARMACY_FL=STORY 2_SCH=C MAIN BRANCH,COIL:HEATING:FUEL,COIL HEATING GAS 12,NODE 264,NODE 263,Air Nodes
 Component Set,44,BRANCH,SYS_3_PSZ ALL_ST=HOSPITAL - PHARMACY_FL=STORY 2_SCH=C MAIN BRANCH,FAN:CONSTANTVOLUME,FAN CONSTANT VOLUME 12,NODE 263,NODE 257,Air Nodes
 Component Set,45,BRANCH,SYS_3_PSZ ALL_ST=HOSPITAL - PHYSICAL THERAPY_FL=STORY 4_SCH=C MAIN BRANCH,AIRLOOPHVAC:OUTDOORAIRSYSTEM,AIR LOOP HVAC OUTDOOR AIR SYSTEM 15,NODE 269,NODE 278,Air Nodes
 Component Set,46,BRANCH,SYS_3_PSZ ALL_ST=HOSPITAL - PHYSICAL THERAPY_FL=STORY 4_SCH=C MAIN BRANCH,COILSYSTEM:COOLING:DX,COIL COOLING DX SINGLE SPEED 13 COILSYSTEM,NODE 278,NODE 277,Air Nodes
 Component Set,47,BRANCH,SYS_3_PSZ ALL_ST=HOSPITAL - PHYSICAL THERAPY_FL=STORY 4_SCH=C MAIN BRANCH,COIL:HEATING:FUEL,COIL HEATING GAS 13,NODE 277,NODE 276,Air Nodes
 Component Set,48,BRANCH,SYS_3_PSZ ALL_ST=HOSPITAL - PHYSICAL THERAPY_FL=STORY 4_SCH=C MAIN BRANCH,FAN:CONSTANTVOLUME,FAN CONSTANT VOLUME 13,NODE 276,NODE 270,Air Nodes
 Component Set,49,BRANCH,SYS_3_PSZ ALL_ST=HOSPITAL - RADIOLOGY/IMAGING_FL=STORY 2_SCH=H MAIN BRANCH,AIRLOOPHVAC:OUTDOORAIRSYSTEM,AIR LOOP HVAC OUTDOOR AIR SYSTEM 16,NODE 282,NODE 291,Air Nodes
 Component Set,50,BRANCH,SYS_3_PSZ ALL_ST=HOSPITAL - RADIOLOGY/IMAGING_FL=STORY 2_SCH=H MAIN BRANCH,COILSYSTEM:COOLING:DX,COIL COOLING DX SINGLE SPEED 14 COILSYSTEM,NODE 291,NODE 290,Air Nodes
 Component Set,51,BRANCH,SYS_3_PSZ ALL_ST=HOSPITAL - RADIOLOGY/IMAGING_FL=STORY 2_SCH=H MAIN BRANCH,COIL:HEATING:FUEL,COIL HEATING GAS 14,NODE 290,NODE 289,Air Nodes
 Component Set,52,BRANCH,SYS_3_PSZ ALL_ST=HOSPITAL - RADIOLOGY/IMAGING_FL=STORY 2_SCH=H MAIN BRANCH,FAN:CONSTANTVOLUME,FAN CONSTANT VOLUME 14,NODE 289,NODE 283,Air Nodes
 Component Set,53,BRANCH,SYS_3_PSZ ALL_ST=HOSPITAL - RECOVERY_FL=STORY 4_SCH=H MAIN BRANCH,AIRLOOPHVAC:OUTDOORAIRSYSTEM,AIR LOOP HVAC OUTDOOR AIR SYSTEM 17,NODE 295,NODE 304,Air Nodes
 Component Set,54,BRANCH,SYS_3_PSZ ALL_ST=HOSPITAL - RECOVERY_FL=STORY 4_SCH=H MAIN BRANCH,COILSYSTEM:COOLING:DX,COIL COOLING DX SINGLE SPEED 15 COILSYSTEM,NODE 304,NODE 303,Air Nodes
 Component Set,55,BRANCH,SYS_3_PSZ ALL_ST=HOSPITAL - RECOVERY_FL=STORY 4_SCH=H MAIN BRANCH,COIL:HEATING:FUEL,COIL HEATING GAS 15,NODE 303,NODE 302,Air Nodes
 Component Set,56,BRANCH,SYS_3_PSZ ALL_ST=HOSPITAL - RECOVERY_FL=STORY 4_SCH=H MAIN BRANCH,FAN:CONSTANTVOLUME,FAN CONSTANT VOLUME 15,NODE 302,NODE 296,Air Nodes
 Component Set,57,BRANCH,SYS_4_PSZ_WILD_ST=HOSPITAL CORR. < 2.4M-SCH-A_FL=STORY 3_SCH=H MAIN BRANCH,AIRLOOPHVAC:OUTDOORAIRSYSTEM,AIR LOOP HVAC OUTDOOR AIR SYSTEM 1,NODE 21,NODE 35,Air Nodes
 Component Set,58,BRANCH,SYS_4_PSZ_WILD_ST=HOSPITAL CORR. < 2.4M-SCH-A_FL=STORY 3_SCH=H MAIN BRANCH,COILSYSTEM:COOLING:DX,COIL COOLING DX SINGLE SPEED 1 COILSYSTEM,NODE 35,NODE 33,Air Nodes
 Component Set,59,BRANCH,SYS_4_PSZ_WILD_ST=HOSPITAL CORR. < 2.4M-SCH-A_FL=STORY 3_SCH=H MAIN BRANCH,COIL:HEATING:FUEL,COIL HEATING GAS 1,NODE 33,NODE 32,Air Nodes
 Component Set,60,BRANCH,SYS_4_PSZ_WILD_ST=HOSPITAL CORR. < 2.4M-SCH-A_FL=STORY 3_SCH=H MAIN BRANCH,FAN:CONSTANTVOLUME,FAN CONSTANT VOLUME 1,NODE 32,NODE 23,Air Nodes
 Component Set,61,BRANCH,SYS_6_VAV WITH REHEAT MAIN BRANCH,FAN:VARIABLEVOLUME,SYS6 RETURN FAN,NODE 85,NODE 98,Air Nodes
 Component Set,62,BRANCH,SYS_6_VAV WITH REHEAT MAIN BRANCH,AIRLOOPHVAC:OUTDOORAIRSYSTEM,AIR LOOP HVAC OUTDOOR AIR SYSTEM 2,NODE 98,NODE 97,Air Nodes
 Component Set,63,BRANCH,SYS_6_VAV WITH REHEAT MAIN BRANCH,COIL:COOLING:WATER,COIL COOLING WATER 1,NODE 97,NODE 96,Air Nodes
 Component Set,64,BRANCH,SYS_6_VAV WITH REHEAT MAIN BRANCH,COIL:HEATING:WATER,COIL HEATING WATER 1,NODE 96,NODE 95,Air Nodes
 Component Set,65,BRANCH,SYS_6_VAV WITH REHEAT MAIN BRANCH,FAN:VARIABLEVOLUME,SYS6 SUPPLY FAN,NODE 95,NODE 86,Air Nodes
 Component Set,66,BRANCH,SYS_6_VAV WITH REHEAT 1 MAIN BRANCH,FAN:VARIABLEVOLUME,SYS6 RETURN FAN 1,NODE 105,NODE 119,Air Nodes
 Component Set,67,BRANCH,SYS_6_VAV WITH REHEAT 1 MAIN BRANCH,AIRLOOPHVAC:OUTDOORAIRSYSTEM,AIR LOOP HVAC OUTDOOR AIR SYSTEM 3,NODE 119,NODE 118,Air Nodes
 Component Set,68,BRANCH,SYS_6_VAV WITH REHEAT 1 MAIN BRANCH,COIL:COOLING:WATER,COIL COOLING WATER 2,NODE 118,NODE 117,Air Nodes
 Component Set,69,BRANCH,SYS_6_VAV WITH REHEAT 1 MAIN BRANCH,COIL:HEATING:WATER,COIL HEATING WATER 3,NODE 117,NODE 116,Air Nodes
 Component Set,70,BRANCH,SYS_6_VAV WITH REHEAT 1 MAIN BRANCH,FAN:VARIABLEVOLUME,SYS6 SUPPLY FAN 1,NODE 116,NODE 106,Air Nodes
 Component Set,71,BRANCH,CHILLED WATER LOOP SUPPLY INLET BRANCH,PUMP:CONSTANTSPEED,PUMP CONSTANT SPEED 1,NODE 57,NODE 64,Water Nodes
 Component Set,72,BRANCH,CHILLED WATER LOOP SUPPLY BRANCH 1,CHILLER:ELECTRIC:EIR,PRIMARY CHILLER WATERCOOLED SCROLL,NODE 60,NODE 65,Chilled Water Nodes
 Component Set,73,BRANCH,CHILLED WATER LOOP SUPPLY BRANCH 2,CHILLER:ELECTRIC:EIR,SECONDARY CHILLER WATERCOOLED SCROLL,NODE 66,NODE 67,Chilled Water Nodes
 Component Set,74,BRANCH,CHILLED WATER LOOP SUPPLY BRANCH 3,PIPE:ADIABATIC,PIPE ADIABATIC 3,NODE 68,NODE 69,Pipe Nodes
 Component Set,75,BRANCH,CHILLED WATER LOOP SUPPLY OUTLET BRANCH,PIPE:ADIABATIC,PIPE ADIABATIC 4,NODE 70,NODE 59,Pipe Nodes
 Component Set,76,BRANCH,CHILLED WATER LOOP DEMAND INLET BRANCH,PIPE:ADIABATIC,CHILLED WATER LOOP DEMAND INLET PIPE,NODE 61,CHILLED WATER LOOP DEMAND INLET PIPE NODE,Pipe Nodes
 Component Set,77,BRANCH,CHILLED WATER LOOP DEMAND BRANCH 1,COIL:COOLING:WATER,COIL COOLING WATER 1,NODE 63,NODE 92,Water Nodes
 Component Set,78,BRANCH,CHILLED WATER LOOP DEMAND BRANCH 2,COIL:COOLING:WATER,COIL COOLING WATER 2,NODE 112,NODE 113,Water Nodes
 Component Set,79,BRANCH,CHILLED WATER LOOP DEMAND BYPASS BRANCH,PIPE:ADIABATIC,CHILLED WATER LOOP DEMAND BYPASS PIPE,CHILLED WATER LOOP DEMAND BYPASS PIPE INLET NODE,CHILLED WATER LOOP DEMAND BYPASS PIPE OUTLET NODE,Pipe Nodes
 Component Set,80,BRANCH,CHILLED WATER LOOP DEMAND OUTLET BRANCH,PIPE:ADIABATIC,CHILLED WATER LOOP DEMAND OUTLET PIPE,CHILLED WATER LOOP DEMAND OUTLET PIPE NODE,NODE 62,Pipe Nodes
 Component Set,81,BRANCH,CONDENSER WATER LOOP SUPPLY INLET BRANCH,PUMP:CONSTANTSPEED,PUMP CONSTANT SPEED 2,NODE 71,NODE 77,Water Nodes
 Component Set,82,BRANCH,CONDENSER WATER LOOP SUPPLY BRANCH 1,COOLINGTOWER:SINGLESPEED,COOLING TOWER SINGLE SPEED 1,NODE 73,NODE 78,Chilled Water Nodes
 Component Set,83,BRANCH,CONDENSER WATER LOOP SUPPLY BRANCH 2,PIPE:ADIABATIC,PIPE ADIABATIC 5,NODE 79,NODE 80,Pipe Nodes
 Component Set,84,BRANCH,CONDENSER WATER LOOP SUPPLY OUTLET BRANCH,PIPE:ADIABATIC,PIPE ADIABATIC 6,NODE 81,NODE 72,Pipe Nodes
 Component Set,85,BRANCH,CONDENSER WATER LOOP DEMAND INLET BRANCH,PIPE:ADIABATIC,CONDENSER WATER LOOP DEMAND INLET PIPE,NODE 74,CONDENSER WATER LOOP DEMAND INLET PIPE NODE,Pipe Nodes
 Component Set,86,BRANCH,CONDENSER WATER LOOP DEMAND BRANCH 1,CHILLER:ELECTRIC:EIR,PRIMARY CHILLER WATERCOOLED SCROLL,NODE 76,NODE 82,Condenser Water Nodes
 Component Set,87,BRANCH,CONDENSER WATER LOOP DEMAND BRANCH 2,CHILLER:ELECTRIC:EIR,SECONDARY CHILLER WATERCOOLED SCROLL,NODE 83,NODE 84,Condenser Water Nodes
 Component Set,88,BRANCH,CONDENSER WATER LOOP DEMAND BYPASS BRANCH,PIPE:ADIABATIC,CONDENSER WATER LOOP DEMAND BYPASS PIPE,CONDENSER WATER LOOP DEMAND BYPASS PIPE INLET NODE,CONDENSER WATER LOOP DEMAND BYPASS PIPE OUTLET NODE,Pipe Nodes
 Component Set,89,BRANCH,CONDENSER WATER LOOP DEMAND OUTLET BRANCH,PIPE:ADIABATIC,CONDENSER WATER LOOP DEMAND OUTLET PIPE,CONDENSER WATER LOOP DEMAND OUTLET PIPE NODE,NODE 75,Pipe Nodes
 Component Set,90,BRANCH,HOT WATER LOOP SUPPLY INLET BRANCH,PUMP:VARIABLESPEED,PUMP VARIABLE SPEED 1,NODE 2,NODE 11,Water Nodes
 Component Set,91,BRANCH,HOT WATER LOOP SUPPLY BRANCH 1,BOILER:HOTWATER,PRIMARY BOILER,NODE 5,NODE 12,Hot Water Nodes
 Component Set,92,BRANCH,HOT WATER LOOP SUPPLY BRANCH 2,BOILER:HOTWATER,SECONDARY BOILER,NODE 14,NODE 15,Hot Water Nodes
 Component Set,93,BRANCH,HOT WATER LOOP SUPPLY BRANCH 3,PIPE:ADIABATIC,PIPE ADIABATIC 1,NODE 17,NODE 18,Pipe Nodes
 Component Set,94,BRANCH,HOT WATER LOOP SUPPLY OUTLET BRANCH,PIPE:ADIABATIC,PIPE ADIABATIC 2,NODE 20,NODE 3,Pipe Nodes
 Component Set,95,BRANCH,HOT WATER LOOP DEMAND INLET BRANCH,PIPE:ADIABATIC,HOT WATER LOOP DEMAND INLET PIPE,NODE 6,HOT WATER LOOP DEMAND INLET PIPE NODE,Pipe Nodes
 Component Set,96,BRANCH,HOT WATER LOOP DEMAND BRANCH 1,ZONEHVAC:BASEBOARD:CONVECTIVE:WATER,ZONE HVAC BASEBOARD CONVECTIVE WATER 1,NODE 9,NODE 38,Hot Water Nodes
 Component Set,97,BRANCH,HOT WATER LOOP DEMAND BRANCH 2,ZONEHVAC:BASEBOARD:CONVECTIVE:WATER,ZONE HVAC BASEBOARD CONVECTIVE WATER 2,NODE 42,NODE 44,Hot Water Nodes
 Component Set,98,BRANCH,HOT WATER LOOP DEMAND BRANCH 3,ZONEHVAC:BASEBOARD:CONVECTIVE:WATER,ZONE HVAC BASEBOARD CONVECTIVE WATER 3,NODE 48,NODE 50,Hot Water Nodes
 Component Set,99,BRANCH,HOT WATER LOOP DEMAND BRANCH 4,ZONEHVAC:BASEBOARD:CONVECTIVE:WATER,ZONE HVAC BASEBOARD CONVECTIVE WATER 4,NODE 54,NODE 56,Hot Water Nodes
 Component Set,100,BRANCH,HOT WATER LOOP DEMAND BRANCH 5,COIL:HEATING:WATER,COIL HEATING WATER 1,NODE 90,NODE 91,Water Nodes
 Component Set,101,BRANCH,HOT WATER LOOP DEMAND BRANCH 6,COIL:HEATING:WATER,COIL HEATING WATER 2,NODE 99,NODE 100,Water Nodes
 Component Set,102,BRANCH,HOT WATER LOOP DEMAND BRANCH 7,ZONEHVAC:BASEBOARD:CONVECTIVE:WATER,ZONE HVAC BASEBOARD CONVECTIVE WATER 5,NODE 103,NODE 104,Hot Water Nodes
 Component Set,103,BRANCH,HOT WATER LOOP DEMAND BRANCH 8,COIL:HEATING:WATER,COIL HEATING WATER 3,NODE 110,NODE 111,Water Nodes
 Component Set,104,BRANCH,HOT WATER LOOP DEMAND BRANCH 9,COIL:HEATING:WATER,COIL HEATING WATER 4,NODE 120,NODE 121,Water Nodes
 Component Set,105,BRANCH,HOT WATER LOOP DEMAND BRANCH 10,ZONEHVAC:BASEBOARD:CONVECTIVE:WATER,ZONE HVAC BASEBOARD CONVECTIVE WATER 6,NODE 124,NODE 125,Hot Water Nodes
 Component Set,106,BRANCH,HOT WATER LOOP DEMAND BRANCH 11,ZONEHVAC:BASEBOARD:CONVECTIVE:WATER,ZONE HVAC BASEBOARD CONVECTIVE WATER 7,NODE 137,NODE 138,Hot Water Nodes
 Component Set,107,BRANCH,HOT WATER LOOP DEMAND BRANCH 12,ZONEHVAC:BASEBOARD:CONVECTIVE:WATER,ZONE HVAC BASEBOARD CONVECTIVE WATER 8,NODE 150,NODE 151,Hot Water Nodes
 Component Set,108,BRANCH,HOT WATER LOOP DEMAND BRANCH 13,ZONEHVAC:BASEBOARD:CONVECTIVE:WATER,ZONE HVAC BASEBOARD CONVECTIVE WATER 9,NODE 163,NODE 164,Hot Water Nodes
 Component Set,109,BRANCH,HOT WATER LOOP DEMAND BRANCH 14,ZONEHVAC:BASEBOARD:CONVECTIVE:WATER,ZONE HVAC BASEBOARD CONVECTIVE WATER 10,NODE 176,NODE 177,Hot Water Nodes
 Component Set,110,BRANCH,HOT WATER LOOP DEMAND BRANCH 15,ZONEHVAC:BASEBOARD:CONVECTIVE:WATER,ZONE HVAC BASEBOARD CONVECTIVE WATER 11,NODE 189,NODE 190,Hot Water Nodes
 Component Set,111,BRANCH,HOT WATER LOOP DEMAND BRANCH 16,ZONEHVAC:BASEBOARD:CONVECTIVE:WATER,ZONE HVAC BASEBOARD CONVECTIVE WATER 12,NODE 202,NODE 203,Hot Water Nodes
 Component Set,112,BRANCH,HOT WATER LOOP DEMAND BRANCH 17,ZONEHVAC:BASEBOARD:CONVECTIVE:WATER,ZONE HVAC BASEBOARD CONVECTIVE WATER 13,NODE 215,NODE 216,Hot Water Nodes
 Component Set,113,BRANCH,HOT WATER LOOP DEMAND BRANCH 18,ZONEHVAC:BASEBOARD:CONVECTIVE:WATER,ZONE HVAC BASEBOARD CONVECTIVE WATER 14,NODE 228,NODE 229,Hot Water Nodes
 Component Set,114,BRANCH,HOT WATER LOOP DEMAND BRANCH 19,ZONEHVAC:BASEBOARD:CONVECTIVE:WATER,ZONE HVAC BASEBOARD CONVECTIVE WATER 15,NODE 241,NODE 242,Hot Water Nodes
 Component Set,115,BRANCH,HOT WATER LOOP DEMAND BRANCH 20,ZONEHVAC:BASEBOARD:CONVECTIVE:WATER,ZONE HVAC BASEBOARD CONVECTIVE WATER 16,NODE 254,NODE 255,Hot Water Nodes
 Component Set,116,BRANCH,HOT WATER LOOP DEMAND BRANCH 21,ZONEHVAC:BASEBOARD:CONVECTIVE:WATER,ZONE HVAC BASEBOARD CONVECTIVE WATER 17,NODE 267,NODE 268,Hot Water Nodes
 Component Set,117,BRANCH,HOT WATER LOOP DEMAND BRANCH 22,ZONEHVAC:BASEBOARD:CONVECTIVE:WATER,ZONE HVAC BASEBOARD CONVECTIVE WATER 18,NODE 280,NODE 281,Hot Water Nodes
 Component Set,118,BRANCH,HOT WATER LOOP DEMAND BRANCH 23,ZONEHVAC:BASEBOARD:CONVECTIVE:WATER,ZONE HVAC BASEBOARD CONVECTIVE WATER 19,NODE 293,NODE 294,Hot Water Nodes
 Component Set,119,BRANCH,HOT WATER LOOP DEMAND BRANCH 24,ZONEHVAC:BASEBOARD:CONVECTIVE:WATER,ZONE HVAC BASEBOARD CONVECTIVE WATER 20,NODE 306,NODE 307,Hot Water Nodes
 Component Set,120,BRANCH,HOT WATER LOOP DEMAND BYPASS BRANCH,PIPE:ADIABATIC,HOT WATER LOOP DEMAND BYPASS PIPE,HOT WATER LOOP DEMAND BYPASS PIPE INLET NODE,HOT WATER LOOP DEMAND BYPASS PIPE OUTLET NODE,Pipe Nodes
 Component Set,121,BRANCH,HOT WATER LOOP DEMAND OUTLET BRANCH,PIPE:ADIABATIC,HOT WATER LOOP DEMAND OUTLET PIPE,HOT WATER LOOP DEMAND OUTLET PIPE NODE,NODE 8,Pipe Nodes
 Component Set,122,BRANCH,MAIN SERVICE WATER LOOP SUPPLY INLET BRANCH,PUMP:CONSTANTSPEED,SERVICE WATER LOOP PUMP,NODE 308,NODE 314,Water Nodes
 Component Set,123,BRANCH,MAIN SERVICE WATER LOOP SUPPLY BRANCH 1,WATERHEATER:MIXED,1707GAL NATURALGAS WATER HEATER - 1152KBTU/HR,NODE 310,NODE 315,Use Side Water Nodes
 Component Set,124,BRANCH,MAIN SERVICE WATER LOOP SUPPLY BRANCH 2,PIPE:ADIABATIC,PIPE ADIABATIC 7,NODE 316,NODE 317,Pipe Nodes
 Component Set,125,BRANCH,MAIN SERVICE WATER LOOP SUPPLY OUTLET BRANCH,PIPE:ADIABATIC,PIPE ADIABATIC 9,NODE 319,NODE 309,Pipe Nodes
 Component Set,126,BRANCH,MAIN SERVICE WATER LOOP DEMAND INLET BRANCH,PIPE:ADIABATIC,PIPE ADIABATIC 10,NODE 311,NODE 320,Pipe Nodes
 Component Set,127,BRANCH,MAIN SERVICE WATER LOOP DEMAND BRANCH 1,PIPE:ADIABATIC,PIPE ADIABATIC 8,NODE 313,NODE 318,Pipe Nodes
[...]
 Non-Parent Node Connection,NODE 35,OUTDOORAIR:MIXER,AIR LOOP HVAC OUTDOOR AIR SYSTEM 1 OUTDOOR AIR MIXER,Outlet,1
 Non-Parent Node Connection,NODE 29,OUTDOORAIR:MIXER,AIR LOOP HVAC OUTDOOR AIR SYSTEM 1 OUTDOOR AIR MIXER,Inlet,1
 Non-Parent Node Connection,NODE 30,OUTDOORAIR:MIXER,AIR LOOP HVAC OUTDOOR AIR SYSTEM 1 OUTDOOR AIR MIXER,ReliefAir,1
 Non-Parent Node Connection,NODE 21,OUTDOORAIR:MIXER,AIR LOOP HVAC OUTDOOR AIR SYSTEM 1 OUTDOOR AIR MIXER,Inlet,1
 Non-Parent Node Connection,NODE 97,OUTDOORAIR:MIXER,AIR LOOP HVAC OUTDOOR AIR SYSTEM 2 OUTDOOR AIR MIXER,Outlet,1
 Non-Parent Node Connection,NODE 93,OUTDOORAIR:MIXER,AIR LOOP HVAC OUTDOOR AIR SYSTEM 2 OUTDOOR AIR MIXER,Inlet,1
 Non-Parent Node Connection,NODE 94,OUTDOORAIR:MIXER,AIR LOOP HVAC OUTDOOR AIR SYSTEM 2 OUTDOOR AIR MIXER,ReliefAir,1
 Non-Parent Node Connection,NODE 98,OUTDOORAIR:MIXER,AIR LOOP HVAC OUTDOOR AIR SYSTEM 2 OUTDOOR AIR MIXER,Inlet,1
 Non-Parent Node Connection,NODE 118,OUTDOORAIR:MIXER,AIR LOOP HVAC OUTDOOR AIR SYSTEM 3 OUTDOOR AIR MIXER,Outlet,1
 Non-Parent Node Connection,NODE 114,OUTDOORAIR:MIXER,AIR LOOP HVAC OUTDOOR AIR SYSTEM 3 OUTDOOR AIR MIXER,Inlet,1
 Non-Parent Node Connection,NODE 115,OUTDOORAIR:MIXER,AIR LOOP HVAC OUTDOOR AIR SYSTEM 3 OUTDOOR AIR MIXER,ReliefAir,1
 Non-Parent Node Connection,NODE 119,OUTDOORAIR:MIXER,AIR LOOP HVAC OUTDOOR AIR SYSTEM 3 OUTDOOR AIR MIXER,Inlet,1
 Non-Parent Node Connection,NODE 133,FAN:CONSTANTVOLUME,FAN CONSTANT VOLUME 2,Inlet,1
 Non-Parent Node Connection,NODE 127,FAN:CONSTANTVOLUME,FAN CONSTANT VOLUME 2,Outlet,1
 Non-Parent Node Connection,NODE 146,FAN:CONSTANTVOLUME,FAN CONSTANT VOLUME 3,Inlet,1
 Non-Parent Node Connection,NODE 140,FAN:CONSTANTVOLUME,FAN CONSTANT VOLUME 3,Outlet,1
 Non-Parent Node Connection,NODE 159,FAN:CONSTANTVOLUME,FAN CONSTANT VOLUME 4,Inlet,1
 Non-Parent Node Connection,NODE 153,FAN:CONSTANTVOLUME,FAN CONSTANT VOLUME 4,Outlet,1
 Non-Parent Node Connection,NODE 172,FAN:CONSTANTVOLUME,FAN CONSTANT VOLUME 5,Inlet,1
 Non-Parent Node Connection,NODE 166,FAN:CONSTANTVOLUME,FAN CONSTANT VOLUME 5,Outlet,1
 Non-Parent Node Connection,NODE 198,FAN:CONSTANTVOLUME,FAN CONSTANT VOLUME 7,Inlet,1
 Non-Parent Node Connection,NODE 192,FAN:CONSTANTVOLUME,FAN CONSTANT VOLUME 7,Outlet,1
 Non-Parent Node Connection,NODE 185,FAN:CONSTANTVOLUME,FAN CONSTANT VOLUME 6,Inlet,1
 Non-Parent Node Connection,NODE 179,FAN:CONSTANTVOLUME,FAN CONSTANT VOLUME 6,Outlet,1
 Non-Parent Node Connection,NODE 211,FAN:CONSTANTVOLUME,FAN CONSTANT VOLUME 8,Inlet,1
 Non-Parent Node Connection,NODE 205,FAN:CONSTANTVOLUME,FAN CONSTANT VOLUME 8,Outlet,1
 Non-Parent Node Connection,NODE 224,FAN:CONSTANTVOLUME,FAN CONSTANT VOLUME 9,Inlet,1
 Non-Parent Node Connection,NODE 218,FAN:CONSTANTVOLUME,FAN CONSTANT VOLUME 9,Outlet,1
 Non-Parent Node Connection,NODE 237,FAN:CONSTANTVOLUME,FAN CONSTANT VOLUME 10,Inlet,1
 Non-Parent Node Connection,NODE 231,FAN:CONSTANTVOLUME,FAN CONSTANT VOLUME 10,Outlet,1
 Non-Parent Node Connection,NODE 250,FAN:CONSTANTVOLUME,FAN CONSTANT VOLUME 11,Inlet,1
 Non-Parent Node Connection,NODE 244,FAN:CONSTANTVOLUME,FAN CONSTANT VOLUME 11,Outlet,1
 Non-Parent Node Connection,NODE 263,FAN:CONSTANTVOLUME,FAN CONSTANT VOLUME 12,Inlet,1
 Non-Parent Node Connection,NODE 257,FAN:CONSTANTVOLUME,FAN CONSTANT VOLUME 12,Outlet,1
 Non-Parent Node Connection,NODE 276,FAN:CONSTANTVOLUME,FAN CONSTANT VOLUME 13,Inlet,1
 Non-Parent Node Connection,NODE 270,FAN:CONSTANTVOLUME,FAN CONSTANT VOLUME 13,Outlet,1
 Non-Parent Node Connection,NODE 289,FAN:CONSTANTVOLUME,FAN CONSTANT VOLUME 14,Inlet,1
 Non-Parent Node Connection,NODE 283,FAN:CONSTANTVOLUME,FAN CONSTANT VOLUME 14,Outlet,1
 Non-Parent Node Connection,NODE 302,FAN:CONSTANTVOLUME,FAN CONSTANT VOLUME 15,Inlet,1
 Non-Parent Node Connection,NODE 296,FAN:CONSTANTVOLUME,FAN CONSTANT VOLUME 15,Outlet,1
 Non-Parent Node Connection,NODE 32,FAN:CONSTANTVOLUME,FAN CONSTANT VOLUME 1,Inlet,1
 Non-Parent Node Connection,NODE 23,FAN:CONSTANTVOLUME,FAN CONSTANT VOLUME 1,Outlet,1
 Non-Parent Node Connection,NODE 85,FAN:VARIABLEVOLUME,SYS6 RETURN FAN,Inlet,1
 Non-Parent Node Connection,NODE 98,FAN:VARIABLEVOLUME,SYS6 RETURN FAN,Outlet,1
 Non-Parent Node Connection,NODE 95,FAN:VARIABLEVOLUME,SYS6 SUPPLY FAN,Inlet,1
 Non-Parent Node Connection,NODE 86,FAN:VARIABLEVOLUME,SYS6 SUPPLY FAN,Outlet,1
 Non-Parent Node Connection,NODE 105,FAN:VARIABLEVOLUME,SYS6 RETURN FAN 1,Inlet,1
 Non-Parent Node Connection,NODE 119,FAN:VARIABLEVOLUME,SYS6 RETURN FAN 1,Outlet,1
 Non-Parent Node Connection,NODE 116,FAN:VARIABLEVOLUME,SYS6 SUPPLY FAN 1,Inlet,1
 Non-Parent Node Connection,NODE 106,FAN:VARIABLEVOLUME,SYS6 SUPPLY FAN 1,Outlet,1
 Non-Parent Node Connection,NODE 135,CONTROLLER:OUTDOORAIR,CONTROLLER OUTDOOR AIR 4,Sensor,1
 Non-Parent Node Connection,NODE 131,CONTROLLER:OUTDOORAIR,CONTROLLER OUTDOOR AIR 4,Actuator,1
 Non-Parent Node Connection,NODE 132,CONTROLLER:OUTDOORAIR,CONTROLLER OUTDOOR AIR 4,Actuator,1
 Non-Parent Node Connection,NODE 126,CONTROLLER:OUTDOORAIR,CONTROLLER OUTDOOR AIR 4,Sensor,1
 Non-Parent Node Connection,NODE 148,CONTROLLER:OUTDOORAIR,CONTROLLER OUTDOOR AIR 5,Sensor,1
 Non-Parent Node Connection,NODE 144,CONTROLLER:OUTDOORAIR,CONTROLLER OUTDOOR AIR 5,Actuator,1
 Non-Parent Node Connection,NODE 145,CONTROLLER:OUTDOORAIR,CONTROLLER OUTDOOR AIR 5,Actuator,1
 Non-Parent Node Connection,NODE 139,CONTROLLER:OUTDOORAIR,CONTROLLER OUTDOOR AIR 5,Sensor,1
 Non-Parent Node Connection,NODE 161,CONTROLLER:OUTDOORAIR,CONTROLLER OUTDOOR AIR 6,Sensor,1
 Non-Parent Node Connection,NODE 157,CONTROLLER:OUTDOORAIR,CONTROLLER OUTDOOR AIR 6,Actuator,1
 Non-Parent Node Connection,NODE 158,CONTROLLER:OUTDOORAIR,CONTROLLER OUTDOOR AIR 6,Actuator,1
 Non-Parent Node Connection,NODE 152,CONTROLLER:OUTDOORAIR,CONTROLLER OUTDOOR AIR 6,Sensor,1
 Non-Parent Node Connection,NODE 174,CONTROLLER:OUTDOORAIR,CONTROLLER OUTDOOR AIR 7,Sensor,1
 Non-Parent Node Connection,NODE 170,CONTROLLER:OUTDOORAIR,CONTROLLER OUTDOOR AIR 7,Actuator,1
 Non-Parent Node Connection,NODE 171,CONTROLLER:OUTDOORAIR,CONTROLLER OUTDOOR AIR 7,Actuator,1
 Non-Parent Node Connection,NODE 165,CONTROLLER:OUTDOORAIR,CONTROLLER OUTDOOR AIR 7,Sensor,1
 Non-Parent Node Connection,NODE 200,CONTROLLER:OUTDOORAIR,CONTROLLER OUTDOOR AIR 9,Sensor,1
 Non-Parent Node Connection,NODE 196,CONTROLLER:OUTDOORAIR,CONTROLLER OUTDOOR AIR 9,Actuator,1
 Non-Parent Node Connection,NODE 197,CONTROLLER:OUTDOORAIR,CONTROLLER OUTDOOR AIR 9,Actuator,1
 Non-Parent Node Connection,NODE 191,CONTROLLER:OUTDOORAIR,CONTROLLER OUTDOOR AIR 9,Sensor,1
 Non-Parent Node Connection,NODE 187,CONTROLLER:OUTDOORAIR,CONTROLLER OUTDOOR AIR 8,Sensor,1
 Non-Parent Node Connection,NODE 183,CONTROLLER:OUTDOORAIR,CONTROLLER OUTDOOR AIR 8,Actuator,1
 Non-Parent Node Connection,NODE 184,CONTROLLER:OUTDOORAIR,CONTROLLER OUTDOOR AIR 8,Actuator,1
 Non-Parent Node Connection,NODE 178,CONTROLLER:OUTDOORAIR,CONTROLLER OUTDOOR AIR 8,Sensor,1
 Non-Parent Node Connection,NODE 213,CONTROLLER:OUTDOORAIR,CONTROLLER OUTDOOR AIR 10,Sensor,1
 Non-Parent Node Connection,NODE 209,CONTROLLER:OUTDOORAIR,CONTROLLER OUTDOOR AIR 10,Actuator,1
 Non-Parent Node Connection,NODE 210,CONTROLLER:OUTDOORAIR,CONTROLLER OUTDOOR AIR 10,Actuator,1
 Non-Parent Node Connection,NODE 204,CONTROLLER:OUTDOORAIR,CONTROLLER OUTDOOR AIR 10,Sensor,1
 Non-Parent Node Connection,NODE 226,CONTROLLER:OUTDOORAIR,CONTROLLER OUTDOOR AIR 11,Sensor,1
 Non-Parent Node Connection,NODE 222,CONTROLLER:OUTDOORAIR,CONTROLLER OUTDOOR AIR 11,Actuator,1
 Non-Parent Node Connection,NODE 223,CONTROLLER:OUTDOORAIR,CONTROLLER OUTDOOR AIR 11,Actuator,1
 Non-Parent Node Connection,NODE 217,CONTROLLER:OUTDOORAIR,CONTROLLER OUTDOOR AIR 11,Sensor,1
 Non-Parent Node Connection,NODE 239,CONTROLLER:OUTDOORAIR,CONTROLLER OUTDOOR AIR 12,Sensor,1
 Non-Parent Node Connection,NODE 235,CONTROLLER:OUTDOORAIR,CONTROLLER OUTDOOR AIR 12,Actuator,1
 Non-Parent Node Connection,NODE 236,CONTROLLER:OUTDOORAIR,CONTROLLER OUTDOOR AIR 12,Actuator,1
 Non-Parent Node Connection,NODE 230,CONTROLLER:OUTDOORAIR,CONTROLLER OUTDOOR AIR 12,Sensor,1
 Non-Parent Node Connection,NODE 252,CONTROLLER:OUTDOORAIR,CONTROLLER OUTDOOR AIR 13,Sensor,1
 Non-Parent Node Connection,NODE 248,CONTROLLER:OUTDOORAIR,CONTROLLER OUTDOOR AIR 13,Actuator,1
 Non-Parent Node Connection,NODE 249,CONTROLLER:OUTDOORAIR,CONTROLLER OUTDOOR AIR 13,Actuator,1
 Non-Parent Node Connection,NODE 243,CONTROLLER:OUTDOORAIR,CONTROLLER OUTDOOR AIR 13,Sensor,1
 Non-Parent Node Connection,NODE 265,CONTROLLER:OUTDOORAIR,CONTROLLER OUTDOOR AIR 14,Sensor,1
 Non-Parent Node Connection,NODE 261,CONTROLLER:OUTDOORAIR,CONTROLLER OUTDOOR AIR 14,Actuator,1
 Non-Parent Node Connection,NODE 262,CONTROLLER:OUTDOORAIR,CONTROLLER OUTDOOR AIR 14,Actuator,1
 Non-Parent Node Connection,NODE 256,CONTROLLER:OUTDOORAIR,CONTROLLER OUTDOOR AIR 14,Sensor,1
 Non-Parent Node Connection,NODE 278,CONTROLLER:OUTDOORAIR,CONTROLLER OUTDOOR AIR 15,Sensor,1
 Non-Parent Node Connection,NODE 274,CONTROLLER:OUTDOORAIR,CONTROLLER OUTDOOR AIR 15,Actuator,1
 Non-Parent Node Connection,NODE 275,CONTROLLER:OUTDOORAIR,CONTROLLER OUTDOOR AIR 15,Actuator,1
 Non-Parent Node Connection,NODE 269,CONTROLLER:OUTDOORAIR,CONTROLLER OUTDOOR AIR 15,Sensor,1
 Non-Parent Node Connection,NODE 291,CONTROLLER:OUTDOORAIR,CONTROLLER OUTDOOR AIR 16,Sensor,1
 Non-Parent Node Connection,NODE 287,CONTROLLER:OUTDOORAIR,CONTROLLER OUTDOOR AIR 16,Actuator,1
 Non-Parent Node Connection,NODE 288,CONTROLLER:OUTDOORAIR,CONTROLLER OUTDOOR AIR 16,Actuator,1
 Non-Parent Node Connection,NODE 282,CONTROLLER:OUTDOORAIR,CONTROLLER OUTDOOR AIR 16,Sensor,1
 Non-Parent Node Connection,NODE 304,CONTROLLER:OUTDOORAIR,CONTROLLER OUTDOOR AIR 17,Sensor,1
 Non-Parent Node Connection,NODE 300,CONTROLLER:OUTDOORAIR,CONTROLLER OUTDOOR AIR 17,Actuator,1
 Non-Parent Node Connection,NODE 301,CONTROLLER:OUTDOORAIR,CONTROLLER OUTDOOR AIR 17,Actuator,1
 Non-Parent Node Connection,NODE 295,CONTROLLER:OUTDOORAIR,CONTROLLER OUTDOOR AIR 17,Sensor,1
 Non-Parent Node Connection,NODE 35,CONTROLLER:OUTDOORAIR,CONTROLLER OUTDOOR AIR 1,Sensor,1
 Non-Parent Node Connection,NODE 29,CONTROLLER:OUTDOORAIR,CONTROLLER OUTDOOR AIR 1,Actuator,1
 Non-Parent Node Connection,NODE 30,CONTROLLER:OUTDOORAIR,CONTROLLER OUTDOOR AIR 1,Actuator,1
 Non-Parent Node Connection,NODE 21,CONTROLLER:OUTDOORAIR,CONTROLLER OUTDOOR AIR 1,Sensor,1
 Non-Parent Node Connection,NODE 97,CONTROLLER:OUTDOORAIR,CONTROLLER OUTDOOR AIR 2,Sensor,1
 Non-Parent Node Connection,NODE 93,CONTROLLER:OUTDOORAIR,CONTROLLER OUTDOOR AIR 2,Actuator,1
 Non-Parent Node Connection,NODE 94,CONTROLLER:OUTDOORAIR,CONTROLLER OUTDOOR AIR 2,Actuator,1
 Non-Parent Node Connection,NODE 98,CONTROLLER:OUTDOORAIR,CONTROLLER OUTDOOR AIR 2,Sensor,1
 Non-Parent Node Connection,NODE 118,CONTROLLER:OUTDOORAIR,CONTROLLER OUTDOOR AIR 3,Sensor,1
 Non-Parent Node Connection,NODE 114,CONTROLLER:OUTDOORAIR,CONTROLLER OUTDOOR AIR 3,Actuator,1
 Non-Parent Node Connection,NODE 115,CONTROLLER:OUTDOORAIR,CONTROLLER OUTDOOR AIR 3,Actuator,1
 Non-Parent Node Connection,NODE 119,CONTROLLER:OUTDOORAIR,CONTROLLER OUTDOOR AIR 3,Sensor,1
 Non-Parent Node Connection,NODE 135,COIL:COOLING:DX:SINGLESPEED,COIL COOLING DX SINGLE SPEED 2,Inlet,1
 Non-Parent Node Connection,NODE 134,COIL:COOLING:DX:SINGLESPEED,COIL COOLING DX SINGLE SPEED 2,Outlet,1
 Non-Parent Node Connection,NODE 148,COIL:COOLING:DX:SINGLESPEED,COIL COOLING DX SINGLE SPEED 3,Inlet,1
 Non-Parent Node Connection,NODE 147,COIL:COOLING:DX:SINGLESPEED,COIL COOLING DX SINGLE SPEED 3,Outlet,1
 Non-Parent Node Connection,NODE 161,COIL:COOLING:DX:SINGLESPEED,COIL COOLING DX SINGLE SPEED 4,Inlet,1
 Non-Parent Node Connection,NODE 160,COIL:COOLING:DX:SINGLESPEED,COIL COOLING DX SINGLE SPEED 4,Outlet,1
 Non-Parent Node Connection,NODE 174,COIL:COOLING:DX:SINGLESPEED,COIL COOLING DX SINGLE SPEED 5,Inlet,1
 Non-Parent Node Connection,NODE 173,COIL:COOLING:DX:SINGLESPEED,COIL COOLING DX SINGLE SPEED 5,Outlet,1
 Non-Parent Node Connection,NODE 200,COIL:COOLING:DX:SINGLESPEED,COIL COOLING DX SINGLE SPEED 7,Inlet,1
 Non-Parent Node Connection,NODE 199,COIL:COOLING:DX:SINGLESPEED,COIL COOLING DX SINGLE SPEED 7,Outlet,1
 Non-Parent Node Connection,NODE 187,COIL:COOLING:DX:SINGLESPEED,COIL COOLING DX SINGLE SPEED 6,Inlet,1
 Non-Parent Node Connection,NODE 186,COIL:COOLING:DX:SINGLESPEED,COIL COOLING DX SINGLE SPEED 6,Outlet,1
 Non-Parent Node Connection,NODE 213,COIL:COOLING:DX:SINGLESPEED,COIL COOLING DX SINGLE SPEED 8,Inlet,1
 Non-Parent Node Connection,NODE 212,COIL:COOLING:DX:SINGLESPEED,COIL COOLING DX SINGLE SPEED 8,Outlet,1
 Non-Parent Node Connection,NODE 226,COIL:COOLING:DX:SINGLESPEED,COIL COOLING DX SINGLE SPEED 9,Inlet,1
 Non-Parent Node Connection,NODE 225,COIL:COOLING:DX:SINGLESPEED,COIL COOLING DX SINGLE SPEED 9,Outlet,1
 Non-Parent Node Connection,NODE 239,COIL:COOLING:DX:SINGLESPEED,COIL COOLING DX SINGLE SPEED 10,Inlet,1
 Non-Parent Node Connection,NODE 238,COIL:COOLING:DX:SINGLESPEED,COIL COOLING DX SINGLE SPEED 10,Outlet,1
 Non-Parent Node Connection,NODE 252,COIL:COOLING:DX:SINGLESPEED,COIL COOLING DX SINGLE SPEED 11,Inlet,1
 Non-Parent Node Connection,NODE 251,COIL:COOLING:DX:SINGLESPEED,COIL COOLING DX SINGLE SPEED 11,Outlet,1
 Non-Parent Node Connection,NODE 265,COIL:COOLING:DX:SINGLESPEED,COIL COOLING DX SINGLE SPEED 12,Inlet,1
 Non-Parent Node Connection,NODE 264,COIL:COOLING:DX:SINGLESPEED,COIL COOLING DX SINGLE SPEED 12,Outlet,1
 Non-Parent Node Connection,NODE 278,COIL:COOLING:DX:SINGLESPEED,COIL COOLING DX SINGLE SPEED 13,Inlet,1
 Non-Parent Node Connection,NODE 277,COIL:COOLING:DX:SINGLESPEED,COIL COOLING DX SINGLE SPEED 13,Outlet,1
 Non-Parent Node Connection,NODE 291,COIL:COOLING:DX:SINGLESPEED,COIL COOLING DX SINGLE SPEED 14,Inlet,1
 Non-Parent Node Connection,NODE 290,COIL:COOLING:DX:SINGLESPEED,COIL COOLING DX SINGLE SPEED 14,Outlet,1
 Non-Parent Node Connection,NODE 304,COIL:COOLING:DX:SINGLESPEED,COIL COOLING DX SINGLE SPEED 15,Inlet,1
 Non-Parent Node Connection,NODE 303,COIL:COOLING:DX:SINGLESPEED,COIL COOLING DX SINGLE SPEED 15,Outlet,1
 Non-Parent Node Connection,NODE 35,COIL:COOLING:DX:SINGLESPEED,COIL COOLING DX SINGLE SPEED 1,Inlet,1
 Non-Parent Node Connection,NODE 33,COIL:COOLING:DX:SINGLESPEED,COIL COOLING DX SINGLE SPEED 1,Outlet,1
 Non-Parent Node Connection,NODE 134,COIL:HEATING:FUEL,COIL HEATING GAS 2,Inlet,1
 Non-Parent Node Connection,NODE 133,COIL:HEATING:FUEL,COIL HEATING GAS 2,Outlet,1
 Non-Parent Node Connection,NODE 133,COIL:HEATING:FUEL,COIL HEATING GAS 2,Sensor,1
 Non-Parent Node Connection,NODE 147,COIL:HEATING:FUEL,COIL HEATING GAS 3,Inlet,1
 Non-Parent Node Connection,NODE 146,COIL:HEATING:FUEL,COIL HEATING GAS 3,Outlet,1
 Non-Parent Node Connection,NODE 146,COIL:HEATING:FUEL,COIL HEATING GAS 3,Sensor,1
 Non-Parent Node Connection,NODE 160,COIL:HEATING:FUEL,COIL HEATING GAS 4,Inlet,1
 Non-Parent Node Connection,NODE 159,COIL:HEATING:FUEL,COIL HEATING GAS 4,Outlet,1
 Non-Parent Node Connection,NODE 159,COIL:HEATING:FUEL,COIL HEATING GAS 4,Sensor,1
 Non-Parent Node Connection,NODE 173,COIL:HEATING:FUEL,COIL HEATING GAS 5,Inlet,1
 Non-Parent Node Connection,NODE 172,COIL:HEATING:FUEL,COIL HEATING GAS 5,Outlet,1
 Non-Parent Node Connection,NODE 172,COIL:HEATING:FUEL,COIL HEATING GAS 5,Sensor,1
 Non-Parent Node Connection,NODE 199,COIL:HEATING:FUEL,COIL HEATING GAS 7,Inlet,1
 Non-Parent Node Connection,NODE 198,COIL:HEATING:FUEL,COIL HEATING GAS 7,Outlet,1
 Non-Parent Node Connection,NODE 198,COIL:HEATING:FUEL,COIL HEATING GAS 7,Sensor,1
 Non-Parent Node Connection,NODE 186,COIL:HEATING:FUEL,COIL HEATING GAS 6,Inlet,1
 Non-Parent Node Connection,NODE 185,COIL:HEATING:FUEL,COIL HEATING GAS 6,Outlet,1
 Non-Parent Node Connection,NODE 185,COIL:HEATING:FUEL,COIL HEATING GAS 6,Sensor,1
 Non-Parent Node Connection,NODE 212,COIL:HEATING:FUEL,COIL HEATING GAS 8,Inlet,1
 Non-Parent Node Connection,NODE 211,COIL:HEATING:FUEL,COIL HEATING GAS 8,Outlet,1
 Non-Parent Node Connection,NODE 211,COIL:HEATING:FUEL,COIL HEATING GAS 8,Sensor,1
 Non-Parent Node Connection,NODE 225,COIL:HEATING:FUEL,COIL HEATING GAS 9,Inlet,1
 Non-Parent Node Connection,NODE 224,COIL:HEATING:FUEL,COIL HEATING GAS 9,Outlet,1
 Non-Parent Node Connection,NODE 224,COIL:HEATING:FUEL,COIL HEATING GAS 9,Sensor,1
 Non-Parent Node Connection,NODE 238,COIL:HEATING:FUEL,COIL HEATING GAS 10,Inlet,1
 Non-Parent Node Connection,NODE 237,COIL:HEATING:FUEL,COIL HEATING GAS 10,Outlet,1
 Non-Parent Node Connection,NODE 237,COIL:HEATING:FUEL,COIL HEATING GAS 10,Sensor,1
 Non-Parent Node Connection,NODE 251,COIL:HEATING:FUEL,COIL HEATING GAS 11,Inlet,1
 Non-Parent Node Connection,NODE 250,COIL:HEATING:FUEL,COIL HEATING GAS 11,Outlet,1
 Non-Parent Node Connection,NODE 250,COIL:HEATING:FUEL,COIL HEATING GAS 11,Sensor,1
 Non-Parent Node Connection,NODE 264,COIL:HEATING:FUEL,COIL HEATING GAS 12,Inlet,1
 Non-Parent Node Connection,NODE 263,COIL:HEATING:FUEL,COIL HEATING GAS 12,Outlet,1
 Non-Parent Node Connection,NODE 263,COIL:HEATING:FUEL,COIL HEATING GAS 12,Sensor,1
 Non-Parent Node Connection,NODE 277,COIL:HEATING:FUEL,COIL HEATING GAS 13,Inlet,1
 Non-Parent Node Connection,NODE 276,COIL:HEATING:FUEL,COIL HEATING GAS 13,Outlet,1
 Non-Parent Node Connection,NODE 276,COIL:HEATING:FUEL,COIL HEATING GAS 13,Sensor,1
 Non-Parent Node Connection,NODE 290,COIL:HEATING:FUEL,COIL HEATING GAS 14,Inlet,1
 Non-Parent Node Connection,NODE 289,COIL:HEATING:FUEL,COIL HEATING GAS 14,Outlet,1
 Non-Parent Node Connection,NODE 289,COIL:HEATING:FUEL,COIL HEATING GAS 14,Sensor,1
 Non-Parent Node Connection,NODE 303,COIL:HEATING:FUEL,COIL HEATING GAS 15,Inlet,1
 Non-Parent Node Connection,NODE 302,COIL:HEATING:FUEL,COIL HEATING GAS 15,Outlet,1
 Non-Parent Node Connection,NODE 302,COIL:HEATING:FUEL,COIL HEATING GAS 15,Sensor,1
 Non-Parent Node Connection,NODE 33,COIL:HEATING:FUEL,COIL HEATING GAS 1,Inlet,1
 Non-Parent Node Connection,NODE 32,COIL:HEATING:FUEL,COIL HEATING GAS 1,Outlet,1
 Non-Parent Node Connection,NODE 32,COIL:HEATING:FUEL,COIL HEATING GAS 1,Sensor,1
 Non-Parent Node Connection,NODE 60,CHILLER:ELECTRIC:EIR,PRIMARY CHILLER WATERCOOLED SCROLL,Inlet,1
 Non-Parent Node Connection,NODE 65,CHILLER:ELECTRIC:EIR,PRIMARY CHILLER WATERCOOLED SCROLL,Outlet,1
 Non-Parent Node Connection,NODE 76,CHILLER:ELECTRIC:EIR,PRIMARY CHILLER WATERCOOLED SCROLL,Inlet,2
 Non-Parent Node Connection,NODE 82,CHILLER:ELECTRIC:EIR,PRIMARY CHILLER WATERCOOLED SCROLL,Outlet,2
 Non-Parent Node Connection,NODE 66,CHILLER:ELECTRIC:EIR,SECONDARY CHILLER WATERCOOLED SCROLL,Inlet,1
 Non-Parent Node Connection,NODE 67,CHILLER:ELECTRIC:EIR,SECONDARY CHILLER WATERCOOLED SCROLL,Outlet,1
 Non-Parent Node Connection,NODE 83,CHILLER:ELECTRIC:EIR,SECONDARY CHILLER WATERCOOLED SCROLL,Inlet,2
 Non-Parent Node Connection,NODE 84,CHILLER:ELECTRIC:EIR,SECONDARY CHILLER WATERCOOLED SCROLL,Outlet,2
 Non-Parent Node Connection,NODE 73,COOLINGTOWER:SINGLESPEED,COOLING TOWER SINGLE SPEED 1,Inlet,1
 Non-Parent Node Connection,NODE 78,COOLINGTOWER:SINGLESPEED,COOLING TOWER SINGLE SPEED 1,Outlet,1
 Non-Parent Node Connection,NODE 5,BOILER:HOTWATER,PRIMARY BOILER,Inlet,1
 Non-Parent Node Connection,NODE 12,BOILER:HOTWATER,PRIMARY BOILER,Outlet,1
 Non-Parent Node Connection,NODE 14,BOILER:HOTWATER,SECONDARY BOILER,Inlet,1
 Non-Parent Node Connection,NODE 15,BOILER:HOTWATER,SECONDARY BOILER,Outlet,1
 Non-Parent Node Connection,NODE 2,PUMP:VARIABLESPEED,PUMP VARIABLE SPEED 1,Inlet,1
 Non-Parent Node Connection,NODE 11,PUMP:VARIABLESPEED,PUMP VARIABLE SPEED 1,Outlet,1
 Non-Parent Node Connection,NODE 57,PUMP:CONSTANTSPEED,PUMP CONSTANT SPEED 1,Inlet,1
 Non-Parent Node Connection,NODE 64,PUMP:CONSTANTSPEED,PUMP CONSTANT SPEED 1,Outlet,1
 Non-Parent Node Connection,NODE 71,PUMP:CONSTANTSPEED,PUMP CONSTANT SPEED 2,Inlet,1
 Non-Parent Node Connection,NODE 77,PUMP:CONSTANTSPEED,PUMP CONSTANT SPEED 2,Outlet,1
 Non-Parent Node Connection,NODE 308,PUMP:CONSTANTSPEED,SERVICE WATER LOOP PUMP,Inlet,1
 Non-Parent Node Connection,NODE 314,PUMP:CONSTANTSPEED,SERVICE WATER LOOP PUMP,Outlet,1
