Program Version,EnergyPlus, Version 8.9.0-eba93e8e1b, YMD=2019.03.28 14:24
! <Version>, Version ID
 Version, 8.9
! <Timesteps per Hour>, #TimeSteps, Minutes per TimeStep {minutes}
 Timesteps per Hour,  6, 10
! <System Convergence Limits>, Minimum System TimeStep {minutes}, Max HVAC Iterations, Minimum Plant Iterations, Maximum Plant Iterations
 System Convergence Limits, 1, 20, 2, 8
! <Simulation Control>, Do Zone Sizing, Do System Sizing, Do Plant Sizing, Do Design Days, Do Weather Simulation, Do HVAC Sizing Simulation
 Simulation Control, Yes, Yes, Yes, Yes, No, No
! <Output Reporting Tolerances>, Tolerance for Time Heating Setpoint Not Met, Tolerance for Zone Cooling Setpoint Not Met Time
 Output Reporting Tolerances, 1.000, 1.000, 
! <Site:GroundTemperature:BuildingSurface>,Jan{C},Feb{C},Mar{C},Apr{C},May{C},Jun{C},Jul{C},Aug{C},Sep{C},Oct{C},Nov{C},Dec{C}
 Site:GroundTemperature:BuildingSurface,  19.53,  19.50,  19.54,  19.60,  20.00,  21.64,  22.23,  22.38,  21.45,  20.12,  19.80,  19.63
! <Site:GroundTemperature:FCfactorMethod>,Jan{C},Feb{C},Mar{C},Apr{C},May{C},Jun{C},Jul{C},Aug{C},Sep{C},Oct{C},Nov{C},Dec{C}
 Site:GroundTemperature:FCfactorMethod, -12.27, -13.66, -11.19,  -7.33,   2.77,  10.57,  15.83,  17.43,  14.70,   8.65,   0.56,  -6.95
! <Site:GroundTemperature:Shallow>,Jan{C},Feb{C},Mar{C},Apr{C},May{C},Jun{C},Jul{C},Aug{C},Sep{C},Oct{C},Nov{C},Dec{C}
 Site:GroundTemperature:Shallow,  13.00,  13.00,  13.00,  13.00,  13.00,  13.00,  13.00,  13.00,  13.00,  13.00,  13.00,  13.00
! <Site:GroundTemperature:Deep>,Jan{C},Feb{C},Mar{C},Apr{C},May{C},Jun{C},Jul{C},Aug{C},Sep{C},Oct{C},Nov{C},Dec{C}
 Site:GroundTemperature:Deep,  16.00,  16.00,  16.00,  16.00,  16.00,  16.00,  16.00,  16.00,  16.00,  16.00,  16.00,  16.00
! <Site:GroundReflectance>,Jan{dimensionless},Feb{dimensionless},Mar{dimensionless},Apr{dimensionless},May{dimensionless},Jun{dimensionless},Jul{dimensionless},Aug{dimensionless},Sep{dimensionless},Oct{dimensionless},Nov{dimensionless},Dec{dimensionless}
 Site:GroundReflectance,  0.20,  0.20,  0.20,  0.20,  0.20,  0.20,  0.20,  0.20,  0.20,  0.20,  0.20,  0.20
! <Site:GroundReflectance:SnowModifier>, Normal, Daylighting {dimensionless}
 Site:GroundReflectance:SnowModifier,   1.000,   1.000
! <Site:GroundReflectance:Snow>,Jan{dimensionless},Feb{dimensionless},Mar{dimensionless},Apr{dimensionless},May{dimensionless},Jun{dimensionless},Jul{dimensionless},Aug{dimensionless},Sep{dimensionless},Oct{dimensionless},Nov{dimensionless},Dec{dimensionless}
 Site:GroundReflectance:Snow,  0.20,  0.20,  0.20,  0.20,  0.20,  0.20,  0.20,  0.20,  0.20,  0.20,  0.20,  0.20
! <Site:GroundReflectance:Snow:Daylighting>,Jan{dimensionless},Feb{dimensionless},Mar{dimensionless},Apr{dimensionless},May{dimensionless},Jun{dimensionless},Jul{dimensionless},Aug{dimensionless},Sep{dimensionless},Oct{dimensionless},Nov{dimensionless},Dec{dimensionless}
 Site:GroundReflectance:Snow:Daylighting,  0.20,  0.20,  0.20,  0.20,  0.20,  0.20,  0.20,  0.20,  0.20,  0.20,  0.20,  0.20
! <Environment:Weather Station>,Wind Sensor Height Above Ground {m},Wind Speed Profile Exponent {},Wind Speed Profile Boundary Layer Thickness {m},Air Temperature Sensor Height Above Ground {m},Wind Speed Modifier Coefficient-Internal,Temperature Modifier Coefficient-Internal
Environment:Weather Station,10.000,0.140,270.000,1.500,1.586,9.750E-003
! <Site:Location>, Location Name, Latitude {N+/S- Deg}, Longitude {E+/W- Deg},  Time Zone Number {GMT+/-}, Elevation {m},  Standard Pressure at Elevation {Pa}, Standard RhoAir at Elevation
Site:Location,Fort McMurray AP AB CAN CWEC2016 WMO#=716890,56.65,-111.22,-7.00,369.10,96969,1.1525
! <Building Information>, Building Name,North Axis {deg},Terrain,  Loads Convergence Tolerance Value,Temperature Convergence Tolerance Value,  Solar Distribution,Maximum Number of Warmup Days,Minimum Number of Warmup Days
 Building Information,Building 1,0.000,Suburbs,4.00000E-002,0.40000,FullExterior,25,6
! <Inside Convection Algorithm>, Algorithm {Simple | TARP | CeilingDiffuser | AdaptiveConvectionAlgorithm}
Inside Convection Algorithm,TARP
! <Outside Convection Algorithm>, Algorithm {SimpleCombined | TARP | MoWitt | DOE-2 | AdaptiveConvectionAlgorithm}
Outside Convection Algorithm,TARP
! <Sky Radiance Distribution>, Value {Anisotropic}
Sky Radiance Distribution,Anisotropic
! <Zone Air Solution Algorithm>, Value {ThirdOrderBackwardDifference | AnalyticalSolution | EulerMethod}
 Zone Air Solution Algorithm, ThirdOrderBackwardDifference
! <Zone Air Carbon Dioxide Balance Simulation>, Simulation {Yes/No}, Carbon Dioxide Concentration
 Zone Air Carbon Dioxide Balance Simulation, No,N/A
! <Zone Air Generic Contaminant Balance Simulation>, Simulation {Yes/No}, Generic Contaminant Concentration
 Zone Air Generic Contaminant Balance Simulation, No,N/A
! <Zone Air Mass Flow Balance Simulation>, Enforce Mass Balance, Adjust Zone Mixing, Adjust Zone Infiltration {AddInfiltration | AdjustInfiltration | None}, Infiltration Zones {MixingSourceZonesOnly | AllZones}
 Zone Air Mass Flow Balance Simulation, No,N/A,N/A,N/A
! <HVACSystemRootFindingAlgorithm>, Value {RegulaFalsi | Bisection | BisectionThenRegulaFalsi | RegulaFalsiThenBisection}
 HVACSystemRootFindingAlgorithm, RegulaFalsi
! <Environment:Site Atmospheric Variation>,Wind Speed Profile Exponent {},Wind Speed Profile Boundary Layer Thickness {m},Air Temperature Gradient Coefficient {K/m}
Environment:Site Atmospheric Variation,0.220,370.000,6.500000E-003
! <Surface Geometry>,Starting Corner,Vertex Input Direction,Coordinate System,Daylight Reference Point Coordinate System,Rectangular (Simple) Surface Coordinate System
 Surface Geometry,UpperLeftCorner,Counterclockwise,RelativeCoordinateSystem,RelativeCoordinateSystem,RelativeToZoneOrigin
! <Surface Heat Transfer Algorithm>, Value {CTF - ConductionTransferFunction | EMPD - MoisturePenetrationDepthConductionTransferFunction | CondFD - ConductionFiniteDifference | HAMT - CombinedHeatAndMoistureFiniteElement} - Description,Inside Surface Max Temperature Limit{C}, Surface Convection Coefficient Lower Limit {W/m2-K}, Surface Convection Coefficient Upper Limit {W/m2-K}
Surface Heat Transfer Algorithm, CTF - ConductionTransferFunction,200,0.10,1000.0
! <Shading Summary>, Number of Fixed Detached Shades, Number of Building Detached Shades, Number of Attached Shades
 Shading Summary,0,0,0
! <Zone Summary>, Number of Zones, Number of Zone Surfaces, Number of SubSurfaces
 Zone Summary,20,134,14
! <Zone Information>,Zone Name,North Axis {deg},Origin X-Coordinate {m},Origin Y-Coordinate {m},Origin Z-Coordinate {m},Centroid X-Coordinate {m},Centroid Y-Coordinate {m},Centroid Z-Coordinate {m},Type,Zone Multiplier,Zone List Multiplier,Minimum X {m},Maximum X {m},Minimum Y {m},Maximum Y {m},Minimum Z {m},Maximum Z {m},Ceiling Height {m},Volume {m3},Zone Inside Convection Algorithm {Simple-Detailed-CeilingDiffuser-TrombeWall},Zone Outside Convection Algorithm {Simple-Detailed-Tarp-MoWitt-DOE-2-BLAST}, Floor Area {m2},Exterior Gross Wall Area {m2},Exterior Net Wall Area {m2},Exterior Window Area {m2}, Number of Surfaces, Number of SubSurfaces, Number of Shading SubSurfaces,  Part of Total Building Area
 Zone Information, SP-STORAGE GARAGE INTERIOR-SPACE FUNCTION SYS-4 FLR-4 SCH-K HPLCMT-SOUTH ZN,0.0,0.00,0.00,11.40,50.00,10.85,13.30,1,1,1,0.00,100.00,0.00,25.00,11.40,15.20,3.80,7125.00,TARP,TARP,1875.00,380.00,380.00,0.00,6,0,0,Yes
 Zone Information, SP-STORAGE ROOM < 5 M2-SCH-A-SPACE FUNCTION SYS-4 FLR-4 SCH-A HPLCMT-WEST ZN,0.0,0.00,0.00,11.40,10.85,50.00,13.30,1,1,1,0.00,25.00,0.00,100.00,11.40,15.20,3.80,7125.00,TARP,TARP,1875.00,380.00,285.00,132.50,6,2,0,Yes
 Zone Information, SP-STORAGE ROOM < 5 M2-SCH-B-SPACE FUNCTION SYS-4 FLR-3 SCH-B HPLCMT-CORE ZN,0.0,25.00,25.00,7.60,50.00,50.00,9.50,1,1,1,25.00,75.00,25.00,75.00,7.60,11.40,3.80,9500.00,TARP,TARP,2500.00,0.00,0.00,0.00,6,0,0,Yes
 Zone Information, SP-STORAGE ROOM < 5 M2-SCH-C-SPACE FUNCTION SYS-4 FLR-4 SCH-C HPLCMT-NORTH ZN,0.0,25.00,75.00,11.40,50.00,89.15,13.30,1,1,1,0.00,100.00,75.00,100.00,11.40,15.20,3.80,7125.00,TARP,TARP,1875.00,380.00,285.00,132.50,6,2,0,Yes
 Zone Information, SP-STORAGE ROOM < 5 M2-SCH-D-SPACE FUNCTION SYS-4 FLR-3 SCH-D HPLCMT-NORTH ZN,0.0,25.00,75.00,7.60,50.00,89.15,9.50,1,1,1,0.00,100.00,75.00,100.00,7.60,11.40,3.80,7125.00,TARP,TARP,1875.00,380.00,285.00,95.00,6,1,0,Yes
 Zone Information, SP-STORAGE ROOM < 5 M2-SCH-E-SPACE FUNCTION SYS-4 FLR-3 SCH-E HPLCMT-WEST ZN,0.0,0.00,0.00,7.60,10.85,50.00,9.50,1,1,1,0.00,25.00,0.00,100.00,7.60,11.40,3.80,7125.00,TARP,TARP,1875.00,380.00,285.00,95.00,6,1,0,Yes
 Zone Information, SP-STORAGE ROOM < 5 M2-SCH-F-SPACE FUNCTION SYS-4 FLR-1 SCH-F HPLCMT-SOUTH ZN,0.0,0.00,0.00,0.00,50.00,10.85,1.90,1,1,1,0.00,100.00,0.00,25.00,0.00,3.80,3.80,7125.00,TARP,TARP,1875.00,0.00,0.00,0.00,6,0,0,Yes
 Zone Information, SP-STORAGE ROOM < 5 M2-SCH-G-SPACE FUNCTION SYS-4 FLR-2 SCH-G HPLCMT-EAST ZN,0.0,75.00,25.00,3.80,89.15,50.00,5.70,1,1,1,75.00,100.00,0.00,100.00,3.80,7.60,3.80,7125.00,TARP,TARP,1875.00,380.00,285.00,95.00,6,1,0,Yes
 Zone Information, SP-STORAGE ROOM < 5 M2-SCH-H-SPACE FUNCTION SYS-4 FLR-4 SCH-H HPLCMT-CORE ZN,0.0,25.00,25.00,11.40,50.00,50.00,13.30,1,1,1,25.00,75.00,25.00,75.00,11.40,15.20,3.80,9500.00,TARP,TARP,2500.00,0.00,0.00,50.00,6,1,0,Yes
 Zone Information, SP-STORAGE ROOM < 5 M2-SCH-I-SPACE FUNCTION SYS-4 FLR-2 SCH-I HPLCMT-CORE ZN,0.0,25.00,25.00,3.80,50.00,50.00,5.70,1,1,1,25.00,75.00,25.00,75.00,3.80,7.60,3.80,9500.00,TARP,TARP,2500.00,0.00,0.00,0.00,6,0,0,Yes
 Zone Information, SP-STORAGE ROOM < 5 M2-SCH-J-SPACE FUNCTION SYS-4 FLR-1 SCH-J HPLCMT-NORTH ZN,0.0,25.00,75.00,0.00,50.00,89.15,1.90,1,1,1,0.00,100.00,75.00,100.00,0.00,3.80,3.80,7125.00,TARP,TARP,1875.00,0.00,0.00,0.00,6,0,0,Yes
 Zone Information, SP-STORAGE ROOM < 5 M2-SCH-K-SPACE FUNCTION SYS-4 FLR-3 SCH-K HPLCMT-EAST ZN,0.0,75.00,25.00,7.60,89.15,50.00,9.50,1,1,1,75.00,100.00,0.00,100.00,7.60,11.40,3.80,7125.00,TARP,TARP,1875.00,380.00,380.00,0.00,6,0,0,Yes
 Zone Information, SP-STORAGE ROOM <= 5 M2 <= 100 M2-SCH-A-SPACE FUNCTION SYS-4 FLR-1 SCH-A HPLCMT-EAST ZN,0.0,75.00,25.00,0.00,89.15,50.00,1.90,1,1,1,75.00,100.00,0.00,100.00,0.00,3.80,3.80,7125.00,TARP,TARP,1875.00,0.00,0.00,0.00,6,0,0,Yes
 Zone Information, SP-STORAGE ROOM <= 5 M2 <= 100 M2-SCH-B-SPACE FUNCTION SYS-4 FLR-2 SCH-B HPLCMT-WEST ZN,0.0,0.00,0.00,3.80,10.85,50.00,5.70,1,1,1,0.00,25.00,0.00,100.00,3.80,7.60,3.80,7125.00,TARP,TARP,1875.00,380.00,285.00,95.00,6,1,0,Yes
 Zone Information, SP-STORAGE ROOM <= 5 M2 <= 100 M2-SCH-C-SPACE FUNCTION SYS-4 FLR-1 SCH-C HPLCMT-WEST ZN,0.0,0.00,0.00,0.00,10.85,50.00,1.90,1,1,1,0.00,25.00,0.00,100.00,0.00,3.80,3.80,7125.00,TARP,TARP,1875.00,0.00,0.00,0.00,6,0,0,Yes
 Zone Information, SP-STORAGE ROOM <= 5 M2 <= 100 M2-SCH-D-SPACE FUNCTION SYS-4 FLR-1 SCH-D HPLCMT-CORE ZN,0.0,25.00,25.00,0.00,50.00,50.00,1.90,1,1,1,25.00,75.00,25.00,75.00,0.00,3.80,3.80,9500.00,TARP,TARP,2500.00,0.00,0.00,0.00,6,0,0,Yes
 Zone Information, SP-STORAGE ROOM <= 5 M2 <= 100 M2-SCH-E-SPACE FUNCTION SYS-4 FLR-4 SCH-E HPLCMT-EAST ZN,0.0,75.00,25.00,11.40,89.15,50.00,13.30,1,1,1,75.00,100.00,0.00,100.00,11.40,15.20,3.80,7125.00,TARP,TARP,1875.00,380.00,285.00,132.50,6,2,0,Yes
 Zone Information, SP-STORAGE ROOM <= 5 M2 <= 100 M2-SCH-F-SPACE FUNCTION SYS-4 FLR-2 SCH-F HPLCMT-NORTH ZN,0.0,25.00,75.00,3.80,50.00,89.15,5.70,1,1,1,0.00,100.00,75.00,100.00,3.80,7.60,3.80,7125.00,TARP,TARP,1875.00,380.00,285.00,95.00,6,1,0,Yes
 Zone Information, SP-STORAGE ROOM <= 5 M2 <= 100 M2-SCH-G-SPACE FUNCTION SYS-4 FLR-3 SCH-G HPLCMT-SOUTH ZN,0.0,0.00,0.00,7.60,50.00,10.85,9.50,1,1,1,0.00,100.00,0.00,25.00,7.60,11.40,3.80,7125.00,TARP,TARP,1875.00,380.00,285.00,95.00,6,1,0,Yes
 Zone Information, SP-STORAGE ROOM <= 5 M2 <= 100 M2-SCH-H-SPACE FUNCTION SYS-4 FLR-2 SCH-H HPLCMT-SOUTH ZN,0.0,0.00,0.00,3.80,50.00,10.85,5.70,1,1,1,0.00,100.00,0.00,25.00,3.80,7.60,3.80,7125.00,TARP,TARP,1875.00,380.00,285.00,95.00,6,1,0,Yes
! <Zone Internal Gains Nominal>,Zone Name, Floor Area {m2},# Occupants,Area per Occupant {m2/person},Occupant per Area {person/m2},Interior Lighting {W/m2},Electric Load {W/m2},Gas Load {W/m2},Other Load {W/m2},Hot Water Eq {W/m2},Steam Equipment {W/m2},Sum Loads per Area {W/m2},Outdoor Controlled Baseboard Heat
 Zone Internal Gains Nominal, SP-STORAGE GARAGE INTERIOR-SPACE FUNCTION SYS-4 FLR-4 SCH-K HPLCMT-SOUTH ZN,1875.00,1.9,999.637,1.000E-003,1.500,0.000,0.000,0.000,0.000,0.000,1.500,No
 Zone Internal Gains Nominal, SP-STORAGE ROOM < 5 M2-SCH-A-SPACE FUNCTION SYS-4 FLR-4 SCH-A HPLCMT-WEST ZN,1875.00,18.8,99.964,1.000E-002,10.400,1.000,0.000,0.000,0.000,0.000,11.400,No
 Zone Internal Gains Nominal, SP-STORAGE ROOM < 5 M2-SCH-B-SPACE FUNCTION SYS-4 FLR-3 SCH-B HPLCMT-CORE ZN,2500.00,25.0,99.964,1.000E-002,10.400,1.000,0.000,0.000,0.000,0.000,11.400,No
 Zone Internal Gains Nominal, SP-STORAGE ROOM < 5 M2-SCH-C-SPACE FUNCTION SYS-4 FLR-4 SCH-C HPLCMT-NORTH ZN,1875.00,18.8,99.964,1.000E-002,10.400,1.000,0.000,0.000,0.000,0.000,11.400,No
 Zone Internal Gains Nominal, SP-STORAGE ROOM < 5 M2-SCH-D-SPACE FUNCTION SYS-4 FLR-3 SCH-D HPLCMT-NORTH ZN,1875.00,18.8,99.964,1.000E-002,10.400,1.000,0.000,0.000,0.000,0.000,11.400,No
 Zone Internal Gains Nominal, SP-STORAGE ROOM < 5 M2-SCH-E-SPACE FUNCTION SYS-4 FLR-3 SCH-E HPLCMT-WEST ZN,1875.00,18.8,99.964,1.000E-002,10.400,1.000,0.000,0.000,0.000,0.000,11.400,No
 Zone Internal Gains Nominal, SP-STORAGE ROOM < 5 M2-SCH-F-SPACE FUNCTION SYS-4 FLR-1 SCH-F HPLCMT-SOUTH ZN,1875.00,18.8,99.964,1.000E-002,10.400,1.000,0.000,0.000,0.000,0.000,11.400,No
 Zone Internal Gains Nominal, SP-STORAGE ROOM < 5 M2-SCH-G-SPACE FUNCTION SYS-4 FLR-2 SCH-G HPLCMT-EAST ZN,1875.00,18.8,99.964,1.000E-002,10.400,1.000,0.000,0.000,0.000,0.000,11.400,No
 Zone Internal Gains Nominal, SP-STORAGE ROOM < 5 M2-SCH-H-SPACE FUNCTION SYS-4 FLR-4 SCH-H HPLCMT-CORE ZN,2500.00,25.0,99.964,1.000E-002,10.400,1.000,0.000,0.000,0.000,0.000,11.400,No
 Zone Internal Gains Nominal, SP-STORAGE ROOM < 5 M2-SCH-I-SPACE FUNCTION SYS-4 FLR-2 SCH-I HPLCMT-CORE ZN,2500.00,25.0,99.964,1.000E-002,10.400,1.000,0.000,0.000,0.000,0.000,11.400,No
 Zone Internal Gains Nominal, SP-STORAGE ROOM < 5 M2-SCH-J-SPACE FUNCTION SYS-4 FLR-1 SCH-J HPLCMT-NORTH ZN,1875.00,18.8,99.964,1.000E-002,10.400,1.000,0.000,0.000,0.000,0.000,11.400,No
 Zone Internal Gains Nominal, SP-STORAGE ROOM < 5 M2-SCH-K-SPACE FUNCTION SYS-4 FLR-3 SCH-K HPLCMT-EAST ZN,1875.00,18.8,99.964,1.000E-002,10.400,1.000,0.000,0.000,0.000,0.000,11.400,No
 Zone Internal Gains Nominal, SP-STORAGE ROOM <= 5 M2 <= 100 M2-SCH-A-SPACE FUNCTION SYS-4 FLR-1 SCH-A HPLCMT-EAST ZN,1875.00,18.8,99.964,1.000E-002,6.802,0.000,0.000,0.000,0.000,0.000,6.802,No
 Zone Internal Gains Nominal, SP-STORAGE ROOM <= 5 M2 <= 100 M2-SCH-B-SPACE FUNCTION SYS-4 FLR-2 SCH-B HPLCMT-WEST ZN,1875.00,18.8,99.964,1.000E-002,6.802,0.000,0.000,0.000,0.000,0.000,6.802,No
 Zone Internal Gains Nominal, SP-STORAGE ROOM <= 5 M2 <= 100 M2-SCH-C-SPACE FUNCTION SYS-4 FLR-1 SCH-C HPLCMT-WEST ZN,1875.00,18.8,99.964,1.000E-002,6.802,0.000,0.000,0.000,0.000,0.000,6.802,No
 Zone Internal Gains Nominal, SP-STORAGE ROOM <= 5 M2 <= 100 M2-SCH-D-SPACE FUNCTION SYS-4 FLR-1 SCH-D HPLCMT-CORE ZN,2500.00,25.0,99.964,1.000E-002,6.802,0.000,0.000,0.000,0.000,0.000,6.802,No
 Zone Internal Gains Nominal, SP-STORAGE ROOM <= 5 M2 <= 100 M2-SCH-E-SPACE FUNCTION SYS-4 FLR-4 SCH-E HPLCMT-EAST ZN,1875.00,18.8,99.964,1.000E-002,6.802,0.000,0.000,0.000,0.000,0.000,6.802,No
 Zone Internal Gains Nominal, SP-STORAGE ROOM <= 5 M2 <= 100 M2-SCH-F-SPACE FUNCTION SYS-4 FLR-2 SCH-F HPLCMT-NORTH ZN,1875.00,18.8,99.964,1.000E-002,6.802,0.000,0.000,0.000,0.000,0.000,6.802,No
 Zone Internal Gains Nominal, SP-STORAGE ROOM <= 5 M2 <= 100 M2-SCH-G-SPACE FUNCTION SYS-4 FLR-3 SCH-G HPLCMT-SOUTH ZN,1875.00,18.8,99.964,1.000E-002,6.802,0.000,0.000,0.000,0.000,0.000,6.802,No
 Zone Internal Gains Nominal, SP-STORAGE ROOM <= 5 M2 <= 100 M2-SCH-H-SPACE FUNCTION SYS-4 FLR-2 SCH-H HPLCMT-SOUTH ZN,1875.00,18.8,99.964,1.000E-002,6.802,0.000,0.000,0.000,0.000,0.000,6.802,No
! <People Internal Gains Nominal>,Name,Schedule Name,Zone Name,Zone Floor Area {m2},# Zone Occupants,Number of People {},People/Floor Area {person/m2},Floor Area per person {m2/person},Fraction Radiant,Fraction Convected,Sensible Fraction Calculation,Activity level,ASHRAE 55 Warnings,Carbon Dioxide Generation Rate,Nominal Minimum Number of People,Nominal Maximum Number of People
 People Internal Gains Nominal, SP-STORAGE GARAGE INTERIOR-SPACE FUNCTION SYS-4 FLR-4 SCH-K HPLCMT-SOUTH ZN SPACE FUNCTION STORAGE GARAGE INTERIOR PEOPLE,NECB-K-OCCUPANCY,SP-STORAGE GARAGE INTERIOR-SPACE FUNCTION SYS-4 FLR-4 SCH-K HPLCMT-SOUTH ZN,1875.00,1.9,1.9,1.000E-003,999.637,0.300,0.700,AutoCalculate,NECB-ACTIVITY,No,3.8200E-008,0,2
 People Internal Gains Nominal, SP-STORAGE ROOM < 5 M2-SCH-A-SPACE FUNCTION SYS-4 FLR-4 SCH-A HPLCMT-WEST ZN SPACE FUNCTION STORAGE ROOM < 5 M2-SCH-A PEOPLE,NECB-A-OCCUPANCY,SP-STORAGE ROOM < 5 M2-SCH-A-SPACE FUNCTION SYS-4 FLR-4 SCH-A HPLCMT-WEST ZN,1875.00,18.8,18.8,1.000E-002,99.964,0.300,0.700,AutoCalculate,NECB-ACTIVITY,No,3.8200E-008,0,17
 People Internal Gains Nominal, SP-STORAGE ROOM < 5 M2-SCH-B-SPACE FUNCTION SYS-4 FLR-3 SCH-B HPLCMT-CORE ZN SPACE FUNCTION STORAGE ROOM < 5 M2-SCH-B PEOPLE,NECB-B-OCCUPANCY,SP-STORAGE ROOM < 5 M2-SCH-B-SPACE FUNCTION SYS-4 FLR-3 SCH-B HPLCMT-CORE ZN,2500.00,25.0,25.0,1.000E-002,99.964,0.300,0.700,AutoCalculate,NECB-ACTIVITY,No,3.8200E-008,0,23
 People Internal Gains Nominal, SP-STORAGE ROOM < 5 M2-SCH-C-SPACE FUNCTION SYS-4 FLR-4 SCH-C HPLCMT-NORTH ZN SPACE FUNCTION STORAGE ROOM < 5 M2-SCH-C PEOPLE,NECB-C-OCCUPANCY,SP-STORAGE ROOM < 5 M2-SCH-C-SPACE FUNCTION SYS-4 FLR-4 SCH-C HPLCMT-NORTH ZN,1875.00,18.8,18.8,1.000E-002,99.964,0.300,0.700,AutoCalculate,NECB-ACTIVITY,No,3.8200E-008,0,17
 People Internal Gains Nominal, SP-STORAGE ROOM < 5 M2-SCH-D-SPACE FUNCTION SYS-4 FLR-3 SCH-D HPLCMT-NORTH ZN SPACE FUNCTION STORAGE ROOM < 5 M2-SCH-D PEOPLE,NECB-D-OCCUPANCY,SP-STORAGE ROOM < 5 M2-SCH-D-SPACE FUNCTION SYS-4 FLR-3 SCH-D HPLCMT-NORTH ZN,1875.00,18.8,18.8,1.000E-002,99.964,0.300,0.700,AutoCalculate,NECB-ACTIVITY,No,3.8200E-008,0,17
 People Internal Gains Nominal, SP-STORAGE ROOM < 5 M2-SCH-E-SPACE FUNCTION SYS-4 FLR-3 SCH-E HPLCMT-WEST ZN SPACE FUNCTION STORAGE ROOM < 5 M2-SCH-E PEOPLE,NECB-E-OCCUPANCY,SP-STORAGE ROOM < 5 M2-SCH-E-SPACE FUNCTION SYS-4 FLR-3 SCH-E HPLCMT-WEST ZN,1875.00,18.8,18.8,1.000E-002,99.964,0.300,0.700,AutoCalculate,NECB-ACTIVITY,No,3.8200E-008,0,17
 People Internal Gains Nominal, SP-STORAGE ROOM < 5 M2-SCH-F-SPACE FUNCTION SYS-4 FLR-1 SCH-F HPLCMT-SOUTH ZN SPACE FUNCTION STORAGE ROOM < 5 M2-SCH-F PEOPLE,NECB-F-OCCUPANCY,SP-STORAGE ROOM < 5 M2-SCH-F-SPACE FUNCTION SYS-4 FLR-1 SCH-F HPLCMT-SOUTH ZN,1875.00,18.8,18.8,1.000E-002,99.964,0.300,0.700,AutoCalculate,NECB-ACTIVITY,No,3.8200E-008,3,12
 People Internal Gains Nominal, SP-STORAGE ROOM < 5 M2-SCH-G-SPACE FUNCTION SYS-4 FLR-2 SCH-G HPLCMT-EAST ZN SPACE FUNCTION STORAGE ROOM < 5 M2-SCH-G PEOPLE,NECB-G-OCCUPANCY,SP-STORAGE ROOM < 5 M2-SCH-G-SPACE FUNCTION SYS-4 FLR-2 SCH-G HPLCMT-EAST ZN,1875.00,18.8,18.8,1.000E-002,99.964,0.300,0.700,AutoCalculate,NECB-ACTIVITY,No,3.8200E-008,6,17
 People Internal Gains Nominal, SP-STORAGE ROOM < 5 M2-SCH-H-SPACE FUNCTION SYS-4 FLR-4 SCH-H HPLCMT-CORE ZN SPACE FUNCTION STORAGE ROOM < 5 M2-SCH-H PEOPLE,NECB-H-OCCUPANCY,SP-STORAGE ROOM < 5 M2-SCH-H-SPACE FUNCTION SYS-4 FLR-4 SCH-H HPLCMT-CORE ZN,2500.00,25.0,25.0,1.000E-002,99.964,0.300,0.700,AutoCalculate,NECB-ACTIVITY,No,3.8200E-008,23,23
 People Internal Gains Nominal, SP-STORAGE ROOM < 5 M2-SCH-I-SPACE FUNCTION SYS-4 FLR-2 SCH-I HPLCMT-CORE ZN SPACE FUNCTION STORAGE ROOM < 5 M2-SCH-I PEOPLE,NECB-I-OCCUPANCY,SP-STORAGE ROOM < 5 M2-SCH-I-SPACE FUNCTION SYS-4 FLR-2 SCH-I HPLCMT-CORE ZN,2500.00,25.0,25.0,1.000E-002,99.964,0.300,0.700,AutoCalculate,NECB-ACTIVITY,No,3.8200E-008,0,20
 People Internal Gains Nominal, SP-STORAGE ROOM < 5 M2-SCH-J-SPACE FUNCTION SYS-4 FLR-1 SCH-J HPLCMT-NORTH ZN SPACE FUNCTION STORAGE ROOM < 5 M2-SCH-J PEOPLE,NECB-J-OCCUPANCY,SP-STORAGE ROOM < 5 M2-SCH-J-SPACE FUNCTION SYS-4 FLR-1 SCH-J HPLCMT-NORTH ZN,1875.00,18.8,18.8,1.000E-002,99.964,0.300,0.700,AutoCalculate,NECB-ACTIVITY,No,3.8200E-008,11,17
 People Internal Gains Nominal, SP-STORAGE ROOM < 5 M2-SCH-K-SPACE FUNCTION SYS-4 FLR-3 SCH-K HPLCMT-EAST ZN SPACE FUNCTION STORAGE ROOM < 5 M2-SCH-K PEOPLE,NECB-K-OCCUPANCY,SP-STORAGE ROOM < 5 M2-SCH-K-SPACE FUNCTION SYS-4 FLR-3 SCH-K HPLCMT-EAST ZN,1875.00,18.8,18.8,1.000E-002,99.964,0.300,0.700,AutoCalculate,NECB-ACTIVITY,No,3.8200E-008,0,17
 People Internal Gains Nominal, SP-STORAGE ROOM <= 5 M2 <= 100 M2-SCH-A-SPACE FUNCTION SYS-4 FLR-1 SCH-A HPLCMT-EAST ZN SPACE FUNCTION STORAGE ROOM <= 5 M2 <= 100 M2-SCH-A PEOPLE,NECB-A-OCCUPANCY,SP-STORAGE ROOM <= 5 M2 <= 100 M2-SCH-A-SPACE FUNCTION SYS-4 FLR-1 SCH-A HPLCMT-EAST ZN,1875.00,18.8,18.8,1.000E-002,99.964,0.300,0.700,AutoCalculate,NECB-ACTIVITY,No,3.8200E-008,0,17
 People Internal Gains Nominal, SP-STORAGE ROOM <= 5 M2 <= 100 M2-SCH-B-SPACE FUNCTION SYS-4 FLR-2 SCH-B HPLCMT-WEST ZN SPACE FUNCTION STORAGE ROOM <= 5 M2 <= 100 M2-SCH-B PEOPLE,NECB-B-OCCUPANCY,SP-STORAGE ROOM <= 5 M2 <= 100 M2-SCH-B-SPACE FUNCTION SYS-4 FLR-2 SCH-B HPLCMT-WEST ZN,1875.00,18.8,18.8,1.000E-002,99.964,0.300,0.700,AutoCalculate,NECB-ACTIVITY,No,3.8200E-008,0,17
 People Internal Gains Nominal, SP-STORAGE ROOM <= 5 M2 <= 100 M2-SCH-C-SPACE FUNCTION SYS-4 FLR-1 SCH-C HPLCMT-WEST ZN SPACE FUNCTION STORAGE ROOM <= 5 M2 <= 100 M2-SCH-C PEOPLE,NECB-C-OCCUPANCY,SP-STORAGE ROOM <= 5 M2 <= 100 M2-SCH-C-SPACE FUNCTION SYS-4 FLR-1 SCH-C HPLCMT-WEST ZN,1875.00,18.8,18.8,1.000E-002,99.964,0.300,0.700,AutoCalculate,NECB-ACTIVITY,No,3.8200E-008,0,17
 People Internal Gains Nominal, SP-STORAGE ROOM <= 5 M2 <= 100 M2-SCH-D-SPACE FUNCTION SYS-4 FLR-1 SCH-D HPLCMT-CORE ZN SPACE FUNCTION STORAGE ROOM <= 5 M2 <= 100 M2-SCH-D PEOPLE,NECB-D-OCCUPANCY,SP-STORAGE ROOM <= 5 M2 <= 100 M2-SCH-D-SPACE FUNCTION SYS-4 FLR-1 SCH-D HPLCMT-CORE ZN,2500.00,25.0,25.0,1.000E-002,99.964,0.300,0.700,AutoCalculate,NECB-ACTIVITY,No,3.8200E-008,0,23
 People Internal Gains Nominal, SP-STORAGE ROOM <= 5 M2 <= 100 M2-SCH-E-SPACE FUNCTION SYS-4 FLR-4 SCH-E HPLCMT-EAST ZN SPACE FUNCTION STORAGE ROOM <= 5 M2 <= 100 M2-SCH-E PEOPLE,NECB-E-OCCUPANCY,SP-STORAGE ROOM <= 5 M2 <= 100 M2-SCH-E-SPACE FUNCTION SYS-4 FLR-4 SCH-E HPLCMT-EAST ZN,1875.00,18.8,18.8,1.000E-002,99.964,0.300,0.700,AutoCalculate,NECB-ACTIVITY,No,3.8200E-008,0,17
 People Internal Gains Nominal, SP-STORAGE ROOM <= 5 M2 <= 100 M2-SCH-F-SPACE FUNCTION SYS-4 FLR-2 SCH-F HPLCMT-NORTH ZN SPACE FUNCTION STORAGE ROOM <= 5 M2 <= 100 M2-SCH-F PEOPLE,NECB-F-OCCUPANCY,SP-STORAGE ROOM <= 5 M2 <= 100 M2-SCH-F-SPACE FUNCTION SYS-4 FLR-2 SCH-F HPLCMT-NORTH ZN,1875.00,18.8,18.8,1.000E-002,99.964,0.300,0.700,AutoCalculate,NECB-ACTIVITY,No,3.8200E-008,3,12
 People Internal Gains Nominal, SP-STORAGE ROOM <= 5 M2 <= 100 M2-SCH-G-SPACE FUNCTION SYS-4 FLR-3 SCH-G HPLCMT-SOUTH ZN SPACE FUNCTION STORAGE ROOM <= 5 M2 <= 100 M2-SCH-G PEOPLE,NECB-G-OCCUPANCY,SP-STORAGE ROOM <= 5 M2 <= 100 M2-SCH-G-SPACE FUNCTION SYS-4 FLR-3 SCH-G HPLCMT-SOUTH ZN,1875.00,18.8,18.8,1.000E-002,99.964,0.300,0.700,AutoCalculate,NECB-ACTIVITY,No,3.8200E-008,6,17
 People Internal Gains Nominal, SP-STORAGE ROOM <= 5 M2 <= 100 M2-SCH-H-SPACE FUNCTION SYS-4 FLR-2 SCH-H HPLCMT-SOUTH ZN SPACE FUNCTION STORAGE ROOM <= 5 M2 <= 100 M2-SCH-H PEOPLE,NECB-H-OCCUPANCY,SP-STORAGE ROOM <= 5 M2 <= 100 M2-SCH-H-SPACE FUNCTION SYS-4 FLR-2 SCH-H HPLCMT-SOUTH ZN,1875.00,18.8,18.8,1.000E-002,99.964,0.300,0.700,AutoCalculate,NECB-ACTIVITY,No,3.8200E-008,17,17
! <Lights Internal Gains Nominal>,Name,Schedule Name,Zone Name,Zone Floor Area {m2},# Zone Occupants,Lighting Level {W},Lights/Floor Area {W/m2},Lights per person {W/person},Fraction Return Air,Fraction Radiant,Fraction Short Wave,Fraction Convected,Fraction Replaceable,End-Use Category,Nominal Minimum Lighting Level {W},Nominal Maximum Lighting Level {W}
 Lights Internal Gains Nominal, SP-STORAGE GARAGE INTERIOR-SPACE FUNCTION SYS-4 FLR-4 SCH-K HPLCMT-SOUTH ZN SPACE FUNCTION STORAGE GARAGE INTERIOR LIGHTS,NECB-K-LIGHTING,SP-STORAGE GARAGE INTERIOR-SPACE FUNCTION SYS-4 FLR-4 SCH-K HPLCMT-SOUTH ZN,1875.00,1.9,2812.469,1.500,1499.438,0.000,0.500,0.200,0.300,1.000,General,2531.222,2531.222
 Lights Internal Gains Nominal, SP-STORAGE ROOM < 5 M2-SCH-A-SPACE FUNCTION SYS-4 FLR-4 SCH-A HPLCMT-WEST ZN SPACE FUNCTION STORAGE ROOM < 5 M2-SCH-A LIGHTS,NECB-A-OCCUPANCY-NECB-A-LIGHTING-0.6-0.0-0.67-LIGHT RULESET,SP-STORAGE ROOM < 5 M2-SCH-A-SPACE FUNCTION SYS-4 FLR-4 SCH-A HPLCMT-WEST ZN,1875.00,18.8,19499.846,10.400,1039.614,0.000,0.500,0.200,0.300,1.000,General,583.045,17549.862
 Lights Internal Gains Nominal, SP-STORAGE ROOM < 5 M2-SCH-B-SPACE FUNCTION SYS-4 FLR-3 SCH-B HPLCMT-CORE ZN SPACE FUNCTION STORAGE ROOM < 5 M2-SCH-B LIGHTS,NECB-B-OCCUPANCY-NECB-B-LIGHTING-0.6-0.0-0.67-LIGHT RULESET,SP-STORAGE ROOM < 5 M2-SCH-B-SPACE FUNCTION SYS-4 FLR-3 SCH-B HPLCMT-CORE ZN,2500.00,25.0,25999.795,10.400,1039.614,0.000,0.500,0.200,0.300,1.000,General,1554.788,23399.816
 Lights Internal Gains Nominal, SP-STORAGE ROOM < 5 M2-SCH-C-SPACE FUNCTION SYS-4 FLR-4 SCH-C HPLCMT-NORTH ZN SPACE FUNCTION STORAGE ROOM < 5 M2-SCH-C LIGHTS,NECB-C-OCCUPANCY-NECB-C-LIGHTING-0.6-0.0-0.67-LIGHT RULESET,SP-STORAGE ROOM < 5 M2-SCH-C-SPACE FUNCTION SYS-4 FLR-4 SCH-C HPLCMT-NORTH ZN,1875.00,18.8,19499.846,10.400,1039.614,0.000,0.500,0.200,0.300,1.000,General,583.045,17549.862
 Lights Internal Gains Nominal, SP-STORAGE ROOM < 5 M2-SCH-D-SPACE FUNCTION SYS-4 FLR-3 SCH-D HPLCMT-NORTH ZN SPACE FUNCTION STORAGE ROOM < 5 M2-SCH-D LIGHTS,NECB-D-OCCUPANCY-NECB-D-LIGHTING-0.6-0.0-0.67-LIGHT RULESET,SP-STORAGE ROOM < 5 M2-SCH-D-SPACE FUNCTION SYS-4 FLR-3 SCH-D HPLCMT-NORTH ZN,1875.00,18.8,19499.846,10.400,1039.614,0.000,0.500,0.200,0.300,1.000,General,583.045,17549.862
 Lights Internal Gains Nominal, SP-STORAGE ROOM < 5 M2-SCH-E-SPACE FUNCTION SYS-4 FLR-3 SCH-E HPLCMT-WEST ZN SPACE FUNCTION STORAGE ROOM < 5 M2-SCH-E LIGHTS,NECB-E-OCCUPANCY-NECB-E-LIGHTING-0.6-0.0-0.67-LIGHT RULESET,SP-STORAGE ROOM < 5 M2-SCH-E-SPACE FUNCTION SYS-4 FLR-3 SCH-E HPLCMT-WEST ZN,1875.00,18.8,19499.846,10.400,1039.614,0.000,0.500,0.200,0.300,1.000,General,583.045,17549.862
 Lights Internal Gains Nominal, SP-STORAGE ROOM < 5 M2-SCH-F-SPACE FUNCTION SYS-4 FLR-1 SCH-F HPLCMT-SOUTH ZN SPACE FUNCTION STORAGE ROOM < 5 M2-SCH-F LIGHTS,NECB-F-OCCUPANCY-NECB-F-LIGHTING-0.6-0.0-0.67-LIGHT RULESET,SP-STORAGE ROOM < 5 M2-SCH-F-SPACE FUNCTION SYS-4 FLR-1 SCH-F HPLCMT-SOUTH ZN,1875.00,18.8,19499.846,10.400,1039.614,0.000,0.500,0.200,0.300,1.000,General,1364.989,8189.935
 Lights Internal Gains Nominal, SP-STORAGE ROOM < 5 M2-SCH-G-SPACE FUNCTION SYS-4 FLR-2 SCH-G HPLCMT-EAST ZN SPACE FUNCTION STORAGE ROOM < 5 M2-SCH-G LIGHTS,NECB-G-OCCUPANCY-NECB-G-LIGHTING-0.6-0.0-0.67-LIGHT RULESET,SP-STORAGE ROOM < 5 M2-SCH-G-SPACE FUNCTION SYS-4 FLR-2 SCH-G HPLCMT-EAST ZN,1875.00,18.8,19499.846,10.400,1039.614,0.000,0.500,0.200,0.300,1.000,General,0.000,17549.862
 Lights Internal Gains Nominal, SP-STORAGE ROOM < 5 M2-SCH-H-SPACE FUNCTION SYS-4 FLR-4 SCH-H HPLCMT-CORE ZN SPACE FUNCTION STORAGE ROOM < 5 M2-SCH-H LIGHTS,NECB-H-OCCUPANCY-NECB-H-LIGHTING-0.6-0.0-0.67-LIGHT RULESET,SP-STORAGE ROOM < 5 M2-SCH-H-SPACE FUNCTION SYS-4 FLR-4 SCH-H HPLCMT-CORE ZN,2500.00,25.0,25999.795,10.400,1039.614,0.000,0.500,0.200,0.300,1.000,General,23399.816,23399.816
 Lights Internal Gains Nominal, SP-STORAGE ROOM < 5 M2-SCH-I-SPACE FUNCTION SYS-4 FLR-2 SCH-I HPLCMT-CORE ZN SPACE FUNCTION STORAGE ROOM < 5 M2-SCH-I LIGHTS,NECB-I-OCCUPANCY-NECB-I-LIGHTING-0.6-0.0-0.67-LIGHT RULESET,SP-STORAGE ROOM < 5 M2-SCH-I-SPACE FUNCTION SYS-4 FLR-2 SCH-I HPLCMT-CORE ZN,2500.00,25.0,25999.795,10.400,1039.614,0.000,0.500,0.200,0.300,1.000,General,777.394,23399.816
 Lights Internal Gains Nominal, SP-STORAGE ROOM < 5 M2-SCH-J-SPACE FUNCTION SYS-4 FLR-1 SCH-J HPLCMT-NORTH ZN SPACE FUNCTION STORAGE ROOM < 5 M2-SCH-J LIGHTS,NECB-J-OCCUPANCY-NECB-J-LIGHTING-0.6-0.0-0.67-LIGHT RULESET,SP-STORAGE ROOM < 5 M2-SCH-J-SPACE FUNCTION SYS-4 FLR-1 SCH-J HPLCMT-NORTH ZN,1875.00,18.8,19499.846,10.400,1039.614,0.000,0.500,0.200,0.300,1.000,General,1949.985,13649.892
 Lights Internal Gains Nominal, SP-STORAGE ROOM < 5 M2-SCH-K-SPACE FUNCTION SYS-4 FLR-3 SCH-K HPLCMT-EAST ZN SPACE FUNCTION STORAGE ROOM < 5 M2-SCH-K LIGHTS,NECB-K-OCCUPANCY-NECB-K-LIGHTING-0.6-0.0-0.67-LIGHT RULESET,SP-STORAGE ROOM < 5 M2-SCH-K-SPACE FUNCTION SYS-4 FLR-3 SCH-K HPLCMT-EAST ZN,1875.00,18.8,19499.846,10.400,1039.614,0.000,0.500,0.200,0.300,1.000,General,10494.817,17549.862
 Lights Internal Gains Nominal, SP-STORAGE ROOM <= 5 M2 <= 100 M2-SCH-A-SPACE FUNCTION SYS-4 FLR-1 SCH-A HPLCMT-EAST ZN SPACE FUNCTION STORAGE ROOM <= 5 M2 <= 100 M2-SCH-A LIGHTS,NECB-A-LIGHTING,SP-STORAGE ROOM <= 5 M2 <= 100 M2-SCH-A-SPACE FUNCTION SYS-4 FLR-1 SCH-A HPLCMT-EAST ZN,1875.00,18.8,12754.634,6.802,680.000,0.000,0.500,0.200,0.300,1.000,General,637.732,11479.170
 Lights Internal Gains Nominal, SP-STORAGE ROOM <= 5 M2 <= 100 M2-SCH-B-SPACE FUNCTION SYS-4 FLR-2 SCH-B HPLCMT-WEST ZN SPACE FUNCTION STORAGE ROOM <= 5 M2 <= 100 M2-SCH-B LIGHTS,NECB-B-LIGHTING,SP-STORAGE ROOM <= 5 M2 <= 100 M2-SCH-B-SPACE FUNCTION SYS-4 FLR-2 SCH-B HPLCMT-WEST ZN,1875.00,18.8,12754.634,6.802,680.000,0.000,0.500,0.200,0.300,1.000,General,1275.463,11479.170
 Lights Internal Gains Nominal, SP-STORAGE ROOM <= 5 M2 <= 100 M2-SCH-C-SPACE FUNCTION SYS-4 FLR-1 SCH-C HPLCMT-WEST ZN SPACE FUNCTION STORAGE ROOM <= 5 M2 <= 100 M2-SCH-C LIGHTS,NECB-C-LIGHTING,SP-STORAGE ROOM <= 5 M2 <= 100 M2-SCH-C-SPACE FUNCTION SYS-4 FLR-1 SCH-C HPLCMT-WEST ZN,1875.00,18.8,12754.634,6.802,680.000,0.000,0.500,0.200,0.300,1.000,General,637.732,11479.170
 Lights Internal Gains Nominal, SP-STORAGE ROOM <= 5 M2 <= 100 M2-SCH-D-SPACE FUNCTION SYS-4 FLR-1 SCH-D HPLCMT-CORE ZN SPACE FUNCTION STORAGE ROOM <= 5 M2 <= 100 M2-SCH-D LIGHTS,NECB-D-LIGHTING,SP-STORAGE ROOM <= 5 M2 <= 100 M2-SCH-D-SPACE FUNCTION SYS-4 FLR-1 SCH-D HPLCMT-CORE ZN,2500.00,25.0,17006.178,6.802,680.000,0.000,0.500,0.200,0.300,1.000,General,850.309,15305.560
 Lights Internal Gains Nominal, SP-STORAGE ROOM <= 5 M2 <= 100 M2-SCH-E-SPACE FUNCTION SYS-4 FLR-4 SCH-E HPLCMT-EAST ZN SPACE FUNCTION STORAGE ROOM <= 5 M2 <= 100 M2-SCH-E LIGHTS,NECB-E-LIGHTING,SP-STORAGE ROOM <= 5 M2 <= 100 M2-SCH-E-SPACE FUNCTION SYS-4 FLR-4 SCH-E HPLCMT-EAST ZN,1875.00,18.8,12754.634,6.802,680.000,0.000,0.500,0.200,0.300,1.000,General,637.732,11479.170
 Lights Internal Gains Nominal, SP-STORAGE ROOM <= 5 M2 <= 100 M2-SCH-F-SPACE FUNCTION SYS-4 FLR-2 SCH-F HPLCMT-NORTH ZN SPACE FUNCTION STORAGE ROOM <= 5 M2 <= 100 M2-SCH-F LIGHTS,NECB-F-LIGHTING,SP-STORAGE ROOM <= 5 M2 <= 100 M2-SCH-F-SPACE FUNCTION SYS-4 FLR-2 SCH-F HPLCMT-NORTH ZN,1875.00,18.8,12754.634,6.802,680.000,0.000,0.500,0.200,0.300,1.000,General,892.824,8035.419
 Lights Internal Gains Nominal, SP-STORAGE ROOM <= 5 M2 <= 100 M2-SCH-G-SPACE FUNCTION SYS-4 FLR-3 SCH-G HPLCMT-SOUTH ZN SPACE FUNCTION STORAGE ROOM <= 5 M2 <= 100 M2-SCH-G LIGHTS,NECB-G-LIGHTING,SP-STORAGE ROOM <= 5 M2 <= 100 M2-SCH-G-SPACE FUNCTION SYS-4 FLR-3 SCH-G HPLCMT-SOUTH ZN,1875.00,18.8,12754.634,6.802,680.000,0.000,0.500,0.200,0.300,1.000,General,0.000,11479.170
 Lights Internal Gains Nominal, SP-STORAGE ROOM <= 5 M2 <= 100 M2-SCH-H-SPACE FUNCTION SYS-4 FLR-2 SCH-H HPLCMT-SOUTH ZN SPACE FUNCTION STORAGE ROOM <= 5 M2 <= 100 M2-SCH-H LIGHTS,NECB-H-LIGHTING,SP-STORAGE ROOM <= 5 M2 <= 100 M2-SCH-H-SPACE FUNCTION SYS-4 FLR-2 SCH-H HPLCMT-SOUTH ZN,1875.00,18.8,12754.634,6.802,680.000,0.000,0.500,0.200,0.300,1.000,General,11479.170,11479.170
! <ElectricEquipment Internal Gains Nominal>,Name,Schedule Name,Zone Name,Zone Floor Area {m2},# Zone Occupants,Equipment Level {W},Equipment/Floor Area {W/m2},Equipment per person {W/person},Fraction Latent,Fraction Radiant,Fraction Lost,Fraction Convected,End-Use SubCategory,Nominal Minimum Equipment Level {W},Nominal Maximum Equipment Level {W}
 ElectricEquipment Internal Gains Nominal, SP-STORAGE ROOM < 5 M2-SCH-A-SPACE FUNCTION SYS-4 FLR-4 SCH-A HPLCMT-WEST ZN SPACE FUNCTION STORAGE ROOM < 5 M2-SCH-A ELEC EQUIP,NECB-A-ELECTRIC-EQUIPMENT,SP-STORAGE ROOM < 5 M2-SCH-A-SPACE FUNCTION SYS-4 FLR-4 SCH-A HPLCMT-WEST ZN,1875.00,18.8,1875.681,1.000,100.000,0.000,0.500,0.000,0.500,General,375.136,1688.113
 ElectricEquipment Internal Gains Nominal, SP-STORAGE ROOM < 5 M2-SCH-B-SPACE FUNCTION SYS-4 FLR-3 SCH-B HPLCMT-CORE ZN SPACE FUNCTION STORAGE ROOM < 5 M2-SCH-B ELEC EQUIP,NECB-B-ELECTRIC-EQUIPMENT,SP-STORAGE ROOM < 5 M2-SCH-B-SPACE FUNCTION SYS-4 FLR-3 SCH-B HPLCMT-CORE ZN,2500.00,25.0,2500.909,1.000,100.000,0.000,0.500,0.000,0.500,General,250.091,2250.818
 ElectricEquipment Internal Gains Nominal, SP-STORAGE ROOM < 5 M2-SCH-C-SPACE FUNCTION SYS-4 FLR-4 SCH-C HPLCMT-NORTH ZN SPACE FUNCTION STORAGE ROOM < 5 M2-SCH-C ELEC EQUIP,NECB-C-ELECTRIC-EQUIPMENT,SP-STORAGE ROOM < 5 M2-SCH-C-SPACE FUNCTION SYS-4 FLR-4 SCH-C HPLCMT-NORTH ZN,1875.00,18.8,1875.681,1.000,100.000,0.000,0.500,0.000,0.500,General,93.784,1688.113
 ElectricEquipment Internal Gains Nominal, SP-STORAGE ROOM < 5 M2-SCH-D-SPACE FUNCTION SYS-4 FLR-3 SCH-D HPLCMT-NORTH ZN SPACE FUNCTION STORAGE ROOM < 5 M2-SCH-D ELEC EQUIP,NECB-D-ELECTRIC-EQUIPMENT,SP-STORAGE ROOM < 5 M2-SCH-D-SPACE FUNCTION SYS-4 FLR-3 SCH-D HPLCMT-NORTH ZN,1875.00,18.8,1875.681,1.000,100.000,0.000,0.500,0.000,0.500,General,93.784,1688.113
 ElectricEquipment Internal Gains Nominal, SP-STORAGE ROOM < 5 M2-SCH-E-SPACE FUNCTION SYS-4 FLR-3 SCH-E HPLCMT-WEST ZN SPACE FUNCTION STORAGE ROOM < 5 M2-SCH-E ELEC EQUIP,NECB-E-ELECTRIC-EQUIPMENT,SP-STORAGE ROOM < 5 M2-SCH-E-SPACE FUNCTION SYS-4 FLR-3 SCH-E HPLCMT-WEST ZN,1875.00,18.8,1875.681,1.000,100.000,0.000,0.500,0.000,0.500,General,93.784,1688.113
 ElectricEquipment Internal Gains Nominal, SP-STORAGE ROOM < 5 M2-SCH-F-SPACE FUNCTION SYS-4 FLR-1 SCH-F HPLCMT-SOUTH ZN SPACE FUNCTION STORAGE ROOM < 5 M2-SCH-F ELEC EQUIP,NECB-F-ELECTRIC-EQUIPMENT,SP-STORAGE ROOM < 5 M2-SCH-F-SPACE FUNCTION SYS-4 FLR-1 SCH-F HPLCMT-SOUTH ZN,1875.00,18.8,1875.681,1.000,100.000,0.000,0.500,0.000,0.500,General,131.298,1181.679
 ElectricEquipment Internal Gains Nominal, SP-STORAGE ROOM < 5 M2-SCH-G-SPACE FUNCTION SYS-4 FLR-2 SCH-G HPLCMT-EAST ZN SPACE FUNCTION STORAGE ROOM < 5 M2-SCH-G ELEC EQUIP,NECB-G-ELECTRIC-EQUIPMENT,SP-STORAGE ROOM < 5 M2-SCH-G-SPACE FUNCTION SYS-4 FLR-2 SCH-G HPLCMT-EAST ZN,1875.00,18.8,1875.681,1.000,100.000,0.000,0.500,0.000,0.500,General,375.136,1688.113
 ElectricEquipment Internal Gains Nominal, SP-STORAGE ROOM < 5 M2-SCH-H-SPACE FUNCTION SYS-4 FLR-4 SCH-H HPLCMT-CORE ZN SPACE FUNCTION STORAGE ROOM < 5 M2-SCH-H ELEC EQUIP,NECB-H-ELECTRIC-EQUIPMENT,SP-STORAGE ROOM < 5 M2-SCH-H-SPACE FUNCTION SYS-4 FLR-4 SCH-H HPLCMT-CORE ZN,2500.00,25.0,2500.909,1.000,100.000,0.000,0.500,0.000,0.500,General,2250.818,2250.818
 ElectricEquipment Internal Gains Nominal, SP-STORAGE ROOM < 5 M2-SCH-I-SPACE FUNCTION SYS-4 FLR-2 SCH-I HPLCMT-CORE ZN SPACE FUNCTION STORAGE ROOM < 5 M2-SCH-I ELEC EQUIP,NECB-I-ELECTRIC-EQUIPMENT,SP-STORAGE ROOM < 5 M2-SCH-I-SPACE FUNCTION SYS-4 FLR-2 SCH-I HPLCMT-CORE ZN,2500.00,25.0,2500.909,1.000,100.000,0.000,0.500,0.000,0.500,General,250.091,2000.727
 ElectricEquipment Internal Gains Nominal, SP-STORAGE ROOM < 5 M2-SCH-J-SPACE FUNCTION SYS-4 FLR-1 SCH-J HPLCMT-NORTH ZN SPACE FUNCTION STORAGE ROOM < 5 M2-SCH-J ELEC EQUIP,NECB-J-ELECTRIC-EQUIPMENT,SP-STORAGE ROOM < 5 M2-SCH-J-SPACE FUNCTION SYS-4 FLR-1 SCH-J HPLCMT-NORTH ZN,1875.00,18.8,1875.681,1.000,100.000,0.000,0.500,0.000,0.500,General,187.568,1312.977
 ElectricEquipment Internal Gains Nominal, SP-STORAGE ROOM < 5 M2-SCH-K-SPACE FUNCTION SYS-4 FLR-3 SCH-K HPLCMT-EAST ZN SPACE FUNCTION STORAGE ROOM < 5 M2-SCH-K ELEC EQUIP,NECB-K-ELECTRIC-EQUIPMENT,SP-STORAGE ROOM < 5 M2-SCH-K-SPACE FUNCTION SYS-4 FLR-3 SCH-K HPLCMT-EAST ZN,1875.00,18.8,1875.681,1.000,100.000,0.000,0.500,0.000,0.500,General,0.000,0.000
! <Shadowing/Sun Position Calculations Annual Simulations>, Calculation Method, Value {days}, Allowable Number Figures in Shadow Overlap {}, Polygon Clipping Algorithm, Sky Diffuse Modeling Algorithm, External Shading Calculation Method, Output External Shading Calculation Results, Disable Self-Shading Within Shading Zone Groups, Disable Self-Shading From Shading Zone Groups to Other Zones
Shadowing/Sun Position Calculations Annual Simulations,AverageOverDaysInFrequency,20,15000,SutherlandHodgman,SimpleSkyDiffuseModeling,InternalCalculation,No,No,No
! <Water Heater Information>,Type,Name,Volume {m3},Maximum Capacity {W},Standard Rated Recovery Efficiency, Standard Rated Energy Factor
! <ZoneInfiltration Airflow Stats Nominal>,Name,Schedule Name,Zone Name, Zone Floor Area {m2}, # Zone Occupants,Design Volume Flow Rate {m3/s},Volume Flow Rate/Floor Area {m3/s/m2},Volume Flow Rate/Exterior Surface Area {m3/s/m2},ACH - Air Changes per Hour,Equation A - Constant Term Coefficient {},Equation B - Temperature Term Coefficient {1/C},Equation C - Velocity Term Coefficient {s/m}, Equation D - Velocity Squared Term Coefficient {s2/m2}
 ZoneInfiltration Airflow Stats Nominal, STORAGE GARAGE INTERIOR-SPACE FUNCTION INFILTRATION,ALWAYS ON DISCRETE,SP-STORAGE GARAGE INTERIOR-SPACE FUNCTION SYS-4 FLR-4 SCH-K HPLCMT-SOUTH ZN,1875.00,1.9,0.564,3.007E-004,2.500E-004,0.285,0.000,0.000,0.224,0.000
 ZoneInfiltration Airflow Stats Nominal, STORAGE ROOM < 5 M2-SCH-A-SPACE FUNCTION INFILTRATION,ALWAYS ON DISCRETE,SP-STORAGE ROOM < 5 M2-SCH-A-SPACE FUNCTION SYS-4 FLR-4 SCH-A HPLCMT-WEST ZN,1875.00,18.8,0.564,3.007E-004,2.500E-004,0.285,0.000,0.000,0.224,0.000
 ZoneInfiltration Airflow Stats Nominal, STORAGE ROOM < 5 M2-SCH-C-SPACE FUNCTION INFILTRATION,ALWAYS ON DISCRETE,SP-STORAGE ROOM < 5 M2-SCH-C-SPACE FUNCTION SYS-4 FLR-4 SCH-C HPLCMT-NORTH ZN,1875.00,18.8,0.564,3.007E-004,2.500E-004,0.285,0.000,0.000,0.224,0.000
 ZoneInfiltration Airflow Stats Nominal, STORAGE ROOM < 5 M2-SCH-D-SPACE FUNCTION INFILTRATION,ALWAYS ON DISCRETE,SP-STORAGE ROOM < 5 M2-SCH-D-SPACE FUNCTION SYS-4 FLR-3 SCH-D HPLCMT-NORTH ZN,1875.00,18.8,9.500E-002,5.067E-005,2.500E-004,4.800E-002,0.000,0.000,0.224,0.000
 ZoneInfiltration Airflow Stats Nominal, STORAGE ROOM < 5 M2-SCH-E-SPACE FUNCTION INFILTRATION,ALWAYS ON DISCRETE,SP-STORAGE ROOM < 5 M2-SCH-E-SPACE FUNCTION SYS-4 FLR-3 SCH-E HPLCMT-WEST ZN,1875.00,18.8,9.500E-002,5.067E-005,2.500E-004,4.800E-002,0.000,0.000,0.224,0.000
 ZoneInfiltration Airflow Stats Nominal, STORAGE ROOM < 5 M2-SCH-G-SPACE FUNCTION INFILTRATION,ALWAYS ON DISCRETE,SP-STORAGE ROOM < 5 M2-SCH-G-SPACE FUNCTION SYS-4 FLR-2 SCH-G HPLCMT-EAST ZN,1875.00,18.8,9.500E-002,5.067E-005,2.500E-004,4.800E-002,0.000,0.000,0.224,0.000
 ZoneInfiltration Airflow Stats Nominal, STORAGE ROOM < 5 M2-SCH-H-SPACE FUNCTION INFILTRATION,ALWAYS ON DISCRETE,SP-STORAGE ROOM < 5 M2-SCH-H-SPACE FUNCTION SYS-4 FLR-4 SCH-H HPLCMT-CORE ZN,2500.00,25.0,0.625,2.500E-004,2.500E-004,0.237,0.000,0.000,0.224,0.000
 ZoneInfiltration Airflow Stats Nominal, STORAGE ROOM < 5 M2-SCH-K-SPACE FUNCTION INFILTRATION,ALWAYS ON DISCRETE,SP-STORAGE ROOM < 5 M2-SCH-K-SPACE FUNCTION SYS-4 FLR-3 SCH-K HPLCMT-EAST ZN,1875.00,18.8,9.500E-002,5.067E-005,2.500E-004,4.800E-002,0.000,0.000,0.224,0.000
 ZoneInfiltration Airflow Stats Nominal, STORAGE ROOM <= 5 M2 <= 100 M2-SCH-B-SPACE FUNCTION INFILTRATION,ALWAYS ON DISCRETE,SP-STORAGE ROOM <= 5 M2 <= 100 M2-SCH-B-SPACE FUNCTION SYS-4 FLR-2 SCH-B HPLCMT-WEST ZN,1875.00,18.8,9.500E-002,5.067E-005,2.500E-004,4.800E-002,0.000,0.000,0.224,0.000
 ZoneInfiltration Airflow Stats Nominal, STORAGE ROOM <= 5 M2 <= 100 M2-SCH-E-SPACE FUNCTION INFILTRATION,ALWAYS ON DISCRETE,SP-STORAGE ROOM <= 5 M2 <= 100 M2-SCH-E-SPACE FUNCTION SYS-4 FLR-4 SCH-E HPLCMT-EAST ZN,1875.00,18.8,0.564,3.007E-004,2.500E-004,0.285,0.000,0.000,0.224,0.000
 ZoneInfiltration Airflow Stats Nominal, STORAGE ROOM <= 5 M2 <= 100 M2-SCH-F-SPACE FUNCTION INFILTRATION,ALWAYS ON DISCRETE,SP-STORAGE ROOM <= 5 M2 <= 100 M2-SCH-F-SPACE FUNCTION SYS-4 FLR-2 SCH-F HPLCMT-NORTH ZN,1875.00,18.8,9.500E-002,5.067E-005,2.500E-004,4.800E-002,0.000,0.000,0.224,0.000
 ZoneInfiltration Airflow Stats Nominal, STORAGE ROOM <= 5 M2 <= 100 M2-SCH-G-SPACE FUNCTION INFILTRATION,ALWAYS ON DISCRETE,SP-STORAGE ROOM <= 5 M2 <= 100 M2-SCH-G-SPACE FUNCTION SYS-4 FLR-3 SCH-G HPLCMT-SOUTH ZN,1875.00,18.8,9.500E-002,5.067E-005,2.500E-004,4.800E-002,0.000,0.000,0.224,0.000
 ZoneInfiltration Airflow Stats Nominal, STORAGE ROOM <= 5 M2 <= 100 M2-SCH-H-SPACE FUNCTION INFILTRATION,ALWAYS ON DISCRETE,SP-STORAGE ROOM <= 5 M2 <= 100 M2-SCH-H-SPACE FUNCTION SYS-4 FLR-2 SCH-H HPLCMT-SOUTH ZN,1875.00,18.8,9.500E-002,5.067E-005,2.500E-004,4.800E-002,0.000,0.000,0.224,0.000
! <AirFlow Model>, Simple
 AirFlow Model, Simple
! <RoomAir Model>, Zone Name, Mixing/Mundt/UCSDDV/UCSDCV/UCSDUFI/UCSDUFE/User Defined
RoomAir Model,SP-STORAGE GARAGE INTERIOR-SPACE FUNCTION SYS-4 FLR-4 SCH-K HPLCMT-SOUTH ZN,Mixing/Well-Stirred
RoomAir Model,SP-STORAGE ROOM < 5 M2-SCH-A-SPACE FUNCTION SYS-4 FLR-4 SCH-A HPLCMT-WEST ZN,Mixing/Well-Stirred
RoomAir Model,SP-STORAGE ROOM < 5 M2-SCH-B-SPACE FUNCTION SYS-4 FLR-3 SCH-B HPLCMT-CORE ZN,Mixing/Well-Stirred
RoomAir Model,SP-STORAGE ROOM < 5 M2-SCH-C-SPACE FUNCTION SYS-4 FLR-4 SCH-C HPLCMT-NORTH ZN,Mixing/Well-Stirred
RoomAir Model,SP-STORAGE ROOM < 5 M2-SCH-D-SPACE FUNCTION SYS-4 FLR-3 SCH-D HPLCMT-NORTH ZN,Mixing/Well-Stirred
RoomAir Model,SP-STORAGE ROOM < 5 M2-SCH-E-SPACE FUNCTION SYS-4 FLR-3 SCH-E HPLCMT-WEST ZN,Mixing/Well-Stirred
RoomAir Model,SP-STORAGE ROOM < 5 M2-SCH-F-SPACE FUNCTION SYS-4 FLR-1 SCH-F HPLCMT-SOUTH ZN,Mixing/Well-Stirred
RoomAir Model,SP-STORAGE ROOM < 5 M2-SCH-G-SPACE FUNCTION SYS-4 FLR-2 SCH-G HPLCMT-EAST ZN,Mixing/Well-Stirred
RoomAir Model,SP-STORAGE ROOM < 5 M2-SCH-H-SPACE FUNCTION SYS-4 FLR-4 SCH-H HPLCMT-CORE ZN,Mixing/Well-Stirred
RoomAir Model,SP-STORAGE ROOM < 5 M2-SCH-I-SPACE FUNCTION SYS-4 FLR-2 SCH-I HPLCMT-CORE ZN,Mixing/Well-Stirred
RoomAir Model,SP-STORAGE ROOM < 5 M2-SCH-J-SPACE FUNCTION SYS-4 FLR-1 SCH-J HPLCMT-NORTH ZN,Mixing/Well-Stirred
RoomAir Model,SP-STORAGE ROOM < 5 M2-SCH-K-SPACE FUNCTION SYS-4 FLR-3 SCH-K HPLCMT-EAST ZN,Mixing/Well-Stirred
RoomAir Model,SP-STORAGE ROOM <= 5 M2 <= 100 M2-SCH-A-SPACE FUNCTION SYS-4 FLR-1 SCH-A HPLCMT-EAST ZN,Mixing/Well-Stirred
RoomAir Model,SP-STORAGE ROOM <= 5 M2 <= 100 M2-SCH-B-SPACE FUNCTION SYS-4 FLR-2 SCH-B HPLCMT-WEST ZN,Mixing/Well-Stirred
RoomAir Model,SP-STORAGE ROOM <= 5 M2 <= 100 M2-SCH-C-SPACE FUNCTION SYS-4 FLR-1 SCH-C HPLCMT-WEST ZN,Mixing/Well-Stirred
RoomAir Model,SP-STORAGE ROOM <= 5 M2 <= 100 M2-SCH-D-SPACE FUNCTION SYS-4 FLR-1 SCH-D HPLCMT-CORE ZN,Mixing/Well-Stirred
RoomAir Model,SP-STORAGE ROOM <= 5 M2 <= 100 M2-SCH-E-SPACE FUNCTION SYS-4 FLR-4 SCH-E HPLCMT-EAST ZN,Mixing/Well-Stirred
RoomAir Model,SP-STORAGE ROOM <= 5 M2 <= 100 M2-SCH-F-SPACE FUNCTION SYS-4 FLR-2 SCH-F HPLCMT-NORTH ZN,Mixing/Well-Stirred
RoomAir Model,SP-STORAGE ROOM <= 5 M2 <= 100 M2-SCH-G-SPACE FUNCTION SYS-4 FLR-3 SCH-G HPLCMT-SOUTH ZN,Mixing/Well-Stirred
RoomAir Model,SP-STORAGE ROOM <= 5 M2 <= 100 M2-SCH-H-SPACE FUNCTION SYS-4 FLR-2 SCH-H HPLCMT-SOUTH ZN,Mixing/Well-Stirred
! <AirflowNetwork Model:Control>, No Multizone or Distribution/Multizone with Distribution/Multizone without Distribution/Multizone with Distribution only during Fan Operation
AirflowNetwork Model:Control,NoMultizoneOrDistribution
! <Zone Volume Capacitance Multiplier>, Sensible Heat Capacity Multiplier, Moisture Capacity Multiplier, Carbon Dioxide Capacity Multiplier, Generic Contaminant Capacity Multiplier
Zone Volume Capacitance Multiplier,   1.000 ,   1.000,   1.000,   1.000
! <Load Timesteps in Zone Design Calculation Averaging Window>, Value
 Load Timesteps in Zone Design Calculation Averaging Window,    6
! <Heating Sizing Factor Information>, Sizing Factor ID, Value
 Heating Sizing Factor Information, Global,   1.3000    
 Heating Sizing Factor Information, Zone SP-STORAGE GARAGE INTERIOR-SPACE FUNCTION SYS-4 FLR-4 SCH-K HPLCMT-SOUTH ZN,   1.3000    
 Heating Sizing Factor Information, Zone SP-STORAGE ROOM < 5 M2-SCH-A-SPACE FUNCTION SYS-4 FLR-4 SCH-A HPLCMT-WEST ZN,   1.3000    
 Heating Sizing Factor Information, Zone SP-STORAGE ROOM < 5 M2-SCH-B-SPACE FUNCTION SYS-4 FLR-3 SCH-B HPLCMT-CORE ZN,   1.3000    
 Heating Sizing Factor Information, Zone SP-STORAGE ROOM < 5 M2-SCH-C-SPACE FUNCTION SYS-4 FLR-4 SCH-C HPLCMT-NORTH ZN,   1.3000    
 Heating Sizing Factor Information, Zone SP-STORAGE ROOM < 5 M2-SCH-D-SPACE FUNCTION SYS-4 FLR-3 SCH-D HPLCMT-NORTH ZN,   1.3000    
 Heating Sizing Factor Information, Zone SP-STORAGE ROOM < 5 M2-SCH-E-SPACE FUNCTION SYS-4 FLR-3 SCH-E HPLCMT-WEST ZN,   1.3000    
 Heating Sizing Factor Information, Zone SP-STORAGE ROOM < 5 M2-SCH-F-SPACE FUNCTION SYS-4 FLR-1 SCH-F HPLCMT-SOUTH ZN,   1.3000    
 Heating Sizing Factor Information, Zone SP-STORAGE ROOM < 5 M2-SCH-G-SPACE FUNCTION SYS-4 FLR-2 SCH-G HPLCMT-EAST ZN,   1.3000    
 Heating Sizing Factor Information, Zone SP-STORAGE ROOM < 5 M2-SCH-H-SPACE FUNCTION SYS-4 FLR-4 SCH-H HPLCMT-CORE ZN,   1.3000    
 Heating Sizing Factor Information, Zone SP-STORAGE ROOM < 5 M2-SCH-I-SPACE FUNCTION SYS-4 FLR-2 SCH-I HPLCMT-CORE ZN,   1.3000    
 Heating Sizing Factor Information, Zone SP-STORAGE ROOM < 5 M2-SCH-J-SPACE FUNCTION SYS-4 FLR-1 SCH-J HPLCMT-NORTH ZN,   1.3000    
 Heating Sizing Factor Information, Zone SP-STORAGE ROOM < 5 M2-SCH-K-SPACE FUNCTION SYS-4 FLR-3 SCH-K HPLCMT-EAST ZN,   1.3000    
 Heating Sizing Factor Information, Zone SP-STORAGE ROOM <= 5 M2 <= 100 M2-SCH-A-SPACE FUNCTION SYS-4 FLR-1 SCH-A HPLCMT-EAST ZN,   1.3000    
 Heating Sizing Factor Information, Zone SP-STORAGE ROOM <= 5 M2 <= 100 M2-SCH-B-SPACE FUNCTION SYS-4 FLR-2 SCH-B HPLCMT-WEST ZN,   1.3000    
 Heating Sizing Factor Information, Zone SP-STORAGE ROOM <= 5 M2 <= 100 M2-SCH-C-SPACE FUNCTION SYS-4 FLR-1 SCH-C HPLCMT-WEST ZN,   1.3000    
 Heating Sizing Factor Information, Zone SP-STORAGE ROOM <= 5 M2 <= 100 M2-SCH-D-SPACE FUNCTION SYS-4 FLR-1 SCH-D HPLCMT-CORE ZN,   1.3000    
 Heating Sizing Factor Information, Zone SP-STORAGE ROOM <= 5 M2 <= 100 M2-SCH-E-SPACE FUNCTION SYS-4 FLR-4 SCH-E HPLCMT-EAST ZN,   1.3000    
 Heating Sizing Factor Information, Zone SP-STORAGE ROOM <= 5 M2 <= 100 M2-SCH-F-SPACE FUNCTION SYS-4 FLR-2 SCH-F HPLCMT-NORTH ZN,   1.3000    
 Heating Sizing Factor Information, Zone SP-STORAGE ROOM <= 5 M2 <= 100 M2-SCH-G-SPACE FUNCTION SYS-4 FLR-3 SCH-G HPLCMT-SOUTH ZN,   1.3000    
 Heating Sizing Factor Information, Zone SP-STORAGE ROOM <= 5 M2 <= 100 M2-SCH-H-SPACE FUNCTION SYS-4 FLR-2 SCH-H HPLCMT-SOUTH ZN,   1.3000    
! <Cooling Sizing Factor Information>, Sizing Factor ID, Value
 Cooling Sizing Factor Information, Global,   1.1000    
 Cooling Sizing Factor Information, Zone SP-STORAGE GARAGE INTERIOR-SPACE FUNCTION SYS-4 FLR-4 SCH-K HPLCMT-SOUTH ZN,   1.1000    
 Cooling Sizing Factor Information, Zone SP-STORAGE ROOM < 5 M2-SCH-A-SPACE FUNCTION SYS-4 FLR-4 SCH-A HPLCMT-WEST ZN,   1.1000    
 Cooling Sizing Factor Information, Zone SP-STORAGE ROOM < 5 M2-SCH-B-SPACE FUNCTION SYS-4 FLR-3 SCH-B HPLCMT-CORE ZN,   1.1000    
 Cooling Sizing Factor Information, Zone SP-STORAGE ROOM < 5 M2-SCH-C-SPACE FUNCTION SYS-4 FLR-4 SCH-C HPLCMT-NORTH ZN,   1.1000    
 Cooling Sizing Factor Information, Zone SP-STORAGE ROOM < 5 M2-SCH-D-SPACE FUNCTION SYS-4 FLR-3 SCH-D HPLCMT-NORTH ZN,   1.1000    
 Cooling Sizing Factor Information, Zone SP-STORAGE ROOM < 5 M2-SCH-E-SPACE FUNCTION SYS-4 FLR-3 SCH-E HPLCMT-WEST ZN,   1.1000    
 Cooling Sizing Factor Information, Zone SP-STORAGE ROOM < 5 M2-SCH-F-SPACE FUNCTION SYS-4 FLR-1 SCH-F HPLCMT-SOUTH ZN,   1.1000    
 Cooling Sizing Factor Information, Zone SP-STORAGE ROOM < 5 M2-SCH-G-SPACE FUNCTION SYS-4 FLR-2 SCH-G HPLCMT-EAST ZN,   1.1000    
 Cooling Sizing Factor Information, Zone SP-STORAGE ROOM < 5 M2-SCH-H-SPACE FUNCTION SYS-4 FLR-4 SCH-H HPLCMT-CORE ZN,   1.1000    
 Cooling Sizing Factor Information, Zone SP-STORAGE ROOM < 5 M2-SCH-I-SPACE FUNCTION SYS-4 FLR-2 SCH-I HPLCMT-CORE ZN,   1.1000    
 Cooling Sizing Factor Information, Zone SP-STORAGE ROOM < 5 M2-SCH-J-SPACE FUNCTION SYS-4 FLR-1 SCH-J HPLCMT-NORTH ZN,   1.1000    
 Cooling Sizing Factor Information, Zone SP-STORAGE ROOM < 5 M2-SCH-K-SPACE FUNCTION SYS-4 FLR-3 SCH-K HPLCMT-EAST ZN,   1.1000    
 Cooling Sizing Factor Information, Zone SP-STORAGE ROOM <= 5 M2 <= 100 M2-SCH-A-SPACE FUNCTION SYS-4 FLR-1 SCH-A HPLCMT-EAST ZN,   1.1000    
 Cooling Sizing Factor Information, Zone SP-STORAGE ROOM <= 5 M2 <= 100 M2-SCH-B-SPACE FUNCTION SYS-4 FLR-2 SCH-B HPLCMT-WEST ZN,   1.1000    
 Cooling Sizing Factor Information, Zone SP-STORAGE ROOM <= 5 M2 <= 100 M2-SCH-C-SPACE FUNCTION SYS-4 FLR-1 SCH-C HPLCMT-WEST ZN,   1.1000    
 Cooling Sizing Factor Information, Zone SP-STORAGE ROOM <= 5 M2 <= 100 M2-SCH-D-SPACE FUNCTION SYS-4 FLR-1 SCH-D HPLCMT-CORE ZN,   1.1000    
 Cooling Sizing Factor Information, Zone SP-STORAGE ROOM <= 5 M2 <= 100 M2-SCH-E-SPACE FUNCTION SYS-4 FLR-4 SCH-E HPLCMT-EAST ZN,   1.1000    
 Cooling Sizing Factor Information, Zone SP-STORAGE ROOM <= 5 M2 <= 100 M2-SCH-F-SPACE FUNCTION SYS-4 FLR-2 SCH-F HPLCMT-NORTH ZN,   1.1000    
 Cooling Sizing Factor Information, Zone SP-STORAGE ROOM <= 5 M2 <= 100 M2-SCH-G-SPACE FUNCTION SYS-4 FLR-3 SCH-G HPLCMT-SOUTH ZN,   1.1000    
 Cooling Sizing Factor Information, Zone SP-STORAGE ROOM <= 5 M2 <= 100 M2-SCH-H-SPACE FUNCTION SYS-4 FLR-2 SCH-H HPLCMT-SOUTH ZN,   1.1000    
! <Zone Sizing Information>, Zone Name, Load Type, Calc Des Load {W}, User Des Load {W}, Calc Des Air Flow Rate {m3/s}, User Des Air Flow Rate {m3/s}, Design Day Name, Date/Time of Peak, Temperature at Peak {C}, Humidity Ratio at Peak {kgWater/kgDryAir}, Floor Area {m2}, # Occupants, Calc Outdoor Air Flow Rate {m3/s}, Calc DOAS Heat Addition Rate {W}
 Zone Sizing Information, SP-STORAGE GARAGE INTERIOR-SPACE FUNCTION SYS-4 FLR-4 SCH-K HPLCMT-SOUTH ZN, Cooling, 0.00000, 0.00000, 0.00000, 7.14375, FORT MCMURRAY AP ANN CLG .4% CONDNS DB=>MWB, , 28.90000, 8.76969E-003, 1875.00000, 1.87568, 7.14375, 0.00000
 Zone Sizing Information, SP-STORAGE GARAGE INTERIOR-SPACE FUNCTION SYS-4 FLR-4 SCH-K HPLCMT-SOUTH ZN, Heating, 0.00000, 0.00000, 0.00000, 7.14375, FORT MCMURRAY AP ANN HTG 99.6% CONDNS DB, , -36.20000, 1.25811E-004, 1875.00000, 1.87568, 7.14375, 0.00000
 Zone Sizing Information, SP-STORAGE ROOM < 5 M2-SCH-A-SPACE FUNCTION SYS-4 FLR-4 SCH-A HPLCMT-WEST ZN, Cooling, 59875.05680, 65862.56248, 4.62741, 5.09015, FORT MCMURRAY AP ANN CLG .4% CONDNS DB=>MWB, 7/21 16:40:00, 27.49467, 8.76969E-003, 1875.00000, 18.75681, 0.66675, 0.00000
 Zone Sizing Information, SP-STORAGE ROOM < 5 M2-SCH-A-SPACE FUNCTION SYS-4 FLR-4 SCH-A HPLCMT-WEST ZN, Heating, 48913.45422, 63587.49049, 1.95007, 2.53510, FORT MCMURRAY AP ANN HTG 99.6% CONDNS DB, 1/21 08:00:00, -36.20000, 1.25811E-004, 1875.00000, 18.75681, 0.66675, 0.00000
 Zone Sizing Information, SP-STORAGE ROOM < 5 M2-SCH-B-SPACE FUNCTION SYS-4 FLR-3 SCH-B HPLCMT-CORE ZN, Cooling, 28129.60869, 30942.56956, 2.01611, 2.21772, FORT MCMURRAY AP ANN CLG .4% CONDNS DB=>MWB, 7/21 09:00:00, 22.08000, 8.76969E-003, 2500.00000, 25.00909, 0.88900, 0.00000
 Zone Sizing Information, SP-STORAGE ROOM < 5 M2-SCH-B-SPACE FUNCTION SYS-4 FLR-3 SCH-B HPLCMT-CORE ZN, Heating, 0.00000, 0.00000, 0.00000, 0.88900, FORT MCMURRAY AP ANN HTG 99.6% CONDNS DB, , -36.20000, 1.25811E-004, 2500.00000, 25.00909, 0.88900, 0.00000
 Zone Sizing Information, SP-STORAGE ROOM < 5 M2-SCH-C-SPACE FUNCTION SYS-4 FLR-4 SCH-C HPLCMT-NORTH ZN, Cooling, 41294.30465, 45423.73512, 3.19139, 3.51052, FORT MCMURRAY AP ANN CLG .4% CONDNS DB=>MWB, 7/21 14:10:00, 28.90000, 8.76969E-003, 1875.00000, 18.75681, 0.66675, 0.00000
 Zone Sizing Information, SP-STORAGE ROOM < 5 M2-SCH-C-SPACE FUNCTION SYS-4 FLR-4 SCH-C HPLCMT-NORTH ZN, Heating, 45231.35741, 58800.76464, 1.80118, 2.34154, FORT MCMURRAY AP ANN HTG 99.6% CONDNS DB, 1/21 09:00:00, -36.20000, 1.25811E-004, 1875.00000, 18.75681, 0.66675, 0.00000
 Zone Sizing Information, SP-STORAGE ROOM < 5 M2-SCH-D-SPACE FUNCTION SYS-4 FLR-3 SCH-D HPLCMT-NORTH ZN, Cooling, 22599.57590, 24859.53349, 1.74659, 1.92125, FORT MCMURRAY AP ANN CLG .4% CONDNS DB=>MWB, 7/21 16:00:00, 28.15600, 8.76969E-003, 1875.00000, 18.75681, 0.66675, 0.00000
 Zone Sizing Information, SP-STORAGE ROOM < 5 M2-SCH-D-SPACE FUNCTION SYS-4 FLR-3 SCH-D HPLCMT-NORTH ZN, Heating, 29428.76514, 38257.39468, 1.16227, 1.51095, FORT MCMURRAY AP ANN HTG 99.6% CONDNS DB, 1/21 09:00:00, -36.20000, 1.25811E-004, 1875.00000, 18.75681, 0.66675, 0.00000
 Zone Sizing Information, SP-STORAGE ROOM < 5 M2-SCH-E-SPACE FUNCTION SYS-4 FLR-3 SCH-E HPLCMT-WEST ZN, Cooling, 41557.82223, 45713.60445, 3.21176, 3.53294, FORT MCMURRAY AP ANN CLG .4% CONDNS DB=>MWB, 7/21 18:00:00, 25.92400, 8.76969E-003, 1875.00000, 18.75681, 0.66675, 0.00000
 Zone Sizing Information, SP-STORAGE ROOM < 5 M2-SCH-E-SPACE FUNCTION SYS-4 FLR-3 SCH-E HPLCMT-WEST ZN, Heating, 29834.34990, 38784.65487, 1.17871, 1.53232, FORT MCMURRAY AP ANN HTG 99.6% CONDNS DB, 1/21 09:00:00, -36.20000, 1.25811E-004, 1875.00000, 18.75681, 0.66675, 0.00000
 Zone Sizing Information, SP-STORAGE ROOM < 5 M2-SCH-F-SPACE FUNCTION SYS-4 FLR-1 SCH-F HPLCMT-SOUTH ZN, Cooling, 8318.47030, 9150.31733, 0.64288, 0.70717, FORT MCMURRAY AP ANN CLG .4% CONDNS DB=>MWB, 7/21 24:00:00, 18.73200, 8.76969E-003, 1875.00000, 18.75681, 0.66675, 0.00000
 Zone Sizing Information, SP-STORAGE ROOM < 5 M2-SCH-F-SPACE FUNCTION SYS-4 FLR-1 SCH-F HPLCMT-SOUTH ZN, Heating, 1238.01237, 1609.41608, 5.01628E-002, 0.66675, FORT MCMURRAY AP ANN HTG 99.6% CONDNS DB, 1/21 16:00:00, -36.20000, 1.25811E-004, 1875.00000, 18.75681, 0.66675, 0.00000
 Zone Sizing Information, SP-STORAGE ROOM < 5 M2-SCH-G-SPACE FUNCTION SYS-4 FLR-2 SCH-G HPLCMT-EAST ZN, Cooling, 28508.97401, 31359.87141, 2.20329, 2.42362, FORT MCMURRAY AP ANN CLG .4% CONDNS DB=>MWB, 7/21 08:10:00, 20.11667, 8.76969E-003, 1875.00000, 18.75681, 0.66675, 0.00000
 Zone Sizing Information, SP-STORAGE ROOM < 5 M2-SCH-G-SPACE FUNCTION SYS-4 FLR-2 SCH-G HPLCMT-EAST ZN, Heating, 13446.67935, 17480.68316, 0.53291, 0.69278, FORT MCMURRAY AP ANN HTG 99.6% CONDNS DB, 1/21 09:00:00, -36.20000, 1.25811E-004, 1875.00000, 18.75681, 0.66675, 0.00000
 Zone Sizing Information, SP-STORAGE ROOM < 5 M2-SCH-H-SPACE FUNCTION SYS-4 FLR-4 SCH-H HPLCMT-CORE ZN, Cooling, 50700.38068, 55770.41875, 3.91835, 4.31018, FORT MCMURRAY AP ANN CLG .4% CONDNS DB=>MWB, 7/21 14:00:00, 28.90000, 8.76969E-003, 2500.00000, 25.00909, 0.88900, 0.00000
 Zone Sizing Information, SP-STORAGE ROOM < 5 M2-SCH-H-SPACE FUNCTION SYS-4 FLR-4 SCH-H HPLCMT-CORE ZN, Heating, 20778.00190, 27011.40247, 0.81185, 1.05541, FORT MCMURRAY AP ANN HTG 99.6% CONDNS DB, 1/21 09:00:00, -36.20000, 1.25811E-004, 2500.00000, 25.00909, 0.88900, 0.00000
 Zone Sizing Information, SP-STORAGE ROOM < 5 M2-SCH-I-SPACE FUNCTION SYS-4 FLR-2 SCH-I HPLCMT-CORE ZN, Cooling, 21639.40497, 23803.34546, 1.57312, 1.73043, FORT MCMURRAY AP ANN CLG .4% CONDNS DB=>MWB, 7/21 15:00:00, 28.90000, 8.76969E-003, 2500.00000, 25.00909, 0.88900, 0.00000
 Zone Sizing Information, SP-STORAGE ROOM < 5 M2-SCH-I-SPACE FUNCTION SYS-4 FLR-2 SCH-I HPLCMT-CORE ZN, Heating, 0.00000, 0.00000, 0.00000, 0.88900, FORT MCMURRAY AP ANN HTG 99.6% CONDNS DB, , -36.20000, 1.25811E-004, 2500.00000, 25.00909, 0.88900, 0.00000
 Zone Sizing Information, SP-STORAGE ROOM < 5 M2-SCH-J-SPACE FUNCTION SYS-4 FLR-1 SCH-J HPLCMT-NORTH ZN, Cooling, 10998.79250, 12098.67175, 0.85003, 0.93503, FORT MCMURRAY AP ANN CLG .4% CONDNS DB=>MWB, 7/21 22:00:00, 20.46800, 8.76969E-003, 1875.00000, 18.75681, 0.66675, 0.00000
 Zone Sizing Information, SP-STORAGE ROOM < 5 M2-SCH-J-SPACE FUNCTION SYS-4 FLR-1 SCH-J HPLCMT-NORTH ZN, Heating, 0.00000, 0.00000, 0.00000, 0.66675, FORT MCMURRAY AP ANN HTG 99.6% CONDNS DB, , -36.20000, 1.25811E-004, 1875.00000, 18.75681, 0.66675, 0.00000
 Zone Sizing Information, SP-STORAGE ROOM < 5 M2-SCH-K-SPACE FUNCTION SYS-4 FLR-3 SCH-K HPLCMT-EAST ZN, Cooling, 0.00000, 0.00000, 0.00000, 0.66675, FORT MCMURRAY AP ANN CLG .4% CONDNS DB=>MWB, , 28.90000, 8.76969E-003, 1875.00000, 18.75681, 0.66675, 0.00000
 Zone Sizing Information, SP-STORAGE ROOM < 5 M2-SCH-K-SPACE FUNCTION SYS-4 FLR-3 SCH-K HPLCMT-EAST ZN, Heating, 0.00000, 0.00000, 0.00000, 0.66675, FORT MCMURRAY AP ANN HTG 99.6% CONDNS DB, , -36.20000, 1.25811E-004, 1875.00000, 18.75681, 0.66675, 0.00000
 Zone Sizing Information, SP-STORAGE ROOM <= 5 M2 <= 100 M2-SCH-A-SPACE FUNCTION SYS-4 FLR-1 SCH-A HPLCMT-EAST ZN, Cooling, 11995.58975, 13195.14872, 0.92707, 1.01978, FORT MCMURRAY AP ANN CLG .4% CONDNS DB=>MWB, 7/21 12:00:00, 27.28800, 8.76969E-003, 1875.00000, 18.75681, 0.66675, 0.00000
 Zone Sizing Information, SP-STORAGE ROOM <= 5 M2 <= 100 M2-SCH-A-SPACE FUNCTION SYS-4 FLR-1 SCH-A HPLCMT-EAST ZN, Heating, 2738.60864, 3560.19124, 0.10968, 0.66675, FORT MCMURRAY AP ANN HTG 99.6% CONDNS DB, 1/21 08:00:00, -36.20000, 1.25811E-004, 1875.00000, 18.75681, 0.66675, 0.00000
 Zone Sizing Information, SP-STORAGE ROOM <= 5 M2 <= 100 M2-SCH-B-SPACE FUNCTION SYS-4 FLR-2 SCH-B HPLCMT-WEST ZN, Cooling, 30618.91738, 33680.80911, 2.36633, 2.60296, FORT MCMURRAY AP ANN CLG .4% CONDNS DB=>MWB, 7/21 18:20:00, 25.30400, 8.76968E-003, 1875.00000, 18.75681, 0.66675, 0.00000
 Zone Sizing Information, SP-STORAGE ROOM <= 5 M2 <= 100 M2-SCH-B-SPACE FUNCTION SYS-4 FLR-2 SCH-B HPLCMT-WEST ZN, Heating, 21169.18321, 27519.93817, 0.82733, 1.07553, FORT MCMURRAY AP ANN HTG 99.6% CONDNS DB, 1/21 10:00:00, -36.20000, 1.25811E-004, 1875.00000, 18.75681, 0.66675, 0.00000
 Zone Sizing Information, SP-STORAGE ROOM <= 5 M2 <= 100 M2-SCH-C-SPACE FUNCTION SYS-4 FLR-1 SCH-C HPLCMT-WEST ZN, Cooling, 12419.92410, 13661.91651, 0.90730, 0.99804, FORT MCMURRAY AP ANN CLG .4% CONDNS DB=>MWB, 7/21 08:00:00, 19.72400, 8.76969E-003, 1875.00000, 18.75681, 0.66675, 0.00000
 Zone Sizing Information, SP-STORAGE ROOM <= 5 M2 <= 100 M2-SCH-C-SPACE FUNCTION SYS-4 FLR-1 SCH-C HPLCMT-WEST ZN, Heating, 2695.98942, 3504.78624, 0.10755, 0.66675, FORT MCMURRAY AP ANN HTG 99.6% CONDNS DB, 1/21 08:40:00, -36.20000, 1.25811E-004, 1875.00000, 18.75681, 0.66675, 0.00000
 Zone Sizing Information, SP-STORAGE ROOM <= 5 M2 <= 100 M2-SCH-D-SPACE FUNCTION SYS-4 FLR-1 SCH-D HPLCMT-CORE ZN, Cooling, 12343.42914, 13577.77205, 0.95395, 1.04935, FORT MCMURRAY AP ANN CLG .4% CONDNS DB=>MWB, 7/21 16:00:00, 28.15600, 8.76969E-003, 2500.00000, 25.00909, 0.88900, 0.00000
 Zone Sizing Information, SP-STORAGE ROOM <= 5 M2 <= 100 M2-SCH-D-SPACE FUNCTION SYS-4 FLR-1 SCH-D HPLCMT-CORE ZN, Heating, 0.00000, 0.00000, 0.00000, 0.88900, FORT MCMURRAY AP ANN HTG 99.6% CONDNS DB, , -36.20000, 1.25811E-004, 2500.00000, 25.00909, 0.88900, 0.00000
 Zone Sizing Information, SP-STORAGE ROOM <= 5 M2 <= 100 M2-SCH-E-SPACE FUNCTION SYS-4 FLR-4 SCH-E HPLCMT-EAST ZN, Cooling, 62250.89288, 68475.98217, 4.33617, 4.76979, FORT MCMURRAY AP ANN CLG .4% CONDNS DB=>MWB, 7/21 08:00:00, 19.72400, 8.76969E-003, 1875.00000, 18.75681, 0.66675, 0.00000
 Zone Sizing Information, SP-STORAGE ROOM <= 5 M2 <= 100 M2-SCH-E-SPACE FUNCTION SYS-4 FLR-4 SCH-E HPLCMT-EAST ZN, Heating, 45301.58820, 58892.06466, 1.80405, 2.34526, FORT MCMURRAY AP ANN HTG 99.6% CONDNS DB, 1/21 09:00:00, -36.20000, 1.25811E-004, 1875.00000, 18.75681, 0.66675, 0.00000
 Zone Sizing Information, SP-STORAGE ROOM <= 5 M2 <= 100 M2-SCH-F-SPACE FUNCTION SYS-4 FLR-2 SCH-F HPLCMT-NORTH ZN, Cooling, 11333.82692, 12467.20961, 0.87591, 0.96351, FORT MCMURRAY AP ANN CLG .4% CONDNS DB=>MWB, 7/21 20:40:00, 21.95600, 8.76969E-003, 1875.00000, 18.75681, 0.66675, 0.00000
 Zone Sizing Information, SP-STORAGE ROOM <= 5 M2 <= 100 M2-SCH-F-SPACE FUNCTION SYS-4 FLR-2 SCH-F HPLCMT-NORTH ZN, Heating, 18899.39460, 24569.21298, 0.74049, 0.96263, FORT MCMURRAY AP ANN HTG 99.6% CONDNS DB, 1/21 09:00:00, -36.20000, 1.25811E-004, 1875.00000, 18.75681, 0.66675, 0.00000
 Zone Sizing Information, SP-STORAGE ROOM <= 5 M2 <= 100 M2-SCH-G-SPACE FUNCTION SYS-4 FLR-3 SCH-G HPLCMT-SOUTH ZN, Cooling, 20738.22585, 22812.04843, 1.60272, 1.76299, FORT MCMURRAY AP ANN CLG .4% CONDNS DB=>MWB, 7/21 13:50:00, 28.79667, 8.76969E-003, 1875.00000, 18.75681, 0.66675, 0.00000
 Zone Sizing Information, SP-STORAGE ROOM <= 5 M2 <= 100 M2-SCH-G-SPACE FUNCTION SYS-4 FLR-3 SCH-G HPLCMT-SOUTH ZN, Heating, 35640.75124, 46332.97661, 1.41401, 1.83822, FORT MCMURRAY AP ANN HTG 99.6% CONDNS DB, 1/21 09:00:00, -36.20000, 1.25811E-004, 1875.00000, 18.75681, 0.66675, 0.00000
 Zone Sizing Information, SP-STORAGE ROOM <= 5 M2 <= 100 M2-SCH-H-SPACE FUNCTION SYS-4 FLR-2 SCH-H HPLCMT-SOUTH ZN, Cooling, 23174.27023, 25491.69725, 1.79101, 1.97011, FORT MCMURRAY AP ANN CLG .4% CONDNS DB=>MWB, 7/21 13:40:00, 28.69333, 8.76969E-003, 1875.00000, 18.75681, 0.66675, 0.00000
 Zone Sizing Information, SP-STORAGE ROOM <= 5 M2 <= 100 M2-SCH-H-SPACE FUNCTION SYS-4 FLR-2 SCH-H HPLCMT-SOUTH ZN, Heating, 14090.54666, 18317.71065, 0.55772, 0.72504, FORT MCMURRAY AP ANN HTG 99.6% CONDNS DB, 1/21 09:00:00, -36.20000, 1.25811E-004, 1875.00000, 18.75681, 0.66675, 0.00000
! <System Sizing Information>, System Name, Load Type, Peak Load Kind, User Design Capacity, Calc Des Air Flow Rate [m3/s], User Des Air Flow Rate [m3/s], Design Day Name, Date/Time of Peak
 System Sizing Information, SYS_4_PSZ_SP-STORAGE GARAGE INTERIOR-SPACE FUNCTION SYS-4 FLR-4 SCH-K HPLCMT-SOUTH ZN, Cooling, Sensible, 131547.16, 7.14375, 7.14375, FORT MCMURRAY AP ANN CLG .4% CONDNS DB=>MWB, 7/21 05:00:00
 System Sizing Information, SYS_4_PSZ_SP-STORAGE GARAGE INTERIOR-SPACE FUNCTION SYS-4 FLR-4 SCH-K HPLCMT-SOUTH ZN, Heating, Sensible, 655253.80, 7.14375, 7.14375, FORT MCMURRAY AP ANN HTG 99.6% CONDNS DB, 1/21 00:10:00
 System Sizing Information, SYS_4_PSZ_SP-STORAGE ROOM < 5 M2-SCH-A-SPACE FUNCTION SYS-4 FLR-4 SCH-A HPLCMT-WEST ZN, Cooling, Sensible, 67542.85, 5.09015, 5.09015, FORT MCMURRAY AP ANN CLG .4% CONDNS DB=>MWB, 7/21 05:00:00
 System Sizing Information, SYS_4_PSZ_SP-STORAGE ROOM < 5 M2-SCH-A-SPACE FUNCTION SYS-4 FLR-4 SCH-A HPLCMT-WEST ZN, Heating, Sensible, 106978.19, 2.53510, 2.53510, FORT MCMURRAY AP ANN HTG 99.6% CONDNS DB, 1/21 08:00:00
 System Sizing Information, SYS_4_PSZ_SP-STORAGE ROOM < 5 M2-SCH-B-SPACE FUNCTION SYS-4 FLR-3 SCH-B HPLCMT-CORE ZN, Cooling, Sensible, 26117.12, 2.21772, 2.21772, FORT MCMURRAY AP ANN CLG .4% CONDNS DB=>MWB, 7/21 05:00:00
 System Sizing Information, SYS_4_PSZ_SP-STORAGE ROOM < 5 M2-SCH-B-SPACE FUNCTION SYS-4 FLR-3 SCH-B HPLCMT-CORE ZN, Heating, Sensible, 81542.70, 0.88900, 0.88900, FORT MCMURRAY AP ANN HTG 99.6% CONDNS DB, 1/21 00:10:00
 System Sizing Information, SYS_4_PSZ_SP-STORAGE ROOM < 5 M2-SCH-C-SPACE FUNCTION SYS-4 FLR-4 SCH-C HPLCMT-NORTH ZN, Cooling, Sensible, 48505.19, 3.51052, 3.51052, FORT MCMURRAY AP ANN CLG .4% CONDNS DB=>MWB, 7/21 05:00:00
 System Sizing Information, SYS_4_PSZ_SP-STORAGE ROOM < 5 M2-SCH-C-SPACE FUNCTION SYS-4 FLR-4 SCH-C HPLCMT-NORTH ZN, Heating, Sensible, 102225.23, 2.34154, 2.34154, FORT MCMURRAY AP ANN HTG 99.6% CONDNS DB, 1/21 09:00:00
 System Sizing Information, SYS_4_PSZ_SP-STORAGE ROOM < 5 M2-SCH-D-SPACE FUNCTION SYS-4 FLR-3 SCH-D HPLCMT-NORTH ZN, Cooling, Sensible, 27684.50, 1.92125, 1.92125, FORT MCMURRAY AP ANN CLG .4% CONDNS DB=>MWB, 7/21 05:00:00
 System Sizing Information, SYS_4_PSZ_SP-STORAGE ROOM < 5 M2-SCH-D-SPACE FUNCTION SYS-4 FLR-3 SCH-D HPLCMT-NORTH ZN, Heating, Sensible, 81984.07, 1.51095, 1.51095, FORT MCMURRAY AP ANN HTG 99.6% CONDNS DB, 1/21 09:00:00
 System Sizing Information, SYS_4_PSZ_SP-STORAGE ROOM < 5 M2-SCH-E-SPACE FUNCTION SYS-4 FLR-3 SCH-E HPLCMT-WEST ZN, Cooling, Sensible, 46492.58, 3.53294, 3.53294, FORT MCMURRAY AP ANN CLG .4% CONDNS DB=>MWB, 7/21 05:00:00
 System Sizing Information, SYS_4_PSZ_SP-STORAGE ROOM < 5 M2-SCH-E-SPACE FUNCTION SYS-4 FLR-3 SCH-E HPLCMT-WEST ZN, Heating, Sensible, 82513.15, 1.53232, 1.53232, FORT MCMURRAY AP ANN HTG 99.6% CONDNS DB, 1/21 09:00:00
 System Sizing Information, SYS_4_PSZ_SP-STORAGE ROOM < 5 M2-SCH-F-SPACE FUNCTION SYS-4 FLR-1 SCH-F HPLCMT-SOUTH ZN, Cooling, Sensible, 4941.04, 0.70717, 0.70717, FORT MCMURRAY AP ANN CLG .4% CONDNS DB=>MWB, 7/21 05:00:00
 System Sizing Information, SYS_4_PSZ_SP-STORAGE ROOM < 5 M2-SCH-F-SPACE FUNCTION SYS-4 FLR-1 SCH-F HPLCMT-SOUTH ZN, Heating, Sensible, 61157.02, 0.66675, 0.66675, FORT MCMURRAY AP ANN HTG 99.6% CONDNS DB, 1/21 00:10:00
 System Sizing Information, SYS_4_PSZ_SP-STORAGE ROOM < 5 M2-SCH-G-SPACE FUNCTION SYS-4 FLR-2 SCH-G HPLCMT-EAST ZN, Cooling, Sensible, 27876.47, 2.42362, 2.42362, FORT MCMURRAY AP ANN CLG .4% CONDNS DB=>MWB, 7/21 05:00:00
 System Sizing Information, SYS_4_PSZ_SP-STORAGE ROOM < 5 M2-SCH-G-SPACE FUNCTION SYS-4 FLR-2 SCH-G HPLCMT-EAST ZN, Heating, Sensible, 61798.25, 0.69278, 0.69278, FORT MCMURRAY AP ANN HTG 99.6% CONDNS DB, 1/21 09:00:00
 System Sizing Information, SYS_4_PSZ_SP-STORAGE ROOM < 5 M2-SCH-H-SPACE FUNCTION SYS-4 FLR-4 SCH-H HPLCMT-CORE ZN, Cooling, Sensible, 59953.25, 4.31018, 4.31018, FORT MCMURRAY AP ANN CLG .4% CONDNS DB=>MWB, 7/21 05:00:00
 System Sizing Information, SYS_4_PSZ_SP-STORAGE ROOM < 5 M2-SCH-H-SPACE FUNCTION SYS-4 FLR-4 SCH-H HPLCMT-CORE ZN, Heating, Sensible, 85662.32, 1.05541, 1.05541, FORT MCMURRAY AP ANN HTG 99.6% CONDNS DB, 1/21 09:00:00
 System Sizing Information, SYS_4_PSZ_SP-STORAGE ROOM < 5 M2-SCH-I-SPACE FUNCTION SYS-4 FLR-2 SCH-I HPLCMT-CORE ZN, Cooling, Sensible, 27002.81, 1.73043, 1.73043, FORT MCMURRAY AP ANN CLG .4% CONDNS DB=>MWB, 7/21 05:00:00
 System Sizing Information, SYS_4_PSZ_SP-STORAGE ROOM < 5 M2-SCH-I-SPACE FUNCTION SYS-4 FLR-2 SCH-I HPLCMT-CORE ZN, Heating, Sensible, 81542.70, 0.88900, 0.88900, FORT MCMURRAY AP ANN HTG 99.6% CONDNS DB, 1/21 00:10:00
 System Sizing Information, SYS_4_PSZ_SP-STORAGE ROOM < 5 M2-SCH-J-SPACE FUNCTION SYS-4 FLR-1 SCH-J HPLCMT-NORTH ZN, Cooling, Sensible, 9184.35, 0.93503, 0.93503, FORT MCMURRAY AP ANN CLG .4% CONDNS DB=>MWB, 7/21 05:00:00
 System Sizing Information, SYS_4_PSZ_SP-STORAGE ROOM < 5 M2-SCH-J-SPACE FUNCTION SYS-4 FLR-1 SCH-J HPLCMT-NORTH ZN, Heating, Sensible, 61157.02, 0.66675, 0.66675, FORT MCMURRAY AP ANN HTG 99.6% CONDNS DB, 1/21 00:10:00
 System Sizing Information, SYS_4_PSZ_SP-STORAGE ROOM < 5 M2-SCH-K-SPACE FUNCTION SYS-4 FLR-3 SCH-K HPLCMT-EAST ZN, Cooling, Sensible, 12277.74, 0.66675, 0.66675, FORT MCMURRAY AP ANN CLG .4% CONDNS DB=>MWB, 7/21 05:00:00
 System Sizing Information, SYS_4_PSZ_SP-STORAGE ROOM < 5 M2-SCH-K-SPACE FUNCTION SYS-4 FLR-3 SCH-K HPLCMT-EAST ZN, Heating, Sensible, 61157.02, 0.66675, 0.66675, FORT MCMURRAY AP ANN HTG 99.6% CONDNS DB, 1/21 00:10:00
 System Sizing Information, SYS_4_PSZ_SP-STORAGE ROOM <= 5 M2 <= 100 M2-SCH-A-SPACE FUNCTION SYS-4 FLR-1 SCH-A HPLCMT-EAST ZN, Cooling, Sensible, 15530.23, 1.01978, 1.01978, FORT MCMURRAY AP ANN CLG .4% CONDNS DB=>MWB, 7/21 05:00:00
 System Sizing Information, SYS_4_PSZ_SP-STORAGE ROOM <= 5 M2 <= 100 M2-SCH-A-SPACE FUNCTION SYS-4 FLR-1 SCH-A HPLCMT-EAST ZN, Heating, Sensible, 61157.02, 0.66675, 0.66675, FORT MCMURRAY AP ANN HTG 99.6% CONDNS DB, 1/21 00:10:00
 System Sizing Information, SYS_4_PSZ_SP-STORAGE ROOM <= 5 M2 <= 100 M2-SCH-B-SPACE FUNCTION SYS-4 FLR-2 SCH-B HPLCMT-WEST ZN, Cooling, Sensible, 34166.99, 2.60296, 2.60296, FORT MCMURRAY AP ANN CLG .4% CONDNS DB=>MWB, 7/21 05:00:00
 System Sizing Information, SYS_4_PSZ_SP-STORAGE ROOM <= 5 M2 <= 100 M2-SCH-B-SPACE FUNCTION SYS-4 FLR-2 SCH-B HPLCMT-WEST ZN, Heating, Sensible, 71307.39, 1.07553, 1.07553, FORT MCMURRAY AP ANN HTG 99.6% CONDNS DB, 1/21 10:00:00
 System Sizing Information, SYS_4_PSZ_SP-STORAGE ROOM <= 5 M2 <= 100 M2-SCH-C-SPACE FUNCTION SYS-4 FLR-1 SCH-C HPLCMT-WEST ZN, Cooling, Sensible, 9364.99, 0.99804, 0.99804, FORT MCMURRAY AP ANN CLG .4% CONDNS DB=>MWB, 7/21 05:00:00
 System Sizing Information, SYS_4_PSZ_SP-STORAGE ROOM <= 5 M2 <= 100 M2-SCH-C-SPACE FUNCTION SYS-4 FLR-1 SCH-C HPLCMT-WEST ZN, Heating, Sensible, 61157.02, 0.66675, 0.66675, FORT MCMURRAY AP ANN HTG 99.6% CONDNS DB, 1/21 00:10:00
 System Sizing Information, SYS_4_PSZ_SP-STORAGE ROOM <= 5 M2 <= 100 M2-SCH-D-SPACE FUNCTION SYS-4 FLR-1 SCH-D HPLCMT-CORE ZN, Cooling, Sensible, 17646.98, 1.04935, 1.04935, FORT MCMURRAY AP ANN CLG .4% CONDNS DB=>MWB, 7/21 05:00:00
 System Sizing Information, SYS_4_PSZ_SP-STORAGE ROOM <= 5 M2 <= 100 M2-SCH-D-SPACE FUNCTION SYS-4 FLR-1 SCH-D HPLCMT-CORE ZN, Heating, Sensible, 81542.70, 0.88900, 0.88900, FORT MCMURRAY AP ANN HTG 99.6% CONDNS DB, 1/21 00:10:00
 System Sizing Information, SYS_4_PSZ_SP-STORAGE ROOM <= 5 M2 <= 100 M2-SCH-E-SPACE FUNCTION SYS-4 FLR-4 SCH-E HPLCMT-EAST ZN, Cooling, Sensible, 57430.68, 4.76979, 4.76979, FORT MCMURRAY AP ANN CLG .4% CONDNS DB=>MWB, 7/21 05:00:00
 System Sizing Information, SYS_4_PSZ_SP-STORAGE ROOM <= 5 M2 <= 100 M2-SCH-E-SPACE FUNCTION SYS-4 FLR-4 SCH-E HPLCMT-EAST ZN, Heating, Sensible, 102316.16, 2.34526, 2.34526, FORT MCMURRAY AP ANN HTG 99.6% CONDNS DB, 1/21 09:00:00
 System Sizing Information, SYS_4_PSZ_SP-STORAGE ROOM <= 5 M2 <= 100 M2-SCH-F-SPACE FUNCTION SYS-4 FLR-2 SCH-F HPLCMT-NORTH ZN, Cooling, Sensible, 10696.15, 0.96351, 0.96351, FORT MCMURRAY AP ANN CLG .4% CONDNS DB=>MWB, 7/21 05:00:00
 System Sizing Information, SYS_4_PSZ_SP-STORAGE ROOM <= 5 M2 <= 100 M2-SCH-F-SPACE FUNCTION SYS-4 FLR-2 SCH-F HPLCMT-NORTH ZN, Heating, Sensible, 68489.94, 0.96263, 0.96263, FORT MCMURRAY AP ANN HTG 99.6% CONDNS DB, 1/21 09:00:00
 System Sizing Information, SYS_4_PSZ_SP-STORAGE ROOM <= 5 M2 <= 100 M2-SCH-G-SPACE FUNCTION SYS-4 FLR-3 SCH-G HPLCMT-SOUTH ZN, Cooling, Sensible, 26163.30, 1.76299, 1.76299, FORT MCMURRAY AP ANN CLG .4% CONDNS DB=>MWB, 7/21 05:00:00
 System Sizing Information, SYS_4_PSZ_SP-STORAGE ROOM <= 5 M2 <= 100 M2-SCH-G-SPACE FUNCTION SYS-4 FLR-3 SCH-G HPLCMT-SOUTH ZN, Heating, Sensible, 90001.11, 1.83822, 1.83822, FORT MCMURRAY AP ANN HTG 99.6% CONDNS DB, 1/21 09:00:00
 System Sizing Information, SYS_4_PSZ_SP-STORAGE ROOM <= 5 M2 <= 100 M2-SCH-H-SPACE FUNCTION SYS-4 FLR-2 SCH-H HPLCMT-SOUTH ZN, Cooling, Sensible, 28721.85, 1.97011, 1.97011, FORT MCMURRAY AP ANN CLG .4% CONDNS DB=>MWB, 7/21 05:00:00
 System Sizing Information, SYS_4_PSZ_SP-STORAGE ROOM <= 5 M2 <= 100 M2-SCH-H-SPACE FUNCTION SYS-4 FLR-2 SCH-H HPLCMT-SOUTH ZN, Heating, Sensible, 62593.89, 0.72504, 0.72504, FORT MCMURRAY AP ANN HTG 99.6% CONDNS DB, 1/21 09:00:00
! <Component Sizing Information>, Component Type, Component Name, Input Field Description, Value
 Component Sizing Information, AirTerminal:SingleDuct:Uncontrolled, AIR TERMINAL SINGLE DUCT UNCONTROLLED 16, Design Size Maximum Air Flow Rate [m3/s], 7.14375
 Component Sizing Information, ZoneHVAC:Baseboard:Convective:Water, ZONE HVAC BASEBOARD CONVECTIVE WATER 16, Design Size Maximum Water Flow Rate [m3/s], 0.00000
 Component Sizing Information, ZoneHVAC:Baseboard:Convective:Water, ZONE HVAC BASEBOARD CONVECTIVE WATER 16, Design Size U-Factor Times Area Value [W/K], 0.00000
 Component Sizing Information, AirTerminal:SingleDuct:Uncontrolled, AIR TERMINAL SINGLE DUCT UNCONTROLLED 17, Design Size Maximum Air Flow Rate [m3/s], 5.09015
 Component Sizing Information, ZoneHVAC:Baseboard:Convective:Water, ZONE HVAC BASEBOARD CONVECTIVE WATER 17, Design Size Maximum Water Flow Rate [m3/s], 9.49731E-004
 Component Sizing Information, ZoneHVAC:Baseboard:Convective:Water, ZONE HVAC BASEBOARD CONVECTIVE WATER 17, Design Size U-Factor Times Area Value [W/K], 1938.61970
 Component Sizing Information, AirTerminal:SingleDuct:Uncontrolled, AIR TERMINAL SINGLE DUCT UNCONTROLLED 12, Design Size Maximum Air Flow Rate [m3/s], 2.21772
 Component Sizing Information, ZoneHVAC:Baseboard:Convective:Water, ZONE HVAC BASEBOARD CONVECTIVE WATER 12, Design Size Maximum Water Flow Rate [m3/s], 0.00000
 Component Sizing Information, ZoneHVAC:Baseboard:Convective:Water, ZONE HVAC BASEBOARD CONVECTIVE WATER 12, Design Size U-Factor Times Area Value [W/K], 0.00000
 Component Sizing Information, AirTerminal:SingleDuct:Uncontrolled, AIR TERMINAL SINGLE DUCT UNCONTROLLED 18, Design Size Maximum Air Flow Rate [m3/s], 3.51052
 Component Sizing Information, ZoneHVAC:Baseboard:Convective:Water, ZONE HVAC BASEBOARD CONVECTIVE WATER 18, Design Size Maximum Water Flow Rate [m3/s], 8.78237E-004
 Component Sizing Information, ZoneHVAC:Baseboard:Convective:Water, ZONE HVAC BASEBOARD CONVECTIVE WATER 18, Design Size U-Factor Times Area Value [W/K], 1792.79757
 Component Sizing Information, AirTerminal:SingleDuct:Uncontrolled, AIR TERMINAL SINGLE DUCT UNCONTROLLED 13, Design Size Maximum Air Flow Rate [m3/s], 1.92125
 Component Sizing Information, ZoneHVAC:Baseboard:Convective:Water, ZONE HVAC BASEBOARD CONVECTIVE WATER 13, Design Size Maximum Water Flow Rate [m3/s], 5.71405E-004
 Component Sizing Information, ZoneHVAC:Baseboard:Convective:Water, ZONE HVAC BASEBOARD CONVECTIVE WATER 13, Design Size U-Factor Times Area Value [W/K], 1166.08420
 Component Sizing Information, AirTerminal:SingleDuct:Uncontrolled, AIR TERMINAL SINGLE DUCT UNCONTROLLED 14, Design Size Maximum Air Flow Rate [m3/s], 3.53294
 Component Sizing Information, ZoneHVAC:Baseboard:Convective:Water, ZONE HVAC BASEBOARD CONVECTIVE WATER 14, Design Size Maximum Water Flow Rate [m3/s], 5.79280E-004
 Component Sizing Information, ZoneHVAC:Baseboard:Convective:Water, ZONE HVAC BASEBOARD CONVECTIVE WATER 14, Design Size U-Factor Times Area Value [W/K], 1182.13612
 Component Sizing Information, AirTerminal:SingleDuct:Uncontrolled, AIR TERMINAL SINGLE DUCT UNCONTROLLED 4, Design Size Maximum Air Flow Rate [m3/s], 0.70717
 Component Sizing Information, ZoneHVAC:Baseboard:Convective:Water, ZONE HVAC BASEBOARD CONVECTIVE WATER 4, Design Size Maximum Water Flow Rate [m3/s], 2.40379E-005
 Component Sizing Information, ZoneHVAC:Baseboard:Convective:Water, ZONE HVAC BASEBOARD CONVECTIVE WATER 4, Design Size U-Factor Times Area Value [W/K], 48.82420
 Component Sizing Information, AirTerminal:SingleDuct:Uncontrolled, AIR TERMINAL SINGLE DUCT UNCONTROLLED 8, Design Size Maximum Air Flow Rate [m3/s], 2.42362
 Component Sizing Information, ZoneHVAC:Baseboard:Convective:Water, ZONE HVAC BASEBOARD CONVECTIVE WATER 8, Design Size Maximum Water Flow Rate [m3/s], 2.61088E-004
 Component Sizing Information, ZoneHVAC:Baseboard:Convective:Water, ZONE HVAC BASEBOARD CONVECTIVE WATER 8, Design Size U-Factor Times Area Value [W/K], 532.23696
 Component Sizing Information, AirTerminal:SingleDuct:Uncontrolled, AIR TERMINAL SINGLE DUCT UNCONTROLLED 20, Design Size Maximum Air Flow Rate [m3/s], 4.31018
 Component Sizing Information, ZoneHVAC:Baseboard:Convective:Water, ZONE HVAC BASEBOARD CONVECTIVE WATER 20, Design Size Maximum Water Flow Rate [m3/s], 4.03437E-004
 Component Sizing Information, ZoneHVAC:Baseboard:Convective:Water, ZONE HVAC BASEBOARD CONVECTIVE WATER 20, Design Size U-Factor Times Area Value [W/K], 824.93178
 Component Sizing Information, AirTerminal:SingleDuct:Uncontrolled, AIR TERMINAL SINGLE DUCT UNCONTROLLED 10, Design Size Maximum Air Flow Rate [m3/s], 1.73043
 Component Sizing Information, ZoneHVAC:Baseboard:Convective:Water, ZONE HVAC BASEBOARD CONVECTIVE WATER 10, Design Size Maximum Water Flow Rate [m3/s], 0.00000
 Component Sizing Information, ZoneHVAC:Baseboard:Convective:Water, ZONE HVAC BASEBOARD CONVECTIVE WATER 10, Design Size U-Factor Times Area Value [W/K], 0.00000
 Component Sizing Information, AirTerminal:SingleDuct:Uncontrolled, AIR TERMINAL SINGLE DUCT UNCONTROLLED 5, Design Size Maximum Air Flow Rate [m3/s], 0.93503
 Component Sizing Information, ZoneHVAC:Baseboard:Convective:Water, ZONE HVAC BASEBOARD CONVECTIVE WATER 5, Design Size Maximum Water Flow Rate [m3/s], 0.00000
 Component Sizing Information, ZoneHVAC:Baseboard:Convective:Water, ZONE HVAC BASEBOARD CONVECTIVE WATER 5, Design Size U-Factor Times Area Value [W/K], 0.00000
 Component Sizing Information, AirTerminal:SingleDuct:Uncontrolled, AIR TERMINAL SINGLE DUCT UNCONTROLLED 11, Design Size Maximum Air Flow Rate [m3/s], 0.66675
 Component Sizing Information, ZoneHVAC:Baseboard:Convective:Water, ZONE HVAC BASEBOARD CONVECTIVE WATER 11, Design Size Maximum Water Flow Rate [m3/s], 0.00000
 Component Sizing Information, ZoneHVAC:Baseboard:Convective:Water, ZONE HVAC BASEBOARD CONVECTIVE WATER 11, Design Size U-Factor Times Area Value [W/K], 0.00000
 Component Sizing Information, AirTerminal:SingleDuct:Uncontrolled, AIR TERMINAL SINGLE DUCT UNCONTROLLED 1, Design Size Maximum Air Flow Rate [m3/s], 1.01978
 Component Sizing Information, ZoneHVAC:Baseboard:Convective:Water, ZONE HVAC BASEBOARD CONVECTIVE WATER 1, Design Size Maximum Water Flow Rate [m3/s], 5.31743E-005
 Component Sizing Information, ZoneHVAC:Baseboard:Convective:Water, ZONE HVAC BASEBOARD CONVECTIVE WATER 1, Design Size U-Factor Times Area Value [W/K], 107.90959
 Component Sizing Information, AirTerminal:SingleDuct:Uncontrolled, AIR TERMINAL SINGLE DUCT UNCONTROLLED 6, Design Size Maximum Air Flow Rate [m3/s], 2.60296
 Component Sizing Information, ZoneHVAC:Baseboard:Convective:Water, ZONE HVAC BASEBOARD CONVECTIVE WATER 6, Design Size Maximum Water Flow Rate [m3/s], 4.11033E-004
 Component Sizing Information, ZoneHVAC:Baseboard:Convective:Water, ZONE HVAC BASEBOARD CONVECTIVE WATER 6, Design Size U-Factor Times Area Value [W/K], 838.70839
 Component Sizing Information, AirTerminal:SingleDuct:Uncontrolled, AIR TERMINAL SINGLE DUCT UNCONTROLLED 2, Design Size Maximum Air Flow Rate [m3/s], 0.99804
 Component Sizing Information, ZoneHVAC:Baseboard:Convective:Water, ZONE HVAC BASEBOARD CONVECTIVE WATER 2, Design Size Maximum Water Flow Rate [m3/s], 5.23468E-005
 Component Sizing Information, ZoneHVAC:Baseboard:Convective:Water, ZONE HVAC BASEBOARD CONVECTIVE WATER 2, Design Size U-Factor Times Area Value [W/K], 106.49745
 Component Sizing Information, AirTerminal:SingleDuct:Uncontrolled, AIR TERMINAL SINGLE DUCT UNCONTROLLED 3, Design Size Maximum Air Flow Rate [m3/s], 1.04935
 Component Sizing Information, ZoneHVAC:Baseboard:Convective:Water, ZONE HVAC BASEBOARD CONVECTIVE WATER 3, Design Size Maximum Water Flow Rate [m3/s], 0.00000
 Component Sizing Information, ZoneHVAC:Baseboard:Convective:Water, ZONE HVAC BASEBOARD CONVECTIVE WATER 3, Design Size U-Factor Times Area Value [W/K], 0.00000
 Component Sizing Information, AirTerminal:SingleDuct:Uncontrolled, AIR TERMINAL SINGLE DUCT UNCONTROLLED 19, Design Size Maximum Air Flow Rate [m3/s], 4.76979
 Component Sizing Information, ZoneHVAC:Baseboard:Convective:Water, ZONE HVAC BASEBOARD CONVECTIVE WATER 19, Design Size Maximum Water Flow Rate [m3/s], 8.79601E-004
 Component Sizing Information, ZoneHVAC:Baseboard:Convective:Water, ZONE HVAC BASEBOARD CONVECTIVE WATER 19, Design Size U-Factor Times Area Value [W/K], 1795.58710
 Component Sizing Information, AirTerminal:SingleDuct:Uncontrolled, AIR TERMINAL SINGLE DUCT UNCONTROLLED 7, Design Size Maximum Air Flow Rate [m3/s], 0.96351
 Component Sizing Information, ZoneHVAC:Baseboard:Convective:Water, ZONE HVAC BASEBOARD CONVECTIVE WATER 7, Design Size Maximum Water Flow Rate [m3/s], 3.66961E-004
 Component Sizing Information, ZoneHVAC:Baseboard:Convective:Water, ZONE HVAC BASEBOARD CONVECTIVE WATER 7, Design Size U-Factor Times Area Value [W/K], 748.47879
 Component Sizing Information, AirTerminal:SingleDuct:Uncontrolled, AIR TERMINAL SINGLE DUCT UNCONTROLLED 15, Design Size Maximum Air Flow Rate [m3/s], 1.83822
 Component Sizing Information, ZoneHVAC:Baseboard:Convective:Water, ZONE HVAC BASEBOARD CONVECTIVE WATER 15, Design Size Maximum Water Flow Rate [m3/s], 6.92021E-004
 Component Sizing Information, ZoneHVAC:Baseboard:Convective:Water, ZONE HVAC BASEBOARD CONVECTIVE WATER 15, Design Size U-Factor Times Area Value [W/K], 1411.41296
 Component Sizing Information, AirTerminal:SingleDuct:Uncontrolled, AIR TERMINAL SINGLE DUCT UNCONTROLLED 9, Design Size Maximum Air Flow Rate [m3/s], 1.97011
 Component Sizing Information, ZoneHVAC:Baseboard:Convective:Water, ZONE HVAC BASEBOARD CONVECTIVE WATER 9, Design Size Maximum Water Flow Rate [m3/s], 2.73590E-004
[...]
 DX Cooling Coil Standard Rating Information, Coil:Cooling:DX:SingleSpeed, COIL COOLING DX SINGLE SPEED 2, 15746.2, 2.51, 8.56, 9.04, 8.63
 Component Sizing Information, Coil:Heating:Fuel, COIL HEATING GAS 2, Design Size Nominal Capacity [W], 69267.08127
 Component Sizing Information, Fan:ConstantVolume, FAN CONSTANT VOLUME 2, Design Size Maximum Flow Rate [m3/s], 0.99804
 Component Sizing Information, Controller:OutdoorAir, CONTROLLER OUTDOOR AIR 3, Maximum Outdoor Air Flow Rate [m3/s], 1.04935
 Component Sizing Information, Controller:OutdoorAir, CONTROLLER OUTDOOR AIR 3, Minimum Outdoor Air Flow Rate [m3/s], 0.88900
 Component Sizing Information, Coil:Cooling:DX:SingleSpeed, COIL COOLING DX SINGLE SPEED 3, Design Size Rated Air Flow Rate [m3/s], 1.04935
 Component Sizing Information, Coil:Cooling:DX:SingleSpeed, COIL COOLING DX SINGLE SPEED 3, Design Size Gross Rated Total Cooling Capacity [W], 18434.20614
 Component Sizing Information, Coil:Cooling:DX:SingleSpeed, COIL COOLING DX SINGLE SPEED 3, Design Size Gross Rated Sensible Heat Ratio, 0.80044
 DX Cooling Coil Standard Rating Information, Coil:Cooling:DX:SingleSpeed, COIL COOLING DX SINGLE SPEED 3, 17619.3, 2.53, 8.64, 9.13, 8.76
 Component Sizing Information, Coil:Heating:Fuel, COIL HEATING GAS 3, Design Size Nominal Capacity [W], 85442.43508
 Component Sizing Information, Fan:ConstantVolume, FAN CONSTANT VOLUME 3, Design Size Maximum Flow Rate [m3/s], 1.04935
 Component Sizing Information, Controller:OutdoorAir, CONTROLLER OUTDOOR AIR 19, Maximum Outdoor Air Flow Rate [m3/s], 4.76979
 Component Sizing Information, Controller:OutdoorAir, CONTROLLER OUTDOOR AIR 19, Minimum Outdoor Air Flow Rate [m3/s], 0.66675
 Component Sizing Information, Coil:Cooling:DX:SingleSpeed, COIL COOLING DX SINGLE SPEED 19, Design Size Rated Air Flow Rate [m3/s], 4.76979
 Component Sizing Information, Coil:Cooling:DX:SingleSpeed, COIL COOLING DX SINGLE SPEED 19, Design Size Gross Rated Total Cooling Capacity [W], 78956.90924
 Component Sizing Information, Coil:Cooling:DX:SingleSpeed, COIL COOLING DX SINGLE SPEED 19, Design Size Gross Rated Sensible Heat Ratio, 0.80066
 DX Cooling Coil Standard Rating Information, Coil:Cooling:DX:SingleSpeed, COIL COOLING DX SINGLE SPEED 19, 75253.7, 2.51, 8.56, 9.04, 8.63
 Component Sizing Information, Coil:Heating:Fuel, COIL HEATING GAS 19, Design Size Nominal Capacity [W], 161768.28396
 Component Sizing Information, Fan:ConstantVolume, FAN CONSTANT VOLUME 19, Design Size Maximum Flow Rate [m3/s], 4.76979
 Component Sizing Information, Controller:OutdoorAir, CONTROLLER OUTDOOR AIR 7, Maximum Outdoor Air Flow Rate [m3/s], 0.96351
 Component Sizing Information, Controller:OutdoorAir, CONTROLLER OUTDOOR AIR 7, Minimum Outdoor Air Flow Rate [m3/s], 0.66675
 Component Sizing Information, Coil:Cooling:DX:SingleSpeed, COIL COOLING DX SINGLE SPEED 7, Design Size Rated Air Flow Rate [m3/s], 0.96351
 Component Sizing Information, Coil:Cooling:DX:SingleSpeed, COIL COOLING DX SINGLE SPEED 7, Design Size Gross Rated Total Cooling Capacity [W], 15949.43602
 Component Sizing Information, Coil:Cooling:DX:SingleSpeed, COIL COOLING DX SINGLE SPEED 7, Design Size Gross Rated Sensible Heat Ratio, 0.80066
 DX Cooling Coil Standard Rating Information, Coil:Cooling:DX:SingleSpeed, COIL COOLING DX SINGLE SPEED 7, 15201.4, 2.51, 8.56, 9.04, 8.63
 Component Sizing Information, Coil:Heating:Fuel, COIL HEATING GAS 7, Design Size Nominal Capacity [W], 68511.53725
 Component Sizing Information, Fan:ConstantVolume, FAN CONSTANT VOLUME 7, Design Size Maximum Flow Rate [m3/s], 0.96351
 Component Sizing Information, Controller:OutdoorAir, CONTROLLER OUTDOOR AIR 15, Maximum Outdoor Air Flow Rate [m3/s], 1.83822
 Component Sizing Information, Controller:OutdoorAir, CONTROLLER OUTDOOR AIR 15, Minimum Outdoor Air Flow Rate [m3/s], 0.66675
 Component Sizing Information, Coil:Cooling:DX:SingleSpeed, COIL COOLING DX SINGLE SPEED 15, Design Size Rated Air Flow Rate [m3/s], 1.83822
 Component Sizing Information, Coil:Cooling:DX:SingleSpeed, COIL COOLING DX SINGLE SPEED 15, Design Size Gross Rated Total Cooling Capacity [W], 30428.99157
 Component Sizing Information, Coil:Cooling:DX:SingleSpeed, COIL COOLING DX SINGLE SPEED 15, Design Size Gross Rated Sensible Heat Ratio, 0.80066
 DX Cooling Coil Standard Rating Information, Coil:Cooling:DX:SingleSpeed, COIL COOLING DX SINGLE SPEED 15, 29001.8, 2.51, 8.56, 9.04, 8.63
 Component Sizing Information, Coil:Heating:Fuel, COIL HEATING GAS 15, Design Size Nominal Capacity [W], 90001.11269
 Component Sizing Information, Fan:ConstantVolume, FAN CONSTANT VOLUME 15, Design Size Maximum Flow Rate [m3/s], 1.83822
 Component Sizing Information, Controller:OutdoorAir, CONTROLLER OUTDOOR AIR 9, Maximum Outdoor Air Flow Rate [m3/s], 1.97011
 Component Sizing Information, Controller:OutdoorAir, CONTROLLER OUTDOOR AIR 9, Minimum Outdoor Air Flow Rate [m3/s], 0.66675
 Component Sizing Information, Coil:Cooling:DX:SingleSpeed, COIL COOLING DX SINGLE SPEED 9, Design Size Rated Air Flow Rate [m3/s], 1.97011
 Component Sizing Information, Coil:Cooling:DX:SingleSpeed, COIL COOLING DX SINGLE SPEED 9, Design Size Gross Rated Total Cooling Capacity [W], 32612.35124
 Component Sizing Information, Coil:Cooling:DX:SingleSpeed, COIL COOLING DX SINGLE SPEED 9, Design Size Gross Rated Sensible Heat Ratio, 0.80066
 DX Cooling Coil Standard Rating Information, Coil:Cooling:DX:SingleSpeed, COIL COOLING DX SINGLE SPEED 9, 31082.8, 2.51, 8.56, 9.04, 8.63
 Component Sizing Information, Coil:Heating:Fuel, COIL HEATING GAS 9, Design Size Nominal Capacity [W], 93284.17197
 Component Sizing Information, Fan:ConstantVolume, FAN CONSTANT VOLUME 9, Design Size Maximum Flow Rate [m3/s], 1.97011
Water Heater Information,WaterHeater:Mixed,166GAL NATURALGAS WATER HEATER - 376KBTU/HR,0.6291,110318.0,0.996,0.6012
 Component Sizing Information, PlantLoop, HOT WATER LOOP, Maximum Loop Flow Rate [m3/s], 6.39594E-003
 Component Sizing Information, PlantLoop, HOT WATER LOOP, Plant Loop Volume [m3], 0.76751
 Component Sizing Information, Pump:VariableSpeed, PUMP VARIABLE SPEED 1, Design Flow Rate [m3/s], 6.39594E-003
 Component Sizing Information, Pump:VariableSpeed, PUMP VARIABLE SPEED 1, Design Power Consumption [W], 1634.08154
 Component Sizing Information, Boiler:HotWater, PRIMARY BOILER, Design Size Nominal Capacity [W], 429886.34637
 Component Sizing Information, Boiler:HotWater, PRIMARY BOILER, Design Size Design Water Flow Rate [m3/s], 6.39594E-003
 Component Sizing Information, Boiler:HotWater, SECONDARY BOILER, Design Size Nominal Capacity [W], 429886.34637
 Component Sizing Information, Boiler:HotWater, SECONDARY BOILER, Design Size Design Water Flow Rate [m3/s], 6.39594E-003
 Component Sizing Information, PlantLoop, MAIN SERVICE WATER LOOP, Maximum Loop Flow Rate [m3/s], 2.48964E-004
 Component Sizing Information, PlantLoop, MAIN SERVICE WATER LOOP, Plant Loop Volume [m3], 2.98757E-002
 Component Sizing Information, Pump:ConstantSpeed, SERVICE WATER LOOP PUMP, Design Flow Rate [m3/s], 2.48964E-004
 Component Sizing Information, Pump:ConstantSpeed, SERVICE WATER LOOP PUMP, Design Power Consumption [W], 55.04339
 Component Sizing Information, WaterHeater:Mixed, 166GAL NATURALGAS WATER HEATER - 376KBTU/HR, Use Side Design Flow Rate [m3/s], 2.48964E-004
! <Environment>,Environment Name,Environment Type, Start Date, End Date, Start DayOfWeek, Duration {#days}, Source:Start DayOfWeek,  Use Daylight Saving, Use Holidays, Apply Weekend Holiday Rule,  Use Rain Values, Use Snow Values
! <Environment:Special Days>, Special Day Name, Special Day Type, Source, Start Date, Duration {#days}
! <Environment:Daylight Saving>, Daylight Saving Indicator, Source, Start Date, End Date
! <Environment:WarmupDays>, NumberofWarmupDays
Environment,FORT MCMURRAY AP ANN CLG .4% CONDNS DB=>MWB,SizingPeriod:DesignDay,07/21,07/21,SummerDesignDay,1,N/A,N/A,N/A,N/A,N/A,N/A
Environment:Daylight Saving,No,SizingPeriod:DesignDay
! <Environment:Design Day Data>, Max Dry-Bulb Temp {C}, Temp Range {dC}, Temp Range Ind Type, Hum Ind Value at Max Temp, Hum Ind Type,Pressure {Pa}, Wind Direction {deg CW from N}, Wind Speed {m/s}, Clearness, Rain, Snow
! <Environment:Design Day Misc>,DayOfYear,ASHRAE A Coeff,ASHRAE B Coeff,ASHRAE C Coeff,Solar Constant-Annual Variation,Eq of Time {minutes}, Solar Declination Angle {deg}, Solar Model
Environment:Design Day Data,28.90,12.40,DefaultMultipliers,96969,250,3.7,0.00,No,No
Environment:Design Day Misc,202,1084.4,0.2082,0.1365,1.0,-6.23,20.6,ASHRAETau
Environment:WarmupDays,  7
! <Tabular Report>,Style,Unit Conversion
Tabular Report,HTML,None
! <Warmup Convergence Information>,Zone Name,Environment Type/Name,Average Warmup Temperature Difference {deltaC},Std Dev Warmup Temperature Difference {deltaC},Max Temperature Pass/Fail Convergence,Min Temperature Pass/Fail Convergence,Average Warmup Load Difference {W},Std Dev Warmup Load Difference {W},Heating Load Pass/Fail Convergence,Cooling Load Pass/Fail Convergence
 Warmup Convergence Information,SP-STORAGE GARAGE INTERIOR-SPACE FUNCTION SYS-4 FLR-4 SCH-K HPLCMT-SOUTH ZN,SizingPeriod: FORT MCMURRAY AP ANN CLG .4% CONDNS DB=>MWB,0.1308226504,7.8442604815E-002,Pass,Pass,0.2215697694,1.2319676863,Pass,Pass
 Warmup Convergence Information,SP-STORAGE ROOM < 5 M2-SCH-A-SPACE FUNCTION SYS-4 FLR-4 SCH-A HPLCMT-WEST ZN,SizingPeriod: FORT MCMURRAY AP ANN CLG .4% CONDNS DB=>MWB,2.0854988647E-002,4.1795358467E-002,Pass,Pass,6.6907577760E-002,0.2547688251,Pass,Pass
 Warmup Convergence Information,SP-STORAGE ROOM < 5 M2-SCH-B-SPACE FUNCTION SYS-4 FLR-3 SCH-B HPLCMT-CORE ZN,SizingPeriod: FORT MCMURRAY AP ANN CLG .4% CONDNS DB=>MWB,1.8276950257E-002,6.3980292644E-002,Pass,Pass,3.4733046803E-002,0.1686456490,Pass,Pass
 Warmup Convergence Information,SP-STORAGE ROOM < 5 M2-SCH-C-SPACE FUNCTION SYS-4 FLR-4 SCH-C HPLCMT-NORTH ZN,SizingPeriod: FORT MCMURRAY AP ANN CLG .4% CONDNS DB=>MWB,2.0959489812E-002,2.8185003708E-002,Pass,Pass,7.0588034585E-002,0.3427221622,Pass,Pass
 Warmup Convergence Information,SP-STORAGE ROOM < 5 M2-SCH-D-SPACE FUNCTION SYS-4 FLR-3 SCH-D HPLCMT-NORTH ZN,SizingPeriod: FORT MCMURRAY AP ANN CLG .4% CONDNS DB=>MWB,1.1164002122E-002,3.2672213356E-002,Pass,Pass,3.5648420779E-002,0.1673141018,Pass,Pass
 Warmup Convergence Information,SP-STORAGE ROOM < 5 M2-SCH-E-SPACE FUNCTION SYS-4 FLR-3 SCH-E HPLCMT-WEST ZN,SizingPeriod: FORT MCMURRAY AP ANN CLG .4% CONDNS DB=>MWB,4.2314042434E-002,0.1249861207,Pass,Pass,0.1346717404,1.0996529350,Pass,Pass
 Warmup Convergence Information,SP-STORAGE ROOM < 5 M2-SCH-F-SPACE FUNCTION SYS-4 FLR-1 SCH-F HPLCMT-SOUTH ZN,SizingPeriod: FORT MCMURRAY AP ANN CLG .4% CONDNS DB=>MWB,4.4335951145E-003,9.8724253029E-003,Pass,Pass,1.7975445400E-002,4.0661540903E-002,Pass,Pass
 Warmup Convergence Information,SP-STORAGE ROOM < 5 M2-SCH-G-SPACE FUNCTION SYS-4 FLR-2 SCH-G HPLCMT-EAST ZN,SizingPeriod: FORT MCMURRAY AP ANN CLG .4% CONDNS DB=>MWB,1.8715762037E-005,4.3690079309E-005,Pass,Pass,2.0453800828E-002,3.8755940036E-002,Pass,Pass
 Warmup Convergence Information,SP-STORAGE ROOM < 5 M2-SCH-H-SPACE FUNCTION SYS-4 FLR-4 SCH-H HPLCMT-CORE ZN,SizingPeriod: FORT MCMURRAY AP ANN CLG .4% CONDNS DB=>MWB,1.4586281036E-005,3.1679897548E-005,Pass,Pass,1.4991992305E-002,9.1160564993E-003,Pass,Pass
 Warmup Convergence Information,SP-STORAGE ROOM < 5 M2-SCH-I-SPACE FUNCTION SYS-4 FLR-2 SCH-I HPLCMT-CORE ZN,SizingPeriod: FORT MCMURRAY AP ANN CLG .4% CONDNS DB=>MWB,3.5598602210E-002,8.2451317008E-002,Pass,Pass,0.1137040115,0.3506040256,Pass,Pass
 Warmup Convergence Information,SP-STORAGE ROOM < 5 M2-SCH-J-SPACE FUNCTION SYS-4 FLR-1 SCH-J HPLCMT-NORTH ZN,SizingPeriod: FORT MCMURRAY AP ANN CLG .4% CONDNS DB=>MWB,3.5055386989E-003,9.8367014093E-003,Pass,Pass,1.5483248299E-002,5.3569540351E-002,Pass,Pass
 Warmup Convergence Information,SP-STORAGE ROOM < 5 M2-SCH-K-SPACE FUNCTION SYS-4 FLR-3 SCH-K HPLCMT-EAST ZN,SizingPeriod: FORT MCMURRAY AP ANN CLG .4% CONDNS DB=>MWB,4.2000347148E-002,3.3207955844E-002,Pass,Pass,0.1328785341,0.4222818239,Pass,Pass
 Warmup Convergence Information,SP-STORAGE ROOM <= 5 M2 <= 100 M2-SCH-A-SPACE FUNCTION SYS-4 FLR-1 SCH-A HPLCMT-EAST ZN,SizingPeriod: FORT MCMURRAY AP ANN CLG .4% CONDNS DB=>MWB,1.1884267125E-002,2.1628676673E-002,Pass,Pass,3.6156803011E-002,0.1792379549,Pass,Pass
 Warmup Convergence Information,SP-STORAGE ROOM <= 5 M2 <= 100 M2-SCH-B-SPACE FUNCTION SYS-4 FLR-2 SCH-B HPLCMT-WEST ZN,SizingPeriod: FORT MCMURRAY AP ANN CLG .4% CONDNS DB=>MWB,2.0997536902E-002,8.3353136821E-002,Pass,Pass,5.2362524898E-002,0.2251934742,Pass,Pass
 Warmup Convergence Information,SP-STORAGE ROOM <= 5 M2 <= 100 M2-SCH-C-SPACE FUNCTION SYS-4 FLR-1 SCH-C HPLCMT-WEST ZN,SizingPeriod: FORT MCMURRAY AP ANN CLG .4% CONDNS DB=>MWB,1.1318092676E-002,2.4647635111E-002,Pass,Pass,4.4315935077E-002,0.2821983124,Pass,Pass
 Warmup Convergence Information,SP-STORAGE ROOM <= 5 M2 <= 100 M2-SCH-D-SPACE FUNCTION SYS-4 FLR-1 SCH-D HPLCMT-CORE ZN,SizingPeriod: FORT MCMURRAY AP ANN CLG .4% CONDNS DB=>MWB,9.0279132422E-003,1.8346244192E-002,Pass,Pass,3.0380330733E-002,7.3338474232E-002,Pass,Pass
 Warmup Convergence Information,SP-STORAGE ROOM <= 5 M2 <= 100 M2-SCH-E-SPACE FUNCTION SYS-4 FLR-4 SCH-E HPLCMT-EAST ZN,SizingPeriod: FORT MCMURRAY AP ANN CLG .4% CONDNS DB=>MWB,7.0811465030E-002,0.1805110326,Pass,Pass,0.1908724393,1.4891579251,Pass,Pass
 Warmup Convergence Information,SP-STORAGE ROOM <= 5 M2 <= 100 M2-SCH-F-SPACE FUNCTION SYS-4 FLR-2 SCH-F HPLCMT-NORTH ZN,SizingPeriod: FORT MCMURRAY AP ANN CLG .4% CONDNS DB=>MWB,4.2124285300E-005,1.5470121259E-004,Pass,Pass,1.4543791227E-002,2.0578411614E-002,Pass,Pass
 Warmup Convergence Information,SP-STORAGE ROOM <= 5 M2 <= 100 M2-SCH-G-SPACE FUNCTION SYS-4 FLR-3 SCH-G HPLCMT-SOUTH ZN,SizingPeriod: FORT MCMURRAY AP ANN CLG .4% CONDNS DB=>MWB,1.1770448274E-003,4.6112954059E-003,Pass,Pass,2.7501193728E-002,4.5208290193E-002,Pass,Pass
 Warmup Convergence Information,SP-STORAGE ROOM <= 5 M2 <= 100 M2-SCH-H-SPACE FUNCTION SYS-4 FLR-2 SCH-H HPLCMT-SOUTH ZN,SizingPeriod: FORT MCMURRAY AP ANN CLG .4% CONDNS DB=>MWB,3.6324623414E-005,8.8243144506E-005,Pass,Pass,8.6623225948E-003,7.7537302383E-003,Pass,Pass
Environment,FORT MCMURRAY AP ANN HTG 99.6% CONDNS DB,SizingPeriod:DesignDay,01/21,01/21,WinterDesignDay,1,N/A,N/A,N/A,N/A,N/A,N/A
Environment:Daylight Saving,No,SizingPeriod:DesignDay
Environment:Design Day Data,-36.20,0.00,DefaultMultipliers,96969,90,1.0,0.00,No,No
Environment:Design Day Misc, 21,1229.0,0.1415,5.7310E-002,1.0,-11.15,-20.1,ASHRAEClearSky
Environment:WarmupDays,  6
 Warmup Convergence Information,SP-STORAGE GARAGE INTERIOR-SPACE FUNCTION SYS-4 FLR-4 SCH-K HPLCMT-SOUTH ZN,SizingPeriod: FORT MCMURRAY AP ANN HTG 99.6% CONDNS DB,4.3921662039E-003,3.5691340835E-003,Pass,Pass,1.8329088928E-002,1.7678199567E-002,Pass,Pass
 Warmup Convergence Information,SP-STORAGE ROOM < 5 M2-SCH-A-SPACE FUNCTION SYS-4 FLR-4 SCH-A HPLCMT-WEST ZN,SizingPeriod: FORT MCMURRAY AP ANN HTG 99.6% CONDNS DB,5.5558810980E-002,0.3157192437,Pass,Pass,7.6248874247E-002,0.3138250293,Pass,Pass
 Warmup Convergence Information,SP-STORAGE ROOM < 5 M2-SCH-B-SPACE FUNCTION SYS-4 FLR-3 SCH-B HPLCMT-CORE ZN,SizingPeriod: FORT MCMURRAY AP ANN HTG 99.6% CONDNS DB,4.7215932402E-002,0.1709400184,Pass,Pass,0.1555580824,0.4714707672,Pass,Pass
 Warmup Convergence Information,SP-STORAGE ROOM < 5 M2-SCH-C-SPACE FUNCTION SYS-4 FLR-4 SCH-C HPLCMT-NORTH ZN,SizingPeriod: FORT MCMURRAY AP ANN HTG 99.6% CONDNS DB,5.5558947397E-002,0.3080036239,Pass,Pass,6.6379572634E-002,0.3571590235,Pass,Pass
 Warmup Convergence Information,SP-STORAGE ROOM < 5 M2-SCH-D-SPACE FUNCTION SYS-4 FLR-3 SCH-D HPLCMT-NORTH ZN,SizingPeriod: FORT MCMURRAY AP ANN HTG 99.6% CONDNS DB,5.5874560109E-002,0.2424356621,Pass,Pass,0.1058179800,0.2737007349,Pass,Pass
 Warmup Convergence Information,SP-STORAGE ROOM < 5 M2-SCH-E-SPACE FUNCTION SYS-4 FLR-3 SCH-E HPLCMT-WEST ZN,SizingPeriod: FORT MCMURRAY AP ANN HTG 99.6% CONDNS DB,5.5557538666E-002,0.2629101567,Pass,Pass,0.1679730897,0.7607940383,Pass,Pass
 Warmup Convergence Information,SP-STORAGE ROOM < 5 M2-SCH-F-SPACE FUNCTION SYS-4 FLR-1 SCH-F HPLCMT-SOUTH ZN,SizingPeriod: FORT MCMURRAY AP ANN HTG 99.6% CONDNS DB,3.1517744867E-002,0.1008797296,Pass,Pass,1.1164333960,11.3137808882,Pass,Pass
 Warmup Convergence Information,SP-STORAGE ROOM < 5 M2-SCH-G-SPACE FUNCTION SYS-4 FLR-2 SCH-G HPLCMT-EAST ZN,SizingPeriod: FORT MCMURRAY AP ANN HTG 99.6% CONDNS DB,5.6056864387E-002,0.2386481747,Pass,Pass,0.1076948011,0.4502094364,Pass,Pass
 Warmup Convergence Information,SP-STORAGE ROOM < 5 M2-SCH-H-SPACE FUNCTION SYS-4 FLR-4 SCH-H HPLCMT-CORE ZN,SizingPeriod: FORT MCMURRAY AP ANN HTG 99.6% CONDNS DB,5.5627277332E-002,0.2516676678,Pass,Pass,0.2202686037,2.0746044006,Pass,Pass
 Warmup Convergence Information,SP-STORAGE ROOM < 5 M2-SCH-I-SPACE FUNCTION SYS-4 FLR-2 SCH-I HPLCMT-CORE ZN,SizingPeriod: FORT MCMURRAY AP ANN HTG 99.6% CONDNS DB,4.0956637968E-002,0.1447039259,Pass,Pass,0.1107768439,0.4840554336,Pass,Pass
 Warmup Convergence Information,SP-STORAGE ROOM < 5 M2-SCH-J-SPACE FUNCTION SYS-4 FLR-1 SCH-J HPLCMT-NORTH ZN,SizingPeriod: FORT MCMURRAY AP ANN HTG 99.6% CONDNS DB,5.5846020096E-006,1.1472863457E-005,Pass,Pass,0.4886939511,3.7030849083,Pass,Pass
 Warmup Convergence Information,SP-STORAGE ROOM < 5 M2-SCH-K-SPACE FUNCTION SYS-4 FLR-3 SCH-K HPLCMT-EAST ZN,SizingPeriod: FORT MCMURRAY AP ANN HTG 99.6% CONDNS DB,2.1642750833E-002,2.7141138791E-002,Pass,Pass,3.5587500251E-003,4.9544872854E-003,Pass,Pass
 Warmup Convergence Information,SP-STORAGE ROOM <= 5 M2 <= 100 M2-SCH-A-SPACE FUNCTION SYS-4 FLR-1 SCH-A HPLCMT-EAST ZN,SizingPeriod: FORT MCMURRAY AP ANN HTG 99.6% CONDNS DB,4.3495282286E-002,0.1469993857,Pass,Pass,0.2913793418,0.9010792686,Pass,Pass
 Warmup Convergence Information,SP-STORAGE ROOM <= 5 M2 <= 100 M2-SCH-B-SPACE FUNCTION SYS-4 FLR-2 SCH-B HPLCMT-WEST ZN,SizingPeriod: FORT MCMURRAY AP ANN HTG 99.6% CONDNS DB,5.5831041369E-002,0.2430596910,Pass,Pass,5.5992894620E-002,0.1385156500,Pass,Pass
 Warmup Convergence Information,SP-STORAGE ROOM <= 5 M2 <= 100 M2-SCH-C-SPACE FUNCTION SYS-4 FLR-1 SCH-C HPLCMT-WEST ZN,SizingPeriod: FORT MCMURRAY AP ANN HTG 99.6% CONDNS DB,4.3067898753E-002,0.1453982368,Pass,Pass,0.5602044158,3.3295309597,Pass,Pass
 Warmup Convergence Information,SP-STORAGE ROOM <= 5 M2 <= 100 M2-SCH-D-SPACE FUNCTION SYS-4 FLR-1 SCH-D HPLCMT-CORE ZN,SizingPeriod: FORT MCMURRAY AP ANN HTG 99.6% CONDNS DB,3.3100535610E-002,0.1103758727,Pass,Pass,0.2475190818,1.1226770301,Pass,Pass
 Warmup Convergence Information,SP-STORAGE ROOM <= 5 M2 <= 100 M2-SCH-E-SPACE FUNCTION SYS-4 FLR-4 SCH-E HPLCMT-EAST ZN,SizingPeriod: FORT MCMURRAY AP ANN HTG 99.6% CONDNS DB,5.5569400296E-002,0.3021923274,Pass,Pass,3.8761689662E-002,0.1766152041,Pass,Pass
 Warmup Convergence Information,SP-STORAGE ROOM <= 5 M2 <= 100 M2-SCH-F-SPACE FUNCTION SYS-4 FLR-2 SCH-F HPLCMT-NORTH ZN,SizingPeriod: FORT MCMURRAY AP ANN HTG 99.6% CONDNS DB,5.0776905970E-002,0.1815314047,Pass,Pass,7.3037288839E-002,0.3094219512,Pass,Pass
 Warmup Convergence Information,SP-STORAGE ROOM <= 5 M2 <= 100 M2-SCH-G-SPACE FUNCTION SYS-4 FLR-3 SCH-G HPLCMT-SOUTH ZN,SizingPeriod: FORT MCMURRAY AP ANN HTG 99.6% CONDNS DB,5.5800853566E-002,0.2480444116,Pass,Pass,0.2808100331,1.6253090269,Pass,Pass
 Warmup Convergence Information,SP-STORAGE ROOM <= 5 M2 <= 100 M2-SCH-H-SPACE FUNCTION SYS-4 FLR-2 SCH-H HPLCMT-SOUTH ZN,SizingPeriod: FORT MCMURRAY AP ANN HTG 99.6% CONDNS DB,5.4822168335E-002,0.2155732511,Pass,Pass,0.1379495089,0.9069623581,Pass,Pass
! <Program Control Information:Threads/Parallel Sims>, Threading Supported,Maximum Number of Threads, Env Set Threads (OMP_NUM_THREADS), EP Env Set Threads (EP_OMP_NUM_THREADS), IDF Set Threads, Number of Threads Used (Interior Radiant Exchange), Number Nominal Surfaces, Number Parallel Sims
Program Control:Threads/Parallel Sims, No,1, N/A, N/A, N/A, N/A, N/A, N/A
End of Data
