Program Version,EnergyPlus, Version 8.9.0-eba93e8e1b, YMD=2019.03.20 17:59
! <Version>, Version ID
 Version, 8.9
! <Timesteps per Hour>, #TimeSteps, Minutes per TimeStep {minutes}
 Timesteps per Hour,  6, 10
! <System Convergence Limits>, Minimum System TimeStep {minutes}, Max HVAC Iterations, Minimum Plant Iterations, Maximum Plant Iterations
 System Convergence Limits, 1, 20, 2, 8
! <Simulation Control>, Do Zone Sizing, Do System Sizing, Do Plant Sizing, Do Design Days, Do Weather Simulation, Do HVAC Sizing Simulation
 Simulation Control, Yes, No, No, Yes, No, No
! <Output Reporting Tolerances>, Tolerance for Time Heating Setpoint Not Met, Tolerance for Zone Cooling Setpoint Not Met Time
 Output Reporting Tolerances, 0.200, 0.200, 
! <Site:GroundTemperature:BuildingSurface>,Jan{C},Feb{C},Mar{C},Apr{C},May{C},Jun{C},Jul{C},Aug{C},Sep{C},Oct{C},Nov{C},Dec{C}
 Site:GroundTemperature:BuildingSurface,  19.53,  19.50,  19.54,  19.60,  20.00,  21.64,  22.23,  22.38,  21.45,  20.12,  19.80,  19.63
! <Site:GroundTemperature:FCfactorMethod>,Jan{C},Feb{C},Mar{C},Apr{C},May{C},Jun{C},Jul{C},Aug{C},Sep{C},Oct{C},Nov{C},Dec{C}
 Site:GroundTemperature:FCfactorMethod, -12.27, -13.66, -11.19,  -7.33,   2.77,  10.57,  15.83,  17.43,  14.70,   8.65,   0.56,  -6.95
! <Site:GroundTemperature:Shallow>,Jan{C},Feb{C},Mar{C},Apr{C},May{C},Jun{C},Jul{C},Aug{C},Sep{C},Oct{C},Nov{C},Dec{C}
 Site:GroundTemperature:Shallow,  13.00,  13.00,  13.00,  13.00,  13.00,  13.00,  13.00,  13.00,  13.00,  13.00,  13.00,  13.00
! <Site:GroundTemperature:Deep>,Jan{C},Feb{C},Mar{C},Apr{C},May{C},Jun{C},Jul{C},Aug{C},Sep{C},Oct{C},Nov{C},Dec{C}
 Site:GroundTemperature:Deep,  16.00,  16.00,  16.00,  16.00,  16.00,  16.00,  16.00,  16.00,  16.00,  16.00,  16.00,  16.00
! <Site:GroundReflectance>,Jan{dimensionless},Feb{dimensionless},Mar{dimensionless},Apr{dimensionless},May{dimensionless},Jun{dimensionless},Jul{dimensionless},Aug{dimensionless},Sep{dimensionless},Oct{dimensionless},Nov{dimensionless},Dec{dimensionless}
 Site:GroundReflectance,  0.20,  0.20,  0.20,  0.20,  0.20,  0.20,  0.20,  0.20,  0.20,  0.20,  0.20,  0.20
! <Site:GroundReflectance:SnowModifier>, Normal, Daylighting {dimensionless}
 Site:GroundReflectance:SnowModifier,   1.000,   1.000
! <Site:GroundReflectance:Snow>,Jan{dimensionless},Feb{dimensionless},Mar{dimensionless},Apr{dimensionless},May{dimensionless},Jun{dimensionless},Jul{dimensionless},Aug{dimensionless},Sep{dimensionless},Oct{dimensionless},Nov{dimensionless},Dec{dimensionless}
 Site:GroundReflectance:Snow,  0.20,  0.20,  0.20,  0.20,  0.20,  0.20,  0.20,  0.20,  0.20,  0.20,  0.20,  0.20
! <Site:GroundReflectance:Snow:Daylighting>,Jan{dimensionless},Feb{dimensionless},Mar{dimensionless},Apr{dimensionless},May{dimensionless},Jun{dimensionless},Jul{dimensionless},Aug{dimensionless},Sep{dimensionless},Oct{dimensionless},Nov{dimensionless},Dec{dimensionless}
 Site:GroundReflectance:Snow:Daylighting,  0.20,  0.20,  0.20,  0.20,  0.20,  0.20,  0.20,  0.20,  0.20,  0.20,  0.20,  0.20
! <Environment:Weather Station>,Wind Sensor Height Above Ground {m},Wind Speed Profile Exponent {},Wind Speed Profile Boundary Layer Thickness {m},Air Temperature Sensor Height Above Ground {m},Wind Speed Modifier Coefficient-Internal,Temperature Modifier Coefficient-Internal
Environment:Weather Station,10.000,0.140,270.000,1.500,1.586,9.750E-003
! <Site:Location>, Location Name, Latitude {N+/S- Deg}, Longitude {E+/W- Deg},  Time Zone Number {GMT+/-}, Elevation {m},  Standard Pressure at Elevation {Pa}, Standard RhoAir at Elevation
Site:Location,Fort McMurray AP AB CAN CWEC2016 WMO#=716890,56.65,-111.22,-7.00,369.10,96969,1.1525
! <Building Information>, Building Name,North Axis {deg},Terrain,  Loads Convergence Tolerance Value,Temperature Convergence Tolerance Value,  Solar Distribution,Maximum Number of Warmup Days,Minimum Number of Warmup Days
 Building Information,Building 1,0.000,Suburbs,4.00000E-002,0.40000,FullExterior,25,6
! <Inside Convection Algorithm>, Algorithm {Simple | TARP | CeilingDiffuser | AdaptiveConvectionAlgorithm}
Inside Convection Algorithm,TARP
! <Outside Convection Algorithm>, Algorithm {SimpleCombined | TARP | MoWitt | DOE-2 | AdaptiveConvectionAlgorithm}
Outside Convection Algorithm,TARP
! <Sky Radiance Distribution>, Value {Anisotropic}
Sky Radiance Distribution,Anisotropic
! <Zone Air Solution Algorithm>, Value {ThirdOrderBackwardDifference | AnalyticalSolution | EulerMethod}
 Zone Air Solution Algorithm, ThirdOrderBackwardDifference
! <Zone Air Carbon Dioxide Balance Simulation>, Simulation {Yes/No}, Carbon Dioxide Concentration
 Zone Air Carbon Dioxide Balance Simulation, No,N/A
! <Zone Air Generic Contaminant Balance Simulation>, Simulation {Yes/No}, Generic Contaminant Concentration
 Zone Air Generic Contaminant Balance Simulation, No,N/A
! <Zone Air Mass Flow Balance Simulation>, Enforce Mass Balance, Adjust Zone Mixing, Adjust Zone Infiltration {AddInfiltration | AdjustInfiltration | None}, Infiltration Zones {MixingSourceZonesOnly | AllZones}
 Zone Air Mass Flow Balance Simulation, No,N/A,N/A,N/A
! <HVACSystemRootFindingAlgorithm>, Value {RegulaFalsi | Bisection | BisectionThenRegulaFalsi | RegulaFalsiThenBisection}
 HVACSystemRootFindingAlgorithm, RegulaFalsi
! <Environment:Site Atmospheric Variation>,Wind Speed Profile Exponent {},Wind Speed Profile Boundary Layer Thickness {m},Air Temperature Gradient Coefficient {K/m}
Environment:Site Atmospheric Variation,0.220,370.000,6.500000E-003
! <Surface Geometry>,Starting Corner,Vertex Input Direction,Coordinate System,Daylight Reference Point Coordinate System,Rectangular (Simple) Surface Coordinate System
 Surface Geometry,UpperLeftCorner,Counterclockwise,RelativeCoordinateSystem,RelativeCoordinateSystem,RelativeToZoneOrigin
! <Surface Heat Transfer Algorithm>, Value {CTF - ConductionTransferFunction | EMPD - MoisturePenetrationDepthConductionTransferFunction | CondFD - ConductionFiniteDifference | HAMT - CombinedHeatAndMoistureFiniteElement} - Description,Inside Surface Max Temperature Limit{C}, Surface Convection Coefficient Lower Limit {W/m2-K}, Surface Convection Coefficient Upper Limit {W/m2-K}
Surface Heat Transfer Algorithm, CTF - ConductionTransferFunction,200,0.10,1000.0
! <Shading Summary>, Number of Fixed Detached Shades, Number of Building Detached Shades, Number of Attached Shades
 Shading Summary,0,0,0
! <Zone Summary>, Number of Zones, Number of Zone Surfaces, Number of SubSurfaces
 Zone Summary,20,137,17
! <Zone Information>,Zone Name,North Axis {deg},Origin X-Coordinate {m},Origin Y-Coordinate {m},Origin Z-Coordinate {m},Centroid X-Coordinate {m},Centroid Y-Coordinate {m},Centroid Z-Coordinate {m},Type,Zone Multiplier,Zone List Multiplier,Minimum X {m},Maximum X {m},Minimum Y {m},Maximum Y {m},Minimum Z {m},Maximum Z {m},Ceiling Height {m},Volume {m3},Zone Inside Convection Algorithm {Simple-Detailed-CeilingDiffuser-TrombeWall},Zone Outside Convection Algorithm {Simple-Detailed-Tarp-MoWitt-DOE-2-BLAST}, Floor Area {m2},Exterior Gross Wall Area {m2},Exterior Net Wall Area {m2},Exterior Window Area {m2}, Number of Surfaces, Number of SubSurfaces, Number of Shading SubSurfaces,  Part of Total Building Area
 Zone Information, LAB - RESEARCH-SPACE FUNCTION ZN,0.0,75.00,25.00,11.40,89.15,50.00,13.30,1,1,1,75.00,100.00,0.00,100.00,11.40,15.20,3.80,7125.00,TARP,TARP,1875.00,380.00,285.00,188.75,6,2,0,Yes
 Zone Information, LIBRARY - CATALOGING-SPACE FUNCTION ZN,0.0,0.00,0.00,7.60,10.85,50.00,9.50,1,1,1,0.00,25.00,0.00,100.00,7.60,11.40,3.80,7125.00,TARP,TARP,1875.00,380.00,285.00,95.00,6,1,0,Yes
 Zone Information, LIBRARY - READING-SPACE FUNCTION ZN,0.0,0.00,0.00,11.40,10.85,50.00,13.30,1,1,1,0.00,25.00,0.00,100.00,11.40,15.20,3.80,7125.00,TARP,TARP,1875.00,380.00,285.00,188.75,6,2,0,Yes
 Zone Information, LIBRARY - STACKS-SPACE FUNCTION ZN,0.0,0.00,0.00,0.00,10.85,50.00,1.90,1,1,1,0.00,25.00,0.00,100.00,0.00,3.80,3.80,7125.00,TARP,TARP,1875.00,0.00,0.00,0.00,6,0,0,Yes
 Zone Information, LOBBY - ELEVATOR-SPACE FUNCTION ZN,0.0,75.00,25.00,0.00,89.15,50.00,1.90,1,1,1,75.00,100.00,0.00,100.00,0.00,3.80,3.80,7125.00,TARP,TARP,1875.00,0.00,0.00,0.00,6,0,0,Yes
 Zone Information, LOBBY - MOTION PICTURE-SPACE FUNCTION ZN,0.0,25.00,25.00,0.00,50.00,50.00,1.90,1,1,1,25.00,75.00,25.00,75.00,0.00,3.80,3.80,9500.00,TARP,TARP,2500.00,0.00,0.00,0.00,6,0,0,Yes
 Zone Information, LOBBY - OTHER-SPACE FUNCTION ZN,0.0,0.00,0.00,11.40,50.00,10.85,13.30,1,1,1,0.00,100.00,0.00,25.00,11.40,15.20,3.80,7125.00,TARP,TARP,1875.00,380.00,285.00,188.75,6,2,0,Yes
 Zone Information, LOBBY - PERFORMANCE ARTS-SPACE FUNCTION ZN,0.0,0.00,0.00,3.80,50.00,10.85,5.70,1,1,1,0.00,100.00,0.00,25.00,3.80,7.60,3.80,7125.00,TARP,TARP,1875.00,380.00,285.00,95.00,6,1,0,Yes
 Zone Information, LOUNGE/RECREATION-SPACE FUNCTION ZN,0.0,25.00,25.00,11.40,50.00,50.00,13.30,1,1,1,25.00,75.00,25.00,75.00,11.40,15.20,3.80,9500.00,TARP,TARP,2500.00,0.00,0.00,125.00,6,1,0,Yes
 Zone Information, MFG - 7.5 <= BAY H <= 15M-SPACE FUNCTION ZN,0.0,25.00,75.00,7.60,50.00,89.15,9.50,1,1,1,0.00,100.00,75.00,100.00,7.60,11.40,3.80,7125.00,TARP,TARP,1875.00,380.00,285.00,95.00,6,1,0,Yes
 Zone Information, MFG - BAY H < 7.5M-SPACE FUNCTION ZN,0.0,25.00,75.00,0.00,50.00,89.15,1.90,1,1,1,0.00,100.00,75.00,100.00,0.00,3.80,3.80,7125.00,TARP,TARP,1875.00,0.00,0.00,0.00,6,0,0,Yes
 Zone Information, MFG - BAY H > 15M-SPACE FUNCTION ZN,0.0,25.00,25.00,7.60,50.00,50.00,9.50,1,1,1,25.00,75.00,25.00,75.00,7.60,11.40,3.80,9500.00,TARP,TARP,2500.00,0.00,0.00,0.00,6,0,0,Yes
 Zone Information, MFG - CORR. < 2.4M-SCH-A-SPACE FUNCTION ZN,0.0,0.00,0.00,7.60,50.00,10.85,9.50,1,1,1,0.00,100.00,0.00,25.00,7.60,11.40,3.80,7125.00,TARP,TARP,1875.00,380.00,285.00,95.00,6,1,0,Yes
 Zone Information, MFG - CORR. < 2.4M-SCH-B-SPACE FUNCTION ZN,0.0,0.00,0.00,0.00,50.00,10.85,1.90,1,1,1,0.00,100.00,0.00,25.00,0.00,3.80,3.80,7125.00,TARP,TARP,1875.00,0.00,0.00,0.00,6,0,0,Yes
 Zone Information, MFG - CORR. < 2.4M-SCH-C-SPACE FUNCTION ZN,0.0,25.00,75.00,11.40,50.00,89.15,13.30,1,1,1,0.00,100.00,75.00,100.00,11.40,15.20,3.80,7125.00,TARP,TARP,1875.00,380.00,285.00,188.75,6,2,0,Yes
 Zone Information, MFG - CORR. < 2.4M-SCH-D-SPACE FUNCTION ZN,0.0,0.00,0.00,3.80,10.85,50.00,5.70,1,1,1,0.00,25.00,0.00,100.00,3.80,7.60,3.80,7125.00,TARP,TARP,1875.00,380.00,285.00,95.00,6,1,0,Yes
 Zone Information, MFG - CORR. < 2.4M-SCH-E-SPACE FUNCTION ZN,0.0,25.00,75.00,3.80,50.00,89.15,5.70,1,1,1,0.00,100.00,75.00,100.00,3.80,7.60,3.80,7125.00,TARP,TARP,1875.00,380.00,285.00,95.00,6,1,0,Yes
 Zone Information, MFG - CORR. < 2.4M-SCH-F-SPACE FUNCTION ZN,0.0,75.00,25.00,7.60,89.15,50.00,9.50,1,1,1,75.00,100.00,0.00,100.00,7.60,11.40,3.80,7125.00,TARP,TARP,1875.00,380.00,285.00,95.00,6,1,0,Yes
 Zone Information, MFG - CORR. < 2.4M-SCH-G-SPACE FUNCTION ZN,0.0,75.00,25.00,3.80,89.15,50.00,5.70,1,1,1,75.00,100.00,0.00,100.00,3.80,7.60,3.80,7125.00,TARP,TARP,1875.00,380.00,285.00,95.00,6,1,0,Yes
 Zone Information, MFG - CORR. < 2.4M-SCH-H-SPACE FUNCTION ZN,0.0,25.00,25.00,3.80,50.00,50.00,5.70,1,1,1,25.00,75.00,25.00,75.00,3.80,7.60,3.80,9500.00,TARP,TARP,2500.00,0.00,0.00,0.00,6,0,0,Yes
! <Zone Internal Gains Nominal>,Zone Name, Floor Area {m2},# Occupants,Area per Occupant {m2/person},Occupant per Area {person/m2},Interior Lighting {W/m2},Electric Load {W/m2},Gas Load {W/m2},Other Load {W/m2},Hot Water Eq {W/m2},Steam Equipment {W/m2},Sum Loads per Area {W/m2},Outdoor Controlled Baseboard Heat
 Zone Internal Gains Nominal, LAB - RESEARCH-SPACE FUNCTION ZN,1875.00,93.8,19.979,5.005E-002,23.600,10.000,0.000,0.000,0.000,0.000,33.600,No
 Zone Internal Gains Nominal, LIBRARY - CATALOGING-SPACE FUNCTION ZN,1875.00,93.8,19.979,5.005E-002,7.800,2.500,0.000,0.000,0.000,0.000,10.300,No
 Zone Internal Gains Nominal, LIBRARY - READING-SPACE FUNCTION ZN,1875.00,93.8,19.979,5.005E-002,10.000,1.000,0.000,0.000,0.000,0.000,11.000,No
 Zone Internal Gains Nominal, LIBRARY - STACKS-SPACE FUNCTION ZN,1875.00,93.8,19.979,5.005E-002,22.900,0.000,0.000,0.000,0.000,0.000,22.900,No
 Zone Internal Gains Nominal, LOBBY - ELEVATOR-SPACE FUNCTION ZN,1875.00,187.5,10.000,10.000E-002,6.900,1.000,0.000,0.000,0.000,0.000,7.900,No
 Zone Internal Gains Nominal, LOBBY - MOTION PICTURE-SPACE FUNCTION ZN,2500.00,250.0,10.000,10.000E-002,5.600,1.000,0.000,0.000,0.000,0.000,6.600,No
 Zone Internal Gains Nominal, LOBBY - OTHER-SPACE FUNCTION ZN,1875.00,187.5,10.000,10.000E-002,9.700,1.000,0.000,0.000,0.000,0.000,10.700,No
 Zone Internal Gains Nominal, LOBBY - PERFORMANCE ARTS-SPACE FUNCTION ZN,1875.00,187.5,10.000,10.000E-002,21.500,1.000,0.000,0.000,0.000,0.000,22.500,No
 Zone Internal Gains Nominal, LOUNGE/RECREATION-SPACE FUNCTION ZN,2500.00,250.0,10.000,10.000E-002,8.460,1.000,0.000,0.000,0.000,0.000,9.460,No
 Zone Internal Gains Nominal, MFG - 7.5 <= BAY H <= 15M-SPACE FUNCTION ZN,1875.00,62.6,29.969,3.337E-002,13.200,10.000,0.000,0.000,0.000,0.000,23.200,No
 Zone Internal Gains Nominal, MFG - BAY H < 7.5M-SPACE FUNCTION ZN,1875.00,62.6,29.969,3.337E-002,12.800,10.000,0.000,0.000,0.000,0.000,22.800,No
 Zone Internal Gains Nominal, MFG - BAY H > 15M-SPACE FUNCTION ZN,2500.00,83.4,29.969,3.337E-002,11.300,10.000,0.000,0.000,0.000,0.000,21.300,No
 Zone Internal Gains Nominal, MFG - CORR. < 2.4M-SCH-A-SPACE FUNCTION ZN,1875.00,18.8,99.896,1.001E-002,5.500,0.000,0.000,0.000,0.000,0.000,5.500,No
 Zone Internal Gains Nominal, MFG - CORR. < 2.4M-SCH-B-SPACE FUNCTION ZN,1875.00,18.8,99.896,1.001E-002,5.500,0.000,0.000,0.000,0.000,0.000,5.500,No
 Zone Internal Gains Nominal, MFG - CORR. < 2.4M-SCH-C-SPACE FUNCTION ZN,1875.00,18.8,99.896,1.001E-002,5.500,0.000,0.000,0.000,0.000,0.000,5.500,No
 Zone Internal Gains Nominal, MFG - CORR. < 2.4M-SCH-D-SPACE FUNCTION ZN,1875.00,18.8,99.896,1.001E-002,5.500,0.000,0.000,0.000,0.000,0.000,5.500,No
 Zone Internal Gains Nominal, MFG - CORR. < 2.4M-SCH-E-SPACE FUNCTION ZN,1875.00,18.8,99.896,1.001E-002,5.500,0.000,0.000,0.000,0.000,0.000,5.500,No
 Zone Internal Gains Nominal, MFG - CORR. < 2.4M-SCH-F-SPACE FUNCTION ZN,1875.00,18.8,99.896,1.001E-002,5.500,0.000,0.000,0.000,0.000,0.000,5.500,No
 Zone Internal Gains Nominal, MFG - CORR. < 2.4M-SCH-G-SPACE FUNCTION ZN,1875.00,18.8,99.896,1.001E-002,5.500,0.000,0.000,0.000,0.000,0.000,5.500,No
 Zone Internal Gains Nominal, MFG - CORR. < 2.4M-SCH-H-SPACE FUNCTION ZN,2500.00,25.0,99.896,1.001E-002,5.500,0.000,0.000,0.000,0.000,0.000,5.500,No
! <People Internal Gains Nominal>,Name,Schedule Name,Zone Name,Zone Floor Area {m2},# Zone Occupants,Number of People {},People/Floor Area {person/m2},Floor Area per person {m2/person},Fraction Radiant,Fraction Convected,Sensible Fraction Calculation,Activity level,ASHRAE 55 Warnings,Carbon Dioxide Generation Rate,Nominal Minimum Number of People,Nominal Maximum Number of People
 People Internal Gains Nominal, LAB - RESEARCH-SPACE FUNCTION ZN SPACE FUNCTION LAB - RESEARCH PEOPLE,NECB-A-OCCUPANCY,LAB - RESEARCH-SPACE FUNCTION ZN,1875.00,93.8,93.8,5.005E-002,19.979,0.300,0.700,AutoCalculate,NECB-ACTIVITY,No,3.8200E-008,0,84
 People Internal Gains Nominal, LIBRARY - CATALOGING-SPACE FUNCTION ZN SPACE FUNCTION LIBRARY - CATALOGING PEOPLE,NECB-C-OCCUPANCY,LIBRARY - CATALOGING-SPACE FUNCTION ZN,1875.00,93.8,93.8,5.005E-002,19.979,0.300,0.700,AutoCalculate,NECB-ACTIVITY,No,3.8200E-008,0,84
 People Internal Gains Nominal, LIBRARY - READING-SPACE FUNCTION ZN SPACE FUNCTION LIBRARY - READING PEOPLE,NECB-C-OCCUPANCY,LIBRARY - READING-SPACE FUNCTION ZN,1875.00,93.8,93.8,5.005E-002,19.979,0.300,0.700,AutoCalculate,NECB-ACTIVITY,No,3.8200E-008,0,84
 People Internal Gains Nominal, LIBRARY - STACKS-SPACE FUNCTION ZN SPACE FUNCTION LIBRARY - STACKS PEOPLE,NECB-C-OCCUPANCY,LIBRARY - STACKS-SPACE FUNCTION ZN,1875.00,93.8,93.8,5.005E-002,19.979,0.300,0.700,AutoCalculate,NECB-ACTIVITY,No,3.8200E-008,0,84
 People Internal Gains Nominal, LOBBY - ELEVATOR-SPACE FUNCTION ZN SPACE FUNCTION LOBBY - ELEVATOR PEOPLE,NECB-C-OCCUPANCY,LOBBY - ELEVATOR-SPACE FUNCTION ZN,1875.00,187.5,187.5,10.000E-002,10.000,0.300,0.700,AutoCalculate,NECB-ACTIVITY,No,3.8200E-008,0,169
 People Internal Gains Nominal, LOBBY - MOTION PICTURE-SPACE FUNCTION ZN SPACE FUNCTION LOBBY - MOTION PICTURE PEOPLE,NECB-C-OCCUPANCY,LOBBY - MOTION PICTURE-SPACE FUNCTION ZN,2500.00,250.0,250.0,10.000E-002,10.000,0.300,0.700,AutoCalculate,NECB-ACTIVITY,No,3.8200E-008,0,225
 People Internal Gains Nominal, LOBBY - OTHER-SPACE FUNCTION ZN SPACE FUNCTION LOBBY - OTHER PEOPLE,NECB-C-OCCUPANCY,LOBBY - OTHER-SPACE FUNCTION ZN,1875.00,187.5,187.5,10.000E-002,10.000,0.300,0.700,AutoCalculate,NECB-ACTIVITY,No,3.8200E-008,0,169
 People Internal Gains Nominal, LOBBY - PERFORMANCE ARTS-SPACE FUNCTION ZN SPACE FUNCTION LOBBY - PERFORMANCE ARTS PEOPLE,NECB-C-OCCUPANCY,LOBBY - PERFORMANCE ARTS-SPACE FUNCTION ZN,1875.00,187.5,187.5,10.000E-002,10.000,0.300,0.700,AutoCalculate,NECB-ACTIVITY,No,3.8200E-008,0,169
 People Internal Gains Nominal, LOUNGE/RECREATION-SPACE FUNCTION ZN SPACE FUNCTION LOUNGE/RECREATION PEOPLE,NECB-B-OCCUPANCY,LOUNGE/RECREATION-SPACE FUNCTION ZN,2500.00,250.0,250.0,10.000E-002,10.000,0.300,0.700,AutoCalculate,NECB-ACTIVITY,No,3.8200E-008,0,225
 People Internal Gains Nominal, MFG - 7.5 <= BAY H <= 15M-SPACE FUNCTION ZN SPACE FUNCTION MFG - 7.5 <= BAY H <= 15M PEOPLE,NECB-A-OCCUPANCY,MFG - 7.5 <= BAY H <= 15M-SPACE FUNCTION ZN,1875.00,62.6,62.6,3.337E-002,29.969,0.300,0.700,AutoCalculate,NECB-ACTIVITY,No,3.8200E-008,0,56
 People Internal Gains Nominal, MFG - BAY H < 7.5M-SPACE FUNCTION ZN SPACE FUNCTION MFG - BAY H < 7.5M PEOPLE,NECB-A-OCCUPANCY,MFG - BAY H < 7.5M-SPACE FUNCTION ZN,1875.00,62.6,62.6,3.337E-002,29.969,0.300,0.700,AutoCalculate,NECB-ACTIVITY,No,3.8200E-008,0,56
 People Internal Gains Nominal, MFG - BAY H > 15M-SPACE FUNCTION ZN SPACE FUNCTION MFG - BAY H > 15M PEOPLE,NECB-A-OCCUPANCY,MFG - BAY H > 15M-SPACE FUNCTION ZN,2500.00,83.4,83.4,3.337E-002,29.969,0.300,0.700,AutoCalculate,NECB-ACTIVITY,No,3.8200E-008,0,75
 People Internal Gains Nominal, MFG - CORR. < 2.4M-SCH-A-SPACE FUNCTION ZN SPACE FUNCTION MFG - CORR. < 2.4M-SCH-A PEOPLE,NECB-A-OCCUPANCY,MFG - CORR. < 2.4M-SCH-A-SPACE FUNCTION ZN,1875.00,18.8,18.8,1.001E-002,99.896,0.300,0.700,AutoCalculate,NECB-ACTIVITY,No,3.8200E-008,0,17
 People Internal Gains Nominal, MFG - CORR. < 2.4M-SCH-B-SPACE FUNCTION ZN SPACE FUNCTION MFG - CORR. < 2.4M-SCH-B PEOPLE,NECB-B-OCCUPANCY,MFG - CORR. < 2.4M-SCH-B-SPACE FUNCTION ZN,1875.00,18.8,18.8,1.001E-002,99.896,0.300,0.700,AutoCalculate,NECB-ACTIVITY,No,3.8200E-008,0,17
 People Internal Gains Nominal, MFG - CORR. < 2.4M-SCH-C-SPACE FUNCTION ZN SPACE FUNCTION MFG - CORR. < 2.4M-SCH-C PEOPLE,NECB-C-OCCUPANCY,MFG - CORR. < 2.4M-SCH-C-SPACE FUNCTION ZN,1875.00,18.8,18.8,1.001E-002,99.896,0.300,0.700,AutoCalculate,NECB-ACTIVITY,No,3.8200E-008,0,17
 People Internal Gains Nominal, MFG - CORR. < 2.4M-SCH-D-SPACE FUNCTION ZN SPACE FUNCTION MFG - CORR. < 2.4M-SCH-D PEOPLE,NECB-D-OCCUPANCY,MFG - CORR. < 2.4M-SCH-D-SPACE FUNCTION ZN,1875.00,18.8,18.8,1.001E-002,99.896,0.300,0.700,AutoCalculate,NECB-ACTIVITY,No,3.8200E-008,0,17
 People Internal Gains Nominal, MFG - CORR. < 2.4M-SCH-E-SPACE FUNCTION ZN SPACE FUNCTION MFG - CORR. < 2.4M-SCH-E PEOPLE,NECB-E-OCCUPANCY,MFG - CORR. < 2.4M-SCH-E-SPACE FUNCTION ZN,1875.00,18.8,18.8,1.001E-002,99.896,0.300,0.700,AutoCalculate,NECB-ACTIVITY,No,3.8200E-008,0,17
 People Internal Gains Nominal, MFG - CORR. < 2.4M-SCH-F-SPACE FUNCTION ZN SPACE FUNCTION MFG - CORR. < 2.4M-SCH-F PEOPLE,NECB-F-OCCUPANCY,MFG - CORR. < 2.4M-SCH-F-SPACE FUNCTION ZN,1875.00,18.8,18.8,1.001E-002,99.896,0.300,0.700,AutoCalculate,NECB-ACTIVITY,No,3.8200E-008,4,17
 People Internal Gains Nominal, MFG - CORR. < 2.4M-SCH-G-SPACE FUNCTION ZN SPACE FUNCTION MFG - CORR. < 2.4M-SCH-G PEOPLE,NECB-G-OCCUPANCY,MFG - CORR. < 2.4M-SCH-G-SPACE FUNCTION ZN,1875.00,18.8,18.8,1.001E-002,99.896,0.300,0.700,AutoCalculate,NECB-ACTIVITY,No,3.8200E-008,6,17
 People Internal Gains Nominal, MFG - CORR. < 2.4M-SCH-H-SPACE FUNCTION ZN SPACE FUNCTION MFG - CORR. < 2.4M-SCH-H PEOPLE,NECB-H-OCCUPANCY,MFG - CORR. < 2.4M-SCH-H-SPACE FUNCTION ZN,2500.00,25.0,25.0,1.001E-002,99.896,0.300,0.700,AutoCalculate,NECB-ACTIVITY,No,3.8200E-008,23,23
! <Lights Internal Gains Nominal>,Name,Schedule Name,Zone Name,Zone Floor Area {m2},# Zone Occupants,Lighting Level {W},Lights/Floor Area {W/m2},Lights per person {W/person},Fraction Return Air,Fraction Radiant,Fraction Short Wave,Fraction Convected,Fraction Replaceable,End-Use Category,Nominal Minimum Lighting Level {W},Nominal Maximum Lighting Level {W}
 Lights Internal Gains Nominal, LAB - RESEARCH-SPACE FUNCTION ZN SPACE FUNCTION LAB - RESEARCH LIGHTS,NECB-A-LIGHTING,LAB - RESEARCH-SPACE FUNCTION ZN,1875.00,93.8,44249.632,23.600,471.504,0.000,0.500,0.200,0.300,1.000,General,2212.482,39824.669
 Lights Internal Gains Nominal, LIBRARY - CATALOGING-SPACE FUNCTION ZN SPACE FUNCTION LIBRARY - CATALOGING LIGHTS,NECB-C-LIGHTING,LIBRARY - CATALOGING-SPACE FUNCTION ZN,1875.00,93.8,14624.878,7.800,155.836,0.000,0.500,0.200,0.300,1.000,General,731.244,13162.390
 Lights Internal Gains Nominal, LIBRARY - READING-SPACE FUNCTION ZN SPACE FUNCTION LIBRARY - READING LIGHTS,NECB-C-LIGHTING,LIBRARY - READING-SPACE FUNCTION ZN,1875.00,93.8,18749.844,10.000,199.790,0.000,0.500,0.200,0.300,1.000,General,937.492,16874.860
 Lights Internal Gains Nominal, LIBRARY - STACKS-SPACE FUNCTION ZN SPACE FUNCTION LIBRARY - STACKS LIGHTS,NECB-C-LIGHTING,LIBRARY - STACKS-SPACE FUNCTION ZN,1875.00,93.8,42937.143,22.900,457.519,0.000,0.500,0.200,0.300,1.000,General,2146.857,38643.428
 Lights Internal Gains Nominal, LOBBY - ELEVATOR-SPACE FUNCTION ZN SPACE FUNCTION LOBBY - ELEVATOR LIGHTS,NECB-C-LIGHTING,LOBBY - ELEVATOR-SPACE FUNCTION ZN,1875.00,187.5,12937.392,6.900,69.002,0.000,0.500,0.200,0.300,1.000,General,646.870,11643.653
 Lights Internal Gains Nominal, LOBBY - MOTION PICTURE-SPACE FUNCTION ZN SPACE FUNCTION LOBBY - MOTION PICTURE LIGHTS,NECB-C-LIGHTING,LOBBY - MOTION PICTURE-SPACE FUNCTION ZN,2500.00,250.0,13999.883,5.600,56.001,0.000,0.500,0.200,0.300,1.000,General,699.994,12599.895
 Lights Internal Gains Nominal, LOBBY - OTHER-SPACE FUNCTION ZN SPACE FUNCTION LOBBY - OTHER LIGHTS,NECB-C-LIGHTING,LOBBY - OTHER-SPACE FUNCTION ZN,1875.00,187.5,18187.349,9.700,97.002,0.000,0.500,0.200,0.300,1.000,General,909.367,16368.614
 Lights Internal Gains Nominal, LOBBY - PERFORMANCE ARTS-SPACE FUNCTION ZN SPACE FUNCTION LOBBY - PERFORMANCE ARTS LIGHTS,NECB-C-LIGHTING,LOBBY - PERFORMANCE ARTS-SPACE FUNCTION ZN,1875.00,187.5,40312.165,21.500,215.005,0.000,0.500,0.200,0.300,1.000,General,2015.608,36280.948
 Lights Internal Gains Nominal, LOUNGE/RECREATION-SPACE FUNCTION ZN SPACE FUNCTION LOUNGE/RECREATION LIGHTS,NECB-B-LIGHTING,LOUNGE/RECREATION-SPACE FUNCTION ZN,2500.00,250.0,21149.824,8.460,84.602,0.000,0.500,0.200,0.300,1.000,General,2114.982,19034.842
 Lights Internal Gains Nominal, MFG - 7.5 <= BAY H <= 15M-SPACE FUNCTION ZN SPACE FUNCTION MFG - 7.5 <= BAY H <= 15M LIGHTS,NECB-A-LIGHTING,MFG - 7.5 <= BAY H <= 15M-SPACE FUNCTION ZN,1875.00,62.6,24749.794,13.200,395.584,0.000,0.500,0.200,0.300,1.000,General,1237.490,22274.815
 Lights Internal Gains Nominal, MFG - BAY H < 7.5M-SPACE FUNCTION ZN SPACE FUNCTION MFG - BAY H < 7.5M LIGHTS,NECB-A-LIGHTING,MFG - BAY H < 7.5M-SPACE FUNCTION ZN,1875.00,62.6,23999.800,12.800,383.596,0.000,0.500,0.200,0.300,1.000,General,1199.990,21599.820
 Lights Internal Gains Nominal, MFG - BAY H > 15M-SPACE FUNCTION ZN SPACE FUNCTION MFG - BAY H > 15M LIGHTS,NECB-A-LIGHTING,MFG - BAY H > 15M-SPACE FUNCTION ZN,2500.00,83.4,28249.765,11.300,338.644,0.000,0.500,0.200,0.300,1.000,General,1412.488,25424.788
 Lights Internal Gains Nominal, MFG - CORR. < 2.4M-SCH-A-SPACE FUNCTION ZN SPACE FUNCTION MFG - CORR. < 2.4M-SCH-A LIGHTS,NECB-A-LIGHTING,MFG - CORR. < 2.4M-SCH-A-SPACE FUNCTION ZN,1875.00,18.8,10312.414,5.500,549.422,0.000,0.500,0.200,0.300,1.000,General,515.621,9281.173
 Lights Internal Gains Nominal, MFG - CORR. < 2.4M-SCH-B-SPACE FUNCTION ZN SPACE FUNCTION MFG - CORR. < 2.4M-SCH-B LIGHTS,NECB-B-LIGHTING,MFG - CORR. < 2.4M-SCH-B-SPACE FUNCTION ZN,1875.00,18.8,10312.414,5.500,549.422,0.000,0.500,0.200,0.300,1.000,General,1031.241,9281.173
 Lights Internal Gains Nominal, MFG - CORR. < 2.4M-SCH-C-SPACE FUNCTION ZN SPACE FUNCTION MFG - CORR. < 2.4M-SCH-C LIGHTS,NECB-C-LIGHTING,MFG - CORR. < 2.4M-SCH-C-SPACE FUNCTION ZN,1875.00,18.8,10312.414,5.500,549.422,0.000,0.500,0.200,0.300,1.000,General,515.621,9281.173
 Lights Internal Gains Nominal, MFG - CORR. < 2.4M-SCH-D-SPACE FUNCTION ZN SPACE FUNCTION MFG - CORR. < 2.4M-SCH-D LIGHTS,NECB-D-LIGHTING,MFG - CORR. < 2.4M-SCH-D-SPACE FUNCTION ZN,1875.00,18.8,10312.414,5.500,549.422,0.000,0.500,0.200,0.300,1.000,General,515.621,9281.173
 Lights Internal Gains Nominal, MFG - CORR. < 2.4M-SCH-E-SPACE FUNCTION ZN SPACE FUNCTION MFG - CORR. < 2.4M-SCH-E LIGHTS,NECB-E-LIGHTING,MFG - CORR. < 2.4M-SCH-E-SPACE FUNCTION ZN,1875.00,18.8,10312.414,5.500,549.422,0.000,0.500,0.200,0.300,1.000,General,515.621,9281.173
 Lights Internal Gains Nominal, MFG - CORR. < 2.4M-SCH-F-SPACE FUNCTION ZN SPACE FUNCTION MFG - CORR. < 2.4M-SCH-F LIGHTS,NECB-F-LIGHTING,MFG - CORR. < 2.4M-SCH-F-SPACE FUNCTION ZN,1875.00,18.8,10312.414,5.500,549.422,0.000,0.500,0.200,0.300,1.000,General,1031.241,9281.173
 Lights Internal Gains Nominal, MFG - CORR. < 2.4M-SCH-G-SPACE FUNCTION ZN SPACE FUNCTION MFG - CORR. < 2.4M-SCH-G LIGHTS,NECB-G-LIGHTING,MFG - CORR. < 2.4M-SCH-G-SPACE FUNCTION ZN,1875.00,18.8,10312.414,5.500,549.422,0.000,0.500,0.200,0.300,1.000,General,0.000,9281.173
 Lights Internal Gains Nominal, MFG - CORR. < 2.4M-SCH-H-SPACE FUNCTION ZN SPACE FUNCTION MFG - CORR. < 2.4M-SCH-H LIGHTS,NECB-H-LIGHTING,MFG - CORR. < 2.4M-SCH-H-SPACE FUNCTION ZN,2500.00,25.0,13749.886,5.500,549.422,0.000,0.500,0.200,0.300,1.000,General,12374.897,12374.897
! <ElectricEquipment Internal Gains Nominal>,Name,Schedule Name,Zone Name,Zone Floor Area {m2},# Zone Occupants,Equipment Level {W},Equipment/Floor Area {W/m2},Equipment per person {W/person},Fraction Latent,Fraction Radiant,Fraction Lost,Fraction Convected,End-Use SubCategory,Nominal Minimum Equipment Level {W},Nominal Maximum Equipment Level {W}
 ElectricEquipment Internal Gains Nominal, LAB - RESEARCH-SPACE FUNCTION ZN SPACE FUNCTION LAB - RESEARCH ELEC EQUIP,NECB-A-ELECTRIC-EQUIPMENT,LAB - RESEARCH-SPACE FUNCTION ZN,1875.00,93.8,18749.844,10.000,199.790,0.000,0.500,0.000,0.500,General,3749.969,16874.860
 ElectricEquipment Internal Gains Nominal, LIBRARY - CATALOGING-SPACE FUNCTION ZN SPACE FUNCTION LIBRARY - CATALOGING ELEC EQUIP,NECB-C-ELECTRIC-EQUIPMENT,LIBRARY - CATALOGING-SPACE FUNCTION ZN,1875.00,93.8,4687.461,2.500,49.947,0.000,0.500,0.000,0.500,General,234.373,4218.715
 ElectricEquipment Internal Gains Nominal, LIBRARY - READING-SPACE FUNCTION ZN SPACE FUNCTION LIBRARY - READING ELEC EQUIP,NECB-C-ELECTRIC-EQUIPMENT,LIBRARY - READING-SPACE FUNCTION ZN,1875.00,93.8,1874.984,1.000,19.979,0.000,0.500,0.000,0.500,General,93.749,1687.486
 ElectricEquipment Internal Gains Nominal, LOBBY - ELEVATOR-SPACE FUNCTION ZN SPACE FUNCTION LOBBY - ELEVATOR ELEC EQUIP,NECB-C-ELECTRIC-EQUIPMENT,LOBBY - ELEVATOR-SPACE FUNCTION ZN,1875.00,187.5,1874.984,1.000,10.000,0.000,0.500,0.000,0.500,General,93.749,1687.486
 ElectricEquipment Internal Gains Nominal, LOBBY - MOTION PICTURE-SPACE FUNCTION ZN SPACE FUNCTION LOBBY - MOTION PICTURE ELEC EQUIP,NECB-C-ELECTRIC-EQUIPMENT,LOBBY - MOTION PICTURE-SPACE FUNCTION ZN,2500.00,250.0,2499.979,1.000,10.000,0.000,0.500,0.000,0.500,General,124.999,2249.981
 ElectricEquipment Internal Gains Nominal, LOBBY - OTHER-SPACE FUNCTION ZN SPACE FUNCTION LOBBY - OTHER ELEC EQUIP,NECB-C-ELECTRIC-EQUIPMENT,LOBBY - OTHER-SPACE FUNCTION ZN,1875.00,187.5,1874.984,1.000,10.000,0.000,0.500,0.000,0.500,General,93.749,1687.486
 ElectricEquipment Internal Gains Nominal, LOBBY - PERFORMANCE ARTS-SPACE FUNCTION ZN SPACE FUNCTION LOBBY - PERFORMANCE ARTS ELEC EQUIP,NECB-C-ELECTRIC-EQUIPMENT,LOBBY - PERFORMANCE ARTS-SPACE FUNCTION ZN,1875.00,187.5,1874.984,1.000,10.000,0.000,0.500,0.000,0.500,General,93.749,1687.486
 ElectricEquipment Internal Gains Nominal, LOUNGE/RECREATION-SPACE FUNCTION ZN SPACE FUNCTION LOUNGE/RECREATION ELEC EQUIP,NECB-B-ELECTRIC-EQUIPMENT,LOUNGE/RECREATION-SPACE FUNCTION ZN,2500.00,250.0,2499.979,1.000,10.000,0.000,0.500,0.000,0.500,General,249.998,2249.981
 ElectricEquipment Internal Gains Nominal, MFG - 7.5 <= BAY H <= 15M-SPACE FUNCTION ZN SPACE FUNCTION MFG - 7.5 <= BAY H <= 15M ELEC EQUIP,NECB-A-ELECTRIC-EQUIPMENT,MFG - 7.5 <= BAY H <= 15M-SPACE FUNCTION ZN,1875.00,62.6,18749.844,10.000,299.685,0.000,0.500,0.000,0.500,General,3749.969,16874.860
 ElectricEquipment Internal Gains Nominal, MFG - BAY H < 7.5M-SPACE FUNCTION ZN SPACE FUNCTION MFG - BAY H < 7.5M ELEC EQUIP,NECB-A-ELECTRIC-EQUIPMENT,MFG - BAY H < 7.5M-SPACE FUNCTION ZN,1875.00,62.6,18749.844,10.000,299.685,0.000,0.500,0.000,0.500,General,3749.969,16874.860
 ElectricEquipment Internal Gains Nominal, MFG - BAY H > 15M-SPACE FUNCTION ZN SPACE FUNCTION MFG - BAY H > 15M ELEC EQUIP,NECB-A-ELECTRIC-EQUIPMENT,MFG - BAY H > 15M-SPACE FUNCTION ZN,2500.00,83.4,24999.792,10.000,299.685,0.000,0.500,0.000,0.500,General,4999.958,22499.813
! <Shadowing/Sun Position Calculations Annual Simulations>, Calculation Method, Value {days}, Allowable Number Figures in Shadow Overlap {}, Polygon Clipping Algorithm, Sky Diffuse Modeling Algorithm, External Shading Calculation Method, Output External Shading Calculation Results, Disable Self-Shading Within Shading Zone Groups, Disable Self-Shading From Shading Zone Groups to Other Zones
Shadowing/Sun Position Calculations Annual Simulations,AverageOverDaysInFrequency,20,15000,SutherlandHodgman,SimpleSkyDiffuseModeling,InternalCalculation,No,No,No
! <ZoneInfiltration Airflow Stats Nominal>,Name,Schedule Name,Zone Name, Zone Floor Area {m2}, # Zone Occupants,Design Volume Flow Rate {m3/s},Volume Flow Rate/Floor Area {m3/s/m2},Volume Flow Rate/Exterior Surface Area {m3/s/m2},ACH - Air Changes per Hour,Equation A - Constant Term Coefficient {},Equation B - Temperature Term Coefficient {1/C},Equation C - Velocity Term Coefficient {s/m}, Equation D - Velocity Squared Term Coefficient {s2/m2}
 ZoneInfiltration Airflow Stats Nominal, LAB - RESEARCH-SPACE FUNCTION INFILTRATION,ALWAYS ON DISCRETE,LAB - RESEARCH-SPACE FUNCTION ZN,1875.00,93.8,0.564,3.007E-004,2.500E-004,0.285,0.000,0.000,0.224,0.000
 ZoneInfiltration Airflow Stats Nominal, LIBRARY - CATALOGING-SPACE FUNCTION INFILTRATION,ALWAYS ON DISCRETE,LIBRARY - CATALOGING-SPACE FUNCTION ZN,1875.00,93.8,9.500E-002,5.067E-005,2.500E-004,4.800E-002,0.000,0.000,0.224,0.000
 ZoneInfiltration Airflow Stats Nominal, LIBRARY - READING-SPACE FUNCTION INFILTRATION,ALWAYS ON DISCRETE,LIBRARY - READING-SPACE FUNCTION ZN,1875.00,93.8,0.564,3.007E-004,2.500E-004,0.285,0.000,0.000,0.224,0.000
 ZoneInfiltration Airflow Stats Nominal, LOBBY - OTHER-SPACE FUNCTION INFILTRATION,ALWAYS ON DISCRETE,LOBBY - OTHER-SPACE FUNCTION ZN,1875.00,187.5,0.564,3.007E-004,2.500E-004,0.285,0.000,0.000,0.224,0.000
 ZoneInfiltration Airflow Stats Nominal, LOBBY - PERFORMANCE ARTS-SPACE FUNCTION INFILTRATION,ALWAYS ON DISCRETE,LOBBY - PERFORMANCE ARTS-SPACE FUNCTION ZN,1875.00,187.5,9.500E-002,5.067E-005,2.500E-004,4.800E-002,0.000,0.000,0.224,0.000
 ZoneInfiltration Airflow Stats Nominal, LOUNGE/RECREATION-SPACE FUNCTION INFILTRATION,ALWAYS ON DISCRETE,LOUNGE/RECREATION-SPACE FUNCTION ZN,2500.00,250.0,0.625,2.500E-004,2.500E-004,0.237,0.000,0.000,0.224,0.000
 ZoneInfiltration Airflow Stats Nominal, MFG - 7.5 <= BAY H <= 15M-SPACE FUNCTION INFILTRATION,ALWAYS ON DISCRETE,MFG - 7.5 <= BAY H <= 15M-SPACE FUNCTION ZN,1875.00,62.6,9.500E-002,5.067E-005,2.500E-004,4.800E-002,0.000,0.000,0.224,0.000
 ZoneInfiltration Airflow Stats Nominal, MFG - CORR. < 2.4M-SCH-A-SPACE FUNCTION INFILTRATION,ALWAYS ON DISCRETE,MFG - CORR. < 2.4M-SCH-A-SPACE FUNCTION ZN,1875.00,18.8,9.500E-002,5.067E-005,2.500E-004,4.800E-002,0.000,0.000,0.224,0.000
 ZoneInfiltration Airflow Stats Nominal, MFG - CORR. < 2.4M-SCH-C-SPACE FUNCTION INFILTRATION,ALWAYS ON DISCRETE,MFG - CORR. < 2.4M-SCH-C-SPACE FUNCTION ZN,1875.00,18.8,0.564,3.007E-004,2.500E-004,0.285,0.000,0.000,0.224,0.000
 ZoneInfiltration Airflow Stats Nominal, MFG - CORR. < 2.4M-SCH-D-SPACE FUNCTION INFILTRATION,ALWAYS ON DISCRETE,MFG - CORR. < 2.4M-SCH-D-SPACE FUNCTION ZN,1875.00,18.8,9.500E-002,5.067E-005,2.500E-004,4.800E-002,0.000,0.000,0.224,0.000
 ZoneInfiltration Airflow Stats Nominal, MFG - CORR. < 2.4M-SCH-E-SPACE FUNCTION INFILTRATION,ALWAYS ON DISCRETE,MFG - CORR. < 2.4M-SCH-E-SPACE FUNCTION ZN,1875.00,18.8,9.500E-002,5.067E-005,2.500E-004,4.800E-002,0.000,0.000,0.224,0.000
 ZoneInfiltration Airflow Stats Nominal, MFG - CORR. < 2.4M-SCH-F-SPACE FUNCTION INFILTRATION,ALWAYS ON DISCRETE,MFG - CORR. < 2.4M-SCH-F-SPACE FUNCTION ZN,1875.00,18.8,9.500E-002,5.067E-005,2.500E-004,4.800E-002,0.000,0.000,0.224,0.000
 ZoneInfiltration Airflow Stats Nominal, MFG - CORR. < 2.4M-SCH-G-SPACE FUNCTION INFILTRATION,ALWAYS ON DISCRETE,MFG - CORR. < 2.4M-SCH-G-SPACE FUNCTION ZN,1875.00,18.8,9.500E-002,5.067E-005,2.500E-004,4.800E-002,0.000,0.000,0.224,0.000
! <AirFlow Model>, Simple
 AirFlow Model, Simple
! <RoomAir Model>, Zone Name, Mixing/Mundt/UCSDDV/UCSDCV/UCSDUFI/UCSDUFE/User Defined
RoomAir Model,LAB - RESEARCH-SPACE FUNCTION ZN,Mixing/Well-Stirred
RoomAir Model,LIBRARY - CATALOGING-SPACE FUNCTION ZN,Mixing/Well-Stirred
RoomAir Model,LIBRARY - READING-SPACE FUNCTION ZN,Mixing/Well-Stirred
RoomAir Model,LIBRARY - STACKS-SPACE FUNCTION ZN,Mixing/Well-Stirred
RoomAir Model,LOBBY - ELEVATOR-SPACE FUNCTION ZN,Mixing/Well-Stirred
RoomAir Model,LOBBY - MOTION PICTURE-SPACE FUNCTION ZN,Mixing/Well-Stirred
RoomAir Model,LOBBY - OTHER-SPACE FUNCTION ZN,Mixing/Well-Stirred
RoomAir Model,LOBBY - PERFORMANCE ARTS-SPACE FUNCTION ZN,Mixing/Well-Stirred
RoomAir Model,LOUNGE/RECREATION-SPACE FUNCTION ZN,Mixing/Well-Stirred
RoomAir Model,MFG - 7.5 <= BAY H <= 15M-SPACE FUNCTION ZN,Mixing/Well-Stirred
RoomAir Model,MFG - BAY H < 7.5M-SPACE FUNCTION ZN,Mixing/Well-Stirred
RoomAir Model,MFG - BAY H > 15M-SPACE FUNCTION ZN,Mixing/Well-Stirred
RoomAir Model,MFG - CORR. < 2.4M-SCH-A-SPACE FUNCTION ZN,Mixing/Well-Stirred
RoomAir Model,MFG - CORR. < 2.4M-SCH-B-SPACE FUNCTION ZN,Mixing/Well-Stirred
RoomAir Model,MFG - CORR. < 2.4M-SCH-C-SPACE FUNCTION ZN,Mixing/Well-Stirred
RoomAir Model,MFG - CORR. < 2.4M-SCH-D-SPACE FUNCTION ZN,Mixing/Well-Stirred
RoomAir Model,MFG - CORR. < 2.4M-SCH-E-SPACE FUNCTION ZN,Mixing/Well-Stirred
RoomAir Model,MFG - CORR. < 2.4M-SCH-F-SPACE FUNCTION ZN,Mixing/Well-Stirred
RoomAir Model,MFG - CORR. < 2.4M-SCH-G-SPACE FUNCTION ZN,Mixing/Well-Stirred
RoomAir Model,MFG - CORR. < 2.4M-SCH-H-SPACE FUNCTION ZN,Mixing/Well-Stirred
! <AirflowNetwork Model:Control>, No Multizone or Distribution/Multizone with Distribution/Multizone without Distribution/Multizone with Distribution only during Fan Operation
AirflowNetwork Model:Control,NoMultizoneOrDistribution
! <Zone Volume Capacitance Multiplier>, Sensible Heat Capacity Multiplier, Moisture Capacity Multiplier, Carbon Dioxide Capacity Multiplier, Generic Contaminant Capacity Multiplier
Zone Volume Capacitance Multiplier,   1.000 ,   1.000,   1.000,   1.000
! <Load Timesteps in Zone Design Calculation Averaging Window>, Value
 Load Timesteps in Zone Design Calculation Averaging Window,    6
! <Heating Sizing Factor Information>, Sizing Factor ID, Value
 Heating Sizing Factor Information, Global,   1.2500    
 Heating Sizing Factor Information, Zone LAB - RESEARCH-SPACE FUNCTION ZN,   1.2500    
 Heating Sizing Factor Information, Zone LIBRARY - CATALOGING-SPACE FUNCTION ZN,   1.2500    
 Heating Sizing Factor Information, Zone LIBRARY - READING-SPACE FUNCTION ZN,   1.2500    
 Heating Sizing Factor Information, Zone LIBRARY - STACKS-SPACE FUNCTION ZN,   1.2500    
 Heating Sizing Factor Information, Zone LOBBY - ELEVATOR-SPACE FUNCTION ZN,   1.2500    
 Heating Sizing Factor Information, Zone LOBBY - MOTION PICTURE-SPACE FUNCTION ZN,   1.2500    
 Heating Sizing Factor Information, Zone LOBBY - OTHER-SPACE FUNCTION ZN,   1.2500    
 Heating Sizing Factor Information, Zone LOBBY - PERFORMANCE ARTS-SPACE FUNCTION ZN,   1.2500    
 Heating Sizing Factor Information, Zone LOUNGE/RECREATION-SPACE FUNCTION ZN,   1.2500    
 Heating Sizing Factor Information, Zone MFG - 7.5 <= BAY H <= 15M-SPACE FUNCTION ZN,   1.2500    
 Heating Sizing Factor Information, Zone MFG - BAY H < 7.5M-SPACE FUNCTION ZN,   1.2500    
 Heating Sizing Factor Information, Zone MFG - BAY H > 15M-SPACE FUNCTION ZN,   1.2500    
 Heating Sizing Factor Information, Zone MFG - CORR. < 2.4M-SCH-A-SPACE FUNCTION ZN,   1.2500    
 Heating Sizing Factor Information, Zone MFG - CORR. < 2.4M-SCH-B-SPACE FUNCTION ZN,   1.2500    
 Heating Sizing Factor Information, Zone MFG - CORR. < 2.4M-SCH-C-SPACE FUNCTION ZN,   1.2500    
 Heating Sizing Factor Information, Zone MFG - CORR. < 2.4M-SCH-D-SPACE FUNCTION ZN,   1.2500    
 Heating Sizing Factor Information, Zone MFG - CORR. < 2.4M-SCH-E-SPACE FUNCTION ZN,   1.2500    
 Heating Sizing Factor Information, Zone MFG - CORR. < 2.4M-SCH-F-SPACE FUNCTION ZN,   1.2500    
 Heating Sizing Factor Information, Zone MFG - CORR. < 2.4M-SCH-G-SPACE FUNCTION ZN,   1.2500    
 Heating Sizing Factor Information, Zone MFG - CORR. < 2.4M-SCH-H-SPACE FUNCTION ZN,   1.2500    
! <Cooling Sizing Factor Information>, Sizing Factor ID, Value
 Cooling Sizing Factor Information, Global,   1.1500    
 Cooling Sizing Factor Information, Zone LAB - RESEARCH-SPACE FUNCTION ZN,   1.1500    
 Cooling Sizing Factor Information, Zone LIBRARY - CATALOGING-SPACE FUNCTION ZN,   1.1500    
 Cooling Sizing Factor Information, Zone LIBRARY - READING-SPACE FUNCTION ZN,   1.1500    
 Cooling Sizing Factor Information, Zone LIBRARY - STACKS-SPACE FUNCTION ZN,   1.1500    
 Cooling Sizing Factor Information, Zone LOBBY - ELEVATOR-SPACE FUNCTION ZN,   1.1500    
 Cooling Sizing Factor Information, Zone LOBBY - MOTION PICTURE-SPACE FUNCTION ZN,   1.1500    
 Cooling Sizing Factor Information, Zone LOBBY - OTHER-SPACE FUNCTION ZN,   1.1500    
 Cooling Sizing Factor Information, Zone LOBBY - PERFORMANCE ARTS-SPACE FUNCTION ZN,   1.1500    
 Cooling Sizing Factor Information, Zone LOUNGE/RECREATION-SPACE FUNCTION ZN,   1.1500    
 Cooling Sizing Factor Information, Zone MFG - 7.5 <= BAY H <= 15M-SPACE FUNCTION ZN,   1.1500    
 Cooling Sizing Factor Information, Zone MFG - BAY H < 7.5M-SPACE FUNCTION ZN,   1.1500    
 Cooling Sizing Factor Information, Zone MFG - BAY H > 15M-SPACE FUNCTION ZN,   1.1500    
 Cooling Sizing Factor Information, Zone MFG - CORR. < 2.4M-SCH-A-SPACE FUNCTION ZN,   1.1500    
 Cooling Sizing Factor Information, Zone MFG - CORR. < 2.4M-SCH-B-SPACE FUNCTION ZN,   1.1500    
 Cooling Sizing Factor Information, Zone MFG - CORR. < 2.4M-SCH-C-SPACE FUNCTION ZN,   1.1500    
 Cooling Sizing Factor Information, Zone MFG - CORR. < 2.4M-SCH-D-SPACE FUNCTION ZN,   1.1500    
 Cooling Sizing Factor Information, Zone MFG - CORR. < 2.4M-SCH-E-SPACE FUNCTION ZN,   1.1500    
 Cooling Sizing Factor Information, Zone MFG - CORR. < 2.4M-SCH-F-SPACE FUNCTION ZN,   1.1500    
 Cooling Sizing Factor Information, Zone MFG - CORR. < 2.4M-SCH-G-SPACE FUNCTION ZN,   1.1500    
 Cooling Sizing Factor Information, Zone MFG - CORR. < 2.4M-SCH-H-SPACE FUNCTION ZN,   1.1500    
! <Zone Sizing Information>, Zone Name, Load Type, Calc Des Load {W}, User Des Load {W}, Calc Des Air Flow Rate {m3/s}, User Des Air Flow Rate {m3/s}, Design Day Name, Date/Time of Peak, Temperature at Peak {C}, Humidity Ratio at Peak {kgWater/kgDryAir}, Floor Area {m2}, # Occupants, Calc Outdoor Air Flow Rate {m3/s}, Calc DOAS Heat Addition Rate {W}
 Zone Sizing Information, LAB - RESEARCH-SPACE FUNCTION ZN, Cooling, 97160.42584, 111734.48971, 8.26053, 9.49961, FORT MCMURRAY AP ANN CLG .4% CONDNS DB=>MWB, 7/21 10:30:00, 25.11800, 8.76969E-003, 1875.00000, 93.84784, 4.09575, 0.00000
 Zone Sizing Information, LAB - RESEARCH-SPACE FUNCTION ZN, Heating, 45180.17458, 56475.21822, 2.06600, 4.09575, FORT MCMURRAY AP ANN HTG 99.6% CONDNS DB, 1/21 07:50:00, -36.20000, 1.25811E-004, 1875.00000, 93.84784, 4.09575, 0.00000
 Zone Sizing Information, LIBRARY - CATALOGING-SPACE FUNCTION ZN, Cooling, 48193.09144, 55422.05515, 4.09731, 4.71191, FORT MCMURRAY AP ANN CLG .4% CONDNS DB=>MWB, 7/21 18:00:00, 25.92400, 8.76969E-003, 1875.00000, 93.84784, 1.61925, 0.00000
 Zone Sizing Information, LIBRARY - CATALOGING-SPACE FUNCTION ZN, Heating, 25945.00146, 32431.25182, 1.18499, 1.61925, FORT MCMURRAY AP ANN HTG 99.6% CONDNS DB, 1/21 09:00:00, -36.20000, 1.25811E-004, 1875.00000, 93.84784, 1.61925, 0.00000
 Zone Sizing Information, LIBRARY - READING-SPACE FUNCTION ZN, Cooling, 75235.63328, 86520.97827, 6.39637, 7.35583, FORT MCMURRAY AP ANN CLG .4% CONDNS DB=>MWB, 7/21 16:10:00, 27.99067, 8.76969E-003, 1875.00000, 93.84784, 1.61925, 0.00000
 Zone Sizing Information, LIBRARY - READING-SPACE FUNCTION ZN, Heating, 50784.74243, 63480.92803, 2.35629, 2.94536, FORT MCMURRAY AP ANN HTG 99.6% CONDNS DB, 1/21 09:00:00, -36.20000, 1.25811E-004, 1875.00000, 93.84784, 1.61925, 0.00000
 Zone Sizing Information, LIBRARY - STACKS-SPACE FUNCTION ZN, Cooling, 33157.87866, 38131.56046, 2.81905, 3.24190, FORT MCMURRAY AP ANN CLG .4% CONDNS DB=>MWB, 7/21 18:00:00, 25.92400, 8.76969E-003, 1875.00000, 93.84784, 1.61925, 0.00000
 Zone Sizing Information, LIBRARY - STACKS-SPACE FUNCTION ZN, Heating, 0.00000, 0.00000, 0.00000, 1.61925, FORT MCMURRAY AP ANN HTG 99.6% CONDNS DB, , -36.20000, 1.25811E-004, 1875.00000, 93.84784, 1.61925, 0.00000
 Zone Sizing Information, LOBBY - ELEVATOR-SPACE FUNCTION ZN, Cooling, 20109.57279, 23126.00870, 1.70986, 7.71525, FORT MCMURRAY AP ANN CLG .4% CONDNS DB=>MWB, 7/21 17:00:00, 27.16400, 8.76969E-003, 1875.00000, 187.49386, 7.71525, 0.00000
 Zone Sizing Information, LOBBY - ELEVATOR-SPACE FUNCTION ZN, Heating, 364.66638, 455.83298, 1.71378E-002, 7.71525, FORT MCMURRAY AP ANN HTG 99.6% CONDNS DB, 1/21 08:10:00, -36.20000, 1.25811E-004, 1875.00000, 187.49386, 7.71525, 0.00000
 Zone Sizing Information, LOBBY - MOTION PICTURE-SPACE FUNCTION ZN, Cooling, 23744.61562, 27306.30797, 2.01895, 10.28700, FORT MCMURRAY AP ANN CLG .4% CONDNS DB=>MWB, 7/21 17:00:00, 27.16400, 8.76969E-003, 2500.00000, 249.99182, 10.28700, 0.00000
 Zone Sizing Information, LOBBY - MOTION PICTURE-SPACE FUNCTION ZN, Heating, 0.00000, 0.00000, 0.00000, 10.28700, FORT MCMURRAY AP ANN HTG 99.6% CONDNS DB, , -36.20000, 1.25811E-004, 2500.00000, 249.99182, 10.28700, 0.00000
 Zone Sizing Information, LOBBY - OTHER-SPACE FUNCTION ZN, Cooling, 82810.78570, 95232.40355, 7.04089, 8.09702, FORT MCMURRAY AP ANN CLG .4% CONDNS DB=>MWB, 7/21 13:30:00, 28.59000, 8.76969E-003, 1875.00000, 187.49386, 7.71525, 0.00000
 Zone Sizing Information, LOBBY - OTHER-SPACE FUNCTION ZN, Heating, 49447.72938, 61809.66173, 2.16053, 7.71525, FORT MCMURRAY AP ANN HTG 99.6% CONDNS DB, 1/21 08:20:00, -36.20000, 1.25811E-004, 1875.00000, 187.49386, 7.71525, 0.00000
 Zone Sizing Information, LOBBY - PERFORMANCE ARTS-SPACE FUNCTION ZN, Cooling, 48158.50539, 55382.28120, 4.09467, 7.71525, FORT MCMURRAY AP ANN CLG .4% CONDNS DB=>MWB, 7/21 13:50:00, 28.79667, 8.76969E-003, 1875.00000, 187.49386, 7.71525, 0.00000
 Zone Sizing Information, LOBBY - PERFORMANCE ARTS-SPACE FUNCTION ZN, Heating, 6539.41881, 8174.27351, 0.28507, 7.71525, FORT MCMURRAY AP ANN HTG 99.6% CONDNS DB, 1/21 08:50:00, -36.20000, 1.25811E-004, 1875.00000, 187.49386, 7.71525, 0.00000
 Zone Sizing Information, LOUNGE/RECREATION-SPACE FUNCTION ZN, Cooling, 83979.83161, 96576.80635, 7.14038, 8.21143, FORT MCMURRAY AP ANN CLG .4% CONDNS DB=>MWB, 7/21 13:10:00, 28.38333, 8.76969E-003, 2500.00000, 249.99182, 2.34950, 0.00000
 Zone Sizing Information, LOUNGE/RECREATION-SPACE FUNCTION ZN, Heating, 35812.35806, 44765.44758, 1.63883, 2.34950, FORT MCMURRAY AP ANN HTG 99.6% CONDNS DB, 1/21 10:00:00, -36.20000, 1.25811E-004, 2500.00000, 249.99182, 2.34950, 0.00000
 Zone Sizing Information, MFG - 7.5 <= BAY H <= 15M-SPACE FUNCTION ZN, Cooling, 43817.16177, 50389.73603, 3.72520, 4.28398, FORT MCMURRAY AP ANN CLG .4% CONDNS DB=>MWB, 7/21 17:00:00, 27.16400, 8.76969E-003, 1875.00000, 62.56523, 2.38125, 0.00000
 Zone Sizing Information, MFG - 7.5 <= BAY H <= 15M-SPACE FUNCTION ZN, Heating, 24602.25796, 30752.82245, 1.12218, 2.38125, FORT MCMURRAY AP ANN HTG 99.6% CONDNS DB, 1/21 08:00:00, -36.20000, 1.25811E-004, 1875.00000, 62.56523, 2.38125, 0.00000
 Zone Sizing Information, MFG - BAY H < 7.5M-SPACE FUNCTION ZN, Cooling, 32372.47852, 37228.35030, 2.75222, 3.16505, FORT MCMURRAY AP ANN CLG .4% CONDNS DB=>MWB, 7/21 17:00:00, 27.16400, 8.76969E-003, 1875.00000, 62.56523, 2.38125, 0.00000
 Zone Sizing Information, MFG - BAY H < 7.5M-SPACE FUNCTION ZN, Heating, 0.00000, 0.00000, 0.00000, 2.38125, FORT MCMURRAY AP ANN HTG 99.6% CONDNS DB, , -36.20000, 1.25811E-004, 1875.00000, 62.56523, 2.38125, 0.00000
 Zone Sizing Information, MFG - BAY H > 15M-SPACE FUNCTION ZN, Cooling, 51100.62829, 58765.72253, 4.34443, 4.99609, FORT MCMURRAY AP ANN CLG .4% CONDNS DB=>MWB, 7/21 17:00:00, 27.16400, 8.76969E-003, 2500.00000, 83.42031, 3.17500, 0.00000
 Zone Sizing Information, MFG - BAY H > 15M-SPACE FUNCTION ZN, Heating, 0.00000, 0.00000, 0.00000, 3.17500, FORT MCMURRAY AP ANN HTG 99.6% CONDNS DB, , -36.20000, 1.25811E-004, 2500.00000, 83.42031, 3.17500, 0.00000
 Zone Sizing Information, MFG - CORR. < 2.4M-SCH-A-SPACE FUNCTION ZN, Cooling, 33941.88776, 39033.17093, 2.88547, 3.31829, FORT MCMURRAY AP ANN CLG .4% CONDNS DB=>MWB, 7/21 14:30:00, 28.90000, 8.76969E-003, 1875.00000, 18.76957, 2.38125, 0.00000
 Zone Sizing Information, MFG - CORR. < 2.4M-SCH-A-SPACE FUNCTION ZN, Heating, 29677.52117, 37096.90147, 1.36258, 2.38125, FORT MCMURRAY AP ANN HTG 99.6% CONDNS DB, 1/21 08:00:00, -36.20000, 1.25811E-004, 1875.00000, 18.76957, 2.38125, 0.00000
 Zone Sizing Information, MFG - CORR. < 2.4M-SCH-B-SPACE FUNCTION ZN, Cooling, 15103.63532, 17369.18062, 1.19923, 2.38125, FORT MCMURRAY AP ANN CLG .4% CONDNS DB=>MWB, 7/21 09:00:00, 22.08000, 8.76969E-003, 1875.00000, 18.76957, 2.38125, 0.00000
 Zone Sizing Information, MFG - CORR. < 2.4M-SCH-B-SPACE FUNCTION ZN, Heating, 0.00000, 0.00000, 0.00000, 2.38125, FORT MCMURRAY AP ANN HTG 99.6% CONDNS DB, , -36.20000, 1.25811E-004, 1875.00000, 18.76957, 2.38125, 0.00000
 Zone Sizing Information, MFG - CORR. < 2.4M-SCH-C-SPACE FUNCTION ZN, Cooling, 53717.96596, 61775.66085, 4.56670, 5.25170, FORT MCMURRAY AP ANN CLG .4% CONDNS DB=>MWB, 7/21 13:50:00, 28.79667, 8.76969E-003, 1875.00000, 18.76957, 2.38125, 0.00000
 Zone Sizing Information, MFG - CORR. < 2.4M-SCH-C-SPACE FUNCTION ZN, Heating, 52527.75317, 65659.69146, 2.43836, 3.04795, FORT MCMURRAY AP ANN HTG 99.6% CONDNS DB, 1/21 09:00:00, -36.20000, 1.25811E-004, 1875.00000, 18.76957, 2.38125, 0.00000
 Zone Sizing Information, MFG - CORR. < 2.4M-SCH-D-SPACE FUNCTION ZN, Cooling, 31585.70609, 36323.56200, 2.68517, 3.08794, FORT MCMURRAY AP ANN CLG .4% CONDNS DB=>MWB, 7/21 17:40:00, 26.33733, 8.76969E-003, 1875.00000, 18.76957, 2.38125, 0.00000
 Zone Sizing Information, MFG - CORR. < 2.4M-SCH-D-SPACE FUNCTION ZN, Heating, 17635.15928, 22043.94910, 0.79299, 2.38125, FORT MCMURRAY AP ANN HTG 99.6% CONDNS DB, 1/21 09:00:00, -36.20000, 1.25811E-004, 1875.00000, 18.76957, 2.38125, 0.00000
 Zone Sizing Information, MFG - CORR. < 2.4M-SCH-E-SPACE FUNCTION ZN, Cooling, 22373.01429, 25728.96644, 1.77007, 2.38125, FORT MCMURRAY AP ANN CLG .4% CONDNS DB=>MWB, 7/21 08:00:00, 19.72400, 8.76969E-003, 1875.00000, 18.76957, 2.38125, 0.00000
 Zone Sizing Information, MFG - CORR. < 2.4M-SCH-E-SPACE FUNCTION ZN, Heating, 16055.89545, 20069.86931, 0.72116, 2.38125, FORT MCMURRAY AP ANN HTG 99.6% CONDNS DB, 1/21 09:00:00, -36.20000, 1.25811E-004, 1875.00000, 18.76957, 2.38125, 0.00000
 Zone Sizing Information, MFG - CORR. < 2.4M-SCH-F-SPACE FUNCTION ZN, Cooling, 28075.58696, 32286.92501, 2.38677, 2.74478, FORT MCMURRAY AP ANN CLG .4% CONDNS DB=>MWB, 7/21 09:40:00, 23.48533, 8.76969E-003, 1875.00000, 18.76957, 2.38125, 0.00000
 Zone Sizing Information, MFG - CORR. < 2.4M-SCH-F-SPACE FUNCTION ZN, Heating, 24993.38648, 31241.73310, 1.14020, 2.38125, FORT MCMURRAY AP ANN HTG 99.6% CONDNS DB, 1/21 09:00:00, -36.20000, 1.25811E-004, 1875.00000, 18.76957, 2.38125, 0.00000
 Zone Sizing Information, MFG - CORR. < 2.4M-SCH-G-SPACE FUNCTION ZN, Cooling, 22849.75253, 26277.21541, 1.94251, 2.38125, FORT MCMURRAY AP ANN CLG .4% CONDNS DB=>MWB, 7/21 09:00:00, 22.08000, 8.76969E-003, 1875.00000, 18.76957, 2.38125, 0.00000
 Zone Sizing Information, MFG - CORR. < 2.4M-SCH-G-SPACE FUNCTION ZN, Heating, 16263.40947, 20329.26183, 0.73589, 2.38125, FORT MCMURRAY AP ANN HTG 99.6% CONDNS DB, 1/21 09:00:00, -36.20000, 1.25811E-004, 1875.00000, 18.76957, 2.38125, 0.00000
 Zone Sizing Information, MFG - CORR. < 2.4M-SCH-H-SPACE FUNCTION ZN, Cooling, 18697.19964, 21501.77958, 1.58950, 3.17500, FORT MCMURRAY AP ANN CLG .4% CONDNS DB=>MWB, 7/21 19:00:00, 24.06400, 8.76969E-003, 2500.00000, 25.02609, 3.17500, 0.00000
 Zone Sizing Information, MFG - CORR. < 2.4M-SCH-H-SPACE FUNCTION ZN, Heating, 0.00000, 0.00000, 0.00000, 3.17500, FORT MCMURRAY AP ANN HTG 99.6% CONDNS DB, , -36.20000, 1.25811E-004, 2500.00000, 25.02609, 3.17500, 0.00000
! <Component Sizing Information>, Component Type, Component Name, Input Field Description, Value
 Component Sizing Information, ZoneHVAC:IdealLoadsAirSystem, ZONE HVAC IDEAL LOADS AIR SYSTEM 1, User-Specified Maximum Heating Air Flow Rate [m3/s], 0.00000
 Component Sizing Information, ZoneHVAC:IdealLoadsAirSystem, ZONE HVAC IDEAL LOADS AIR SYSTEM 1, User-Specified Maximum Cooling Air Flow Rate [m3/s], 0.00000
 Component Sizing Information, ZoneHVAC:IdealLoadsAirSystem, ZONE HVAC IDEAL LOADS AIR SYSTEM 2, User-Specified Maximum Heating Air Flow Rate [m3/s], 0.00000
 Component Sizing Information, ZoneHVAC:IdealLoadsAirSystem, ZONE HVAC IDEAL LOADS AIR SYSTEM 2, User-Specified Maximum Cooling Air Flow Rate [m3/s], 0.00000
 Component Sizing Information, ZoneHVAC:IdealLoadsAirSystem, ZONE HVAC IDEAL LOADS AIR SYSTEM 3, User-Specified Maximum Heating Air Flow Rate [m3/s], 0.00000
 Component Sizing Information, ZoneHVAC:IdealLoadsAirSystem, ZONE HVAC IDEAL LOADS AIR SYSTEM 3, User-Specified Maximum Cooling Air Flow Rate [m3/s], 0.00000
 Component Sizing Information, ZoneHVAC:IdealLoadsAirSystem, ZONE HVAC IDEAL LOADS AIR SYSTEM 4, User-Specified Maximum Heating Air Flow Rate [m3/s], 0.00000
 Component Sizing Information, ZoneHVAC:IdealLoadsAirSystem, ZONE HVAC IDEAL LOADS AIR SYSTEM 4, User-Specified Maximum Cooling Air Flow Rate [m3/s], 0.00000
 Component Sizing Information, ZoneHVAC:IdealLoadsAirSystem, ZONE HVAC IDEAL LOADS AIR SYSTEM 5, User-Specified Maximum Heating Air Flow Rate [m3/s], 0.00000
 Component Sizing Information, ZoneHVAC:IdealLoadsAirSystem, ZONE HVAC IDEAL LOADS AIR SYSTEM 5, User-Specified Maximum Cooling Air Flow Rate [m3/s], 0.00000
 Component Sizing Information, ZoneHVAC:IdealLoadsAirSystem, ZONE HVAC IDEAL LOADS AIR SYSTEM 6, User-Specified Maximum Heating Air Flow Rate [m3/s], 0.00000
 Component Sizing Information, ZoneHVAC:IdealLoadsAirSystem, ZONE HVAC IDEAL LOADS AIR SYSTEM 6, User-Specified Maximum Cooling Air Flow Rate [m3/s], 0.00000
 Component Sizing Information, ZoneHVAC:IdealLoadsAirSystem, ZONE HVAC IDEAL LOADS AIR SYSTEM 7, User-Specified Maximum Heating Air Flow Rate [m3/s], 0.00000
 Component Sizing Information, ZoneHVAC:IdealLoadsAirSystem, ZONE HVAC IDEAL LOADS AIR SYSTEM 7, User-Specified Maximum Cooling Air Flow Rate [m3/s], 0.00000
 Component Sizing Information, ZoneHVAC:IdealLoadsAirSystem, ZONE HVAC IDEAL LOADS AIR SYSTEM 8, User-Specified Maximum Heating Air Flow Rate [m3/s], 0.00000
 Component Sizing Information, ZoneHVAC:IdealLoadsAirSystem, ZONE HVAC IDEAL LOADS AIR SYSTEM 8, User-Specified Maximum Cooling Air Flow Rate [m3/s], 0.00000
 Component Sizing Information, ZoneHVAC:IdealLoadsAirSystem, ZONE HVAC IDEAL LOADS AIR SYSTEM 9, User-Specified Maximum Heating Air Flow Rate [m3/s], 0.00000
 Component Sizing Information, ZoneHVAC:IdealLoadsAirSystem, ZONE HVAC IDEAL LOADS AIR SYSTEM 9, User-Specified Maximum Cooling Air Flow Rate [m3/s], 0.00000
 Component Sizing Information, ZoneHVAC:IdealLoadsAirSystem, ZONE HVAC IDEAL LOADS AIR SYSTEM 10, User-Specified Maximum Heating Air Flow Rate [m3/s], 0.00000
 Component Sizing Information, ZoneHVAC:IdealLoadsAirSystem, ZONE HVAC IDEAL LOADS AIR SYSTEM 10, User-Specified Maximum Cooling Air Flow Rate [m3/s], 0.00000
 Component Sizing Information, ZoneHVAC:IdealLoadsAirSystem, ZONE HVAC IDEAL LOADS AIR SYSTEM 11, User-Specified Maximum Heating Air Flow Rate [m3/s], 0.00000
 Component Sizing Information, ZoneHVAC:IdealLoadsAirSystem, ZONE HVAC IDEAL LOADS AIR SYSTEM 11, User-Specified Maximum Cooling Air Flow Rate [m3/s], 0.00000
 Component Sizing Information, ZoneHVAC:IdealLoadsAirSystem, ZONE HVAC IDEAL LOADS AIR SYSTEM 12, User-Specified Maximum Heating Air Flow Rate [m3/s], 0.00000
 Component Sizing Information, ZoneHVAC:IdealLoadsAirSystem, ZONE HVAC IDEAL LOADS AIR SYSTEM 12, User-Specified Maximum Cooling Air Flow Rate [m3/s], 0.00000
 Component Sizing Information, ZoneHVAC:IdealLoadsAirSystem, ZONE HVAC IDEAL LOADS AIR SYSTEM 13, User-Specified Maximum Heating Air Flow Rate [m3/s], 0.00000
 Component Sizing Information, ZoneHVAC:IdealLoadsAirSystem, ZONE HVAC IDEAL LOADS AIR SYSTEM 13, User-Specified Maximum Cooling Air Flow Rate [m3/s], 0.00000
 Component Sizing Information, ZoneHVAC:IdealLoadsAirSystem, ZONE HVAC IDEAL LOADS AIR SYSTEM 14, User-Specified Maximum Heating Air Flow Rate [m3/s], 0.00000
 Component Sizing Information, ZoneHVAC:IdealLoadsAirSystem, ZONE HVAC IDEAL LOADS AIR SYSTEM 14, User-Specified Maximum Cooling Air Flow Rate [m3/s], 0.00000
 Component Sizing Information, ZoneHVAC:IdealLoadsAirSystem, ZONE HVAC IDEAL LOADS AIR SYSTEM 15, User-Specified Maximum Heating Air Flow Rate [m3/s], 0.00000
 Component Sizing Information, ZoneHVAC:IdealLoadsAirSystem, ZONE HVAC IDEAL LOADS AIR SYSTEM 15, User-Specified Maximum Cooling Air Flow Rate [m3/s], 0.00000
 Component Sizing Information, ZoneHVAC:IdealLoadsAirSystem, ZONE HVAC IDEAL LOADS AIR SYSTEM 16, User-Specified Maximum Heating Air Flow Rate [m3/s], 0.00000
 Component Sizing Information, ZoneHVAC:IdealLoadsAirSystem, ZONE HVAC IDEAL LOADS AIR SYSTEM 16, User-Specified Maximum Cooling Air Flow Rate [m3/s], 0.00000
 Component Sizing Information, ZoneHVAC:IdealLoadsAirSystem, ZONE HVAC IDEAL LOADS AIR SYSTEM 17, User-Specified Maximum Heating Air Flow Rate [m3/s], 0.00000
 Component Sizing Information, ZoneHVAC:IdealLoadsAirSystem, ZONE HVAC IDEAL LOADS AIR SYSTEM 17, User-Specified Maximum Cooling Air Flow Rate [m3/s], 0.00000
 Component Sizing Information, ZoneHVAC:IdealLoadsAirSystem, ZONE HVAC IDEAL LOADS AIR SYSTEM 18, User-Specified Maximum Heating Air Flow Rate [m3/s], 0.00000
 Component Sizing Information, ZoneHVAC:IdealLoadsAirSystem, ZONE HVAC IDEAL LOADS AIR SYSTEM 18, User-Specified Maximum Cooling Air Flow Rate [m3/s], 0.00000
 Component Sizing Information, ZoneHVAC:IdealLoadsAirSystem, ZONE HVAC IDEAL LOADS AIR SYSTEM 19, User-Specified Maximum Heating Air Flow Rate [m3/s], 0.00000
 Component Sizing Information, ZoneHVAC:IdealLoadsAirSystem, ZONE HVAC IDEAL LOADS AIR SYSTEM 19, User-Specified Maximum Cooling Air Flow Rate [m3/s], 0.00000
 Component Sizing Information, ZoneHVAC:IdealLoadsAirSystem, ZONE HVAC IDEAL LOADS AIR SYSTEM 20, User-Specified Maximum Heating Air Flow Rate [m3/s], 0.00000
 Component Sizing Information, ZoneHVAC:IdealLoadsAirSystem, ZONE HVAC IDEAL LOADS AIR SYSTEM 20, User-Specified Maximum Cooling Air Flow Rate [m3/s], 0.00000
! <Environment>,Environment Name,Environment Type, Start Date, End Date, Start DayOfWeek, Duration {#days}, Source:Start DayOfWeek,  Use Daylight Saving, Use Holidays, Apply Weekend Holiday Rule,  Use Rain Values, Use Snow Values
! <Environment:Special Days>, Special Day Name, Special Day Type, Source, Start Date, Duration {#days}
! <Environment:Daylight Saving>, Daylight Saving Indicator, Source, Start Date, End Date
! <Environment:WarmupDays>, NumberofWarmupDays
Environment,FORT MCMURRAY AP ANN CLG .4% CONDNS DB=>MWB,SizingPeriod:DesignDay,07/21,07/21,SummerDesignDay,1,N/A,N/A,N/A,N/A,N/A,N/A
Environment:Daylight Saving,No,SizingPeriod:DesignDay
! <Environment:Design Day Data>, Max Dry-Bulb Temp {C}, Temp Range {dC}, Temp Range Ind Type, Hum Ind Value at Max Temp, Hum Ind Type,Pressure {Pa}, Wind Direction {deg CW from N}, Wind Speed {m/s}, Clearness, Rain, Snow
! <Environment:Design Day Misc>,DayOfYear,ASHRAE A Coeff,ASHRAE B Coeff,ASHRAE C Coeff,Solar Constant-Annual Variation,Eq of Time {minutes}, Solar Declination Angle {deg}, Solar Model
Environment:Design Day Data,28.90,12.40,DefaultMultipliers,96969,250,3.7,0.00,No,No
Environment:Design Day Misc,202,1084.4,0.2082,0.1365,1.0,-6.23,20.6,ASHRAETau
Environment:WarmupDays,  6
! <Tabular Report>,Style,Unit Conversion
Tabular Report,HTML,None
! <Warmup Convergence Information>,Zone Name,Environment Type/Name,Average Warmup Temperature Difference {deltaC},Std Dev Warmup Temperature Difference {deltaC},Max Temperature Pass/Fail Convergence,Min Temperature Pass/Fail Convergence,Average Warmup Load Difference {W},Std Dev Warmup Load Difference {W},Heating Load Pass/Fail Convergence,Cooling Load Pass/Fail Convergence
 Warmup Convergence Information,LAB - RESEARCH-SPACE FUNCTION ZN,SizingPeriod: FORT MCMURRAY AP ANN CLG .4% CONDNS DB=>MWB,5.2013882820E-002,8.1727721117E-002,Pass,Pass,2.9866961694E-002,6.7151587591E-002,Pass,Pass
 Warmup Convergence Information,LIBRARY - CATALOGING-SPACE FUNCTION ZN,SizingPeriod: FORT MCMURRAY AP ANN CLG .4% CONDNS DB=>MWB,3.0019646712E-002,6.8072309429E-002,Pass,Pass,4.4294032387E-002,0.2249658132,Pass,Pass
 Warmup Convergence Information,LIBRARY - READING-SPACE FUNCTION ZN,SizingPeriod: FORT MCMURRAY AP ANN CLG .4% CONDNS DB=>MWB,3.9352140093E-002,5.9061494606E-002,Pass,Pass,4.5731873814E-002,0.1799972758,Pass,Pass
 Warmup Convergence Information,LIBRARY - STACKS-SPACE FUNCTION ZN,SizingPeriod: FORT MCMURRAY AP ANN CLG .4% CONDNS DB=>MWB,2.6271262426E-002,5.4075053792E-002,Pass,Pass,4.0217772777E-002,0.2050883662,Pass,Pass
 Warmup Convergence Information,LOBBY - ELEVATOR-SPACE FUNCTION ZN,SizingPeriod: FORT MCMURRAY AP ANN CLG .4% CONDNS DB=>MWB,7.0184695402E-002,0.1467812023,Pass,Pass,5.6860358582E-002,0.1288736825,Pass,Pass
 Warmup Convergence Information,LOBBY - MOTION PICTURE-SPACE FUNCTION ZN,SizingPeriod: FORT MCMURRAY AP ANN CLG .4% CONDNS DB=>MWB,7.0976555075E-002,0.1533186001,Pass,Pass,9.5511714379E-002,0.3052493342,Pass,Pass
 Warmup Convergence Information,LOBBY - OTHER-SPACE FUNCTION ZN,SizingPeriod: FORT MCMURRAY AP ANN CLG .4% CONDNS DB=>MWB,7.3054366047E-002,0.1225421170,Pass,Pass,3.1209169506E-002,5.2608074160E-002,Pass,Pass
 Warmup Convergence Information,LOBBY - PERFORMANCE ARTS-SPACE FUNCTION ZN,SizingPeriod: FORT MCMURRAY AP ANN CLG .4% CONDNS DB=>MWB,5.7719672443E-002,0.1143185734,Pass,Pass,3.3409470224E-002,6.9500788172E-002,Pass,Pass
 Warmup Convergence Information,LOUNGE/RECREATION-SPACE FUNCTION ZN,SizingPeriod: FORT MCMURRAY AP ANN CLG .4% CONDNS DB=>MWB,3.7820485971E-002,7.4135543250E-002,Pass,Pass,3.0241535792E-002,5.6969478449E-002,Pass,Pass
 Warmup Convergence Information,MFG - 7.5 <= BAY H <= 15M-SPACE FUNCTION ZN,SizingPeriod: FORT MCMURRAY AP ANN CLG .4% CONDNS DB=>MWB,3.1276716943E-002,5.8872438510E-002,Pass,Pass,3.2257277669E-002,0.1130510191,Pass,Pass
 Warmup Convergence Information,MFG - BAY H < 7.5M-SPACE FUNCTION ZN,SizingPeriod: FORT MCMURRAY AP ANN CLG .4% CONDNS DB=>MWB,3.1558179824E-002,6.3295385692E-002,Pass,Pass,2.7361783926E-002,7.9311184386E-002,Pass,Pass
 Warmup Convergence Information,MFG - BAY H > 15M-SPACE FUNCTION ZN,SizingPeriod: FORT MCMURRAY AP ANN CLG .4% CONDNS DB=>MWB,2.9588781381E-002,5.3853161491E-002,Pass,Pass,3.0072126153E-002,9.6361734087E-002,Pass,Pass
 Warmup Convergence Information,MFG - CORR. < 2.4M-SCH-A-SPACE FUNCTION ZN,SizingPeriod: FORT MCMURRAY AP ANN CLG .4% CONDNS DB=>MWB,3.7426368214E-002,5.3118346803E-002,Pass,Pass,3.5489372917E-002,7.7880022898E-002,Pass,Pass
 Warmup Convergence Information,MFG - CORR. < 2.4M-SCH-B-SPACE FUNCTION ZN,SizingPeriod: FORT MCMURRAY AP ANN CLG .4% CONDNS DB=>MWB,3.6975990005E-002,5.1648332661E-002,Pass,Pass,9.2116256557E-002,0.2802544747,Pass,Pass
 Warmup Convergence Information,MFG - CORR. < 2.4M-SCH-C-SPACE FUNCTION ZN,SizingPeriod: FORT MCMURRAY AP ANN CLG .4% CONDNS DB=>MWB,4.6332981038E-002,7.0904926966E-002,Pass,Pass,3.2304137229E-002,6.2276359032E-002,Pass,Pass
 Warmup Convergence Information,MFG - CORR. < 2.4M-SCH-D-SPACE FUNCTION ZN,SizingPeriod: FORT MCMURRAY AP ANN CLG .4% CONDNS DB=>MWB,2.1166770146E-002,3.4487700340E-002,Pass,Pass,2.7577142870E-002,4.1100221119E-002,Pass,Pass
 Warmup Convergence Information,MFG - CORR. < 2.4M-SCH-E-SPACE FUNCTION ZN,SizingPeriod: FORT MCMURRAY AP ANN CLG .4% CONDNS DB=>MWB,3.6905740749E-002,5.1952169732E-002,Pass,Pass,6.2482067161E-002,0.2967725364,Pass,Pass
 Warmup Convergence Information,MFG - CORR. < 2.4M-SCH-F-SPACE FUNCTION ZN,SizingPeriod: FORT MCMURRAY AP ANN CLG .4% CONDNS DB=>MWB,2.1557441404E-002,3.5499767834E-002,Pass,Pass,1.1494353705E-002,1.4508183267E-002,Pass,Pass
 Warmup Convergence Information,MFG - CORR. < 2.4M-SCH-G-SPACE FUNCTION ZN,SizingPeriod: FORT MCMURRAY AP ANN CLG .4% CONDNS DB=>MWB,2.7678326602E-002,3.9007002609E-002,Pass,Pass,1.6944975231E-002,3.3934431560E-002,Pass,Pass
 Warmup Convergence Information,MFG - CORR. < 2.4M-SCH-H-SPACE FUNCTION ZN,SizingPeriod: FORT MCMURRAY AP ANN CLG .4% CONDNS DB=>MWB,2.4086793427E-002,3.6277264828E-002,Pass,Pass,2.7455467567E-002,5.8246224447E-002,Pass,Pass
Environment,FORT MCMURRAY AP ANN HTG 99.6% CONDNS DB,SizingPeriod:DesignDay,01/21,01/21,WinterDesignDay,1,N/A,N/A,N/A,N/A,N/A,N/A
Environment:Daylight Saving,No,SizingPeriod:DesignDay
Environment:Design Day Data,-36.20,0.00,DefaultMultipliers,96969,90,1.0,0.00,No,No
Environment:Design Day Misc, 21,1229.0,0.1415,5.7310E-002,1.0,-11.15,-20.1,ASHRAEClearSky
Environment:WarmupDays,  6
 Warmup Convergence Information,LAB - RESEARCH-SPACE FUNCTION ZN,SizingPeriod: FORT MCMURRAY AP ANN HTG 99.6% CONDNS DB,5.5555555556E-002,0.3785388842,Pass,Pass,0.2101162391,0.5210355340,Pass,Pass
 Warmup Convergence Information,LIBRARY - CATALOGING-SPACE FUNCTION ZN,SizingPeriod: FORT MCMURRAY AP ANN HTG 99.6% CONDNS DB,5.6451967255E-002,0.3504928539,Pass,Pass,0.1423883004,0.3246961029,Pass,Pass
 Warmup Convergence Information,LIBRARY - READING-SPACE FUNCTION ZN,SizingPeriod: FORT MCMURRAY AP ANN HTG 99.6% CONDNS DB,5.5684073910E-002,0.3570477574,Pass,Pass,6.1538582033E-002,0.2113242680,Pass,Pass
 Warmup Convergence Information,LIBRARY - STACKS-SPACE FUNCTION ZN,SizingPeriod: FORT MCMURRAY AP ANN HTG 99.6% CONDNS DB,5.6932049635E-002,0.3461829008,Pass,Pass,0.5528607719,3.1731290522,Pass,Pass
 Warmup Convergence Information,LOBBY - ELEVATOR-SPACE FUNCTION ZN,SizingPeriod: FORT MCMURRAY AP ANN HTG 99.6% CONDNS DB,5.5555555556E-002,0.3893497868,Pass,Pass,0.4522235568,3.0005806115,Pass,Pass
 Warmup Convergence Information,LOBBY - MOTION PICTURE-SPACE FUNCTION ZN,SizingPeriod: FORT MCMURRAY AP ANN HTG 99.6% CONDNS DB,5.5555555556E-002,0.3893711185,Pass,Pass,0.5405685544,3.5966689418,Pass,Pass
 Warmup Convergence Information,LOBBY - OTHER-SPACE FUNCTION ZN,SizingPeriod: FORT MCMURRAY AP ANN HTG 99.6% CONDNS DB,5.5555555556E-002,0.3899834717,Pass,Pass,7.1007722173E-002,0.2187967366,Pass,Pass
 Warmup Convergence Information,LOBBY - PERFORMANCE ARTS-SPACE FUNCTION ZN,SizingPeriod: FORT MCMURRAY AP ANN HTG 99.6% CONDNS DB,5.5555555556E-002,0.3894542121,Pass,Pass,0.1218332112,0.2945082851,Pass,Pass
 Warmup Convergence Information,LOUNGE/RECREATION-SPACE FUNCTION ZN,SizingPeriod: FORT MCMURRAY AP ANN HTG 99.6% CONDNS DB,5.5971472779E-002,0.3581432293,Pass,Pass,0.1167713189,0.3097903335,Pass,Pass
 Warmup Convergence Information,MFG - 7.5 <= BAY H <= 15M-SPACE FUNCTION ZN,SizingPeriod: FORT MCMURRAY AP ANN HTG 99.6% CONDNS DB,5.5599966940E-002,0.3626539754,Pass,Pass,0.2323037728,0.4595777416,Pass,Pass
 Warmup Convergence Information,MFG - BAY H < 7.5M-SPACE FUNCTION ZN,SizingPeriod: FORT MCMURRAY AP ANN HTG 99.6% CONDNS DB,5.5796036802E-002,0.3614809367,Pass,Pass,0.2171615918,1.1804575136,Pass,Pass
 Warmup Convergence Information,MFG - BAY H > 15M-SPACE FUNCTION ZN,SizingPeriod: FORT MCMURRAY AP ANN HTG 99.6% CONDNS DB,5.5798068670E-002,0.3615681480,Pass,Pass,0.1894841779,0.9719769299,Pass,Pass
 Warmup Convergence Information,MFG - CORR. < 2.4M-SCH-A-SPACE FUNCTION ZN,SizingPeriod: FORT MCMURRAY AP ANN HTG 99.6% CONDNS DB,5.5573068953E-002,0.3633356942,Pass,Pass,0.3849933163,3.1527070225,Pass,Pass
 Warmup Convergence Information,MFG - CORR. < 2.4M-SCH-B-SPACE FUNCTION ZN,SizingPeriod: FORT MCMURRAY AP ANN HTG 99.6% CONDNS DB,5.5731208764E-002,0.3620003805,Pass,Pass,0.7132562028,4.6975166282,Pass,Pass
 Warmup Convergence Information,MFG - CORR. < 2.4M-SCH-C-SPACE FUNCTION ZN,SizingPeriod: FORT MCMURRAY AP ANN HTG 99.6% CONDNS DB,5.5555555556E-002,0.3662470285,Pass,Pass,5.8787359990E-002,0.2164349516,Pass,Pass
 Warmup Convergence Information,MFG - CORR. < 2.4M-SCH-D-SPACE FUNCTION ZN,SizingPeriod: FORT MCMURRAY AP ANN HTG 99.6% CONDNS DB,5.5603838779E-002,0.3630932078,Pass,Pass,8.7883879049E-002,0.2422127954,Pass,Pass
 Warmup Convergence Information,MFG - CORR. < 2.4M-SCH-E-SPACE FUNCTION ZN,SizingPeriod: FORT MCMURRAY AP ANN HTG 99.6% CONDNS DB,5.5595091644E-002,0.3630049108,Pass,Pass,9.1493725072E-002,0.2313831835,Pass,Pass
 Warmup Convergence Information,MFG - CORR. < 2.4M-SCH-F-SPACE FUNCTION ZN,SizingPeriod: FORT MCMURRAY AP ANN HTG 99.6% CONDNS DB,5.5606010829E-002,0.3637272835,Pass,Pass,0.1186517414,0.3185686350,Pass,Pass
 Warmup Convergence Information,MFG - CORR. < 2.4M-SCH-G-SPACE FUNCTION ZN,SizingPeriod: FORT MCMURRAY AP ANN HTG 99.6% CONDNS DB,5.5638908105E-002,0.3634085542,Pass,Pass,9.6151847070E-002,0.3201343004,Pass,Pass
 Warmup Convergence Information,MFG - CORR. < 2.4M-SCH-H-SPACE FUNCTION ZN,SizingPeriod: FORT MCMURRAY AP ANN HTG 99.6% CONDNS DB,5.5836777218E-002,0.3613036207,Pass,Pass,0.3233459433,1.2475233696,Pass,Pass
! <Program Control Information:Threads/Parallel Sims>, Threading Supported,Maximum Number of Threads, Env Set Threads (OMP_NUM_THREADS), EP Env Set Threads (EP_OMP_NUM_THREADS), IDF Set Threads, Number of Threads Used (Interior Radiant Exchange), Number Nominal Surfaces, Number Parallel Sims
Program Control:Threads/Parallel Sims, No,1, N/A, N/A, N/A, N/A, N/A, N/A
End of Data
