Program Version,EnergyPlus, Version 8.9.0-eba93e8e1b, YMD=2019.03.28 13:17
! <Version>, Version ID
 Version, 8.9
! <Timesteps per Hour>, #TimeSteps, Minutes per TimeStep {minutes}
 Timesteps per Hour,  6, 10
! <System Convergence Limits>, Minimum System TimeStep {minutes}, Max HVAC Iterations, Minimum Plant Iterations, Maximum Plant Iterations
 System Convergence Limits, 1, 20, 2, 8
! <Simulation Control>, Do Zone Sizing, Do System Sizing, Do Plant Sizing, Do Design Days, Do Weather Simulation, Do HVAC Sizing Simulation
 Simulation Control, Yes, No, No, Yes, No, No
! <Output Reporting Tolerances>, Tolerance for Time Heating Setpoint Not Met, Tolerance for Zone Cooling Setpoint Not Met Time
 Output Reporting Tolerances, 0.200, 0.200, 
! <Site:GroundTemperature:BuildingSurface>,Jan{C},Feb{C},Mar{C},Apr{C},May{C},Jun{C},Jul{C},Aug{C},Sep{C},Oct{C},Nov{C},Dec{C}
 Site:GroundTemperature:BuildingSurface,  19.53,  19.50,  19.54,  19.60,  20.00,  21.64,  22.23,  22.38,  21.45,  20.12,  19.80,  19.63
! <Site:GroundTemperature:FCfactorMethod>,Jan{C},Feb{C},Mar{C},Apr{C},May{C},Jun{C},Jul{C},Aug{C},Sep{C},Oct{C},Nov{C},Dec{C}
 Site:GroundTemperature:FCfactorMethod, -12.27, -13.66, -11.19,  -7.33,   2.77,  10.57,  15.83,  17.43,  14.70,   8.65,   0.56,  -6.95
! <Site:GroundTemperature:Shallow>,Jan{C},Feb{C},Mar{C},Apr{C},May{C},Jun{C},Jul{C},Aug{C},Sep{C},Oct{C},Nov{C},Dec{C}
 Site:GroundTemperature:Shallow,  13.00,  13.00,  13.00,  13.00,  13.00,  13.00,  13.00,  13.00,  13.00,  13.00,  13.00,  13.00
! <Site:GroundTemperature:Deep>,Jan{C},Feb{C},Mar{C},Apr{C},May{C},Jun{C},Jul{C},Aug{C},Sep{C},Oct{C},Nov{C},Dec{C}
 Site:GroundTemperature:Deep,  16.00,  16.00,  16.00,  16.00,  16.00,  16.00,  16.00,  16.00,  16.00,  16.00,  16.00,  16.00
! <Site:GroundReflectance>,Jan{dimensionless},Feb{dimensionless},Mar{dimensionless},Apr{dimensionless},May{dimensionless},Jun{dimensionless},Jul{dimensionless},Aug{dimensionless},Sep{dimensionless},Oct{dimensionless},Nov{dimensionless},Dec{dimensionless}
 Site:GroundReflectance,  0.20,  0.20,  0.20,  0.20,  0.20,  0.20,  0.20,  0.20,  0.20,  0.20,  0.20,  0.20
! <Site:GroundReflectance:SnowModifier>, Normal, Daylighting {dimensionless}
 Site:GroundReflectance:SnowModifier,   1.000,   1.000
! <Site:GroundReflectance:Snow>,Jan{dimensionless},Feb{dimensionless},Mar{dimensionless},Apr{dimensionless},May{dimensionless},Jun{dimensionless},Jul{dimensionless},Aug{dimensionless},Sep{dimensionless},Oct{dimensionless},Nov{dimensionless},Dec{dimensionless}
 Site:GroundReflectance:Snow,  0.20,  0.20,  0.20,  0.20,  0.20,  0.20,  0.20,  0.20,  0.20,  0.20,  0.20,  0.20
! <Site:GroundReflectance:Snow:Daylighting>,Jan{dimensionless},Feb{dimensionless},Mar{dimensionless},Apr{dimensionless},May{dimensionless},Jun{dimensionless},Jul{dimensionless},Aug{dimensionless},Sep{dimensionless},Oct{dimensionless},Nov{dimensionless},Dec{dimensionless}
 Site:GroundReflectance:Snow:Daylighting,  0.20,  0.20,  0.20,  0.20,  0.20,  0.20,  0.20,  0.20,  0.20,  0.20,  0.20,  0.20
! <Environment:Weather Station>,Wind Sensor Height Above Ground {m},Wind Speed Profile Exponent {},Wind Speed Profile Boundary Layer Thickness {m},Air Temperature Sensor Height Above Ground {m},Wind Speed Modifier Coefficient-Internal,Temperature Modifier Coefficient-Internal
Environment:Weather Station,10.000,0.140,270.000,1.500,1.586,9.750E-003
! <Site:Location>, Location Name, Latitude {N+/S- Deg}, Longitude {E+/W- Deg},  Time Zone Number {GMT+/-}, Elevation {m},  Standard Pressure at Elevation {Pa}, Standard RhoAir at Elevation
Site:Location,Fort McMurray AP AB CAN CWEC2016 WMO#=716890,56.65,-111.22,-7.00,369.10,96969,1.1525
! <Building Information>, Building Name,North Axis {deg},Terrain,  Loads Convergence Tolerance Value,Temperature Convergence Tolerance Value,  Solar Distribution,Maximum Number of Warmup Days,Minimum Number of Warmup Days
 Building Information,Building 1,0.000,Suburbs,4.00000E-002,0.40000,FullExterior,25,6
! <Inside Convection Algorithm>, Algorithm {Simple | TARP | CeilingDiffuser | AdaptiveConvectionAlgorithm}
Inside Convection Algorithm,TARP
! <Outside Convection Algorithm>, Algorithm {SimpleCombined | TARP | MoWitt | DOE-2 | AdaptiveConvectionAlgorithm}
Outside Convection Algorithm,TARP
! <Sky Radiance Distribution>, Value {Anisotropic}
Sky Radiance Distribution,Anisotropic
! <Zone Air Solution Algorithm>, Value {ThirdOrderBackwardDifference | AnalyticalSolution | EulerMethod}
 Zone Air Solution Algorithm, ThirdOrderBackwardDifference
! <Zone Air Carbon Dioxide Balance Simulation>, Simulation {Yes/No}, Carbon Dioxide Concentration
 Zone Air Carbon Dioxide Balance Simulation, No,N/A
! <Zone Air Generic Contaminant Balance Simulation>, Simulation {Yes/No}, Generic Contaminant Concentration
 Zone Air Generic Contaminant Balance Simulation, No,N/A
! <Zone Air Mass Flow Balance Simulation>, Enforce Mass Balance, Adjust Zone Mixing, Adjust Zone Infiltration {AddInfiltration | AdjustInfiltration | None}, Infiltration Zones {MixingSourceZonesOnly | AllZones}
 Zone Air Mass Flow Balance Simulation, No,N/A,N/A,N/A
! <HVACSystemRootFindingAlgorithm>, Value {RegulaFalsi | Bisection | BisectionThenRegulaFalsi | RegulaFalsiThenBisection}
 HVACSystemRootFindingAlgorithm, RegulaFalsi
! <Environment:Site Atmospheric Variation>,Wind Speed Profile Exponent {},Wind Speed Profile Boundary Layer Thickness {m},Air Temperature Gradient Coefficient {K/m}
Environment:Site Atmospheric Variation,0.220,370.000,6.500000E-003
! <Surface Geometry>,Starting Corner,Vertex Input Direction,Coordinate System,Daylight Reference Point Coordinate System,Rectangular (Simple) Surface Coordinate System
 Surface Geometry,UpperLeftCorner,Counterclockwise,RelativeCoordinateSystem,RelativeCoordinateSystem,RelativeToZoneOrigin
! <Surface Heat Transfer Algorithm>, Value {CTF - ConductionTransferFunction | EMPD - MoisturePenetrationDepthConductionTransferFunction | CondFD - ConductionFiniteDifference | HAMT - CombinedHeatAndMoistureFiniteElement} - Description,Inside Surface Max Temperature Limit{C}, Surface Convection Coefficient Lower Limit {W/m2-K}, Surface Convection Coefficient Upper Limit {W/m2-K}
Surface Heat Transfer Algorithm, CTF - ConductionTransferFunction,200,0.10,1000.0
! <Shading Summary>, Number of Fixed Detached Shades, Number of Building Detached Shades, Number of Attached Shades
 Shading Summary,0,0,0
! <Zone Summary>, Number of Zones, Number of Zone Surfaces, Number of SubSurfaces
 Zone Summary,20,137,17
! <Zone Information>,Zone Name,North Axis {deg},Origin X-Coordinate {m},Origin Y-Coordinate {m},Origin Z-Coordinate {m},Centroid X-Coordinate {m},Centroid Y-Coordinate {m},Centroid Z-Coordinate {m},Type,Zone Multiplier,Zone List Multiplier,Minimum X {m},Maximum X {m},Minimum Y {m},Maximum Y {m},Minimum Z {m},Maximum Z {m},Ceiling Height {m},Volume {m3},Zone Inside Convection Algorithm {Simple-Detailed-CeilingDiffuser-TrombeWall},Zone Outside Convection Algorithm {Simple-Detailed-Tarp-MoWitt-DOE-2-BLAST}, Floor Area {m2},Exterior Gross Wall Area {m2},Exterior Net Wall Area {m2},Exterior Window Area {m2}, Number of Surfaces, Number of SubSurfaces, Number of Shading SubSurfaces,  Part of Total Building Area
 Zone Information, RELIGIOUS - FELLOWSHIP HALL-SPACE FUNCTION ZN,0.0,0.00,0.00,11.40,50.00,10.85,13.30,1,1,1,0.00,100.00,0.00,25.00,11.40,15.20,3.80,7125.00,TARP,TARP,1875.00,380.00,285.00,188.75,6,2,0,Yes
 Zone Information, RELIGIOUS - PULPIT/CHOIR-SPACE FUNCTION ZN,0.0,25.00,75.00,11.40,50.00,89.15,13.30,1,1,1,0.00,100.00,75.00,100.00,11.40,15.20,3.80,7125.00,TARP,TARP,1875.00,380.00,285.00,188.75,6,2,0,Yes
 Zone Information, RETAIL - DRESSING/FITTING-SPACE FUNCTION ZN,0.0,0.00,0.00,7.60,50.00,10.85,9.50,1,1,1,0.00,100.00,0.00,25.00,7.60,11.40,3.80,7125.00,TARP,TARP,1875.00,380.00,285.00,95.00,6,1,0,Yes
 Zone Information, RETAIL - MALL CONCOURSE-SPACE FUNCTION ZN,0.0,25.00,75.00,7.60,50.00,89.15,9.50,1,1,1,0.00,100.00,75.00,100.00,7.60,11.40,3.80,7125.00,TARP,TARP,1875.00,380.00,285.00,95.00,6,1,0,Yes
 Zone Information, RETAIL - SALES-SPACE FUNCTION ZN,0.0,0.00,0.00,7.60,10.85,50.00,9.50,1,1,1,0.00,25.00,0.00,100.00,7.60,11.40,3.80,7125.00,TARP,TARP,1875.00,380.00,285.00,95.00,6,1,0,Yes
 Zone Information, SALES AREA-SPACE FUNCTION ZN,0.0,0.00,0.00,0.00,10.85,50.00,1.90,1,1,1,0.00,25.00,0.00,100.00,0.00,3.80,3.80,7125.00,TARP,TARP,1875.00,0.00,0.00,0.00,6,0,0,Yes
 Zone Information, SPORTS ARENA - AUDIENCE-SPACE FUNCTION ZN,0.0,25.00,25.00,7.60,50.00,50.00,9.50,1,1,1,25.00,75.00,25.00,75.00,7.60,11.40,3.80,9500.00,TARP,TARP,2500.00,0.00,0.00,0.00,6,0,0,Yes
 Zone Information, SPORTS ARENA - COURT C1-SPACE FUNCTION ZN,0.0,75.00,25.00,7.60,89.15,50.00,9.50,1,1,1,75.00,100.00,0.00,100.00,7.60,11.40,3.80,7125.00,TARP,TARP,1875.00,380.00,285.00,95.00,6,1,0,Yes
 Zone Information, SPORTS ARENA - COURT C2-SPACE FUNCTION ZN,0.0,25.00,75.00,0.00,50.00,89.15,1.90,1,1,1,0.00,100.00,75.00,100.00,0.00,3.80,3.80,7125.00,TARP,TARP,1875.00,0.00,0.00,0.00,6,0,0,Yes
 Zone Information, SPORTS ARENA - COURT C3-SPACE FUNCTION ZN,0.0,0.00,0.00,11.40,10.85,50.00,13.30,1,1,1,0.00,25.00,0.00,100.00,11.40,15.20,3.80,7125.00,TARP,TARP,1875.00,380.00,285.00,188.75,6,2,0,Yes
 Zone Information, SPORTS ARENA - COURT C4-SPACE FUNCTION ZN,0.0,0.00,0.00,3.80,10.85,50.00,5.70,1,1,1,0.00,25.00,0.00,100.00,3.80,7.60,3.80,7125.00,TARP,TARP,1875.00,380.00,285.00,95.00,6,1,0,Yes
 Zone Information, SPORTS ARENA - RING-SPACE FUNCTION ZN,0.0,25.00,75.00,3.80,50.00,89.15,5.70,1,1,1,0.00,100.00,75.00,100.00,3.80,7.60,3.80,7125.00,TARP,TARP,1875.00,380.00,285.00,95.00,6,1,0,Yes
 Zone Information, STORAGE AREA - OCCSENS-SPACE FUNCTION ZN,0.0,75.00,25.00,0.00,89.15,50.00,1.90,1,1,1,75.00,100.00,0.00,100.00,0.00,3.80,3.80,7125.00,TARP,TARP,1875.00,0.00,0.00,0.00,6,0,0,Yes
 Zone Information, STORAGE AREA - REFRIGERATED - OCCSENS-SPACE FUNCTION ZN,0.0,25.00,25.00,3.80,50.00,50.00,5.70,1,1,1,25.00,75.00,25.00,75.00,3.80,7.60,3.80,9500.00,TARP,TARP,2500.00,0.00,0.00,0.00,6,0,0,Yes
 Zone Information, STORAGE AREA - REFRIGERATED-SPACE FUNCTION ZN,0.0,0.00,0.00,0.00,50.00,10.85,1.90,1,1,1,0.00,100.00,0.00,25.00,0.00,3.80,3.80,7125.00,TARP,TARP,1875.00,0.00,0.00,0.00,6,0,0,Yes
 Zone Information, STORAGE AREA-SPACE FUNCTION ZN,0.0,25.00,25.00,11.40,50.00,50.00,13.30,1,1,1,25.00,75.00,25.00,75.00,11.40,15.20,3.80,9500.00,TARP,TARP,2500.00,0.00,0.00,125.00,6,1,0,Yes
 Zone Information, TRANSP. BAGGAGE-SPACE FUNCTION ZN,0.0,75.00,25.00,3.80,89.15,50.00,5.70,1,1,1,75.00,100.00,0.00,100.00,3.80,7.60,3.80,7125.00,TARP,TARP,1875.00,380.00,285.00,95.00,6,1,0,Yes
 Zone Information, TRANSP. CONCOURSE-SPACE FUNCTION ZN,0.0,75.00,25.00,11.40,89.15,50.00,13.30,1,1,1,75.00,100.00,0.00,100.00,11.40,15.20,3.80,7125.00,TARP,TARP,1875.00,380.00,285.00,188.75,6,2,0,Yes
 Zone Information, TRANSP. COUNTER-SPACE FUNCTION ZN,0.0,25.00,25.00,0.00,50.00,50.00,1.90,1,1,1,25.00,75.00,25.00,75.00,0.00,3.80,3.80,9500.00,TARP,TARP,2500.00,0.00,0.00,0.00,6,0,0,Yes
 Zone Information, TRANSP. SEATING-SPACE FUNCTION ZN,0.0,0.00,0.00,3.80,50.00,10.85,5.70,1,1,1,0.00,100.00,0.00,25.00,3.80,7.60,3.80,7125.00,TARP,TARP,1875.00,380.00,285.00,95.00,6,1,0,Yes
! <Zone Internal Gains Nominal>,Zone Name, Floor Area {m2},# Occupants,Area per Occupant {m2/person},Occupant per Area {person/m2},Interior Lighting {W/m2},Electric Load {W/m2},Gas Load {W/m2},Other Load {W/m2},Hot Water Eq {W/m2},Steam Equipment {W/m2},Sum Loads per Area {W/m2},Outdoor Controlled Baseboard Heat
 Zone Internal Gains Nominal, RELIGIOUS - FELLOWSHIP HALL-SPACE FUNCTION ZN,1875.00,375.0,5.000,0.200,6.900,1.000,0.000,0.000,0.000,0.000,7.900,No
 Zone Internal Gains Nominal, RELIGIOUS - PULPIT/CHOIR-SPACE FUNCTION ZN,1875.00,375.0,5.000,0.200,18.200,1.000,0.000,0.000,0.000,0.000,19.200,No
 Zone Internal Gains Nominal, RETAIL - DRESSING/FITTING-SPACE FUNCTION ZN,1875.00,62.6,29.969,3.337E-002,8.460,2.500,0.000,0.000,0.000,0.000,10.960,No
 Zone Internal Gains Nominal, RETAIL - MALL CONCOURSE-SPACE FUNCTION ZN,1875.00,93.8,19.979,5.005E-002,11.800,1.000,0.000,0.000,0.000,0.000,12.800,No
 Zone Internal Gains Nominal, RETAIL - SALES-SPACE FUNCTION ZN,1875.00,62.6,29.969,3.337E-002,18.100,2.500,0.000,0.000,0.000,0.000,20.600,No
 Zone Internal Gains Nominal, SALES AREA-SPACE FUNCTION ZN,1875.00,62.6,29.969,3.337E-002,18.100,2.500,0.000,0.000,0.000,0.000,20.600,No
 Zone Internal Gains Nominal, SPORTS ARENA - AUDIENCE-SPACE FUNCTION ZN,2500.00,500.0,5.000,0.200,4.600,0.000,0.000,0.000,0.000,0.000,4.600,No
 Zone Internal Gains Nominal, SPORTS ARENA - COURT C1-SPACE FUNCTION ZN,1875.00,375.0,5.000,0.200,32.400,1.500,0.000,0.000,0.000,0.000,33.900,No
 Zone Internal Gains Nominal, SPORTS ARENA - COURT C2-SPACE FUNCTION ZN,1875.00,375.0,5.000,0.200,20.700,1.500,0.000,0.000,0.000,0.000,22.200,No
 Zone Internal Gains Nominal, SPORTS ARENA - COURT C3-SPACE FUNCTION ZN,1875.00,375.0,5.000,0.200,12.900,1.500,0.000,0.000,0.000,0.000,14.400,No
 Zone Internal Gains Nominal, SPORTS ARENA - COURT C4-SPACE FUNCTION ZN,1875.00,375.0,5.000,0.200,7.800,1.500,0.000,0.000,0.000,0.000,9.300,No
 Zone Internal Gains Nominal, SPORTS ARENA - RING-SPACE FUNCTION ZN,1875.00,375.0,5.000,0.200,28.800,1.500,0.000,0.000,0.000,0.000,30.300,No
 Zone Internal Gains Nominal, STORAGE AREA - OCCSENS-SPACE FUNCTION ZN,1875.00,18.8,99.896,1.001E-002,6.120,1.000,0.000,0.000,0.000,0.000,7.120,No
 Zone Internal Gains Nominal, STORAGE AREA - REFRIGERATED - OCCSENS-SPACE FUNCTION ZN,2500.00,25.0,99.896,1.001E-002,6.120,1.000,0.000,0.000,0.000,0.000,7.120,No
 Zone Internal Gains Nominal, STORAGE AREA - REFRIGERATED-SPACE FUNCTION ZN,1875.00,18.8,99.896,1.001E-002,6.800,1.000,0.000,0.000,0.000,0.000,7.800,No
 Zone Internal Gains Nominal, STORAGE AREA-SPACE FUNCTION ZN,2500.00,25.0,99.896,1.001E-002,6.800,1.000,0.000,0.000,0.000,0.000,7.800,No
 Zone Internal Gains Nominal, TRANSP. BAGGAGE-SPACE FUNCTION ZN,1875.00,93.8,19.979,5.005E-002,8.200,2.500,0.000,0.000,0.000,0.000,10.700,No
 Zone Internal Gains Nominal, TRANSP. CONCOURSE-SPACE FUNCTION ZN,1875.00,93.8,19.979,5.005E-002,3.900,0.000,0.000,0.000,0.000,0.000,3.900,No
 Zone Internal Gains Nominal, TRANSP. COUNTER-SPACE FUNCTION ZN,2500.00,250.0,10.000,10.000E-002,11.600,2.500,0.000,0.000,0.000,0.000,14.100,No
 Zone Internal Gains Nominal, TRANSP. SEATING-SPACE FUNCTION ZN,1875.00,187.5,10.000,10.000E-002,5.800,0.000,0.000,0.000,0.000,0.000,5.800,No
! <People Internal Gains Nominal>,Name,Schedule Name,Zone Name,Zone Floor Area {m2},# Zone Occupants,Number of People {},People/Floor Area {person/m2},Floor Area per person {m2/person},Fraction Radiant,Fraction Convected,Sensible Fraction Calculation,Activity level,ASHRAE 55 Warnings,Carbon Dioxide Generation Rate,Nominal Minimum Number of People,Nominal Maximum Number of People
 People Internal Gains Nominal, RELIGIOUS - FELLOWSHIP HALL-SPACE FUNCTION ZN SPACE FUNCTION RELIGIOUS - FELLOWSHIP HALL PEOPLE,NECB-C-OCCUPANCY,RELIGIOUS - FELLOWSHIP HALL-SPACE FUNCTION ZN,1875.00,375.0,375.0,0.200,5.000,0.300,0.700,AutoCalculate,NECB-ACTIVITY,No,3.8200E-008,0,337
 People Internal Gains Nominal, RELIGIOUS - PULPIT/CHOIR-SPACE FUNCTION ZN SPACE FUNCTION RELIGIOUS - PULPIT/CHOIR PEOPLE,NECB-I-OCCUPANCY,RELIGIOUS - PULPIT/CHOIR-SPACE FUNCTION ZN,1875.00,375.0,375.0,0.200,5.000,0.300,0.700,AutoCalculate,NECB-ACTIVITY,No,3.8200E-008,0,300
 People Internal Gains Nominal, RETAIL - DRESSING/FITTING-SPACE FUNCTION ZN SPACE FUNCTION RETAIL - DRESSING/FITTING PEOPLE,NECB-C-OCCUPANCY,RETAIL - DRESSING/FITTING-SPACE FUNCTION ZN,1875.00,62.6,62.6,3.337E-002,29.969,0.300,0.700,AutoCalculate,NECB-ACTIVITY,No,3.8200E-008,0,56
 People Internal Gains Nominal, RETAIL - MALL CONCOURSE-SPACE FUNCTION ZN SPACE FUNCTION RETAIL - MALL CONCOURSE PEOPLE,NECB-C-OCCUPANCY,RETAIL - MALL CONCOURSE-SPACE FUNCTION ZN,1875.00,93.8,93.8,5.005E-002,19.979,0.300,0.700,AutoCalculate,NECB-ACTIVITY,No,3.8200E-008,0,84
 People Internal Gains Nominal, RETAIL - SALES-SPACE FUNCTION ZN SPACE FUNCTION RETAIL - SALES PEOPLE,NECB-C-OCCUPANCY,RETAIL - SALES-SPACE FUNCTION ZN,1875.00,62.6,62.6,3.337E-002,29.969,0.300,0.700,AutoCalculate,NECB-ACTIVITY,No,3.8200E-008,0,56
 People Internal Gains Nominal, SALES AREA-SPACE FUNCTION ZN SPACE FUNCTION SALES AREA PEOPLE,NECB-C-OCCUPANCY,SALES AREA-SPACE FUNCTION ZN,1875.00,62.6,62.6,3.337E-002,29.969,0.300,0.700,AutoCalculate,NECB-ACTIVITY,No,3.8200E-008,0,56
 People Internal Gains Nominal, SPORTS ARENA - AUDIENCE-SPACE FUNCTION ZN SPACE FUNCTION SPORTS ARENA - AUDIENCE PEOPLE,NECB-B-OCCUPANCY,SPORTS ARENA - AUDIENCE-SPACE FUNCTION ZN,2500.00,500.0,500.0,0.200,5.000,0.300,0.700,AutoCalculate,NECB-ACTIVITY,No,3.8200E-008,0,450
 People Internal Gains Nominal, SPORTS ARENA - COURT C1-SPACE FUNCTION ZN SPACE FUNCTION SPORTS ARENA - COURT C1 PEOPLE,NECB-B-OCCUPANCY,SPORTS ARENA - COURT C1-SPACE FUNCTION ZN,1875.00,375.0,375.0,0.200,5.000,0.300,0.700,AutoCalculate,NECB-ACTIVITY,No,3.8200E-008,0,337
 People Internal Gains Nominal, SPORTS ARENA - COURT C2-SPACE FUNCTION ZN SPACE FUNCTION SPORTS ARENA - COURT C2 PEOPLE,NECB-B-OCCUPANCY,SPORTS ARENA - COURT C2-SPACE FUNCTION ZN,1875.00,375.0,375.0,0.200,5.000,0.300,0.700,AutoCalculate,NECB-ACTIVITY,No,3.8200E-008,0,337
 People Internal Gains Nominal, SPORTS ARENA - COURT C3-SPACE FUNCTION ZN SPACE FUNCTION SPORTS ARENA - COURT C3 PEOPLE,NECB-B-OCCUPANCY,SPORTS ARENA - COURT C3-SPACE FUNCTION ZN,1875.00,375.0,375.0,0.200,5.000,0.300,0.700,AutoCalculate,NECB-ACTIVITY,No,3.8200E-008,0,337
 People Internal Gains Nominal, SPORTS ARENA - COURT C4-SPACE FUNCTION ZN SPACE FUNCTION SPORTS ARENA - COURT C4 PEOPLE,NECB-B-OCCUPANCY,SPORTS ARENA - COURT C4-SPACE FUNCTION ZN,1875.00,375.0,375.0,0.200,5.000,0.300,0.700,AutoCalculate,NECB-ACTIVITY,No,3.8200E-008,0,337
 People Internal Gains Nominal, SPORTS ARENA - RING-SPACE FUNCTION ZN SPACE FUNCTION SPORTS ARENA - RING PEOPLE,NECB-B-OCCUPANCY,SPORTS ARENA - RING-SPACE FUNCTION ZN,1875.00,375.0,375.0,0.200,5.000,0.300,0.700,AutoCalculate,NECB-ACTIVITY,No,3.8200E-008,0,337
 People Internal Gains Nominal, STORAGE AREA-SPACE FUNCTION ZN SPACE FUNCTION STORAGE AREA PEOPLE,NECB-E-OCCUPANCY,STORAGE AREA-SPACE FUNCTION ZN,2500.00,25.0,25.0,1.001E-002,99.896,0.300,0.700,AutoCalculate,NECB-ACTIVITY,No,3.8200E-008,0,23
 People Internal Gains Nominal, STORAGE AREA - OCCSENS-SPACE FUNCTION ZN SPACE FUNCTION STORAGE AREA - OCCSENS PEOPLE,NECB-E-OCCUPANCY,STORAGE AREA - OCCSENS-SPACE FUNCTION ZN,1875.00,18.8,18.8,1.001E-002,99.896,0.300,0.700,AutoCalculate,NECB-ACTIVITY,No,3.8200E-008,0,17
 People Internal Gains Nominal, STORAGE AREA - REFRIGERATED-SPACE FUNCTION ZN SPACE FUNCTION STORAGE AREA - REFRIGERATED PEOPLE,NECB-E-OCCUPANCY,STORAGE AREA - REFRIGERATED-SPACE FUNCTION ZN,1875.00,18.8,18.8,1.001E-002,99.896,0.300,0.700,AutoCalculate,NECB-ACTIVITY,No,3.8200E-008,0,17
 People Internal Gains Nominal, STORAGE AREA - REFRIGERATED - OCCSENS-SPACE FUNCTION ZN SPACE FUNCTION STORAGE AREA - REFRIGERATED - OCCSENS PEOPLE,NECB-E-OCCUPANCY,STORAGE AREA - REFRIGERATED - OCCSENS-SPACE FUNCTION ZN,2500.00,25.0,25.0,1.001E-002,99.896,0.300,0.700,AutoCalculate,NECB-ACTIVITY,No,3.8200E-008,0,23
 People Internal Gains Nominal, TRANSP. BAGGAGE-SPACE FUNCTION ZN SPACE FUNCTION TRANSP. BAGGAGE PEOPLE,NECB-H-OCCUPANCY,TRANSP. BAGGAGE-SPACE FUNCTION ZN,1875.00,93.8,93.8,5.005E-002,19.979,0.300,0.700,AutoCalculate,NECB-ACTIVITY,No,3.8200E-008,84,84
 People Internal Gains Nominal, TRANSP. CONCOURSE-SPACE FUNCTION ZN SPACE FUNCTION TRANSP. CONCOURSE PEOPLE,NECB-H-OCCUPANCY,TRANSP. CONCOURSE-SPACE FUNCTION ZN,1875.00,93.8,93.8,5.005E-002,19.979,0.300,0.700,AutoCalculate,NECB-ACTIVITY,No,3.8200E-008,84,84
 People Internal Gains Nominal, TRANSP. COUNTER-SPACE FUNCTION ZN SPACE FUNCTION TRANSP. COUNTER PEOPLE,NECB-H-OCCUPANCY,TRANSP. COUNTER-SPACE FUNCTION ZN,2500.00,250.0,250.0,10.000E-002,10.000,0.300,0.700,AutoCalculate,NECB-ACTIVITY,No,3.8200E-008,225,225
 People Internal Gains Nominal, TRANSP. SEATING-SPACE FUNCTION ZN SPACE FUNCTION TRANSP. SEATING PEOPLE,NECB-H-OCCUPANCY,TRANSP. SEATING-SPACE FUNCTION ZN,1875.00,187.5,187.5,10.000E-002,10.000,0.300,0.700,AutoCalculate,NECB-ACTIVITY,No,3.8200E-008,169,169
! <Lights Internal Gains Nominal>,Name,Schedule Name,Zone Name,Zone Floor Area {m2},# Zone Occupants,Lighting Level {W},Lights/Floor Area {W/m2},Lights per person {W/person},Fraction Return Air,Fraction Radiant,Fraction Short Wave,Fraction Convected,Fraction Replaceable,End-Use Category,Nominal Minimum Lighting Level {W},Nominal Maximum Lighting Level {W}
 Lights Internal Gains Nominal, RELIGIOUS - FELLOWSHIP HALL-SPACE FUNCTION ZN SPACE FUNCTION RELIGIOUS - FELLOWSHIP HALL LIGHTS,NECB-C-LIGHTING,RELIGIOUS - FELLOWSHIP HALL-SPACE FUNCTION ZN,1875.00,375.0,12937.392,6.900,34.501,0.000,0.500,0.200,0.300,1.000,General,646.870,11643.653
 Lights Internal Gains Nominal, RELIGIOUS - PULPIT/CHOIR-SPACE FUNCTION ZN SPACE FUNCTION RELIGIOUS - PULPIT/CHOIR LIGHTS,NECB-I-LIGHTING,RELIGIOUS - PULPIT/CHOIR-SPACE FUNCTION ZN,1875.00,375.0,34124.716,18.200,91.002,0.000,0.500,0.200,0.300,1.000,General,1706.236,30712.244
 Lights Internal Gains Nominal, RETAIL - DRESSING/FITTING-SPACE FUNCTION ZN SPACE FUNCTION RETAIL - DRESSING/FITTING LIGHTS,NECB-C-LIGHTING,RETAIL - DRESSING/FITTING-SPACE FUNCTION ZN,1875.00,62.6,15862.368,8.460,253.533,0.000,0.500,0.200,0.300,1.000,General,793.118,14276.131
 Lights Internal Gains Nominal, RETAIL - MALL CONCOURSE-SPACE FUNCTION ZN SPACE FUNCTION RETAIL - MALL CONCOURSE LIGHTS,NECB-C-LIGHTING,RETAIL - MALL CONCOURSE-SPACE FUNCTION ZN,1875.00,93.8,22124.816,11.800,235.752,0.000,0.500,0.200,0.300,1.000,General,1106.241,19912.334
 Lights Internal Gains Nominal, RETAIL - SALES-SPACE FUNCTION ZN SPACE FUNCTION RETAIL - SALES LIGHTS,NECB-C-LIGHTING,RETAIL - SALES-SPACE FUNCTION ZN,1875.00,62.6,33937.218,18.100,542.429,0.000,0.500,0.200,0.300,1.000,General,1696.861,30543.496
 Lights Internal Gains Nominal, SALES AREA-SPACE FUNCTION ZN SPACE FUNCTION SALES AREA LIGHTS,NECB-C-LIGHTING,SALES AREA-SPACE FUNCTION ZN,1875.00,62.6,33937.218,18.100,542.429,0.000,0.500,0.200,0.300,1.000,General,1696.861,30543.496
 Lights Internal Gains Nominal, SPORTS ARENA - AUDIENCE-SPACE FUNCTION ZN SPACE FUNCTION SPORTS ARENA - AUDIENCE LIGHTS,NECB-B-LIGHTING,SPORTS ARENA - AUDIENCE-SPACE FUNCTION ZN,2500.00,500.0,11499.904,4.600,23.001,0.000,0.500,0.200,0.300,1.000,General,1149.990,10349.914
 Lights Internal Gains Nominal, SPORTS ARENA - COURT C1-SPACE FUNCTION ZN SPACE FUNCTION SPORTS ARENA - COURT C1 LIGHTS,NECB-B-LIGHTING,SPORTS ARENA - COURT C1-SPACE FUNCTION ZN,1875.00,375.0,60749.494,32.400,162.004,0.000,0.500,0.200,0.300,1.000,General,6074.949,54674.545
 Lights Internal Gains Nominal, SPORTS ARENA - COURT C2-SPACE FUNCTION ZN SPACE FUNCTION SPORTS ARENA - COURT C2 LIGHTS,NECB-B-LIGHTING,SPORTS ARENA - COURT C2-SPACE FUNCTION ZN,1875.00,375.0,38812.177,20.700,103.503,0.000,0.500,0.200,0.300,1.000,General,3881.218,34930.959
 Lights Internal Gains Nominal, SPORTS ARENA - COURT C3-SPACE FUNCTION ZN SPACE FUNCTION SPORTS ARENA - COURT C3 LIGHTS,NECB-B-LIGHTING,SPORTS ARENA - COURT C3-SPACE FUNCTION ZN,1875.00,375.0,24187.299,12.900,64.502,0.000,0.500,0.200,0.300,1.000,General,2418.730,21768.569
 Lights Internal Gains Nominal, SPORTS ARENA - COURT C4-SPACE FUNCTION ZN SPACE FUNCTION SPORTS ARENA - COURT C4 LIGHTS,NECB-B-LIGHTING,SPORTS ARENA - COURT C4-SPACE FUNCTION ZN,1875.00,375.0,14624.878,7.800,39.001,0.000,0.500,0.200,0.300,1.000,General,1462.488,13162.390
 Lights Internal Gains Nominal, SPORTS ARENA - RING-SPACE FUNCTION ZN SPACE FUNCTION SPORTS ARENA - RING LIGHTS,NECB-B-LIGHTING,SPORTS ARENA - RING-SPACE FUNCTION ZN,1875.00,375.0,53999.551,28.800,144.004,0.000,0.500,0.200,0.300,1.000,General,5399.955,48599.596
 Lights Internal Gains Nominal, STORAGE AREA-SPACE FUNCTION ZN SPACE FUNCTION STORAGE AREA LIGHTS,NECB-E-LIGHTING,STORAGE AREA-SPACE FUNCTION ZN,2500.00,25.0,16999.859,6.800,679.285,0.000,0.500,0.200,0.300,1.000,General,849.993,15299.873
 Lights Internal Gains Nominal, STORAGE AREA - OCCSENS-SPACE FUNCTION ZN SPACE FUNCTION STORAGE AREA - OCCSENS LIGHTS,NECB-E-LIGHTING,STORAGE AREA - OCCSENS-SPACE FUNCTION ZN,1875.00,18.8,11474.905,6.120,611.357,0.000,0.500,0.200,0.300,1.000,General,573.745,10327.414
 Lights Internal Gains Nominal, STORAGE AREA - REFRIGERATED-SPACE FUNCTION ZN SPACE FUNCTION STORAGE AREA - REFRIGERATED LIGHTS,NECB-E-LIGHTING,STORAGE AREA - REFRIGERATED-SPACE FUNCTION ZN,1875.00,18.8,12749.894,6.800,679.285,0.000,0.500,0.200,0.300,1.000,General,637.495,11474.904
 Lights Internal Gains Nominal, STORAGE AREA - REFRIGERATED - OCCSENS-SPACE FUNCTION ZN SPACE FUNCTION STORAGE AREA - REFRIGERATED - OCCSENS LIGHTS,NECB-E-LIGHTING,STORAGE AREA - REFRIGERATED - OCCSENS-SPACE FUNCTION ZN,2500.00,25.0,15299.873,6.120,611.357,0.000,0.500,0.200,0.300,1.000,General,764.994,13769.885
 Lights Internal Gains Nominal, TRANSP. BAGGAGE-SPACE FUNCTION ZN SPACE FUNCTION TRANSP. BAGGAGE LIGHTS,NECB-H-LIGHTING,TRANSP. BAGGAGE-SPACE FUNCTION ZN,1875.00,93.8,15374.872,8.200,163.828,0.000,0.500,0.200,0.300,1.000,General,13837.385,13837.385
 Lights Internal Gains Nominal, TRANSP. CONCOURSE-SPACE FUNCTION ZN SPACE FUNCTION TRANSP. CONCOURSE LIGHTS,NECB-H-LIGHTING,TRANSP. CONCOURSE-SPACE FUNCTION ZN,1875.00,93.8,7312.439,3.900,77.918,0.000,0.500,0.200,0.300,1.000,General,6581.195,6581.195
 Lights Internal Gains Nominal, TRANSP. COUNTER-SPACE FUNCTION ZN SPACE FUNCTION TRANSP. COUNTER LIGHTS,NECB-H-LIGHTING,TRANSP. COUNTER-SPACE FUNCTION ZN,2500.00,250.0,28999.759,11.600,116.003,0.000,0.500,0.200,0.300,1.000,General,26099.783,26099.783
 Lights Internal Gains Nominal, TRANSP. SEATING-SPACE FUNCTION ZN SPACE FUNCTION TRANSP. SEATING LIGHTS,NECB-H-LIGHTING,TRANSP. SEATING-SPACE FUNCTION ZN,1875.00,187.5,10874.910,5.800,58.001,0.000,0.500,0.200,0.300,1.000,General,9787.419,9787.419
! <ElectricEquipment Internal Gains Nominal>,Name,Schedule Name,Zone Name,Zone Floor Area {m2},# Zone Occupants,Equipment Level {W},Equipment/Floor Area {W/m2},Equipment per person {W/person},Fraction Latent,Fraction Radiant,Fraction Lost,Fraction Convected,End-Use SubCategory,Nominal Minimum Equipment Level {W},Nominal Maximum Equipment Level {W}
 ElectricEquipment Internal Gains Nominal, RELIGIOUS - FELLOWSHIP HALL-SPACE FUNCTION ZN SPACE FUNCTION RELIGIOUS - FELLOWSHIP HALL ELEC EQUIP,NECB-C-ELECTRIC-EQUIPMENT,RELIGIOUS - FELLOWSHIP HALL-SPACE FUNCTION ZN,1875.00,375.0,1874.984,1.000,5.000,0.000,0.500,0.000,0.500,General,93.749,1687.486
 ElectricEquipment Internal Gains Nominal, RELIGIOUS - PULPIT/CHOIR-SPACE FUNCTION ZN SPACE FUNCTION RELIGIOUS - PULPIT/CHOIR ELEC EQUIP,NECB-I-ELECTRIC-EQUIPMENT,RELIGIOUS - PULPIT/CHOIR-SPACE FUNCTION ZN,1875.00,375.0,1874.984,1.000,5.000,0.000,0.500,0.000,0.500,General,187.498,1499.988
 ElectricEquipment Internal Gains Nominal, RETAIL - DRESSING/FITTING-SPACE FUNCTION ZN SPACE FUNCTION RETAIL - DRESSING/FITTING ELEC EQUIP,NECB-C-ELECTRIC-EQUIPMENT,RETAIL - DRESSING/FITTING-SPACE FUNCTION ZN,1875.00,62.6,4687.461,2.500,74.921,0.000,0.500,0.000,0.500,General,234.373,4218.715
 ElectricEquipment Internal Gains Nominal, RETAIL - MALL CONCOURSE-SPACE FUNCTION ZN SPACE FUNCTION RETAIL - MALL CONCOURSE ELEC EQUIP,NECB-C-ELECTRIC-EQUIPMENT,RETAIL - MALL CONCOURSE-SPACE FUNCTION ZN,1875.00,93.8,1874.984,1.000,19.979,0.000,0.500,0.000,0.500,General,93.749,1687.486
 ElectricEquipment Internal Gains Nominal, RETAIL - SALES-SPACE FUNCTION ZN SPACE FUNCTION RETAIL - SALES ELEC EQUIP,NECB-C-ELECTRIC-EQUIPMENT,RETAIL - SALES-SPACE FUNCTION ZN,1875.00,62.6,4687.461,2.500,74.921,0.000,0.500,0.000,0.500,General,234.373,4218.715
 ElectricEquipment Internal Gains Nominal, SALES AREA-SPACE FUNCTION ZN SPACE FUNCTION SALES AREA ELEC EQUIP,NECB-C-ELECTRIC-EQUIPMENT,SALES AREA-SPACE FUNCTION ZN,1875.00,62.6,4687.461,2.500,74.921,0.000,0.500,0.000,0.500,General,234.373,4218.715
 ElectricEquipment Internal Gains Nominal, SPORTS ARENA - COURT C1-SPACE FUNCTION ZN SPACE FUNCTION SPORTS ARENA - COURT C1 ELEC EQUIP,NECB-B-ELECTRIC-EQUIPMENT,SPORTS ARENA - COURT C1-SPACE FUNCTION ZN,1875.00,375.0,2812.477,1.500,7.500,0.000,0.500,0.000,0.500,General,281.248,2531.229
 ElectricEquipment Internal Gains Nominal, SPORTS ARENA - COURT C2-SPACE FUNCTION ZN SPACE FUNCTION SPORTS ARENA - COURT C2 ELEC EQUIP,NECB-B-ELECTRIC-EQUIPMENT,SPORTS ARENA - COURT C2-SPACE FUNCTION ZN,1875.00,375.0,2812.477,1.500,7.500,0.000,0.500,0.000,0.500,General,281.248,2531.229
 ElectricEquipment Internal Gains Nominal, SPORTS ARENA - COURT C3-SPACE FUNCTION ZN SPACE FUNCTION SPORTS ARENA - COURT C3 ELEC EQUIP,NECB-B-ELECTRIC-EQUIPMENT,SPORTS ARENA - COURT C3-SPACE FUNCTION ZN,1875.00,375.0,2812.477,1.500,7.500,0.000,0.500,0.000,0.500,General,281.248,2531.229
 ElectricEquipment Internal Gains Nominal, SPORTS ARENA - COURT C4-SPACE FUNCTION ZN SPACE FUNCTION SPORTS ARENA - COURT C4 ELEC EQUIP,NECB-B-ELECTRIC-EQUIPMENT,SPORTS ARENA - COURT C4-SPACE FUNCTION ZN,1875.00,375.0,2812.477,1.500,7.500,0.000,0.500,0.000,0.500,General,281.248,2531.229
 ElectricEquipment Internal Gains Nominal, SPORTS ARENA - RING-SPACE FUNCTION ZN SPACE FUNCTION SPORTS ARENA - RING ELEC EQUIP,NECB-B-ELECTRIC-EQUIPMENT,SPORTS ARENA - RING-SPACE FUNCTION ZN,1875.00,375.0,2812.477,1.500,7.500,0.000,0.500,0.000,0.500,General,281.248,2531.229
 ElectricEquipment Internal Gains Nominal, STORAGE AREA-SPACE FUNCTION ZN SPACE FUNCTION STORAGE AREA ELEC EQUIP,NECB-E-ELECTRIC-EQUIPMENT,STORAGE AREA-SPACE FUNCTION ZN,2500.00,25.0,2499.979,1.000,99.895,0.000,0.500,0.000,0.500,General,124.999,2249.981
 ElectricEquipment Internal Gains Nominal, STORAGE AREA - OCCSENS-SPACE FUNCTION ZN SPACE FUNCTION STORAGE AREA - OCCSENS ELEC EQUIP,NECB-E-ELECTRIC-EQUIPMENT,STORAGE AREA - OCCSENS-SPACE FUNCTION ZN,1875.00,18.8,1874.984,1.000,99.895,0.000,0.500,0.000,0.500,General,93.749,1687.486
 ElectricEquipment Internal Gains Nominal, STORAGE AREA - REFRIGERATED-SPACE FUNCTION ZN SPACE FUNCTION STORAGE AREA - REFRIGERATED ELEC EQUIP,NECB-E-ELECTRIC-EQUIPMENT,STORAGE AREA - REFRIGERATED-SPACE FUNCTION ZN,1875.00,18.8,1874.984,1.000,99.895,0.000,0.500,0.000,0.500,General,93.749,1687.486
 ElectricEquipment Internal Gains Nominal, STORAGE AREA - REFRIGERATED - OCCSENS-SPACE FUNCTION ZN SPACE FUNCTION STORAGE AREA - REFRIGERATED - OCCSENS ELEC EQUIP,NECB-E-ELECTRIC-EQUIPMENT,STORAGE AREA - REFRIGERATED - OCCSENS-SPACE FUNCTION ZN,2500.00,25.0,2499.979,1.000,99.895,0.000,0.500,0.000,0.500,General,124.999,2249.981
 ElectricEquipment Internal Gains Nominal, TRANSP. BAGGAGE-SPACE FUNCTION ZN SPACE FUNCTION TRANSP. BAGGAGE ELEC EQUIP,NECB-H-ELECTRIC-EQUIPMENT,TRANSP. BAGGAGE-SPACE FUNCTION ZN,1875.00,93.8,4687.461,2.500,49.947,0.000,0.500,0.000,0.500,General,4218.715,4218.715
 ElectricEquipment Internal Gains Nominal, TRANSP. COUNTER-SPACE FUNCTION ZN SPACE FUNCTION TRANSP. COUNTER ELEC EQUIP,NECB-H-ELECTRIC-EQUIPMENT,TRANSP. COUNTER-SPACE FUNCTION ZN,2500.00,250.0,6249.948,2.500,25.001,0.000,0.500,0.000,0.500,General,5624.953,5624.953
! <Shadowing/Sun Position Calculations Annual Simulations>, Calculation Method, Value {days}, Allowable Number Figures in Shadow Overlap {}, Polygon Clipping Algorithm, Sky Diffuse Modeling Algorithm, External Shading Calculation Method, Output External Shading Calculation Results, Disable Self-Shading Within Shading Zone Groups, Disable Self-Shading From Shading Zone Groups to Other Zones
Shadowing/Sun Position Calculations Annual Simulations,AverageOverDaysInFrequency,20,15000,SutherlandHodgman,SimpleSkyDiffuseModeling,InternalCalculation,No,No,No
! <ZoneInfiltration Airflow Stats Nominal>,Name,Schedule Name,Zone Name, Zone Floor Area {m2}, # Zone Occupants,Design Volume Flow Rate {m3/s},Volume Flow Rate/Floor Area {m3/s/m2},Volume Flow Rate/Exterior Surface Area {m3/s/m2},ACH - Air Changes per Hour,Equation A - Constant Term Coefficient {},Equation B - Temperature Term Coefficient {1/C},Equation C - Velocity Term Coefficient {s/m}, Equation D - Velocity Squared Term Coefficient {s2/m2}
 ZoneInfiltration Airflow Stats Nominal, RELIGIOUS - FELLOWSHIP HALL-SPACE FUNCTION INFILTRATION,ALWAYS ON DISCRETE,RELIGIOUS - FELLOWSHIP HALL-SPACE FUNCTION ZN,1875.00,375.0,0.564,3.007E-004,2.500E-004,0.285,0.000,0.000,0.224,0.000
 ZoneInfiltration Airflow Stats Nominal, RELIGIOUS - PULPIT/CHOIR-SPACE FUNCTION INFILTRATION,ALWAYS ON DISCRETE,RELIGIOUS - PULPIT/CHOIR-SPACE FUNCTION ZN,1875.00,375.0,0.564,3.007E-004,2.500E-004,0.285,0.000,0.000,0.224,0.000
 ZoneInfiltration Airflow Stats Nominal, RETAIL - DRESSING/FITTING-SPACE FUNCTION INFILTRATION,ALWAYS ON DISCRETE,RETAIL - DRESSING/FITTING-SPACE FUNCTION ZN,1875.00,62.6,9.500E-002,5.067E-005,2.500E-004,4.800E-002,0.000,0.000,0.224,0.000
 ZoneInfiltration Airflow Stats Nominal, RETAIL - MALL CONCOURSE-SPACE FUNCTION INFILTRATION,ALWAYS ON DISCRETE,RETAIL - MALL CONCOURSE-SPACE FUNCTION ZN,1875.00,93.8,9.500E-002,5.067E-005,2.500E-004,4.800E-002,0.000,0.000,0.224,0.000
 ZoneInfiltration Airflow Stats Nominal, RETAIL - SALES-SPACE FUNCTION INFILTRATION,ALWAYS ON DISCRETE,RETAIL - SALES-SPACE FUNCTION ZN,1875.00,62.6,9.500E-002,5.067E-005,2.500E-004,4.800E-002,0.000,0.000,0.224,0.000
 ZoneInfiltration Airflow Stats Nominal, SPORTS ARENA - COURT C1-SPACE FUNCTION INFILTRATION,ALWAYS ON DISCRETE,SPORTS ARENA - COURT C1-SPACE FUNCTION ZN,1875.00,375.0,9.500E-002,5.067E-005,2.500E-004,4.800E-002,0.000,0.000,0.224,0.000
 ZoneInfiltration Airflow Stats Nominal, SPORTS ARENA - COURT C3-SPACE FUNCTION INFILTRATION,ALWAYS ON DISCRETE,SPORTS ARENA - COURT C3-SPACE FUNCTION ZN,1875.00,375.0,0.564,3.007E-004,2.500E-004,0.285,0.000,0.000,0.224,0.000
 ZoneInfiltration Airflow Stats Nominal, SPORTS ARENA - COURT C4-SPACE FUNCTION INFILTRATION,ALWAYS ON DISCRETE,SPORTS ARENA - COURT C4-SPACE FUNCTION ZN,1875.00,375.0,9.500E-002,5.067E-005,2.500E-004,4.800E-002,0.000,0.000,0.224,0.000
 ZoneInfiltration Airflow Stats Nominal, SPORTS ARENA - RING-SPACE FUNCTION INFILTRATION,ALWAYS ON DISCRETE,SPORTS ARENA - RING-SPACE FUNCTION ZN,1875.00,375.0,9.500E-002,5.067E-005,2.500E-004,4.800E-002,0.000,0.000,0.224,0.000
 ZoneInfiltration Airflow Stats Nominal, STORAGE AREA-SPACE FUNCTION INFILTRATION,ALWAYS ON DISCRETE,STORAGE AREA-SPACE FUNCTION ZN,2500.00,25.0,0.625,2.500E-004,2.500E-004,0.237,0.000,0.000,0.224,0.000
 ZoneInfiltration Airflow Stats Nominal, TRANSP. BAGGAGE-SPACE FUNCTION INFILTRATION,ALWAYS ON DISCRETE,TRANSP. BAGGAGE-SPACE FUNCTION ZN,1875.00,93.8,9.500E-002,5.067E-005,2.500E-004,4.800E-002,0.000,0.000,0.224,0.000
 ZoneInfiltration Airflow Stats Nominal, TRANSP. CONCOURSE-SPACE FUNCTION INFILTRATION,ALWAYS ON DISCRETE,TRANSP. CONCOURSE-SPACE FUNCTION ZN,1875.00,93.8,0.564,3.007E-004,2.500E-004,0.285,0.000,0.000,0.224,0.000
 ZoneInfiltration Airflow Stats Nominal, TRANSP. SEATING-SPACE FUNCTION INFILTRATION,ALWAYS ON DISCRETE,TRANSP. SEATING-SPACE FUNCTION ZN,1875.00,187.5,9.500E-002,5.067E-005,2.500E-004,4.800E-002,0.000,0.000,0.224,0.000
! <AirFlow Model>, Simple
 AirFlow Model, Simple
! <RoomAir Model>, Zone Name, Mixing/Mundt/UCSDDV/UCSDCV/UCSDUFI/UCSDUFE/User Defined
RoomAir Model,RELIGIOUS - FELLOWSHIP HALL-SPACE FUNCTION ZN,Mixing/Well-Stirred
RoomAir Model,RELIGIOUS - PULPIT/CHOIR-SPACE FUNCTION ZN,Mixing/Well-Stirred
RoomAir Model,RETAIL - DRESSING/FITTING-SPACE FUNCTION ZN,Mixing/Well-Stirred
RoomAir Model,RETAIL - MALL CONCOURSE-SPACE FUNCTION ZN,Mixing/Well-Stirred
RoomAir Model,RETAIL - SALES-SPACE FUNCTION ZN,Mixing/Well-Stirred
RoomAir Model,SALES AREA-SPACE FUNCTION ZN,Mixing/Well-Stirred
RoomAir Model,SPORTS ARENA - AUDIENCE-SPACE FUNCTION ZN,Mixing/Well-Stirred
RoomAir Model,SPORTS ARENA - COURT C1-SPACE FUNCTION ZN,Mixing/Well-Stirred
RoomAir Model,SPORTS ARENA - COURT C2-SPACE FUNCTION ZN,Mixing/Well-Stirred
RoomAir Model,SPORTS ARENA - COURT C3-SPACE FUNCTION ZN,Mixing/Well-Stirred
RoomAir Model,SPORTS ARENA - COURT C4-SPACE FUNCTION ZN,Mixing/Well-Stirred
RoomAir Model,SPORTS ARENA - RING-SPACE FUNCTION ZN,Mixing/Well-Stirred
RoomAir Model,STORAGE AREA - OCCSENS-SPACE FUNCTION ZN,Mixing/Well-Stirred
RoomAir Model,STORAGE AREA - REFRIGERATED - OCCSENS-SPACE FUNCTION ZN,Mixing/Well-Stirred
RoomAir Model,STORAGE AREA - REFRIGERATED-SPACE FUNCTION ZN,Mixing/Well-Stirred
RoomAir Model,STORAGE AREA-SPACE FUNCTION ZN,Mixing/Well-Stirred
RoomAir Model,TRANSP. BAGGAGE-SPACE FUNCTION ZN,Mixing/Well-Stirred
RoomAir Model,TRANSP. CONCOURSE-SPACE FUNCTION ZN,Mixing/Well-Stirred
RoomAir Model,TRANSP. COUNTER-SPACE FUNCTION ZN,Mixing/Well-Stirred
RoomAir Model,TRANSP. SEATING-SPACE FUNCTION ZN,Mixing/Well-Stirred
! <AirflowNetwork Model:Control>, No Multizone or Distribution/Multizone with Distribution/Multizone without Distribution/Multizone with Distribution only during Fan Operation
AirflowNetwork Model:Control,NoMultizoneOrDistribution
! <Zone Volume Capacitance Multiplier>, Sensible Heat Capacity Multiplier, Moisture Capacity Multiplier, Carbon Dioxide Capacity Multiplier, Generic Contaminant Capacity Multiplier
Zone Volume Capacitance Multiplier,   1.000 ,   1.000,   1.000,   1.000
! <Load Timesteps in Zone Design Calculation Averaging Window>, Value
 Load Timesteps in Zone Design Calculation Averaging Window,    6
! <Heating Sizing Factor Information>, Sizing Factor ID, Value
 Heating Sizing Factor Information, Global,   1.2500    
 Heating Sizing Factor Information, Zone RELIGIOUS - FELLOWSHIP HALL-SPACE FUNCTION ZN,   1.2500    
 Heating Sizing Factor Information, Zone RELIGIOUS - PULPIT/CHOIR-SPACE FUNCTION ZN,   1.2500    
 Heating Sizing Factor Information, Zone RETAIL - DRESSING/FITTING-SPACE FUNCTION ZN,   1.2500    
 Heating Sizing Factor Information, Zone RETAIL - MALL CONCOURSE-SPACE FUNCTION ZN,   1.2500    
 Heating Sizing Factor Information, Zone RETAIL - SALES-SPACE FUNCTION ZN,   1.2500    
 Heating Sizing Factor Information, Zone SALES AREA-SPACE FUNCTION ZN,   1.2500    
 Heating Sizing Factor Information, Zone SPORTS ARENA - AUDIENCE-SPACE FUNCTION ZN,   1.2500    
 Heating Sizing Factor Information, Zone SPORTS ARENA - COURT C1-SPACE FUNCTION ZN,   1.2500    
 Heating Sizing Factor Information, Zone SPORTS ARENA - COURT C2-SPACE FUNCTION ZN,   1.2500    
 Heating Sizing Factor Information, Zone SPORTS ARENA - COURT C3-SPACE FUNCTION ZN,   1.2500    
 Heating Sizing Factor Information, Zone SPORTS ARENA - COURT C4-SPACE FUNCTION ZN,   1.2500    
 Heating Sizing Factor Information, Zone SPORTS ARENA - RING-SPACE FUNCTION ZN,   1.2500    
 Heating Sizing Factor Information, Zone STORAGE AREA - OCCSENS-SPACE FUNCTION ZN,   1.2500    
 Heating Sizing Factor Information, Zone STORAGE AREA - REFRIGERATED - OCCSENS-SPACE FUNCTION ZN,   1.2500    
 Heating Sizing Factor Information, Zone STORAGE AREA - REFRIGERATED-SPACE FUNCTION ZN,   1.2500    
 Heating Sizing Factor Information, Zone STORAGE AREA-SPACE FUNCTION ZN,   1.2500    
 Heating Sizing Factor Information, Zone TRANSP. BAGGAGE-SPACE FUNCTION ZN,   1.2500    
 Heating Sizing Factor Information, Zone TRANSP. CONCOURSE-SPACE FUNCTION ZN,   1.2500    
 Heating Sizing Factor Information, Zone TRANSP. COUNTER-SPACE FUNCTION ZN,   1.2500    
 Heating Sizing Factor Information, Zone TRANSP. SEATING-SPACE FUNCTION ZN,   1.2500    
! <Cooling Sizing Factor Information>, Sizing Factor ID, Value
 Cooling Sizing Factor Information, Global,   1.1500    
 Cooling Sizing Factor Information, Zone RELIGIOUS - FELLOWSHIP HALL-SPACE FUNCTION ZN,   1.1500    
 Cooling Sizing Factor Information, Zone RELIGIOUS - PULPIT/CHOIR-SPACE FUNCTION ZN,   1.1500    
 Cooling Sizing Factor Information, Zone RETAIL - DRESSING/FITTING-SPACE FUNCTION ZN,   1.1500    
 Cooling Sizing Factor Information, Zone RETAIL - MALL CONCOURSE-SPACE FUNCTION ZN,   1.1500    
 Cooling Sizing Factor Information, Zone RETAIL - SALES-SPACE FUNCTION ZN,   1.1500    
 Cooling Sizing Factor Information, Zone SALES AREA-SPACE FUNCTION ZN,   1.1500    
 Cooling Sizing Factor Information, Zone SPORTS ARENA - AUDIENCE-SPACE FUNCTION ZN,   1.1500    
 Cooling Sizing Factor Information, Zone SPORTS ARENA - COURT C1-SPACE FUNCTION ZN,   1.1500    
 Cooling Sizing Factor Information, Zone SPORTS ARENA - COURT C2-SPACE FUNCTION ZN,   1.1500    
 Cooling Sizing Factor Information, Zone SPORTS ARENA - COURT C3-SPACE FUNCTION ZN,   1.1500    
 Cooling Sizing Factor Information, Zone SPORTS ARENA - COURT C4-SPACE FUNCTION ZN,   1.1500    
 Cooling Sizing Factor Information, Zone SPORTS ARENA - RING-SPACE FUNCTION ZN,   1.1500    
 Cooling Sizing Factor Information, Zone STORAGE AREA - OCCSENS-SPACE FUNCTION ZN,   1.1500    
 Cooling Sizing Factor Information, Zone STORAGE AREA - REFRIGERATED - OCCSENS-SPACE FUNCTION ZN,   1.1500    
 Cooling Sizing Factor Information, Zone STORAGE AREA - REFRIGERATED-SPACE FUNCTION ZN,   1.1500    
 Cooling Sizing Factor Information, Zone STORAGE AREA-SPACE FUNCTION ZN,   1.1500    
 Cooling Sizing Factor Information, Zone TRANSP. BAGGAGE-SPACE FUNCTION ZN,   1.1500    
 Cooling Sizing Factor Information, Zone TRANSP. CONCOURSE-SPACE FUNCTION ZN,   1.1500    
 Cooling Sizing Factor Information, Zone TRANSP. COUNTER-SPACE FUNCTION ZN,   1.1500    
 Cooling Sizing Factor Information, Zone TRANSP. SEATING-SPACE FUNCTION ZN,   1.1500    
! <Zone Sizing Information>, Zone Name, Load Type, Calc Des Load {W}, User Des Load {W}, Calc Des Air Flow Rate {m3/s}, User Des Air Flow Rate {m3/s}, Design Day Name, Date/Time of Peak, Temperature at Peak {C}, Humidity Ratio at Peak {kgWater/kgDryAir}, Floor Area {m2}, # Occupants, Calc Outdoor Air Flow Rate {m3/s}, Calc DOAS Heat Addition Rate {W}
 Zone Sizing Information, RELIGIOUS - FELLOWSHIP HALL-SPACE FUNCTION ZN, Cooling, 87738.00394, 100898.70453, 7.46094, 8.58008, FORT MCMURRAY AP ANN CLG .4% CONDNS DB=>MWB, 7/21 13:30:00, 28.59000, 8.76969E-003, 1875.00000, 374.98773, 6.28650, 0.00000
 Zone Sizing Information, RELIGIOUS - FELLOWSHIP HALL-SPACE FUNCTION ZN, Heating, 49587.08721, 61983.85902, 2.30040, 6.28650, FORT MCMURRAY AP ANN HTG 99.6% CONDNS DB, 1/21 09:00:00, -36.20000, 1.25811E-004, 1875.00000, 374.98773, 6.28650, 0.00000
 Zone Sizing Information, RELIGIOUS - PULPIT/CHOIR-SPACE FUNCTION ZN, Cooling, 103226.17576, 118710.10212, 7.00123, 8.05141, FORT MCMURRAY AP ANN CLG .4% CONDNS DB=>MWB, 7/21 15:00:00, 28.90000, 8.76969E-003, 1875.00000, 374.98773, 6.28650, 0.00000
 Zone Sizing Information, RELIGIOUS - PULPIT/CHOIR-SPACE FUNCTION ZN, Heating, 33546.82183, 41933.52729, 1.39464, 6.28650, FORT MCMURRAY AP ANN HTG 99.6% CONDNS DB, 1/21 15:00:00, -36.20000, 1.25811E-004, 1875.00000, 374.98773, 6.28650, 0.00000
 Zone Sizing Information, RETAIL - DRESSING/FITTING-SPACE FUNCTION ZN, Cooling, 40447.98442, 46515.18208, 3.43866, 3.95445, FORT MCMURRAY AP ANN CLG .4% CONDNS DB=>MWB, 7/21 14:20:00, 28.90000, 8.76969E-003, 1875.00000, 62.56523, 2.21933, 0.00000
 Zone Sizing Information, RETAIL - DRESSING/FITTING-SPACE FUNCTION ZN, Heating, 23151.73521, 28939.66902, 1.05330, 2.21933, FORT MCMURRAY AP ANN HTG 99.6% CONDNS DB, 1/21 09:00:00, -36.20000, 1.25811E-004, 1875.00000, 62.56523, 2.21933, 0.00000
 Zone Sizing Information, RETAIL - MALL CONCOURSE-SPACE FUNCTION ZN, Cooling, 46009.40174, 52910.81201, 3.91158, 4.49831, FORT MCMURRAY AP ANN CLG .4% CONDNS DB=>MWB, 7/21 15:20:00, 28.65200, 8.76969E-003, 1875.00000, 93.84784, 3.42900, 0.00000
 Zone Sizing Information, RETAIL - MALL CONCOURSE-SPACE FUNCTION ZN, Heating, 13355.08800, 16693.86001, 0.60636, 3.42900, FORT MCMURRAY AP ANN HTG 99.6% CONDNS DB, 1/21 09:00:00, -36.20000, 1.25811E-004, 1875.00000, 93.84784, 3.42900, 0.00000
 Zone Sizing Information, RETAIL - SALES-SPACE FUNCTION ZN, Cooling, 60821.50962, 69944.73606, 5.17080, 5.94642, FORT MCMURRAY AP ANN CLG .4% CONDNS DB=>MWB, 7/21 18:00:00, 25.92400, 8.76969E-003, 1875.00000, 62.56523, 2.21933, 0.00000
 Zone Sizing Information, RETAIL - SALES-SPACE FUNCTION ZN, Heating, 12984.35800, 16230.44751, 0.58002, 2.21933, FORT MCMURRAY AP ANN HTG 99.6% CONDNS DB, 1/21 09:00:00, -36.20000, 1.25811E-004, 1875.00000, 62.56523, 2.21933, 0.00000
 Zone Sizing Information, SALES AREA-SPACE FUNCTION ZN, Cooling, 31946.02299, 36737.92644, 2.71593, 3.12332, FORT MCMURRAY AP ANN CLG .4% CONDNS DB=>MWB, 7/21 18:00:00, 25.92400, 8.76969E-003, 1875.00000, 62.56523, 2.21933, 0.00000
 Zone Sizing Information, SALES AREA-SPACE FUNCTION ZN, Heating, 0.00000, 0.00000, 0.00000, 2.21933, FORT MCMURRAY AP ANN HTG 99.6% CONDNS DB, , -36.20000, 1.25811E-004, 1875.00000, 62.56523, 2.21933, 0.00000
 Zone Sizing Information, SPORTS ARENA - AUDIENCE-SPACE FUNCTION ZN, Cooling, 47927.15430, 55116.22744, 4.07541, 15.04950, FORT MCMURRAY AP ANN CLG .4% CONDNS DB=>MWB, 7/21 20:00:00, 22.70000, 8.76969E-003, 2500.00000, 499.98364, 15.04950, 0.00000
 Zone Sizing Information, SPORTS ARENA - AUDIENCE-SPACE FUNCTION ZN, Heating, 0.00000, 0.00000, 0.00000, 15.04950, FORT MCMURRAY AP ANN HTG 99.6% CONDNS DB, , -36.20000, 1.25811E-004, 2500.00000, 499.98364, 15.04950, 0.00000
 Zone Sizing Information, SPORTS ARENA - COURT C1-SPACE FUNCTION ZN, Cooling, 76426.11623, 87890.03366, 6.49908, 7.47394, FORT MCMURRAY AP ANN CLG .4% CONDNS DB=>MWB, 7/21 13:00:00, 28.28000, 8.76969E-003, 1875.00000, 374.98773, 2.85750, 0.00000
 Zone Sizing Information, SPORTS ARENA - COURT C1-SPACE FUNCTION ZN, Heating, 998.00051, 1247.50064, 4.63915E-002, 2.85750, FORT MCMURRAY AP ANN HTG 99.6% CONDNS DB, 1/21 09:10:00, -36.20000, 1.25811E-004, 1875.00000, 374.98773, 2.85750, 0.00000
 Zone Sizing Information, SPORTS ARENA - COURT C2-SPACE FUNCTION ZN, Cooling, 52658.80385, 60557.62443, 4.47752, 5.14915, FORT MCMURRAY AP ANN CLG .4% CONDNS DB=>MWB, 7/21 22:00:00, 20.46800, 8.76969E-003, 1875.00000, 374.98773, 2.85750, 0.00000
 Zone Sizing Information, SPORTS ARENA - COURT C2-SPACE FUNCTION ZN, Heating, 0.00000, 0.00000, 0.00000, 2.85750, FORT MCMURRAY AP ANN HTG 99.6% CONDNS DB, , -36.20000, 1.25811E-004, 1875.00000, 374.98773, 2.85750, 0.00000
 Zone Sizing Information, SPORTS ARENA - COURT C3-SPACE FUNCTION ZN, Cooling, 88562.79065, 101847.20925, 7.53167, 8.66142, FORT MCMURRAY AP ANN CLG .4% CONDNS DB=>MWB, 7/21 14:00:00, 28.90000, 8.76969E-003, 1875.00000, 374.98773, 2.85750, 0.00000
 Zone Sizing Information, SPORTS ARENA - COURT C3-SPACE FUNCTION ZN, Heating, 42156.20419, 52695.25524, 1.83742, 2.85750, FORT MCMURRAY AP ANN HTG 99.6% CONDNS DB, 1/21 09:20:00, -36.20000, 1.25811E-004, 1875.00000, 374.98773, 2.85750, 0.00000
 Zone Sizing Information, SPORTS ARENA - COURT C4-SPACE FUNCTION ZN, Cooling, 55049.62521, 63307.06900, 4.68103, 5.38318, FORT MCMURRAY AP ANN CLG .4% CONDNS DB=>MWB, 7/21 20:00:00, 22.70000, 8.76969E-003, 1875.00000, 374.98773, 2.85750, 0.00000
 Zone Sizing Information, SPORTS ARENA - COURT C4-SPACE FUNCTION ZN, Heating, 842.30840, 1052.88550, 3.93243E-002, 2.85750, FORT MCMURRAY AP ANN HTG 99.6% CONDNS DB, 1/21 09:10:00, -36.20000, 1.25811E-004, 1875.00000, 374.98773, 2.85750, 0.00000
 Zone Sizing Information, SPORTS ARENA - RING-SPACE FUNCTION ZN, Cooling, 67152.14126, 77224.96245, 5.71062, 6.56722, FORT MCMURRAY AP ANN CLG .4% CONDNS DB=>MWB, 7/21 20:20:00, 22.32800, 8.76969E-003, 1875.00000, 374.98773, 2.85750, 0.00000
 Zone Sizing Information, SPORTS ARENA - RING-SPACE FUNCTION ZN, Heating, 0.00000, 0.00000, 0.00000, 2.85750, FORT MCMURRAY AP ANN HTG 99.6% CONDNS DB, , -36.20000, 1.25811E-004, 1875.00000, 374.98773, 2.85750, 0.00000
 Zone Sizing Information, STORAGE AREA - OCCSENS-SPACE FUNCTION ZN, Cooling, 17326.93635, 19925.97680, 1.37156, 1.57730, FORT MCMURRAY AP ANN CLG .4% CONDNS DB=>MWB, 7/21 08:00:00, 19.72400, 8.76969E-003, 1875.00000, 18.76957, 0.66675, 0.00000
 Zone Sizing Information, STORAGE AREA - OCCSENS-SPACE FUNCTION ZN, Heating, 0.00000, 0.00000, 0.00000, 0.66675, FORT MCMURRAY AP ANN HTG 99.6% CONDNS DB, , -36.20000, 1.25811E-004, 1875.00000, 18.76957, 0.66675, 0.00000
 Zone Sizing Information, STORAGE AREA - REFRIGERATED - OCCSENS-SPACE FUNCTION ZN, Cooling, 32019.02420, 36821.87783, 2.49900, 2.87385, FORT MCMURRAY AP ANN CLG .4% CONDNS DB=>MWB, 7/21 08:00:00, 19.72400, 8.76969E-003, 2500.00000, 25.02609, 0.88900, 0.00000
 Zone Sizing Information, STORAGE AREA - REFRIGERATED - OCCSENS-SPACE FUNCTION ZN, Heating, 0.00000, 0.00000, 0.00000, 0.88900, FORT MCMURRAY AP ANN HTG 99.6% CONDNS DB, , -36.20000, 1.25811E-004, 2500.00000, 25.02609, 0.88900, 0.00000
 Zone Sizing Information, STORAGE AREA - REFRIGERATED-SPACE FUNCTION ZN, Cooling, 14403.62746, 16564.17157, 1.22449, 1.40816, FORT MCMURRAY AP ANN CLG .4% CONDNS DB=>MWB, 7/21 16:20:00, 27.82533, 8.76969E-003, 1875.00000, 18.76957, 0.66675, 0.00000
 Zone Sizing Information, STORAGE AREA - REFRIGERATED-SPACE FUNCTION ZN, Heating, 0.00000, 0.00000, 0.00000, 0.66675, FORT MCMURRAY AP ANN HTG 99.6% CONDNS DB, , -36.20000, 1.25811E-004, 1875.00000, 18.76957, 0.66675, 0.00000
 Zone Sizing Information, STORAGE AREA-SPACE FUNCTION ZN, Cooling, 69107.35916, 79473.46304, 5.87502, 6.75627, FORT MCMURRAY AP ANN CLG .4% CONDNS DB=>MWB, 7/21 13:50:00, 28.79667, 8.76969E-003, 2500.00000, 25.02609, 0.88900, 0.00000
 Zone Sizing Information, STORAGE AREA-SPACE FUNCTION ZN, Heating, 46261.87871, 57827.34839, 2.13100, 2.66375, FORT MCMURRAY AP ANN HTG 99.6% CONDNS DB, 1/21 09:00:00, -36.20000, 1.25811E-004, 2500.00000, 25.02609, 0.88900, 0.00000
 Zone Sizing Information, TRANSP. BAGGAGE-SPACE FUNCTION ZN, Cooling, 43638.13802, 50183.85873, 3.70993, 4.26642, FORT MCMURRAY AP ANN CLG .4% CONDNS DB=>MWB, 7/21 09:10:00, 22.43133, 8.76969E-003, 1875.00000, 93.84784, 1.64783, 0.00000
 Zone Sizing Information, TRANSP. BAGGAGE-SPACE FUNCTION ZN, Heating, 0.00000, 0.00000, 0.00000, 1.64783, FORT MCMURRAY AP ANN HTG 99.6% CONDNS DB, , -36.20000, 1.25811E-004, 1875.00000, 93.84784, 1.64783, 0.00000
 Zone Sizing Information, TRANSP. CONCOURSE-SPACE FUNCTION ZN, Cooling, 67280.90248, 77373.03785, 5.72003, 7.71525, FORT MCMURRAY AP ANN CLG .4% CONDNS DB=>MWB, 7/21 10:20:00, 24.80800, 8.76969E-003, 1875.00000, 93.84784, 7.71525, 0.00000
 Zone Sizing Information, TRANSP. CONCOURSE-SPACE FUNCTION ZN, Heating, 37483.98194, 46854.97743, 1.73002, 7.71525, FORT MCMURRAY AP ANN HTG 99.6% CONDNS DB, 1/21 09:00:00, -36.20000, 1.25811E-004, 1875.00000, 93.84784, 7.71525, 0.00000
 Zone Sizing Information, TRANSP. COUNTER-SPACE FUNCTION ZN, Cooling, 39490.76263, 45414.37702, 3.35772, 3.86138, FORT MCMURRAY AP ANN CLG .4% CONDNS DB=>MWB, 7/21 07:20:00, 18.31867, 8.76969E-003, 2500.00000, 249.99182, 2.19710, 0.00000
 Zone Sizing Information, TRANSP. COUNTER-SPACE FUNCTION ZN, Heating, 0.00000, 0.00000, 0.00000, 2.19710, FORT MCMURRAY AP ANN HTG 99.6% CONDNS DB, , -36.20000, 1.25811E-004, 2500.00000, 249.99182, 2.19710, 0.00000
 Zone Sizing Information, TRANSP. SEATING-SPACE FUNCTION ZN, Cooling, 35218.51372, 40501.29078, 2.99464, 7.71525, FORT MCMURRAY AP ANN CLG .4% CONDNS DB=>MWB, 7/21 13:40:00, 28.69333, 8.76969E-003, 1875.00000, 187.49386, 7.71525, 0.00000
 Zone Sizing Information, TRANSP. SEATING-SPACE FUNCTION ZN, Heating, 0.00000, 0.00000, 0.00000, 7.71525, FORT MCMURRAY AP ANN HTG 99.6% CONDNS DB, , -36.20000, 1.25811E-004, 1875.00000, 187.49386, 7.71525, 0.00000
! <Component Sizing Information>, Component Type, Component Name, Input Field Description, Value
 Component Sizing Information, ZoneHVAC:IdealLoadsAirSystem, ZONE HVAC IDEAL LOADS AIR SYSTEM 1, User-Specified Maximum Heating Air Flow Rate [m3/s], 0.00000
 Component Sizing Information, ZoneHVAC:IdealLoadsAirSystem, ZONE HVAC IDEAL LOADS AIR SYSTEM 1, User-Specified Maximum Cooling Air Flow Rate [m3/s], 0.00000
 Component Sizing Information, ZoneHVAC:IdealLoadsAirSystem, ZONE HVAC IDEAL LOADS AIR SYSTEM 2, User-Specified Maximum Heating Air Flow Rate [m3/s], 0.00000
 Component Sizing Information, ZoneHVAC:IdealLoadsAirSystem, ZONE HVAC IDEAL LOADS AIR SYSTEM 2, User-Specified Maximum Cooling Air Flow Rate [m3/s], 0.00000
 Component Sizing Information, ZoneHVAC:IdealLoadsAirSystem, ZONE HVAC IDEAL LOADS AIR SYSTEM 3, User-Specified Maximum Heating Air Flow Rate [m3/s], 0.00000
 Component Sizing Information, ZoneHVAC:IdealLoadsAirSystem, ZONE HVAC IDEAL LOADS AIR SYSTEM 3, User-Specified Maximum Cooling Air Flow Rate [m3/s], 0.00000
 Component Sizing Information, ZoneHVAC:IdealLoadsAirSystem, ZONE HVAC IDEAL LOADS AIR SYSTEM 4, User-Specified Maximum Heating Air Flow Rate [m3/s], 0.00000
 Component Sizing Information, ZoneHVAC:IdealLoadsAirSystem, ZONE HVAC IDEAL LOADS AIR SYSTEM 4, User-Specified Maximum Cooling Air Flow Rate [m3/s], 0.00000
 Component Sizing Information, ZoneHVAC:IdealLoadsAirSystem, ZONE HVAC IDEAL LOADS AIR SYSTEM 5, User-Specified Maximum Heating Air Flow Rate [m3/s], 0.00000
 Component Sizing Information, ZoneHVAC:IdealLoadsAirSystem, ZONE HVAC IDEAL LOADS AIR SYSTEM 5, User-Specified Maximum Cooling Air Flow Rate [m3/s], 0.00000
 Component Sizing Information, ZoneHVAC:IdealLoadsAirSystem, ZONE HVAC IDEAL LOADS AIR SYSTEM 6, User-Specified Maximum Heating Air Flow Rate [m3/s], 0.00000
 Component Sizing Information, ZoneHVAC:IdealLoadsAirSystem, ZONE HVAC IDEAL LOADS AIR SYSTEM 6, User-Specified Maximum Cooling Air Flow Rate [m3/s], 0.00000
 Component Sizing Information, ZoneHVAC:IdealLoadsAirSystem, ZONE HVAC IDEAL LOADS AIR SYSTEM 7, User-Specified Maximum Heating Air Flow Rate [m3/s], 0.00000
 Component Sizing Information, ZoneHVAC:IdealLoadsAirSystem, ZONE HVAC IDEAL LOADS AIR SYSTEM 7, User-Specified Maximum Cooling Air Flow Rate [m3/s], 0.00000
 Component Sizing Information, ZoneHVAC:IdealLoadsAirSystem, ZONE HVAC IDEAL LOADS AIR SYSTEM 8, User-Specified Maximum Heating Air Flow Rate [m3/s], 0.00000
 Component Sizing Information, ZoneHVAC:IdealLoadsAirSystem, ZONE HVAC IDEAL LOADS AIR SYSTEM 8, User-Specified Maximum Cooling Air Flow Rate [m3/s], 0.00000
 Component Sizing Information, ZoneHVAC:IdealLoadsAirSystem, ZONE HVAC IDEAL LOADS AIR SYSTEM 9, User-Specified Maximum Heating Air Flow Rate [m3/s], 0.00000
 Component Sizing Information, ZoneHVAC:IdealLoadsAirSystem, ZONE HVAC IDEAL LOADS AIR SYSTEM 9, User-Specified Maximum Cooling Air Flow Rate [m3/s], 0.00000
 Component Sizing Information, ZoneHVAC:IdealLoadsAirSystem, ZONE HVAC IDEAL LOADS AIR SYSTEM 10, User-Specified Maximum Heating Air Flow Rate [m3/s], 0.00000
 Component Sizing Information, ZoneHVAC:IdealLoadsAirSystem, ZONE HVAC IDEAL LOADS AIR SYSTEM 10, User-Specified Maximum Cooling Air Flow Rate [m3/s], 0.00000
 Component Sizing Information, ZoneHVAC:IdealLoadsAirSystem, ZONE HVAC IDEAL LOADS AIR SYSTEM 11, User-Specified Maximum Heating Air Flow Rate [m3/s], 0.00000
 Component Sizing Information, ZoneHVAC:IdealLoadsAirSystem, ZONE HVAC IDEAL LOADS AIR SYSTEM 11, User-Specified Maximum Cooling Air Flow Rate [m3/s], 0.00000
 Component Sizing Information, ZoneHVAC:IdealLoadsAirSystem, ZONE HVAC IDEAL LOADS AIR SYSTEM 12, User-Specified Maximum Heating Air Flow Rate [m3/s], 0.00000
 Component Sizing Information, ZoneHVAC:IdealLoadsAirSystem, ZONE HVAC IDEAL LOADS AIR SYSTEM 12, User-Specified Maximum Cooling Air Flow Rate [m3/s], 0.00000
 Component Sizing Information, ZoneHVAC:IdealLoadsAirSystem, ZONE HVAC IDEAL LOADS AIR SYSTEM 13, User-Specified Maximum Heating Air Flow Rate [m3/s], 0.00000
 Component Sizing Information, ZoneHVAC:IdealLoadsAirSystem, ZONE HVAC IDEAL LOADS AIR SYSTEM 13, User-Specified Maximum Cooling Air Flow Rate [m3/s], 0.00000
 Component Sizing Information, ZoneHVAC:IdealLoadsAirSystem, ZONE HVAC IDEAL LOADS AIR SYSTEM 14, User-Specified Maximum Heating Air Flow Rate [m3/s], 0.00000
 Component Sizing Information, ZoneHVAC:IdealLoadsAirSystem, ZONE HVAC IDEAL LOADS AIR SYSTEM 14, User-Specified Maximum Cooling Air Flow Rate [m3/s], 0.00000
 Component Sizing Information, ZoneHVAC:IdealLoadsAirSystem, ZONE HVAC IDEAL LOADS AIR SYSTEM 15, User-Specified Maximum Heating Air Flow Rate [m3/s], 0.00000
 Component Sizing Information, ZoneHVAC:IdealLoadsAirSystem, ZONE HVAC IDEAL LOADS AIR SYSTEM 15, User-Specified Maximum Cooling Air Flow Rate [m3/s], 0.00000
 Component Sizing Information, ZoneHVAC:IdealLoadsAirSystem, ZONE HVAC IDEAL LOADS AIR SYSTEM 16, User-Specified Maximum Heating Air Flow Rate [m3/s], 0.00000
 Component Sizing Information, ZoneHVAC:IdealLoadsAirSystem, ZONE HVAC IDEAL LOADS AIR SYSTEM 16, User-Specified Maximum Cooling Air Flow Rate [m3/s], 0.00000
 Component Sizing Information, ZoneHVAC:IdealLoadsAirSystem, ZONE HVAC IDEAL LOADS AIR SYSTEM 17, User-Specified Maximum Heating Air Flow Rate [m3/s], 0.00000
 Component Sizing Information, ZoneHVAC:IdealLoadsAirSystem, ZONE HVAC IDEAL LOADS AIR SYSTEM 17, User-Specified Maximum Cooling Air Flow Rate [m3/s], 0.00000
 Component Sizing Information, ZoneHVAC:IdealLoadsAirSystem, ZONE HVAC IDEAL LOADS AIR SYSTEM 18, User-Specified Maximum Heating Air Flow Rate [m3/s], 0.00000
 Component Sizing Information, ZoneHVAC:IdealLoadsAirSystem, ZONE HVAC IDEAL LOADS AIR SYSTEM 18, User-Specified Maximum Cooling Air Flow Rate [m3/s], 0.00000
 Component Sizing Information, ZoneHVAC:IdealLoadsAirSystem, ZONE HVAC IDEAL LOADS AIR SYSTEM 19, User-Specified Maximum Heating Air Flow Rate [m3/s], 0.00000
 Component Sizing Information, ZoneHVAC:IdealLoadsAirSystem, ZONE HVAC IDEAL LOADS AIR SYSTEM 19, User-Specified Maximum Cooling Air Flow Rate [m3/s], 0.00000
 Component Sizing Information, ZoneHVAC:IdealLoadsAirSystem, ZONE HVAC IDEAL LOADS AIR SYSTEM 20, User-Specified Maximum Heating Air Flow Rate [m3/s], 0.00000
 Component Sizing Information, ZoneHVAC:IdealLoadsAirSystem, ZONE HVAC IDEAL LOADS AIR SYSTEM 20, User-Specified Maximum Cooling Air Flow Rate [m3/s], 0.00000
! <Environment>,Environment Name,Environment Type, Start Date, End Date, Start DayOfWeek, Duration {#days}, Source:Start DayOfWeek,  Use Daylight Saving, Use Holidays, Apply Weekend Holiday Rule,  Use Rain Values, Use Snow Values
! <Environment:Special Days>, Special Day Name, Special Day Type, Source, Start Date, Duration {#days}
! <Environment:Daylight Saving>, Daylight Saving Indicator, Source, Start Date, End Date
! <Environment:WarmupDays>, NumberofWarmupDays
Environment,FORT MCMURRAY AP ANN CLG .4% CONDNS DB=>MWB,SizingPeriod:DesignDay,07/21,07/21,SummerDesignDay,1,N/A,N/A,N/A,N/A,N/A,N/A
Environment:Daylight Saving,No,SizingPeriod:DesignDay
! <Environment:Design Day Data>, Max Dry-Bulb Temp {C}, Temp Range {dC}, Temp Range Ind Type, Hum Ind Value at Max Temp, Hum Ind Type,Pressure {Pa}, Wind Direction {deg CW from N}, Wind Speed {m/s}, Clearness, Rain, Snow
! <Environment:Design Day Misc>,DayOfYear,ASHRAE A Coeff,ASHRAE B Coeff,ASHRAE C Coeff,Solar Constant-Annual Variation,Eq of Time {minutes}, Solar Declination Angle {deg}, Solar Model
Environment:Design Day Data,28.90,12.40,DefaultMultipliers,96969,250,3.7,0.00,No,No
Environment:Design Day Misc,202,1084.4,0.2082,0.1365,1.0,-6.23,20.6,ASHRAETau
Environment:WarmupDays,  6
! <Tabular Report>,Style,Unit Conversion
Tabular Report,HTML,None
! <Warmup Convergence Information>,Zone Name,Environment Type/Name,Average Warmup Temperature Difference {deltaC},Std Dev Warmup Temperature Difference {deltaC},Max Temperature Pass/Fail Convergence,Min Temperature Pass/Fail Convergence,Average Warmup Load Difference {W},Std Dev Warmup Load Difference {W},Heating Load Pass/Fail Convergence,Cooling Load Pass/Fail Convergence
 Warmup Convergence Information,RELIGIOUS - FELLOWSHIP HALL-SPACE FUNCTION ZN,SizingPeriod: FORT MCMURRAY AP ANN CLG .4% CONDNS DB=>MWB,6.7735388196E-002,0.1101729453,Pass,Pass,2.9003796549E-002,4.1797155783E-002,Pass,Pass
 Warmup Convergence Information,RELIGIOUS - PULPIT/CHOIR-SPACE FUNCTION ZN,SizingPeriod: FORT MCMURRAY AP ANN CLG .4% CONDNS DB=>MWB,0.1519495538,0.5296541334,Pass,Pass,4.1383527678E-002,0.1160090100,Pass,Pass
 Warmup Convergence Information,RETAIL - DRESSING/FITTING-SPACE FUNCTION ZN,SizingPeriod: FORT MCMURRAY AP ANN CLG .4% CONDNS DB=>MWB,3.4641391839E-002,5.6144870702E-002,Pass,Pass,3.5180691422E-002,0.1281185479,Pass,Pass
 Warmup Convergence Information,RETAIL - MALL CONCOURSE-SPACE FUNCTION ZN,SizingPeriod: FORT MCMURRAY AP ANN CLG .4% CONDNS DB=>MWB,3.4273083743E-002,5.7179880256E-002,Pass,Pass,2.7580691891E-002,9.0875669383E-002,Pass,Pass
 Warmup Convergence Information,RETAIL - SALES-SPACE FUNCTION ZN,SizingPeriod: FORT MCMURRAY AP ANN CLG .4% CONDNS DB=>MWB,3.3193469495E-002,8.0123870673E-002,Pass,Pass,4.2249070143E-002,0.2063987995,Pass,Pass
 Warmup Convergence Information,SALES AREA-SPACE FUNCTION ZN,SizingPeriod: FORT MCMURRAY AP ANN CLG .4% CONDNS DB=>MWB,2.7358787652E-002,5.2854945420E-002,Pass,Pass,3.1850779611E-002,0.1389357390,Pass,Pass
 Warmup Convergence Information,SPORTS ARENA - AUDIENCE-SPACE FUNCTION ZN,SizingPeriod: FORT MCMURRAY AP ANN CLG .4% CONDNS DB=>MWB,6.5652395977E-002,0.1291054501,Pass,Pass,5.2955213487E-002,9.6862706390E-002,Pass,Pass
 Warmup Convergence Information,SPORTS ARENA - COURT C1-SPACE FUNCTION ZN,SizingPeriod: FORT MCMURRAY AP ANN CLG .4% CONDNS DB=>MWB,4.2044846326E-002,0.1251625248,Pass,Pass,2.7157602492E-002,0.1068645546,Pass,Pass
 Warmup Convergence Information,SPORTS ARENA - COURT C2-SPACE FUNCTION ZN,SizingPeriod: FORT MCMURRAY AP ANN CLG .4% CONDNS DB=>MWB,2.4875327617E-002,5.4147770598E-002,Pass,Pass,3.3211265779E-002,8.8789035753E-002,Pass,Pass
 Warmup Convergence Information,SPORTS ARENA - COURT C3-SPACE FUNCTION ZN,SizingPeriod: FORT MCMURRAY AP ANN CLG .4% CONDNS DB=>MWB,3.9800867367E-002,7.8336325501E-002,Pass,Pass,3.0532448302E-002,5.5862430253E-002,Pass,Pass
 Warmup Convergence Information,SPORTS ARENA - COURT C4-SPACE FUNCTION ZN,SizingPeriod: FORT MCMURRAY AP ANN CLG .4% CONDNS DB=>MWB,1.9505927928E-002,3.8968494064E-002,Pass,Pass,3.3536097097E-002,6.3113024198E-002,Pass,Pass
 Warmup Convergence Information,SPORTS ARENA - RING-SPACE FUNCTION ZN,SizingPeriod: FORT MCMURRAY AP ANN CLG .4% CONDNS DB=>MWB,2.4662320433E-002,6.9553581139E-002,Pass,Pass,3.1326572493E-002,0.1006599348,Pass,Pass
 Warmup Convergence Information,STORAGE AREA - OCCSENS-SPACE FUNCTION ZN,SizingPeriod: FORT MCMURRAY AP ANN CLG .4% CONDNS DB=>MWB,1.5159543672E-002,4.0028040223E-002,Pass,Pass,0.1112305039,0.9718910544,Pass,Pass
 Warmup Convergence Information,STORAGE AREA - REFRIGERATED - OCCSENS-SPACE FUNCTION ZN,SizingPeriod: FORT MCMURRAY AP ANN CLG .4% CONDNS DB=>MWB,1.5524987772E-002,4.3850139808E-002,Pass,Pass,0.1122592292,0.9588075033,Pass,Pass
 Warmup Convergence Information,STORAGE AREA - REFRIGERATED-SPACE FUNCTION ZN,SizingPeriod: FORT MCMURRAY AP ANN CLG .4% CONDNS DB=>MWB,1.8170295066E-002,3.3032688149E-002,Pass,Pass,0.1147104230,0.9244406688,Pass,Pass
 Warmup Convergence Information,STORAGE AREA-SPACE FUNCTION ZN,SizingPeriod: FORT MCMURRAY AP ANN CLG .4% CONDNS DB=>MWB,4.6332711459E-002,6.7734673623E-002,Pass,Pass,0.1470827122,1.1789109070,Pass,Pass
 Warmup Convergence Information,TRANSP. BAGGAGE-SPACE FUNCTION ZN,SizingPeriod: FORT MCMURRAY AP ANN CLG .4% CONDNS DB=>MWB,4.1102923534E-014,3.4969255591E-014,Pass,Pass,5.9642202506E-003,6.7993967271E-003,Pass,Pass
 Warmup Convergence Information,TRANSP. CONCOURSE-SPACE FUNCTION ZN,SizingPeriod: FORT MCMURRAY AP ANN CLG .4% CONDNS DB=>MWB,5.4325841495E-002,8.2531489769E-002,Pass,Pass,1.9143105822E-002,2.7011663664E-002,Pass,Pass
 Warmup Convergence Information,TRANSP. COUNTER-SPACE FUNCTION ZN,SizingPeriod: FORT MCMURRAY AP ANN CLG .4% CONDNS DB=>MWB,4.3175339847E-014,3.9270745064E-014,Pass,Pass,5.8801079452E-004,3.6247436224E-004,Pass,Pass
 Warmup Convergence Information,TRANSP. SEATING-SPACE FUNCTION ZN,SizingPeriod: FORT MCMURRAY AP ANN CLG .4% CONDNS DB=>MWB,4.1495114005E-002,5.9947674883E-002,Pass,Pass,1.6668179345E-002,2.0803265843E-002,Pass,Pass
Environment,FORT MCMURRAY AP ANN HTG 99.6% CONDNS DB,SizingPeriod:DesignDay,01/21,01/21,WinterDesignDay,1,N/A,N/A,N/A,N/A,N/A,N/A
Environment:Daylight Saving,No,SizingPeriod:DesignDay
Environment:Design Day Data,-36.20,0.00,DefaultMultipliers,96969,90,1.0,0.00,No,No
Environment:Design Day Misc, 21,1229.0,0.1415,5.7310E-002,1.0,-11.15,-20.1,ASHRAEClearSky
Environment:WarmupDays,  6
 Warmup Convergence Information,RELIGIOUS - FELLOWSHIP HALL-SPACE FUNCTION ZN,SizingPeriod: FORT MCMURRAY AP ANN HTG 99.6% CONDNS DB,5.5555555556E-002,0.3877746529,Pass,Pass,0.1234060619,0.7312612567,Pass,Pass
 Warmup Convergence Information,RELIGIOUS - PULPIT/CHOIR-SPACE FUNCTION ZN,SizingPeriod: FORT MCMURRAY AP ANN HTG 99.6% CONDNS DB,5.5555555556E-002,0.3872514482,Pass,Pass,0.6728035245,4.0722791032,Pass,Pass
 Warmup Convergence Information,RETAIL - DRESSING/FITTING-SPACE FUNCTION ZN,SizingPeriod: FORT MCMURRAY AP ANN HTG 99.6% CONDNS DB,5.5693439812E-002,0.3611061040,Pass,Pass,0.1584174521,0.3839686438,Pass,Pass
 Warmup Convergence Information,RETAIL - MALL CONCOURSE-SPACE FUNCTION ZN,SizingPeriod: FORT MCMURRAY AP ANN HTG 99.6% CONDNS DB,5.5555555556E-002,0.3735412937,Pass,Pass,9.0035190763E-002,0.1887531608,Pass,Pass
 Warmup Convergence Information,RETAIL - SALES-SPACE FUNCTION ZN,SizingPeriod: FORT MCMURRAY AP ANN HTG 99.6% CONDNS DB,5.5737094737E-002,0.3606351497,Pass,Pass,0.2225376322,0.7143733115,Pass,Pass
 Warmup Convergence Information,SALES AREA-SPACE FUNCTION ZN,SizingPeriod: FORT MCMURRAY AP ANN HTG 99.6% CONDNS DB,5.6047813591E-002,0.3589739907,Pass,Pass,1.0976391308,8.7447277373,Pass,Pass
 Warmup Convergence Information,SPORTS ARENA - AUDIENCE-SPACE FUNCTION ZN,SizingPeriod: FORT MCMURRAY AP ANN HTG 99.6% CONDNS DB,5.5555555556E-002,0.3949132194,Pass,Pass,0.3391655886,1.5730442212,Pass,Pass
 Warmup Convergence Information,SPORTS ARENA - COURT C1-SPACE FUNCTION ZN,SizingPeriod: FORT MCMURRAY AP ANN HTG 99.6% CONDNS DB,5.5555555556E-002,0.3663872586,Pass,Pass,0.2087707175,0.7431642542,Pass,Pass
 Warmup Convergence Information,SPORTS ARENA - COURT C2-SPACE FUNCTION ZN,SizingPeriod: FORT MCMURRAY AP ANN HTG 99.6% CONDNS DB,5.5555555556E-002,0.3645744349,Pass,Pass,0.5309411040,3.5306918869,Pass,Pass
 Warmup Convergence Information,SPORTS ARENA - COURT C3-SPACE FUNCTION ZN,SizingPeriod: FORT MCMURRAY AP ANN HTG 99.6% CONDNS DB,5.5555555556E-002,0.3713313008,Pass,Pass,0.2243127663,1.0416220668,Pass,Pass
 Warmup Convergence Information,SPORTS ARENA - COURT C4-SPACE FUNCTION ZN,SizingPeriod: FORT MCMURRAY AP ANN HTG 99.6% CONDNS DB,5.5555555556E-002,0.3669542711,Pass,Pass,0.4881966200,3.6164523207,Pass,Pass
 Warmup Convergence Information,SPORTS ARENA - RING-SPACE FUNCTION ZN,SizingPeriod: FORT MCMURRAY AP ANN HTG 99.6% CONDNS DB,5.5555555556E-002,0.3655743355,Pass,Pass,8.2561776614,81.2903955098,Pass,Pass
 Warmup Convergence Information,STORAGE AREA - OCCSENS-SPACE FUNCTION ZN,SizingPeriod: FORT MCMURRAY AP ANN HTG 99.6% CONDNS DB,6.2193302771E-002,0.3116431347,Pass,Pass,0.5560226758,2.3890032115,Pass,Pass
 Warmup Convergence Information,STORAGE AREA - REFRIGERATED - OCCSENS-SPACE FUNCTION ZN,SizingPeriod: FORT MCMURRAY AP ANN HTG 99.6% CONDNS DB,6.2431402095E-002,0.3086512951,Pass,Pass,0.5175054543,3.1345380555,Pass,Pass
 Warmup Convergence Information,STORAGE AREA - REFRIGERATED-SPACE FUNCTION ZN,SizingPeriod: FORT MCMURRAY AP ANN HTG 99.6% CONDNS DB,6.2101984963E-002,0.3130237947,Pass,Pass,4.0988266443,39.2682428670,Pass,Pass
 Warmup Convergence Information,STORAGE AREA-SPACE FUNCTION ZN,SizingPeriod: FORT MCMURRAY AP ANN HTG 99.6% CONDNS DB,5.8473765240E-002,0.3256574942,Pass,Pass,0.4402889847,4.1421600894,Pass,Pass
 Warmup Convergence Information,TRANSP. BAGGAGE-SPACE FUNCTION ZN,SizingPeriod: FORT MCMURRAY AP ANN HTG 99.6% CONDNS DB,5.6962895847E-002,0.3458660972,Pass,Pass,0.7479886769,4.2202059334,Pass,Pass
 Warmup Convergence Information,TRANSP. CONCOURSE-SPACE FUNCTION ZN,SizingPeriod: FORT MCMURRAY AP ANN HTG 99.6% CONDNS DB,5.5555555556E-002,0.3897328914,Pass,Pass,0.1319841452,0.6871333132,Pass,Pass
 Warmup Convergence Information,TRANSP. COUNTER-SPACE FUNCTION ZN,SizingPeriod: FORT MCMURRAY AP ANN HTG 99.6% CONDNS DB,5.7900632551E-002,0.3383950230,Pass,Pass,0.1054746106,0.5677540736,Pass,Pass
 Warmup Convergence Information,TRANSP. SEATING-SPACE FUNCTION ZN,SizingPeriod: FORT MCMURRAY AP ANN HTG 99.6% CONDNS DB,5.5555555556E-002,0.3892272846,Pass,Pass,0.3304248882,1.9303940075,Pass,Pass
! <Program Control Information:Threads/Parallel Sims>, Threading Supported,Maximum Number of Threads, Env Set Threads (OMP_NUM_THREADS), EP Env Set Threads (EP_OMP_NUM_THREADS), IDF Set Threads, Number of Threads Used (Interior Radiant Exchange), Number Nominal Surfaces, Number Parallel Sims
Program Control:Threads/Parallel Sims, No,1, N/A, N/A, N/A, N/A, N/A, N/A
End of Data
