Program Version,EnergyPlus, Version 8.9.0-eba93e8e1b, YMD=2019.03.28 14:28
! <Version>, Version ID
 Version, 8.9
! <Timesteps per Hour>, #TimeSteps, Minutes per TimeStep {minutes}
 Timesteps per Hour,  6, 10
! <System Convergence Limits>, Minimum System TimeStep {minutes}, Max HVAC Iterations, Minimum Plant Iterations, Maximum Plant Iterations
 System Convergence Limits, 1, 20, 2, 8
! <Simulation Control>, Do Zone Sizing, Do System Sizing, Do Plant Sizing, Do Design Days, Do Weather Simulation, Do HVAC Sizing Simulation
 Simulation Control, Yes, No, No, Yes, No, No
! <Output Reporting Tolerances>, Tolerance for Time Heating Setpoint Not Met, Tolerance for Zone Cooling Setpoint Not Met Time
 Output Reporting Tolerances, 0.200, 0.200, 
! <Site:GroundTemperature:BuildingSurface>,Jan{C},Feb{C},Mar{C},Apr{C},May{C},Jun{C},Jul{C},Aug{C},Sep{C},Oct{C},Nov{C},Dec{C}
 Site:GroundTemperature:BuildingSurface,  19.53,  19.50,  19.54,  19.60,  20.00,  21.64,  22.23,  22.38,  21.45,  20.12,  19.80,  19.63
! <Site:GroundTemperature:FCfactorMethod>,Jan{C},Feb{C},Mar{C},Apr{C},May{C},Jun{C},Jul{C},Aug{C},Sep{C},Oct{C},Nov{C},Dec{C}
 Site:GroundTemperature:FCfactorMethod, -12.27, -13.66, -11.19,  -7.33,   2.77,  10.57,  15.83,  17.43,  14.70,   8.65,   0.56,  -6.95
! <Site:GroundTemperature:Shallow>,Jan{C},Feb{C},Mar{C},Apr{C},May{C},Jun{C},Jul{C},Aug{C},Sep{C},Oct{C},Nov{C},Dec{C}
 Site:GroundTemperature:Shallow,  13.00,  13.00,  13.00,  13.00,  13.00,  13.00,  13.00,  13.00,  13.00,  13.00,  13.00,  13.00
! <Site:GroundTemperature:Deep>,Jan{C},Feb{C},Mar{C},Apr{C},May{C},Jun{C},Jul{C},Aug{C},Sep{C},Oct{C},Nov{C},Dec{C}
 Site:GroundTemperature:Deep,  16.00,  16.00,  16.00,  16.00,  16.00,  16.00,  16.00,  16.00,  16.00,  16.00,  16.00,  16.00
! <Site:GroundReflectance>,Jan{dimensionless},Feb{dimensionless},Mar{dimensionless},Apr{dimensionless},May{dimensionless},Jun{dimensionless},Jul{dimensionless},Aug{dimensionless},Sep{dimensionless},Oct{dimensionless},Nov{dimensionless},Dec{dimensionless}
 Site:GroundReflectance,  0.20,  0.20,  0.20,  0.20,  0.20,  0.20,  0.20,  0.20,  0.20,  0.20,  0.20,  0.20
! <Site:GroundReflectance:SnowModifier>, Normal, Daylighting {dimensionless}
 Site:GroundReflectance:SnowModifier,   1.000,   1.000
! <Site:GroundReflectance:Snow>,Jan{dimensionless},Feb{dimensionless},Mar{dimensionless},Apr{dimensionless},May{dimensionless},Jun{dimensionless},Jul{dimensionless},Aug{dimensionless},Sep{dimensionless},Oct{dimensionless},Nov{dimensionless},Dec{dimensionless}
 Site:GroundReflectance:Snow,  0.20,  0.20,  0.20,  0.20,  0.20,  0.20,  0.20,  0.20,  0.20,  0.20,  0.20,  0.20
! <Site:GroundReflectance:Snow:Daylighting>,Jan{dimensionless},Feb{dimensionless},Mar{dimensionless},Apr{dimensionless},May{dimensionless},Jun{dimensionless},Jul{dimensionless},Aug{dimensionless},Sep{dimensionless},Oct{dimensionless},Nov{dimensionless},Dec{dimensionless}
 Site:GroundReflectance:Snow:Daylighting,  0.20,  0.20,  0.20,  0.20,  0.20,  0.20,  0.20,  0.20,  0.20,  0.20,  0.20,  0.20
! <Environment:Weather Station>,Wind Sensor Height Above Ground {m},Wind Speed Profile Exponent {},Wind Speed Profile Boundary Layer Thickness {m},Air Temperature Sensor Height Above Ground {m},Wind Speed Modifier Coefficient-Internal,Temperature Modifier Coefficient-Internal
Environment:Weather Station,10.000,0.140,270.000,1.500,1.586,9.750E-003
! <Site:Location>, Location Name, Latitude {N+/S- Deg}, Longitude {E+/W- Deg},  Time Zone Number {GMT+/-}, Elevation {m},  Standard Pressure at Elevation {Pa}, Standard RhoAir at Elevation
Site:Location,Fort McMurray AP AB CAN CWEC2016 WMO#=716890,56.65,-111.22,-7.00,369.10,96969,1.1525
! <Building Information>, Building Name,North Axis {deg},Terrain,  Loads Convergence Tolerance Value,Temperature Convergence Tolerance Value,  Solar Distribution,Maximum Number of Warmup Days,Minimum Number of Warmup Days
 Building Information,Building 1,0.000,Suburbs,4.00000E-002,0.40000,FullExterior,25,6
! <Inside Convection Algorithm>, Algorithm {Simple | TARP | CeilingDiffuser | AdaptiveConvectionAlgorithm}
Inside Convection Algorithm,TARP
! <Outside Convection Algorithm>, Algorithm {SimpleCombined | TARP | MoWitt | DOE-2 | AdaptiveConvectionAlgorithm}
Outside Convection Algorithm,TARP
! <Sky Radiance Distribution>, Value {Anisotropic}
Sky Radiance Distribution,Anisotropic
! <Zone Air Solution Algorithm>, Value {ThirdOrderBackwardDifference | AnalyticalSolution | EulerMethod}
 Zone Air Solution Algorithm, ThirdOrderBackwardDifference
! <Zone Air Carbon Dioxide Balance Simulation>, Simulation {Yes/No}, Carbon Dioxide Concentration
 Zone Air Carbon Dioxide Balance Simulation, No,N/A
! <Zone Air Generic Contaminant Balance Simulation>, Simulation {Yes/No}, Generic Contaminant Concentration
 Zone Air Generic Contaminant Balance Simulation, No,N/A
! <Zone Air Mass Flow Balance Simulation>, Enforce Mass Balance, Adjust Zone Mixing, Adjust Zone Infiltration {AddInfiltration | AdjustInfiltration | None}, Infiltration Zones {MixingSourceZonesOnly | AllZones}
 Zone Air Mass Flow Balance Simulation, No,N/A,N/A,N/A
! <HVACSystemRootFindingAlgorithm>, Value {RegulaFalsi | Bisection | BisectionThenRegulaFalsi | RegulaFalsiThenBisection}
 HVACSystemRootFindingAlgorithm, RegulaFalsi
! <Environment:Site Atmospheric Variation>,Wind Speed Profile Exponent {},Wind Speed Profile Boundary Layer Thickness {m},Air Temperature Gradient Coefficient {K/m}
Environment:Site Atmospheric Variation,0.220,370.000,6.500000E-003
! <Surface Geometry>,Starting Corner,Vertex Input Direction,Coordinate System,Daylight Reference Point Coordinate System,Rectangular (Simple) Surface Coordinate System
 Surface Geometry,UpperLeftCorner,Counterclockwise,RelativeCoordinateSystem,RelativeCoordinateSystem,RelativeToZoneOrigin
! <Surface Heat Transfer Algorithm>, Value {CTF - ConductionTransferFunction | EMPD - MoisturePenetrationDepthConductionTransferFunction | CondFD - ConductionFiniteDifference | HAMT - CombinedHeatAndMoistureFiniteElement} - Description,Inside Surface Max Temperature Limit{C}, Surface Convection Coefficient Lower Limit {W/m2-K}, Surface Convection Coefficient Upper Limit {W/m2-K}
Surface Heat Transfer Algorithm, CTF - ConductionTransferFunction,200,0.10,1000.0
! <Shading Summary>, Number of Fixed Detached Shades, Number of Building Detached Shades, Number of Attached Shades
 Shading Summary,0,0,0
! <Zone Summary>, Number of Zones, Number of Zone Surfaces, Number of SubSurfaces
 Zone Summary,20,137,17
! <Zone Information>,Zone Name,North Axis {deg},Origin X-Coordinate {m},Origin Y-Coordinate {m},Origin Z-Coordinate {m},Centroid X-Coordinate {m},Centroid Y-Coordinate {m},Centroid Z-Coordinate {m},Type,Zone Multiplier,Zone List Multiplier,Minimum X {m},Maximum X {m},Minimum Y {m},Maximum Y {m},Minimum Z {m},Maximum Z {m},Ceiling Height {m},Volume {m3},Zone Inside Convection Algorithm {Simple-Detailed-CeilingDiffuser-TrombeWall},Zone Outside Convection Algorithm {Simple-Detailed-Tarp-MoWitt-DOE-2-BLAST}, Floor Area {m2},Exterior Gross Wall Area {m2},Exterior Net Wall Area {m2},Exterior Window Area {m2}, Number of Surfaces, Number of SubSurfaces, Number of Shading SubSurfaces,  Part of Total Building Area
 Zone Information, MUSEUM RESTORATION ROOM-SPACE FUNCTION ZN,0.0,25.00,25.00,11.40,50.00,50.00,13.30,1,1,1,25.00,75.00,25.00,75.00,11.40,15.20,3.80,9500.00,TARP,TARP,2500.00,0.00,0.00,50.00,6,1,0,Yes
 Zone Information, POST OFFICE SORTING AREA-SPACE FUNCTION ZN,0.0,25.00,75.00,7.60,50.00,89.15,9.50,1,1,1,0.00,100.00,75.00,100.00,7.60,11.40,3.80,7125.00,TARP,TARP,1875.00,380.00,285.00,95.00,6,1,0,Yes
 Zone Information, RELIGIOUS BUILDING FELLOWSHIP HALL-SPACE FUNCTION ZN,0.0,0.00,0.00,11.40,50.00,10.85,13.30,1,1,1,0.00,100.00,0.00,25.00,11.40,15.20,3.80,7125.00,TARP,TARP,1875.00,380.00,285.00,132.50,6,2,0,Yes
 Zone Information, RELIGIOUS BUILDING WORSHIP/PULPIT/CHOIR AREA-SPACE FUNCTION ZN,0.0,0.00,0.00,7.60,50.00,10.85,9.50,1,1,1,0.00,100.00,0.00,25.00,7.60,11.40,3.80,7125.00,TARP,TARP,1875.00,380.00,285.00,95.00,6,1,0,Yes
 Zone Information, RETAIL FACILITY DRESSING/FITTING ROOM-SPACE FUNCTION ZN,0.0,0.00,0.00,7.60,10.85,50.00,9.50,1,1,1,0.00,25.00,0.00,100.00,7.60,11.40,3.80,7125.00,TARP,TARP,1875.00,380.00,285.00,95.00,6,1,0,Yes
 Zone Information, RETAIL FACILITY MALL CONCOURSE-SPACE FUNCTION ZN,0.0,0.00,0.00,0.00,10.85,50.00,1.90,1,1,1,0.00,25.00,0.00,100.00,0.00,3.80,3.80,7125.00,TARP,TARP,1875.00,0.00,0.00,0.00,6,0,0,Yes
 Zone Information, SPACE DESIGNED TO ANSI/IES RP-28 CHAPEL (USED PRIMARILY BY RESIDENTS)-SPACE FUNCTION ZN,0.0,0.00,0.00,11.40,10.85,50.00,13.30,1,1,1,0.00,25.00,0.00,100.00,11.40,15.20,3.80,7125.00,TARP,TARP,1875.00,380.00,285.00,132.50,6,2,0,Yes
 Zone Information, SPACE DESIGNED TO ANSI/IES RP-28 RECREATION ROOM (USED PRIMARILY BY RESIDENTS)-SPACE FUNCTION ZN,0.0,25.00,75.00,3.80,50.00,89.15,5.70,1,1,1,0.00,100.00,75.00,100.00,3.80,7.60,3.80,7125.00,TARP,TARP,1875.00,380.00,285.00,95.00,6,1,0,Yes
 Zone Information, SPORTS ARENA PLAYING AREA CLASS I FACILITY(4)-SPACE FUNCTION ZN,0.0,75.00,25.00,3.80,89.15,50.00,5.70,1,1,1,75.00,100.00,0.00,100.00,3.80,7.60,3.80,7125.00,TARP,TARP,1875.00,380.00,285.00,95.00,6,1,0,Yes
 Zone Information, SPORTS ARENA PLAYING AREA CLASS II FACILITY(4)-SPACE FUNCTION ZN,0.0,25.00,25.00,3.80,50.00,50.00,5.70,1,1,1,25.00,75.00,25.00,75.00,3.80,7.60,3.80,9500.00,TARP,TARP,2500.00,0.00,0.00,0.00,6,0,0,Yes
 Zone Information, SPORTS ARENA PLAYING AREA CLASS III FACILITY(4)-SPACE FUNCTION ZN,0.0,75.00,25.00,11.40,89.15,50.00,13.30,1,1,1,75.00,100.00,0.00,100.00,11.40,15.20,3.80,7125.00,TARP,TARP,1875.00,380.00,285.00,132.50,6,2,0,Yes
 Zone Information, SPORTS ARENA PLAYING AREA CLASS IV FACILITY(4)-SPACE FUNCTION ZN,0.0,25.00,75.00,0.00,50.00,89.15,1.90,1,1,1,0.00,100.00,75.00,100.00,0.00,3.80,3.80,7125.00,TARP,TARP,1875.00,0.00,0.00,0.00,6,0,0,Yes
 Zone Information, TRANSPORTATION FACILITY AIRPORT CONCOURSE-SPACE FUNCTION ZN,0.0,75.00,25.00,7.60,89.15,50.00,9.50,1,1,1,75.00,100.00,0.00,100.00,7.60,11.40,3.80,7125.00,TARP,TARP,1875.00,380.00,285.00,95.00,6,1,0,Yes
 Zone Information, TRANSPORTATION FACILITY BAGGAGE/CAROUSEL AREA-SPACE FUNCTION ZN,0.0,75.00,25.00,0.00,89.15,50.00,1.90,1,1,1,75.00,100.00,0.00,100.00,0.00,3.80,3.80,7125.00,TARP,TARP,1875.00,0.00,0.00,0.00,6,0,0,Yes
 Zone Information, TRANSPORTATION FACILITY TERMINAL TICKET COUNTER-SPACE FUNCTION ZN,0.0,25.00,25.00,7.60,50.00,50.00,9.50,1,1,1,25.00,75.00,25.00,75.00,7.60,11.40,3.80,9500.00,TARP,TARP,2500.00,0.00,0.00,0.00,6,0,0,Yes
 Zone Information, WAREHOUSE STORAGE AREA MEDIUM TO BULKY PALLETIZED ITEMS-SPACE FUNCTION ZN,0.0,25.00,25.00,0.00,50.00,50.00,1.90,1,1,1,25.00,75.00,25.00,75.00,0.00,3.80,3.80,9500.00,TARP,TARP,2500.00,0.00,0.00,0.00,6,0,0,Yes
 Zone Information, WAREHOUSE STORAGE AREA SMALL HAND-CARRIED ITEMS(4)-SPACE FUNCTION ZN,0.0,25.00,75.00,11.40,50.00,89.15,13.30,1,1,1,0.00,100.00,75.00,100.00,11.40,15.20,3.80,7125.00,TARP,TARP,1875.00,380.00,285.00,132.50,6,2,0,Yes
 Zone Information, WHOLEBUILDING-AUTOMOTIVE FACILITY 1 ZN,0.0,0.00,0.00,3.80,10.85,50.00,5.70,1,1,1,0.00,25.00,0.00,100.00,3.80,7.60,3.80,7125.00,TARP,TARP,1875.00,380.00,285.00,95.00,6,1,0,Yes
 Zone Information, WHOLEBUILDING-AUTOMOTIVE FACILITY 2 ZN,0.0,0.00,0.00,3.80,50.00,10.85,5.70,1,1,1,0.00,100.00,0.00,25.00,3.80,7.60,3.80,7125.00,TARP,TARP,1875.00,380.00,285.00,95.00,6,1,0,Yes
 Zone Information, WHOLEBUILDING-AUTOMOTIVE FACILITY ZN,0.0,0.00,0.00,0.00,50.00,10.85,1.90,1,1,1,0.00,100.00,0.00,25.00,0.00,3.80,3.80,7125.00,TARP,TARP,1875.00,0.00,0.00,0.00,6,0,0,Yes
! <Zone Internal Gains Nominal>,Zone Name, Floor Area {m2},# Occupants,Area per Occupant {m2/person},Occupant per Area {person/m2},Interior Lighting {W/m2},Electric Load {W/m2},Gas Load {W/m2},Other Load {W/m2},Hot Water Eq {W/m2},Steam Equipment {W/m2},Sum Loads per Area {W/m2},Outdoor Controlled Baseboard Heat
 Zone Internal Gains Nominal, MUSEUM RESTORATION ROOM-SPACE FUNCTION ZN,2500.00,125.0,19.993,5.002E-002,9.200,5.002,0.000,0.000,0.000,0.000,14.202,No
 Zone Internal Gains Nominal, POST OFFICE SORTING AREA-SPACE FUNCTION ZN,1875.00,93.8,19.993,5.002E-002,7.300,7.503,0.000,0.000,0.000,0.000,14.803,No
 Zone Internal Gains Nominal, RELIGIOUS BUILDING FELLOWSHIP HALL-SPACE FUNCTION ZN,1875.00,375.1,4.998,0.200,5.900,1.000,0.000,0.000,0.000,0.000,6.900,No
 Zone Internal Gains Nominal, RELIGIOUS BUILDING WORSHIP/PULPIT/CHOIR AREA-SPACE FUNCTION ZN,1875.00,375.1,4.998,0.200,16.506,1.000,0.000,0.000,0.000,0.000,17.506,No
 Zone Internal Gains Nominal, RETAIL FACILITY DRESSING/FITTING ROOM-SPACE FUNCTION ZN,1875.00,62.5,29.989,3.335E-002,5.400,2.501,0.000,0.000,0.000,0.000,7.901,No
 Zone Internal Gains Nominal, RETAIL FACILITY MALL CONCOURSE-SPACE FUNCTION ZN,1875.00,93.8,19.993,5.002E-002,9.700,1.000,0.000,0.000,0.000,0.000,10.700,No
 Zone Internal Gains Nominal, SPACE DESIGNED TO ANSI/IES RP-28 CHAPEL (USED PRIMARILY BY RESIDENTS)-SPACE FUNCTION ZN,1875.00,187.6,9.996,0.100,11.400,1.000,0.000,0.000,0.000,0.000,12.400,No
 Zone Internal Gains Nominal, SPACE DESIGNED TO ANSI/IES RP-28 RECREATION ROOM (USED PRIMARILY BY RESIDENTS)-SPACE FUNCTION ZN,1875.00,93.8,19.993,5.002E-002,19.405,1.000,0.000,0.000,0.000,0.000,20.406,No
 Zone Internal Gains Nominal, SPORTS ARENA PLAYING AREA CLASS I FACILITY(4)-SPACE FUNCTION ZN,1875.00,375.1,4.998,0.200,26.600,1.501,0.000,0.000,0.000,0.000,28.100,No
 Zone Internal Gains Nominal, SPORTS ARENA PLAYING AREA CLASS II FACILITY(4)-SPACE FUNCTION ZN,2500.00,500.2,4.998,0.200,21.100,1.501,0.000,0.000,0.000,0.000,22.600,No
 Zone Internal Gains Nominal, SPORTS ARENA PLAYING AREA CLASS III FACILITY(4)-SPACE FUNCTION ZN,1875.00,375.1,4.998,0.200,18.300,1.501,0.000,0.000,0.000,0.000,19.800,No
 Zone Internal Gains Nominal, SPORTS ARENA PLAYING AREA CLASS IV FACILITY(4)-SPACE FUNCTION ZN,1875.00,375.1,4.998,0.200,12.200,1.501,0.000,0.000,0.000,0.000,13.700,No
 Zone Internal Gains Nominal, TRANSPORTATION FACILITY AIRPORT CONCOURSE-SPACE FUNCTION ZN,1875.00,93.8,19.993,5.002E-002,3.300,0.000,0.000,0.000,0.000,0.000,3.300,No
 Zone Internal Gains Nominal, TRANSPORTATION FACILITY BAGGAGE/CAROUSEL AREA-SPACE FUNCTION ZN,1875.00,93.8,19.993,5.002E-002,4.800,2.501,0.000,0.000,0.000,0.000,7.301,No
 Zone Internal Gains Nominal, TRANSPORTATION FACILITY TERMINAL TICKET COUNTER-SPACE FUNCTION ZN,2500.00,250.1,9.996,0.100,6.700,2.501,0.000,0.000,0.000,0.000,9.201,No
 Zone Internal Gains Nominal, WAREHOUSE STORAGE AREA MEDIUM TO BULKY PALLETIZED ITEMS-SPACE FUNCTION ZN,2500.00,25.0,99.964,1.000E-002,3.800,1.000,0.000,0.000,0.000,0.000,4.800,No
 Zone Internal Gains Nominal, WAREHOUSE STORAGE AREA SMALL HAND-CARRIED ITEMS(4)-SPACE FUNCTION ZN,1875.00,37.5,49.982,2.001E-002,7.400,1.000,0.000,0.000,0.000,0.000,8.400,No
 Zone Internal Gains Nominal, WHOLEBUILDING-AUTOMOTIVE FACILITY 1 ZN,1875.00,93.8,19.993,5.002E-002,7.600,5.002,0.000,0.000,0.000,0.000,12.602,No
 Zone Internal Gains Nominal, WHOLEBUILDING-AUTOMOTIVE FACILITY 2 ZN,1875.00,93.8,19.993,5.002E-002,7.600,5.002,0.000,0.000,0.000,0.000,12.602,No
 Zone Internal Gains Nominal, WHOLEBUILDING-AUTOMOTIVE FACILITY ZN,1875.00,93.8,19.993,5.002E-002,7.600,5.002,0.000,0.000,0.000,0.000,12.602,No
! <People Internal Gains Nominal>,Name,Schedule Name,Zone Name,Zone Floor Area {m2},# Zone Occupants,Number of People {},People/Floor Area {person/m2},Floor Area per person {m2/person},Fraction Radiant,Fraction Convected,Sensible Fraction Calculation,Activity level,ASHRAE 55 Warnings,Carbon Dioxide Generation Rate,Nominal Minimum Number of People,Nominal Maximum Number of People
 People Internal Gains Nominal, WHOLEBUILDING-AUTOMOTIVE FACILITY ZN AUTOMOTIVE FACILITY WHOLEBUILDING PEOPLE,NECB-E-OCCUPANCY,WHOLEBUILDING-AUTOMOTIVE FACILITY ZN,1875.00,93.8,93.8,5.002E-002,19.993,0.300,0.700,AutoCalculate,NECB-ACTIVITY,No,3.8200E-008,0,84
 People Internal Gains Nominal, WHOLEBUILDING-AUTOMOTIVE FACILITY 1 ZN AUTOMOTIVE FACILITY WHOLEBUILDING 1 PEOPLE,NECB-E-OCCUPANCY,WHOLEBUILDING-AUTOMOTIVE FACILITY 1 ZN,1875.00,93.8,93.8,5.002E-002,19.993,0.300,0.700,AutoCalculate,NECB-ACTIVITY,No,3.8200E-008,0,84
 People Internal Gains Nominal, WHOLEBUILDING-AUTOMOTIVE FACILITY 2 ZN AUTOMOTIVE FACILITY WHOLEBUILDING 2 PEOPLE,NECB-E-OCCUPANCY,WHOLEBUILDING-AUTOMOTIVE FACILITY 2 ZN,1875.00,93.8,93.8,5.002E-002,19.993,0.300,0.700,AutoCalculate,NECB-ACTIVITY,No,3.8200E-008,0,84
 People Internal Gains Nominal, MUSEUM RESTORATION ROOM-SPACE FUNCTION ZN SPACE FUNCTION MUSEUM RESTORATION ROOM PEOPLE,NECB-A-OCCUPANCY,MUSEUM RESTORATION ROOM-SPACE FUNCTION ZN,2500.00,125.0,125.0,5.002E-002,19.993,0.300,0.700,AutoCalculate,NECB-ACTIVITY,No,3.8200E-008,0,113
 People Internal Gains Nominal, POST OFFICE SORTING AREA-SPACE FUNCTION ZN SPACE FUNCTION POST OFFICE SORTING AREA PEOPLE,NECB-A-OCCUPANCY,POST OFFICE SORTING AREA-SPACE FUNCTION ZN,1875.00,93.8,93.8,5.002E-002,19.993,0.300,0.700,AutoCalculate,NECB-ACTIVITY,No,3.8200E-008,0,84
 People Internal Gains Nominal, RELIGIOUS BUILDING FELLOWSHIP HALL-SPACE FUNCTION ZN SPACE FUNCTION RELIGIOUS BUILDING FELLOWSHIP HALL PEOPLE,NECB-C-OCCUPANCY,RELIGIOUS BUILDING FELLOWSHIP HALL-SPACE FUNCTION ZN,1875.00,375.1,375.1,0.200,4.998,0.300,0.700,AutoCalculate,NECB-ACTIVITY,No,3.8200E-008,0,338
 People Internal Gains Nominal, RELIGIOUS BUILDING WORSHIP/PULPIT/CHOIR AREA-SPACE FUNCTION ZN SPACE FUNCTION RELIGIOUS BUILDING WORSHIP/PULPIT/CHOIR AREA PEOPLE,NECB-I-OCCUPANCY,RELIGIOUS BUILDING WORSHIP/PULPIT/CHOIR AREA-SPACE FUNCTION ZN,1875.00,375.1,375.1,0.200,4.998,0.300,0.700,AutoCalculate,NECB-ACTIVITY,No,3.8200E-008,0,300
 People Internal Gains Nominal, RETAIL FACILITY DRESSING/FITTING ROOM-SPACE FUNCTION ZN SPACE FUNCTION RETAIL FACILITY DRESSING/FITTING ROOM PEOPLE,NECB-C-OCCUPANCY,RETAIL FACILITY DRESSING/FITTING ROOM-SPACE FUNCTION ZN,1875.00,62.5,62.5,3.335E-002,29.989,0.300,0.700,AutoCalculate,NECB-ACTIVITY,No,3.8200E-008,0,56
 People Internal Gains Nominal, RETAIL FACILITY MALL CONCOURSE-SPACE FUNCTION ZN SPACE FUNCTION RETAIL FACILITY MALL CONCOURSE PEOPLE,NECB-C-OCCUPANCY,RETAIL FACILITY MALL CONCOURSE-SPACE FUNCTION ZN,1875.00,93.8,93.8,5.002E-002,19.993,0.300,0.700,AutoCalculate,NECB-ACTIVITY,No,3.8200E-008,0,84
 People Internal Gains Nominal, SPACE DESIGNED TO ANSI/IES RP-28 CHAPEL (USED PRIMARILY BY RESIDENTS)-SPACE FUNCTION ZN SPACE FUNCTION SPACE DESIGNED TO ANSI/IES RP-28 CHAPEL (USED PRIMARILY BY RESIDENTS) PEOPLE,NECB-I-OCCUPANCY,SPACE DESIGNED TO ANSI/IES RP-28 CHAPEL (USED PRIMARILY BY RESIDENTS)-SPACE FUNCTION ZN,1875.00,187.6,187.6,0.100,9.996,0.300,0.700,AutoCalculate,NECB-ACTIVITY,No,3.8200E-008,0,150
 People Internal Gains Nominal, SPACE DESIGNED TO ANSI/IES RP-28 RECREATION ROOM (USED PRIMARILY BY RESIDENTS)-SPACE FUNCTION ZN SPACE FUNCTION SPACE DESIGNED TO ANSI/IES RP-28 RECREATION ROOM (USED PRIMARILY BY RESIDENTS) PEOPLE,NECB-B-OCCUPANCY,SPACE DESIGNED TO ANSI/IES RP-28 RECREATION ROOM (USED PRIMARILY BY RESIDENTS)-SPACE FUNCTION ZN,1875.00,93.8,93.8,5.002E-002,19.993,0.300,0.700,AutoCalculate,NECB-ACTIVITY,No,3.8200E-008,0,84
 People Internal Gains Nominal, SPORTS ARENA PLAYING AREA CLASS I FACILITY(4)-SPACE FUNCTION ZN SPACE FUNCTION SPORTS ARENA PLAYING AREA CLASS I FACILITY(4) PEOPLE,NECB-B-OCCUPANCY,SPORTS ARENA PLAYING AREA CLASS I FACILITY(4)-SPACE FUNCTION ZN,1875.00,375.1,375.1,0.200,4.998,0.300,0.700,AutoCalculate,NECB-ACTIVITY,No,3.8200E-008,0,338
 People Internal Gains Nominal, SPORTS ARENA PLAYING AREA CLASS II FACILITY(4)-SPACE FUNCTION ZN SPACE FUNCTION SPORTS ARENA PLAYING AREA CLASS II FACILITY(4) PEOPLE,NECB-B-OCCUPANCY,SPORTS ARENA PLAYING AREA CLASS II FACILITY(4)-SPACE FUNCTION ZN,2500.00,500.2,500.2,0.200,4.998,0.300,0.700,AutoCalculate,NECB-ACTIVITY,No,3.8200E-008,0,450
 People Internal Gains Nominal, SPORTS ARENA PLAYING AREA CLASS III FACILITY(4)-SPACE FUNCTION ZN SPACE FUNCTION SPORTS ARENA PLAYING AREA CLASS III FACILITY(4) PEOPLE,NECB-B-OCCUPANCY,SPORTS ARENA PLAYING AREA CLASS III FACILITY(4)-SPACE FUNCTION ZN,1875.00,375.1,375.1,0.200,4.998,0.300,0.700,AutoCalculate,NECB-ACTIVITY,No,3.8200E-008,0,338
 People Internal Gains Nominal, SPORTS ARENA PLAYING AREA CLASS IV FACILITY(4)-SPACE FUNCTION ZN SPACE FUNCTION SPORTS ARENA PLAYING AREA CLASS IV FACILITY(4) PEOPLE,NECB-B-OCCUPANCY,SPORTS ARENA PLAYING AREA CLASS IV FACILITY(4)-SPACE FUNCTION ZN,1875.00,375.1,375.1,0.200,4.998,0.300,0.700,AutoCalculate,NECB-ACTIVITY,No,3.8200E-008,0,338
 People Internal Gains Nominal, TRANSPORTATION FACILITY AIRPORT CONCOURSE-SPACE FUNCTION ZN SPACE FUNCTION TRANSPORTATION FACILITY AIRPORT CONCOURSE PEOPLE,NECB-H-OCCUPANCY,TRANSPORTATION FACILITY AIRPORT CONCOURSE-SPACE FUNCTION ZN,1875.00,93.8,93.8,5.002E-002,19.993,0.300,0.700,AutoCalculate,NECB-ACTIVITY,No,3.8200E-008,84,84
 People Internal Gains Nominal, TRANSPORTATION FACILITY BAGGAGE/CAROUSEL AREA-SPACE FUNCTION ZN SPACE FUNCTION TRANSPORTATION FACILITY BAGGAGE/CAROUSEL AREA PEOPLE,NECB-H-OCCUPANCY,TRANSPORTATION FACILITY BAGGAGE/CAROUSEL AREA-SPACE FUNCTION ZN,1875.00,93.8,93.8,5.002E-002,19.993,0.300,0.700,AutoCalculate,NECB-ACTIVITY,No,3.8200E-008,84,84
 People Internal Gains Nominal, TRANSPORTATION FACILITY TERMINAL TICKET COUNTER-SPACE FUNCTION ZN SPACE FUNCTION TRANSPORTATION FACILITY TERMINAL TICKET COUNTER PEOPLE,NECB-H-OCCUPANCY,TRANSPORTATION FACILITY TERMINAL TICKET COUNTER-SPACE FUNCTION ZN,2500.00,250.1,250.1,0.100,9.996,0.300,0.700,AutoCalculate,NECB-ACTIVITY,No,3.8200E-008,225,225
 People Internal Gains Nominal, WAREHOUSE STORAGE AREA MEDIUM TO BULKY PALLETIZED ITEMS-SPACE FUNCTION ZN SPACE FUNCTION WAREHOUSE STORAGE AREA MEDIUM TO BULKY PALLETIZED ITEMS PEOPLE,NECB-A-OCCUPANCY,WAREHOUSE STORAGE AREA MEDIUM TO BULKY PALLETIZED ITEMS-SPACE FUNCTION ZN,2500.00,25.0,25.0,1.000E-002,99.964,0.300,0.700,AutoCalculate,NECB-ACTIVITY,No,3.8200E-008,0,23
 People Internal Gains Nominal, WAREHOUSE STORAGE AREA SMALL HAND-CARRIED ITEMS(4)-SPACE FUNCTION ZN SPACE FUNCTION WAREHOUSE STORAGE AREA SMALL HAND-CARRIED ITEMS(4) PEOPLE,NECB-A-OCCUPANCY,WAREHOUSE STORAGE AREA SMALL HAND-CARRIED ITEMS(4)-SPACE FUNCTION ZN,1875.00,37.5,37.5,2.001E-002,49.982,0.300,0.700,AutoCalculate,NECB-ACTIVITY,No,3.8200E-008,0,34
! <Lights Internal Gains Nominal>,Name,Schedule Name,Zone Name,Zone Floor Area {m2},# Zone Occupants,Lighting Level {W},Lights/Floor Area {W/m2},Lights per person {W/person},Fraction Return Air,Fraction Radiant,Fraction Short Wave,Fraction Convected,Fraction Replaceable,End-Use Category,Nominal Minimum Lighting Level {W},Nominal Maximum Lighting Level {W}
 Lights Internal Gains Nominal, WHOLEBUILDING-AUTOMOTIVE FACILITY ZN AUTOMOTIVE FACILITY WHOLEBUILDING LIGHTS,NECB-E-LIGHTING,WHOLEBUILDING-AUTOMOTIVE FACILITY ZN,1875.00,93.8,14249.877,7.600,151.943,0.000,0.500,0.200,0.300,1.000,General,712.494,12824.889
 Lights Internal Gains Nominal, WHOLEBUILDING-AUTOMOTIVE FACILITY 1 ZN AUTOMOTIVE FACILITY WHOLEBUILDING 1 LIGHTS,NECB-E-LIGHTING,WHOLEBUILDING-AUTOMOTIVE FACILITY 1 ZN,1875.00,93.8,14249.877,7.600,151.943,0.000,0.500,0.200,0.300,1.000,General,712.494,12824.889
 Lights Internal Gains Nominal, WHOLEBUILDING-AUTOMOTIVE FACILITY 2 ZN AUTOMOTIVE FACILITY WHOLEBUILDING 2 LIGHTS,NECB-E-LIGHTING,WHOLEBUILDING-AUTOMOTIVE FACILITY 2 ZN,1875.00,93.8,14249.877,7.600,151.943,0.000,0.500,0.200,0.300,1.000,General,712.494,12824.889
 Lights Internal Gains Nominal, MUSEUM RESTORATION ROOM-SPACE FUNCTION ZN SPACE FUNCTION MUSEUM RESTORATION ROOM LIGHTS,NECB-A-OCCUPANCY-NECB-A-LIGHTING-0.3-0.0-0.67-LIGHT RULESET,MUSEUM RESTORATION ROOM-SPACE FUNCTION ZN,2500.00,125.0,22999.812,9.200,183.932,0.000,0.500,0.200,0.300,1.000,General,918.843,20699.831
 Lights Internal Gains Nominal, POST OFFICE SORTING AREA-SPACE FUNCTION ZN SPACE FUNCTION POST OFFICE SORTING AREA LIGHTS,NECB-A-LIGHTING,POST OFFICE SORTING AREA-SPACE FUNCTION ZN,1875.00,93.8,13687.395,7.300,145.946,0.000,0.500,0.200,0.300,1.000,General,684.370,12318.656
 Lights Internal Gains Nominal, RELIGIOUS BUILDING FELLOWSHIP HALL-SPACE FUNCTION ZN SPACE FUNCTION RELIGIOUS BUILDING FELLOWSHIP HALL LIGHTS,NECB-C-LIGHTING,RELIGIOUS BUILDING FELLOWSHIP HALL-SPACE FUNCTION ZN,1875.00,375.1,11062.400,5.900,29.489,0.000,0.500,0.200,0.300,1.000,General,553.120,9956.160
 Lights Internal Gains Nominal, RELIGIOUS BUILDING WORSHIP/PULPIT/CHOIR AREA-SPACE FUNCTION ZN SPACE FUNCTION RELIGIOUS BUILDING WORSHIP/PULPIT/CHOIR AREA LIGHTS,NECB-I-OCCUPANCY-NECB-I-LIGHTING-0.1-0.0-0.67-LIGHT RULESET,RELIGIOUS BUILDING WORSHIP/PULPIT/CHOIR AREA-SPACE FUNCTION ZN,1875.00,375.1,30948.743,16.506,82.500,0.000,0.500,0.200,0.300,1.000,General,1443.759,27853.869
 Lights Internal Gains Nominal, RETAIL FACILITY DRESSING/FITTING ROOM-SPACE FUNCTION ZN SPACE FUNCTION RETAIL FACILITY DRESSING/FITTING ROOM LIGHTS,NECB-C-LIGHTING,RETAIL FACILITY DRESSING/FITTING ROOM-SPACE FUNCTION ZN,1875.00,62.5,10124.911,5.400,161.940,0.000,0.500,0.200,0.300,1.000,General,506.246,9112.420
 Lights Internal Gains Nominal, RETAIL FACILITY MALL CONCOURSE-SPACE FUNCTION ZN SPACE FUNCTION RETAIL FACILITY MALL CONCOURSE LIGHTS,NECB-C-OCCUPANCY-NECB-C-LIGHTING-0.0-0.0-0.67-LIGHT RULESET,RETAIL FACILITY MALL CONCOURSE-SPACE FUNCTION ZN,1875.00,93.8,18187.349,9.700,193.928,0.000,0.500,0.200,0.300,1.000,General,909.367,16368.614
 Lights Internal Gains Nominal, SPACE DESIGNED TO ANSI/IES RP-28 CHAPEL (USED PRIMARILY BY RESIDENTS)-SPACE FUNCTION ZN SPACE FUNCTION SPACE DESIGNED TO ANSI/IES RP-28 CHAPEL (USED PRIMARILY BY RESIDENTS) LIGHTS,NECB-I-OCCUPANCY-NECB-I-LIGHTING-0.5-0.0-0.67-LIGHT RULESET,SPACE DESIGNED TO ANSI/IES RP-28 CHAPEL (USED PRIMARILY BY RESIDENTS)-SPACE FUNCTION ZN,1875.00,187.6,21374.825,11.400,113.958,0.000,0.500,0.200,0.300,1.000,General,710.713,19237.343
 Lights Internal Gains Nominal, SPACE DESIGNED TO ANSI/IES RP-28 RECREATION ROOM (USED PRIMARILY BY RESIDENTS)-SPACE FUNCTION ZN SPACE FUNCTION SPACE DESIGNED TO ANSI/IES RP-28 RECREATION ROOM (USED PRIMARILY BY RESIDENTS) LIGHTS,NECB-B-OCCUPANCY-NECB-B-LIGHTING-0.2-0.0-0.67-LIGHT RULESET,SPACE DESIGNED TO ANSI/IES RP-28 RECREATION ROOM (USED PRIMARILY BY RESIDENTS)-SPACE FUNCTION ZN,1875.00,93.8,36384.789,19.405,387.963,0.000,0.500,0.200,0.300,1.000,General,3150.923,32746.310
 Lights Internal Gains Nominal, SPORTS ARENA PLAYING AREA CLASS I FACILITY(4)-SPACE FUNCTION ZN SPACE FUNCTION SPORTS ARENA PLAYING AREA CLASS I FACILITY(4) LIGHTS,NECB-B-OCCUPANCY-NECB-B-LIGHTING-0.0-0.0-0.67-LIGHT RULESET,SPORTS ARENA PLAYING AREA CLASS I FACILITY(4)-SPACE FUNCTION ZN,1875.00,375.1,49874.579,26.600,132.951,0.000,0.500,0.200,0.300,1.000,General,4987.458,44887.121
 Lights Internal Gains Nominal, SPORTS ARENA PLAYING AREA CLASS II FACILITY(4)-SPACE FUNCTION ZN SPACE FUNCTION SPORTS ARENA PLAYING AREA CLASS II FACILITY(4) LIGHTS,NECB-B-OCCUPANCY-NECB-B-LIGHTING-0.0-0.0-0.67-LIGHT RULESET,SPORTS ARENA PLAYING AREA CLASS II FACILITY(4)-SPACE FUNCTION ZN,2500.00,500.2,52749.566,21.100,105.461,0.000,0.500,0.200,0.300,1.000,General,5274.957,47474.609
 Lights Internal Gains Nominal, SPORTS ARENA PLAYING AREA CLASS III FACILITY(4)-SPACE FUNCTION ZN SPACE FUNCTION SPORTS ARENA PLAYING AREA CLASS III FACILITY(4) LIGHTS,NECB-B-OCCUPANCY-NECB-B-LIGHTING-0.0-0.0-0.67-LIGHT RULESET,SPORTS ARENA PLAYING AREA CLASS III FACILITY(4)-SPACE FUNCTION ZN,1875.00,375.1,34312.205,18.300,91.466,0.000,0.500,0.200,0.300,1.000,General,3431.220,30880.984
 Lights Internal Gains Nominal, SPORTS ARENA PLAYING AREA CLASS IV FACILITY(4)-SPACE FUNCTION ZN SPACE FUNCTION SPORTS ARENA PLAYING AREA CLASS IV FACILITY(4) LIGHTS,NECB-B-OCCUPANCY-NECB-B-LIGHTING-0.0-0.0-0.67-LIGHT RULESET,SPORTS ARENA PLAYING AREA CLASS IV FACILITY(4)-SPACE FUNCTION ZN,1875.00,375.1,22874.817,12.200,60.977,0.000,0.500,0.200,0.300,1.000,General,2287.482,20587.335
 Lights Internal Gains Nominal, TRANSPORTATION FACILITY AIRPORT CONCOURSE-SPACE FUNCTION ZN SPACE FUNCTION TRANSPORTATION FACILITY AIRPORT CONCOURSE LIGHTS,NECB-H-LIGHTING,TRANSPORTATION FACILITY AIRPORT CONCOURSE-SPACE FUNCTION ZN,1875.00,93.8,6187.439,3.300,65.975,0.000,0.500,0.200,0.300,1.000,General,5568.695,5568.695
 Lights Internal Gains Nominal, TRANSPORTATION FACILITY BAGGAGE/CAROUSEL AREA-SPACE FUNCTION ZN SPACE FUNCTION TRANSPORTATION FACILITY BAGGAGE/CAROUSEL AREA LIGHTS,NECB-H-LIGHTING,TRANSPORTATION FACILITY BAGGAGE/CAROUSEL AREA-SPACE FUNCTION ZN,1875.00,93.8,8999.928,4.800,95.964,0.000,0.500,0.200,0.300,1.000,General,8099.935,8099.935
 Lights Internal Gains Nominal, TRANSPORTATION FACILITY TERMINAL TICKET COUNTER-SPACE FUNCTION ZN SPACE FUNCTION TRANSPORTATION FACILITY TERMINAL TICKET COUNTER LIGHTS,NECB-H-LIGHTING,TRANSPORTATION FACILITY TERMINAL TICKET COUNTER-SPACE FUNCTION ZN,2500.00,250.1,16749.856,6.700,66.975,0.000,0.500,0.200,0.300,1.000,General,15074.870,15074.870
 Lights Internal Gains Nominal, WAREHOUSE STORAGE AREA MEDIUM TO BULKY PALLETIZED ITEMS-SPACE FUNCTION ZN SPACE FUNCTION WAREHOUSE STORAGE AREA MEDIUM TO BULKY PALLETIZED ITEMS LIGHTS,NECB-A-LIGHTING,WAREHOUSE STORAGE AREA MEDIUM TO BULKY PALLETIZED ITEMS-SPACE FUNCTION ZN,2500.00,25.0,9499.931,3.800,379.859,0.000,0.500,0.200,0.300,1.000,General,474.997,8549.938
 Lights Internal Gains Nominal, WAREHOUSE STORAGE AREA SMALL HAND-CARRIED ITEMS(4)-SPACE FUNCTION ZN SPACE FUNCTION WAREHOUSE STORAGE AREA SMALL HAND-CARRIED ITEMS(4) LIGHTS,NECB-A-LIGHTING,WAREHOUSE STORAGE AREA SMALL HAND-CARRIED ITEMS(4)-SPACE FUNCTION ZN,1875.00,37.5,13874.889,7.400,369.863,0.000,0.500,0.200,0.300,1.000,General,693.744,12487.400
! <ElectricEquipment Internal Gains Nominal>,Name,Schedule Name,Zone Name,Zone Floor Area {m2},# Zone Occupants,Equipment Level {W},Equipment/Floor Area {W/m2},Equipment per person {W/person},Fraction Latent,Fraction Radiant,Fraction Lost,Fraction Convected,End-Use SubCategory,Nominal Minimum Equipment Level {W},Nominal Maximum Equipment Level {W}
 ElectricEquipment Internal Gains Nominal, WHOLEBUILDING-AUTOMOTIVE FACILITY ZN AUTOMOTIVE FACILITY WHOLEBUILDING ELEC EQUIP,NECB-E-ELECTRIC-EQUIPMENT,WHOLEBUILDING-AUTOMOTIVE FACILITY ZN,1875.00,93.8,9378.407,5.002,100.000,0.000,0.500,0.000,0.500,General,468.920,8440.566
 ElectricEquipment Internal Gains Nominal, WHOLEBUILDING-AUTOMOTIVE FACILITY 1 ZN AUTOMOTIVE FACILITY WHOLEBUILDING 1 ELEC EQUIP,NECB-E-ELECTRIC-EQUIPMENT,WHOLEBUILDING-AUTOMOTIVE FACILITY 1 ZN,1875.00,93.8,9378.407,5.002,100.000,0.000,0.500,0.000,0.500,General,468.920,8440.566
 ElectricEquipment Internal Gains Nominal, WHOLEBUILDING-AUTOMOTIVE FACILITY 2 ZN AUTOMOTIVE FACILITY WHOLEBUILDING 2 ELEC EQUIP,NECB-E-ELECTRIC-EQUIPMENT,WHOLEBUILDING-AUTOMOTIVE FACILITY 2 ZN,1875.00,93.8,9378.407,5.002,100.000,0.000,0.500,0.000,0.500,General,468.920,8440.566
 ElectricEquipment Internal Gains Nominal, MUSEUM RESTORATION ROOM-SPACE FUNCTION ZN SPACE FUNCTION MUSEUM RESTORATION ROOM ELEC EQUIP,NECB-A-ELECTRIC-EQUIPMENT,MUSEUM RESTORATION ROOM-SPACE FUNCTION ZN,2500.00,125.0,12504.543,5.002,100.000,0.000,0.500,0.000,0.500,General,2500.909,11254.088
 ElectricEquipment Internal Gains Nominal, POST OFFICE SORTING AREA-SPACE FUNCTION ZN SPACE FUNCTION POST OFFICE SORTING AREA ELEC EQUIP,NECB-A-ELECTRIC-EQUIPMENT,POST OFFICE SORTING AREA-SPACE FUNCTION ZN,1875.00,93.8,14067.611,7.503,150.000,0.000,0.500,0.000,0.500,General,2813.522,12660.850
 ElectricEquipment Internal Gains Nominal, RELIGIOUS BUILDING FELLOWSHIP HALL-SPACE FUNCTION ZN SPACE FUNCTION RELIGIOUS BUILDING FELLOWSHIP HALL ELEC EQUIP,NECB-C-ELECTRIC-EQUIPMENT,RELIGIOUS BUILDING FELLOWSHIP HALL-SPACE FUNCTION ZN,1875.00,375.1,1875.681,1.000,5.000,0.000,0.500,0.000,0.500,General,93.784,1688.113
 ElectricEquipment Internal Gains Nominal, RELIGIOUS BUILDING WORSHIP/PULPIT/CHOIR AREA-SPACE FUNCTION ZN SPACE FUNCTION RELIGIOUS BUILDING WORSHIP/PULPIT/CHOIR AREA ELEC EQUIP,NECB-I-ELECTRIC-EQUIPMENT,RELIGIOUS BUILDING WORSHIP/PULPIT/CHOIR AREA-SPACE FUNCTION ZN,1875.00,375.1,1875.681,1.000,5.000,0.000,0.500,0.000,0.500,General,187.568,1500.545
 ElectricEquipment Internal Gains Nominal, RETAIL FACILITY DRESSING/FITTING ROOM-SPACE FUNCTION ZN SPACE FUNCTION RETAIL FACILITY DRESSING/FITTING ROOM ELEC EQUIP,NECB-C-ELECTRIC-EQUIPMENT,RETAIL FACILITY DRESSING/FITTING ROOM-SPACE FUNCTION ZN,1875.00,62.5,4689.204,2.501,75.000,0.000,0.500,0.000,0.500,General,234.460,4220.283
 ElectricEquipment Internal Gains Nominal, RETAIL FACILITY MALL CONCOURSE-SPACE FUNCTION ZN SPACE FUNCTION RETAIL FACILITY MALL CONCOURSE ELEC EQUIP,NECB-C-ELECTRIC-EQUIPMENT,RETAIL FACILITY MALL CONCOURSE-SPACE FUNCTION ZN,1875.00,93.8,1875.681,1.000,20.000,0.000,0.500,0.000,0.500,General,93.784,1688.113
 ElectricEquipment Internal Gains Nominal, SPACE DESIGNED TO ANSI/IES RP-28 CHAPEL (USED PRIMARILY BY RESIDENTS)-SPACE FUNCTION ZN SPACE FUNCTION SPACE DESIGNED TO ANSI/IES RP-28 CHAPEL (USED PRIMARILY BY RESIDENTS) ELEC EQUIP,NECB-I-ELECTRIC-EQUIPMENT,SPACE DESIGNED TO ANSI/IES RP-28 CHAPEL (USED PRIMARILY BY RESIDENTS)-SPACE FUNCTION ZN,1875.00,187.6,1875.681,1.000,10.000,0.000,0.500,0.000,0.500,General,187.568,1500.545
 ElectricEquipment Internal Gains Nominal, SPACE DESIGNED TO ANSI/IES RP-28 RECREATION ROOM (USED PRIMARILY BY RESIDENTS)-SPACE FUNCTION ZN SPACE FUNCTION SPACE DESIGNED TO ANSI/IES RP-28 RECREATION ROOM (USED PRIMARILY BY RESIDENTS) ELEC EQUIP,NECB-B-ELECTRIC-EQUIPMENT,SPACE DESIGNED TO ANSI/IES RP-28 RECREATION ROOM (USED PRIMARILY BY RESIDENTS)-SPACE FUNCTION ZN,1875.00,93.8,1875.681,1.000,20.000,0.000,0.500,0.000,0.500,General,187.568,1688.113
 ElectricEquipment Internal Gains Nominal, SPORTS ARENA PLAYING AREA CLASS I FACILITY(4)-SPACE FUNCTION ZN SPACE FUNCTION SPORTS ARENA PLAYING AREA CLASS I FACILITY(4) ELEC EQUIP,NECB-B-ELECTRIC-EQUIPMENT,SPORTS ARENA PLAYING AREA CLASS I FACILITY(4)-SPACE FUNCTION ZN,1875.00,375.1,2813.522,1.501,7.500,0.000,0.500,0.000,0.500,General,281.352,2532.170
 ElectricEquipment Internal Gains Nominal, SPORTS ARENA PLAYING AREA CLASS II FACILITY(4)-SPACE FUNCTION ZN SPACE FUNCTION SPORTS ARENA PLAYING AREA CLASS II FACILITY(4) ELEC EQUIP,NECB-B-ELECTRIC-EQUIPMENT,SPORTS ARENA PLAYING AREA CLASS II FACILITY(4)-SPACE FUNCTION ZN,2500.00,500.2,3751.363,1.501,7.500,0.000,0.500,0.000,0.500,General,375.136,3376.227
 ElectricEquipment Internal Gains Nominal, SPORTS ARENA PLAYING AREA CLASS III FACILITY(4)-SPACE FUNCTION ZN SPACE FUNCTION SPORTS ARENA PLAYING AREA CLASS III FACILITY(4) ELEC EQUIP,NECB-B-ELECTRIC-EQUIPMENT,SPORTS ARENA PLAYING AREA CLASS III FACILITY(4)-SPACE FUNCTION ZN,1875.00,375.1,2813.522,1.501,7.500,0.000,0.500,0.000,0.500,General,281.352,2532.170
 ElectricEquipment Internal Gains Nominal, SPORTS ARENA PLAYING AREA CLASS IV FACILITY(4)-SPACE FUNCTION ZN SPACE FUNCTION SPORTS ARENA PLAYING AREA CLASS IV FACILITY(4) ELEC EQUIP,NECB-B-ELECTRIC-EQUIPMENT,SPORTS ARENA PLAYING AREA CLASS IV FACILITY(4)-SPACE FUNCTION ZN,1875.00,375.1,2813.522,1.501,7.500,0.000,0.500,0.000,0.500,General,281.352,2532.170
 ElectricEquipment Internal Gains Nominal, TRANSPORTATION FACILITY BAGGAGE/CAROUSEL AREA-SPACE FUNCTION ZN SPACE FUNCTION TRANSPORTATION FACILITY BAGGAGE/CAROUSEL AREA ELEC EQUIP,NECB-H-ELECTRIC-EQUIPMENT,TRANSPORTATION FACILITY BAGGAGE/CAROUSEL AREA-SPACE FUNCTION ZN,1875.00,93.8,4689.204,2.501,50.000,0.000,0.500,0.000,0.500,General,4220.283,4220.283
 ElectricEquipment Internal Gains Nominal, TRANSPORTATION FACILITY TERMINAL TICKET COUNTER-SPACE FUNCTION ZN SPACE FUNCTION TRANSPORTATION FACILITY TERMINAL TICKET COUNTER ELEC EQUIP,NECB-H-ELECTRIC-EQUIPMENT,TRANSPORTATION FACILITY TERMINAL TICKET COUNTER-SPACE FUNCTION ZN,2500.00,250.1,6252.271,2.501,25.000,0.000,0.500,0.000,0.500,General,5627.044,5627.044
 ElectricEquipment Internal Gains Nominal, WAREHOUSE STORAGE AREA MEDIUM TO BULKY PALLETIZED ITEMS-SPACE FUNCTION ZN SPACE FUNCTION WAREHOUSE STORAGE AREA MEDIUM TO BULKY PALLETIZED ITEMS ELEC EQUIP,NECB-A-ELECTRIC-EQUIPMENT,WAREHOUSE STORAGE AREA MEDIUM TO BULKY PALLETIZED ITEMS-SPACE FUNCTION ZN,2500.00,25.0,2500.909,1.000,100.000,0.000,0.500,0.000,0.500,General,500.182,2250.818
 ElectricEquipment Internal Gains Nominal, WAREHOUSE STORAGE AREA SMALL HAND-CARRIED ITEMS(4)-SPACE FUNCTION ZN SPACE FUNCTION WAREHOUSE STORAGE AREA SMALL HAND-CARRIED ITEMS(4) ELEC EQUIP,NECB-A-ELECTRIC-EQUIPMENT,WAREHOUSE STORAGE AREA SMALL HAND-CARRIED ITEMS(4)-SPACE FUNCTION ZN,1875.00,37.5,1875.681,1.000,50.000,0.000,0.500,0.000,0.500,General,375.136,1688.113
! <Shadowing/Sun Position Calculations Annual Simulations>, Calculation Method, Value {days}, Allowable Number Figures in Shadow Overlap {}, Polygon Clipping Algorithm, Sky Diffuse Modeling Algorithm, External Shading Calculation Method, Output External Shading Calculation Results, Disable Self-Shading Within Shading Zone Groups, Disable Self-Shading From Shading Zone Groups to Other Zones
Shadowing/Sun Position Calculations Annual Simulations,AverageOverDaysInFrequency,20,15000,SutherlandHodgman,SimpleSkyDiffuseModeling,InternalCalculation,No,No,No
! <ZoneInfiltration Airflow Stats Nominal>,Name,Schedule Name,Zone Name, Zone Floor Area {m2}, # Zone Occupants,Design Volume Flow Rate {m3/s},Volume Flow Rate/Floor Area {m3/s/m2},Volume Flow Rate/Exterior Surface Area {m3/s/m2},ACH - Air Changes per Hour,Equation A - Constant Term Coefficient {},Equation B - Temperature Term Coefficient {1/C},Equation C - Velocity Term Coefficient {s/m}, Equation D - Velocity Squared Term Coefficient {s2/m2}
 ZoneInfiltration Airflow Stats Nominal, MUSEUM RESTORATION ROOM-SPACE FUNCTION INFILTRATION,ALWAYS ON DISCRETE,MUSEUM RESTORATION ROOM-SPACE FUNCTION ZN,2500.00,125.0,0.625,2.500E-004,2.500E-004,0.237,0.000,0.000,0.224,0.000
 ZoneInfiltration Airflow Stats Nominal, POST OFFICE SORTING AREA-SPACE FUNCTION INFILTRATION,ALWAYS ON DISCRETE,POST OFFICE SORTING AREA-SPACE FUNCTION ZN,1875.00,93.8,9.500E-002,5.067E-005,2.500E-004,4.800E-002,0.000,0.000,0.224,0.000
 ZoneInfiltration Airflow Stats Nominal, RELIGIOUS BUILDING FELLOWSHIP HALL-SPACE FUNCTION INFILTRATION,ALWAYS ON DISCRETE,RELIGIOUS BUILDING FELLOWSHIP HALL-SPACE FUNCTION ZN,1875.00,375.1,0.564,3.007E-004,2.500E-004,0.285,0.000,0.000,0.224,0.000
 ZoneInfiltration Airflow Stats Nominal, RELIGIOUS BUILDING WORSHIP/PULPIT/CHOIR AREA-SPACE FUNCTION INFILTRATION,ALWAYS ON DISCRETE,RELIGIOUS BUILDING WORSHIP/PULPIT/CHOIR AREA-SPACE FUNCTION ZN,1875.00,375.1,9.500E-002,5.067E-005,2.500E-004,4.800E-002,0.000,0.000,0.224,0.000
 ZoneInfiltration Airflow Stats Nominal, RETAIL FACILITY DRESSING/FITTING ROOM-SPACE FUNCTION INFILTRATION,ALWAYS ON DISCRETE,RETAIL FACILITY DRESSING/FITTING ROOM-SPACE FUNCTION ZN,1875.00,62.5,9.500E-002,5.067E-005,2.500E-004,4.800E-002,0.000,0.000,0.224,0.000
 ZoneInfiltration Airflow Stats Nominal, SPACE DESIGNED TO ANSI/IES RP-28 CHAPEL (USED PRIMARILY BY RESIDENTS)-SPACE FUNCTION INFILTRATION,ALWAYS ON DISCRETE,SPACE DESIGNED TO ANSI/IES RP-28 CHAPEL (USED PRIMARILY BY RESIDENTS)-SPACE FUNCTION ZN,1875.00,187.6,0.564,3.007E-004,2.500E-004,0.285,0.000,0.000,0.224,0.000
 ZoneInfiltration Airflow Stats Nominal, SPACE DESIGNED TO ANSI/IES RP-28 RECREATION ROOM (USED PRIMARILY BY RESIDENTS)-SPACE FUNCTION INFILTRATION,ALWAYS ON DISCRETE,SPACE DESIGNED TO ANSI/IES RP-28 RECREATION ROOM (USED PRIMARILY BY RESIDENTS)-SPACE FUNCTION ZN,1875.00,93.8,9.500E-002,5.067E-005,2.500E-004,4.800E-002,0.000,0.000,0.224,0.000
 ZoneInfiltration Airflow Stats Nominal, SPORTS ARENA PLAYING AREA CLASS I FACILITY(4)-SPACE FUNCTION INFILTRATION,ALWAYS ON DISCRETE,SPORTS ARENA PLAYING AREA CLASS I FACILITY(4)-SPACE FUNCTION ZN,1875.00,375.1,9.500E-002,5.067E-005,2.500E-004,4.800E-002,0.000,0.000,0.224,0.000
 ZoneInfiltration Airflow Stats Nominal, SPORTS ARENA PLAYING AREA CLASS III FACILITY(4)-SPACE FUNCTION INFILTRATION,ALWAYS ON DISCRETE,SPORTS ARENA PLAYING AREA CLASS III FACILITY(4)-SPACE FUNCTION ZN,1875.00,375.1,0.564,3.007E-004,2.500E-004,0.285,0.000,0.000,0.224,0.000
 ZoneInfiltration Airflow Stats Nominal, TRANSPORTATION FACILITY AIRPORT CONCOURSE-SPACE FUNCTION INFILTRATION,ALWAYS ON DISCRETE,TRANSPORTATION FACILITY AIRPORT CONCOURSE-SPACE FUNCTION ZN,1875.00,93.8,9.500E-002,5.067E-005,2.500E-004,4.800E-002,0.000,0.000,0.224,0.000
 ZoneInfiltration Airflow Stats Nominal, WAREHOUSE STORAGE AREA SMALL HAND-CARRIED ITEMS(4)-SPACE FUNCTION INFILTRATION,ALWAYS ON DISCRETE,WAREHOUSE STORAGE AREA SMALL HAND-CARRIED ITEMS(4)-SPACE FUNCTION ZN,1875.00,37.5,0.564,3.007E-004,2.500E-004,0.285,0.000,0.000,0.224,0.000
 ZoneInfiltration Airflow Stats Nominal, WHOLEBUILDING-AUTOMOTIVE FACILITY 1 INFILTRATION,ALWAYS ON DISCRETE,WHOLEBUILDING-AUTOMOTIVE FACILITY 1 ZN,1875.00,93.8,9.500E-002,5.067E-005,2.500E-004,4.800E-002,0.000,0.000,0.224,0.000
 ZoneInfiltration Airflow Stats Nominal, WHOLEBUILDING-AUTOMOTIVE FACILITY 2 INFILTRATION,ALWAYS ON DISCRETE,WHOLEBUILDING-AUTOMOTIVE FACILITY 2 ZN,1875.00,93.8,9.500E-002,5.067E-005,2.500E-004,4.800E-002,0.000,0.000,0.224,0.000
! <AirFlow Model>, Simple
 AirFlow Model, Simple
! <RoomAir Model>, Zone Name, Mixing/Mundt/UCSDDV/UCSDCV/UCSDUFI/UCSDUFE/User Defined
RoomAir Model,MUSEUM RESTORATION ROOM-SPACE FUNCTION ZN,Mixing/Well-Stirred
RoomAir Model,POST OFFICE SORTING AREA-SPACE FUNCTION ZN,Mixing/Well-Stirred
RoomAir Model,RELIGIOUS BUILDING FELLOWSHIP HALL-SPACE FUNCTION ZN,Mixing/Well-Stirred
RoomAir Model,RELIGIOUS BUILDING WORSHIP/PULPIT/CHOIR AREA-SPACE FUNCTION ZN,Mixing/Well-Stirred
RoomAir Model,RETAIL FACILITY DRESSING/FITTING ROOM-SPACE FUNCTION ZN,Mixing/Well-Stirred
RoomAir Model,RETAIL FACILITY MALL CONCOURSE-SPACE FUNCTION ZN,Mixing/Well-Stirred
RoomAir Model,SPACE DESIGNED TO ANSI/IES RP-28 CHAPEL (USED PRIMARILY BY RESIDENTS)-SPACE FUNCTION ZN,Mixing/Well-Stirred
RoomAir Model,SPACE DESIGNED TO ANSI/IES RP-28 RECREATION ROOM (USED PRIMARILY BY RESIDENTS)-SPACE FUNCTION ZN,Mixing/Well-Stirred
RoomAir Model,SPORTS ARENA PLAYING AREA CLASS I FACILITY(4)-SPACE FUNCTION ZN,Mixing/Well-Stirred
RoomAir Model,SPORTS ARENA PLAYING AREA CLASS II FACILITY(4)-SPACE FUNCTION ZN,Mixing/Well-Stirred
RoomAir Model,SPORTS ARENA PLAYING AREA CLASS III FACILITY(4)-SPACE FUNCTION ZN,Mixing/Well-Stirred
RoomAir Model,SPORTS ARENA PLAYING AREA CLASS IV FACILITY(4)-SPACE FUNCTION ZN,Mixing/Well-Stirred
RoomAir Model,TRANSPORTATION FACILITY AIRPORT CONCOURSE-SPACE FUNCTION ZN,Mixing/Well-Stirred
RoomAir Model,TRANSPORTATION FACILITY BAGGAGE/CAROUSEL AREA-SPACE FUNCTION ZN,Mixing/Well-Stirred
RoomAir Model,TRANSPORTATION FACILITY TERMINAL TICKET COUNTER-SPACE FUNCTION ZN,Mixing/Well-Stirred
RoomAir Model,WAREHOUSE STORAGE AREA MEDIUM TO BULKY PALLETIZED ITEMS-SPACE FUNCTION ZN,Mixing/Well-Stirred
RoomAir Model,WAREHOUSE STORAGE AREA SMALL HAND-CARRIED ITEMS(4)-SPACE FUNCTION ZN,Mixing/Well-Stirred
RoomAir Model,WHOLEBUILDING-AUTOMOTIVE FACILITY 1 ZN,Mixing/Well-Stirred
RoomAir Model,WHOLEBUILDING-AUTOMOTIVE FACILITY 2 ZN,Mixing/Well-Stirred
RoomAir Model,WHOLEBUILDING-AUTOMOTIVE FACILITY ZN,Mixing/Well-Stirred
! <AirflowNetwork Model:Control>, No Multizone or Distribution/Multizone with Distribution/Multizone without Distribution/Multizone with Distribution only during Fan Operation
AirflowNetwork Model:Control,NoMultizoneOrDistribution
! <Zone Volume Capacitance Multiplier>, Sensible Heat Capacity Multiplier, Moisture Capacity Multiplier, Carbon Dioxide Capacity Multiplier, Generic Contaminant Capacity Multiplier
Zone Volume Capacitance Multiplier,   1.000 ,   1.000,   1.000,   1.000
! <Load Timesteps in Zone Design Calculation Averaging Window>, Value
 Load Timesteps in Zone Design Calculation Averaging Window,    6
! <Heating Sizing Factor Information>, Sizing Factor ID, Value
 Heating Sizing Factor Information, Global,   1.2500    
 Heating Sizing Factor Information, Zone MUSEUM RESTORATION ROOM-SPACE FUNCTION ZN,   1.2500    
 Heating Sizing Factor Information, Zone POST OFFICE SORTING AREA-SPACE FUNCTION ZN,   1.2500    
 Heating Sizing Factor Information, Zone RELIGIOUS BUILDING FELLOWSHIP HALL-SPACE FUNCTION ZN,   1.2500    
 Heating Sizing Factor Information, Zone RELIGIOUS BUILDING WORSHIP/PULPIT/CHOIR AREA-SPACE FUNCTION ZN,   1.2500    
 Heating Sizing Factor Information, Zone RETAIL FACILITY DRESSING/FITTING ROOM-SPACE FUNCTION ZN,   1.2500    
 Heating Sizing Factor Information, Zone RETAIL FACILITY MALL CONCOURSE-SPACE FUNCTION ZN,   1.2500    
 Heating Sizing Factor Information, Zone SPACE DESIGNED TO ANSI/IES RP-28 CHAPEL (USED PRIMARILY BY RESIDENTS)-SPACE FUNCTION ZN,   1.2500    
 Heating Sizing Factor Information, Zone SPACE DESIGNED TO ANSI/IES RP-28 RECREATION ROOM (USED PRIMARILY BY RESIDENTS)-SPACE FUNCTION ZN,   1.2500    
 Heating Sizing Factor Information, Zone SPORTS ARENA PLAYING AREA CLASS I FACILITY(4)-SPACE FUNCTION ZN,   1.2500    
 Heating Sizing Factor Information, Zone SPORTS ARENA PLAYING AREA CLASS II FACILITY(4)-SPACE FUNCTION ZN,   1.2500    
 Heating Sizing Factor Information, Zone SPORTS ARENA PLAYING AREA CLASS III FACILITY(4)-SPACE FUNCTION ZN,   1.2500    
 Heating Sizing Factor Information, Zone SPORTS ARENA PLAYING AREA CLASS IV FACILITY(4)-SPACE FUNCTION ZN,   1.2500    
 Heating Sizing Factor Information, Zone TRANSPORTATION FACILITY AIRPORT CONCOURSE-SPACE FUNCTION ZN,   1.2500    
 Heating Sizing Factor Information, Zone TRANSPORTATION FACILITY BAGGAGE/CAROUSEL AREA-SPACE FUNCTION ZN,   1.2500    
 Heating Sizing Factor Information, Zone TRANSPORTATION FACILITY TERMINAL TICKET COUNTER-SPACE FUNCTION ZN,   1.2500    
 Heating Sizing Factor Information, Zone WAREHOUSE STORAGE AREA MEDIUM TO BULKY PALLETIZED ITEMS-SPACE FUNCTION ZN,   1.2500    
 Heating Sizing Factor Information, Zone WAREHOUSE STORAGE AREA SMALL HAND-CARRIED ITEMS(4)-SPACE FUNCTION ZN,   1.2500    
 Heating Sizing Factor Information, Zone WHOLEBUILDING-AUTOMOTIVE FACILITY 1 ZN,   1.2500    
 Heating Sizing Factor Information, Zone WHOLEBUILDING-AUTOMOTIVE FACILITY 2 ZN,   1.2500    
 Heating Sizing Factor Information, Zone WHOLEBUILDING-AUTOMOTIVE FACILITY ZN,   1.2500    
! <Cooling Sizing Factor Information>, Sizing Factor ID, Value
 Cooling Sizing Factor Information, Global,   1.1500    
 Cooling Sizing Factor Information, Zone MUSEUM RESTORATION ROOM-SPACE FUNCTION ZN,   1.1500    
 Cooling Sizing Factor Information, Zone POST OFFICE SORTING AREA-SPACE FUNCTION ZN,   1.1500    
 Cooling Sizing Factor Information, Zone RELIGIOUS BUILDING FELLOWSHIP HALL-SPACE FUNCTION ZN,   1.1500    
 Cooling Sizing Factor Information, Zone RELIGIOUS BUILDING WORSHIP/PULPIT/CHOIR AREA-SPACE FUNCTION ZN,   1.1500    
 Cooling Sizing Factor Information, Zone RETAIL FACILITY DRESSING/FITTING ROOM-SPACE FUNCTION ZN,   1.1500    
 Cooling Sizing Factor Information, Zone RETAIL FACILITY MALL CONCOURSE-SPACE FUNCTION ZN,   1.1500    
 Cooling Sizing Factor Information, Zone SPACE DESIGNED TO ANSI/IES RP-28 CHAPEL (USED PRIMARILY BY RESIDENTS)-SPACE FUNCTION ZN,   1.1500    
 Cooling Sizing Factor Information, Zone SPACE DESIGNED TO ANSI/IES RP-28 RECREATION ROOM (USED PRIMARILY BY RESIDENTS)-SPACE FUNCTION ZN,   1.1500    
 Cooling Sizing Factor Information, Zone SPORTS ARENA PLAYING AREA CLASS I FACILITY(4)-SPACE FUNCTION ZN,   1.1500    
 Cooling Sizing Factor Information, Zone SPORTS ARENA PLAYING AREA CLASS II FACILITY(4)-SPACE FUNCTION ZN,   1.1500    
 Cooling Sizing Factor Information, Zone SPORTS ARENA PLAYING AREA CLASS III FACILITY(4)-SPACE FUNCTION ZN,   1.1500    
 Cooling Sizing Factor Information, Zone SPORTS ARENA PLAYING AREA CLASS IV FACILITY(4)-SPACE FUNCTION ZN,   1.1500    
 Cooling Sizing Factor Information, Zone TRANSPORTATION FACILITY AIRPORT CONCOURSE-SPACE FUNCTION ZN,   1.1500    
 Cooling Sizing Factor Information, Zone TRANSPORTATION FACILITY BAGGAGE/CAROUSEL AREA-SPACE FUNCTION ZN,   1.1500    
 Cooling Sizing Factor Information, Zone TRANSPORTATION FACILITY TERMINAL TICKET COUNTER-SPACE FUNCTION ZN,   1.1500    
 Cooling Sizing Factor Information, Zone WAREHOUSE STORAGE AREA MEDIUM TO BULKY PALLETIZED ITEMS-SPACE FUNCTION ZN,   1.1500    
 Cooling Sizing Factor Information, Zone WAREHOUSE STORAGE AREA SMALL HAND-CARRIED ITEMS(4)-SPACE FUNCTION ZN,   1.1500    
 Cooling Sizing Factor Information, Zone WHOLEBUILDING-AUTOMOTIVE FACILITY 1 ZN,   1.1500    
 Cooling Sizing Factor Information, Zone WHOLEBUILDING-AUTOMOTIVE FACILITY 2 ZN,   1.1500    
 Cooling Sizing Factor Information, Zone WHOLEBUILDING-AUTOMOTIVE FACILITY ZN,   1.1500    
! <Zone Sizing Information>, Zone Name, Load Type, Calc Des Load {W}, User Des Load {W}, Calc Des Air Flow Rate {m3/s}, User Des Air Flow Rate {m3/s}, Design Day Name, Date/Time of Peak, Temperature at Peak {C}, Humidity Ratio at Peak {kgWater/kgDryAir}, Floor Area {m2}, # Occupants, Calc Outdoor Air Flow Rate {m3/s}, Calc DOAS Heat Addition Rate {W}
 Zone Sizing Information, MUSEUM RESTORATION ROOM-SPACE FUNCTION ZN, Cooling, 64185.22334, 73813.00684, 5.45669, 6.27520, FORT MCMURRAY AP ANN CLG .4% CONDNS DB=>MWB, 7/21 15:00:00, 28.90000, 8.76969E-003, 2500.00000, 125.04543, 2.15900, 0.00000
 Zone Sizing Information, MUSEUM RESTORATION ROOM-SPACE FUNCTION ZN, Heating, 29567.20908, 36959.01136, 1.34307, 2.15900, FORT MCMURRAY AP ANN HTG 99.6% CONDNS DB, 1/21 08:00:00, -36.20000, 1.25811E-004, 2500.00000, 125.04543, 2.15900, 0.00000
 Zone Sizing Information, POST OFFICE SORTING AREA-SPACE FUNCTION ZN, Cooling, 36760.47035, 42274.54090, 3.12538, 3.59418, FORT MCMURRAY AP ANN CLG .4% CONDNS DB=>MWB, 7/21 16:50:00, 27.32933, 8.76969E-003, 1875.00000, 93.78407, 1.64783, 0.00000
 Zone Sizing Information, POST OFFICE SORTING AREA-SPACE FUNCTION ZN, Heating, 11891.26080, 14864.07600, 0.54592, 1.64783, FORT MCMURRAY AP ANN HTG 99.6% CONDNS DB, 1/21 08:00:00, -36.20000, 1.25811E-004, 1875.00000, 93.78407, 1.64783, 0.00000
 Zone Sizing Information, RELIGIOUS BUILDING FELLOWSHIP HALL-SPACE FUNCTION ZN, Cooling, 73578.82017, 84615.64320, 6.25689, 7.19543, FORT MCMURRAY AP ANN CLG .4% CONDNS DB=>MWB, 7/21 13:30:00, 28.59000, 8.76969E-003, 1875.00000, 375.13628, 6.28650, 0.00000
 Zone Sizing Information, RELIGIOUS BUILDING FELLOWSHIP HALL-SPACE FUNCTION ZN, Heating, 39991.55349, 49989.44187, 1.84846, 6.28650, FORT MCMURRAY AP ANN HTG 99.6% CONDNS DB, 1/21 09:00:00, -36.20000, 1.25811E-004, 1875.00000, 375.13628, 6.28650, 0.00000
 Zone Sizing Information, RELIGIOUS BUILDING WORSHIP/PULPIT/CHOIR AREA-SPACE FUNCTION ZN, Cooling, 52383.38925, 60240.89763, 3.91558, 6.28650, FORT MCMURRAY AP ANN CLG .4% CONDNS DB=>MWB, 7/21 15:00:00, 28.90000, 8.76969E-003, 1875.00000, 375.13628, 6.28650, 0.00000
 Zone Sizing Information, RELIGIOUS BUILDING WORSHIP/PULPIT/CHOIR AREA-SPACE FUNCTION ZN, Heating, 15690.52075, 19613.15094, 0.70160, 6.28650, FORT MCMURRAY AP ANN HTG 99.6% CONDNS DB, 1/21 16:00:00, -36.20000, 1.25811E-004, 1875.00000, 375.13628, 6.28650, 0.00000
 Zone Sizing Information, RETAIL FACILITY DRESSING/FITTING ROOM-SPACE FUNCTION ZN, Cooling, 45487.52217, 52310.65049, 3.86717, 4.44725, FORT MCMURRAY AP ANN CLG .4% CONDNS DB=>MWB, 7/21 18:00:00, 25.92400, 8.76969E-003, 1875.00000, 62.52271, 2.21933, 0.00000
 Zone Sizing Information, RETAIL FACILITY DRESSING/FITTING ROOM-SPACE FUNCTION ZN, Heating, 25392.93786, 31741.17233, 1.15969, 2.21933, FORT MCMURRAY AP ANN HTG 99.6% CONDNS DB, 1/21 09:00:00, -36.20000, 1.25811E-004, 1875.00000, 62.52271, 2.21933, 0.00000
 Zone Sizing Information, RETAIL FACILITY MALL CONCOURSE-SPACE FUNCTION ZN, Cooling, 21511.29524, 24737.98952, 1.82886, 3.42900, FORT MCMURRAY AP ANN CLG .4% CONDNS DB=>MWB, 7/21 17:00:00, 27.16400, 8.76969E-003, 1875.00000, 93.78407, 3.42900, 0.00000
 Zone Sizing Information, RETAIL FACILITY MALL CONCOURSE-SPACE FUNCTION ZN, Heating, 0.00000, 0.00000, 0.00000, 3.42900, FORT MCMURRAY AP ANN HTG 99.6% CONDNS DB, , -36.20000, 1.25811E-004, 1875.00000, 93.78407, 3.42900, 0.00000
 Zone Sizing Information, SPACE DESIGNED TO ANSI/IES RP-28 CHAPEL (USED PRIMARILY BY RESIDENTS)-SPACE FUNCTION ZN, Cooling, 77713.22973, 89370.21419, 5.57656, 6.41304, FORT MCMURRAY AP ANN CLG .4% CONDNS DB=>MWB, 7/21 15:00:00, 28.90000, 8.76969E-003, 1875.00000, 187.56814, 6.28650, 0.00000
 Zone Sizing Information, SPACE DESIGNED TO ANSI/IES RP-28 CHAPEL (USED PRIMARILY BY RESIDENTS)-SPACE FUNCTION ZN, Heating, 39499.06941, 49373.83676, 1.82459, 6.28650, FORT MCMURRAY AP ANN HTG 99.6% CONDNS DB, 1/21 16:00:00, -36.20000, 1.25811E-004, 1875.00000, 187.56814, 6.28650, 0.00000
 Zone Sizing Information, SPACE DESIGNED TO ANSI/IES RP-28 RECREATION ROOM (USED PRIMARILY BY RESIDENTS)-SPACE FUNCTION ZN, Cooling, 38424.48733, 44188.16043, 3.26667, 6.85800, FORT MCMURRAY AP ANN CLG .4% CONDNS DB=>MWB, 7/21 20:20:00, 22.32800, 8.76969E-003, 1875.00000, 93.78407, 6.85800, 0.00000
 Zone Sizing Information, SPACE DESIGNED TO ANSI/IES RP-28 RECREATION ROOM (USED PRIMARILY BY RESIDENTS)-SPACE FUNCTION ZN, Heating, 0.00000, 0.00000, 0.00000, 6.85800, FORT MCMURRAY AP ANN HTG 99.6% CONDNS DB, , -36.20000, 1.25811E-004, 1875.00000, 93.78407, 6.85800, 0.00000
 Zone Sizing Information, SPORTS ARENA PLAYING AREA CLASS I FACILITY(4)-SPACE FUNCTION ZN, Cooling, 63530.97416, 73060.62029, 5.40250, 6.21288, FORT MCMURRAY AP ANN CLG .4% CONDNS DB=>MWB, 7/21 13:00:00, 28.28000, 8.76969E-003, 1875.00000, 375.13628, 2.85750, 0.00000
 Zone Sizing Information, SPORTS ARENA PLAYING AREA CLASS I FACILITY(4)-SPACE FUNCTION ZN, Heating, 0.00000, 0.00000, 0.00000, 2.85750, FORT MCMURRAY AP ANN HTG 99.6% CONDNS DB, , -36.20000, 1.25811E-004, 1875.00000, 375.13628, 2.85750, 0.00000
 Zone Sizing Information, SPORTS ARENA PLAYING AREA CLASS II FACILITY(4)-SPACE FUNCTION ZN, Cooling, 65438.76969, 75254.58515, 5.56427, 6.39891, FORT MCMURRAY AP ANN CLG .4% CONDNS DB=>MWB, 7/21 22:00:00, 20.46800, 8.76969E-003, 2500.00000, 500.18171, 3.81000, 0.00000
 Zone Sizing Information, SPORTS ARENA PLAYING AREA CLASS II FACILITY(4)-SPACE FUNCTION ZN, Heating, 0.00000, 0.00000, 0.00000, 3.81000, FORT MCMURRAY AP ANN HTG 99.6% CONDNS DB, , -36.20000, 1.25811E-004, 2500.00000, 500.18171, 3.81000, 0.00000
 Zone Sizing Information, SPORTS ARENA PLAYING AREA CLASS III FACILITY(4)-SPACE FUNCTION ZN, Cooling, 78946.66028, 90788.65932, 6.71335, 7.72035, FORT MCMURRAY AP ANN CLG .4% CONDNS DB=>MWB, 7/21 13:00:00, 28.28000, 8.76969E-003, 1875.00000, 375.13628, 2.85750, 0.00000
 Zone Sizing Information, SPORTS ARENA PLAYING AREA CLASS III FACILITY(4)-SPACE FUNCTION ZN, Heating, 29035.42727, 36294.28408, 1.20153, 2.85750, FORT MCMURRAY AP ANN HTG 99.6% CONDNS DB, 1/21 09:00:00, -36.20000, 1.25811E-004, 1875.00000, 375.13628, 2.85750, 0.00000
 Zone Sizing Information, SPORTS ARENA PLAYING AREA CLASS IV FACILITY(4)-SPACE FUNCTION ZN, Cooling, 39843.80817, 45820.37939, 3.38792, 3.89611, FORT MCMURRAY AP ANN CLG .4% CONDNS DB=>MWB, 7/21 22:00:00, 20.46800, 8.76969E-003, 1875.00000, 375.13628, 2.85750, 0.00000
 Zone Sizing Information, SPORTS ARENA PLAYING AREA CLASS IV FACILITY(4)-SPACE FUNCTION ZN, Heating, 0.00000, 0.00000, 0.00000, 2.85750, FORT MCMURRAY AP ANN HTG 99.6% CONDNS DB, , -36.20000, 1.25811E-004, 1875.00000, 375.13628, 2.85750, 0.00000
 Zone Sizing Information, TRANSPORTATION FACILITY AIRPORT CONCOURSE-SPACE FUNCTION ZN, Cooling, 40673.74382, 46774.80540, 3.45810, 7.71525, FORT MCMURRAY AP ANN CLG .4% CONDNS DB=>MWB, 7/21 09:30:00, 23.13400, 8.76969E-003, 1875.00000, 93.78407, 7.71525, 0.00000
 Zone Sizing Information, TRANSPORTATION FACILITY AIRPORT CONCOURSE-SPACE FUNCTION ZN, Heating, 0.00000, 0.00000, 0.00000, 7.71525, FORT MCMURRAY AP ANN HTG 99.6% CONDNS DB, , -36.20000, 1.25811E-004, 1875.00000, 93.78407, 7.71525, 0.00000
 Zone Sizing Information, TRANSPORTATION FACILITY BAGGAGE/CAROUSEL AREA-SPACE FUNCTION ZN, Cooling, 22045.04549, 25351.80231, 1.87428, 2.15543, FORT MCMURRAY AP ANN CLG .4% CONDNS DB=>MWB, 7/21 11:50:00, 27.08133, 8.76969E-003, 1875.00000, 93.78407, 1.64783, 0.00000
 Zone Sizing Information, TRANSPORTATION FACILITY BAGGAGE/CAROUSEL AREA-SPACE FUNCTION ZN, Heating, 0.00000, 0.00000, 0.00000, 1.64783, FORT MCMURRAY AP ANN HTG 99.6% CONDNS DB, , -36.20000, 1.25811E-004, 1875.00000, 93.78407, 1.64783, 0.00000
 Zone Sizing Information, TRANSPORTATION FACILITY TERMINAL TICKET COUNTER-SPACE FUNCTION ZN, Cooling, 43771.22587, 50336.90975, 3.72188, 4.28016, FORT MCMURRAY AP ANN CLG .4% CONDNS DB=>MWB, 7/21 18:00:00, 25.92400, 8.76969E-003, 2500.00000, 250.09086, 2.19710, 0.00000
 Zone Sizing Information, TRANSPORTATION FACILITY TERMINAL TICKET COUNTER-SPACE FUNCTION ZN, Heating, 0.00000, 0.00000, 0.00000, 2.19710, FORT MCMURRAY AP ANN HTG 99.6% CONDNS DB, , -36.20000, 1.25811E-004, 2500.00000, 250.09086, 2.19710, 0.00000
 Zone Sizing Information, WAREHOUSE STORAGE AREA MEDIUM TO BULKY PALLETIZED ITEMS-SPACE FUNCTION ZN, Cooling, 21823.42851, 25096.94278, 1.72251, 1.98088, FORT MCMURRAY AP ANN CLG .4% CONDNS DB=>MWB, 7/21 07:00:00, 17.61600, 8.76969E-003, 2500.00000, 25.00909, 0.76200, 0.00000
 Zone Sizing Information, WAREHOUSE STORAGE AREA MEDIUM TO BULKY PALLETIZED ITEMS-SPACE FUNCTION ZN, Heating, 0.00000, 0.00000, 0.00000, 0.76200, FORT MCMURRAY AP ANN HTG 99.6% CONDNS DB, , -36.20000, 1.25811E-004, 2500.00000, 25.00909, 0.76200, 0.00000
 Zone Sizing Information, WAREHOUSE STORAGE AREA SMALL HAND-CARRIED ITEMS(4)-SPACE FUNCTION ZN, Cooling, 42371.64525, 48727.39204, 3.60211, 4.14242, FORT MCMURRAY AP ANN CLG .4% CONDNS DB=>MWB, 7/21 14:30:00, 28.90000, 8.76969E-003, 1875.00000, 37.51363, 0.57150, 0.00000
 Zone Sizing Information, WAREHOUSE STORAGE AREA SMALL HAND-CARRIED ITEMS(4)-SPACE FUNCTION ZN, Heating, 41969.24899, 52461.56123, 1.94192, 2.42740, FORT MCMURRAY AP ANN HTG 99.6% CONDNS DB, 1/21 08:00:00, -36.20000, 1.25811E-004, 1875.00000, 37.51363, 0.57150, 0.00000
 Zone Sizing Information, WHOLEBUILDING-AUTOMOTIVE FACILITY 1 ZN, Cooling, 44748.27655, 51460.51803, 3.80447, 4.37514, FORT MCMURRAY AP ANN CLG .4% CONDNS DB=>MWB, 7/21 18:00:00, 25.92400, 8.76969E-003, 1875.00000, 93.78407, 2.15265, 0.00000
 Zone Sizing Information, WHOLEBUILDING-AUTOMOTIVE FACILITY 1 ZN, Heating, 11751.61263, 14689.51579, 0.53014, 2.15265, FORT MCMURRAY AP ANN HTG 99.6% CONDNS DB, 1/21 09:00:00, -36.20000, 1.25811E-004, 1875.00000, 93.78407, 2.15265, 0.00000
 Zone Sizing Information, WHOLEBUILDING-AUTOMOTIVE FACILITY 2 ZN, Cooling, 41508.17352, 47734.39955, 3.52904, 4.05839, FORT MCMURRAY AP ANN CLG .4% CONDNS DB=>MWB, 7/21 13:50:00, 28.79667, 8.76969E-003, 1875.00000, 93.78407, 2.15265, 0.00000
 Zone Sizing Information, WHOLEBUILDING-AUTOMOTIVE FACILITY 2 ZN, Heating, 7977.37500, 9971.71875, 0.36235, 2.15265, FORT MCMURRAY AP ANN HTG 99.6% CONDNS DB, 1/21 09:00:00, -36.20000, 1.25811E-004, 1875.00000, 93.78407, 2.15265, 0.00000
 Zone Sizing Information, WHOLEBUILDING-AUTOMOTIVE FACILITY ZN, Cooling, 25000.19404, 28750.22314, 2.12549, 2.44431, FORT MCMURRAY AP ANN CLG .4% CONDNS DB=>MWB, 7/21 16:00:00, 28.15600, 8.76969E-003, 1875.00000, 93.78407, 2.15265, 0.00000
 Zone Sizing Information, WHOLEBUILDING-AUTOMOTIVE FACILITY ZN, Heating, 0.00000, 0.00000, 0.00000, 2.15265, FORT MCMURRAY AP ANN HTG 99.6% CONDNS DB, , -36.20000, 1.25811E-004, 1875.00000, 93.78407, 2.15265, 0.00000
! <Component Sizing Information>, Component Type, Component Name, Input Field Description, Value
 Component Sizing Information, ZoneHVAC:IdealLoadsAirSystem, ZONE HVAC IDEAL LOADS AIR SYSTEM 1, User-Specified Maximum Heating Air Flow Rate [m3/s], 0.00000
 Component Sizing Information, ZoneHVAC:IdealLoadsAirSystem, ZONE HVAC IDEAL LOADS AIR SYSTEM 1, User-Specified Maximum Cooling Air Flow Rate [m3/s], 0.00000
 Component Sizing Information, ZoneHVAC:IdealLoadsAirSystem, ZONE HVAC IDEAL LOADS AIR SYSTEM 2, User-Specified Maximum Heating Air Flow Rate [m3/s], 0.00000
 Component Sizing Information, ZoneHVAC:IdealLoadsAirSystem, ZONE HVAC IDEAL LOADS AIR SYSTEM 2, User-Specified Maximum Cooling Air Flow Rate [m3/s], 0.00000
 Component Sizing Information, ZoneHVAC:IdealLoadsAirSystem, ZONE HVAC IDEAL LOADS AIR SYSTEM 3, User-Specified Maximum Heating Air Flow Rate [m3/s], 0.00000
 Component Sizing Information, ZoneHVAC:IdealLoadsAirSystem, ZONE HVAC IDEAL LOADS AIR SYSTEM 3, User-Specified Maximum Cooling Air Flow Rate [m3/s], 0.00000
 Component Sizing Information, ZoneHVAC:IdealLoadsAirSystem, ZONE HVAC IDEAL LOADS AIR SYSTEM 4, User-Specified Maximum Heating Air Flow Rate [m3/s], 0.00000
 Component Sizing Information, ZoneHVAC:IdealLoadsAirSystem, ZONE HVAC IDEAL LOADS AIR SYSTEM 4, User-Specified Maximum Cooling Air Flow Rate [m3/s], 0.00000
 Component Sizing Information, ZoneHVAC:IdealLoadsAirSystem, ZONE HVAC IDEAL LOADS AIR SYSTEM 5, User-Specified Maximum Heating Air Flow Rate [m3/s], 0.00000
 Component Sizing Information, ZoneHVAC:IdealLoadsAirSystem, ZONE HVAC IDEAL LOADS AIR SYSTEM 5, User-Specified Maximum Cooling Air Flow Rate [m3/s], 0.00000
 Component Sizing Information, ZoneHVAC:IdealLoadsAirSystem, ZONE HVAC IDEAL LOADS AIR SYSTEM 6, User-Specified Maximum Heating Air Flow Rate [m3/s], 0.00000
 Component Sizing Information, ZoneHVAC:IdealLoadsAirSystem, ZONE HVAC IDEAL LOADS AIR SYSTEM 6, User-Specified Maximum Cooling Air Flow Rate [m3/s], 0.00000
 Component Sizing Information, ZoneHVAC:IdealLoadsAirSystem, ZONE HVAC IDEAL LOADS AIR SYSTEM 7, User-Specified Maximum Heating Air Flow Rate [m3/s], 0.00000
 Component Sizing Information, ZoneHVAC:IdealLoadsAirSystem, ZONE HVAC IDEAL LOADS AIR SYSTEM 7, User-Specified Maximum Cooling Air Flow Rate [m3/s], 0.00000
 Component Sizing Information, ZoneHVAC:IdealLoadsAirSystem, ZONE HVAC IDEAL LOADS AIR SYSTEM 8, User-Specified Maximum Heating Air Flow Rate [m3/s], 0.00000
 Component Sizing Information, ZoneHVAC:IdealLoadsAirSystem, ZONE HVAC IDEAL LOADS AIR SYSTEM 8, User-Specified Maximum Cooling Air Flow Rate [m3/s], 0.00000
 Component Sizing Information, ZoneHVAC:IdealLoadsAirSystem, ZONE HVAC IDEAL LOADS AIR SYSTEM 9, User-Specified Maximum Heating Air Flow Rate [m3/s], 0.00000
 Component Sizing Information, ZoneHVAC:IdealLoadsAirSystem, ZONE HVAC IDEAL LOADS AIR SYSTEM 9, User-Specified Maximum Cooling Air Flow Rate [m3/s], 0.00000
 Component Sizing Information, ZoneHVAC:IdealLoadsAirSystem, ZONE HVAC IDEAL LOADS AIR SYSTEM 10, User-Specified Maximum Heating Air Flow Rate [m3/s], 0.00000
 Component Sizing Information, ZoneHVAC:IdealLoadsAirSystem, ZONE HVAC IDEAL LOADS AIR SYSTEM 10, User-Specified Maximum Cooling Air Flow Rate [m3/s], 0.00000
 Component Sizing Information, ZoneHVAC:IdealLoadsAirSystem, ZONE HVAC IDEAL LOADS AIR SYSTEM 11, User-Specified Maximum Heating Air Flow Rate [m3/s], 0.00000
 Component Sizing Information, ZoneHVAC:IdealLoadsAirSystem, ZONE HVAC IDEAL LOADS AIR SYSTEM 11, User-Specified Maximum Cooling Air Flow Rate [m3/s], 0.00000
 Component Sizing Information, ZoneHVAC:IdealLoadsAirSystem, ZONE HVAC IDEAL LOADS AIR SYSTEM 12, User-Specified Maximum Heating Air Flow Rate [m3/s], 0.00000
 Component Sizing Information, ZoneHVAC:IdealLoadsAirSystem, ZONE HVAC IDEAL LOADS AIR SYSTEM 12, User-Specified Maximum Cooling Air Flow Rate [m3/s], 0.00000
 Component Sizing Information, ZoneHVAC:IdealLoadsAirSystem, ZONE HVAC IDEAL LOADS AIR SYSTEM 13, User-Specified Maximum Heating Air Flow Rate [m3/s], 0.00000
 Component Sizing Information, ZoneHVAC:IdealLoadsAirSystem, ZONE HVAC IDEAL LOADS AIR SYSTEM 13, User-Specified Maximum Cooling Air Flow Rate [m3/s], 0.00000
 Component Sizing Information, ZoneHVAC:IdealLoadsAirSystem, ZONE HVAC IDEAL LOADS AIR SYSTEM 14, User-Specified Maximum Heating Air Flow Rate [m3/s], 0.00000
 Component Sizing Information, ZoneHVAC:IdealLoadsAirSystem, ZONE HVAC IDEAL LOADS AIR SYSTEM 14, User-Specified Maximum Cooling Air Flow Rate [m3/s], 0.00000
 Component Sizing Information, ZoneHVAC:IdealLoadsAirSystem, ZONE HVAC IDEAL LOADS AIR SYSTEM 15, User-Specified Maximum Heating Air Flow Rate [m3/s], 0.00000
 Component Sizing Information, ZoneHVAC:IdealLoadsAirSystem, ZONE HVAC IDEAL LOADS AIR SYSTEM 15, User-Specified Maximum Cooling Air Flow Rate [m3/s], 0.00000
 Component Sizing Information, ZoneHVAC:IdealLoadsAirSystem, ZONE HVAC IDEAL LOADS AIR SYSTEM 16, User-Specified Maximum Heating Air Flow Rate [m3/s], 0.00000
 Component Sizing Information, ZoneHVAC:IdealLoadsAirSystem, ZONE HVAC IDEAL LOADS AIR SYSTEM 16, User-Specified Maximum Cooling Air Flow Rate [m3/s], 0.00000
 Component Sizing Information, ZoneHVAC:IdealLoadsAirSystem, ZONE HVAC IDEAL LOADS AIR SYSTEM 17, User-Specified Maximum Heating Air Flow Rate [m3/s], 0.00000
 Component Sizing Information, ZoneHVAC:IdealLoadsAirSystem, ZONE HVAC IDEAL LOADS AIR SYSTEM 17, User-Specified Maximum Cooling Air Flow Rate [m3/s], 0.00000
 Component Sizing Information, ZoneHVAC:IdealLoadsAirSystem, ZONE HVAC IDEAL LOADS AIR SYSTEM 19, User-Specified Maximum Heating Air Flow Rate [m3/s], 0.00000
 Component Sizing Information, ZoneHVAC:IdealLoadsAirSystem, ZONE HVAC IDEAL LOADS AIR SYSTEM 19, User-Specified Maximum Cooling Air Flow Rate [m3/s], 0.00000
 Component Sizing Information, ZoneHVAC:IdealLoadsAirSystem, ZONE HVAC IDEAL LOADS AIR SYSTEM 20, User-Specified Maximum Heating Air Flow Rate [m3/s], 0.00000
 Component Sizing Information, ZoneHVAC:IdealLoadsAirSystem, ZONE HVAC IDEAL LOADS AIR SYSTEM 20, User-Specified Maximum Cooling Air Flow Rate [m3/s], 0.00000
 Component Sizing Information, ZoneHVAC:IdealLoadsAirSystem, ZONE HVAC IDEAL LOADS AIR SYSTEM 18, User-Specified Maximum Heating Air Flow Rate [m3/s], 0.00000
 Component Sizing Information, ZoneHVAC:IdealLoadsAirSystem, ZONE HVAC IDEAL LOADS AIR SYSTEM 18, User-Specified Maximum Cooling Air Flow Rate [m3/s], 0.00000
! <Environment>,Environment Name,Environment Type, Start Date, End Date, Start DayOfWeek, Duration {#days}, Source:Start DayOfWeek,  Use Daylight Saving, Use Holidays, Apply Weekend Holiday Rule,  Use Rain Values, Use Snow Values
! <Environment:Special Days>, Special Day Name, Special Day Type, Source, Start Date, Duration {#days}
! <Environment:Daylight Saving>, Daylight Saving Indicator, Source, Start Date, End Date
! <Environment:WarmupDays>, NumberofWarmupDays
Environment,FORT MCMURRAY AP ANN CLG .4% CONDNS DB=>MWB,SizingPeriod:DesignDay,07/21,07/21,SummerDesignDay,1,N/A,N/A,N/A,N/A,N/A,N/A
Environment:Daylight Saving,No,SizingPeriod:DesignDay
! <Environment:Design Day Data>, Max Dry-Bulb Temp {C}, Temp Range {dC}, Temp Range Ind Type, Hum Ind Value at Max Temp, Hum Ind Type,Pressure {Pa}, Wind Direction {deg CW from N}, Wind Speed {m/s}, Clearness, Rain, Snow
! <Environment:Design Day Misc>,DayOfYear,ASHRAE A Coeff,ASHRAE B Coeff,ASHRAE C Coeff,Solar Constant-Annual Variation,Eq of Time {minutes}, Solar Declination Angle {deg}, Solar Model
Environment:Design Day Data,28.90,12.40,DefaultMultipliers,96969,250,3.7,0.00,No,No
Environment:Design Day Misc,202,1084.4,0.2082,0.1365,1.0,-6.23,20.6,ASHRAETau
Environment:WarmupDays,  6
! <Tabular Report>,Style,Unit Conversion
Tabular Report,HTML,None
! <Warmup Convergence Information>,Zone Name,Environment Type/Name,Average Warmup Temperature Difference {deltaC},Std Dev Warmup Temperature Difference {deltaC},Max Temperature Pass/Fail Convergence,Min Temperature Pass/Fail Convergence,Average Warmup Load Difference {W},Std Dev Warmup Load Difference {W},Heating Load Pass/Fail Convergence,Cooling Load Pass/Fail Convergence
 Warmup Convergence Information,MUSEUM RESTORATION ROOM-SPACE FUNCTION ZN,SizingPeriod: FORT MCMURRAY AP ANN CLG .4% CONDNS DB=>MWB,3.3669893757E-002,5.4258190018E-002,Pass,Pass,3.3208867436E-002,0.1018931472,Pass,Pass
 Warmup Convergence Information,POST OFFICE SORTING AREA-SPACE FUNCTION ZN,SizingPeriod: FORT MCMURRAY AP ANN CLG .4% CONDNS DB=>MWB,2.3630252673E-002,5.1861213923E-002,Pass,Pass,3.2866968699E-002,0.1479419826,Pass,Pass
 Warmup Convergence Information,RELIGIOUS BUILDING FELLOWSHIP HALL-SPACE FUNCTION ZN,SizingPeriod: FORT MCMURRAY AP ANN CLG .4% CONDNS DB=>MWB,6.7416914722E-002,0.1195091560,Pass,Pass,3.3585340714E-002,6.5775352267E-002,Pass,Pass
 Warmup Convergence Information,RELIGIOUS BUILDING WORSHIP/PULPIT/CHOIR AREA-SPACE FUNCTION ZN,SizingPeriod: FORT MCMURRAY AP ANN CLG .4% CONDNS DB=>MWB,0.1084046182,0.3452450001,Pass,Pass,1.3158157155,14.7010918476,Pass,Pass
 Warmup Convergence Information,RETAIL FACILITY DRESSING/FITTING ROOM-SPACE FUNCTION ZN,SizingPeriod: FORT MCMURRAY AP ANN CLG .4% CONDNS DB=>MWB,3.4052191850E-002,5.7293040432E-002,Pass,Pass,3.8211133671E-002,0.1296891747,Pass,Pass
 Warmup Convergence Information,RETAIL FACILITY MALL CONCOURSE-SPACE FUNCTION ZN,SizingPeriod: FORT MCMURRAY AP ANN CLG .4% CONDNS DB=>MWB,4.0824909636E-002,6.4649224579E-002,Pass,Pass,2.9381706254E-002,5.7597686098E-002,Pass,Pass
 Warmup Convergence Information,SPACE DESIGNED TO ANSI/IES RP-28 CHAPEL (USED PRIMARILY BY RESIDENTS)-SPACE FUNCTION ZN,SizingPeriod: FORT MCMURRAY AP ANN CLG .4% CONDNS DB=>MWB,0.1402122683,0.4467255598,Pass,Pass,4.3465960176E-002,7.0734394809E-002,Pass,Pass
 Warmup Convergence Information,SPACE DESIGNED TO ANSI/IES RP-28 RECREATION ROOM (USED PRIMARILY BY RESIDENTS)-SPACE FUNCTION ZN,SizingPeriod: FORT MCMURRAY AP ANN CLG .4% CONDNS DB=>MWB,4.5399583722E-002,7.4773400733E-002,Pass,Pass,2.5812395428E-002,4.3743143969E-002,Pass,Pass
 Warmup Convergence Information,SPORTS ARENA PLAYING AREA CLASS I FACILITY(4)-SPACE FUNCTION ZN,SizingPeriod: FORT MCMURRAY AP ANN CLG .4% CONDNS DB=>MWB,3.4877896787E-002,9.3710424617E-002,Pass,Pass,2.5724085957E-002,8.9265709977E-002,Pass,Pass
 Warmup Convergence Information,SPORTS ARENA PLAYING AREA CLASS II FACILITY(4)-SPACE FUNCTION ZN,SizingPeriod: FORT MCMURRAY AP ANN CLG .4% CONDNS DB=>MWB,2.2763705985E-002,5.0608096932E-002,Pass,Pass,3.1613579493E-002,8.0604512237E-002,Pass,Pass
 Warmup Convergence Information,SPORTS ARENA PLAYING AREA CLASS III FACILITY(4)-SPACE FUNCTION ZN,SizingPeriod: FORT MCMURRAY AP ANN CLG .4% CONDNS DB=>MWB,5.9144489775E-002,0.1457289804,Pass,Pass,3.4347393767E-002,8.9322015012E-002,Pass,Pass
 Warmup Convergence Information,SPORTS ARENA PLAYING AREA CLASS IV FACILITY(4)-SPACE FUNCTION ZN,SizingPeriod: FORT MCMURRAY AP ANN CLG .4% CONDNS DB=>MWB,2.9944781385E-002,6.2493196794E-002,Pass,Pass,4.2920186302E-002,8.8637984497E-002,Pass,Pass
 Warmup Convergence Information,TRANSPORTATION FACILITY AIRPORT CONCOURSE-SPACE FUNCTION ZN,SizingPeriod: FORT MCMURRAY AP ANN CLG .4% CONDNS DB=>MWB,4.0091495756E-002,5.6215894271E-002,Pass,Pass,1.0737220764E-002,1.4868365798E-002,Pass,Pass
 Warmup Convergence Information,TRANSPORTATION FACILITY BAGGAGE/CAROUSEL AREA-SPACE FUNCTION ZN,SizingPeriod: FORT MCMURRAY AP ANN CLG .4% CONDNS DB=>MWB,3.2689900170E-014,2.4566086223E-014,Pass,Pass,1.4929895713E-003,1.4621581430E-003,Pass,Pass
 Warmup Convergence Information,TRANSPORTATION FACILITY TERMINAL TICKET COUNTER-SPACE FUNCTION ZN,SizingPeriod: FORT MCMURRAY AP ANN CLG .4% CONDNS DB=>MWB,4.8455067119E-014,3.7410511559E-014,Pass,Pass,3.3886271942E-003,1.8380142042E-003,Pass,Pass
 Warmup Convergence Information,WAREHOUSE STORAGE AREA MEDIUM TO BULKY PALLETIZED ITEMS-SPACE FUNCTION ZN,SizingPeriod: FORT MCMURRAY AP ANN CLG .4% CONDNS DB=>MWB,1.0647282788E-002,2.2238460100E-002,Pass,Pass,3.3255810991E-002,0.1656597707,Pass,Pass
 Warmup Convergence Information,WAREHOUSE STORAGE AREA SMALL HAND-CARRIED ITEMS(4)-SPACE FUNCTION ZN,SizingPeriod: FORT MCMURRAY AP ANN CLG .4% CONDNS DB=>MWB,2.5988547047E-002,3.9089954524E-002,Pass,Pass,5.6701256869E-002,0.2799861281,Pass,Pass
 Warmup Convergence Information,WHOLEBUILDING-AUTOMOTIVE FACILITY 1 ZN,SizingPeriod: FORT MCMURRAY AP ANN CLG .4% CONDNS DB=>MWB,4.2275414753E-002,7.1691272538E-002,Pass,Pass,7.6595471859E-002,0.5172160901,Pass,Pass
 Warmup Convergence Information,WHOLEBUILDING-AUTOMOTIVE FACILITY 2 ZN,SizingPeriod: FORT MCMURRAY AP ANN CLG .4% CONDNS DB=>MWB,3.5373853781E-002,5.2308915178E-002,Pass,Pass,7.4875889141E-002,0.4808529166,Pass,Pass
 Warmup Convergence Information,WHOLEBUILDING-AUTOMOTIVE FACILITY ZN,SizingPeriod: FORT MCMURRAY AP ANN CLG .4% CONDNS DB=>MWB,3.4967496354E-002,5.2583579295E-002,Pass,Pass,7.9358534295E-002,0.4678565648,Pass,Pass
Environment,FORT MCMURRAY AP ANN HTG 99.6% CONDNS DB,SizingPeriod:DesignDay,01/21,01/21,WinterDesignDay,1,N/A,N/A,N/A,N/A,N/A,N/A
Environment:Daylight Saving,No,SizingPeriod:DesignDay
Environment:Design Day Data,-36.20,0.00,DefaultMultipliers,96969,90,1.0,0.00,No,No
Environment:Design Day Misc, 21,1229.0,0.1415,5.7310E-002,1.0,-11.15,-20.1,ASHRAEClearSky
Environment:WarmupDays,  6
 Warmup Convergence Information,MUSEUM RESTORATION ROOM-SPACE FUNCTION ZN,SizingPeriod: FORT MCMURRAY AP ANN HTG 99.6% CONDNS DB,5.6353214521E-002,0.3509212122,Pass,Pass,0.8941972496,5.0046997319,Pass,Pass
 Warmup Convergence Information,POST OFFICE SORTING AREA-SPACE FUNCTION ZN,SizingPeriod: FORT MCMURRAY AP ANN HTG 99.6% CONDNS DB,5.6578461159E-002,0.3496650356,Pass,Pass,0.1543753229,0.3590928805,Pass,Pass
 Warmup Convergence Information,RELIGIOUS BUILDING FELLOWSHIP HALL-SPACE FUNCTION ZN,SizingPeriod: FORT MCMURRAY AP ANN HTG 99.6% CONDNS DB,5.5555555556E-002,0.3876499034,Pass,Pass,9.7916650628E-002,0.3493332785,Pass,Pass
 Warmup Convergence Information,RELIGIOUS BUILDING WORSHIP/PULPIT/CHOIR AREA-SPACE FUNCTION ZN,SizingPeriod: FORT MCMURRAY AP ANN HTG 99.6% CONDNS DB,5.5555555556E-002,0.3869242876,Pass,Pass,0.8277221924,6.5844662505,Pass,Pass
 Warmup Convergence Information,RETAIL FACILITY DRESSING/FITTING ROOM-SPACE FUNCTION ZN,SizingPeriod: FORT MCMURRAY AP ANN HTG 99.6% CONDNS DB,5.5697580924E-002,0.3611244653,Pass,Pass,0.1370588727,0.4234231114,Pass,Pass
 Warmup Convergence Information,RETAIL FACILITY MALL CONCOURSE-SPACE FUNCTION ZN,SizingPeriod: FORT MCMURRAY AP ANN HTG 99.6% CONDNS DB,5.5555555556E-002,0.3725198082,Pass,Pass,0.8582648503,6.4298102212,Pass,Pass
 Warmup Convergence Information,SPACE DESIGNED TO ANSI/IES RP-28 CHAPEL (USED PRIMARILY BY RESIDENTS)-SPACE FUNCTION ZN,SizingPeriod: FORT MCMURRAY AP ANN HTG 99.6% CONDNS DB,5.5555555556E-002,0.3873501213,Pass,Pass,0.5073463776,3.6330524897,Pass,Pass
 Warmup Convergence Information,SPACE DESIGNED TO ANSI/IES RP-28 RECREATION ROOM (USED PRIMARILY BY RESIDENTS)-SPACE FUNCTION ZN,SizingPeriod: FORT MCMURRAY AP ANN HTG 99.6% CONDNS DB,5.5555555556E-002,0.3880418300,Pass,Pass,0.2028173373,0.7289300498,Pass,Pass
 Warmup Convergence Information,SPORTS ARENA PLAYING AREA CLASS I FACILITY(4)-SPACE FUNCTION ZN,SizingPeriod: FORT MCMURRAY AP ANN HTG 99.6% CONDNS DB,5.5555555556E-002,0.3657291954,Pass,Pass,0.6438516758,3.8994407604,Pass,Pass
 Warmup Convergence Information,SPORTS ARENA PLAYING AREA CLASS II FACILITY(4)-SPACE FUNCTION ZN,SizingPeriod: FORT MCMURRAY AP ANN HTG 99.6% CONDNS DB,5.5555555556E-002,0.3652272374,Pass,Pass,0.4125798071,2.5103634479,Pass,Pass
 Warmup Convergence Information,SPORTS ARENA PLAYING AREA CLASS III FACILITY(4)-SPACE FUNCTION ZN,SizingPeriod: FORT MCMURRAY AP ANN HTG 99.6% CONDNS DB,5.5555555556E-002,0.3696370332,Pass,Pass,0.5884568237,2.5453109864,Pass,Pass
 Warmup Convergence Information,SPORTS ARENA PLAYING AREA CLASS IV FACILITY(4)-SPACE FUNCTION ZN,SizingPeriod: FORT MCMURRAY AP ANN HTG 99.6% CONDNS DB,5.5555555556E-002,0.3655060616,Pass,Pass,0.2700682458,1.2546114661,Pass,Pass
 Warmup Convergence Information,TRANSPORTATION FACILITY AIRPORT CONCOURSE-SPACE FUNCTION ZN,SizingPeriod: FORT MCMURRAY AP ANN HTG 99.6% CONDNS DB,5.5555555556E-002,0.3892805627,Pass,Pass,0.1792612271,0.9256419738,Pass,Pass
 Warmup Convergence Information,TRANSPORTATION FACILITY BAGGAGE/CAROUSEL AREA-SPACE FUNCTION ZN,SizingPeriod: FORT MCMURRAY AP ANN HTG 99.6% CONDNS DB,5.7277929373E-002,0.3422545861,Pass,Pass,0.1999147822,1.1731234396,Pass,Pass
 Warmup Convergence Information,TRANSPORTATION FACILITY TERMINAL TICKET COUNTER-SPACE FUNCTION ZN,SizingPeriod: FORT MCMURRAY AP ANN HTG 99.6% CONDNS DB,5.7655137766E-002,0.3402167403,Pass,Pass,0.3847216915,3.5680723214,Pass,Pass
 Warmup Convergence Information,WAREHOUSE STORAGE AREA MEDIUM TO BULKY PALLETIZED ITEMS-SPACE FUNCTION ZN,SizingPeriod: FORT MCMURRAY AP ANN HTG 99.6% CONDNS DB,6.4074833510E-002,0.3077714979,Pass,Pass,0.5041682469,2.4605487357,Pass,Pass
 Warmup Convergence Information,WAREHOUSE STORAGE AREA SMALL HAND-CARRIED ITEMS(4)-SPACE FUNCTION ZN,SizingPeriod: FORT MCMURRAY AP ANN HTG 99.6% CONDNS DB,5.8436323775E-002,0.3208656045,Pass,Pass,0.1513682972,0.6657315587,Pass,Pass
 Warmup Convergence Information,WHOLEBUILDING-AUTOMOTIVE FACILITY 1 ZN,SizingPeriod: FORT MCMURRAY AP ANN HTG 99.6% CONDNS DB,5.5816356549E-002,0.3599441592,Pass,Pass,0.2340769821,0.9573919474,Pass,Pass
 Warmup Convergence Information,WHOLEBUILDING-AUTOMOTIVE FACILITY 2 ZN,SizingPeriod: FORT MCMURRAY AP ANN HTG 99.6% CONDNS DB,5.5828463594E-002,0.3601420885,Pass,Pass,0.5233327275,4.3614689602,Pass,Pass
 Warmup Convergence Information,WHOLEBUILDING-AUTOMOTIVE FACILITY ZN,SizingPeriod: FORT MCMURRAY AP ANN HTG 99.6% CONDNS DB,5.6028265649E-002,0.3588575619,Pass,Pass,0.4284259948,2.1064212683,Pass,Pass
! <Program Control Information:Threads/Parallel Sims>, Threading Supported,Maximum Number of Threads, Env Set Threads (OMP_NUM_THREADS), EP Env Set Threads (EP_OMP_NUM_THREADS), IDF Set Threads, Number of Threads Used (Interior Radiant Exchange), Number Nominal Surfaces, Number Parallel Sims
Program Control:Threads/Parallel Sims, No,1, N/A, N/A, N/A, N/A, N/A, N/A
End of Data
