Program Version,EnergyPlus, Version 8.9.0-eba93e8e1b, YMD=2019.03.28 14:19
! <Version>, Version ID
 Version, 8.9
! <Timesteps per Hour>, #TimeSteps, Minutes per TimeStep {minutes}
 Timesteps per Hour,  6, 10
! <System Convergence Limits>, Minimum System TimeStep {minutes}, Max HVAC Iterations, Minimum Plant Iterations, Maximum Plant Iterations
 System Convergence Limits, 1, 20, 2, 8
! <Simulation Control>, Do Zone Sizing, Do System Sizing, Do Plant Sizing, Do Design Days, Do Weather Simulation, Do HVAC Sizing Simulation
 Simulation Control, Yes, No, No, Yes, No, No
! <Output Reporting Tolerances>, Tolerance for Time Heating Setpoint Not Met, Tolerance for Zone Cooling Setpoint Not Met Time
 Output Reporting Tolerances, 0.200, 0.200, 
! <Site:GroundTemperature:BuildingSurface>,Jan{C},Feb{C},Mar{C},Apr{C},May{C},Jun{C},Jul{C},Aug{C},Sep{C},Oct{C},Nov{C},Dec{C}
 Site:GroundTemperature:BuildingSurface,  19.53,  19.50,  19.54,  19.60,  20.00,  21.64,  22.23,  22.38,  21.45,  20.12,  19.80,  19.63
! <Site:GroundTemperature:FCfactorMethod>,Jan{C},Feb{C},Mar{C},Apr{C},May{C},Jun{C},Jul{C},Aug{C},Sep{C},Oct{C},Nov{C},Dec{C}
 Site:GroundTemperature:FCfactorMethod, -12.27, -13.66, -11.19,  -7.33,   2.77,  10.57,  15.83,  17.43,  14.70,   8.65,   0.56,  -6.95
! <Site:GroundTemperature:Shallow>,Jan{C},Feb{C},Mar{C},Apr{C},May{C},Jun{C},Jul{C},Aug{C},Sep{C},Oct{C},Nov{C},Dec{C}
 Site:GroundTemperature:Shallow,  13.00,  13.00,  13.00,  13.00,  13.00,  13.00,  13.00,  13.00,  13.00,  13.00,  13.00,  13.00
! <Site:GroundTemperature:Deep>,Jan{C},Feb{C},Mar{C},Apr{C},May{C},Jun{C},Jul{C},Aug{C},Sep{C},Oct{C},Nov{C},Dec{C}
 Site:GroundTemperature:Deep,  16.00,  16.00,  16.00,  16.00,  16.00,  16.00,  16.00,  16.00,  16.00,  16.00,  16.00,  16.00
! <Site:GroundReflectance>,Jan{dimensionless},Feb{dimensionless},Mar{dimensionless},Apr{dimensionless},May{dimensionless},Jun{dimensionless},Jul{dimensionless},Aug{dimensionless},Sep{dimensionless},Oct{dimensionless},Nov{dimensionless},Dec{dimensionless}
 Site:GroundReflectance,  0.20,  0.20,  0.20,  0.20,  0.20,  0.20,  0.20,  0.20,  0.20,  0.20,  0.20,  0.20
! <Site:GroundReflectance:SnowModifier>, Normal, Daylighting {dimensionless}
 Site:GroundReflectance:SnowModifier,   1.000,   1.000
! <Site:GroundReflectance:Snow>,Jan{dimensionless},Feb{dimensionless},Mar{dimensionless},Apr{dimensionless},May{dimensionless},Jun{dimensionless},Jul{dimensionless},Aug{dimensionless},Sep{dimensionless},Oct{dimensionless},Nov{dimensionless},Dec{dimensionless}
 Site:GroundReflectance:Snow,  0.20,  0.20,  0.20,  0.20,  0.20,  0.20,  0.20,  0.20,  0.20,  0.20,  0.20,  0.20
! <Site:GroundReflectance:Snow:Daylighting>,Jan{dimensionless},Feb{dimensionless},Mar{dimensionless},Apr{dimensionless},May{dimensionless},Jun{dimensionless},Jul{dimensionless},Aug{dimensionless},Sep{dimensionless},Oct{dimensionless},Nov{dimensionless},Dec{dimensionless}
 Site:GroundReflectance:Snow:Daylighting,  0.20,  0.20,  0.20,  0.20,  0.20,  0.20,  0.20,  0.20,  0.20,  0.20,  0.20,  0.20
! <Environment:Weather Station>,Wind Sensor Height Above Ground {m},Wind Speed Profile Exponent {},Wind Speed Profile Boundary Layer Thickness {m},Air Temperature Sensor Height Above Ground {m},Wind Speed Modifier Coefficient-Internal,Temperature Modifier Coefficient-Internal
Environment:Weather Station,10.000,0.140,270.000,1.500,1.586,9.750E-003
! <Site:Location>, Location Name, Latitude {N+/S- Deg}, Longitude {E+/W- Deg},  Time Zone Number {GMT+/-}, Elevation {m},  Standard Pressure at Elevation {Pa}, Standard RhoAir at Elevation
Site:Location,Fort McMurray AP AB CAN CWEC2016 WMO#=716890,56.65,-111.22,-7.00,369.10,96969,1.1525
! <Building Information>, Building Name,North Axis {deg},Terrain,  Loads Convergence Tolerance Value,Temperature Convergence Tolerance Value,  Solar Distribution,Maximum Number of Warmup Days,Minimum Number of Warmup Days
 Building Information,Building 1,0.000,Suburbs,4.00000E-002,0.40000,FullExterior,25,6
! <Inside Convection Algorithm>, Algorithm {Simple | TARP | CeilingDiffuser | AdaptiveConvectionAlgorithm}
Inside Convection Algorithm,TARP
! <Outside Convection Algorithm>, Algorithm {SimpleCombined | TARP | MoWitt | DOE-2 | AdaptiveConvectionAlgorithm}
Outside Convection Algorithm,TARP
! <Sky Radiance Distribution>, Value {Anisotropic}
Sky Radiance Distribution,Anisotropic
! <Zone Air Solution Algorithm>, Value {ThirdOrderBackwardDifference | AnalyticalSolution | EulerMethod}
 Zone Air Solution Algorithm, ThirdOrderBackwardDifference
! <Zone Air Carbon Dioxide Balance Simulation>, Simulation {Yes/No}, Carbon Dioxide Concentration
 Zone Air Carbon Dioxide Balance Simulation, No,N/A
! <Zone Air Generic Contaminant Balance Simulation>, Simulation {Yes/No}, Generic Contaminant Concentration
 Zone Air Generic Contaminant Balance Simulation, No,N/A
! <Zone Air Mass Flow Balance Simulation>, Enforce Mass Balance, Adjust Zone Mixing, Adjust Zone Infiltration {AddInfiltration | AdjustInfiltration | None}, Infiltration Zones {MixingSourceZonesOnly | AllZones}
 Zone Air Mass Flow Balance Simulation, No,N/A,N/A,N/A
! <HVACSystemRootFindingAlgorithm>, Value {RegulaFalsi | Bisection | BisectionThenRegulaFalsi | RegulaFalsiThenBisection}
 HVACSystemRootFindingAlgorithm, RegulaFalsi
! <Environment:Site Atmospheric Variation>,Wind Speed Profile Exponent {},Wind Speed Profile Boundary Layer Thickness {m},Air Temperature Gradient Coefficient {K/m}
Environment:Site Atmospheric Variation,0.220,370.000,6.500000E-003
! <Surface Geometry>,Starting Corner,Vertex Input Direction,Coordinate System,Daylight Reference Point Coordinate System,Rectangular (Simple) Surface Coordinate System
 Surface Geometry,UpperLeftCorner,Counterclockwise,RelativeCoordinateSystem,RelativeCoordinateSystem,RelativeToZoneOrigin
! <Surface Heat Transfer Algorithm>, Value {CTF - ConductionTransferFunction | EMPD - MoisturePenetrationDepthConductionTransferFunction | CondFD - ConductionFiniteDifference | HAMT - CombinedHeatAndMoistureFiniteElement} - Description,Inside Surface Max Temperature Limit{C}, Surface Convection Coefficient Lower Limit {W/m2-K}, Surface Convection Coefficient Upper Limit {W/m2-K}
Surface Heat Transfer Algorithm, CTF - ConductionTransferFunction,200,0.10,1000.0
! <Shading Summary>, Number of Fixed Detached Shades, Number of Building Detached Shades, Number of Attached Shades
 Shading Summary,0,0,0
! <Zone Summary>, Number of Zones, Number of Zone Surfaces, Number of SubSurfaces
 Zone Summary,20,136,16
! <Zone Information>,Zone Name,North Axis {deg},Origin X-Coordinate {m},Origin Y-Coordinate {m},Origin Z-Coordinate {m},Centroid X-Coordinate {m},Centroid Y-Coordinate {m},Centroid Z-Coordinate {m},Type,Zone Multiplier,Zone List Multiplier,Minimum X {m},Maximum X {m},Minimum Y {m},Maximum Y {m},Minimum Z {m},Maximum Z {m},Ceiling Height {m},Volume {m3},Zone Inside Convection Algorithm {Simple-Detailed-CeilingDiffuser-TrombeWall},Zone Outside Convection Algorithm {Simple-Detailed-Tarp-MoWitt-DOE-2-BLAST}, Floor Area {m2},Exterior Gross Wall Area {m2},Exterior Net Wall Area {m2},Exterior Window Area {m2}, Number of Surfaces, Number of SubSurfaces, Number of Shading SubSurfaces,  Part of Total Building Area
 Zone Information, LOCKER ROOM-SCH-J-SPACE FUNCTION ZN,0.0,25.00,75.00,11.40,50.00,89.15,13.30,1,1,1,0.00,100.00,75.00,100.00,11.40,15.20,3.80,7125.00,TARP,TARP,1875.00,380.00,285.00,132.50,6,2,0,Yes
 Zone Information, LOCKER ROOM-SCH-K-SPACE FUNCTION ZN,0.0,25.00,25.00,7.60,50.00,50.00,9.50,1,1,1,25.00,75.00,25.00,75.00,7.60,11.40,3.80,9500.00,TARP,TARP,2500.00,0.00,0.00,0.00,6,0,0,Yes
 Zone Information, LOUNGE/BREAK ROOM - HEALTH CARE FACILITY-SPACE FUNCTION ZN,0.0,0.00,0.00,7.60,50.00,10.85,9.50,1,1,1,0.00,100.00,0.00,25.00,7.60,11.40,3.80,7125.00,TARP,TARP,1875.00,380.00,285.00,95.00,6,1,0,Yes
 Zone Information, LOUNGE/BREAK ROOM - OTHER-SPACE FUNCTION ZN,0.0,0.00,0.00,0.00,10.85,50.00,1.90,1,1,1,0.00,25.00,0.00,100.00,0.00,3.80,3.80,7125.00,TARP,TARP,1875.00,0.00,0.00,0.00,6,0,0,Yes
 Zone Information, OFFICE ENCLOSED <= 25 M2-SPACE FUNCTION ZN,0.0,25.00,25.00,11.40,50.00,50.00,13.30,1,1,1,25.00,75.00,25.00,75.00,11.40,15.20,3.80,9500.00,TARP,TARP,2500.00,0.00,0.00,50.00,6,1,0,Yes
 Zone Information, OFFICE ENCLOSED > 25 M2-SPACE FUNCTION ZN,0.0,75.00,25.00,11.40,89.15,50.00,13.30,1,1,1,75.00,100.00,0.00,100.00,11.40,15.20,3.80,7125.00,TARP,TARP,1875.00,380.00,285.00,132.50,6,2,0,Yes
 Zone Information, OFFICE OPEN PLAN-SPACE FUNCTION ZN,0.0,0.00,0.00,0.00,50.00,10.85,1.90,1,1,1,0.00,100.00,0.00,25.00,0.00,3.80,3.80,7125.00,TARP,TARP,1875.00,0.00,0.00,0.00,6,0,0,Yes
 Zone Information, PHARMACY AREA-SPACE FUNCTION ZN,0.0,0.00,0.00,11.40,50.00,10.85,13.30,1,1,1,0.00,100.00,0.00,25.00,11.40,15.20,3.80,7125.00,TARP,TARP,1875.00,380.00,285.00,132.50,6,2,0,Yes
 Zone Information, SALES AREA-SPACE FUNCTION ZN,0.0,25.00,75.00,0.00,50.00,89.15,1.90,1,1,1,0.00,100.00,75.00,100.00,0.00,3.80,3.80,7125.00,TARP,TARP,1875.00,0.00,0.00,0.00,6,0,0,Yes
 Zone Information, SEATING AREA GENERAL-SCH-A-SPACE FUNCTION ZN,0.0,25.00,25.00,0.00,50.00,50.00,1.90,1,1,1,25.00,75.00,25.00,75.00,0.00,3.80,3.80,9500.00,TARP,TARP,2500.00,0.00,0.00,0.00,6,0,0,Yes
 Zone Information, SEATING AREA GENERAL-SCH-B-SPACE FUNCTION ZN,0.0,25.00,25.00,3.80,50.00,50.00,5.70,1,1,1,25.00,75.00,25.00,75.00,3.80,7.60,3.80,9500.00,TARP,TARP,2500.00,0.00,0.00,0.00,6,0,0,Yes
 Zone Information, SEATING AREA GENERAL-SCH-C-SPACE FUNCTION ZN,0.0,75.00,25.00,7.60,89.15,50.00,9.50,1,1,1,75.00,100.00,0.00,100.00,7.60,11.40,3.80,7125.00,TARP,TARP,1875.00,380.00,285.00,95.00,6,1,0,Yes
 Zone Information, SEATING AREA GENERAL-SCH-D-SPACE FUNCTION ZN,0.0,75.00,25.00,0.00,89.15,50.00,1.90,1,1,1,75.00,100.00,0.00,100.00,0.00,3.80,3.80,7125.00,TARP,TARP,1875.00,0.00,0.00,0.00,6,0,0,Yes
 Zone Information, SEATING AREA GENERAL-SCH-E-SPACE FUNCTION ZN,0.0,0.00,0.00,11.40,10.85,50.00,13.30,1,1,1,0.00,25.00,0.00,100.00,11.40,15.20,3.80,7125.00,TARP,TARP,1875.00,380.00,285.00,132.50,6,2,0,Yes
 Zone Information, SEATING AREA GENERAL-SCH-F-SPACE FUNCTION ZN,0.0,0.00,0.00,7.60,10.85,50.00,9.50,1,1,1,0.00,25.00,0.00,100.00,7.60,11.40,3.80,7125.00,TARP,TARP,1875.00,380.00,285.00,95.00,6,1,0,Yes
 Zone Information, SEATING AREA GENERAL-SCH-G-SPACE FUNCTION ZN,0.0,25.00,75.00,3.80,50.00,89.15,5.70,1,1,1,0.00,100.00,75.00,100.00,3.80,7.60,3.80,7125.00,TARP,TARP,1875.00,380.00,285.00,95.00,6,1,0,Yes
 Zone Information, SEATING AREA GENERAL-SCH-H-SPACE FUNCTION ZN,0.0,0.00,0.00,3.80,10.85,50.00,5.70,1,1,1,0.00,25.00,0.00,100.00,3.80,7.60,3.80,7125.00,TARP,TARP,1875.00,380.00,285.00,95.00,6,1,0,Yes
 Zone Information, SEATING AREA GENERAL-SCH-I-SPACE FUNCTION ZN,0.0,75.00,25.00,3.80,89.15,50.00,5.70,1,1,1,75.00,100.00,0.00,100.00,3.80,7.60,3.80,7125.00,TARP,TARP,1875.00,380.00,285.00,95.00,6,1,0,Yes
 Zone Information, SEATING AREA GENERAL-SCH-J-SPACE FUNCTION ZN,0.0,25.00,75.00,7.60,50.00,89.15,9.50,1,1,1,0.00,100.00,75.00,100.00,7.60,11.40,3.80,7125.00,TARP,TARP,1875.00,380.00,285.00,95.00,6,1,0,Yes
 Zone Information, SEATING AREA GENERAL-SCH-K-SPACE FUNCTION ZN,0.0,0.00,0.00,3.80,50.00,10.85,5.70,1,1,1,0.00,100.00,0.00,25.00,3.80,7.60,3.80,7125.00,TARP,TARP,1875.00,380.00,380.00,0.00,6,0,0,Yes
! <Zone Internal Gains Nominal>,Zone Name, Floor Area {m2},# Occupants,Area per Occupant {m2/person},Occupant per Area {person/m2},Interior Lighting {W/m2},Electric Load {W/m2},Gas Load {W/m2},Other Load {W/m2},Hot Water Eq {W/m2},Steam Equipment {W/m2},Sum Loads per Area {W/m2},Outdoor Controlled Baseboard Heat
 Zone Internal Gains Nominal, LOCKER ROOM-SCH-J-SPACE FUNCTION ZN,1875.00,187.6,9.996,0.100,5.200,2.501,0.000,0.000,0.000,0.000,7.701,No
 Zone Internal Gains Nominal, LOCKER ROOM-SCH-K-SPACE FUNCTION ZN,2500.00,250.1,9.996,0.100,5.200,2.501,0.000,0.000,0.000,0.000,7.701,No
 Zone Internal Gains Nominal, LOUNGE/BREAK ROOM - HEALTH CARE FACILITY-SPACE FUNCTION ZN,1875.00,187.6,9.996,0.100,8.400,1.000,0.000,0.000,0.000,0.000,9.400,No
 Zone Internal Gains Nominal, LOUNGE/BREAK ROOM - OTHER-SPACE FUNCTION ZN,1875.00,187.6,9.996,0.100,6.700,1.000,0.000,0.000,0.000,0.000,7.700,No
 Zone Internal Gains Nominal, OFFICE ENCLOSED <= 25 M2-SPACE FUNCTION ZN,2500.00,125.0,19.993,5.002E-002,10.000,7.503,0.000,0.000,0.000,0.000,17.503,No
 Zone Internal Gains Nominal, OFFICE ENCLOSED > 25 M2-SPACE FUNCTION ZN,1875.00,93.8,19.993,5.002E-002,10.000,7.503,0.000,0.000,0.000,0.000,17.503,No
 Zone Internal Gains Nominal, OFFICE OPEN PLAN-SPACE FUNCTION ZN,1875.00,93.8,19.993,5.002E-002,8.700,7.503,0.000,0.000,0.000,0.000,16.203,No
 Zone Internal Gains Nominal, PHARMACY AREA-SPACE FUNCTION ZN,1875.00,93.8,19.993,5.002E-002,14.400,2.501,0.000,0.000,0.000,0.000,16.901,No
 Zone Internal Gains Nominal, SALES AREA-SPACE FUNCTION ZN,1875.00,62.5,29.989,3.335E-002,13.100,2.501,0.000,0.000,0.000,0.000,15.601,No
 Zone Internal Gains Nominal, SEATING AREA GENERAL-SCH-A-SPACE FUNCTION ZN,2500.00,250.1,9.996,0.100,4.600,0.000,0.000,0.000,0.000,0.000,4.600,No
 Zone Internal Gains Nominal, SEATING AREA GENERAL-SCH-B-SPACE FUNCTION ZN,2500.00,250.1,9.996,0.100,4.600,0.000,0.000,0.000,0.000,0.000,4.600,No
 Zone Internal Gains Nominal, SEATING AREA GENERAL-SCH-C-SPACE FUNCTION ZN,1875.00,187.6,9.996,0.100,4.600,0.000,0.000,0.000,0.000,0.000,4.600,No
 Zone Internal Gains Nominal, SEATING AREA GENERAL-SCH-D-SPACE FUNCTION ZN,1875.00,187.6,9.996,0.100,4.600,0.000,0.000,0.000,0.000,0.000,4.600,No
 Zone Internal Gains Nominal, SEATING AREA GENERAL-SCH-E-SPACE FUNCTION ZN,1875.00,187.6,9.996,0.100,4.600,0.000,0.000,0.000,0.000,0.000,4.600,No
 Zone Internal Gains Nominal, SEATING AREA GENERAL-SCH-F-SPACE FUNCTION ZN,1875.00,187.6,9.996,0.100,4.600,0.000,0.000,0.000,0.000,0.000,4.600,No
 Zone Internal Gains Nominal, SEATING AREA GENERAL-SCH-G-SPACE FUNCTION ZN,1875.00,187.6,9.996,0.100,4.600,0.000,0.000,0.000,0.000,0.000,4.600,No
 Zone Internal Gains Nominal, SEATING AREA GENERAL-SCH-H-SPACE FUNCTION ZN,1875.00,187.6,9.996,0.100,4.600,0.000,0.000,0.000,0.000,0.000,4.600,No
 Zone Internal Gains Nominal, SEATING AREA GENERAL-SCH-I-SPACE FUNCTION ZN,1875.00,187.6,9.996,0.100,4.600,0.000,0.000,0.000,0.000,0.000,4.600,No
 Zone Internal Gains Nominal, SEATING AREA GENERAL-SCH-J-SPACE FUNCTION ZN,1875.00,187.6,9.996,0.100,4.600,0.000,0.000,0.000,0.000,0.000,4.600,No
 Zone Internal Gains Nominal, SEATING AREA GENERAL-SCH-K-SPACE FUNCTION ZN,1875.00,187.6,9.996,0.100,4.600,0.000,0.000,0.000,0.000,0.000,4.600,No
! <People Internal Gains Nominal>,Name,Schedule Name,Zone Name,Zone Floor Area {m2},# Zone Occupants,Number of People {},People/Floor Area {person/m2},Floor Area per person {m2/person},Fraction Radiant,Fraction Convected,Sensible Fraction Calculation,Activity level,ASHRAE 55 Warnings,Carbon Dioxide Generation Rate,Nominal Minimum Number of People,Nominal Maximum Number of People
 People Internal Gains Nominal, LOCKER ROOM-SCH-J-SPACE FUNCTION ZN SPACE FUNCTION LOCKER ROOM-SCH-J PEOPLE,NECB-J-OCCUPANCY,LOCKER ROOM-SCH-J-SPACE FUNCTION ZN,1875.00,187.6,187.6,0.100,9.996,0.300,0.700,AutoCalculate,NECB-ACTIVITY,No,3.8200E-008,113,169
 People Internal Gains Nominal, LOCKER ROOM-SCH-K-SPACE FUNCTION ZN SPACE FUNCTION LOCKER ROOM-SCH-K PEOPLE,NECB-K-OCCUPANCY,LOCKER ROOM-SCH-K-SPACE FUNCTION ZN,2500.00,250.1,250.1,0.100,9.996,0.300,0.700,AutoCalculate,NECB-ACTIVITY,No,3.8200E-008,0,225
 People Internal Gains Nominal, LOUNGE/BREAK ROOM - HEALTH CARE FACILITY-SPACE FUNCTION ZN SPACE FUNCTION LOUNGE/BREAK ROOM - HEALTH CARE FACILITY PEOPLE,NECB-B-OCCUPANCY,LOUNGE/BREAK ROOM - HEALTH CARE FACILITY-SPACE FUNCTION ZN,1875.00,187.6,187.6,0.100,9.996,0.300,0.700,AutoCalculate,NECB-ACTIVITY,No,3.8200E-008,0,169
 People Internal Gains Nominal, LOUNGE/BREAK ROOM - OTHER-SPACE FUNCTION ZN SPACE FUNCTION LOUNGE/BREAK ROOM - OTHER PEOPLE,NECB-B-OCCUPANCY,LOUNGE/BREAK ROOM - OTHER-SPACE FUNCTION ZN,1875.00,187.6,187.6,0.100,9.996,0.300,0.700,AutoCalculate,NECB-ACTIVITY,No,3.8200E-008,0,169
 People Internal Gains Nominal, OFFICE ENCLOSED <= 25 M2-SPACE FUNCTION ZN SPACE FUNCTION OFFICE ENCLOSED <= 25 M2 PEOPLE,NECB-A-OCCUPANCY,OFFICE ENCLOSED <= 25 M2-SPACE FUNCTION ZN,2500.00,125.0,125.0,5.002E-002,19.993,0.300,0.700,AutoCalculate,NECB-ACTIVITY,No,3.8200E-008,0,113
 People Internal Gains Nominal, OFFICE ENCLOSED > 25 M2-SPACE FUNCTION ZN SPACE FUNCTION OFFICE ENCLOSED > 25 M2 PEOPLE,NECB-A-OCCUPANCY,OFFICE ENCLOSED > 25 M2-SPACE FUNCTION ZN,1875.00,93.8,93.8,5.002E-002,19.993,0.300,0.700,AutoCalculate,NECB-ACTIVITY,No,3.8200E-008,0,84
 People Internal Gains Nominal, OFFICE OPEN PLAN-SPACE FUNCTION ZN SPACE FUNCTION OFFICE OPEN PLAN PEOPLE,NECB-A-OCCUPANCY,OFFICE OPEN PLAN-SPACE FUNCTION ZN,1875.00,93.8,93.8,5.002E-002,19.993,0.300,0.700,AutoCalculate,NECB-ACTIVITY,No,3.8200E-008,0,84
 People Internal Gains Nominal, PHARMACY AREA-SPACE FUNCTION ZN SPACE FUNCTION PHARMACY AREA PEOPLE,NECB-C-OCCUPANCY,PHARMACY AREA-SPACE FUNCTION ZN,1875.00,93.8,93.8,5.002E-002,19.993,0.300,0.700,AutoCalculate,NECB-ACTIVITY,No,3.8200E-008,0,84
 People Internal Gains Nominal, SALES AREA-SPACE FUNCTION ZN SPACE FUNCTION SALES AREA PEOPLE,NECB-C-OCCUPANCY,SALES AREA-SPACE FUNCTION ZN,1875.00,62.5,62.5,3.335E-002,29.989,0.300,0.700,AutoCalculate,NECB-ACTIVITY,No,3.8200E-008,0,56
 People Internal Gains Nominal, SEATING AREA GENERAL-SCH-A-SPACE FUNCTION ZN SPACE FUNCTION SEATING AREA GENERAL-SCH-A PEOPLE,NECB-A-OCCUPANCY,SEATING AREA GENERAL-SCH-A-SPACE FUNCTION ZN,2500.00,250.1,250.1,0.100,9.996,0.300,0.700,AutoCalculate,NECB-ACTIVITY,No,3.8200E-008,0,225
 People Internal Gains Nominal, SEATING AREA GENERAL-SCH-B-SPACE FUNCTION ZN SPACE FUNCTION SEATING AREA GENERAL-SCH-B PEOPLE,NECB-B-OCCUPANCY,SEATING AREA GENERAL-SCH-B-SPACE FUNCTION ZN,2500.00,250.1,250.1,0.100,9.996,0.300,0.700,AutoCalculate,NECB-ACTIVITY,No,3.8200E-008,0,225
 People Internal Gains Nominal, SEATING AREA GENERAL-SCH-C-SPACE FUNCTION ZN SPACE FUNCTION SEATING AREA GENERAL-SCH-C PEOPLE,NECB-C-OCCUPANCY,SEATING AREA GENERAL-SCH-C-SPACE FUNCTION ZN,1875.00,187.6,187.6,0.100,9.996,0.300,0.700,AutoCalculate,NECB-ACTIVITY,No,3.8200E-008,0,169
 People Internal Gains Nominal, SEATING AREA GENERAL-SCH-D-SPACE FUNCTION ZN SPACE FUNCTION SEATING AREA GENERAL-SCH-D PEOPLE,NECB-D-OCCUPANCY,SEATING AREA GENERAL-SCH-D-SPACE FUNCTION ZN,1875.00,187.6,187.6,0.100,9.996,0.300,0.700,AutoCalculate,NECB-ACTIVITY,No,3.8200E-008,0,169
 People Internal Gains Nominal, SEATING AREA GENERAL-SCH-E-SPACE FUNCTION ZN SPACE FUNCTION SEATING AREA GENERAL-SCH-E PEOPLE,NECB-E-OCCUPANCY,SEATING AREA GENERAL-SCH-E-SPACE FUNCTION ZN,1875.00,187.6,187.6,0.100,9.996,0.300,0.700,AutoCalculate,NECB-ACTIVITY,No,3.8200E-008,0,169
 People Internal Gains Nominal, SEATING AREA GENERAL-SCH-F-SPACE FUNCTION ZN SPACE FUNCTION SEATING AREA GENERAL-SCH-F PEOPLE,NECB-F-OCCUPANCY,SEATING AREA GENERAL-SCH-F-SPACE FUNCTION ZN,1875.00,187.6,187.6,0.100,9.996,0.300,0.700,AutoCalculate,NECB-ACTIVITY,No,3.8200E-008,26,118
 People Internal Gains Nominal, SEATING AREA GENERAL-SCH-G-SPACE FUNCTION ZN SPACE FUNCTION SEATING AREA GENERAL-SCH-G PEOPLE,NECB-G-OCCUPANCY,SEATING AREA GENERAL-SCH-G-SPACE FUNCTION ZN,1875.00,187.6,187.6,0.100,9.996,0.300,0.700,AutoCalculate,NECB-ACTIVITY,No,3.8200E-008,56,169
 People Internal Gains Nominal, SEATING AREA GENERAL-SCH-H-SPACE FUNCTION ZN SPACE FUNCTION SEATING AREA GENERAL-SCH-H PEOPLE,NECB-H-OCCUPANCY,SEATING AREA GENERAL-SCH-H-SPACE FUNCTION ZN,1875.00,187.6,187.6,0.100,9.996,0.300,0.700,AutoCalculate,NECB-ACTIVITY,No,3.8200E-008,169,169
 People Internal Gains Nominal, SEATING AREA GENERAL-SCH-I-SPACE FUNCTION ZN SPACE FUNCTION SEATING AREA GENERAL-SCH-I PEOPLE,NECB-I-OCCUPANCY,SEATING AREA GENERAL-SCH-I-SPACE FUNCTION ZN,1875.00,187.6,187.6,0.100,9.996,0.300,0.700,AutoCalculate,NECB-ACTIVITY,No,3.8200E-008,0,150
 People Internal Gains Nominal, SEATING AREA GENERAL-SCH-J-SPACE FUNCTION ZN SPACE FUNCTION SEATING AREA GENERAL-SCH-J PEOPLE,NECB-J-OCCUPANCY,SEATING AREA GENERAL-SCH-J-SPACE FUNCTION ZN,1875.00,187.6,187.6,0.100,9.996,0.300,0.700,AutoCalculate,NECB-ACTIVITY,No,3.8200E-008,113,169
 People Internal Gains Nominal, SEATING AREA GENERAL-SCH-K-SPACE FUNCTION ZN SPACE FUNCTION SEATING AREA GENERAL-SCH-K PEOPLE,NECB-K-OCCUPANCY,SEATING AREA GENERAL-SCH-K-SPACE FUNCTION ZN,1875.00,187.6,187.6,0.100,9.996,0.300,0.700,AutoCalculate,NECB-ACTIVITY,No,3.8200E-008,0,169
! <Lights Internal Gains Nominal>,Name,Schedule Name,Zone Name,Zone Floor Area {m2},# Zone Occupants,Lighting Level {W},Lights/Floor Area {W/m2},Lights per person {W/person},Fraction Return Air,Fraction Radiant,Fraction Short Wave,Fraction Convected,Fraction Replaceable,End-Use Category,Nominal Minimum Lighting Level {W},Nominal Maximum Lighting Level {W}
 Lights Internal Gains Nominal, LOCKER ROOM-SCH-J-SPACE FUNCTION ZN SPACE FUNCTION LOCKER ROOM-SCH-J LIGHTS,NECB-J-LIGHTING,LOCKER ROOM-SCH-J-SPACE FUNCTION ZN,1875.00,187.6,9749.923,5.200,51.981,0.000,0.500,0.200,0.300,1.000,General,974.992,6824.946
 Lights Internal Gains Nominal, LOCKER ROOM-SCH-K-SPACE FUNCTION ZN SPACE FUNCTION LOCKER ROOM-SCH-K LIGHTS,NECB-K-LIGHTING,LOCKER ROOM-SCH-K-SPACE FUNCTION ZN,2500.00,250.1,12999.898,5.200,51.981,0.000,0.500,0.200,0.300,1.000,General,11699.908,11699.908
 Lights Internal Gains Nominal, LOUNGE/BREAK ROOM - HEALTH CARE FACILITY-SPACE FUNCTION ZN SPACE FUNCTION LOUNGE/BREAK ROOM - HEALTH CARE FACILITY LIGHTS,NECB-B-LIGHTING,LOUNGE/BREAK ROOM - HEALTH CARE FACILITY-SPACE FUNCTION ZN,1875.00,187.6,15749.868,8.400,83.969,0.000,0.500,0.200,0.300,1.000,General,1574.987,14174.881
 Lights Internal Gains Nominal, LOUNGE/BREAK ROOM - OTHER-SPACE FUNCTION ZN SPACE FUNCTION LOUNGE/BREAK ROOM - OTHER LIGHTS,NECB-B-LIGHTING,LOUNGE/BREAK ROOM - OTHER-SPACE FUNCTION ZN,1875.00,187.6,12562.392,6.700,66.975,0.000,0.500,0.200,0.300,1.000,General,1256.239,11306.152
 Lights Internal Gains Nominal, OFFICE ENCLOSED <= 25 M2-SPACE FUNCTION ZN SPACE FUNCTION OFFICE ENCLOSED <= 25 M2 LIGHTS,NECB-A-OCCUPANCY-NECB-A-LIGHTING-0.3-0.1-0.67-LIGHT RULESET,OFFICE ENCLOSED <= 25 M2-SPACE FUNCTION ZN,2500.00,125.0,24999.801,10.000,199.926,0.000,0.500,0.200,0.300,1.000,General,873.743,22499.821
 Lights Internal Gains Nominal, OFFICE ENCLOSED > 25 M2-SPACE FUNCTION ZN SPACE FUNCTION OFFICE ENCLOSED > 25 M2 LIGHTS,NECB-A-OCCUPANCY-NECB-A-LIGHTING-0.3-0.1-0.67-LIGHT RULESET,OFFICE ENCLOSED > 25 M2-SPACE FUNCTION ZN,1875.00,93.8,18749.851,10.000,199.926,0.000,0.500,0.200,0.300,1.000,General,655.307,16874.866
 Lights Internal Gains Nominal, OFFICE OPEN PLAN-SPACE FUNCTION ZN SPACE FUNCTION OFFICE OPEN PLAN LIGHTS,NECB-A-OCCUPANCY-NECB-A-LIGHTING-0.2-0.1-0.67-LIGHT RULESET,OFFICE OPEN PLAN-SPACE FUNCTION ZN,1875.00,93.8,16312.370,8.700,173.935,0.000,0.500,0.200,0.300,1.000,General,624.764,14681.133
 Lights Internal Gains Nominal, PHARMACY AREA-SPACE FUNCTION ZN SPACE FUNCTION PHARMACY AREA LIGHTS,NECB-C-OCCUPANCY-NECB-C-LIGHTING-0.0-0.0-0.67-LIGHT RULESET,PHARMACY AREA-SPACE FUNCTION ZN,1875.00,93.8,26999.783,14.400,287.893,0.000,0.500,0.200,0.300,1.000,General,1349.989,24299.804
 Lights Internal Gains Nominal, SALES AREA-SPACE FUNCTION ZN SPACE FUNCTION SALES AREA LIGHTS,NECB-C-OCCUPANCY-NECB-C-LIGHTING-0.0-0.0-0.67-LIGHT RULESET,SALES AREA-SPACE FUNCTION ZN,1875.00,62.5,24562.302,13.100,392.854,0.000,0.500,0.200,0.300,1.000,General,1228.115,22106.072
 Lights Internal Gains Nominal, SEATING AREA GENERAL-SCH-A-SPACE FUNCTION ZN SPACE FUNCTION SEATING AREA GENERAL-SCH-A LIGHTS,NECB-A-LIGHTING,SEATING AREA GENERAL-SCH-A-SPACE FUNCTION ZN,2500.00,250.1,11499.893,4.600,45.983,0.000,0.500,0.200,0.300,1.000,General,574.995,10349.904
 Lights Internal Gains Nominal, SEATING AREA GENERAL-SCH-B-SPACE FUNCTION ZN SPACE FUNCTION SEATING AREA GENERAL-SCH-B LIGHTS,NECB-B-LIGHTING,SEATING AREA GENERAL-SCH-B-SPACE FUNCTION ZN,2500.00,250.1,11499.893,4.600,45.983,0.000,0.500,0.200,0.300,1.000,General,1149.989,10349.904
 Lights Internal Gains Nominal, SEATING AREA GENERAL-SCH-C-SPACE FUNCTION ZN SPACE FUNCTION SEATING AREA GENERAL-SCH-C LIGHTS,NECB-C-LIGHTING,SEATING AREA GENERAL-SCH-C-SPACE FUNCTION ZN,1875.00,187.6,8624.920,4.600,45.983,0.000,0.500,0.200,0.300,1.000,General,431.246,7762.428
 Lights Internal Gains Nominal, SEATING AREA GENERAL-SCH-D-SPACE FUNCTION ZN SPACE FUNCTION SEATING AREA GENERAL-SCH-D LIGHTS,NECB-D-LIGHTING,SEATING AREA GENERAL-SCH-D-SPACE FUNCTION ZN,1875.00,187.6,8624.920,4.600,45.983,0.000,0.500,0.200,0.300,1.000,General,431.246,7762.428
 Lights Internal Gains Nominal, SEATING AREA GENERAL-SCH-E-SPACE FUNCTION ZN SPACE FUNCTION SEATING AREA GENERAL-SCH-E LIGHTS,NECB-E-LIGHTING,SEATING AREA GENERAL-SCH-E-SPACE FUNCTION ZN,1875.00,187.6,8624.920,4.600,45.983,0.000,0.500,0.200,0.300,1.000,General,431.246,7762.428
 Lights Internal Gains Nominal, SEATING AREA GENERAL-SCH-F-SPACE FUNCTION ZN SPACE FUNCTION SEATING AREA GENERAL-SCH-F LIGHTS,NECB-F-LIGHTING,SEATING AREA GENERAL-SCH-F-SPACE FUNCTION ZN,1875.00,187.6,8624.920,4.600,45.983,0.000,0.500,0.200,0.300,1.000,General,603.744,5433.699
 Lights Internal Gains Nominal, SEATING AREA GENERAL-SCH-G-SPACE FUNCTION ZN SPACE FUNCTION SEATING AREA GENERAL-SCH-G LIGHTS,NECB-G-LIGHTING,SEATING AREA GENERAL-SCH-G-SPACE FUNCTION ZN,1875.00,187.6,8624.920,4.600,45.983,0.000,0.500,0.200,0.300,1.000,General,0.000,7762.428
 Lights Internal Gains Nominal, SEATING AREA GENERAL-SCH-H-SPACE FUNCTION ZN SPACE FUNCTION SEATING AREA GENERAL-SCH-H LIGHTS,NECB-H-LIGHTING,SEATING AREA GENERAL-SCH-H-SPACE FUNCTION ZN,1875.00,187.6,8624.920,4.600,45.983,0.000,0.500,0.200,0.300,1.000,General,7762.428,7762.428
 Lights Internal Gains Nominal, SEATING AREA GENERAL-SCH-I-SPACE FUNCTION ZN SPACE FUNCTION SEATING AREA GENERAL-SCH-I LIGHTS,NECB-I-LIGHTING,SEATING AREA GENERAL-SCH-I-SPACE FUNCTION ZN,1875.00,187.6,8624.920,4.600,45.983,0.000,0.500,0.200,0.300,1.000,General,431.246,7762.428
 Lights Internal Gains Nominal, SEATING AREA GENERAL-SCH-J-SPACE FUNCTION ZN SPACE FUNCTION SEATING AREA GENERAL-SCH-J LIGHTS,NECB-J-LIGHTING,SEATING AREA GENERAL-SCH-J-SPACE FUNCTION ZN,1875.00,187.6,8624.920,4.600,45.983,0.000,0.500,0.200,0.300,1.000,General,862.492,6037.444
 Lights Internal Gains Nominal, SEATING AREA GENERAL-SCH-K-SPACE FUNCTION ZN SPACE FUNCTION SEATING AREA GENERAL-SCH-K LIGHTS,NECB-K-LIGHTING,SEATING AREA GENERAL-SCH-K-SPACE FUNCTION ZN,1875.00,187.6,8624.920,4.600,45.983,0.000,0.500,0.200,0.300,1.000,General,7762.428,7762.428
! <ElectricEquipment Internal Gains Nominal>,Name,Schedule Name,Zone Name,Zone Floor Area {m2},# Zone Occupants,Equipment Level {W},Equipment/Floor Area {W/m2},Equipment per person {W/person},Fraction Latent,Fraction Radiant,Fraction Lost,Fraction Convected,End-Use SubCategory,Nominal Minimum Equipment Level {W},Nominal Maximum Equipment Level {W}
 ElectricEquipment Internal Gains Nominal, LOCKER ROOM-SCH-J-SPACE FUNCTION ZN SPACE FUNCTION LOCKER ROOM-SCH-J ELEC EQUIP,NECB-J-ELECTRIC-EQUIPMENT,LOCKER ROOM-SCH-J-SPACE FUNCTION ZN,1875.00,187.6,4689.204,2.501,25.000,0.000,0.500,0.000,0.500,General,468.920,3282.442
 ElectricEquipment Internal Gains Nominal, LOCKER ROOM-SCH-K-SPACE FUNCTION ZN SPACE FUNCTION LOCKER ROOM-SCH-K ELEC EQUIP,NECB-K-ELECTRIC-EQUIPMENT,LOCKER ROOM-SCH-K-SPACE FUNCTION ZN,2500.00,250.1,6252.271,2.501,25.000,0.000,0.500,0.000,0.500,General,0.000,0.000
 ElectricEquipment Internal Gains Nominal, LOUNGE/BREAK ROOM - HEALTH CARE FACILITY-SPACE FUNCTION ZN SPACE FUNCTION LOUNGE/BREAK ROOM - HEALTH CARE FACILITY ELEC EQUIP,NECB-B-ELECTRIC-EQUIPMENT,LOUNGE/BREAK ROOM - HEALTH CARE FACILITY-SPACE FUNCTION ZN,1875.00,187.6,1875.681,1.000,10.000,0.000,0.500,0.000,0.500,General,187.568,1688.113
 ElectricEquipment Internal Gains Nominal, LOUNGE/BREAK ROOM - OTHER-SPACE FUNCTION ZN SPACE FUNCTION LOUNGE/BREAK ROOM - OTHER ELEC EQUIP,NECB-B-ELECTRIC-EQUIPMENT,LOUNGE/BREAK ROOM - OTHER-SPACE FUNCTION ZN,1875.00,187.6,1875.681,1.000,10.000,0.000,0.500,0.000,0.500,General,187.568,1688.113
 ElectricEquipment Internal Gains Nominal, OFFICE ENCLOSED <= 25 M2-SPACE FUNCTION ZN SPACE FUNCTION OFFICE ENCLOSED <= 25 M2 ELEC EQUIP,NECB-A-ELECTRIC-EQUIPMENT,OFFICE ENCLOSED <= 25 M2-SPACE FUNCTION ZN,2500.00,125.0,18756.814,7.503,150.000,0.000,0.500,0.000,0.500,General,3751.363,16881.133
 ElectricEquipment Internal Gains Nominal, OFFICE ENCLOSED > 25 M2-SPACE FUNCTION ZN SPACE FUNCTION OFFICE ENCLOSED > 25 M2 ELEC EQUIP,NECB-A-ELECTRIC-EQUIPMENT,OFFICE ENCLOSED > 25 M2-SPACE FUNCTION ZN,1875.00,93.8,14067.611,7.503,150.000,0.000,0.500,0.000,0.500,General,2813.522,12660.850
 ElectricEquipment Internal Gains Nominal, OFFICE OPEN PLAN-SPACE FUNCTION ZN SPACE FUNCTION OFFICE OPEN PLAN ELEC EQUIP,NECB-A-ELECTRIC-EQUIPMENT,OFFICE OPEN PLAN-SPACE FUNCTION ZN,1875.00,93.8,14067.611,7.503,150.000,0.000,0.500,0.000,0.500,General,2813.522,12660.850
 ElectricEquipment Internal Gains Nominal, PHARMACY AREA-SPACE FUNCTION ZN SPACE FUNCTION PHARMACY AREA ELEC EQUIP,NECB-C-ELECTRIC-EQUIPMENT,PHARMACY AREA-SPACE FUNCTION ZN,1875.00,93.8,4689.204,2.501,50.000,0.000,0.500,0.000,0.500,General,234.460,4220.283
 ElectricEquipment Internal Gains Nominal, SALES AREA-SPACE FUNCTION ZN SPACE FUNCTION SALES AREA ELEC EQUIP,NECB-C-ELECTRIC-EQUIPMENT,SALES AREA-SPACE FUNCTION ZN,1875.00,62.5,4689.204,2.501,75.000,0.000,0.500,0.000,0.500,General,234.460,4220.283
! <Shadowing/Sun Position Calculations Annual Simulations>, Calculation Method, Value {days}, Allowable Number Figures in Shadow Overlap {}, Polygon Clipping Algorithm, Sky Diffuse Modeling Algorithm, External Shading Calculation Method, Output External Shading Calculation Results, Disable Self-Shading Within Shading Zone Groups, Disable Self-Shading From Shading Zone Groups to Other Zones
Shadowing/Sun Position Calculations Annual Simulations,AverageOverDaysInFrequency,20,15000,SutherlandHodgman,SimpleSkyDiffuseModeling,InternalCalculation,No,No,No
! <ZoneInfiltration Airflow Stats Nominal>,Name,Schedule Name,Zone Name, Zone Floor Area {m2}, # Zone Occupants,Design Volume Flow Rate {m3/s},Volume Flow Rate/Floor Area {m3/s/m2},Volume Flow Rate/Exterior Surface Area {m3/s/m2},ACH - Air Changes per Hour,Equation A - Constant Term Coefficient {},Equation B - Temperature Term Coefficient {1/C},Equation C - Velocity Term Coefficient {s/m}, Equation D - Velocity Squared Term Coefficient {s2/m2}
 ZoneInfiltration Airflow Stats Nominal, LOCKER ROOM-SCH-J-SPACE FUNCTION INFILTRATION,ALWAYS ON DISCRETE,LOCKER ROOM-SCH-J-SPACE FUNCTION ZN,1875.00,187.6,0.564,3.007E-004,2.500E-004,0.285,0.000,0.000,0.224,0.000
 ZoneInfiltration Airflow Stats Nominal, LOUNGE/BREAK ROOM - HEALTH CARE FACILITY-SPACE FUNCTION INFILTRATION,ALWAYS ON DISCRETE,LOUNGE/BREAK ROOM - HEALTH CARE FACILITY-SPACE FUNCTION ZN,1875.00,187.6,9.500E-002,5.067E-005,2.500E-004,4.800E-002,0.000,0.000,0.224,0.000
 ZoneInfiltration Airflow Stats Nominal, OFFICE ENCLOSED <= 25 M2-SPACE FUNCTION INFILTRATION,ALWAYS ON DISCRETE,OFFICE ENCLOSED <= 25 M2-SPACE FUNCTION ZN,2500.00,125.0,0.625,2.500E-004,2.500E-004,0.237,0.000,0.000,0.224,0.000
 ZoneInfiltration Airflow Stats Nominal, OFFICE ENCLOSED > 25 M2-SPACE FUNCTION INFILTRATION,ALWAYS ON DISCRETE,OFFICE ENCLOSED > 25 M2-SPACE FUNCTION ZN,1875.00,93.8,0.564,3.007E-004,2.500E-004,0.285,0.000,0.000,0.224,0.000
 ZoneInfiltration Airflow Stats Nominal, PHARMACY AREA-SPACE FUNCTION INFILTRATION,ALWAYS ON DISCRETE,PHARMACY AREA-SPACE FUNCTION ZN,1875.00,93.8,0.564,3.007E-004,2.500E-004,0.285,0.000,0.000,0.224,0.000
 ZoneInfiltration Airflow Stats Nominal, SEATING AREA GENERAL-SCH-C-SPACE FUNCTION INFILTRATION,ALWAYS ON DISCRETE,SEATING AREA GENERAL-SCH-C-SPACE FUNCTION ZN,1875.00,187.6,9.500E-002,5.067E-005,2.500E-004,4.800E-002,0.000,0.000,0.224,0.000
 ZoneInfiltration Airflow Stats Nominal, SEATING AREA GENERAL-SCH-E-SPACE FUNCTION INFILTRATION,ALWAYS ON DISCRETE,SEATING AREA GENERAL-SCH-E-SPACE FUNCTION ZN,1875.00,187.6,0.564,3.007E-004,2.500E-004,0.285,0.000,0.000,0.224,0.000
 ZoneInfiltration Airflow Stats Nominal, SEATING AREA GENERAL-SCH-F-SPACE FUNCTION INFILTRATION,ALWAYS ON DISCRETE,SEATING AREA GENERAL-SCH-F-SPACE FUNCTION ZN,1875.00,187.6,9.500E-002,5.067E-005,2.500E-004,4.800E-002,0.000,0.000,0.224,0.000
 ZoneInfiltration Airflow Stats Nominal, SEATING AREA GENERAL-SCH-G-SPACE FUNCTION INFILTRATION,ALWAYS ON DISCRETE,SEATING AREA GENERAL-SCH-G-SPACE FUNCTION ZN,1875.00,187.6,9.500E-002,5.067E-005,2.500E-004,4.800E-002,0.000,0.000,0.224,0.000
 ZoneInfiltration Airflow Stats Nominal, SEATING AREA GENERAL-SCH-H-SPACE FUNCTION INFILTRATION,ALWAYS ON DISCRETE,SEATING AREA GENERAL-SCH-H-SPACE FUNCTION ZN,1875.00,187.6,9.500E-002,5.067E-005,2.500E-004,4.800E-002,0.000,0.000,0.224,0.000
 ZoneInfiltration Airflow Stats Nominal, SEATING AREA GENERAL-SCH-I-SPACE FUNCTION INFILTRATION,ALWAYS ON DISCRETE,SEATING AREA GENERAL-SCH-I-SPACE FUNCTION ZN,1875.00,187.6,9.500E-002,5.067E-005,2.500E-004,4.800E-002,0.000,0.000,0.224,0.000
 ZoneInfiltration Airflow Stats Nominal, SEATING AREA GENERAL-SCH-J-SPACE FUNCTION INFILTRATION,ALWAYS ON DISCRETE,SEATING AREA GENERAL-SCH-J-SPACE FUNCTION ZN,1875.00,187.6,9.500E-002,5.067E-005,2.500E-004,4.800E-002,0.000,0.000,0.224,0.000
 ZoneInfiltration Airflow Stats Nominal, SEATING AREA GENERAL-SCH-K-SPACE FUNCTION INFILTRATION,ALWAYS ON DISCRETE,SEATING AREA GENERAL-SCH-K-SPACE FUNCTION ZN,1875.00,187.6,9.500E-002,5.067E-005,2.500E-004,4.800E-002,0.000,0.000,0.224,0.000
! <AirFlow Model>, Simple
 AirFlow Model, Simple
! <RoomAir Model>, Zone Name, Mixing/Mundt/UCSDDV/UCSDCV/UCSDUFI/UCSDUFE/User Defined
RoomAir Model,LOCKER ROOM-SCH-J-SPACE FUNCTION ZN,Mixing/Well-Stirred
RoomAir Model,LOCKER ROOM-SCH-K-SPACE FUNCTION ZN,Mixing/Well-Stirred
RoomAir Model,LOUNGE/BREAK ROOM - HEALTH CARE FACILITY-SPACE FUNCTION ZN,Mixing/Well-Stirred
RoomAir Model,LOUNGE/BREAK ROOM - OTHER-SPACE FUNCTION ZN,Mixing/Well-Stirred
RoomAir Model,OFFICE ENCLOSED <= 25 M2-SPACE FUNCTION ZN,Mixing/Well-Stirred
RoomAir Model,OFFICE ENCLOSED > 25 M2-SPACE FUNCTION ZN,Mixing/Well-Stirred
RoomAir Model,OFFICE OPEN PLAN-SPACE FUNCTION ZN,Mixing/Well-Stirred
RoomAir Model,PHARMACY AREA-SPACE FUNCTION ZN,Mixing/Well-Stirred
RoomAir Model,SALES AREA-SPACE FUNCTION ZN,Mixing/Well-Stirred
RoomAir Model,SEATING AREA GENERAL-SCH-A-SPACE FUNCTION ZN,Mixing/Well-Stirred
RoomAir Model,SEATING AREA GENERAL-SCH-B-SPACE FUNCTION ZN,Mixing/Well-Stirred
RoomAir Model,SEATING AREA GENERAL-SCH-C-SPACE FUNCTION ZN,Mixing/Well-Stirred
RoomAir Model,SEATING AREA GENERAL-SCH-D-SPACE FUNCTION ZN,Mixing/Well-Stirred
RoomAir Model,SEATING AREA GENERAL-SCH-E-SPACE FUNCTION ZN,Mixing/Well-Stirred
RoomAir Model,SEATING AREA GENERAL-SCH-F-SPACE FUNCTION ZN,Mixing/Well-Stirred
RoomAir Model,SEATING AREA GENERAL-SCH-G-SPACE FUNCTION ZN,Mixing/Well-Stirred
RoomAir Model,SEATING AREA GENERAL-SCH-H-SPACE FUNCTION ZN,Mixing/Well-Stirred
RoomAir Model,SEATING AREA GENERAL-SCH-I-SPACE FUNCTION ZN,Mixing/Well-Stirred
RoomAir Model,SEATING AREA GENERAL-SCH-J-SPACE FUNCTION ZN,Mixing/Well-Stirred
RoomAir Model,SEATING AREA GENERAL-SCH-K-SPACE FUNCTION ZN,Mixing/Well-Stirred
! <AirflowNetwork Model:Control>, No Multizone or Distribution/Multizone with Distribution/Multizone without Distribution/Multizone with Distribution only during Fan Operation
AirflowNetwork Model:Control,NoMultizoneOrDistribution
! <Zone Volume Capacitance Multiplier>, Sensible Heat Capacity Multiplier, Moisture Capacity Multiplier, Carbon Dioxide Capacity Multiplier, Generic Contaminant Capacity Multiplier
Zone Volume Capacitance Multiplier,   1.000 ,   1.000,   1.000,   1.000
! <Load Timesteps in Zone Design Calculation Averaging Window>, Value
 Load Timesteps in Zone Design Calculation Averaging Window,    6
! <Heating Sizing Factor Information>, Sizing Factor ID, Value
 Heating Sizing Factor Information, Global,   1.2500    
 Heating Sizing Factor Information, Zone LOCKER ROOM-SCH-J-SPACE FUNCTION ZN,   1.2500    
 Heating Sizing Factor Information, Zone LOCKER ROOM-SCH-K-SPACE FUNCTION ZN,   1.2500    
 Heating Sizing Factor Information, Zone LOUNGE/BREAK ROOM - HEALTH CARE FACILITY-SPACE FUNCTION ZN,   1.2500    
 Heating Sizing Factor Information, Zone LOUNGE/BREAK ROOM - OTHER-SPACE FUNCTION ZN,   1.2500    
 Heating Sizing Factor Information, Zone OFFICE ENCLOSED <= 25 M2-SPACE FUNCTION ZN,   1.2500    
 Heating Sizing Factor Information, Zone OFFICE ENCLOSED > 25 M2-SPACE FUNCTION ZN,   1.2500    
 Heating Sizing Factor Information, Zone OFFICE OPEN PLAN-SPACE FUNCTION ZN,   1.2500    
 Heating Sizing Factor Information, Zone PHARMACY AREA-SPACE FUNCTION ZN,   1.2500    
 Heating Sizing Factor Information, Zone SALES AREA-SPACE FUNCTION ZN,   1.2500    
 Heating Sizing Factor Information, Zone SEATING AREA GENERAL-SCH-A-SPACE FUNCTION ZN,   1.2500    
 Heating Sizing Factor Information, Zone SEATING AREA GENERAL-SCH-B-SPACE FUNCTION ZN,   1.2500    
 Heating Sizing Factor Information, Zone SEATING AREA GENERAL-SCH-C-SPACE FUNCTION ZN,   1.2500    
 Heating Sizing Factor Information, Zone SEATING AREA GENERAL-SCH-D-SPACE FUNCTION ZN,   1.2500    
 Heating Sizing Factor Information, Zone SEATING AREA GENERAL-SCH-E-SPACE FUNCTION ZN,   1.2500    
 Heating Sizing Factor Information, Zone SEATING AREA GENERAL-SCH-F-SPACE FUNCTION ZN,   1.2500    
 Heating Sizing Factor Information, Zone SEATING AREA GENERAL-SCH-G-SPACE FUNCTION ZN,   1.2500    
 Heating Sizing Factor Information, Zone SEATING AREA GENERAL-SCH-H-SPACE FUNCTION ZN,   1.2500    
 Heating Sizing Factor Information, Zone SEATING AREA GENERAL-SCH-I-SPACE FUNCTION ZN,   1.2500    
 Heating Sizing Factor Information, Zone SEATING AREA GENERAL-SCH-J-SPACE FUNCTION ZN,   1.2500    
 Heating Sizing Factor Information, Zone SEATING AREA GENERAL-SCH-K-SPACE FUNCTION ZN,   1.2500    
! <Cooling Sizing Factor Information>, Sizing Factor ID, Value
 Cooling Sizing Factor Information, Global,   1.1500    
 Cooling Sizing Factor Information, Zone LOCKER ROOM-SCH-J-SPACE FUNCTION ZN,   1.1500    
 Cooling Sizing Factor Information, Zone LOCKER ROOM-SCH-K-SPACE FUNCTION ZN,   1.1500    
 Cooling Sizing Factor Information, Zone LOUNGE/BREAK ROOM - HEALTH CARE FACILITY-SPACE FUNCTION ZN,   1.1500    
 Cooling Sizing Factor Information, Zone LOUNGE/BREAK ROOM - OTHER-SPACE FUNCTION ZN,   1.1500    
 Cooling Sizing Factor Information, Zone OFFICE ENCLOSED <= 25 M2-SPACE FUNCTION ZN,   1.1500    
 Cooling Sizing Factor Information, Zone OFFICE ENCLOSED > 25 M2-SPACE FUNCTION ZN,   1.1500    
 Cooling Sizing Factor Information, Zone OFFICE OPEN PLAN-SPACE FUNCTION ZN,   1.1500    
 Cooling Sizing Factor Information, Zone PHARMACY AREA-SPACE FUNCTION ZN,   1.1500    
 Cooling Sizing Factor Information, Zone SALES AREA-SPACE FUNCTION ZN,   1.1500    
 Cooling Sizing Factor Information, Zone SEATING AREA GENERAL-SCH-A-SPACE FUNCTION ZN,   1.1500    
 Cooling Sizing Factor Information, Zone SEATING AREA GENERAL-SCH-B-SPACE FUNCTION ZN,   1.1500    
 Cooling Sizing Factor Information, Zone SEATING AREA GENERAL-SCH-C-SPACE FUNCTION ZN,   1.1500    
 Cooling Sizing Factor Information, Zone SEATING AREA GENERAL-SCH-D-SPACE FUNCTION ZN,   1.1500    
 Cooling Sizing Factor Information, Zone SEATING AREA GENERAL-SCH-E-SPACE FUNCTION ZN,   1.1500    
 Cooling Sizing Factor Information, Zone SEATING AREA GENERAL-SCH-F-SPACE FUNCTION ZN,   1.1500    
 Cooling Sizing Factor Information, Zone SEATING AREA GENERAL-SCH-G-SPACE FUNCTION ZN,   1.1500    
 Cooling Sizing Factor Information, Zone SEATING AREA GENERAL-SCH-H-SPACE FUNCTION ZN,   1.1500    
 Cooling Sizing Factor Information, Zone SEATING AREA GENERAL-SCH-I-SPACE FUNCTION ZN,   1.1500    
 Cooling Sizing Factor Information, Zone SEATING AREA GENERAL-SCH-J-SPACE FUNCTION ZN,   1.1500    
 Cooling Sizing Factor Information, Zone SEATING AREA GENERAL-SCH-K-SPACE FUNCTION ZN,   1.1500    
! <Zone Sizing Information>, Zone Name, Load Type, Calc Des Load {W}, User Des Load {W}, Calc Des Air Flow Rate {m3/s}, User Des Air Flow Rate {m3/s}, Design Day Name, Date/Time of Peak, Temperature at Peak {C}, Humidity Ratio at Peak {kgWater/kgDryAir}, Floor Area {m2}, # Occupants, Calc Outdoor Air Flow Rate {m3/s}, Calc DOAS Heat Addition Rate {W}
 Zone Sizing Information, LOCKER ROOM-SCH-J-SPACE FUNCTION ZN, Cooling, 39457.61723, 45376.25982, 3.35463, 3.85782, FORT MCMURRAY AP ANN CLG .4% CONDNS DB=>MWB, 7/21 15:00:00, 28.90000, 8.76969E-003, 1875.00000, 187.56814, 2.38125, 0.00000
 Zone Sizing Information, LOCKER ROOM-SCH-J-SPACE FUNCTION ZN, Heating, 20958.03627, 26197.54533, 0.99083, 2.38125, FORT MCMURRAY AP ANN HTG 99.6% CONDNS DB, 1/21 05:00:00, -36.20000, 1.25811E-004, 1875.00000, 187.56814, 2.38125, 0.00000
 Zone Sizing Information, LOCKER ROOM-SCH-K-SPACE FUNCTION ZN, Cooling, 0.00000, 0.00000, 0.00000, 3.17500, FORT MCMURRAY AP ANN CLG .4% CONDNS DB=>MWB, , 28.90000, 8.76969E-003, 2500.00000, 250.09086, 3.17500, 0.00000
 Zone Sizing Information, LOCKER ROOM-SCH-K-SPACE FUNCTION ZN, Heating, 0.00000, 0.00000, 0.00000, 3.17500, FORT MCMURRAY AP ANN HTG 99.6% CONDNS DB, , -36.20000, 1.25811E-004, 2500.00000, 250.09086, 3.17500, 0.00000
 Zone Sizing Information, LOUNGE/BREAK ROOM - HEALTH CARE FACILITY-SPACE FUNCTION ZN, Cooling, 46868.26895, 53898.50929, 3.98506, 4.58282, FORT MCMURRAY AP ANN CLG .4% CONDNS DB=>MWB, 7/21 13:30:00, 28.59000, 8.76969E-003, 1875.00000, 187.56814, 2.38125, 0.00000
 Zone Sizing Information, LOUNGE/BREAK ROOM - HEALTH CARE FACILITY-SPACE FUNCTION ZN, Heating, 13814.60180, 17268.25225, 0.61828, 2.38125, FORT MCMURRAY AP ANN HTG 99.6% CONDNS DB, 1/21 10:00:00, -36.20000, 1.25811E-004, 1875.00000, 187.56814, 2.38125, 0.00000
 Zone Sizing Information, LOUNGE/BREAK ROOM - OTHER-SPACE FUNCTION ZN, Cooling, 22882.59568, 26314.98504, 1.94563, 2.23747, FORT MCMURRAY AP ANN CLG .4% CONDNS DB=>MWB, 7/21 21:00:00, 21.58400, 8.76969E-003, 1875.00000, 187.56814, 1.76213, 0.00000
 Zone Sizing Information, LOUNGE/BREAK ROOM - OTHER-SPACE FUNCTION ZN, Heating, 0.00000, 0.00000, 0.00000, 1.76213, FORT MCMURRAY AP ANN HTG 99.6% CONDNS DB, , -36.20000, 1.25811E-004, 1875.00000, 187.56814, 1.76213, 0.00000
 Zone Sizing Information, OFFICE ENCLOSED <= 25 M2-SPACE FUNCTION ZN, Cooling, 73623.28322, 84666.77571, 6.25909, 7.19795, FORT MCMURRAY AP ANN CLG .4% CONDNS DB=>MWB, 7/21 15:00:00, 28.90000, 8.76969E-003, 2500.00000, 125.04543, 1.05410, 0.00000
 Zone Sizing Information, OFFICE ENCLOSED <= 25 M2-SPACE FUNCTION ZN, Heating, 30419.83003, 38024.78754, 1.38293, 1.72867, FORT MCMURRAY AP ANN HTG 99.6% CONDNS DB, 1/21 08:00:00, -36.20000, 1.25811E-004, 2500.00000, 125.04543, 1.05410, 0.00000
 Zone Sizing Information, OFFICE ENCLOSED > 25 M2-SPACE FUNCTION ZN, Cooling, 68187.98176, 78416.17903, 5.79723, 6.66681, FORT MCMURRAY AP ANN CLG .4% CONDNS DB=>MWB, 7/21 10:00:00, 24.18800, 8.76969E-003, 1875.00000, 93.78407, 0.79058, 0.00000
 Zone Sizing Information, OFFICE ENCLOSED > 25 M2-SPACE FUNCTION ZN, Heating, 43521.32761, 54401.65951, 2.01421, 2.51776, FORT MCMURRAY AP ANN HTG 99.6% CONDNS DB, 1/21 08:00:00, -36.20000, 1.25811E-004, 1875.00000, 93.78407, 0.79058, 0.00000
 Zone Sizing Information, OFFICE OPEN PLAN-SPACE FUNCTION ZN, Cooling, 30551.22383, 35133.90740, 2.59747, 2.98709, FORT MCMURRAY AP ANN CLG .4% CONDNS DB=>MWB, 7/21 17:00:00, 27.16400, 8.76969E-003, 1875.00000, 93.78407, 0.79058, 0.00000
 Zone Sizing Information, OFFICE OPEN PLAN-SPACE FUNCTION ZN, Heating, 0.00000, 0.00000, 0.00000, 0.79058, FORT MCMURRAY AP ANN HTG 99.6% CONDNS DB, , -36.20000, 1.25811E-004, 1875.00000, 93.78407, 0.79058, 0.00000
 Zone Sizing Information, PHARMACY AREA-SPACE FUNCTION ZN, Cooling, 71900.44623, 82685.51317, 6.11279, 7.02971, FORT MCMURRAY AP ANN CLG .4% CONDNS DB=>MWB, 7/21 13:30:00, 28.59000, 8.76969E-003, 1875.00000, 93.78407, 2.15646, 0.00000
 Zone Sizing Information, PHARMACY AREA-SPACE FUNCTION ZN, Heating, 35598.47016, 44498.08770, 1.47984, 2.15646, FORT MCMURRAY AP ANN HTG 99.6% CONDNS DB, 1/21 08:00:00, -36.20000, 1.25811E-004, 1875.00000, 93.78407, 2.15646, 0.00000
 Zone Sizing Information, SALES AREA-SPACE FUNCTION ZN, Cooling, 20602.56701, 23692.95206, 1.75155, 2.19075, FORT MCMURRAY AP ANN CLG .4% CONDNS DB=>MWB, 7/21 17:00:00, 27.16400, 8.76969E-003, 1875.00000, 62.52271, 2.19075, 0.00000
 Zone Sizing Information, SALES AREA-SPACE FUNCTION ZN, Heating, 0.00000, 0.00000, 0.00000, 2.19075, FORT MCMURRAY AP ANN HTG 99.6% CONDNS DB, , -36.20000, 1.25811E-004, 1875.00000, 62.52271, 2.19075, 0.00000
 Zone Sizing Information, SEATING AREA GENERAL-SCH-A-SPACE FUNCTION ZN, Cooling, 23424.21595, 26937.84834, 1.99177, 10.12190, FORT MCMURRAY AP ANN CLG .4% CONDNS DB=>MWB, 7/21 17:00:00, 27.16400, 8.76969E-003, 2500.00000, 250.09086, 10.12190, 0.00000
 Zone Sizing Information, SEATING AREA GENERAL-SCH-A-SPACE FUNCTION ZN, Heating, 0.00000, 0.00000, 0.00000, 10.12190, FORT MCMURRAY AP ANN HTG 99.6% CONDNS DB, , -36.20000, 1.25811E-004, 2500.00000, 250.09086, 10.12190, 0.00000
 Zone Sizing Information, SEATING AREA GENERAL-SCH-B-SPACE FUNCTION ZN, Cooling, 32020.15775, 36823.18141, 2.72234, 10.12190, FORT MCMURRAY AP ANN CLG .4% CONDNS DB=>MWB, 7/21 20:20:00, 22.32800, 8.76969E-003, 2500.00000, 250.09086, 10.12190, 0.00000
 Zone Sizing Information, SEATING AREA GENERAL-SCH-B-SPACE FUNCTION ZN, Heating, 0.00000, 0.00000, 0.00000, 10.12190, FORT MCMURRAY AP ANN HTG 99.6% CONDNS DB, , -36.20000, 1.25811E-004, 2500.00000, 250.09086, 10.12190, 0.00000
 Zone Sizing Information, SEATING AREA GENERAL-SCH-C-SPACE FUNCTION ZN, Cooling, 44503.68824, 51179.24148, 3.43821, 7.59143, FORT MCMURRAY AP ANN CLG .4% CONDNS DB=>MWB, 7/21 08:00:00, 19.72400, 8.76969E-003, 1875.00000, 187.56814, 7.59143, 0.00000
 Zone Sizing Information, SEATING AREA GENERAL-SCH-C-SPACE FUNCTION ZN, Heating, 26608.83149, 33261.03937, 1.21848, 7.59143, FORT MCMURRAY AP ANN HTG 99.6% CONDNS DB, 1/21 09:00:00, -36.20000, 1.25811E-004, 1875.00000, 187.56814, 7.59143, 0.00000
 Zone Sizing Information, SEATING AREA GENERAL-SCH-D-SPACE FUNCTION ZN, Cooling, 20943.05618, 24084.51460, 1.78077, 7.59143, FORT MCMURRAY AP ANN CLG .4% CONDNS DB=>MWB, 7/21 12:00:00, 27.28800, 8.76969E-003, 1875.00000, 187.56814, 7.59143, 0.00000
 Zone Sizing Information, SEATING AREA GENERAL-SCH-D-SPACE FUNCTION ZN, Heating, 1569.81265, 1962.26581, 7.31572E-002, 7.59143, FORT MCMURRAY AP ANN HTG 99.6% CONDNS DB, 1/21 08:40:00, -36.20000, 1.25811E-004, 1875.00000, 187.56814, 7.59143, 0.00000
 Zone Sizing Information, SEATING AREA GENERAL-SCH-E-SPACE FUNCTION ZN, Cooling, 58081.43108, 66793.64574, 4.93850, 7.59143, FORT MCMURRAY AP ANN CLG .4% CONDNS DB=>MWB, 7/21 16:30:00, 27.66000, 8.76969E-003, 1875.00000, 187.56814, 7.59143, 0.00000
 Zone Sizing Information, SEATING AREA GENERAL-SCH-E-SPACE FUNCTION ZN, Heating, 40166.01981, 50207.52476, 1.85731, 7.59143, FORT MCMURRAY AP ANN HTG 99.6% CONDNS DB, 1/21 09:00:00, -36.20000, 1.25811E-004, 1875.00000, 187.56814, 7.59143, 0.00000
 Zone Sizing Information, SEATING AREA GENERAL-SCH-F-SPACE FUNCTION ZN, Cooling, 32991.01550, 37939.66782, 2.80479, 7.59143, FORT MCMURRAY AP ANN CLG .4% CONDNS DB=>MWB, 7/21 18:20:00, 25.30400, 8.76968E-003, 1875.00000, 187.56814, 7.59143, 0.00000
 Zone Sizing Information, SEATING AREA GENERAL-SCH-F-SPACE FUNCTION ZN, Heating, 14386.40462, 17983.00578, 0.66617, 7.59143, FORT MCMURRAY AP ANN HTG 99.6% CONDNS DB, 1/21 09:00:00, -36.20000, 1.25811E-004, 1875.00000, 187.56814, 7.59143, 0.00000
 Zone Sizing Information, SEATING AREA GENERAL-SCH-G-SPACE FUNCTION ZN, Cooling, 21806.53098, 25077.51063, 1.85403, 7.59143, FORT MCMURRAY AP ANN CLG .4% CONDNS DB=>MWB, 7/21 20:20:00, 22.32800, 8.76969E-003, 1875.00000, 187.56814, 7.59143, 0.00000
 Zone Sizing Information, SEATING AREA GENERAL-SCH-G-SPACE FUNCTION ZN, Heating, 1469.75259, 1837.19073, 6.94996E-002, 7.59143, FORT MCMURRAY AP ANN HTG 99.6% CONDNS DB, 1/21 10:50:00, -36.20000, 1.25811E-004, 1875.00000, 187.56814, 7.59143, 0.00000
 Zone Sizing Information, SEATING AREA GENERAL-SCH-H-SPACE FUNCTION ZN, Cooling, 37025.52946, 42579.35888, 3.14828, 7.59143, FORT MCMURRAY AP ANN CLG .4% CONDNS DB=>MWB, 7/21 18:20:00, 25.30400, 8.76968E-003, 1875.00000, 187.56814, 7.59143, 0.00000
 Zone Sizing Information, SEATING AREA GENERAL-SCH-H-SPACE FUNCTION ZN, Heating, 0.00000, 0.00000, 0.00000, 7.59143, FORT MCMURRAY AP ANN HTG 99.6% CONDNS DB, , -36.20000, 1.25811E-004, 1875.00000, 187.56814, 7.59143, 0.00000
 Zone Sizing Information, SEATING AREA GENERAL-SCH-I-SPACE FUNCTION ZN, Cooling, 34892.00030, 40125.80034, 2.67148, 7.59143, FORT MCMURRAY AP ANN CLG .4% CONDNS DB=>MWB, 7/21 15:00:00, 28.90000, 8.76969E-003, 1875.00000, 187.56814, 7.59143, 0.00000
 Zone Sizing Information, SEATING AREA GENERAL-SCH-I-SPACE FUNCTION ZN, Heating, 20008.78839, 25010.98548, 0.90515, 7.59143, FORT MCMURRAY AP ANN HTG 99.6% CONDNS DB, 1/21 16:00:00, -36.20000, 1.25811E-004, 1875.00000, 187.56814, 7.59143, 0.00000
 Zone Sizing Information, SEATING AREA GENERAL-SCH-J-SPACE FUNCTION ZN, Cooling, 21667.94726, 24918.13935, 1.84224, 7.59143, FORT MCMURRAY AP ANN CLG .4% CONDNS DB=>MWB, 7/21 20:40:00, 21.95600, 8.76969E-003, 1875.00000, 187.56814, 7.59143, 0.00000
 Zone Sizing Information, SEATING AREA GENERAL-SCH-J-SPACE FUNCTION ZN, Heating, 838.87997, 1048.59996, 3.96578E-002, 7.59143, FORT MCMURRAY AP ANN HTG 99.6% CONDNS DB, 1/21 18:10:00, -36.20000, 1.25811E-004, 1875.00000, 187.56814, 7.59143, 0.00000
 Zone Sizing Information, SEATING AREA GENERAL-SCH-K-SPACE FUNCTION ZN, Cooling, 0.00000, 0.00000, 0.00000, 7.59143, FORT MCMURRAY AP ANN CLG .4% CONDNS DB=>MWB, , 28.90000, 8.76969E-003, 1875.00000, 187.56814, 7.59143, 0.00000
 Zone Sizing Information, SEATING AREA GENERAL-SCH-K-SPACE FUNCTION ZN, Heating, 0.00000, 0.00000, 0.00000, 7.59143, FORT MCMURRAY AP ANN HTG 99.6% CONDNS DB, , -36.20000, 1.25811E-004, 1875.00000, 187.56814, 7.59143, 0.00000
! <Component Sizing Information>, Component Type, Component Name, Input Field Description, Value
 Component Sizing Information, ZoneHVAC:IdealLoadsAirSystem, ZONE HVAC IDEAL LOADS AIR SYSTEM 1, User-Specified Maximum Heating Air Flow Rate [m3/s], 0.00000
 Component Sizing Information, ZoneHVAC:IdealLoadsAirSystem, ZONE HVAC IDEAL LOADS AIR SYSTEM 1, User-Specified Maximum Cooling Air Flow Rate [m3/s], 0.00000
 Component Sizing Information, ZoneHVAC:IdealLoadsAirSystem, ZONE HVAC IDEAL LOADS AIR SYSTEM 2, User-Specified Maximum Heating Air Flow Rate [m3/s], 0.00000
 Component Sizing Information, ZoneHVAC:IdealLoadsAirSystem, ZONE HVAC IDEAL LOADS AIR SYSTEM 2, User-Specified Maximum Cooling Air Flow Rate [m3/s], 0.00000
 Component Sizing Information, ZoneHVAC:IdealLoadsAirSystem, ZONE HVAC IDEAL LOADS AIR SYSTEM 3, User-Specified Maximum Heating Air Flow Rate [m3/s], 0.00000
 Component Sizing Information, ZoneHVAC:IdealLoadsAirSystem, ZONE HVAC IDEAL LOADS AIR SYSTEM 3, User-Specified Maximum Cooling Air Flow Rate [m3/s], 0.00000
 Component Sizing Information, ZoneHVAC:IdealLoadsAirSystem, ZONE HVAC IDEAL LOADS AIR SYSTEM 4, User-Specified Maximum Heating Air Flow Rate [m3/s], 0.00000
 Component Sizing Information, ZoneHVAC:IdealLoadsAirSystem, ZONE HVAC IDEAL LOADS AIR SYSTEM 4, User-Specified Maximum Cooling Air Flow Rate [m3/s], 0.00000
 Component Sizing Information, ZoneHVAC:IdealLoadsAirSystem, ZONE HVAC IDEAL LOADS AIR SYSTEM 5, User-Specified Maximum Heating Air Flow Rate [m3/s], 0.00000
 Component Sizing Information, ZoneHVAC:IdealLoadsAirSystem, ZONE HVAC IDEAL LOADS AIR SYSTEM 5, User-Specified Maximum Cooling Air Flow Rate [m3/s], 0.00000
 Component Sizing Information, ZoneHVAC:IdealLoadsAirSystem, ZONE HVAC IDEAL LOADS AIR SYSTEM 6, User-Specified Maximum Heating Air Flow Rate [m3/s], 0.00000
 Component Sizing Information, ZoneHVAC:IdealLoadsAirSystem, ZONE HVAC IDEAL LOADS AIR SYSTEM 6, User-Specified Maximum Cooling Air Flow Rate [m3/s], 0.00000
 Component Sizing Information, ZoneHVAC:IdealLoadsAirSystem, ZONE HVAC IDEAL LOADS AIR SYSTEM 7, User-Specified Maximum Heating Air Flow Rate [m3/s], 0.00000
 Component Sizing Information, ZoneHVAC:IdealLoadsAirSystem, ZONE HVAC IDEAL LOADS AIR SYSTEM 7, User-Specified Maximum Cooling Air Flow Rate [m3/s], 0.00000
 Component Sizing Information, ZoneHVAC:IdealLoadsAirSystem, ZONE HVAC IDEAL LOADS AIR SYSTEM 8, User-Specified Maximum Heating Air Flow Rate [m3/s], 0.00000
 Component Sizing Information, ZoneHVAC:IdealLoadsAirSystem, ZONE HVAC IDEAL LOADS AIR SYSTEM 8, User-Specified Maximum Cooling Air Flow Rate [m3/s], 0.00000
 Component Sizing Information, ZoneHVAC:IdealLoadsAirSystem, ZONE HVAC IDEAL LOADS AIR SYSTEM 9, User-Specified Maximum Heating Air Flow Rate [m3/s], 0.00000
 Component Sizing Information, ZoneHVAC:IdealLoadsAirSystem, ZONE HVAC IDEAL LOADS AIR SYSTEM 9, User-Specified Maximum Cooling Air Flow Rate [m3/s], 0.00000
 Component Sizing Information, ZoneHVAC:IdealLoadsAirSystem, ZONE HVAC IDEAL LOADS AIR SYSTEM 10, User-Specified Maximum Heating Air Flow Rate [m3/s], 0.00000
 Component Sizing Information, ZoneHVAC:IdealLoadsAirSystem, ZONE HVAC IDEAL LOADS AIR SYSTEM 10, User-Specified Maximum Cooling Air Flow Rate [m3/s], 0.00000
 Component Sizing Information, ZoneHVAC:IdealLoadsAirSystem, ZONE HVAC IDEAL LOADS AIR SYSTEM 11, User-Specified Maximum Heating Air Flow Rate [m3/s], 0.00000
 Component Sizing Information, ZoneHVAC:IdealLoadsAirSystem, ZONE HVAC IDEAL LOADS AIR SYSTEM 11, User-Specified Maximum Cooling Air Flow Rate [m3/s], 0.00000
 Component Sizing Information, ZoneHVAC:IdealLoadsAirSystem, ZONE HVAC IDEAL LOADS AIR SYSTEM 12, User-Specified Maximum Heating Air Flow Rate [m3/s], 0.00000
 Component Sizing Information, ZoneHVAC:IdealLoadsAirSystem, ZONE HVAC IDEAL LOADS AIR SYSTEM 12, User-Specified Maximum Cooling Air Flow Rate [m3/s], 0.00000
 Component Sizing Information, ZoneHVAC:IdealLoadsAirSystem, ZONE HVAC IDEAL LOADS AIR SYSTEM 13, User-Specified Maximum Heating Air Flow Rate [m3/s], 0.00000
 Component Sizing Information, ZoneHVAC:IdealLoadsAirSystem, ZONE HVAC IDEAL LOADS AIR SYSTEM 13, User-Specified Maximum Cooling Air Flow Rate [m3/s], 0.00000
 Component Sizing Information, ZoneHVAC:IdealLoadsAirSystem, ZONE HVAC IDEAL LOADS AIR SYSTEM 14, User-Specified Maximum Heating Air Flow Rate [m3/s], 0.00000
 Component Sizing Information, ZoneHVAC:IdealLoadsAirSystem, ZONE HVAC IDEAL LOADS AIR SYSTEM 14, User-Specified Maximum Cooling Air Flow Rate [m3/s], 0.00000
 Component Sizing Information, ZoneHVAC:IdealLoadsAirSystem, ZONE HVAC IDEAL LOADS AIR SYSTEM 15, User-Specified Maximum Heating Air Flow Rate [m3/s], 0.00000
 Component Sizing Information, ZoneHVAC:IdealLoadsAirSystem, ZONE HVAC IDEAL LOADS AIR SYSTEM 15, User-Specified Maximum Cooling Air Flow Rate [m3/s], 0.00000
 Component Sizing Information, ZoneHVAC:IdealLoadsAirSystem, ZONE HVAC IDEAL LOADS AIR SYSTEM 16, User-Specified Maximum Heating Air Flow Rate [m3/s], 0.00000
 Component Sizing Information, ZoneHVAC:IdealLoadsAirSystem, ZONE HVAC IDEAL LOADS AIR SYSTEM 16, User-Specified Maximum Cooling Air Flow Rate [m3/s], 0.00000
 Component Sizing Information, ZoneHVAC:IdealLoadsAirSystem, ZONE HVAC IDEAL LOADS AIR SYSTEM 17, User-Specified Maximum Heating Air Flow Rate [m3/s], 0.00000
 Component Sizing Information, ZoneHVAC:IdealLoadsAirSystem, ZONE HVAC IDEAL LOADS AIR SYSTEM 17, User-Specified Maximum Cooling Air Flow Rate [m3/s], 0.00000
 Component Sizing Information, ZoneHVAC:IdealLoadsAirSystem, ZONE HVAC IDEAL LOADS AIR SYSTEM 18, User-Specified Maximum Heating Air Flow Rate [m3/s], 0.00000
 Component Sizing Information, ZoneHVAC:IdealLoadsAirSystem, ZONE HVAC IDEAL LOADS AIR SYSTEM 18, User-Specified Maximum Cooling Air Flow Rate [m3/s], 0.00000
 Component Sizing Information, ZoneHVAC:IdealLoadsAirSystem, ZONE HVAC IDEAL LOADS AIR SYSTEM 19, User-Specified Maximum Heating Air Flow Rate [m3/s], 0.00000
 Component Sizing Information, ZoneHVAC:IdealLoadsAirSystem, ZONE HVAC IDEAL LOADS AIR SYSTEM 19, User-Specified Maximum Cooling Air Flow Rate [m3/s], 0.00000
 Component Sizing Information, ZoneHVAC:IdealLoadsAirSystem, ZONE HVAC IDEAL LOADS AIR SYSTEM 20, User-Specified Maximum Heating Air Flow Rate [m3/s], 0.00000
 Component Sizing Information, ZoneHVAC:IdealLoadsAirSystem, ZONE HVAC IDEAL LOADS AIR SYSTEM 20, User-Specified Maximum Cooling Air Flow Rate [m3/s], 0.00000
! <Environment>,Environment Name,Environment Type, Start Date, End Date, Start DayOfWeek, Duration {#days}, Source:Start DayOfWeek,  Use Daylight Saving, Use Holidays, Apply Weekend Holiday Rule,  Use Rain Values, Use Snow Values
! <Environment:Special Days>, Special Day Name, Special Day Type, Source, Start Date, Duration {#days}
! <Environment:Daylight Saving>, Daylight Saving Indicator, Source, Start Date, End Date
! <Environment:WarmupDays>, NumberofWarmupDays
Environment,FORT MCMURRAY AP ANN CLG .4% CONDNS DB=>MWB,SizingPeriod:DesignDay,07/21,07/21,SummerDesignDay,1,N/A,N/A,N/A,N/A,N/A,N/A
Environment:Daylight Saving,No,SizingPeriod:DesignDay
! <Environment:Design Day Data>, Max Dry-Bulb Temp {C}, Temp Range {dC}, Temp Range Ind Type, Hum Ind Value at Max Temp, Hum Ind Type,Pressure {Pa}, Wind Direction {deg CW from N}, Wind Speed {m/s}, Clearness, Rain, Snow
! <Environment:Design Day Misc>,DayOfYear,ASHRAE A Coeff,ASHRAE B Coeff,ASHRAE C Coeff,Solar Constant-Annual Variation,Eq of Time {minutes}, Solar Declination Angle {deg}, Solar Model
Environment:Design Day Data,28.90,12.40,DefaultMultipliers,96969,250,3.7,0.00,No,No
Environment:Design Day Misc,202,1084.4,0.2082,0.1365,1.0,-6.23,20.6,ASHRAETau
Environment:WarmupDays,  7
! <Tabular Report>,Style,Unit Conversion
Tabular Report,HTML,None
! <Warmup Convergence Information>,Zone Name,Environment Type/Name,Average Warmup Temperature Difference {deltaC},Std Dev Warmup Temperature Difference {deltaC},Max Temperature Pass/Fail Convergence,Min Temperature Pass/Fail Convergence,Average Warmup Load Difference {W},Std Dev Warmup Load Difference {W},Heating Load Pass/Fail Convergence,Cooling Load Pass/Fail Convergence
 Warmup Convergence Information,LOCKER ROOM-SCH-J-SPACE FUNCTION ZN,SizingPeriod: FORT MCMURRAY AP ANN CLG .4% CONDNS DB=>MWB,2.5563864363E-002,4.0400012815E-002,Pass,Pass,1.9053294191E-002,2.2352992150E-002,Pass,Pass
 Warmup Convergence Information,LOCKER ROOM-SCH-K-SPACE FUNCTION ZN,SizingPeriod: FORT MCMURRAY AP ANN CLG .4% CONDNS DB=>MWB,7.1754966088E-002,5.1368559584E-002,Pass,Pass,0.1640719013,0.6190139804,Pass,Pass
 Warmup Convergence Information,LOUNGE/BREAK ROOM - HEALTH CARE FACILITY-SPACE FUNCTION ZN,SizingPeriod: FORT MCMURRAY AP ANN CLG .4% CONDNS DB=>MWB,2.4801635867E-002,4.8846547552E-002,Pass,Pass,3.7076742675E-002,8.4862908877E-002,Pass,Pass
 Warmup Convergence Information,LOUNGE/BREAK ROOM - OTHER-SPACE FUNCTION ZN,SizingPeriod: FORT MCMURRAY AP ANN CLG .4% CONDNS DB=>MWB,2.5944648035E-002,5.1985127272E-002,Pass,Pass,4.7954049496E-002,0.1089068884,Pass,Pass
 Warmup Convergence Information,OFFICE ENCLOSED <= 25 M2-SPACE FUNCTION ZN,SizingPeriod: FORT MCMURRAY AP ANN CLG .4% CONDNS DB=>MWB,2.8169560016E-002,4.7934351733E-002,Pass,Pass,5.0662223732E-002,0.2374409757,Pass,Pass
 Warmup Convergence Information,OFFICE ENCLOSED > 25 M2-SPACE FUNCTION ZN,SizingPeriod: FORT MCMURRAY AP ANN CLG .4% CONDNS DB=>MWB,3.3031054890E-002,5.6552104188E-002,Pass,Pass,5.3857374915E-002,0.2310369881,Pass,Pass
 Warmup Convergence Information,OFFICE OPEN PLAN-SPACE FUNCTION ZN,SizingPeriod: FORT MCMURRAY AP ANN CLG .4% CONDNS DB=>MWB,1.9571212765E-002,3.4580023781E-002,Pass,Pass,4.3463381881E-002,0.1903052305,Pass,Pass
 Warmup Convergence Information,PHARMACY AREA-SPACE FUNCTION ZN,SizingPeriod: FORT MCMURRAY AP ANN CLG .4% CONDNS DB=>MWB,4.1011668706E-002,6.8313366943E-002,Pass,Pass,4.0114282113E-002,0.1423182776,Pass,Pass
 Warmup Convergence Information,SALES AREA-SPACE FUNCTION ZN,SizingPeriod: FORT MCMURRAY AP ANN CLG .4% CONDNS DB=>MWB,3.7693476631E-002,6.8145612106E-002,Pass,Pass,3.9805323760E-002,0.1113552853,Pass,Pass
 Warmup Convergence Information,SEATING AREA GENERAL-SCH-A-SPACE FUNCTION ZN,SizingPeriod: FORT MCMURRAY AP ANN CLG .4% CONDNS DB=>MWB,7.5907665303E-002,0.2124725965,Pass,Pass,0.5411492273,4.0393072240,Pass,Pass
 Warmup Convergence Information,SEATING AREA GENERAL-SCH-B-SPACE FUNCTION ZN,SizingPeriod: FORT MCMURRAY AP ANN CLG .4% CONDNS DB=>MWB,6.1811873036E-002,0.1121593340,Pass,Pass,9.9077736541E-002,0.2141595781,Pass,Pass
 Warmup Convergence Information,SEATING AREA GENERAL-SCH-C-SPACE FUNCTION ZN,SizingPeriod: FORT MCMURRAY AP ANN CLG .4% CONDNS DB=>MWB,5.6510636413E-002,7.4039927705E-002,Pass,Pass,2.1356111728E-002,3.4085641221E-002,Pass,Pass
 Warmup Convergence Information,SEATING AREA GENERAL-SCH-D-SPACE FUNCTION ZN,SizingPeriod: FORT MCMURRAY AP ANN CLG .4% CONDNS DB=>MWB,7.3318520414E-002,0.1718603961,Pass,Pass,0.1027274282,0.2693445941,Pass,Pass
 Warmup Convergence Information,SEATING AREA GENERAL-SCH-E-SPACE FUNCTION ZN,SizingPeriod: FORT MCMURRAY AP ANN CLG .4% CONDNS DB=>MWB,9.2678813715E-002,0.1529531909,Pass,Pass,5.0449404643E-002,0.1497957903,Pass,Pass
 Warmup Convergence Information,SEATING AREA GENERAL-SCH-F-SPACE FUNCTION ZN,SizingPeriod: FORT MCMURRAY AP ANN CLG .4% CONDNS DB=>MWB,5.1765179334E-002,7.4642332665E-002,Pass,Pass,8.3643581589E-002,0.2558732698,Pass,Pass
 Warmup Convergence Information,SEATING AREA GENERAL-SCH-G-SPACE FUNCTION ZN,SizingPeriod: FORT MCMURRAY AP ANN CLG .4% CONDNS DB=>MWB,5.0180059936E-002,7.1645178719E-002,Pass,Pass,0.1328603344,0.8661146654,Pass,Pass
 Warmup Convergence Information,SEATING AREA GENERAL-SCH-H-SPACE FUNCTION ZN,SizingPeriod: FORT MCMURRAY AP ANN CLG .4% CONDNS DB=>MWB,4.3774049332E-002,6.1783959989E-002,Pass,Pass,2.3129883271E-002,2.7215193966E-002,Pass,Pass
 Warmup Convergence Information,SEATING AREA GENERAL-SCH-I-SPACE FUNCTION ZN,SizingPeriod: FORT MCMURRAY AP ANN CLG .4% CONDNS DB=>MWB,0.1083257952,0.2842667990,Pass,Pass,0.1629650260,0.5818587684,Pass,Pass
 Warmup Convergence Information,SEATING AREA GENERAL-SCH-J-SPACE FUNCTION ZN,SizingPeriod: FORT MCMURRAY AP ANN CLG .4% CONDNS DB=>MWB,2.7777101695E-002,5.9110505925E-002,Pass,Pass,2.5195142578E-002,4.1760701385E-002,Pass,Pass
 Warmup Convergence Information,SEATING AREA GENERAL-SCH-K-SPACE FUNCTION ZN,SizingPeriod: FORT MCMURRAY AP ANN CLG .4% CONDNS DB=>MWB,0.1049255453,6.7661286381E-002,Pass,Pass,1.1050349331,11.4623131632,Pass,Pass
Environment,FORT MCMURRAY AP ANN HTG 99.6% CONDNS DB,SizingPeriod:DesignDay,01/21,01/21,WinterDesignDay,1,N/A,N/A,N/A,N/A,N/A,N/A
Environment:Daylight Saving,No,SizingPeriod:DesignDay
Environment:Design Day Data,-36.20,0.00,DefaultMultipliers,96969,90,1.0,0.00,No,No
Environment:Design Day Misc, 21,1229.0,0.1415,5.7310E-002,1.0,-11.15,-20.1,ASHRAEClearSky
Environment:WarmupDays,  6
 Warmup Convergence Information,LOCKER ROOM-SCH-J-SPACE FUNCTION ZN,SizingPeriod: FORT MCMURRAY AP ANN HTG 99.6% CONDNS DB,2.0773506372E-014,1.8357212673E-014,Pass,Pass,8.0085314633E-003,1.7201362100E-002,Pass,Pass
 Warmup Convergence Information,LOCKER ROOM-SCH-K-SPACE FUNCTION ZN,SizingPeriod: FORT MCMURRAY AP ANN HTG 99.6% CONDNS DB,5.4721659303E-014,3.5818472320E-014,Pass,Pass,6.0625773404E-003,1.7038278604E-002,Pass,Pass
 Warmup Convergence Information,LOUNGE/BREAK ROOM - HEALTH CARE FACILITY-SPACE FUNCTION ZN,SizingPeriod: FORT MCMURRAY AP ANN HTG 99.6% CONDNS DB,5.5555555556E-002,0.3661373908,Pass,Pass,0.1188875952,0.5034209620,Pass,Pass
 Warmup Convergence Information,LOUNGE/BREAK ROOM - OTHER-SPACE FUNCTION ZN,SizingPeriod: FORT MCMURRAY AP ANN HTG 99.6% CONDNS DB,5.6653587699E-002,0.3509331806,Pass,Pass,0.3753685976,2.0360850694,Pass,Pass
 Warmup Convergence Information,OFFICE ENCLOSED <= 25 M2-SPACE FUNCTION ZN,SizingPeriod: FORT MCMURRAY AP ANN HTG 99.6% CONDNS DB,5.6842294009E-002,0.3368892966,Pass,Pass,8.9459767772E-002,0.2903645279,Pass,Pass
 Warmup Convergence Information,OFFICE ENCLOSED > 25 M2-SPACE FUNCTION ZN,SizingPeriod: FORT MCMURRAY AP ANN HTG 99.6% CONDNS DB,5.7304553089E-002,0.3312578288,Pass,Pass,0.2662437324,2.0541550421,Pass,Pass
 Warmup Convergence Information,OFFICE OPEN PLAN-SPACE FUNCTION ZN,SizingPeriod: FORT MCMURRAY AP ANN HTG 99.6% CONDNS DB,5.8198350743E-002,0.3283925194,Pass,Pass,0.3748255232,1.9870661826,Pass,Pass
 Warmup Convergence Information,PHARMACY AREA-SPACE FUNCTION ZN,SizingPeriod: FORT MCMURRAY AP ANN HTG 99.6% CONDNS DB,5.5555555556E-002,0.3636707838,Pass,Pass,7.7751367530E-002,0.2414950071,Pass,Pass
 Warmup Convergence Information,SALES AREA-SPACE FUNCTION ZN,SizingPeriod: FORT MCMURRAY AP ANN HTG 99.6% CONDNS DB,5.6076006973E-002,0.3589862778,Pass,Pass,0.6534189183,4.8001892231,Pass,Pass
 Warmup Convergence Information,SEATING AREA GENERAL-SCH-A-SPACE FUNCTION ZN,SizingPeriod: FORT MCMURRAY AP ANN HTG 99.6% CONDNS DB,5.5555555556E-002,0.3891843653,Pass,Pass,0.1973458670,0.5417431773,Pass,Pass
 Warmup Convergence Information,SEATING AREA GENERAL-SCH-B-SPACE FUNCTION ZN,SizingPeriod: FORT MCMURRAY AP ANN HTG 99.6% CONDNS DB,5.5555555556E-002,0.3895837819,Pass,Pass,0.5547360086,3.6593311894,Pass,Pass
 Warmup Convergence Information,SEATING AREA GENERAL-SCH-C-SPACE FUNCTION ZN,SizingPeriod: FORT MCMURRAY AP ANN HTG 99.6% CONDNS DB,5.5555555556E-002,0.3894140892,Pass,Pass,0.1957471211,0.6061055925,Pass,Pass
 Warmup Convergence Information,SEATING AREA GENERAL-SCH-D-SPACE FUNCTION ZN,SizingPeriod: FORT MCMURRAY AP ANN HTG 99.6% CONDNS DB,5.5555555556E-002,0.3892019024,Pass,Pass,0.3804338325,1.5607650020,Pass,Pass
 Warmup Convergence Information,SEATING AREA GENERAL-SCH-E-SPACE FUNCTION ZN,SizingPeriod: FORT MCMURRAY AP ANN HTG 99.6% CONDNS DB,5.5555555556E-002,0.3897141056,Pass,Pass,0.2620416594,1.9507335933,Pass,Pass
 Warmup Convergence Information,SEATING AREA GENERAL-SCH-F-SPACE FUNCTION ZN,SizingPeriod: FORT MCMURRAY AP ANN HTG 99.6% CONDNS DB,5.5555555556E-002,0.3892973347,Pass,Pass,0.1017271456,0.4092691460,Pass,Pass
 Warmup Convergence Information,SEATING AREA GENERAL-SCH-G-SPACE FUNCTION ZN,SizingPeriod: FORT MCMURRAY AP ANN HTG 99.6% CONDNS DB,5.5555555556E-002,0.3890888518,Pass,Pass,0.2338718600,1.0119448877,Pass,Pass
 Warmup Convergence Information,SEATING AREA GENERAL-SCH-H-SPACE FUNCTION ZN,SizingPeriod: FORT MCMURRAY AP ANN HTG 99.6% CONDNS DB,5.5555555556E-002,0.3890638130,Pass,Pass,0.1976456592,1.1255364170,Pass,Pass
 Warmup Convergence Information,SEATING AREA GENERAL-SCH-I-SPACE FUNCTION ZN,SizingPeriod: FORT MCMURRAY AP ANN HTG 99.6% CONDNS DB,5.5555555556E-002,0.3891095187,Pass,Pass,0.2655480118,1.3747644452,Pass,Pass
 Warmup Convergence Information,SEATING AREA GENERAL-SCH-J-SPACE FUNCTION ZN,SizingPeriod: FORT MCMURRAY AP ANN HTG 99.6% CONDNS DB,4.8849813084E-015,3.9248822218E-015,Pass,Pass,1.5790626979E-002,3.9146329948E-002,Pass,Pass
 Warmup Convergence Information,SEATING AREA GENERAL-SCH-K-SPACE FUNCTION ZN,SizingPeriod: FORT MCMURRAY AP ANN HTG 99.6% CONDNS DB,1.2175445837E-014,1.0311137194E-014,Pass,Pass,6.1660269264E-003,1.7809060096E-002,Pass,Pass
! <Program Control Information:Threads/Parallel Sims>, Threading Supported,Maximum Number of Threads, Env Set Threads (OMP_NUM_THREADS), EP Env Set Threads (EP_OMP_NUM_THREADS), IDF Set Threads, Number of Threads Used (Interior Radiant Exchange), Number Nominal Surfaces, Number Parallel Sims
Program Control:Threads/Parallel Sims, No,1, N/A, N/A, N/A, N/A, N/A, N/A
End of Data
