Program Version,EnergyPlus, Version 8.9.0-eba93e8e1b, YMD=2019.03.27 20:00,
   ************* Beginning Zone Sizing Calculations
   ** Warning ** ProcessScheduleInput: Schedule:Day:Interval="ECONOMIZER MAX OA FRACTION 100 PCT DEFAULT", Blank Schedule Type Limits Name input -- will not be validated.
   ** Warning ** ProcessScheduleInput: Schedule:Day:Interval="SCHEDULE DAY 1", Blank Schedule Type Limits Name input -- will not be validated.
   ** Warning ** ProcessScheduleInput: Schedule:Day:Interval="SCHEDULE DAY 10", Blank Schedule Type Limits Name input -- will not be validated.
   ** Warning ** ProcessScheduleInput: Schedule:Day:Interval="SCHEDULE DAY 100", Blank Schedule Type Limits Name input -- will not be validated.
   ** Warning ** ProcessScheduleInput: Schedule:Day:Interval="SCHEDULE DAY 101", Blank Schedule Type Limits Name input -- will not be validated.
   ** Warning ** ProcessScheduleInput: Schedule:Day:Interval="SCHEDULE DAY 102", Blank Schedule Type Limits Name input -- will not be validated.
   ** Warning ** ProcessScheduleInput: Schedule:Day:Interval="SCHEDULE DAY 103", Blank Schedule Type Limits Name input -- will not be validated.
   ** Warning ** ProcessScheduleInput: Schedule:Day:Interval="SCHEDULE DAY 104", Blank Schedule Type Limits Name input -- will not be validated.
   ** Warning ** ProcessScheduleInput: Schedule:Day:Interval="SCHEDULE DAY 105", Blank Schedule Type Limits Name input -- will not be validated.
   ** Warning ** ProcessScheduleInput: Schedule:Day:Interval="SCHEDULE DAY 106", Blank Schedule Type Limits Name input -- will not be validated.
   ** Warning ** ProcessScheduleInput: Schedule:Day:Interval="SCHEDULE DAY 107", Blank Schedule Type Limits Name input -- will not be validated.
   ** Warning ** ProcessScheduleInput: Schedule:Day:Interval="SCHEDULE DAY 108", Blank Schedule Type Limits Name input -- will not be validated.
   ** Warning ** ProcessScheduleInput: Schedule:Day:Interval="SCHEDULE DAY 109", Blank Schedule Type Limits Name input -- will not be validated.
   ** Warning ** ProcessScheduleInput: Schedule:Day:Interval="SCHEDULE DAY 110", Blank Schedule Type Limits Name input -- will not be validated.
   ** Warning ** ProcessScheduleInput: Schedule:Day:Interval="SCHEDULE DAY 111", Blank Schedule Type Limits Name input -- will not be validated.
   ** Warning ** ProcessScheduleInput: Schedule:Day:Interval="SCHEDULE DAY 112", Blank Schedule Type Limits Name input -- will not be validated.
   ** Warning ** ProcessScheduleInput: Schedule:Day:Interval="SCHEDULE DAY 113", Blank Schedule Type Limits Name input -- will not be validated.
   ** Warning ** ProcessScheduleInput: Schedule:Day:Interval="SCHEDULE DAY 16", Blank Schedule Type Limits Name input -- will not be validated.
   ** Warning ** ProcessScheduleInput: Schedule:Day:Interval="SCHEDULE DAY 17", Blank Schedule Type Limits Name input -- will not be validated.
   ** Warning ** ProcessScheduleInput: Schedule:Day:Interval="SCHEDULE DAY 18", Blank Schedule Type Limits Name input -- will not be validated.
   ** Warning ** ProcessScheduleInput: Schedule:Day:Interval="SCHEDULE DAY 19", Blank Schedule Type Limits Name input -- will not be validated.
   ** Warning ** ProcessScheduleInput: Schedule:Day:Interval="SCHEDULE DAY 2", Blank Schedule Type Limits Name input -- will not be validated.
   ** Warning ** ProcessScheduleInput: Schedule:Day:Interval="SCHEDULE DAY 20", Blank Schedule Type Limits Name input -- will not be validated.
   ** Warning ** ProcessScheduleInput: Schedule:Day:Interval="SCHEDULE DAY 21", Blank Schedule Type Limits Name input -- will not be validated.
   ** Warning ** ProcessScheduleInput: Schedule:Day:Interval="SCHEDULE DAY 22", Blank Schedule Type Limits Name input -- will not be validated.
   ** Warning ** ProcessScheduleInput: Schedule:Day:Interval="SCHEDULE DAY 23", Blank Schedule Type Limits Name input -- will not be validated.
   ** Warning ** ProcessScheduleInput: Schedule:Day:Interval="SCHEDULE DAY 24", Blank Schedule Type Limits Name input -- will not be validated.
   ** Warning ** ProcessScheduleInput: Schedule:Day:Interval="SCHEDULE DAY 25", Blank Schedule Type Limits Name input -- will not be validated.
   ** Warning ** ProcessScheduleInput: Schedule:Day:Interval="SCHEDULE DAY 26", Blank Schedule Type Limits Name input -- will not be validated.
   ** Warning ** ProcessScheduleInput: Schedule:Day:Interval="SCHEDULE DAY 27", Blank Schedule Type Limits Name input -- will not be validated.
   ** Warning ** ProcessScheduleInput: Schedule:Day:Interval="SCHEDULE DAY 28", Blank Schedule Type Limits Name input -- will not be validated.
   ** Warning ** ProcessScheduleInput: Schedule:Day:Interval="SCHEDULE DAY 29", Blank Schedule Type Limits Name input -- will not be validated.
   ** Warning ** ProcessScheduleInput: Schedule:Day:Interval="SCHEDULE DAY 30", Blank Schedule Type Limits Name input -- will not be validated.
   ** Warning ** ProcessScheduleInput: Schedule:Day:Interval="SCHEDULE DAY 31", Blank Schedule Type Limits Name input -- will not be validated.
   ** Warning ** ProcessScheduleInput: Schedule:Day:Interval="SCHEDULE DAY 32", Blank Schedule Type Limits Name input -- will not be validated.
   ** Warning ** ProcessScheduleInput: Schedule:Day:Interval="SCHEDULE DAY 33", Blank Schedule Type Limits Name input -- will not be validated.
   ** Warning ** ProcessScheduleInput: Schedule:Day:Interval="SCHEDULE DAY 34", Blank Schedule Type Limits Name input -- will not be validated.
   ** Warning ** ProcessScheduleInput: Schedule:Day:Interval="SCHEDULE DAY 35", Blank Schedule Type Limits Name input -- will not be validated.
   ** Warning ** ProcessScheduleInput: Schedule:Day:Interval="SCHEDULE DAY 36", Blank Schedule Type Limits Name input -- will not be validated.
   ** Warning ** ProcessScheduleInput: Schedule:Day:Interval="SCHEDULE DAY 37", Blank Schedule Type Limits Name input -- will not be validated.
   ** Warning ** ProcessScheduleInput: Schedule:Day:Interval="SCHEDULE DAY 38", Blank Schedule Type Limits Name input -- will not be validated.
   ** Warning ** ProcessScheduleInput: Schedule:Day:Interval="SCHEDULE DAY 39", Blank Schedule Type Limits Name input -- will not be validated.
   ** Warning ** ProcessScheduleInput: Schedule:Day:Interval="SCHEDULE DAY 40", Blank Schedule Type Limits Name input -- will not be validated.
   ** Warning ** ProcessScheduleInput: Schedule:Day:Interval="SCHEDULE DAY 41", Blank Schedule Type Limits Name input -- will not be validated.
   ** Warning ** ProcessScheduleInput: Schedule:Day:Interval="SCHEDULE DAY 42", Blank Schedule Type Limits Name input -- will not be validated.
   ** Warning ** ProcessScheduleInput: Schedule:Day:Interval="SCHEDULE DAY 43", Blank Schedule Type Limits Name input -- will not be validated.
   ** Warning ** ProcessScheduleInput: Schedule:Day:Interval="SCHEDULE DAY 44", Blank Schedule Type Limits Name input -- will not be validated.
   ** Warning ** ProcessScheduleInput: Schedule:Day:Interval="SCHEDULE DAY 45", Blank Schedule Type Limits Name input -- will not be validated.
   ** Warning ** ProcessScheduleInput: Schedule:Day:Interval="SCHEDULE DAY 46", Blank Schedule Type Limits Name input -- will not be validated.
   ** Warning ** ProcessScheduleInput: Schedule:Day:Interval="SCHEDULE DAY 47", Blank Schedule Type Limits Name input -- will not be validated.
   ** Warning ** ProcessScheduleInput: Schedule:Day:Interval="SCHEDULE DAY 48", Blank Schedule Type Limits Name input -- will not be validated.
   ** Warning ** ProcessScheduleInput: Schedule:Day:Interval="SCHEDULE DAY 49", Blank Schedule Type Limits Name input -- will not be validated.
   ** Warning ** ProcessScheduleInput: Schedule:Day:Interval="SCHEDULE DAY 50", Blank Schedule Type Limits Name input -- will not be validated.
   ** Warning ** ProcessScheduleInput: Schedule:Day:Interval="SCHEDULE DAY 51", Blank Schedule Type Limits Name input -- will not be validated.
   ** Warning ** ProcessScheduleInput: Schedule:Day:Interval="SCHEDULE DAY 52", Blank Schedule Type Limits Name input -- will not be validated.
   ** Warning ** ProcessScheduleInput: Schedule:Day:Interval="SCHEDULE DAY 53", Blank Schedule Type Limits Name input -- will not be validated.
   ** Warning ** ProcessScheduleInput: Schedule:Day:Interval="SCHEDULE DAY 54", Blank Schedule Type Limits Name input -- will not be validated.
   ** Warning ** ProcessScheduleInput: Schedule:Day:Interval="SCHEDULE DAY 55", Blank Schedule Type Limits Name input -- will not be validated.
   ** Warning ** ProcessScheduleInput: Schedule:Day:Interval="SCHEDULE DAY 56", Blank Schedule Type Limits Name input -- will not be validated.
   ** Warning ** ProcessScheduleInput: Schedule:Day:Interval="SCHEDULE DAY 57", Blank Schedule Type Limits Name input -- will not be validated.
   ** Warning ** ProcessScheduleInput: Schedule:Day:Interval="SCHEDULE DAY 58", Blank Schedule Type Limits Name input -- will not be validated.
   ** Warning ** ProcessScheduleInput: Schedule:Day:Interval="SCHEDULE DAY 59", Blank Schedule Type Limits Name input -- will not be validated.
   ** Warning ** ProcessScheduleInput: Schedule:Day:Interval="SCHEDULE DAY 6", Blank Schedule Type Limits Name input -- will not be validated.
   ** Warning ** ProcessScheduleInput: Schedule:Day:Interval="SCHEDULE DAY 60", Blank Schedule Type Limits Name input -- will not be validated.
   ** Warning ** ProcessScheduleInput: Schedule:Day:Interval="SCHEDULE DAY 61", Blank Schedule Type Limits Name input -- will not be validated.
   ** Warning ** ProcessScheduleInput: Schedule:Day:Interval="SCHEDULE DAY 62", Blank Schedule Type Limits Name input -- will not be validated.
   ** Warning ** ProcessScheduleInput: Schedule:Day:Interval="SCHEDULE DAY 63", Blank Schedule Type Limits Name input -- will not be validated.
   ** Warning ** ProcessScheduleInput: Schedule:Day:Interval="SCHEDULE DAY 64", Blank Schedule Type Limits Name input -- will not be validated.
   ** Warning ** ProcessScheduleInput: Schedule:Day:Interval="SCHEDULE DAY 65", Blank Schedule Type Limits Name input -- will not be validated.
   ** Warning ** ProcessScheduleInput: Schedule:Day:Interval="SCHEDULE DAY 66", Blank Schedule Type Limits Name input -- will not be validated.
   ** Warning ** ProcessScheduleInput: Schedule:Day:Interval="SCHEDULE DAY 67", Blank Schedule Type Limits Name input -- will not be validated.
   ** Warning ** ProcessScheduleInput: Schedule:Day:Interval="SCHEDULE DAY 68", Blank Schedule Type Limits Name input -- will not be validated.
   ** Warning ** ProcessScheduleInput: Schedule:Day:Interval="SCHEDULE DAY 69", Blank Schedule Type Limits Name input -- will not be validated.
   ** Warning ** ProcessScheduleInput: Schedule:Day:Interval="SCHEDULE DAY 70", Blank Schedule Type Limits Name input -- will not be validated.
   ** Warning ** ProcessScheduleInput: Schedule:Day:Interval="SCHEDULE DAY 71", Blank Schedule Type Limits Name input -- will not be validated.
   ** Warning ** ProcessScheduleInput: Schedule:Day:Interval="SCHEDULE DAY 72", Blank Schedule Type Limits Name input -- will not be validated.
   ** Warning ** ProcessScheduleInput: Schedule:Day:Interval="SCHEDULE DAY 73", Blank Schedule Type Limits Name input -- will not be validated.
   ** Warning ** ProcessScheduleInput: Schedule:Day:Interval="SCHEDULE DAY 74", Blank Schedule Type Limits Name input -- will not be validated.
   ** Warning ** ProcessScheduleInput: Schedule:Day:Interval="SCHEDULE DAY 75", Blank Schedule Type Limits Name input -- will not be validated.
   ** Warning ** ProcessScheduleInput: Schedule:Day:Interval="SCHEDULE DAY 76", Blank Schedule Type Limits Name input -- will not be validated.
   ** Warning ** ProcessScheduleInput: Schedule:Day:Interval="SCHEDULE DAY 77", Blank Schedule Type Limits Name input -- will not be validated.
   ** Warning ** ProcessScheduleInput: Schedule:Day:Interval="SCHEDULE DAY 78", Blank Schedule Type Limits Name input -- will not be validated.
   ** Warning ** ProcessScheduleInput: Schedule:Day:Interval="SCHEDULE DAY 79", Blank Schedule Type Limits Name input -- will not be validated.
   ** Warning ** ProcessScheduleInput: Schedule:Day:Interval="SCHEDULE DAY 80", Blank Schedule Type Limits Name input -- will not be validated.
   ** Warning ** ProcessScheduleInput: Schedule:Day:Interval="SCHEDULE DAY 81", Blank Schedule Type Limits Name input -- will not be validated.
   ** Warning ** ProcessScheduleInput: Schedule:Day:Interval="SCHEDULE DAY 82", Blank Schedule Type Limits Name input -- will not be validated.
   ** Warning ** ProcessScheduleInput: Schedule:Day:Interval="SCHEDULE DAY 83", Blank Schedule Type Limits Name input -- will not be validated.
   ** Warning ** ProcessScheduleInput: Schedule:Day:Interval="SCHEDULE DAY 84", Blank Schedule Type Limits Name input -- will not be validated.
   ** Warning ** ProcessScheduleInput: Schedule:Day:Interval="SCHEDULE DAY 85", Blank Schedule Type Limits Name input -- will not be validated.
   ** Warning ** ProcessScheduleInput: Schedule:Day:Interval="SCHEDULE DAY 86", Blank Schedule Type Limits Name input -- will not be validated.
   ** Warning ** ProcessScheduleInput: Schedule:Day:Interval="SCHEDULE DAY 87", Blank Schedule Type Limits Name input -- will not be validated.
   ** Warning ** ProcessScheduleInput: Schedule:Day:Interval="SCHEDULE DAY 88", Blank Schedule Type Limits Name input -- will not be validated.
   ** Warning ** ProcessScheduleInput: Schedule:Day:Interval="SCHEDULE DAY 89", Blank Schedule Type Limits Name input -- will not be validated.
   ** Warning ** ProcessScheduleInput: Schedule:Day:Interval="SCHEDULE DAY 90", Blank Schedule Type Limits Name input -- will not be validated.
   ** Warning ** ProcessScheduleInput: Schedule:Day:Interval="SCHEDULE DAY 91", Blank Schedule Type Limits Name input -- will not be validated.
   ** Warning ** ProcessScheduleInput: Schedule:Day:Interval="SCHEDULE DAY 92", Blank Schedule Type Limits Name input -- will not be validated.
   ** Warning ** ProcessScheduleInput: Schedule:Day:Interval="SCHEDULE DAY 93", Blank Schedule Type Limits Name input -- will not be validated.
   ** Warning ** ProcessScheduleInput: Schedule:Day:Interval="SCHEDULE DAY 94", Blank Schedule Type Limits Name input -- will not be validated.
   ** Warning ** ProcessScheduleInput: Schedule:Day:Interval="SCHEDULE DAY 95", Blank Schedule Type Limits Name input -- will not be validated.
   ** Warning ** ProcessScheduleInput: Schedule:Day:Interval="SCHEDULE DAY 96", Blank Schedule Type Limits Name input -- will not be validated.
   ** Warning ** ProcessScheduleInput: Schedule:Day:Interval="SCHEDULE DAY 97", Blank Schedule Type Limits Name input -- will not be validated.
   ** Warning ** ProcessScheduleInput: Schedule:Day:Interval="SCHEDULE DAY 98", Blank Schedule Type Limits Name input -- will not be validated.
   ** Warning ** ProcessScheduleInput: Schedule:Day:Interval="SCHEDULE DAY 99", Blank Schedule Type Limits Name input -- will not be validated.
   ** Warning ** ProcessScheduleInput: Schedule:Day:Interval="TPFC_HTG_AVAILABILITY_SCH_RULE_DAY", Blank Schedule Type Limits Name input -- will not be validated.
   ** Warning ** ProcessScheduleInput: Schedule:Day:Interval="TPFC_HTG_AVAILABILITY_SCH_RULE_DAY 1", Blank Schedule Type Limits Name input -- will not be validated.
   ** Warning ** ProcessScheduleInput: Schedule:Day:Interval="TPFC_HTG_AVAILABILITY_SCH_RULE_DAY 2", Blank Schedule Type Limits Name input -- will not be validated.
   ** Warning ** ProcessScheduleInput: Schedule:Day:Interval="TPFC_HTG_AVAILABILITY_SCH_RULE_DAY 3", Blank Schedule Type Limits Name input -- will not be validated.
   ** Warning ** ProcessScheduleInput: Schedule:Day:Interval="TPFC_HTG_AVAILABILITY_SCH_RULE_DAY 4", Blank Schedule Type Limits Name input -- will not be validated.
   ** Warning ** ProcessScheduleInput: Schedule:Day:Interval="TPFC_HTG_AVAILABILITY_SCH_RULE_DAY 5", Blank Schedule Type Limits Name input -- will not be validated.
   ** Warning ** ProcessScheduleInput: Schedule:Year="ECONOMIZER MAX OA FRACTION 100 PCT", Blank Schedule Type Limits Name input -- will not be validated.
   ** Warning ** ProcessScheduleInput: Schedule:Year="SCHEDULE RULESET 10", Blank Schedule Type Limits Name input -- will not be validated.
   ** Warning ** ProcessScheduleInput: Schedule:Year="SCHEDULE RULESET 11", Blank Schedule Type Limits Name input -- will not be validated.
   ** Warning ** ProcessScheduleInput: Schedule:Year="SCHEDULE RULESET 12", Blank Schedule Type Limits Name input -- will not be validated.
   ** Warning ** ProcessScheduleInput: Schedule:Year="SCHEDULE RULESET 13", Blank Schedule Type Limits Name input -- will not be validated.
   ** Warning ** ProcessScheduleInput: Schedule:Year="SCHEDULE RULESET 14", Blank Schedule Type Limits Name input -- will not be validated.
   ** Warning ** ProcessScheduleInput: Schedule:Year="SCHEDULE RULESET 15", Blank Schedule Type Limits Name input -- will not be validated.
   ** Warning ** ProcessScheduleInput: Schedule:Year="SCHEDULE RULESET 16", Blank Schedule Type Limits Name input -- will not be validated.
   ** Warning ** ProcessScheduleInput: Schedule:Year="SCHEDULE RULESET 17", Blank Schedule Type Limits Name input -- will not be validated.
   ** Warning ** ProcessScheduleInput: Schedule:Year="SCHEDULE RULESET 18", Blank Schedule Type Limits Name input -- will not be validated.
   ** Warning ** ProcessScheduleInput: Schedule:Year="SCHEDULE RULESET 19", Blank Schedule Type Limits Name input -- will not be validated.
   ** Warning ** ProcessScheduleInput: Schedule:Year="SCHEDULE RULESET 20", Blank Schedule Type Limits Name input -- will not be validated.
   ** Warning ** ProcessScheduleInput: Schedule:Year="SCHEDULE RULESET 21", Blank Schedule Type Limits Name input -- will not be validated.
   ** Warning ** ProcessScheduleInput: Schedule:Year="SCHEDULE RULESET 22", Blank Schedule Type Limits Name input -- will not be validated.
   ** Warning ** ProcessScheduleInput: Schedule:Year="SCHEDULE RULESET 23", Blank Schedule Type Limits Name input -- will not be validated.
   ** Warning ** ProcessScheduleInput: Schedule:Year="SCHEDULE RULESET 24", Blank Schedule Type Limits Name input -- will not be validated.
   ** Warning ** ProcessScheduleInput: Schedule:Year="SCHEDULE RULESET 25", Blank Schedule Type Limits Name input -- will not be validated.
   ** Warning ** ProcessScheduleInput: Schedule:Year="SCHEDULE RULESET 26", Blank Schedule Type Limits Name input -- will not be validated.
   ** Warning ** ProcessScheduleInput: Schedule:Year="SCHEDULE RULESET 27", Blank Schedule Type Limits Name input -- will not be validated.
   ** Warning ** ProcessScheduleInput: Schedule:Year="SCHEDULE RULESET 28", Blank Schedule Type Limits Name input -- will not be validated.
   ** Warning ** ProcessScheduleInput: Schedule:Year="SCHEDULE RULESET 29", Blank Schedule Type Limits Name input -- will not be validated.
   ** Warning ** ProcessScheduleInput: Schedule:Year="SCHEDULE RULESET 3", Blank Schedule Type Limits Name input -- will not be validated.
   ** Warning ** ProcessScheduleInput: Schedule:Year="SCHEDULE RULESET 30", Blank Schedule Type Limits Name input -- will not be validated.
   ** Warning ** ProcessScheduleInput: Schedule:Year="SCHEDULE RULESET 31", Blank Schedule Type Limits Name input -- will not be validated.
   ** Warning ** ProcessScheduleInput: Schedule:Year="SCHEDULE RULESET 32", Blank Schedule Type Limits Name input -- will not be validated.
   ** Warning ** ProcessScheduleInput: Schedule:Year="SCHEDULE RULESET 33", Blank Schedule Type Limits Name input -- will not be validated.
   ** Warning ** ProcessScheduleInput: Schedule:Year="SCHEDULE RULESET 34", Blank Schedule Type Limits Name input -- will not be validated.
   ** Warning ** ProcessScheduleInput: Schedule:Year="SCHEDULE RULESET 35", Blank Schedule Type Limits Name input -- will not be validated.
   ** Warning ** ProcessScheduleInput: Schedule:Year="SCHEDULE RULESET 36", Blank Schedule Type Limits Name input -- will not be validated.
   ** Warning ** ProcessScheduleInput: Schedule:Year="SCHEDULE RULESET 37", Blank Schedule Type Limits Name input -- will not be validated.
   ** Warning ** ProcessScheduleInput: Schedule:Year="SCHEDULE RULESET 38", Blank Schedule Type Limits Name input -- will not be validated.
   ** Warning ** ProcessScheduleInput: Schedule:Year="SCHEDULE RULESET 39", Blank Schedule Type Limits Name input -- will not be validated.
   ** Warning ** ProcessScheduleInput: Schedule:Year="SCHEDULE RULESET 4", Blank Schedule Type Limits Name input -- will not be validated.
   ** Warning ** ProcessScheduleInput: Schedule:Year="SCHEDULE RULESET 40", Blank Schedule Type Limits Name input -- will not be validated.
   ** Warning ** ProcessScheduleInput: Schedule:Year="SCHEDULE RULESET 41", Blank Schedule Type Limits Name input -- will not be validated.
   ** Warning ** ProcessScheduleInput: Schedule:Year="SCHEDULE RULESET 42", Blank Schedule Type Limits Name input -- will not be validated.
   ** Warning ** ProcessScheduleInput: Schedule:Year="SCHEDULE RULESET 43", Blank Schedule Type Limits Name input -- will not be validated.
   ** Warning ** ProcessScheduleInput: Schedule:Year="SCHEDULE RULESET 44", Blank Schedule Type Limits Name input -- will not be validated.
   ** Warning ** ProcessScheduleInput: Schedule:Year="SCHEDULE RULESET 45", Blank Schedule Type Limits Name input -- will not be validated.
   ** Warning ** ProcessScheduleInput: Schedule:Year="SCHEDULE RULESET 46", Blank Schedule Type Limits Name input -- will not be validated.
   ** Warning ** ProcessScheduleInput: Schedule:Year="SCHEDULE RULESET 47", Blank Schedule Type Limits Name input -- will not be validated.
   ** Warning ** ProcessScheduleInput: Schedule:Year="SCHEDULE RULESET 48", Blank Schedule Type Limits Name input -- will not be validated.
   ** Warning ** ProcessScheduleInput: Schedule:Year="SCHEDULE RULESET 49", Blank Schedule Type Limits Name input -- will not be validated.
   ** Warning ** ProcessScheduleInput: Schedule:Year="SCHEDULE RULESET 5", Blank Schedule Type Limits Name input -- will not be validated.
   ** Warning ** ProcessScheduleInput: Schedule:Year="SCHEDULE RULESET 50", Blank Schedule Type Limits Name input -- will not be validated.
   ** Warning ** ProcessScheduleInput: Schedule:Year="SCHEDULE RULESET 51", Blank Schedule Type Limits Name input -- will not be validated.
   ** Warning ** ProcessScheduleInput: Schedule:Year="SCHEDULE RULESET 52", Blank Schedule Type Limits Name input -- will not be validated.
   ** Warning ** ProcessScheduleInput: Schedule:Year="SCHEDULE RULESET 53", Blank Schedule Type Limits Name input -- will not be validated.
   ** Warning ** ProcessScheduleInput: Schedule:Year="SCHEDULE RULESET 54", Blank Schedule Type Limits Name input -- will not be validated.
   ** Warning ** ProcessScheduleInput: Schedule:Year="SCHEDULE RULESET 55", Blank Schedule Type Limits Name input -- will not be validated.
   ** Warning ** ProcessScheduleInput: Schedule:Year="SCHEDULE RULESET 56", Blank Schedule Type Limits Name input -- will not be validated.
   ** Warning ** ProcessScheduleInput: Schedule:Year="SCHEDULE RULESET 57", Blank Schedule Type Limits Name input -- will not be validated.
   ** Warning ** ProcessScheduleInput: Schedule:Year="SCHEDULE RULESET 58", Blank Schedule Type Limits Name input -- will not be validated.
   ** Warning ** ProcessScheduleInput: Schedule:Year="SCHEDULE RULESET 59", Blank Schedule Type Limits Name input -- will not be validated.
   ** Warning ** ProcessScheduleInput: Schedule:Year="SCHEDULE RULESET 6", Blank Schedule Type Limits Name input -- will not be validated.
   ** Warning ** ProcessScheduleInput: Schedule:Year="SCHEDULE RULESET 60", Blank Schedule Type Limits Name input -- will not be validated.
   ** Warning ** ProcessScheduleInput: Schedule:Year="SCHEDULE RULESET 61", Blank Schedule Type Limits Name input -- will not be validated.
   ** Warning ** ProcessScheduleInput: Schedule:Year="SCHEDULE RULESET 62", Blank Schedule Type Limits Name input -- will not be validated.
   ** Warning ** ProcessScheduleInput: Schedule:Year="SCHEDULE RULESET 7", Blank Schedule Type Limits Name input -- will not be validated.
   ** Warning ** ProcessScheduleInput: Schedule:Year="SCHEDULE RULESET 8", Blank Schedule Type Limits Name input -- will not be validated.
   ** Warning ** ProcessScheduleInput: Schedule:Year="SCHEDULE RULESET 9", Blank Schedule Type Limits Name input -- will not be validated.
   ** Warning ** ProcessScheduleInput: Schedule:Year="TPFC_HTG_AVAILABILITY", Blank Schedule Type Limits Name input -- will not be validated.
   ** Warning ** ProcessScheduleInput: Schedule:Year="TPFC_HTG_AVAILABILITY 1", Blank Schedule Type Limits Name input -- will not be validated.
   ** Warning ** ProcessScheduleInput: Schedule:Constant="ALWAYS OFF DISCRETE", Blank Schedule Type Limits Name input -- will not be validated.
   ** Warning ** ProcessScheduleInput: Schedule:Constant="ALWAYS ON CONTINUOUS", Blank Schedule Type Limits Name input -- will not be validated.
   ** Warning ** CheckUsedConstructions: There are 27 nominally unused constructions in input.
   **   ~~~   ** For explicit details on each unused construction, use Output:Diagnostics,DisplayExtraWarnings;
   ** Warning ** GetInternalHeatGains: People Combination of ZoneList and Object Name generate a name too long.
   **   ~~~   ** Object Name="MULTI-UNIT RESIDENTIAL WHOLEBUILDING PEOPLE".
   **   ~~~   ** ZoneList/Zone Name="DU_BT=MULTI-UNIT RESIDENTIAL_ST=WHOLEBUILDING_FL=STORY 1_SCHG".
   **   ~~~   ** Item length=[104] > Maximum Length=[100]. You may need to shorten the names.
   **   ~~~   ** Shortening the Object Name by [5] characters will assure uniqueness for this ZoneList.
   **   ~~~   ** name that will be used (may be needed in reporting)="DU_BT=MULTI-UNIT RESIDENTIAL_ST=WHOLEBUILDING_FL=STORY 1_SCHG MULTI-UNIT RESIDENTIAL WHOLEBUILDING PEOPLE".
   ** Warning ** GetInternalHeatGains: Lights Combination of ZoneList and Object Name generate a name too long.
   **   ~~~   ** Object Name="MULTI-UNIT RESIDENTIAL WHOLEBUILDING LIGHTS".
   **   ~~~   ** ZoneList/Zone Name="DU_BT=MULTI-UNIT RESIDENTIAL_ST=WHOLEBUILDING_FL=STORY 1_SCHG".
   **   ~~~   ** Item length=[104] > Maximum Length=[100]. You may need to shorten the names.
   **   ~~~   ** Shortening the Object Name by [5] characters will assure uniqueness for this ZoneList.
   **   ~~~   ** name that will be used (may be needed in reporting)="DU_BT=MULTI-UNIT RESIDENTIAL_ST=WHOLEBUILDING_FL=STORY 1_SCHG MULTI-UNIT RESIDENTIAL WHOLEBUILDING LIGHTS".
   ** Warning ** GetInternalHeatGains: ElectricEquipment Combination of ZoneList and Object Name generate a name too long.
   **   ~~~   ** Object Name="MULTI-UNIT RESIDENTIAL WHOLEBUILDING ELEC EQUIP".
   **   ~~~   ** ZoneList/Zone Name="DU_BT=MULTI-UNIT RESIDENTIAL_ST=WHOLEBUILDING_FL=STORY 1_SCHG".
   **   ~~~   ** Item length=[108] > Maximum Length=[100]. You may need to shorten the names.
   **   ~~~   ** Shortening the Object Name by [9] characters will assure uniqueness for this ZoneList.
   **   ~~~   ** name that will be used (may be needed in reporting)="DU_BT=MULTI-UNIT RESIDENTIAL_ST=WHOLEBUILDING_FL=STORY 1_SCHG MULTI-UNIT RESIDENTIAL WHOLEBUILDING ELEC EQUIP".
   ** Warning ** GetSetPointManagerInputs: SetpointManager:SingleZone:Reheat="SETPOINT MANAGER SINGLE ZONE REHEAT 12",
   **   ~~~   ** ...Maximum Supply Air Temperature=[13.0] is less than Minimum Supply Air Temperature=[13.1].
   ** Warning ** GetSetPointManagerInputs: SetpointManager:SingleZone:Reheat="SETPOINT MANAGER SINGLE ZONE REHEAT 13",
   **   ~~~   ** ...Maximum Supply Air Temperature=[13.0] is less than Minimum Supply Air Temperature=[13.1].
   ** Warning ** Calculated design heating load for zone=ALL_ST=WHOLEBUILDING_FL=STORY 1_SCH=F is zero.
   **   ~~~   ** Check Sizing:Zone and ZoneControl:Thermostat inputs.
   ** Warning ** Calculated design heating load for zone=ALL_ST=WHOLEBUILDING_FL=STORY 1_SCH=H is zero.
   **   ~~~   ** Check Sizing:Zone and ZoneControl:Thermostat inputs.
   ** Warning ** Calculated design heating load for zone=ALL_ST=WHOLEBUILDING_FL=STORY 2_SCH=A 1 is zero.
   **   ~~~   ** Check Sizing:Zone and ZoneControl:Thermostat inputs.
   ** Warning ** Calculated design heating load for zone=ALL_ST=WHOLEBUILDING_FL=STORY 3_SCH=B 1 is zero.
   **   ~~~   ** Check Sizing:Zone and ZoneControl:Thermostat inputs.
   ** Warning ** Calculated design heating load for zone=DU_BT=DORMITORY_ST=WHOLEBUILDING_FL=STORY 1_SCHG is zero.
   **   ~~~   ** Check Sizing:Zone and ZoneControl:Thermostat inputs.
   ** Warning ** Calculated design heating load for zone=DU_BT=HOTEL_ST=WHOLEBUILDING_FL=STORY 1_SCHF is zero.
   **   ~~~   ** Check Sizing:Zone and ZoneControl:Thermostat inputs.
   ** Warning ** Calculated design heating load for zone=DU_BT=MULTI-UNIT RESIDENTIAL_ST=WHOLEBUILDING_FL=STORY 1_SCHG is zero.
   **   ~~~   ** Check Sizing:Zone and ZoneControl:Thermostat inputs.
   ************* Beginning System Sizing Calculations
   ** Warning ** Since Zone Minimum Air Flow Input Method = CONSTANT, input for Fixed Minimum Air Flow Rate will be ignored.
   **   ~~~   ** Occurs in AirTerminal:SingleDuct:VAV:Reheat = AIR TERMINAL SINGLE DUCT VAV REHEAT 1
   ** Warning ** Since Damper Heating Action = NORMAL, input for Maximum Flow Fraction During Reheat will be ignored.
   **   ~~~   ** Occurs in AirTerminal:SingleDuct:VAV:Reheat = AIR TERMINAL SINGLE DUCT VAV REHEAT 1
   ** Warning ** Since Zone Minimum Air Flow Input Method = CONSTANT, input for Fixed Minimum Air Flow Rate will be ignored.
   **   ~~~   ** Occurs in AirTerminal:SingleDuct:VAV:Reheat = AIR TERMINAL SINGLE DUCT VAV REHEAT 2
   ** Warning ** Since Damper Heating Action = NORMAL, input for Maximum Flow Fraction During Reheat will be ignored.
   **   ~~~   ** Occurs in AirTerminal:SingleDuct:VAV:Reheat = AIR TERMINAL SINGLE DUCT VAV REHEAT 2
   ** Warning ** Since Zone Minimum Air Flow Input Method = CONSTANT, input for Fixed Minimum Air Flow Rate will be ignored.
   **   ~~~   ** Occurs in AirTerminal:SingleDuct:VAV:Reheat = AIR TERMINAL SINGLE DUCT VAV REHEAT 3
   ** Warning ** Since Zone Minimum Air Flow Input Method = CONSTANT, input for Fixed Minimum Air Flow Rate will be ignored.
   **   ~~~   ** Occurs in AirTerminal:SingleDuct:VAV:Reheat = AIR TERMINAL SINGLE DUCT VAV REHEAT 4
   ** Warning ** GetDXCoils: Coil:Cooling:DX:SingleSpeed="COIL COOLING DX SINGLE SPEED 3 99KBTU/HR 9.3EER", invalid
   **   ~~~   ** ...Part Load Fraction Correlation Curve Name = DXCOOL-NECB2011-REF-COOLPLFFPLR has out of range value.
   **   ~~~   ** ...Curve maximum must be <= 1.0, curve max at PLR = 0.99 is 1.015
   **   ~~~   ** ...Setting curve maximum to 1.0 and simulation continues.
   ************* Beginning Plant Sizing Calculations
   ** Warning ** The Standard Ratings is calculated for Coil:Cooling:DX:SingleSpeed = COIL COOLING DX SINGLE SPEED 3 99KBTU/HR 9.3EER but not at the AHRI test condition due to curve out of bound.
   **   ~~~   **  Review the Standard Ratings calculations in the Engineering Reference for this coil type. Also, use Output:Diagnostics, DisplayExtraWarnings for further guidance.
   ** Warning ** The Standard Ratings is calculated for Coil:Cooling:DX:SingleSpeed = COIL COOLING DX SINGLE SPEED 5 100KBTU/HR 9.3EER but not at the AHRI test condition due to curve out of bound.
   **   ~~~   **  Review the Standard Ratings calculations in the Engineering Reference for this coil type. Also, use Output:Diagnostics, DisplayExtraWarnings for further guidance.
   ** Warning ** The Standard Ratings is calculated for Coil:Cooling:DX:SingleSpeed = COIL COOLING DX SINGLE SPEED 7 102KBTU/HR 9.3EER but not at the AHRI test condition due to curve out of bound.
   **   ~~~   **  Review the Standard Ratings calculations in the Engineering Reference for this coil type. Also, use Output:Diagnostics, DisplayExtraWarnings for further guidance.
   ** Warning ** The Standard Ratings is calculated for Coil:Cooling:DX:SingleSpeed = COIL COOLING DX SINGLE SPEED 2 43KBTU/HR 14.0SEER but not at the AHRI test condition due to curve out of bound.
   **   ~~~   **  Review the Standard Ratings calculations in the Engineering Reference for this coil type. Also, use Output:Diagnostics, DisplayExtraWarnings for further guidance.
   ** Warning ** The Standard Ratings is calculated for Coil:Cooling:DX:SingleSpeed = COIL COOLING DX SINGLE SPEED 4 43KBTU/HR 14.0SEER but not at the AHRI test condition due to curve out of bound.
   **   ~~~   **  Review the Standard Ratings calculations in the Engineering Reference for this coil type. Also, use Output:Diagnostics, DisplayExtraWarnings for further guidance.
   ** Warning ** The Standard Ratings is calculated for Coil:Cooling:DX:SingleSpeed = COIL COOLING DX SINGLE SPEED 6 49KBTU/HR 14.0SEER but not at the AHRI test condition due to curve out of bound.
   **   ~~~   **  Review the Standard Ratings calculations in the Engineering Reference for this coil type. Also, use Output:Diagnostics, DisplayExtraWarnings for further guidance.
   ** Warning ** The Standard Ratings is calculated for Coil:Cooling:DX:SingleSpeed = COIL COOLING DX SINGLE SPEED 18 266KBTU/HR 8.21EER but not at the AHRI test condition due to curve out of bound.
   **   ~~~   **  Review the Standard Ratings calculations in the Engineering Reference for this coil type. Also, use Output:Diagnostics, DisplayExtraWarnings for further guidance.
   ** Warning ** The Standard Ratings is calculated for Coil:Cooling:DX:SingleSpeed = COIL COOLING DX SINGLE SPEED 19 214KBTU/HR 9.7EER but not at the AHRI test condition due to curve out of bound.
   **   ~~~   **  Review the Standard Ratings calculations in the Engineering Reference for this coil type. Also, use Output:Diagnostics, DisplayExtraWarnings for further guidance.
   ** Warning ** The Standard Ratings is calculated for Coil:Cooling:DX:SingleSpeed = COIL COOLING DX SINGLE SPEED 15 244KBTU/HR 9.7EER but not at the AHRI test condition due to curve out of bound.
   **   ~~~   **  Review the Standard Ratings calculations in the Engineering Reference for this coil type. Also, use Output:Diagnostics, DisplayExtraWarnings for further guidance.
   ** Warning ** The Standard Ratings is calculated for Coil:Cooling:DX:SingleSpeed = COIL COOLING DX SINGLE SPEED 16 212KBTU/HR 9.7EER but not at the AHRI test condition due to curve out of bound.
   **   ~~~   **  Review the Standard Ratings calculations in the Engineering Reference for this coil type. Also, use Output:Diagnostics, DisplayExtraWarnings for further guidance.
   ** Warning ** The Standard Ratings is calculated for Coil:Cooling:DX:SingleSpeed = COIL COOLING DX SINGLE SPEED 13 241KBTU/HR 9.7EER but not at the AHRI test condition due to curve out of bound.
   **   ~~~   **  Review the Standard Ratings calculations in the Engineering Reference for this coil type. Also, use Output:Diagnostics, DisplayExtraWarnings for further guidance.
   ** Warning ** The Standard Ratings is calculated for Coil:Cooling:DX:SingleSpeed = COIL COOLING DX SINGLE SPEED 14 220KBTU/HR 9.7EER but not at the AHRI test condition due to curve out of bound.
   **   ~~~   **  Review the Standard Ratings calculations in the Engineering Reference for this coil type. Also, use Output:Diagnostics, DisplayExtraWarnings for further guidance.
   ** Warning ** The Standard Ratings is calculated for Coil:Cooling:DX:SingleSpeed = COIL COOLING DX SINGLE SPEED 17 220KBTU/HR 9.7EER but not at the AHRI test condition due to curve out of bound.
   **   ~~~   **  Review the Standard Ratings calculations in the Engineering Reference for this coil type. Also, use Output:Diagnostics, DisplayExtraWarnings for further guidance.
   ** Warning ** The Standard Ratings is calculated for Coil:Cooling:DX:SingleSpeed = COIL COOLING DX SINGLE SPEED 11 417KBTU/HR 8.21EER but not at the AHRI test condition due to curve out of bound.
   **   ~~~   **  Review the Standard Ratings calculations in the Engineering Reference for this coil type. Also, use Output:Diagnostics, DisplayExtraWarnings for further guidance.
   ** Warning ** The Standard Ratings is calculated for Coil:Cooling:DX:SingleSpeed = COIL COOLING DX SINGLE SPEED 12 332KBTU/HR 8.21EER but not at the AHRI test condition due to curve out of bound.
   **   ~~~   **  Review the Standard Ratings calculations in the Engineering Reference for this coil type. Also, use Output:Diagnostics, DisplayExtraWarnings for further guidance.
   ** Warning ** The Standard Ratings is calculated for Coil:Cooling:DX:SingleSpeed = COIL COOLING DX SINGLE SPEED 10 378KBTU/HR 8.21EER but not at the AHRI test condition due to curve out of bound.
   **   ~~~   **  Review the Standard Ratings calculations in the Engineering Reference for this coil type. Also, use Output:Diagnostics, DisplayExtraWarnings for further guidance.
   ** Warning ** The Standard Ratings is calculated for Coil:Cooling:DX:SingleSpeed = COIL COOLING DX SINGLE SPEED 1 83KBTU/HR 9.7EER but not at the AHRI test condition due to curve out of bound.
   **   ~~~   **  Review the Standard Ratings calculations in the Engineering Reference for this coil type. Also, use Output:Diagnostics, DisplayExtraWarnings for further guidance.
   ** Warning ** The Standard Ratings is calculated for Coil:Cooling:DX:SingleSpeed = COIL COOLING DX SINGLE SPEED 9 80KBTU/HR 9.7EER but not at the AHRI test condition due to curve out of bound.
   **   ~~~   **  Review the Standard Ratings calculations in the Engineering Reference for this coil type. Also, use Output:Diagnostics, DisplayExtraWarnings for further guidance.
   ** Warning ** The Standard Ratings is calculated for Coil:Cooling:DX:SingleSpeed = COIL COOLING DX SINGLE SPEED 8 411KBTU/HR 8.21EER but not at the AHRI test condition due to curve out of bound.
   **   ~~~   **  Review the Standard Ratings calculations in the Engineering Reference for this coil type. Also, use Output:Diagnostics, DisplayExtraWarnings for further guidance.
   ** Warning ** Missing temperature setpoint for LeavingSetpointModulated mode chiller named PRIMARY CHILLER WATERCOOLED SCROLL 95TONS 0.8KW/TON
   **   ~~~   **   A temperature setpoint is needed at the outlet node of a chiller in variable flow mode, use a SetpointManager
   **   ~~~   **   The overall loop setpoint will be assumed for chiller. The simulation continues ... 
   ** Warning ** Missing temperature setpoint for LeavingSetpointModulated mode chiller named SECONDARY CHILLER WATERCOOLED SCROLL 0TONS 0.8KW/TON
   **   ~~~   **   A temperature setpoint is needed at the outlet node of a chiller in variable flow mode, use a SetpointManager
   **   ~~~   **   The overall loop setpoint will be assumed for chiller. The simulation continues ... 
   ** Warning ** Missing temperature setpoint for LeavingSetpointModulated mode chiller named PRIMARY CHILLER WATERCOOLED SCROLL 1 19TONS 0.8KW/TON
   **   ~~~   **   A temperature setpoint is needed at the outlet node of a chiller in variable flow mode, use a SetpointManager
   **   ~~~   **   The overall loop setpoint will be assumed for chiller. The simulation continues ... 
   ** Warning ** Missing temperature setpoint for LeavingSetpointModulated mode chiller named SECONDARY CHILLER WATERCOOLED SCROLL 1 0TONS 0.8KW/TON
   **   ~~~   **   A temperature setpoint is needed at the outlet node of a chiller in variable flow mode, use a SetpointManager
   **   ~~~   **   The overall loop setpoint will be assumed for chiller. The simulation continues ... 
   ** Warning ** Missing temperature setpoint for LeavingSetpointModulated mode chiller named PRIMARY CHILLER WATERCOOLED SCROLL 2 13TONS 0.8KW/TON
   **   ~~~   **   A temperature setpoint is needed at the outlet node of a chiller in variable flow mode, use a SetpointManager
   **   ~~~   **   The overall loop setpoint will be assumed for chiller. The simulation continues ... 
   ** Warning ** Missing temperature setpoint for LeavingSetpointModulated mode chiller named SECONDARY CHILLER WATERCOOLED SCROLL 2 0TONS 0.8KW/TON
   **   ~~~   **   A temperature setpoint is needed at the outlet node of a chiller in variable flow mode, use a SetpointManager
   **   ~~~   **   The overall loop setpoint will be assumed for chiller. The simulation continues ... 
   ** Warning ** Error when autosizing the load for cooling tower = COOLING TOWER SINGLE SPEED 1. Tower Design Range Temperature is different from the Design Loop Delta Temperature.
   **   ~~~   ** Tower Design Range Temperature specified in tower = COOLING TOWER SINGLE SPEED 1
   **   ~~~   ** is inconsistent with Design Loop Delta Temperature specified in Sizing:Plant object = CONDENSER WATER LOOP.
   **   ~~~   ** ..The Design Range Temperature specified in tower is = 5.00
   **   ~~~   ** ..The Design Loop Delta Temperature specified in plant sizing data is = 6.00
   ** Warning ** Error when autosizing the load for cooling tower = COOLING TOWER SINGLE SPEED 2. Tower Design Range Temperature is different from the Design Loop Delta Temperature.
   **   ~~~   ** Tower Design Range Temperature specified in tower = COOLING TOWER SINGLE SPEED 2
   **   ~~~   ** is inconsistent with Design Loop Delta Temperature specified in Sizing:Plant object = CONDENSER WATER LOOP 1.
   **   ~~~   ** ..The Design Range Temperature specified in tower is = 5.00
   **   ~~~   ** ..The Design Loop Delta Temperature specified in plant sizing data is = 6.00
   ** Warning ** Error when autosizing the load for cooling tower = COOLING TOWER SINGLE SPEED 3. Tower Design Range Temperature is different from the Design Loop Delta Temperature.
   **   ~~~   ** Tower Design Range Temperature specified in tower = COOLING TOWER SINGLE SPEED 3
   **   ~~~   ** is inconsistent with Design Loop Delta Temperature specified in Sizing:Plant object = CONDENSER WATER LOOP 2.
   **   ~~~   ** ..The Design Range Temperature specified in tower is = 5.00
   **   ~~~   ** ..The Design Loop Delta Temperature specified in plant sizing data is = 6.00
   ** Warning ** Error when autosizing the load for cooling tower = COOLING TOWER SINGLE SPEED 1. Tower Design Range Temperature is different from the Design Loop Delta Temperature.
   **   ~~~   ** Tower Design Range Temperature specified in tower = COOLING TOWER SINGLE SPEED 1
   **   ~~~   ** is inconsistent with Design Loop Delta Temperature specified in Sizing:Plant object = CONDENSER WATER LOOP.
   **   ~~~   ** ..The Design Range Temperature specified in tower is = 5.00
   **   ~~~   ** ..The Design Loop Delta Temperature specified in plant sizing data is = 6.00
   ** Warning ** Error when autosizing the load for cooling tower = COOLING TOWER SINGLE SPEED 2. Tower Design Range Temperature is different from the Design Loop Delta Temperature.
   **   ~~~   ** Tower Design Range Temperature specified in tower = COOLING TOWER SINGLE SPEED 2
   **   ~~~   ** is inconsistent with Design Loop Delta Temperature specified in Sizing:Plant object = CONDENSER WATER LOOP 1.
   **   ~~~   ** ..The Design Range Temperature specified in tower is = 5.00
   **   ~~~   ** ..The Design Loop Delta Temperature specified in plant sizing data is = 6.00
   ** Warning ** Error when autosizing the load for cooling tower = COOLING TOWER SINGLE SPEED 3. Tower Design Range Temperature is different from the Design Loop Delta Temperature.
   **   ~~~   ** Tower Design Range Temperature specified in tower = COOLING TOWER SINGLE SPEED 3
   **   ~~~   ** is inconsistent with Design Loop Delta Temperature specified in Sizing:Plant object = CONDENSER WATER LOOP 2.
   **   ~~~   ** ..The Design Range Temperature specified in tower is = 5.00
   **   ~~~   ** ..The Design Loop Delta Temperature specified in plant sizing data is = 6.00
   ** Warning ** Error when autosizing the load for cooling tower = COOLING TOWER SINGLE SPEED 1. Tower Design Range Temperature is different from the Design Loop Delta Temperature.
   **   ~~~   ** Tower Design Range Temperature specified in tower = COOLING TOWER SINGLE SPEED 1
   **   ~~~   ** is inconsistent with Design Loop Delta Temperature specified in Sizing:Plant object = CONDENSER WATER LOOP.
   **   ~~~   ** ..The Design Range Temperature specified in tower is = 5.00
   **   ~~~   ** ..The Design Loop Delta Temperature specified in plant sizing data is = 6.00
   ** Warning ** Error when autosizing the load for cooling tower = COOLING TOWER SINGLE SPEED 2. Tower Design Range Temperature is different from the Design Loop Delta Temperature.
   **   ~~~   ** Tower Design Range Temperature specified in tower = COOLING TOWER SINGLE SPEED 2
   **   ~~~   ** is inconsistent with Design Loop Delta Temperature specified in Sizing:Plant object = CONDENSER WATER LOOP 1.
   **   ~~~   ** ..The Design Range Temperature specified in tower is = 5.00
   **   ~~~   ** ..The Design Loop Delta Temperature specified in plant sizing data is = 6.00
   ** Warning ** Error when autosizing the load for cooling tower = COOLING TOWER SINGLE SPEED 3. Tower Design Range Temperature is different from the Design Loop Delta Temperature.
   **   ~~~   ** Tower Design Range Temperature specified in tower = COOLING TOWER SINGLE SPEED 3
   **   ~~~   ** is inconsistent with Design Loop Delta Temperature specified in Sizing:Plant object = CONDENSER WATER LOOP 2.
   **   ~~~   ** ..The Design Range Temperature specified in tower is = 5.00
   **   ~~~   ** ..The Design Loop Delta Temperature specified in plant sizing data is = 6.00
   ** Warning ** Error when autosizing the load for cooling tower = COOLING TOWER SINGLE SPEED 1. Tower Design Range Temperature is different from the Design Loop Delta Temperature.
   **   ~~~   ** Tower Design Range Temperature specified in tower = COOLING TOWER SINGLE SPEED 1
   **   ~~~   ** is inconsistent with Design Loop Delta Temperature specified in Sizing:Plant object = CONDENSER WATER LOOP.
   **   ~~~   ** ..The Design Range Temperature specified in tower is = 5.00
   **   ~~~   ** ..The Design Loop Delta Temperature specified in plant sizing data is = 6.00
   ** Warning ** Error when autosizing the load for cooling tower = COOLING TOWER SINGLE SPEED 2. Tower Design Range Temperature is different from the Design Loop Delta Temperature.
   **   ~~~   ** Tower Design Range Temperature specified in tower = COOLING TOWER SINGLE SPEED 2
   **   ~~~   ** is inconsistent with Design Loop Delta Temperature specified in Sizing:Plant object = CONDENSER WATER LOOP 1.
   **   ~~~   ** ..The Design Range Temperature specified in tower is = 5.00
   **   ~~~   ** ..The Design Loop Delta Temperature specified in plant sizing data is = 6.00
   ** Warning ** Error when autosizing the load for cooling tower = COOLING TOWER SINGLE SPEED 3. Tower Design Range Temperature is different from the Design Loop Delta Temperature.
   **   ~~~   ** Tower Design Range Temperature specified in tower = COOLING TOWER SINGLE SPEED 3
   **   ~~~   ** is inconsistent with Design Loop Delta Temperature specified in Sizing:Plant object = CONDENSER WATER LOOP 2.
   **   ~~~   ** ..The Design Range Temperature specified in tower is = 5.00
   **   ~~~   ** ..The Design Loop Delta Temperature specified in plant sizing data is = 6.00
   ** Warning ** Error when autosizing the load for cooling tower = COOLING TOWER SINGLE SPEED 1. Tower Design Range Temperature is different from the Design Loop Delta Temperature.
   **   ~~~   ** Tower Design Range Temperature specified in tower = COOLING TOWER SINGLE SPEED 1
   **   ~~~   ** is inconsistent with Design Loop Delta Temperature specified in Sizing:Plant object = CONDENSER WATER LOOP.
   **   ~~~   ** ..The Design Range Temperature specified in tower is = 5.00
   **   ~~~   ** ..The Design Loop Delta Temperature specified in plant sizing data is = 6.00
   ** Warning ** Error when autosizing the load for cooling tower = COOLING TOWER SINGLE SPEED 2. Tower Design Range Temperature is different from the Design Loop Delta Temperature.
   **   ~~~   ** Tower Design Range Temperature specified in tower = COOLING TOWER SINGLE SPEED 2
   **   ~~~   ** is inconsistent with Design Loop Delta Temperature specified in Sizing:Plant object = CONDENSER WATER LOOP 1.
   **   ~~~   ** ..The Design Range Temperature specified in tower is = 5.00
   **   ~~~   ** ..The Design Loop Delta Temperature specified in plant sizing data is = 6.00
   ** Warning ** Error when autosizing the load for cooling tower = COOLING TOWER SINGLE SPEED 3. Tower Design Range Temperature is different from the Design Loop Delta Temperature.
   **   ~~~   ** Tower Design Range Temperature specified in tower = COOLING TOWER SINGLE SPEED 3
   **   ~~~   ** is inconsistent with Design Loop Delta Temperature specified in Sizing:Plant object = CONDENSER WATER LOOP 2.
   **   ~~~   ** ..The Design Range Temperature specified in tower is = 5.00
   **   ~~~   ** ..The Design Loop Delta Temperature specified in plant sizing data is = 6.00
   ** Warning ** Error when autosizing the load for cooling tower = COOLING TOWER SINGLE SPEED 1. Tower Design Range Temperature is different from the Design Loop Delta Temperature.
   **   ~~~   ** Tower Design Range Temperature specified in tower = COOLING TOWER SINGLE SPEED 1
   **   ~~~   ** is inconsistent with Design Loop Delta Temperature specified in Sizing:Plant object = CONDENSER WATER LOOP.
   **   ~~~   ** ..The Design Range Temperature specified in tower is = 5.00
   **   ~~~   ** ..The Design Loop Delta Temperature specified in plant sizing data is = 6.00
   ** Warning ** Error when autosizing the load for cooling tower = COOLING TOWER SINGLE SPEED 2. Tower Design Range Temperature is different from the Design Loop Delta Temperature.
   **   ~~~   ** Tower Design Range Temperature specified in tower = COOLING TOWER SINGLE SPEED 2
   **   ~~~   ** is inconsistent with Design Loop Delta Temperature specified in Sizing:Plant object = CONDENSER WATER LOOP 1.
   **   ~~~   ** ..The Design Range Temperature specified in tower is = 5.00
   **   ~~~   ** ..The Design Loop Delta Temperature specified in plant sizing data is = 6.00
   ** Warning ** Error when autosizing the load for cooling tower = COOLING TOWER SINGLE SPEED 3. Tower Design Range Temperature is different from the Design Loop Delta Temperature.
   **   ~~~   ** Tower Design Range Temperature specified in tower = COOLING TOWER SINGLE SPEED 3
   **   ~~~   ** is inconsistent with Design Loop Delta Temperature specified in Sizing:Plant object = CONDENSER WATER LOOP 2.
   **   ~~~   ** ..The Design Range Temperature specified in tower is = 5.00
   **   ~~~   ** ..The Design Loop Delta Temperature specified in plant sizing data is = 6.00
   ** Warning ** Missing temperature setpoint for LeavingSetpointModulated mode Boiler named PRIMARY BOILER 4372KBTU/HR 0.833 COMBUSTION EFF
   **   ~~~   **   A temperature setpoint is needed at the outlet node of a boiler in variable flow mode, use a SetpointManager
   **   ~~~   **   The overall loop setpoint will be assumed for Boiler. The simulation continues ... 
   ** Warning ** Output:Meter: invalid Key Name="DISTRICTCOOLING:FACILITY" - not found.
   ** Warning ** Output:Meter: invalid Key Name="DISTRICTHEATING:FACILITY" - not found.
   ** Warning ** Output:Meter:MeterFileOnly requested for "Electricity:Facility" (TimeStep), already on "Output:Meter". Will report to both eplusout.eso and eplusout.mtr
   ************* Testing Individual Branch Integrity
   ************* All Branches passed integrity testing
   ************* Testing Individual Supply Air Path Integrity
   ************* All Supply Air Paths passed integrity testing
   ************* Testing Individual Return Air Path Integrity
   ************* All Return Air Paths passed integrity testing
   ************* No node connection errors were found.
   ************* Beginning Simulation
   ** Severe  ** CheckWarmupConvergence: Loads Initialization, Zone="ALL_ST=WHOLEBUILDING_FL=STORY 2_SCH=C" did not converge after 25 warmup days.
   **   ~~~   ** See Warmup Convergence Information in .eio file for details.
   **   ~~~   ** ...Environment(RunPeriod)="RUN PERIOD 1"
   **   ~~~   ** ..Max Temp Comparison = 5.41E-005 vs Temperature Convergence Tolerance=0.40 - Pass Convergence
   **   ~~~   ** ..Min Temp Comparison = 1.28E-005 vs Temperature Convergence Tolerance=0.40 - Pass Convergence
   **   ~~~   ** ..Max Heat Load Comparison = 0.1000 vs Loads Convergence Tolerance=4.00E-002 - Fail Convergence
   **   ~~~   ** ..Max Cool Load Comparison = 8.0450E-006 vs Loads Convergence Tolerance=4.00E-002 - Pass Convergence
   ** Severe  ** CheckWarmupConvergence: Loads Initialization, Zone="ALL_ST=WHOLEBUILDING_FL=STORY 3_SCH=B 2" did not converge after 25 warmup days.
   **   ~~~   ** ...Environment(RunPeriod)="RUN PERIOD 1"
   **   ~~~   ** ..Max Temp Comparison = 0.28 vs Temperature Convergence Tolerance=0.40 - Pass Convergence
   **   ~~~   ** ..Min Temp Comparison = 1.54E-002 vs Temperature Convergence Tolerance=0.40 - Pass Convergence
   **   ~~~   ** ..Max Heat Load Comparison = 0.9230 vs Loads Convergence Tolerance=4.00E-002 - Fail Convergence
   **   ~~~   ** ..Max Cool Load Comparison = 4.5300E-002 vs Loads Convergence Tolerance=4.00E-002 - Fail Convergence
   ** Severe  ** CheckWarmupConvergence: Loads Initialization, Zone="ALL_ST=WHOLEBUILDING_FL=STORY 3_SCH=C 1" did not converge after 25 warmup days.
   **   ~~~   ** ...Environment(RunPeriod)="RUN PERIOD 1"
   **   ~~~   ** ..Max Temp Comparison = 6.25E-004 vs Temperature Convergence Tolerance=0.40 - Pass Convergence
   **   ~~~   ** ..Min Temp Comparison = 1.18E-003 vs Temperature Convergence Tolerance=0.40 - Pass Convergence
   **   ~~~   ** ..Max Heat Load Comparison = 0.1410 vs Loads Convergence Tolerance=4.00E-002 - Fail Convergence
   **   ~~~   ** ..Max Cool Load Comparison = 4.9066E-004 vs Loads Convergence Tolerance=4.00E-002 - Pass Convergence
   ** Severe  ** CheckWarmupConvergence: Loads Initialization, Zone="ALL_ST=WHOLEBUILDING_FL=STORY 4_SCH=B" did not converge after 25 warmup days.
   **   ~~~   ** ...Environment(RunPeriod)="RUN PERIOD 1"
   **   ~~~   ** ..Max Temp Comparison = 7.19E-003 vs Temperature Convergence Tolerance=0.40 - Pass Convergence
   **   ~~~   ** ..Min Temp Comparison = 3.46E-005 vs Temperature Convergence Tolerance=0.40 - Pass Convergence
   **   ~~~   ** ..Max Heat Load Comparison = 4.4799E-002 vs Loads Convergence Tolerance=4.00E-002 - Fail Convergence
   **   ~~~   ** ..Max Cool Load Comparison = 6.1506E-003 vs Loads Convergence Tolerance=4.00E-002 - Pass Convergence
   ** Warning ** Processing Monthly Tabular Reports: Variable names not valid for this simulation
   **   ~~~   ** ...use Output:Diagnostics,DisplayExtraWarnings; to show more details on individual variables.
   ** Warning ** CalcDoe2DXCoil: Coil:Cooling:DX:SingleSpeed "COIL COOLING DX SINGLE SPEED 3 99KBTU/HR 9.3EER" - Air-cooled condenser inlet dry-bulb temperature below 0 C. Outdoor dry-bulb temperature = -9.47
   **   ~~~   **  ... Occurrence info = RUN PERIOD 1, 01/01 00:00 - 00:10
   **   ~~~   ** ... Operation at low ambient temperatures may require special performance curves.
   ** Warning ** CalcDoe2DXCoil: Coil:Cooling:DX:SingleSpeed "COIL COOLING DX SINGLE SPEED 3 99KBTU/HR 9.3EER" - Full load outlet air dry-bulb temperature < 2C. This indicates the possibility of coil frost/freeze. Outlet temperature = -2.66E-002 C.
   **   ~~~   **  ...Occurrence info = RUN PERIOD 1, 01/01 00:00 - 00:10
   **   ~~~   ** ... Possible reasons for low outlet air dry-bulb temperatures are: This DX coil
   **   ~~~   **    1) may have a low inlet air dry-bulb temperature. Inlet air temperature = 9.648 C.
   **   ~~~   **    2) may have a low air flow rate per watt of cooling capacity. Check inputs.
   **   ~~~   **    3) is used as part of a HX assisted cooling coil which uses a high sensible effectiveness. Check inputs.
   ** Warning ** CalcDoe2DXCoil: Coil:Cooling:DX:SingleSpeed "COIL COOLING DX SINGLE SPEED 7 102KBTU/HR 9.3EER" - Air-cooled condenser inlet dry-bulb temperature below 0 C. Outdoor dry-bulb temperature = -9.47
   **   ~~~   **  ... Occurrence info = RUN PERIOD 1, 01/01 00:00 - 00:10
   **   ~~~   ** ... Operation at low ambient temperatures may require special performance curves.
   ** Warning ** CalcDoe2DXCoil: Coil:Cooling:DX:SingleSpeed "COIL COOLING DX SINGLE SPEED 7 102KBTU/HR 9.3EER" - Full load outlet air dry-bulb temperature < 2C. This indicates the possibility of coil frost/freeze. Outlet temperature = -4.36 C.
   **   ~~~   **  ...Occurrence info = RUN PERIOD 1, 01/01 00:00 - 00:10
   **   ~~~   ** ... Possible reasons for low outlet air dry-bulb temperatures are: This DX coil
   **   ~~~   **    1) may have a low inlet air dry-bulb temperature. Inlet air temperature = 7.970 C.
   **   ~~~   **    2) may have a low air flow rate per watt of cooling capacity. Check inputs.
   **   ~~~   **    3) is used as part of a HX assisted cooling coil which uses a high sensible effectiveness. Check inputs.
   ** Warning ** HeatExchanger:AirToAir:SensibleAndLatent "SYS_6_VAV WITH REHEAT 2 ERV"
   **   ~~~   ** Average air volume flow rate is <50% or >130% of the nominal HX supply air volume flow rate.
   **   ~~~   ** Air volume flow rate ratio = 1.616. Environment=RUN PERIOD 1, at Simulation time=01/01 01:00 - 01:10
   ** Warning ** HeatExchanger:AirToAir:SensibleAndLatent "SYS_3_PSZ ALL_ST=WHOLEBUILDING_FL=STORY 4_SCH=B ERV"
   **   ~~~   ** Average air volume flow rate is <50% or >130% of the nominal HX supply air volume flow rate.
   **   ~~~   ** Air volume flow rate ratio = 2.466. Environment=RUN PERIOD 1, at Simulation time=01/01 01:03 - 01:04
   ** Warning ** CalcDoe2DXCoil: Coil:Cooling:DX:SingleSpeed "COIL COOLING DX SINGLE SPEED 12 332KBTU/HR 8.21EER" - Air-cooled condenser inlet dry-bulb temperature below 0 C. Outdoor dry-bulb temperature = -13.17
   **   ~~~   **  ... Occurrence info = RUN PERIOD 1, 01/01 01:03 - 01:04
   **   ~~~   ** ... Operation at low ambient temperatures may require special performance curves.
   ** Warning ** HeatExchanger:AirToAir:SensibleAndLatent "SYS_3_PSZ ALL_ST=WHOLEBUILDING_FL=STORY 3_SCH=B ERV"
   **   ~~~   ** Average air volume flow rate is <50% or >130% of the nominal HX supply air volume flow rate.
   **   ~~~   ** Air volume flow rate ratio = 1.703. Environment=RUN PERIOD 1, at Simulation time=01/01 12:20 - 12:23
   ** Warning ** CalcDoe2DXCoil: Coil:Cooling:DX:SingleSpeed "COIL COOLING DX SINGLE SPEED 13 241KBTU/HR 9.7EER" - Air-cooled condenser inlet dry-bulb temperature below 0 C. Outdoor dry-bulb temperature = -9.37
   **   ~~~   **  ... Occurrence info = RUN PERIOD 1, 01/02 00:10 - 00:12
   **   ~~~   ** ... Operation at low ambient temperatures may require special performance curves.
   ** Warning ** CalcDoe2DXCoil: Coil:Cooling:DX:SingleSpeed "COIL COOLING DX SINGLE SPEED 13 241KBTU/HR 9.7EER" - Full load outlet air dry-bulb temperature < 2C. This indicates the possibility of coil frost/freeze. Outlet temperature = 0.31 C.
   **   ~~~   **  ...Occurrence info = RUN PERIOD 1, 01/02 00:10 - 00:12
   **   ~~~   ** ... Possible reasons for low outlet air dry-bulb temperatures are: This DX coil
   **   ~~~   **    1) may have a low inlet air dry-bulb temperature. Inlet air temperature = 12.839 C.
   **   ~~~   **    2) may have a low air flow rate per watt of cooling capacity. Check inputs.
   **   ~~~   **    3) is used as part of a HX assisted cooling coil which uses a high sensible effectiveness. Check inputs.
   ** Warning ** HeatExchanger:AirToAir:SensibleAndLatent "SYS_4_PSZ_ALL_ST=WHOLEBUILDING_FL=STORY 4_SCH=E ERV"
   **   ~~~   ** Average air volume flow rate is <50% or >130% of the nominal HX supply air volume flow rate.
   **   ~~~   ** Air volume flow rate ratio = 3.409. Environment=RUN PERIOD 1, at Simulation time=01/02 07:00 - 07:10
   ** Warning ** HeatExchanger:AirToAir:SensibleAndLatent "SYS_3_PSZ ALL_ST=WHOLEBUILDING_FL=STORY 2_SCH=A 1 ERV"
   **   ~~~   ** Average air volume flow rate is <50% or >130% of the nominal HX supply air volume flow rate.
   **   ~~~   ** Air volume flow rate ratio = 1.416. Environment=RUN PERIOD 1, at Simulation time=01/02 08:00 - 08:01
   ** Warning ** CalcDoe2DXCoil: Coil:Cooling:DX:SingleSpeed "COIL COOLING DX SINGLE SPEED 16 212KBTU/HR 9.7EER" - Air-cooled condenser inlet dry-bulb temperature below 0 C. Outdoor dry-bulb temperature = -8.80
   **   ~~~   **  ... Occurrence info = RUN PERIOD 1, 01/02 08:01 - 08:02
   **   ~~~   ** ... Operation at low ambient temperatures may require special performance curves.
   ** Warning ** CalcDoe2DXCoil: Coil:Cooling:DX:SingleSpeed "COIL COOLING DX SINGLE SPEED 8 411KBTU/HR 8.21EER" - Air-cooled condenser inlet dry-bulb temperature below 0 C. Outdoor dry-bulb temperature = -8.80
   **   ~~~   **  ... Occurrence info = RUN PERIOD 1, 01/02 08:02 - 08:04
   **   ~~~   ** ... Operation at low ambient temperatures may require special performance curves.
   ** Warning ** CalcDoe2DXCoil: Coil:Cooling:DX:SingleSpeed "COIL COOLING DX SINGLE SPEED 5 100KBTU/HR 9.3EER" - Air-cooled condenser inlet dry-bulb temperature below 0 C. Outdoor dry-bulb temperature = -7.73
   **   ~~~   **  ... Occurrence info = RUN PERIOD 1, 01/02 21:33 - 21:37
   **   ~~~   ** ... Operation at low ambient temperatures may require special performance curves.
   ** Warning ** CalcDoe2DXCoil: Coil:Cooling:DX:SingleSpeed "COIL COOLING DX SINGLE SPEED 5 100KBTU/HR 9.3EER" - Full load outlet air dry-bulb temperature < 2C. This indicates the possibility of coil frost/freeze. Outlet temperature = 0.84 C.
   **   ~~~   **  ...Occurrence info = RUN PERIOD 1, 01/02 21:33 - 21:37
   **   ~~~   ** ... Possible reasons for low outlet air dry-bulb temperatures are: This DX coil
   **   ~~~   **    1) may have a low inlet air dry-bulb temperature. Inlet air temperature = 10.596 C.
   **   ~~~   **    2) may have a low air flow rate per watt of cooling capacity. Check inputs.
   **   ~~~   **    3) is used as part of a HX assisted cooling coil which uses a high sensible effectiveness. Check inputs.
   ** Warning ** HeatExchanger:AirToAir:SensibleAndLatent "SYS_6_VAV WITH REHEAT ERV"
   **   ~~~   ** Average air volume flow rate is <50% or >130% of the nominal HX supply air volume flow rate.
   **   ~~~   ** Air volume flow rate ratio = 1.345. Environment=RUN PERIOD 1, at Simulation time=01/03 14:00 - 14:10
   ** Warning ** CalcDoe2DXCoil: Coil:Cooling:DX:SingleSpeed "COIL COOLING DX SINGLE SPEED 14 220KBTU/HR 9.7EER" - Air-cooled condenser inlet dry-bulb temperature below 0 C. Outdoor dry-bulb temperature = -4.17
   **   ~~~   **  ... Occurrence info = RUN PERIOD 1, 01/05 10:10 - 10:13
   **   ~~~   ** ... Operation at low ambient temperatures may require special performance curves.
   ** Warning ** HeatExchanger:AirToAir:SensibleAndLatent "SYS_3_PSZ ALL_ST=WHOLEBUILDING_FL=STORY 3_SCH=B 1 ERV"
   **   ~~~   ** Average air volume flow rate is <50% or >130% of the nominal HX supply air volume flow rate.
   **   ~~~   ** Air volume flow rate ratio = 4.260E-003. Environment=RUN PERIOD 1, at Simulation time=01/06 09:57 - 10:00
   ** Warning ** CalcDoe2DXCoil: Coil:Cooling:DX:SingleSpeed "COIL COOLING DX SINGLE SPEED 14 220KBTU/HR 9.7EER" - Full load outlet air dry-bulb temperature < 2C. This indicates the possibility of coil frost/freeze. Outlet temperature = 0.96 C.
   **   ~~~   **  ...Occurrence info = RUN PERIOD 1, 01/07 10:00 - 10:03
   **   ~~~   ** ... Possible reasons for low outlet air dry-bulb temperatures are: This DX coil
   **   ~~~   **    1) may have a low inlet air dry-bulb temperature. Inlet air temperature = 11.750 C.
   **   ~~~   **    2) may have a low air flow rate per watt of cooling capacity. Check inputs.
   **   ~~~   **    3) is used as part of a HX assisted cooling coil which uses a high sensible effectiveness. Check inputs.
   ** Warning ** CalcDoe2DXCoil: Coil:Cooling:DX:SingleSpeed "COIL COOLING DX SINGLE SPEED 8 411KBTU/HR 8.21EER" - Full load outlet air dry-bulb temperature < 2C. This indicates the possibility of coil frost/freeze. Outlet temperature = 0.98 C.
   **   ~~~   **  ...Occurrence info = RUN PERIOD 1, 01/07 14:30 - 14:32
   **   ~~~   ** ... Possible reasons for low outlet air dry-bulb temperatures are: This DX coil
   **   ~~~   **    1) may have a low inlet air dry-bulb temperature. Inlet air temperature = 14.333 C.
   **   ~~~   **    2) may have a low air flow rate per watt of cooling capacity. Check inputs.
   **   ~~~   **    3) is used as part of a HX assisted cooling coil which uses a high sensible effectiveness. Check inputs.
   ** Warning ** CalcDoe2DXCoil: Coil:Cooling:DX:SingleSpeed "COIL COOLING DX SINGLE SPEED 12 332KBTU/HR 8.21EER" - Full load outlet air dry-bulb temperature < 2C. This indicates the possibility of coil frost/freeze. Outlet temperature = 0.65 C.
   **   ~~~   **  ...Occurrence info = RUN PERIOD 1, 01/09 00:04 - 00:05
   **   ~~~   ** ... Possible reasons for low outlet air dry-bulb temperatures are: This DX coil
   **   ~~~   **    1) may have a low inlet air dry-bulb temperature. Inlet air temperature = 14.714 C.
   **   ~~~   **    2) may have a low air flow rate per watt of cooling capacity. Check inputs.
   **   ~~~   **    3) is used as part of a HX assisted cooling coil which uses a high sensible effectiveness. Check inputs.
   ** Warning ** SimHVAC: Maximum iterations (20) exceeded for all HVAC loops, at RUN PERIOD 1, 01/30 00:02 - 00:03
   **   ~~~   ** The solution for one or more of the Air Loop HVAC systems did not appear to converge
   **   ~~~   ** ...use Output:Diagnostics,DisplayExtraWarnings; to show more details on each max iteration exceeded.
   ** Warning ** SimHVAC: Maximum iterations (20) exceeded for all HVAC loops, at RUN PERIOD 1, 02/02 10:07 - 10:10
   **   ~~~   ** The solution for one or more of the Air Loop HVAC systems did not appear to converge
   ** Warning ** SimHVAC: Maximum iterations (20) exceeded for all HVAC loops, at RUN PERIOD 1, 02/10 14:45 - 14:48
   **   ~~~   ** The solution for one or more of the Air Loop HVAC systems did not appear to converge
   ** Warning ** CalcDoe2DXCoil: Coil:Cooling:DX:SingleSpeed "COIL COOLING DX SINGLE SPEED 16 212KBTU/HR 9.7EER" - Full load outlet air dry-bulb temperature < 2C. This indicates the possibility of coil frost/freeze. Outlet temperature = -0.90 C.
   **   ~~~   **  ...Occurrence info = RUN PERIOD 1, 02/13 08:00 - 08:01
   **   ~~~   ** ... Possible reasons for low outlet air dry-bulb temperatures are: This DX coil
   **   ~~~   **    1) may have a low inlet air dry-bulb temperature. Inlet air temperature = 11.776 C.
   **   ~~~   **    2) may have a low air flow rate per watt of cooling capacity. Check inputs.
   **   ~~~   **    3) is used as part of a HX assisted cooling coil which uses a high sensible effectiveness. Check inputs.
   ** Warning ** HeatExchanger:AirToAir:SensibleAndLatent "SYS_6_VAV WITH REHEAT 1 ERV"
   **   ~~~   ** Average air volume flow rate is <50% or >130% of the nominal HX supply air volume flow rate.
   **   ~~~   ** Air volume flow rate ratio = 1.304. Environment=RUN PERIOD 1, at Simulation time=02/16 19:40 - 19:50
   ** Warning ** SimHVAC: Maximum iterations (20) exceeded for all HVAC loops, at RUN PERIOD 1, 03/06 00:03 - 00:04
   **   ~~~   ** The solution for one or more of the Air Loop HVAC systems did not appear to converge
   ** Severe  ** FindRootSimpleController: Controller error for controller = "CONTROLLER WATER COIL 8"
   **   ~~~   **  Environment=RUN PERIOD 1, at Simulation time=03/10 22:10 - 22:20
   **   ~~~   **   Controller function is inconsistent with user specified controller action = Normal action
   **   ~~~   **   Actuator will be set to maximum action
   **   ~~~   ** Controller control type=Temperature
   **   ~~~   ** Controller temperature setpoint = 11.95 [C]
   **   ~~~   ** Controller sensed temperature = 11.24 [C]
   **   ~~~   ** Controller actuator mass flow rate set to 0.76 [kg/s]
   **   ~~~   ** Controller actuator temperature = 46.41 [C]
   **   ~~~   **   Note: Chilled water coils should be reverse action and the entering chilled
   **   ~~~   **         water temperature (controller actuator temperature) should be below the setpoint temperature
   **   ~~~   **   Note: Hot water coils should be normal action and the entering hot
   **   ~~~   **         water temperature (controller actuator temperature) should be above the setpoint temperature
   ** Warning ** SimHVAC: Maximum iterations (20) exceeded for all HVAC loops, at RUN PERIOD 1, 03/20 00:03 - 00:05
   **   ~~~   ** The solution for one or more of the Air Loop HVAC systems did not appear to converge
   ** Warning ** SimHVAC: Maximum iterations (20) exceeded for all HVAC loops, at RUN PERIOD 1, 04/19 20:33 - 20:37
   **   ~~~   ** The solution for one or more of the Air Loop HVAC systems did not appear to converge
   ** Warning ** CalcDoe2DXCoil: Coil:Cooling:DX:SingleSpeed "COIL COOLING DX SINGLE SPEED 17 220KBTU/HR 9.7EER" - Full load outlet air dry-bulb temperature < 2C. This indicates the possibility of coil frost/freeze. Outlet temperature = -9.72E-002 C.
   **   ~~~   **  ...Occurrence info = RUN PERIOD 1, 04/23 11:00 - 11:03
   **   ~~~   ** ... Possible reasons for low outlet air dry-bulb temperatures are: This DX coil
   **   ~~~   **    1) may have a low inlet air dry-bulb temperature. Inlet air temperature = 13.066 C.
   **   ~~~   **    2) may have a low air flow rate per watt of cooling capacity. Check inputs.
   **   ~~~   **    3) is used as part of a HX assisted cooling coil which uses a high sensible effectiveness. Check inputs.
   ** Warning ** CalcDoe2DXCoil: Coil:Cooling:DX:SingleSpeed "COIL COOLING DX SINGLE SPEED 15 244KBTU/HR 9.7EER" - Full load outlet air dry-bulb temperature < 2C. This indicates the possibility of coil frost/freeze. Outlet temperature = 0.27 C.
   **   ~~~   **  ...Occurrence info = RUN PERIOD 1, 04/25 13:30 - 13:40
   **   ~~~   ** ... Possible reasons for low outlet air dry-bulb temperatures are: This DX coil
   **   ~~~   **    1) may have a low inlet air dry-bulb temperature. Inlet air temperature = 14.566 C.
   **   ~~~   **    2) may have a low air flow rate per watt of cooling capacity. Check inputs.
   **   ~~~   **    3) is used as part of a HX assisted cooling coil which uses a high sensible effectiveness. Check inputs.
   ** Warning ** CalcDoe2DXCoil: Coil:Cooling:DX:SingleSpeed "COIL COOLING DX SINGLE SPEED 10 378KBTU/HR 8.21EER" - Full load outlet air dry-bulb temperature < 2C. This indicates the possibility of coil frost/freeze. Outlet temperature = 1.98 C.
   **   ~~~   **  ...Occurrence info = RUN PERIOD 1, 04/29 12:40 - 12:50
   **   ~~~   ** ... Possible reasons for low outlet air dry-bulb temperatures are: This DX coil
   **   ~~~   **    1) may have a low inlet air dry-bulb temperature. Inlet air temperature = 15.466 C.
   **   ~~~   **    2) may have a low air flow rate per watt of cooling capacity. Check inputs.
   **   ~~~   **    3) is used as part of a HX assisted cooling coil which uses a high sensible effectiveness. Check inputs.
   ** Warning ** CalcDoe2DXCoil: Coil:Cooling:DX:SingleSpeed "COIL COOLING DX SINGLE SPEED 9 80KBTU/HR 9.7EER" - Full load outlet air dry-bulb temperature < 2C. This indicates the possibility of coil frost/freeze. Outlet temperature = 1.95 C.
   **   ~~~   **  ...Occurrence info = RUN PERIOD 1, 06/01 21:50 - 21:52
   **   ~~~   ** ... Possible reasons for low outlet air dry-bulb temperatures are: This DX coil
   **   ~~~   **    1) may have a low inlet air dry-bulb temperature. Inlet air temperature = 14.200 C.
   **   ~~~   **    2) may have a low air flow rate per watt of cooling capacity. Check inputs.
   **   ~~~   **    3) is used as part of a HX assisted cooling coil which uses a high sensible effectiveness. Check inputs.
   ** Warning ** CalcDoe2DXCoil: Coil:Cooling:DX:SingleSpeed "COIL COOLING DX SINGLE SPEED 11 417KBTU/HR 8.21EER" - Full load outlet air dry-bulb temperature < 2C. This indicates the possibility of coil frost/freeze. Outlet temperature = 1.82 C.
   **   ~~~   **  ...Occurrence info = RUN PERIOD 1, 06/07 19:30 - 19:33
   **   ~~~   ** ... Possible reasons for low outlet air dry-bulb temperatures are: This DX coil
   **   ~~~   **    1) may have a low inlet air dry-bulb temperature. Inlet air temperature = 14.166 C.
   **   ~~~   **    2) may have a low air flow rate per watt of cooling capacity. Check inputs.
   **   ~~~   **    3) is used as part of a HX assisted cooling coil which uses a high sensible effectiveness. Check inputs.
   ** Warning ** CalcDoe2DXCoil: Coil:Cooling:DX:SingleSpeed "COIL COOLING DX SINGLE SPEED 19 214KBTU/HR 9.7EER" - Full load outlet air dry-bulb temperature < 2C. This indicates the possibility of coil frost/freeze. Outlet temperature = 1.74 C.
   **   ~~~   **  ...Occurrence info = RUN PERIOD 1, 07/03 07:50 - 07:52
   **   ~~~   ** ... Possible reasons for low outlet air dry-bulb temperatures are: This DX coil
   **   ~~~   **    1) may have a low inlet air dry-bulb temperature. Inlet air temperature = 12.100 C.
   **   ~~~   **    2) may have a low air flow rate per watt of cooling capacity. Check inputs.
   **   ~~~   **    3) is used as part of a HX assisted cooling coil which uses a high sensible effectiveness. Check inputs.
   ** Warning ** CalcDoe2DXCoil: Coil:Cooling:DX:SingleSpeed "COIL COOLING DX SINGLE SPEED 18 266KBTU/HR 8.21EER" - Full load outlet air dry-bulb temperature < 2C. This indicates the possibility of coil frost/freeze. Outlet temperature = 1.96 C.
   **   ~~~   **  ...Occurrence info = RUN PERIOD 1, 09/09 19:40 - 19:45
   **   ~~~   ** ... Possible reasons for low outlet air dry-bulb temperatures are: This DX coil
   **   ~~~   **    1) may have a low inlet air dry-bulb temperature. Inlet air temperature = 12.450 C.
   **   ~~~   **    2) may have a low air flow rate per watt of cooling capacity. Check inputs.
   **   ~~~   **    3) is used as part of a HX assisted cooling coil which uses a high sensible effectiveness. Check inputs.
   ** Warning ** SimHVAC: Maximum iterations (20) exceeded for all HVAC loops, at RUN PERIOD 1, 09/11 21:53 - 21:55
   **   ~~~   ** The solution for one or more of the Air Loop HVAC systems did not appear to converge
   ** Warning ** SimHVAC: Maximum iterations (20) exceeded for all HVAC loops, at RUN PERIOD 1, 11/01 09:53 - 09:55
   **   ~~~   ** The solution for one or more of the Air Loop HVAC systems did not appear to converge
   ** Warning ** SimHVAC: Maximum iterations (20) exceeded for all HVAC loops, at RUN PERIOD 1, 11/06 00:00 - 00:02
   **   ~~~   ** The solution for one or more of the Air Loop HVAC systems did not appear to converge
   ** Warning ** SimHVAC: Maximum iterations (20) exceeded for all HVAC loops, at RUN PERIOD 1, 11/07 14:23 - 14:27
   **   ~~~   ** The solution for one or more of the Air Loop HVAC systems did not appear to converge
   ** Warning ** SimHVAC: Maximum iterations (20) exceeded for all HVAC loops, at RUN PERIOD 1, 12/25 00:02 - 00:03
   **   ~~~   ** The solution for one or more of the Air Loop HVAC systems did not appear to converge
   ** Warning ** The resource referenced by LifeCycleCost:UsePriceEscalation= "U.S. AVG  COMMERCIAL-ELECTRICITY" has no energy cost. 
   **   ~~~   ** ... It is likely that the wrong resource is used. The resource should match the meter used in Utility:Tariff.
   ** Warning ** The resource referenced by LifeCycleCost:UsePriceEscalation= "U.S. AVG  COMMERCIAL-DISTILLATE OIL" has no energy cost. 
   **   ~~~   ** ... It is likely that the wrong resource is used. The resource should match the meter used in Utility:Tariff.
   ** Warning ** The resource referenced by LifeCycleCost:UsePriceEscalation= "U.S. AVG  COMMERCIAL-RESIDUAL OIL" has no energy cost. 
   **   ~~~   ** ... It is likely that the wrong resource is used. The resource should match the meter used in Utility:Tariff.
   ** Warning ** The resource referenced by LifeCycleCost:UsePriceEscalation= "U.S. AVG  COMMERCIAL-NATURAL GAS" has no energy cost. 
   **   ~~~   ** ... It is likely that the wrong resource is used. The resource should match the meter used in Utility:Tariff.
   ** Warning ** The resource referenced by LifeCycleCost:UsePriceEscalation= "U.S. AVG  COMMERCIAL-COAL" has no energy cost. 
   **   ~~~   ** ... It is likely that the wrong resource is used. The resource should match the meter used in Utility:Tariff.
   ************* Simulation Error Summary *************
   ************* There are 11 unused schedules in input.
   ************* There are 19 unused week schedules in input.
   ************* There are 79 unused day schedules in input.
   ************* Use Output:Diagnostics,DisplayUnusedSchedules; to see them.
   *************
   ************* ===== Recurring Error Summary =====
   ************* The following recurring error messages occurred.
   *************
   *************  ** Warning ** Plant loop falling below lower temperature limit, PlantLoop="MAIN SERVICE WATER LOOP"
   *************  **   ~~~   **   This error occurred 4 total times;
   *************  **   ~~~   **   during Warmup 1 times;
   *************  **   ~~~   **   during Sizing 0 times.
   *************  **   ~~~   **   Min=0.
   *************
   *************  ** Warning ** CalcDoe2DXCoil: Coil:Cooling:DX:SingleSpeed="COIL COOLING DX SINGLE SPEED 3 99KBTU/HR 9.3EER" - Low condenser dry-bulb temperature error continues...
   *************  **   ~~~   **   This error occurred 35334 total times;
   *************  **   ~~~   **   during Warmup 0 times;
   *************  **   ~~~   **   during Sizing 0 times.
   *************  **   ~~~   **   Max=-1.387779E-017 [C]  Min=-24.983333 [C]
   *************
   *************  ** Warning ** CalcDoe2DXCoil: Coil:Cooling:DX:SingleSpeed="COIL COOLING DX SINGLE SPEED 3 99KBTU/HR 9.3EER" - Full load outlet temperature indicates a possibility of frost/freeze error continues. Outlet air temperature statistics follow:
   *************  **   ~~~   **   This error occurred 28308 total times;
   *************  **   ~~~   **   during Warmup 0 times;
   *************  **   ~~~   **   during Sizing 0 times.
   *************  **   ~~~   **   Max=1.999993  Min=-7.883838
   *************
   *************  ** Warning ** CalcDoe2DXCoil: Coil:Cooling:DX:SingleSpeed="COIL COOLING DX SINGLE SPEED 7 102KBTU/HR 9.3EER" - Low condenser dry-bulb temperature error continues...
   *************  **   ~~~   **   This error occurred 18004 total times;
   *************  **   ~~~   **   during Warmup 0 times;
   *************  **   ~~~   **   during Sizing 0 times.
   *************  **   ~~~   **   Max=-1.387779E-017 [C]  Min=-24.983333 [C]
   *************
   *************  ** Warning ** CalcDoe2DXCoil: Coil:Cooling:DX:SingleSpeed="COIL COOLING DX SINGLE SPEED 7 102KBTU/HR 9.3EER" - Full load outlet temperature indicates a possibility of frost/freeze error continues. Outlet air temperature statistics follow:
   *************  **   ~~~   **   This error occurred 23594 total times;
   *************  **   ~~~   **   during Warmup 0 times;
   *************  **   ~~~   **   during Sizing 0 times.
   *************  **   ~~~   **   Max=1.999632  Min=-12.588515
   *************
   *************  ** Warning ** HeatExchanger:AirToAir:SensibleAndLatent "SYS_6_VAV WITH REHEAT 2 ERV":  Average air volume flow rate is <50% or >130% warning continues. Air flow rate ratio statistics follow.
   *************  **   ~~~   **   This error occurred 8102942 total times;
   *************  **   ~~~   **   during Warmup 0 times;
   *************  **   ~~~   **   during Sizing 0 times.
   *************  **   ~~~   **   Max=2.410399  Min=1.308029
   *************
   *************  ** Warning ** HeatExchanger:AirToAir:SensibleAndLatent "SYS_3_PSZ ALL_ST=WHOLEBUILDING_FL=STORY 4_SCH=B ERV":  Average air volume flow rate is <50% or >130% warning continues. Air flow rate ratio statistics follow.
   *************  **   ~~~   **   This error occurred 56270 total times;
   *************  **   ~~~   **   during Warmup 0 times;
   *************  **   ~~~   **   during Sizing 0 times.
   *************  **   ~~~   **   Max=2.532978  Min=4.290926E-004
   *************
   *************  ** Warning ** CalcDoe2DXCoil: Coil:Cooling:DX:SingleSpeed="COIL COOLING DX SINGLE SPEED 12 332KBTU/HR 8.21EER" - Low condenser dry-bulb temperature error continues...
   *************  **   ~~~   **   This error occurred 37 total times;
   *************  **   ~~~   **   during Warmup 0 times;
   *************  **   ~~~   **   during Sizing 0 times.
   *************  **   ~~~   **   Max=-0.233333 [C]  Min=-20.833333 [C]
   *************
   *************  ** Warning ** HeatExchanger:AirToAir:SensibleAndLatent "SYS_3_PSZ ALL_ST=WHOLEBUILDING_FL=STORY 3_SCH=B ERV":  Average air volume flow rate is <50% or >130% warning continues. Air flow rate ratio statistics follow.
   *************  **   ~~~   **   This error occurred 85556 total times;
   *************  **   ~~~   **   during Warmup 0 times;
   *************  **   ~~~   **   during Sizing 0 times.
   *************  **   ~~~   **   Max=1.729665  Min=3.691688E-004
   *************
   *************  ** Warning ** CalcDoe2DXCoil: Coil:Cooling:DX:SingleSpeed="COIL COOLING DX SINGLE SPEED 13 241KBTU/HR 9.7EER" - Low condenser dry-bulb temperature error continues...
   *************  **   ~~~   **   This error occurred 79 total times;
   *************  **   ~~~   **   during Warmup 0 times;
   *************  **   ~~~   **   during Sizing 0 times.
   *************  **   ~~~   **   Max=-5.000000E-002 [C]  Min=-11.883333 [C]
   *************
   *************  ** Warning ** CalcDoe2DXCoil: Coil:Cooling:DX:SingleSpeed="COIL COOLING DX SINGLE SPEED 13 241KBTU/HR 9.7EER" - Full load outlet temperature indicates a possibility of frost/freeze error continues. Outlet air temperature statistics follow:
   *************  **   ~~~   **   This error occurred 470 total times;
   *************  **   ~~~   **   during Warmup 0 times;
   *************  **   ~~~   **   during Sizing 0 times.
   *************  **   ~~~   **   Max=1.995145  Min=-3.162032
   *************
   *************  ** Warning ** HeatExchanger:AirToAir:SensibleAndLatent "SYS_4_PSZ_ALL_ST=WHOLEBUILDING_FL=STORY 4_SCH=E ERV":  Average air volume flow rate is <50% or >130% warning continues. Air flow rate ratio statistics follow.
   *************  **   ~~~   **   This error occurred 49487 total times;
   *************  **   ~~~   **   during Warmup 0 times;
   *************  **   ~~~   **   during Sizing 0 times.
   *************  **   ~~~   **   Max=3.465521  Min=5.851217E-004
   *************
   *************  ** Warning ** HeatExchanger:AirToAir:SensibleAndLatent "SYS_3_PSZ ALL_ST=WHOLEBUILDING_FL=STORY 2_SCH=A 1 ERV":  Average air volume flow rate is <50% or >130% warning continues. Air flow rate ratio statistics follow.
   *************  **   ~~~   **   This error occurred 82940 total times;
   *************  **   ~~~   **   during Warmup 0 times;
   *************  **   ~~~   **   during Sizing 0 times.
   *************  **   ~~~   **   Max=1.444786  Min=4.319211E-004
   *************
   *************  ** Warning ** CalcDoe2DXCoil: Coil:Cooling:DX:SingleSpeed="COIL COOLING DX SINGLE SPEED 16 212KBTU/HR 9.7EER" - Low condenser dry-bulb temperature error continues...
   *************  **   ~~~   **   This error occurred 34 total times;
   *************  **   ~~~   **   during Warmup 0 times;
   *************  **   ~~~   **   during Sizing 0 times.
   *************  **   ~~~   **   Max=-0.133333 [C]  Min=-9.033333 [C]
   *************
   *************  ** Warning ** CalcDoe2DXCoil: Coil:Cooling:DX:SingleSpeed="COIL COOLING DX SINGLE SPEED 8 411KBTU/HR 8.21EER" - Low condenser dry-bulb temperature error continues...
   *************  **   ~~~   **   This error occurred 131 total times;
   *************  **   ~~~   **   during Warmup 0 times;
   *************  **   ~~~   **   during Sizing 0 times.
   *************  **   ~~~   **   Max=-6.666667E-002 [C]  Min=-19.283333 [C]
   *************
   *************  ** Warning ** CalcDoe2DXCoil: Coil:Cooling:DX:SingleSpeed="COIL COOLING DX SINGLE SPEED 5 100KBTU/HR 9.3EER" - Low condenser dry-bulb temperature error continues...
   *************  **   ~~~   **   This error occurred 3905 total times;
   *************  **   ~~~   **   during Warmup 0 times;
   *************  **   ~~~   **   during Sizing 0 times.
   *************  **   ~~~   **   Max=-1.387779E-017 [C]  Min=-18.333333 [C]
   *************
   *************  ** Warning ** CalcDoe2DXCoil: Coil:Cooling:DX:SingleSpeed="COIL COOLING DX SINGLE SPEED 5 100KBTU/HR 9.3EER" - Full load outlet temperature indicates a possibility of frost/freeze error continues. Outlet air temperature statistics follow:
   *************  **   ~~~   **   This error occurred 1280 total times;
   *************  **   ~~~   **   during Warmup 0 times;
   *************  **   ~~~   **   during Sizing 0 times.
   *************  **   ~~~   **   Max=1.999969  Min=-2.978716
   *************
   *************  ** Warning ** HeatExchanger:AirToAir:SensibleAndLatent "SYS_6_VAV WITH REHEAT ERV":  Average air volume flow rate is <50% or >130% warning continues. Air flow rate ratio statistics follow.
   *************  **   ~~~   **   This error occurred 30224 total times;
   *************  **   ~~~   **   during Warmup 0 times;
   *************  **   ~~~   **   during Sizing 0 times.
   *************  **   ~~~   **   Max=1.567042  Min=1.300655
   *************
   *************  ** Warning ** CalcDoe2DXCoil: Coil:Cooling:DX:SingleSpeed="COIL COOLING DX SINGLE SPEED 14 220KBTU/HR 9.7EER" - Low condenser dry-bulb temperature error continues...
   *************  **   ~~~   **   This error occurred 47 total times;
   *************  **   ~~~   **   during Warmup 0 times;
   *************  **   ~~~   **   during Sizing 0 times.
   *************  **   ~~~   **   Max=-0.1 [C]  Min=-5.5 [C]
   *************
   *************  ** Warning ** HeatExchanger:AirToAir:SensibleAndLatent "SYS_3_PSZ ALL_ST=WHOLEBUILDING_FL=STORY 3_SCH=B 1 ERV":  Average air volume flow rate is <50% or >130% warning continues. Air flow rate ratio statistics follow.
   *************  **   ~~~   **   This error occurred 860 total times;
   *************  **   ~~~   **   during Warmup 0 times;
   *************  **   ~~~   **   during Sizing 0 times.
   *************  **   ~~~   **   Max=0.198318  Min=3.312030E-004
   *************
   *************  ** Warning ** CalcDoe2DXCoil: Coil:Cooling:DX:SingleSpeed="COIL COOLING DX SINGLE SPEED 14 220KBTU/HR 9.7EER" - Full load outlet temperature indicates a possibility of frost/freeze error continues. Outlet air temperature statistics follow:
   *************  **   ~~~   **   This error occurred 201 total times;
   *************  **   ~~~   **   during Warmup 0 times;
   *************  **   ~~~   **   during Sizing 0 times.
   *************  **   ~~~   **   Max=1.995764  Min=-1.350846
   *************
   *************  ** Warning ** CalcDoe2DXCoil: Coil:Cooling:DX:SingleSpeed="COIL COOLING DX SINGLE SPEED 8 411KBTU/HR 8.21EER" - Full load outlet temperature indicates a possibility of frost/freeze error continues. Outlet air temperature statistics follow:
   *************  **   ~~~   **   This error occurred 11 total times;
   *************  **   ~~~   **   during Warmup 0 times;
   *************  **   ~~~   **   during Sizing 0 times.
   *************  **   ~~~   **   Max=1.981158  Min=4.734056E-002
   *************
   *************  ** Warning ** CalcDoe2DXCoil: Coil:Cooling:DX:SingleSpeed="COIL COOLING DX SINGLE SPEED 12 332KBTU/HR 8.21EER" - Full load outlet temperature indicates a possibility of frost/freeze error continues. Outlet air temperature statistics follow:
   *************  **   ~~~   **   This error occurred 76 total times;
   *************  **   ~~~   **   during Warmup 0 times;
   *************  **   ~~~   **   during Sizing 0 times.
   *************  **   ~~~   **   Max=1.937033  Min=-1.728631
   *************
   *************  ** Warning ** CalcDoe2DXCoil: Coil:Cooling:DX:SingleSpeed="COIL COOLING DX SINGLE SPEED 16 212KBTU/HR 9.7EER" - Full load outlet temperature indicates a possibility of frost/freeze error continues. Outlet air temperature statistics follow:
   *************  **   ~~~   **   This error occurred 266 total times;
   *************  **   ~~~   **   during Warmup 0 times;
   *************  **   ~~~   **   during Sizing 0 times.
   *************  **   ~~~   **   Max=1.98808  Min=-2.187932
   *************
   *************  ** Warning ** HeatExchanger:AirToAir:SensibleAndLatent "SYS_6_VAV WITH REHEAT 1 ERV":  Average air volume flow rate is <50% or >130% warning continues. Air flow rate ratio statistics follow.
   *************  **   ~~~   **   This error occurred 1121 total times;
   *************  **   ~~~   **   during Warmup 0 times;
   *************  **   ~~~   **   during Sizing 0 times.
   *************  **   ~~~   **   Max=1.307379  Min=1.300011
   *************
   *************  ** Severe  ** FindRootSimpleController: Previous controller action error continues for controller = CONTROLLER WATER COIL 8
   *************  **   ~~~   **   This error occurred 8 total times;
   *************  **   ~~~   **   during Warmup 0 times;
   *************  **   ~~~   **   during Sizing 0 times.
   *************
   *************  ** Warning ** CalcDoe2DXCoil: Coil:Cooling:DX:SingleSpeed="COIL COOLING DX SINGLE SPEED 17 220KBTU/HR 9.7EER" - Full load outlet temperature indicates a possibility of frost/freeze error continues. Outlet air temperature statistics follow:
   *************  **   ~~~   **   This error occurred 12 total times;
   *************  **   ~~~   **   during Warmup 0 times;
   *************  **   ~~~   **   during Sizing 0 times.
   *************  **   ~~~   **   Max=1.969366  Min=-1.375412
   *************
   *************  ** Warning ** CalcDoe2DXCoil: Coil:Cooling:DX:SingleSpeed="COIL COOLING DX SINGLE SPEED 15 244KBTU/HR 9.7EER" - Full load outlet temperature indicates a possibility of frost/freeze error continues. Outlet air temperature statistics follow:
   *************  **   ~~~   **   This error occurred 47 total times;
   *************  **   ~~~   **   during Warmup 0 times;
   *************  **   ~~~   **   during Sizing 0 times.
   *************  **   ~~~   **   Max=1.991441  Min=0.273946
   *************
   *************  ** Warning ** CalcDoe2DXCoil: Coil:Cooling:DX:SingleSpeed="COIL COOLING DX SINGLE SPEED 10 378KBTU/HR 8.21EER" - Full load outlet temperature indicates a possibility of frost/freeze error continues. Outlet air temperature statistics follow:
   *************  **   ~~~   **   This error occurred 17 total times;
   *************  **   ~~~   **   during Warmup 0 times;
   *************  **   ~~~   **   during Sizing 0 times.
   *************  **   ~~~   **   Max=1.985886  Min=-1.692027
   *************
   *************  ** Warning ** CalcDoe2DXCoil: Coil:Cooling:DX:SingleSpeed="COIL COOLING DX SINGLE SPEED 9 80KBTU/HR 9.7EER" - Full load outlet temperature indicates a possibility of frost/freeze error continues. Outlet air temperature statistics follow:
   *************  **   ~~~   **   This error occurred 22 total times;
   *************  **   ~~~   **   during Warmup 0 times;
   *************  **   ~~~   **   during Sizing 0 times.
   *************  **   ~~~   **   Max=1.945476  Min=1.141167
   *************
   *************  ** Warning ** CalcDoe2DXCoil: Coil:Cooling:DX:SingleSpeed="COIL COOLING DX SINGLE SPEED 11 417KBTU/HR 8.21EER" - Full load outlet temperature indicates a possibility of frost/freeze error continues. Outlet air temperature statistics follow:
   *************  **   ~~~   **   This error occurred 1 total times;
   *************  **   ~~~   **   during Warmup 0 times;
   *************  **   ~~~   **   during Sizing 0 times.
   *************  **   ~~~   **   Max=1.816483  Min=1.816483
   *************
   *************  ** Warning ** CalcDoe2DXCoil: Coil:Cooling:DX:SingleSpeed="COIL COOLING DX SINGLE SPEED 19 214KBTU/HR 9.7EER" - Full load outlet temperature indicates a possibility of frost/freeze error continues. Outlet air temperature statistics follow:
   *************  **   ~~~   **   This error occurred 94 total times;
   *************  **   ~~~   **   during Warmup 0 times;
   *************  **   ~~~   **   during Sizing 0 times.
   *************  **   ~~~   **   Max=1.976243  Min=-0.803163
   *************
   *************  ** Warning ** CalcDoe2DXCoil: Coil:Cooling:DX:SingleSpeed="COIL COOLING DX SINGLE SPEED 18 266KBTU/HR 8.21EER" - Full load outlet temperature indicates a possibility of frost/freeze error continues. Outlet air temperature statistics follow:
   *************  **   ~~~   **   This error occurred 90 total times;
   *************  **   ~~~   **   during Warmup 0 times;
   *************  **   ~~~   **   during Sizing 0 times.
   *************  **   ~~~   **   Max=1.976243  Min=-0.803163
   *************
   *************
   ************* ===== Final Error Summary =====
   ************* The following error categories occurred.  Consider correcting or noting.
   ************* Loads Initialization did not Converge
   ************* ..1) very high thermal mass such as very thick concrete (solution: increase max number of warmup
   ************* ..   days in the BUILDING object);
   ************* ..2) moderate mass and inadequate space conditioning such that the building keeps getting warmer
   ************* ..   and warmer on successive days (solution: add HVAC, check building thermal properties,
   ************* ..   check if infiltration is included, make sure HVAC properly controlled);
   ************* ..3) a soil layer modeled below the concrete slab - (solution remove this layer and read about
   ************* ..   ground temperatures in the Auxiliary Programs document).
   ************* ..4) unreasonable (too small) limits in the BUILDING object for temperature (.4 default) or
   ************* ..   loads tolerances (.04 default)
   ************* Nominally Unused Constructions
   ************* ..The nominally unused constructions warning is provided to alert you to potential conditions that can cause
   ************* ..extra time during simulation. Each construction is calculated by the algorithm indicated in the HeatBalanceAlgorithm
   ************* ..object. You may remove the constructions indicated (when you use the DisplayExtraWarnings option).
   *************
   ************* EnergyPlus Warmup Error Summary. During Warmup: 0 Warning; 4 Severe Errors.
   ************* EnergyPlus Sizing Error Summary. During Sizing: 194 Warning; 0 Severe Errors.
   ************* EnergyPlus Completed Successfully-- 8521730 Warning; 13 Severe Errors; Elapsed Time=00hr 06min 50.44sec
