Program Version,EnergyPlus, Version 8.9.0-eba93e8e1b, YMD=2019.03.28 13:11
! <Version>, Version ID
 Version, 8.9
! <Timesteps per Hour>, #TimeSteps, Minutes per TimeStep {minutes}
 Timesteps per Hour,  6, 10
! <System Convergence Limits>, Minimum System TimeStep {minutes}, Max HVAC Iterations, Minimum Plant Iterations, Maximum Plant Iterations
 System Convergence Limits, 1, 20, 2, 8
! <Simulation Control>, Do Zone Sizing, Do System Sizing, Do Plant Sizing, Do Design Days, Do Weather Simulation, Do HVAC Sizing Simulation
 Simulation Control, Yes, Yes, Yes, No, Yes, No
! <Output Reporting Tolerances>, Tolerance for Time Heating Setpoint Not Met, Tolerance for Zone Cooling Setpoint Not Met Time
 Output Reporting Tolerances, 1.000, 1.000, 
! <Site:GroundTemperature:BuildingSurface>,Jan{C},Feb{C},Mar{C},Apr{C},May{C},Jun{C},Jul{C},Aug{C},Sep{C},Oct{C},Nov{C},Dec{C}
 Site:GroundTemperature:BuildingSurface,  19.53,  19.50,  19.54,  19.60,  20.00,  21.64,  22.23,  22.38,  21.45,  20.12,  19.80,  19.63
! <Site:GroundTemperature:FCfactorMethod>,Jan{C},Feb{C},Mar{C},Apr{C},May{C},Jun{C},Jul{C},Aug{C},Sep{C},Oct{C},Nov{C},Dec{C}
 Site:GroundTemperature:FCfactorMethod, -12.27, -13.66, -11.19,  -7.33,   2.77,  10.57,  15.83,  17.43,  14.70,   8.65,   0.56,  -6.95
! <Site:GroundTemperature:Shallow>,Jan{C},Feb{C},Mar{C},Apr{C},May{C},Jun{C},Jul{C},Aug{C},Sep{C},Oct{C},Nov{C},Dec{C}
 Site:GroundTemperature:Shallow,  13.00,  13.00,  13.00,  13.00,  13.00,  13.00,  13.00,  13.00,  13.00,  13.00,  13.00,  13.00
! <Site:GroundTemperature:Deep>,Jan{C},Feb{C},Mar{C},Apr{C},May{C},Jun{C},Jul{C},Aug{C},Sep{C},Oct{C},Nov{C},Dec{C}
 Site:GroundTemperature:Deep,  16.00,  16.00,  16.00,  16.00,  16.00,  16.00,  16.00,  16.00,  16.00,  16.00,  16.00,  16.00
! <Site:GroundReflectance>,Jan{dimensionless},Feb{dimensionless},Mar{dimensionless},Apr{dimensionless},May{dimensionless},Jun{dimensionless},Jul{dimensionless},Aug{dimensionless},Sep{dimensionless},Oct{dimensionless},Nov{dimensionless},Dec{dimensionless}
 Site:GroundReflectance,  0.20,  0.20,  0.20,  0.20,  0.20,  0.20,  0.20,  0.20,  0.20,  0.20,  0.20,  0.20
! <Site:GroundReflectance:SnowModifier>, Normal, Daylighting {dimensionless}
 Site:GroundReflectance:SnowModifier,   1.000,   1.000
! <Site:GroundReflectance:Snow>,Jan{dimensionless},Feb{dimensionless},Mar{dimensionless},Apr{dimensionless},May{dimensionless},Jun{dimensionless},Jul{dimensionless},Aug{dimensionless},Sep{dimensionless},Oct{dimensionless},Nov{dimensionless},Dec{dimensionless}
 Site:GroundReflectance:Snow,  0.20,  0.20,  0.20,  0.20,  0.20,  0.20,  0.20,  0.20,  0.20,  0.20,  0.20,  0.20
! <Site:GroundReflectance:Snow:Daylighting>,Jan{dimensionless},Feb{dimensionless},Mar{dimensionless},Apr{dimensionless},May{dimensionless},Jun{dimensionless},Jul{dimensionless},Aug{dimensionless},Sep{dimensionless},Oct{dimensionless},Nov{dimensionless},Dec{dimensionless}
 Site:GroundReflectance:Snow:Daylighting,  0.20,  0.20,  0.20,  0.20,  0.20,  0.20,  0.20,  0.20,  0.20,  0.20,  0.20,  0.20
! <Environment:Weather Station>,Wind Sensor Height Above Ground {m},Wind Speed Profile Exponent {},Wind Speed Profile Boundary Layer Thickness {m},Air Temperature Sensor Height Above Ground {m},Wind Speed Modifier Coefficient-Internal,Temperature Modifier Coefficient-Internal
Environment:Weather Station,10.000,0.140,270.000,1.500,1.586,9.750E-003
! <Site:Location>, Location Name, Latitude {N+/S- Deg}, Longitude {E+/W- Deg},  Time Zone Number {GMT+/-}, Elevation {m},  Standard Pressure at Elevation {Pa}, Standard RhoAir at Elevation
Site:Location,Fort McMurray AP AB CAN CWEC2016 WMO#=716890,56.65,-111.22,-7.00,369.10,96969,1.1525
! <Building Information>, Building Name,North Axis {deg},Terrain,  Loads Convergence Tolerance Value,Temperature Convergence Tolerance Value,  Solar Distribution,Maximum Number of Warmup Days,Minimum Number of Warmup Days
 Building Information,Building 1,0.000,Suburbs,4.00000E-002,0.40000,FullExterior,25,6
! <Inside Convection Algorithm>, Algorithm {Simple | TARP | CeilingDiffuser | AdaptiveConvectionAlgorithm}
Inside Convection Algorithm,TARP
! <Outside Convection Algorithm>, Algorithm {SimpleCombined | TARP | MoWitt | DOE-2 | AdaptiveConvectionAlgorithm}
Outside Convection Algorithm,TARP
! <Sky Radiance Distribution>, Value {Anisotropic}
Sky Radiance Distribution,Anisotropic
! <Zone Air Solution Algorithm>, Value {ThirdOrderBackwardDifference | AnalyticalSolution | EulerMethod}
 Zone Air Solution Algorithm, ThirdOrderBackwardDifference
! <Zone Air Carbon Dioxide Balance Simulation>, Simulation {Yes/No}, Carbon Dioxide Concentration
 Zone Air Carbon Dioxide Balance Simulation, No,N/A
! <Zone Air Generic Contaminant Balance Simulation>, Simulation {Yes/No}, Generic Contaminant Concentration
 Zone Air Generic Contaminant Balance Simulation, No,N/A
! <Zone Air Mass Flow Balance Simulation>, Enforce Mass Balance, Adjust Zone Mixing, Adjust Zone Infiltration {AddInfiltration | AdjustInfiltration | None}, Infiltration Zones {MixingSourceZonesOnly | AllZones}
 Zone Air Mass Flow Balance Simulation, No,N/A,N/A,N/A
! <HVACSystemRootFindingAlgorithm>, Value {RegulaFalsi | Bisection | BisectionThenRegulaFalsi | RegulaFalsiThenBisection}
 HVACSystemRootFindingAlgorithm, RegulaFalsi
! <Environment:Site Atmospheric Variation>,Wind Speed Profile Exponent {},Wind Speed Profile Boundary Layer Thickness {m},Air Temperature Gradient Coefficient {K/m}
Environment:Site Atmospheric Variation,0.220,370.000,6.500000E-003
! <Surface Geometry>,Starting Corner,Vertex Input Direction,Coordinate System,Daylight Reference Point Coordinate System,Rectangular (Simple) Surface Coordinate System
 Surface Geometry,UpperLeftCorner,Counterclockwise,RelativeCoordinateSystem,RelativeCoordinateSystem,RelativeToZoneOrigin
! <Surface Heat Transfer Algorithm>, Value {CTF - ConductionTransferFunction | EMPD - MoisturePenetrationDepthConductionTransferFunction | CondFD - ConductionFiniteDifference | HAMT - CombinedHeatAndMoistureFiniteElement} - Description,Inside Surface Max Temperature Limit{C}, Surface Convection Coefficient Lower Limit {W/m2-K}, Surface Convection Coefficient Upper Limit {W/m2-K}
Surface Heat Transfer Algorithm, CTF - ConductionTransferFunction,200,0.10,1000.0
! <Shading Summary>, Number of Fixed Detached Shades, Number of Building Detached Shades, Number of Attached Shades
 Shading Summary,0,0,0
! <Zone Summary>, Number of Zones, Number of Zone Surfaces, Number of SubSurfaces
 Zone Summary,20,137,17
! <Zone Information>,Zone Name,North Axis {deg},Origin X-Coordinate {m},Origin Y-Coordinate {m},Origin Z-Coordinate {m},Centroid X-Coordinate {m},Centroid Y-Coordinate {m},Centroid Z-Coordinate {m},Type,Zone Multiplier,Zone List Multiplier,Minimum X {m},Maximum X {m},Minimum Y {m},Maximum Y {m},Minimum Z {m},Maximum Z {m},Ceiling Height {m},Volume {m3},Zone Inside Convection Algorithm {Simple-Detailed-CeilingDiffuser-TrombeWall},Zone Outside Convection Algorithm {Simple-Detailed-Tarp-MoWitt-DOE-2-BLAST}, Floor Area {m2},Exterior Gross Wall Area {m2},Exterior Net Wall Area {m2},Exterior Window Area {m2}, Number of Surfaces, Number of SubSurfaces, Number of Shading SubSurfaces,  Part of Total Building Area
 Zone Information, ALL_ST=WHOLEBUILDING_FL=STORY 1_SCH=A,0.0,75.00,25.00,0.00,89.15,50.00,1.90,1,1,1,75.00,100.00,0.00,100.00,0.00,3.80,3.80,7125.00,TARP,TARP,1875.00,0.00,0.00,0.00,6,0,0,Yes
 Zone Information, ALL_ST=WHOLEBUILDING_FL=STORY 1_SCH=B,0.0,0.00,0.00,0.00,10.85,50.00,1.90,1,1,1,0.00,25.00,0.00,100.00,0.00,3.80,3.80,7125.00,TARP,TARP,1875.00,0.00,0.00,0.00,6,0,0,Yes
 Zone Information, ALL_ST=WHOLEBUILDING_FL=STORY 1_SCH=C,0.0,0.00,0.00,0.00,50.00,10.85,1.90,1,1,1,0.00,100.00,0.00,25.00,0.00,3.80,3.80,7125.00,TARP,TARP,1875.00,0.00,0.00,0.00,6,0,0,Yes
 Zone Information, ALL_ST=WHOLEBUILDING_FL=STORY 1_SCH=F,0.0,25.00,75.00,0.00,50.00,89.15,1.90,1,1,1,0.00,100.00,75.00,100.00,0.00,3.80,3.80,7125.00,TARP,TARP,1875.00,0.00,0.00,0.00,6,0,0,Yes
 Zone Information, ALL_ST=WHOLEBUILDING_FL=STORY 2_SCH=A,0.0,25.00,25.00,3.80,50.00,50.00,5.70,1,1,1,25.00,75.00,25.00,75.00,3.80,7.60,3.80,9500.00,TARP,TARP,2500.00,0.00,0.00,0.00,6,0,0,Yes
 Zone Information, ALL_ST=WHOLEBUILDING_FL=STORY 2_SCH=A 1,0.0,75.00,25.00,3.80,89.15,50.00,5.70,1,1,1,75.00,100.00,0.00,100.00,3.80,7.60,3.80,7125.00,TARP,TARP,1875.00,380.00,285.00,95.00,6,1,0,Yes
 Zone Information, ALL_ST=WHOLEBUILDING_FL=STORY 2_SCH=B,0.0,0.00,0.00,3.80,50.00,10.85,5.70,1,1,1,0.00,100.00,0.00,25.00,3.80,7.60,3.80,7125.00,TARP,TARP,1875.00,380.00,285.00,95.00,6,1,0,Yes
 Zone Information, ALL_ST=WHOLEBUILDING_FL=STORY 2_SCH=C,0.0,25.00,75.00,3.80,50.00,89.15,5.70,1,1,1,0.00,100.00,75.00,100.00,3.80,7.60,3.80,7125.00,TARP,TARP,1875.00,380.00,285.00,95.00,6,1,0,Yes
 Zone Information, ALL_ST=WHOLEBUILDING_FL=STORY 3_SCH=A,0.0,75.00,25.00,7.60,89.15,50.00,9.50,1,1,1,75.00,100.00,0.00,100.00,7.60,11.40,3.80,7125.00,TARP,TARP,1875.00,380.00,285.00,95.00,6,1,0,Yes
 Zone Information, ALL_ST=WHOLEBUILDING_FL=STORY 3_SCH=B,0.0,25.00,75.00,7.60,50.00,89.15,9.50,1,1,1,0.00,100.00,75.00,100.00,7.60,11.40,3.80,7125.00,TARP,TARP,1875.00,380.00,285.00,95.00,6,1,0,Yes
 Zone Information, ALL_ST=WHOLEBUILDING_FL=STORY 3_SCH=C,0.0,25.00,25.00,7.60,50.00,50.00,9.50,1,1,1,25.00,75.00,25.00,75.00,7.60,11.40,3.80,9500.00,TARP,TARP,2500.00,0.00,0.00,0.00,6,0,0,Yes
 Zone Information, ALL_ST=WHOLEBUILDING_FL=STORY 3_SCH=C 1,0.0,0.00,0.00,7.60,10.85,50.00,9.50,1,1,1,0.00,25.00,0.00,100.00,7.60,11.40,3.80,7125.00,TARP,TARP,1875.00,380.00,285.00,95.00,6,1,0,Yes
 Zone Information, ALL_ST=WHOLEBUILDING_FL=STORY 4_SCH=B,0.0,25.00,25.00,11.40,50.00,50.00,13.30,1,1,1,25.00,75.00,25.00,75.00,11.40,15.20,3.80,9500.00,TARP,TARP,2500.00,0.00,0.00,125.00,6,1,0,Yes
 Zone Information, ALL_ST=WHOLEBUILDING_FL=STORY 4_SCH=B 1,0.0,0.00,0.00,11.40,10.85,50.00,13.30,1,1,1,0.00,25.00,0.00,100.00,11.40,15.20,3.80,7125.00,TARP,TARP,1875.00,380.00,285.00,188.75,6,2,0,Yes
 Zone Information, ALL_ST=WHOLEBUILDING_FL=STORY 4_SCH=E,0.0,0.00,0.00,11.40,50.00,10.85,13.30,1,1,1,0.00,100.00,0.00,25.00,11.40,15.20,3.80,7125.00,TARP,TARP,1875.00,380.00,285.00,188.75,6,2,0,Yes
 Zone Information, ALL_ST=WHOLEBUILDING_FL=STORY 4_SCH=H,0.0,75.00,25.00,11.40,89.15,50.00,13.30,1,1,1,75.00,100.00,0.00,100.00,11.40,15.20,3.80,7125.00,TARP,TARP,1875.00,380.00,285.00,188.75,6,2,0,Yes
 Zone Information, DU_BT=DORMITORY_ST=WHOLEBUILDING_FL=STORY 3_SCHG,0.0,0.00,0.00,7.60,50.00,10.85,9.50,1,1,1,0.00,100.00,0.00,25.00,7.60,11.40,3.80,7125.00,TARP,TARP,1875.00,380.00,285.00,95.00,6,1,0,Yes
 Zone Information, DU_BT=HOTEL_ST=WHOLEBUILDING_FL=STORY 4_SCHF,0.0,25.00,75.00,11.40,50.00,89.15,13.30,1,1,1,0.00,100.00,75.00,100.00,11.40,15.20,3.80,7125.00,TARP,TARP,1875.00,380.00,285.00,188.75,6,2,0,Yes
 Zone Information, DU_BT=MOTEL_ST=WHOLEBUILDING_FL=STORY 2_SCHF,0.0,0.00,0.00,3.80,10.85,50.00,5.70,1,1,1,0.00,25.00,0.00,100.00,3.80,7.60,3.80,7125.00,TARP,TARP,1875.00,380.00,285.00,95.00,6,1,0,Yes
 Zone Information, DU_BT=MULTI-UNIT RESIDENTIAL_ST=WHOLEBUILDING_FL=STORY 1_SCHG,0.0,25.00,25.00,0.00,50.00,50.00,1.90,1,1,1,25.00,75.00,25.00,75.00,0.00,3.80,3.80,9500.00,TARP,TARP,2500.00,0.00,0.00,0.00,6,0,0,Yes
! <Zone Internal Gains Nominal>,Zone Name, Floor Area {m2},# Occupants,Area per Occupant {m2/person},Occupant per Area {person/m2},Interior Lighting {W/m2},Electric Load {W/m2},Gas Load {W/m2},Other Load {W/m2},Hot Water Eq {W/m2},Steam Equipment {W/m2},Sum Loads per Area {W/m2},Outdoor Controlled Baseboard Heat
 Zone Internal Gains Nominal, ALL_ST=WHOLEBUILDING_FL=STORY 1_SCH=A,1875.00,62.6,29.969,3.337E-002,11.900,10.000,0.000,0.000,0.000,0.000,21.900,No
 Zone Internal Gains Nominal, ALL_ST=WHOLEBUILDING_FL=STORY 1_SCH=B,1875.00,187.5,10.000,10.000E-002,9.700,1.000,0.000,0.000,0.000,0.000,10.700,No
 Zone Internal Gains Nominal, ALL_ST=WHOLEBUILDING_FL=STORY 1_SCH=C,1875.00,93.8,19.979,5.005E-002,12.700,2.500,0.000,0.000,0.000,0.000,15.200,No
 Zone Internal Gains Nominal, ALL_ST=WHOLEBUILDING_FL=STORY 1_SCH=F,1875.00,75.1,24.974,4.004E-002,7.600,2.500,0.000,0.000,0.000,0.000,10.100,No
 Zone Internal Gains Nominal, ALL_ST=WHOLEBUILDING_FL=STORY 2_SCH=A,2500.00,125.1,19.979,5.005E-002,9.400,7.500,0.000,0.000,0.000,0.000,16.900,No
 Zone Internal Gains Nominal, ALL_ST=WHOLEBUILDING_FL=STORY 2_SCH=A 1,1875.00,75.1,24.974,4.004E-002,9.700,7.500,0.000,0.000,0.000,0.000,17.200,No
 Zone Internal Gains Nominal, ALL_ST=WHOLEBUILDING_FL=STORY 2_SCH=B,1875.00,187.5,10.000,10.000E-002,9.500,1.000,0.000,0.000,0.000,0.000,10.500,No
 Zone Internal Gains Nominal, ALL_ST=WHOLEBUILDING_FL=STORY 2_SCH=C,1875.00,93.8,19.979,5.005E-002,11.400,2.500,0.000,0.000,0.000,0.000,13.900,No
 Zone Internal Gains Nominal, ALL_ST=WHOLEBUILDING_FL=STORY 3_SCH=A,1875.00,124.9,15.009,6.663E-002,11.300,5.000,0.000,0.000,0.000,0.000,16.300,No
 Zone Internal Gains Nominal, ALL_ST=WHOLEBUILDING_FL=STORY 3_SCH=B,1875.00,187.5,10.000,10.000E-002,10.700,1.000,0.000,0.000,0.000,0.000,11.700,No
 Zone Internal Gains Nominal, ALL_ST=WHOLEBUILDING_FL=STORY 3_SCH=C,2500.00,312.4,8.002,0.125,11.600,2.500,0.000,0.000,0.000,0.000,14.100,No
 Zone Internal Gains Nominal, ALL_ST=WHOLEBUILDING_FL=STORY 3_SCH=C 1,1875.00,234.3,8.002,0.125,8.900,1.000,0.000,0.000,0.000,0.000,9.900,No
 Zone Internal Gains Nominal, ALL_ST=WHOLEBUILDING_FL=STORY 4_SCH=B,2500.00,250.0,10.000,10.000E-002,9.600,1.000,0.000,0.000,0.000,0.000,10.600,No
 Zone Internal Gains Nominal, ALL_ST=WHOLEBUILDING_FL=STORY 4_SCH=B 1,1875.00,187.5,10.000,10.000E-002,10.800,1.000,0.000,0.000,0.000,0.000,11.800,No
 Zone Internal Gains Nominal, ALL_ST=WHOLEBUILDING_FL=STORY 4_SCH=E,1875.00,93.8,19.979,5.005E-002,8.800,5.000,0.000,0.000,0.000,0.000,13.800,No
 Zone Internal Gains Nominal, ALL_ST=WHOLEBUILDING_FL=STORY 4_SCH=H,1875.00,93.8,19.979,5.005E-002,13.000,7.500,0.000,0.000,0.000,0.000,20.500,No
 Zone Internal Gains Nominal, DU_BT=DORMITORY_ST=WHOLEBUILDING_FL=STORY 3_SCHG,1875.00,62.6,29.969,3.337E-002,6.600,2.500,0.000,0.000,0.000,0.000,9.100,No
 Zone Internal Gains Nominal, DU_BT=HOTEL_ST=WHOLEBUILDING_FL=STORY 4_SCHF,1875.00,75.1,24.974,4.004E-002,10.800,2.500,0.000,0.000,0.000,0.000,13.300,No
 Zone Internal Gains Nominal, DU_BT=MOTEL_ST=WHOLEBUILDING_FL=STORY 2_SCHF,1875.00,75.1,24.974,4.004E-002,9.500,2.500,0.000,0.000,0.000,0.000,12.000,No
 Zone Internal Gains Nominal, DU_BT=MULTI-UNIT RESIDENTIAL_ST=WHOLEBUILDING_FL=STORY 1_SCHG,2500.00,41.7,59.937,1.668E-002,6.500,5.000,0.000,0.000,0.000,0.000,11.500,No
! <People Internal Gains Nominal>,Name,Schedule Name,Zone Name,Zone Floor Area {m2},# Zone Occupants,Number of People {},People/Floor Area {person/m2},Floor Area per person {m2/person},Fraction Radiant,Fraction Convected,Sensible Fraction Calculation,Activity level,ASHRAE 55 Warnings,Carbon Dioxide Generation Rate,Nominal Minimum Number of People,Nominal Maximum Number of People
 People Internal Gains Nominal, ALL_ST=WHOLEBUILDING_FL=STORY 4_SCH=E AUTOMOTIVE FACILITY WHOLEBUILDING PEOPLE,NECB-E-OCCUPANCY,ALL_ST=WHOLEBUILDING_FL=STORY 4_SCH=E,1875.00,93.8,93.8,5.005E-002,19.979,0.300,0.700,AutoCalculate,NECB-ACTIVITY,No,3.8200E-008,0,84
 People Internal Gains Nominal, ALL_ST=WHOLEBUILDING_FL=STORY 3_SCH=C CONVENTION CENTRE WHOLEBUILDING PEOPLE,NECB-C-OCCUPANCY,ALL_ST=WHOLEBUILDING_FL=STORY 3_SCH=C,2500.00,312.4,312.4,0.125,8.002,0.300,0.700,AutoCalculate,NECB-ACTIVITY,No,3.8200E-008,0,281
 People Internal Gains Nominal, ALL_ST=WHOLEBUILDING_FL=STORY 3_SCH=A COURTHOUSE WHOLEBUILDING PEOPLE,NECB-A-OCCUPANCY,ALL_ST=WHOLEBUILDING_FL=STORY 3_SCH=A,1875.00,124.9,124.9,6.663E-002,15.009,0.300,0.700,AutoCalculate,NECB-ACTIVITY,No,3.8200E-008,0,112
 People Internal Gains Nominal, ALL_ST=WHOLEBUILDING_FL=STORY 3_SCH=B DINING - BAR/LOUNGE WHOLEBUILDING PEOPLE,NECB-B-OCCUPANCY,ALL_ST=WHOLEBUILDING_FL=STORY 3_SCH=B,1875.00,187.5,187.5,10.000E-002,10.000,0.300,0.700,AutoCalculate,NECB-ACTIVITY,No,3.8200E-008,0,169
 People Internal Gains Nominal, ALL_ST=WHOLEBUILDING_FL=STORY 1_SCH=B DINING - CAFETERIA WHOLEBUILDING PEOPLE,NECB-B-OCCUPANCY,ALL_ST=WHOLEBUILDING_FL=STORY 1_SCH=B,1875.00,187.5,187.5,10.000E-002,10.000,0.300,0.700,AutoCalculate,NECB-ACTIVITY,No,3.8200E-008,0,169
 People Internal Gains Nominal, ALL_ST=WHOLEBUILDING_FL=STORY 4_SCH=B DINING - FAMILY WHOLEBUILDING PEOPLE,NECB-B-OCCUPANCY,ALL_ST=WHOLEBUILDING_FL=STORY 4_SCH=B,2500.00,250.0,250.0,10.000E-002,10.000,0.300,0.700,AutoCalculate,NECB-ACTIVITY,No,3.8200E-008,0,225
 People Internal Gains Nominal, DU_BT=DORMITORY_ST=WHOLEBUILDING_FL=STORY 3_SCHG DORMITORY WHOLEBUILDING PEOPLE,NECB-G-OCCUPANCY,DU_BT=DORMITORY_ST=WHOLEBUILDING_FL=STORY 3_SCHG,1875.00,62.6,62.6,3.337E-002,29.969,0.300,0.700,AutoCalculate,NECB-ACTIVITY,No,3.8200E-008,19,56
 People Internal Gains Nominal, ALL_ST=WHOLEBUILDING_FL=STORY 2_SCH=B EXERCISE CENTRE WHOLEBUILDING PEOPLE,NECB-B-OCCUPANCY,ALL_ST=WHOLEBUILDING_FL=STORY 2_SCH=B,1875.00,187.5,187.5,10.000E-002,10.000,0.300,0.700,AutoCalculate,NECB-ACTIVITY,No,3.8200E-008,0,169
 People Internal Gains Nominal, ALL_ST=WHOLEBUILDING_FL=STORY 1_SCH=F FIRE STATION WHOLEBUILDING PEOPLE,NECB-F-OCCUPANCY,ALL_ST=WHOLEBUILDING_FL=STORY 1_SCH=F,1875.00,75.1,75.1,4.004E-002,24.974,0.300,0.700,AutoCalculate,NECB-ACTIVITY,No,3.8200E-008,15,68
 People Internal Gains Nominal, ALL_ST=WHOLEBUILDING_FL=STORY 4_SCH=B 1 GYMNASIUM WHOLEBUILDING PEOPLE,NECB-B-OCCUPANCY,ALL_ST=WHOLEBUILDING_FL=STORY 4_SCH=B 1,1875.00,187.5,187.5,10.000E-002,10.000,0.300,0.700,AutoCalculate,NECB-ACTIVITY,No,3.8200E-008,0,169
 People Internal Gains Nominal, ALL_ST=WHOLEBUILDING_FL=STORY 2_SCH=A HEALTH-CARE CLINIC WHOLEBUILDING PEOPLE,NECB-A-OCCUPANCY,ALL_ST=WHOLEBUILDING_FL=STORY 2_SCH=A,2500.00,125.1,125.1,5.005E-002,19.979,0.300,0.700,AutoCalculate,NECB-ACTIVITY,No,3.8200E-008,0,113
 People Internal Gains Nominal, ALL_ST=WHOLEBUILDING_FL=STORY 4_SCH=H HOSPITAL WHOLEBUILDING PEOPLE,NECB-H-OCCUPANCY,ALL_ST=WHOLEBUILDING_FL=STORY 4_SCH=H,1875.00,93.8,93.8,5.005E-002,19.979,0.300,0.700,AutoCalculate,NECB-ACTIVITY,No,3.8200E-008,84,84
 People Internal Gains Nominal, DU_BT=HOTEL_ST=WHOLEBUILDING_FL=STORY 4_SCHF HOTEL WHOLEBUILDING PEOPLE,NECB-F-OCCUPANCY,DU_BT=HOTEL_ST=WHOLEBUILDING_FL=STORY 4_SCHF,1875.00,75.1,75.1,4.004E-002,24.974,0.300,0.700,AutoCalculate,NECB-ACTIVITY,No,3.8200E-008,15,68
 People Internal Gains Nominal, ALL_ST=WHOLEBUILDING_FL=STORY 1_SCH=C LIBRARY WHOLEBUILDING PEOPLE,NECB-C-OCCUPANCY,ALL_ST=WHOLEBUILDING_FL=STORY 1_SCH=C,1875.00,93.8,93.8,5.005E-002,19.979,0.300,0.700,AutoCalculate,NECB-ACTIVITY,No,3.8200E-008,0,84
 People Internal Gains Nominal, ALL_ST=WHOLEBUILDING_FL=STORY 1_SCH=A MANUFACTURING FACILITY WHOLEBUILDING PEOPLE,NECB-A-OCCUPANCY,ALL_ST=WHOLEBUILDING_FL=STORY 1_SCH=A,1875.00,62.6,62.6,3.337E-002,29.969,0.300,0.700,AutoCalculate,NECB-ACTIVITY,No,3.8200E-008,0,56
 People Internal Gains Nominal, DU_BT=MOTEL_ST=WHOLEBUILDING_FL=STORY 2_SCHF MOTEL WHOLEBUILDING PEOPLE,NECB-F-OCCUPANCY,DU_BT=MOTEL_ST=WHOLEBUILDING_FL=STORY 2_SCHF,1875.00,75.1,75.1,4.004E-002,24.974,0.300,0.700,AutoCalculate,NECB-ACTIVITY,No,3.8200E-008,15,68
 People Internal Gains Nominal, ALL_ST=WHOLEBUILDING_FL=STORY 3_SCH=C 1 MOTION PICTURE THEATRE WHOLEBUILDING PEOPLE,NECB-C-OCCUPANCY,ALL_ST=WHOLEBUILDING_FL=STORY 3_SCH=C 1,1875.00,234.3,234.3,0.125,8.002,0.300,0.700,AutoCalculate,NECB-ACTIVITY,No,3.8200E-008,0,211
 People Internal Gains Nominal, DU_BT=MULTI-UNIT RESIDENTIAL_ST=WHOLEBUILDING_FL=STORY 1_SCHG MULTI-UNIT RESIDENTIAL WHOLEBUILDING PEOPLE,NECB-G-OCCUPANCY,DU_BT=MULTI-UNIT RESIDENTIAL_ST=WHOLEBUILDING_FL=STORY 1_SCHG,2500.00,41.7,41.7,1.668E-002,59.937,0.300,0.700,AutoCalculate,NECB-ACTIVITY,No,3.8200E-008,13,38
 People Internal Gains Nominal, ALL_ST=WHOLEBUILDING_FL=STORY 2_SCH=C MUSEUM WHOLEBUILDING PEOPLE,NECB-C-OCCUPANCY,ALL_ST=WHOLEBUILDING_FL=STORY 2_SCH=C,1875.00,93.8,93.8,5.005E-002,19.979,0.300,0.700,AutoCalculate,NECB-ACTIVITY,No,3.8200E-008,0,84
 People Internal Gains Nominal, ALL_ST=WHOLEBUILDING_FL=STORY 2_SCH=A 1 OFFICE WHOLEBUILDING PEOPLE,NECB-A-OCCUPANCY,ALL_ST=WHOLEBUILDING_FL=STORY 2_SCH=A 1,1875.00,75.1,75.1,4.004E-002,24.974,0.300,0.700,AutoCalculate,NECB-ACTIVITY,No,3.8200E-008,0,68
! <Lights Internal Gains Nominal>,Name,Schedule Name,Zone Name,Zone Floor Area {m2},# Zone Occupants,Lighting Level {W},Lights/Floor Area {W/m2},Lights per person {W/person},Fraction Return Air,Fraction Radiant,Fraction Short Wave,Fraction Convected,Fraction Replaceable,End-Use Category,Nominal Minimum Lighting Level {W},Nominal Maximum Lighting Level {W}
 Lights Internal Gains Nominal, ALL_ST=WHOLEBUILDING_FL=STORY 4_SCH=E AUTOMOTIVE FACILITY WHOLEBUILDING LIGHTS,NECB-E-LIGHTING,ALL_ST=WHOLEBUILDING_FL=STORY 4_SCH=E,1875.00,93.8,16499.863,8.800,175.815,0.000,0.500,0.200,0.300,1.000,General,824.993,14849.876
 Lights Internal Gains Nominal, ALL_ST=WHOLEBUILDING_FL=STORY 3_SCH=C CONVENTION CENTRE WHOLEBUILDING LIGHTS,NECB-C-LIGHTING,ALL_ST=WHOLEBUILDING_FL=STORY 3_SCH=C,2500.00,312.4,28999.759,11.600,92.822,0.000,0.500,0.200,0.300,1.000,General,1449.988,26099.783
 Lights Internal Gains Nominal, ALL_ST=WHOLEBUILDING_FL=STORY 3_SCH=A COURTHOUSE WHOLEBUILDING LIGHTS,NECB-A-LIGHTING,ALL_ST=WHOLEBUILDING_FL=STORY 3_SCH=A,1875.00,124.9,21187.324,11.300,169.595,0.000,0.500,0.200,0.300,1.000,General,1059.366,19068.591
 Lights Internal Gains Nominal, ALL_ST=WHOLEBUILDING_FL=STORY 3_SCH=B DINING - BAR/LOUNGE WHOLEBUILDING LIGHTS,NECB-B-LIGHTING,ALL_ST=WHOLEBUILDING_FL=STORY 3_SCH=B,1875.00,187.5,20062.333,10.700,107.003,0.000,0.500,0.200,0.300,1.000,General,2006.233,18056.100
 Lights Internal Gains Nominal, ALL_ST=WHOLEBUILDING_FL=STORY 1_SCH=B DINING - CAFETERIA WHOLEBUILDING LIGHTS,NECB-B-LIGHTING,ALL_ST=WHOLEBUILDING_FL=STORY 1_SCH=B,1875.00,187.5,18187.349,9.700,97.002,0.000,0.500,0.200,0.300,1.000,General,1818.735,16368.614
 Lights Internal Gains Nominal, ALL_ST=WHOLEBUILDING_FL=STORY 4_SCH=B DINING - FAMILY WHOLEBUILDING LIGHTS,NECB-B-LIGHTING,ALL_ST=WHOLEBUILDING_FL=STORY 4_SCH=B,2500.00,250.0,23999.800,9.600,96.002,0.000,0.500,0.200,0.300,1.000,General,2399.980,21599.820
 Lights Internal Gains Nominal, DU_BT=DORMITORY_ST=WHOLEBUILDING_FL=STORY 3_SCHG DORMITORY WHOLEBUILDING LIGHTS,NECB-G-LIGHTING,DU_BT=DORMITORY_ST=WHOLEBUILDING_FL=STORY 3_SCHG,1875.00,62.6,12374.897,6.600,197.792,0.000,0.500,0.200,0.300,1.000,General,0.000,11137.407
 Lights Internal Gains Nominal, ALL_ST=WHOLEBUILDING_FL=STORY 2_SCH=B EXERCISE CENTRE WHOLEBUILDING LIGHTS,NECB-B-LIGHTING,ALL_ST=WHOLEBUILDING_FL=STORY 2_SCH=B,1875.00,187.5,17812.352,9.500,95.002,0.000,0.500,0.200,0.300,1.000,General,1781.235,16031.117
 Lights Internal Gains Nominal, ALL_ST=WHOLEBUILDING_FL=STORY 1_SCH=F FIRE STATION WHOLEBUILDING LIGHTS,NECB-F-LIGHTING,ALL_ST=WHOLEBUILDING_FL=STORY 1_SCH=F,1875.00,75.1,14249.881,7.600,189.800,0.000,0.500,0.200,0.300,1.000,General,1424.988,12824.893
 Lights Internal Gains Nominal, ALL_ST=WHOLEBUILDING_FL=STORY 4_SCH=B 1 GYMNASIUM WHOLEBUILDING LIGHTS,NECB-B-LIGHTING,ALL_ST=WHOLEBUILDING_FL=STORY 4_SCH=B 1,1875.00,187.5,20249.831,10.800,108.003,0.000,0.500,0.200,0.300,1.000,General,2024.983,18224.848
 Lights Internal Gains Nominal, ALL_ST=WHOLEBUILDING_FL=STORY 2_SCH=A HEALTH-CARE CLINIC WHOLEBUILDING LIGHTS,NECB-A-LIGHTING,ALL_ST=WHOLEBUILDING_FL=STORY 2_SCH=A,2500.00,125.1,23499.804,9.400,187.802,0.000,0.500,0.200,0.300,1.000,General,1174.990,21149.824
 Lights Internal Gains Nominal, ALL_ST=WHOLEBUILDING_FL=STORY 4_SCH=H HOSPITAL WHOLEBUILDING LIGHTS,NECB-H-LIGHTING,ALL_ST=WHOLEBUILDING_FL=STORY 4_SCH=H,1875.00,93.8,24374.797,13.000,259.727,0.000,0.500,0.200,0.300,1.000,General,21937.317,21937.317
 Lights Internal Gains Nominal, DU_BT=HOTEL_ST=WHOLEBUILDING_FL=STORY 4_SCHF HOTEL WHOLEBUILDING LIGHTS,NECB-F-LIGHTING,DU_BT=HOTEL_ST=WHOLEBUILDING_FL=STORY 4_SCHF,1875.00,75.1,20249.831,10.800,269.716,0.000,0.500,0.200,0.300,1.000,General,2024.983,18224.848
 Lights Internal Gains Nominal, ALL_ST=WHOLEBUILDING_FL=STORY 1_SCH=C LIBRARY WHOLEBUILDING LIGHTS,NECB-C-LIGHTING,ALL_ST=WHOLEBUILDING_FL=STORY 1_SCH=C,1875.00,93.8,23812.302,12.700,253.733,0.000,0.500,0.200,0.300,1.000,General,1190.615,21431.072
 Lights Internal Gains Nominal, ALL_ST=WHOLEBUILDING_FL=STORY 1_SCH=A MANUFACTURING FACILITY WHOLEBUILDING LIGHTS,NECB-A-LIGHTING,ALL_ST=WHOLEBUILDING_FL=STORY 1_SCH=A,1875.00,62.6,22312.314,11.900,356.625,0.000,0.500,0.200,0.300,1.000,General,1115.616,20081.083
 Lights Internal Gains Nominal, DU_BT=MOTEL_ST=WHOLEBUILDING_FL=STORY 2_SCHF MOTEL WHOLEBUILDING LIGHTS,NECB-F-LIGHTING,DU_BT=MOTEL_ST=WHOLEBUILDING_FL=STORY 2_SCHF,1875.00,75.1,17812.352,9.500,237.250,0.000,0.500,0.200,0.300,1.000,General,1781.235,16031.117
 Lights Internal Gains Nominal, ALL_ST=WHOLEBUILDING_FL=STORY 3_SCH=C 1 MOTION PICTURE THEATRE WHOLEBUILDING LIGHTS,NECB-C-LIGHTING,ALL_ST=WHOLEBUILDING_FL=STORY 3_SCH=C 1,1875.00,234.3,16687.361,8.900,71.217,0.000,0.500,0.200,0.300,1.000,General,834.368,15018.625
 Lights Internal Gains Nominal, DU_BT=MULTI-UNIT RESIDENTIAL_ST=WHOLEBUILDING_FL=STORY 1_SCHG MULTI-UNIT RESIDENTIAL WHOLEBUILDING LIGHTS,NECB-G-LIGHTING,DU_BT=MULTI-UNIT RESIDENTIAL_ST=WHOLEBUILDING_FL=STORY 1_SCHG,2500.00,41.7,16249.865,6.500,389.590,0.000,0.500,0.200,0.300,1.000,General,0.000,14624.878
 Lights Internal Gains Nominal, ALL_ST=WHOLEBUILDING_FL=STORY 2_SCH=C MUSEUM WHOLEBUILDING LIGHTS,NECB-C-LIGHTING,ALL_ST=WHOLEBUILDING_FL=STORY 2_SCH=C,1875.00,93.8,21374.822,11.400,227.760,0.000,0.500,0.200,0.300,1.000,General,1068.741,19237.340
 Lights Internal Gains Nominal, ALL_ST=WHOLEBUILDING_FL=STORY 2_SCH=A 1 OFFICE WHOLEBUILDING LIGHTS,NECB-A-LIGHTING,ALL_ST=WHOLEBUILDING_FL=STORY 2_SCH=A 1,1875.00,75.1,18187.349,9.700,242.245,0.000,0.500,0.200,0.300,1.000,General,909.367,16368.614
! <ElectricEquipment Internal Gains Nominal>,Name,Schedule Name,Zone Name,Zone Floor Area {m2},# Zone Occupants,Equipment Level {W},Equipment/Floor Area {W/m2},Equipment per person {W/person},Fraction Latent,Fraction Radiant,Fraction Lost,Fraction Convected,End-Use SubCategory,Nominal Minimum Equipment Level {W},Nominal Maximum Equipment Level {W}
 ElectricEquipment Internal Gains Nominal, ALL_ST=WHOLEBUILDING_FL=STORY 4_SCH=E AUTOMOTIVE FACILITY WHOLEBUILDING ELEC EQUIP,NECB-E-ELECTRIC-EQUIPMENT,ALL_ST=WHOLEBUILDING_FL=STORY 4_SCH=E,1875.00,93.8,9374.922,5.000,99.895,0.000,0.500,0.000,0.500,General,468.746,8437.430
 ElectricEquipment Internal Gains Nominal, ALL_ST=WHOLEBUILDING_FL=STORY 3_SCH=C CONVENTION CENTRE WHOLEBUILDING ELEC EQUIP,NECB-C-ELECTRIC-EQUIPMENT,ALL_ST=WHOLEBUILDING_FL=STORY 3_SCH=C,2500.00,312.4,6249.948,2.500,20.005,0.000,0.500,0.000,0.500,General,312.497,5624.953
 ElectricEquipment Internal Gains Nominal, ALL_ST=WHOLEBUILDING_FL=STORY 3_SCH=A COURTHOUSE WHOLEBUILDING ELEC EQUIP,NECB-A-ELECTRIC-EQUIPMENT,ALL_ST=WHOLEBUILDING_FL=STORY 3_SCH=A,1875.00,124.9,9374.922,5.000,75.042,0.000,0.500,0.000,0.500,General,1874.984,8437.430
 ElectricEquipment Internal Gains Nominal, ALL_ST=WHOLEBUILDING_FL=STORY 3_SCH=B DINING - BAR/LOUNGE WHOLEBUILDING ELEC EQUIP,NECB-B-ELECTRIC-EQUIPMENT,ALL_ST=WHOLEBUILDING_FL=STORY 3_SCH=B,1875.00,187.5,1874.984,1.000,10.000,0.000,0.500,0.000,0.500,General,187.498,1687.486
 ElectricEquipment Internal Gains Nominal, ALL_ST=WHOLEBUILDING_FL=STORY 1_SCH=B DINING - CAFETERIA WHOLEBUILDING ELEC EQUIP,NECB-B-ELECTRIC-EQUIPMENT,ALL_ST=WHOLEBUILDING_FL=STORY 1_SCH=B,1875.00,187.5,1874.984,1.000,10.000,0.000,0.500,0.000,0.500,General,187.498,1687.486
 ElectricEquipment Internal Gains Nominal, ALL_ST=WHOLEBUILDING_FL=STORY 4_SCH=B DINING - FAMILY WHOLEBUILDING ELEC EQUIP,NECB-B-ELECTRIC-EQUIPMENT,ALL_ST=WHOLEBUILDING_FL=STORY 4_SCH=B,2500.00,250.0,2499.979,1.000,10.000,0.000,0.500,0.000,0.500,General,249.998,2249.981
 ElectricEquipment Internal Gains Nominal, DU_BT=DORMITORY_ST=WHOLEBUILDING_FL=STORY 3_SCHG DORMITORY WHOLEBUILDING ELEC EQUIP,NECB-G-ELECTRIC-EQUIPMENT,DU_BT=DORMITORY_ST=WHOLEBUILDING_FL=STORY 3_SCHG,1875.00,62.6,4687.461,2.500,74.921,0.000,0.500,0.000,0.500,General,937.492,4218.715
 ElectricEquipment Internal Gains Nominal, ALL_ST=WHOLEBUILDING_FL=STORY 2_SCH=B EXERCISE CENTRE WHOLEBUILDING ELEC EQUIP,NECB-B-ELECTRIC-EQUIPMENT,ALL_ST=WHOLEBUILDING_FL=STORY 2_SCH=B,1875.00,187.5,1874.984,1.000,10.000,0.000,0.500,0.000,0.500,General,187.498,1687.486
 ElectricEquipment Internal Gains Nominal, ALL_ST=WHOLEBUILDING_FL=STORY 1_SCH=F FIRE STATION WHOLEBUILDING ELEC EQUIP,NECB-F-ELECTRIC-EQUIPMENT,ALL_ST=WHOLEBUILDING_FL=STORY 1_SCH=F,1875.00,75.1,4687.461,2.500,62.434,0.000,0.500,0.000,0.500,General,468.746,4218.715
 ElectricEquipment Internal Gains Nominal, ALL_ST=WHOLEBUILDING_FL=STORY 4_SCH=B 1 GYMNASIUM WHOLEBUILDING ELEC EQUIP,NECB-B-ELECTRIC-EQUIPMENT,ALL_ST=WHOLEBUILDING_FL=STORY 4_SCH=B 1,1875.00,187.5,1874.984,1.000,10.000,0.000,0.500,0.000,0.500,General,187.498,1687.486
 ElectricEquipment Internal Gains Nominal, ALL_ST=WHOLEBUILDING_FL=STORY 2_SCH=A HEALTH-CARE CLINIC WHOLEBUILDING ELEC EQUIP,NECB-A-ELECTRIC-EQUIPMENT,ALL_ST=WHOLEBUILDING_FL=STORY 2_SCH=A,2500.00,125.1,18749.844,7.500,149.842,0.000,0.500,0.000,0.500,General,3749.969,16874.860
 ElectricEquipment Internal Gains Nominal, ALL_ST=WHOLEBUILDING_FL=STORY 4_SCH=H HOSPITAL WHOLEBUILDING ELEC EQUIP,NECB-H-ELECTRIC-EQUIPMENT,ALL_ST=WHOLEBUILDING_FL=STORY 4_SCH=H,1875.00,93.8,14062.383,7.500,149.842,0.000,0.500,0.000,0.500,General,12656.145,12656.145
 ElectricEquipment Internal Gains Nominal, DU_BT=HOTEL_ST=WHOLEBUILDING_FL=STORY 4_SCHF HOTEL WHOLEBUILDING ELEC EQUIP,NECB-F-ELECTRIC-EQUIPMENT,DU_BT=HOTEL_ST=WHOLEBUILDING_FL=STORY 4_SCHF,1875.00,75.1,4687.461,2.500,62.434,0.000,0.500,0.000,0.500,General,468.746,4218.715
 ElectricEquipment Internal Gains Nominal, ALL_ST=WHOLEBUILDING_FL=STORY 1_SCH=C LIBRARY WHOLEBUILDING ELEC EQUIP,NECB-C-ELECTRIC-EQUIPMENT,ALL_ST=WHOLEBUILDING_FL=STORY 1_SCH=C,1875.00,93.8,4687.461,2.500,49.947,0.000,0.500,0.000,0.500,General,234.373,4218.715
 ElectricEquipment Internal Gains Nominal, ALL_ST=WHOLEBUILDING_FL=STORY 1_SCH=A MANUFACTURING FACILITY WHOLEBUILDING ELEC EQUIP,NECB-A-ELECTRIC-EQUIPMENT,ALL_ST=WHOLEBUILDING_FL=STORY 1_SCH=A,1875.00,62.6,18749.844,10.000,299.685,0.000,0.500,0.000,0.500,General,3749.969,16874.860
 ElectricEquipment Internal Gains Nominal, DU_BT=MOTEL_ST=WHOLEBUILDING_FL=STORY 2_SCHF MOTEL WHOLEBUILDING ELEC EQUIP,NECB-F-ELECTRIC-EQUIPMENT,DU_BT=MOTEL_ST=WHOLEBUILDING_FL=STORY 2_SCHF,1875.00,75.1,4687.461,2.500,62.434,0.000,0.500,0.000,0.500,General,468.746,4218.715
 ElectricEquipment Internal Gains Nominal, ALL_ST=WHOLEBUILDING_FL=STORY 3_SCH=C 1 MOTION PICTURE THEATRE WHOLEBUILDING ELEC EQUIP,NECB-C-ELECTRIC-EQUIPMENT,ALL_ST=WHOLEBUILDING_FL=STORY 3_SCH=C 1,1875.00,234.3,1874.984,1.000,8.002,0.000,0.500,0.000,0.500,General,93.749,1687.486
 ElectricEquipment Internal Gains Nominal, DU_BT=MULTI-UNIT RESIDENTIAL_ST=WHOLEBUILDING_FL=STORY 1_SCHG MULTI-UNIT RESIDENTIAL WHOLEBUILDING ELEC EQUIP,NECB-G-ELECTRIC-EQUIPMENT,DU_BT=MULTI-UNIT RESIDENTIAL_ST=WHOLEBUILDING_FL=STORY 1_SCHG,2500.00,41.7,12499.896,5.000,299.685,0.000,0.500,0.000,0.500,General,2499.979,11249.906
 ElectricEquipment Internal Gains Nominal, ALL_ST=WHOLEBUILDING_FL=STORY 2_SCH=C MUSEUM WHOLEBUILDING ELEC EQUIP,NECB-C-ELECTRIC-EQUIPMENT,ALL_ST=WHOLEBUILDING_FL=STORY 2_SCH=C,1875.00,93.8,4687.461,2.500,49.947,0.000,0.500,0.000,0.500,General,234.373,4218.715
 ElectricEquipment Internal Gains Nominal, ALL_ST=WHOLEBUILDING_FL=STORY 2_SCH=A 1 OFFICE WHOLEBUILDING ELEC EQUIP,NECB-A-ELECTRIC-EQUIPMENT,ALL_ST=WHOLEBUILDING_FL=STORY 2_SCH=A 1,1875.00,75.1,14062.383,7.500,187.303,0.000,0.500,0.000,0.500,General,2812.477,12656.145
! <Shadowing/Sun Position Calculations Annual Simulations>, Calculation Method, Value {days}, Allowable Number Figures in Shadow Overlap {}, Polygon Clipping Algorithm, Sky Diffuse Modeling Algorithm, External Shading Calculation Method, Output External Shading Calculation Results, Disable Self-Shading Within Shading Zone Groups, Disable Self-Shading From Shading Zone Groups to Other Zones
Shadowing/Sun Position Calculations Annual Simulations,AverageOverDaysInFrequency,20,15000,SutherlandHodgman,SimpleSkyDiffuseModeling,InternalCalculation,No,No,No
! <Water Heater Information>,Type,Name,Volume {m3},Maximum Capacity {W},Standard Rated Recovery Efficiency, Standard Rated Energy Factor
! <ZoneInfiltration Airflow Stats Nominal>,Name,Schedule Name,Zone Name, Zone Floor Area {m2}, # Zone Occupants,Design Volume Flow Rate {m3/s},Volume Flow Rate/Floor Area {m3/s/m2},Volume Flow Rate/Exterior Surface Area {m3/s/m2},ACH - Air Changes per Hour,Equation A - Constant Term Coefficient {},Equation B - Temperature Term Coefficient {1/C},Equation C - Velocity Term Coefficient {s/m}, Equation D - Velocity Squared Term Coefficient {s2/m2}
 ZoneInfiltration Airflow Stats Nominal, WHOLEBUILDING-OFFICE INFILTRATION,ALWAYS ON DISCRETE,ALL_ST=WHOLEBUILDING_FL=STORY 2_SCH=A 1,1875.00,75.1,9.500E-002,5.067E-005,2.500E-004,4.800E-002,0.000,0.000,0.224,0.000
 ZoneInfiltration Airflow Stats Nominal, WHOLEBUILDING-EXERCISE CENTRE INFILTRATION,ALWAYS ON DISCRETE,ALL_ST=WHOLEBUILDING_FL=STORY 2_SCH=B,1875.00,187.5,9.500E-002,5.067E-005,2.500E-004,4.800E-002,0.000,0.000,0.224,0.000
 ZoneInfiltration Airflow Stats Nominal, WHOLEBUILDING-MUSEUM INFILTRATION,ALWAYS ON DISCRETE,ALL_ST=WHOLEBUILDING_FL=STORY 2_SCH=C,1875.00,93.8,9.500E-002,5.067E-005,2.500E-004,4.800E-002,0.000,0.000,0.224,0.000
 ZoneInfiltration Airflow Stats Nominal, WHOLEBUILDING-COURTHOUSE INFILTRATION,ALWAYS ON DISCRETE,ALL_ST=WHOLEBUILDING_FL=STORY 3_SCH=A,1875.00,124.9,9.500E-002,5.067E-005,2.500E-004,4.800E-002,0.000,0.000,0.224,0.000
 ZoneInfiltration Airflow Stats Nominal, WHOLEBUILDING-DINING - BAR/LOUNGE INFILTRATION,ALWAYS ON DISCRETE,ALL_ST=WHOLEBUILDING_FL=STORY 3_SCH=B,1875.00,187.5,9.500E-002,5.067E-005,2.500E-004,4.800E-002,0.000,0.000,0.224,0.000
 ZoneInfiltration Airflow Stats Nominal, WHOLEBUILDING-MOTION PICTURE THEATRE INFILTRATION,ALWAYS ON DISCRETE,ALL_ST=WHOLEBUILDING_FL=STORY 3_SCH=C 1,1875.00,234.3,9.500E-002,5.067E-005,2.500E-004,4.800E-002,0.000,0.000,0.224,0.000
 ZoneInfiltration Airflow Stats Nominal, WHOLEBUILDING-DINING - FAMILY INFILTRATION,ALWAYS ON DISCRETE,ALL_ST=WHOLEBUILDING_FL=STORY 4_SCH=B,2500.00,250.0,0.625,2.500E-004,2.500E-004,0.237,0.000,0.000,0.224,0.000
 ZoneInfiltration Airflow Stats Nominal, WHOLEBUILDING-GYMNASIUM INFILTRATION,ALWAYS ON DISCRETE,ALL_ST=WHOLEBUILDING_FL=STORY 4_SCH=B 1,1875.00,187.5,0.564,3.007E-004,2.500E-004,0.285,0.000,0.000,0.224,0.000
 ZoneInfiltration Airflow Stats Nominal, WHOLEBUILDING-AUTOMOTIVE FACILITY INFILTRATION,ALWAYS ON DISCRETE,ALL_ST=WHOLEBUILDING_FL=STORY 4_SCH=E,1875.00,93.8,0.564,3.007E-004,2.500E-004,0.285,0.000,0.000,0.224,0.000
 ZoneInfiltration Airflow Stats Nominal, WHOLEBUILDING-HOSPITAL INFILTRATION,ALWAYS ON DISCRETE,ALL_ST=WHOLEBUILDING_FL=STORY 4_SCH=H,1875.00,93.8,0.564,3.007E-004,2.500E-004,0.285,0.000,0.000,0.224,0.000
 ZoneInfiltration Airflow Stats Nominal, WHOLEBUILDING-DORMITORY INFILTRATION,ALWAYS ON DISCRETE,DU_BT=DORMITORY_ST=WHOLEBUILDING_FL=STORY 3_SCHG,1875.00,62.6,9.500E-002,5.067E-005,2.500E-004,4.800E-002,0.000,0.000,0.224,0.000
 ZoneInfiltration Airflow Stats Nominal, WHOLEBUILDING-HOTEL INFILTRATION,ALWAYS ON DISCRETE,DU_BT=HOTEL_ST=WHOLEBUILDING_FL=STORY 4_SCHF,1875.00,75.1,0.564,3.007E-004,2.500E-004,0.285,0.000,0.000,0.224,0.000
 ZoneInfiltration Airflow Stats Nominal, WHOLEBUILDING-MOTEL INFILTRATION,ALWAYS ON DISCRETE,DU_BT=MOTEL_ST=WHOLEBUILDING_FL=STORY 2_SCHF,1875.00,75.1,9.500E-002,5.067E-005,2.500E-004,4.800E-002,0.000,0.000,0.224,0.000
! <AirFlow Model>, Simple
 AirFlow Model, Simple
! <RoomAir Model>, Zone Name, Mixing/Mundt/UCSDDV/UCSDCV/UCSDUFI/UCSDUFE/User Defined
RoomAir Model,ALL_ST=WHOLEBUILDING_FL=STORY 1_SCH=A,Mixing/Well-Stirred
RoomAir Model,ALL_ST=WHOLEBUILDING_FL=STORY 1_SCH=B,Mixing/Well-Stirred
RoomAir Model,ALL_ST=WHOLEBUILDING_FL=STORY 1_SCH=C,Mixing/Well-Stirred
RoomAir Model,ALL_ST=WHOLEBUILDING_FL=STORY 1_SCH=F,Mixing/Well-Stirred
RoomAir Model,ALL_ST=WHOLEBUILDING_FL=STORY 2_SCH=A,Mixing/Well-Stirred
RoomAir Model,ALL_ST=WHOLEBUILDING_FL=STORY 2_SCH=A 1,Mixing/Well-Stirred
RoomAir Model,ALL_ST=WHOLEBUILDING_FL=STORY 2_SCH=B,Mixing/Well-Stirred
RoomAir Model,ALL_ST=WHOLEBUILDING_FL=STORY 2_SCH=C,Mixing/Well-Stirred
RoomAir Model,ALL_ST=WHOLEBUILDING_FL=STORY 3_SCH=A,Mixing/Well-Stirred
RoomAir Model,ALL_ST=WHOLEBUILDING_FL=STORY 3_SCH=B,Mixing/Well-Stirred
RoomAir Model,ALL_ST=WHOLEBUILDING_FL=STORY 3_SCH=C,Mixing/Well-Stirred
RoomAir Model,ALL_ST=WHOLEBUILDING_FL=STORY 3_SCH=C 1,Mixing/Well-Stirred
RoomAir Model,ALL_ST=WHOLEBUILDING_FL=STORY 4_SCH=B,Mixing/Well-Stirred
RoomAir Model,ALL_ST=WHOLEBUILDING_FL=STORY 4_SCH=B 1,Mixing/Well-Stirred
RoomAir Model,ALL_ST=WHOLEBUILDING_FL=STORY 4_SCH=E,Mixing/Well-Stirred
RoomAir Model,ALL_ST=WHOLEBUILDING_FL=STORY 4_SCH=H,Mixing/Well-Stirred
RoomAir Model,DU_BT=DORMITORY_ST=WHOLEBUILDING_FL=STORY 3_SCHG,Mixing/Well-Stirred
RoomAir Model,DU_BT=HOTEL_ST=WHOLEBUILDING_FL=STORY 4_SCHF,Mixing/Well-Stirred
RoomAir Model,DU_BT=MOTEL_ST=WHOLEBUILDING_FL=STORY 2_SCHF,Mixing/Well-Stirred
RoomAir Model,DU_BT=MULTI-UNIT RESIDENTIAL_ST=WHOLEBUILDING_FL=STORY 1_SCHG,Mixing/Well-Stirred
! <AirflowNetwork Model:Control>, No Multizone or Distribution/Multizone with Distribution/Multizone without Distribution/Multizone with Distribution only during Fan Operation
AirflowNetwork Model:Control,NoMultizoneOrDistribution
! <Zone Volume Capacitance Multiplier>, Sensible Heat Capacity Multiplier, Moisture Capacity Multiplier, Carbon Dioxide Capacity Multiplier, Generic Contaminant Capacity Multiplier
Zone Volume Capacitance Multiplier,   1.000 ,   1.000,   1.000,   1.000
! <Load Timesteps in Zone Design Calculation Averaging Window>, Value
 Load Timesteps in Zone Design Calculation Averaging Window,    6
! <Heating Sizing Factor Information>, Sizing Factor ID, Value
 Heating Sizing Factor Information, Global,   1.3000    
 Heating Sizing Factor Information, Zone ALL_ST=WHOLEBUILDING_FL=STORY 1_SCH=A,   1.3000    
 Heating Sizing Factor Information, Zone ALL_ST=WHOLEBUILDING_FL=STORY 1_SCH=B,   1.3000    
 Heating Sizing Factor Information, Zone ALL_ST=WHOLEBUILDING_FL=STORY 1_SCH=C,   1.3000    
 Heating Sizing Factor Information, Zone ALL_ST=WHOLEBUILDING_FL=STORY 1_SCH=F,   1.3000    
 Heating Sizing Factor Information, Zone ALL_ST=WHOLEBUILDING_FL=STORY 2_SCH=A,   1.3000    
 Heating Sizing Factor Information, Zone ALL_ST=WHOLEBUILDING_FL=STORY 2_SCH=A 1,   1.3000    
 Heating Sizing Factor Information, Zone ALL_ST=WHOLEBUILDING_FL=STORY 2_SCH=B,   1.3000    
 Heating Sizing Factor Information, Zone ALL_ST=WHOLEBUILDING_FL=STORY 2_SCH=C,   1.3000    
 Heating Sizing Factor Information, Zone ALL_ST=WHOLEBUILDING_FL=STORY 3_SCH=A,   1.3000    
 Heating Sizing Factor Information, Zone ALL_ST=WHOLEBUILDING_FL=STORY 3_SCH=B,   1.3000    
 Heating Sizing Factor Information, Zone ALL_ST=WHOLEBUILDING_FL=STORY 3_SCH=C,   1.3000    
 Heating Sizing Factor Information, Zone ALL_ST=WHOLEBUILDING_FL=STORY 3_SCH=C 1,   1.3000    
 Heating Sizing Factor Information, Zone ALL_ST=WHOLEBUILDING_FL=STORY 4_SCH=B,   1.3000    
 Heating Sizing Factor Information, Zone ALL_ST=WHOLEBUILDING_FL=STORY 4_SCH=B 1,   1.3000    
 Heating Sizing Factor Information, Zone ALL_ST=WHOLEBUILDING_FL=STORY 4_SCH=E,   1.3000    
 Heating Sizing Factor Information, Zone ALL_ST=WHOLEBUILDING_FL=STORY 4_SCH=H,   1.3000    
 Heating Sizing Factor Information, Zone DU_BT=DORMITORY_ST=WHOLEBUILDING_FL=STORY 3_SCHG,   1.3000    
 Heating Sizing Factor Information, Zone DU_BT=HOTEL_ST=WHOLEBUILDING_FL=STORY 4_SCHF,   1.3000    
 Heating Sizing Factor Information, Zone DU_BT=MOTEL_ST=WHOLEBUILDING_FL=STORY 2_SCHF,   1.3000    
 Heating Sizing Factor Information, Zone DU_BT=MULTI-UNIT RESIDENTIAL_ST=WHOLEBUILDING_FL=STORY 1_SCHG,   1.3000    
! <Cooling Sizing Factor Information>, Sizing Factor ID, Value
 Cooling Sizing Factor Information, Global,   1.1000    
 Cooling Sizing Factor Information, Zone ALL_ST=WHOLEBUILDING_FL=STORY 1_SCH=A,   1.1000    
 Cooling Sizing Factor Information, Zone ALL_ST=WHOLEBUILDING_FL=STORY 1_SCH=B,   1.1000    
 Cooling Sizing Factor Information, Zone ALL_ST=WHOLEBUILDING_FL=STORY 1_SCH=C,   1.1000    
 Cooling Sizing Factor Information, Zone ALL_ST=WHOLEBUILDING_FL=STORY 1_SCH=F,   1.1000    
 Cooling Sizing Factor Information, Zone ALL_ST=WHOLEBUILDING_FL=STORY 2_SCH=A,   1.1000    
 Cooling Sizing Factor Information, Zone ALL_ST=WHOLEBUILDING_FL=STORY 2_SCH=A 1,   1.1000    
 Cooling Sizing Factor Information, Zone ALL_ST=WHOLEBUILDING_FL=STORY 2_SCH=B,   1.1000    
 Cooling Sizing Factor Information, Zone ALL_ST=WHOLEBUILDING_FL=STORY 2_SCH=C,   1.1000    
 Cooling Sizing Factor Information, Zone ALL_ST=WHOLEBUILDING_FL=STORY 3_SCH=A,   1.1000    
 Cooling Sizing Factor Information, Zone ALL_ST=WHOLEBUILDING_FL=STORY 3_SCH=B,   1.1000    
 Cooling Sizing Factor Information, Zone ALL_ST=WHOLEBUILDING_FL=STORY 3_SCH=C,   1.1000    
 Cooling Sizing Factor Information, Zone ALL_ST=WHOLEBUILDING_FL=STORY 3_SCH=C 1,   1.1000    
 Cooling Sizing Factor Information, Zone ALL_ST=WHOLEBUILDING_FL=STORY 4_SCH=B,   1.1000    
 Cooling Sizing Factor Information, Zone ALL_ST=WHOLEBUILDING_FL=STORY 4_SCH=B 1,   1.1000    
 Cooling Sizing Factor Information, Zone ALL_ST=WHOLEBUILDING_FL=STORY 4_SCH=E,   1.1000    
 Cooling Sizing Factor Information, Zone ALL_ST=WHOLEBUILDING_FL=STORY 4_SCH=H,   1.1000    
 Cooling Sizing Factor Information, Zone DU_BT=DORMITORY_ST=WHOLEBUILDING_FL=STORY 3_SCHG,   1.1000    
 Cooling Sizing Factor Information, Zone DU_BT=HOTEL_ST=WHOLEBUILDING_FL=STORY 4_SCHF,   1.1000    
 Cooling Sizing Factor Information, Zone DU_BT=MOTEL_ST=WHOLEBUILDING_FL=STORY 2_SCHF,   1.1000    
 Cooling Sizing Factor Information, Zone DU_BT=MULTI-UNIT RESIDENTIAL_ST=WHOLEBUILDING_FL=STORY 1_SCHG,   1.1000    
! <Zone Sizing Information>, Zone Name, Load Type, Calc Des Load {W}, User Des Load {W}, Calc Des Air Flow Rate {m3/s}, User Des Air Flow Rate {m3/s}, Design Day Name, Date/Time of Peak, Temperature at Peak {C}, Humidity Ratio at Peak {kgWater/kgDryAir}, Floor Area {m2}, # Occupants, Calc Outdoor Air Flow Rate {m3/s}, Calc DOAS Heat Addition Rate {W}
 Zone Sizing Information, ALL_ST=WHOLEBUILDING_FL=STORY 1_SCH=A, Cooling, 34898.26689, 38388.09358, 2.69723, 2.96695, FORT MCMURRAY AP ANN CLG .4% CONDNS DB=>MWB, 7/21 17:00:00, 27.16400, 8.76969E-003, 1875.00000, 62.56523, 2.00978, 0.00000
 Zone Sizing Information, ALL_ST=WHOLEBUILDING_FL=STORY 1_SCH=A, Heating, 0.00000, 0.00000, 0.00000, 2.00978, FORT MCMURRAY AP ANN HTG 99.6% CONDNS DB, , -36.20000, 1.25811E-004, 1875.00000, 62.56523, 2.00978, 0.00000
 Zone Sizing Information, ALL_ST=WHOLEBUILDING_FL=STORY 1_SCH=B, Cooling, 26244.32515, 28868.75767, 2.02851, 2.38125, FORT MCMURRAY AP ANN CLG .4% CONDNS DB=>MWB, 7/21 21:40:00, 20.84000, 8.76969E-003, 1875.00000, 187.49386, 2.38125, 0.00000
 Zone Sizing Information, ALL_ST=WHOLEBUILDING_FL=STORY 1_SCH=B, Heating, 0.00000, 0.00000, 0.00000, 2.38125, FORT MCMURRAY AP ANN HTG 99.6% CONDNS DB, , -36.20000, 1.25811E-004, 1875.00000, 187.49386, 2.38125, 0.00000
 Zone Sizing Information, ALL_ST=WHOLEBUILDING_FL=STORY 1_SCH=C, Cooling, 25800.80657, 28380.88723, 1.99414, 2.19355, FORT MCMURRAY AP ANN CLG .4% CONDNS DB=>MWB, 7/21 17:00:00, 27.16400, 8.76969E-003, 1875.00000, 93.84784, 1.36208, 0.00000
 Zone Sizing Information, ALL_ST=WHOLEBUILDING_FL=STORY 1_SCH=C, Heating, 0.00000, 0.00000, 0.00000, 1.36208, FORT MCMURRAY AP ANN HTG 99.6% CONDNS DB, , -36.20000, 1.25811E-004, 1875.00000, 93.84784, 1.36208, 0.00000
 Zone Sizing Information, ALL_ST=WHOLEBUILDING_FL=STORY 1_SCH=F, Cooling, 16082.70818, 17690.97899, 1.24296, 1.40970, FORT MCMURRAY AP ANN CLG .4% CONDNS DB=>MWB, 7/21 22:00:00, 20.46800, 8.76969E-003, 1875.00000, 75.07828, 1.40970, 0.00000
 Zone Sizing Information, ALL_ST=WHOLEBUILDING_FL=STORY 1_SCH=F, Heating, 0.00000, 0.00000, 0.00000, 1.40970, FORT MCMURRAY AP ANN HTG 99.6% CONDNS DB, , -36.20000, 1.25811E-004, 1875.00000, 75.07828, 1.40970, 0.00000
 Zone Sizing Information, ALL_ST=WHOLEBUILDING_FL=STORY 2_SCH=A, Cooling, 39366.43875, 43303.08262, 3.04268, 5.71500, FORT MCMURRAY AP ANN CLG .4% CONDNS DB=>MWB, 7/21 17:00:00, 27.16400, 8.76969E-003, 2500.00000, 125.13046, 5.71500, 0.00000
 Zone Sizing Information, ALL_ST=WHOLEBUILDING_FL=STORY 2_SCH=A, Heating, 0.00000, 0.00000, 0.00000, 5.71500, FORT MCMURRAY AP ANN HTG 99.6% CONDNS DB, , -36.20000, 1.25811E-004, 2500.00000, 125.13046, 5.71500, 0.00000
 Zone Sizing Information, ALL_ST=WHOLEBUILDING_FL=STORY 2_SCH=A 1, Cooling, 48275.32361, 53102.85597, 3.73108, 4.10419, FORT MCMURRAY AP ANN CLG .4% CONDNS DB=>MWB, 7/21 10:00:00, 24.18800, 8.76969E-003, 1875.00000, 75.07828, 0.75248, 0.00000
 Zone Sizing Information, ALL_ST=WHOLEBUILDING_FL=STORY 2_SCH=A 1, Heating, 454.55651, 590.92346, 1.83125E-002, 0.75248, FORT MCMURRAY AP ANN HTG 99.6% CONDNS DB, 1/21 07:10:00, -36.20000, 1.25811E-004, 1875.00000, 75.07828, 0.75248, 0.00000
 Zone Sizing Information, ALL_ST=WHOLEBUILDING_FL=STORY 2_SCH=B, Cooling, 38782.80317, 42661.08349, 2.99771, 3.29748, FORT MCMURRAY AP ANN CLG .4% CONDNS DB=>MWB, 7/21 13:10:00, 28.38333, 8.76969E-003, 1875.00000, 187.49386, 2.34315, 0.00000
 Zone Sizing Information, ALL_ST=WHOLEBUILDING_FL=STORY 2_SCH=B, Heating, 7462.05024, 9700.66531, 0.29318, 2.34315, FORT MCMURRAY AP ANN HTG 99.6% CONDNS DB, 1/21 10:00:00, -36.20000, 1.25811E-004, 1875.00000, 187.49386, 2.34315, 0.00000
 Zone Sizing Information, ALL_ST=WHOLEBUILDING_FL=STORY 2_SCH=C, Cooling, 27354.27864, 30089.70651, 2.11420, 2.32562, FORT MCMURRAY AP ANN CLG .4% CONDNS DB=>MWB, 7/21 17:00:00, 27.16400, 8.76969E-003, 1875.00000, 93.84784, 0.90488, 0.00000
 Zone Sizing Information, ALL_ST=WHOLEBUILDING_FL=STORY 2_SCH=C, Heating, 5395.19175, 7013.74927, 0.20873, 0.90488, FORT MCMURRAY AP ANN HTG 99.6% CONDNS DB, 1/21 09:00:00, -36.20000, 1.25811E-004, 1875.00000, 93.84784, 0.90488, 0.00000
 Zone Sizing Information, ALL_ST=WHOLEBUILDING_FL=STORY 3_SCH=A, Cooling, 54495.70507, 59945.27558, 4.21203, 4.63323, FORT MCMURRAY AP ANN CLG .4% CONDNS DB=>MWB, 7/21 10:00:00, 24.18800, 8.76969E-003, 1875.00000, 124.92864, 0.86678, 0.00000
 Zone Sizing Information, ALL_ST=WHOLEBUILDING_FL=STORY 3_SCH=A, Heating, 10491.98134, 13639.57574, 0.41132, 0.86678, FORT MCMURRAY AP ANN HTG 99.6% CONDNS DB, 1/21 08:00:00, -36.20000, 1.25811E-004, 1875.00000, 124.92864, 0.86678, 0.00000
 Zone Sizing Information, ALL_ST=WHOLEBUILDING_FL=STORY 3_SCH=B, Cooling, 36921.79565, 40613.97521, 2.85370, 3.13907, FORT MCMURRAY AP ANN CLG .4% CONDNS DB=>MWB, 7/21 20:10:00, 22.51400, 8.76969E-003, 1875.00000, 187.49386, 2.38125, 0.00000
 Zone Sizing Information, ALL_ST=WHOLEBUILDING_FL=STORY 3_SCH=B, Heating, 19753.74374, 25679.86687, 0.77017, 2.38125, FORT MCMURRAY AP ANN HTG 99.6% CONDNS DB, 1/21 10:00:00, -36.20000, 1.25811E-004, 1875.00000, 187.49386, 2.38125, 0.00000
 Zone Sizing Information, ALL_ST=WHOLEBUILDING_FL=STORY 3_SCH=C, Cooling, 51832.98104, 57016.27914, 4.00672, 4.40739, FORT MCMURRAY AP ANN CLG .4% CONDNS DB=>MWB, 7/21 17:00:00, 27.16400, 8.76969E-003, 2500.00000, 312.42250, 1.86690, 0.00000
 Zone Sizing Information, ALL_ST=WHOLEBUILDING_FL=STORY 3_SCH=C, Heating, 0.00000, 0.00000, 0.00000, 1.86690, FORT MCMURRAY AP ANN HTG 99.6% CONDNS DB, , -36.20000, 1.25811E-004, 2500.00000, 312.42250, 1.86690, 0.00000
 Zone Sizing Information, ALL_ST=WHOLEBUILDING_FL=STORY 3_SCH=C 1, Cooling, 52518.97899, 57770.87689, 4.05975, 4.46572, FORT MCMURRAY AP ANN CLG .4% CONDNS DB=>MWB, 7/21 17:50:00, 26.13067, 8.76969E-003, 1875.00000, 234.31687, 1.12395, 0.00000
 Zone Sizing Information, ALL_ST=WHOLEBUILDING_FL=STORY 3_SCH=C 1, Heating, 20305.64770, 26397.34201, 0.79234, 1.12395, FORT MCMURRAY AP ANN HTG 99.6% CONDNS DB, 1/21 09:00:00, -36.20000, 1.25811E-004, 1875.00000, 234.31687, 1.12395, 0.00000
 Zone Sizing Information, ALL_ST=WHOLEBUILDING_FL=STORY 4_SCH=B, Cooling, 85346.70837, 93881.37920, 6.59689, 7.25657, FORT MCMURRAY AP ANN CLG .4% CONDNS DB=>MWB, 7/21 13:10:00, 28.38333, 8.76969E-003, 2500.00000, 249.99182, 3.17500, 0.00000
 Zone Sizing Information, ALL_ST=WHOLEBUILDING_FL=STORY 4_SCH=B, Heating, 36841.74558, 47894.26925, 1.45223, 3.17500, FORT MCMURRAY AP ANN HTG 99.6% CONDNS DB, 1/21 10:00:00, -36.20000, 1.25811E-004, 2500.00000, 249.99182, 3.17500, 0.00000
 Zone Sizing Information, ALL_ST=WHOLEBUILDING_FL=STORY 4_SCH=B 1, Cooling, 75019.78938, 82521.76832, 5.79840, 6.37823, FORT MCMURRAY AP ANN CLG .4% CONDNS DB=>MWB, 7/21 15:40:00, 28.40400, 8.76969E-003, 1875.00000, 187.49386, 2.34315, 0.00000
 Zone Sizing Information, ALL_ST=WHOLEBUILDING_FL=STORY 4_SCH=B 1, Heating, 47008.34763, 61110.85192, 1.87299, 2.43489, FORT MCMURRAY AP ANN HTG 99.6% CONDNS DB, 1/21 10:00:00, -36.20000, 1.25811E-004, 1875.00000, 187.49386, 2.34315, 0.00000
 Zone Sizing Information, ALL_ST=WHOLEBUILDING_FL=STORY 4_SCH=E, Cooling, 82776.29729, 91053.92701, 6.39783, 7.03761, FORT MCMURRAY AP ANN CLG .4% CONDNS DB=>MWB, 7/21 13:30:00, 28.59000, 8.76969E-003, 1875.00000, 93.84784, 2.15265, 0.00000
 Zone Sizing Information, ALL_ST=WHOLEBUILDING_FL=STORY 4_SCH=E, Heating, 47686.97282, 61993.06466, 1.80529, 2.34687, FORT MCMURRAY AP ANN HTG 99.6% CONDNS DB, 1/21 08:20:00, -36.20000, 1.25811E-004, 1875.00000, 93.84784, 2.15265, 0.00000
 Zone Sizing Information, ALL_ST=WHOLEBUILDING_FL=STORY 4_SCH=H, Cooling, 85941.42471, 94535.56718, 6.64247, 7.30672, FORT MCMURRAY AP ANN CLG .4% CONDNS DB=>MWB, 7/21 10:20:00, 24.80800, 8.76969E-003, 1875.00000, 93.84784, 4.28625, 0.00000
 Zone Sizing Information, ALL_ST=WHOLEBUILDING_FL=STORY 4_SCH=H, Heating, 18350.47228, 23855.61396, 0.71287, 4.28625, FORT MCMURRAY AP ANN HTG 99.6% CONDNS DB, 1/21 09:00:00, -36.20000, 1.25811E-004, 1875.00000, 93.84784, 4.28625, 0.00000
 Zone Sizing Information, DU_BT=DORMITORY_ST=WHOLEBUILDING_FL=STORY 3_SCHG, Cooling, 29563.89473, 32520.28420, 2.28486, 2.51335, FORT MCMURRAY AP ANN CLG .4% CONDNS DB=>MWB, 7/21 20:00:00, 22.70000, 8.76969E-003, 1875.00000, 62.56523, 0.71438, 0.00000
 Zone Sizing Information, DU_BT=DORMITORY_ST=WHOLEBUILDING_FL=STORY 3_SCHG, Heating, 18856.66018, 24513.65823, 0.73942, 0.96125, FORT MCMURRAY AP ANN HTG 99.6% CONDNS DB, 1/21 09:00:00, -36.20000, 1.25811E-004, 1875.00000, 62.56523, 0.71438, 0.00000
 Zone Sizing Information, DU_BT=HOTEL_ST=WHOLEBUILDING_FL=STORY 4_SCHF, Cooling, 49678.68316, 54646.55147, 3.83938, 4.22332, FORT MCMURRAY AP ANN CLG .4% CONDNS DB=>MWB, 7/21 13:40:00, 28.69333, 8.76969E-003, 1875.00000, 75.07828, 0.75248, 0.00000
 Zone Sizing Information, DU_BT=HOTEL_ST=WHOLEBUILDING_FL=STORY 4_SCHF, Heating, 42113.88378, 54748.04891, 1.67514, 2.17769, FORT MCMURRAY AP ANN HTG 99.6% CONDNS DB, 1/21 09:00:00, -36.20000, 1.25811E-004, 1875.00000, 75.07828, 0.75248, 0.00000
 Zone Sizing Information, DU_BT=MOTEL_ST=WHOLEBUILDING_FL=STORY 2_SCHF, Cooling, 31021.39968, 34123.53964, 2.39748, 2.63723, FORT MCMURRAY AP ANN CLG .4% CONDNS DB=>MWB, 7/21 20:00:00, 22.70000, 8.76969E-003, 1875.00000, 75.07828, 0.75248, 0.00000
 Zone Sizing Information, DU_BT=MOTEL_ST=WHOLEBUILDING_FL=STORY 2_SCHF, Heating, 3665.67476, 4765.37719, 0.14854, 0.75248, FORT MCMURRAY AP ANN HTG 99.6% CONDNS DB, 1/21 13:00:00, -36.20000, 1.25811E-004, 1875.00000, 75.07828, 0.75248, 0.00000
 Zone Sizing Information, DU_BT=MULTI-UNIT RESIDENTIAL_ST=WHOLEBUILDING_FL=STORY 1_SCHG, Cooling, 20884.72296, 22973.19525, 1.61406, 1.77547, FORT MCMURRAY AP ANN CLG .4% CONDNS DB=>MWB, 7/21 20:00:00, 22.70000, 8.76969E-003, 2500.00000, 41.71015, 0.86360, 0.00000
 Zone Sizing Information, DU_BT=MULTI-UNIT RESIDENTIAL_ST=WHOLEBUILDING_FL=STORY 1_SCHG, Heating, 0.00000, 0.00000, 0.00000, 0.86360, FORT MCMURRAY AP ANN HTG 99.6% CONDNS DB, , -36.20000, 1.25811E-004, 2500.00000, 41.71015, 0.86360, 0.00000
! <System Sizing Information>, System Name, Load Type, Peak Load Kind, User Design Capacity, Calc Des Air Flow Rate [m3/s], User Des Air Flow Rate [m3/s], Design Day Name, Date/Time of Peak
 System Sizing Information, SYS_1_MAKE-UP AIR UNIT, Cooling, Sensible, 13676.20, 4.22332, 0.75248, FORT MCMURRAY AP ANN CLG .4% CONDNS DB=>MWB, 7/21 05:00:00
 System Sizing Information, SYS_1_MAKE-UP AIR UNIT, Heating, Sensible, 69020.07, 2.17769, 0.75248, FORT MCMURRAY AP ANN HTG 99.6% CONDNS DB, 1/21 09:00:00
 System Sizing Information, SYS_1_MAKE-UP AIR UNIT 1, Cooling, Sensible, 8453.22, 2.63723, 0.75248, FORT MCMURRAY AP ANN CLG .4% CONDNS DB=>MWB, 7/21 05:00:00
 System Sizing Information, SYS_1_MAKE-UP AIR UNIT 1, Heating, Sensible, 69020.07, 0.75248, 0.75248, FORT MCMURRAY AP ANN HTG 99.6% CONDNS DB, 1/21 00:10:00
 System Sizing Information, SYS_1_MAKE-UP AIR UNIT 2, Cooling, Sensible, 9701.58, 1.77547, 0.86360, FORT MCMURRAY AP ANN CLG .4% CONDNS DB=>MWB, 7/21 05:00:00
 System Sizing Information, SYS_1_MAKE-UP AIR UNIT 2, Heating, Sensible, 79212.90, 0.86360, 0.86360, FORT MCMURRAY AP ANN HTG 99.6% CONDNS DB, 1/21 00:10:00
 System Sizing Information, SYS_2_MAKE-UP AIR UNIT, Cooling, Sensible, 32934.74, 2.19355, 2.19355, FORT MCMURRAY AP ANN CLG .4% CONDNS DB=>MWB, 7/21 00:00:00
 System Sizing Information, SYS_2_MAKE-UP AIR UNIT, Heating, Sensible, 77768.92, 1.36208, 1.36208, FORT MCMURRAY AP ANN HTG 99.6% CONDNS DB, 1/21 00:10:00
 System Sizing Information, SYS_2_MAKE-UP AIR UNIT 1, Cooling, Sensible, 32941.23, 2.32562, 2.32562, FORT MCMURRAY AP ANN CLG .4% CONDNS DB=>MWB, 7/21 00:00:00
 System Sizing Information, SYS_2_MAKE-UP AIR UNIT 1, Heating, Sensible, 51664.67, 0.90488, 0.90488, FORT MCMURRAY AP ANN HTG 99.6% CONDNS DB, 1/21 00:10:00
 System Sizing Information, SYS_3_PSZ ALL_ST=WHOLEBUILDING_FL=STORY 1_SCH=A, Cooling, Sensible, 45160.87, 2.96695, 2.96695, FORT MCMURRAY AP ANN CLG .4% CONDNS DB=>MWB, 7/21 05:00:00
 System Sizing Information, SYS_3_PSZ ALL_ST=WHOLEBUILDING_FL=STORY 1_SCH=A, Heating, Sensible, 184344.74, 2.00978, 2.00978, FORT MCMURRAY AP ANN HTG 99.6% CONDNS DB, 1/21 00:10:00
 System Sizing Information, SYS_3_PSZ ALL_ST=WHOLEBUILDING_FL=STORY 1_SCH=B, Cooling, Sensible, 21621.17, 2.38125, 2.38125, FORT MCMURRAY AP ANN CLG .4% CONDNS DB=>MWB, 7/21 05:00:00
 System Sizing Information, SYS_3_PSZ ALL_ST=WHOLEBUILDING_FL=STORY 1_SCH=B, Heating, Sensible, 218417.93, 2.38125, 2.38125, FORT MCMURRAY AP ANN HTG 99.6% CONDNS DB, 1/21 00:10:00
 System Sizing Information, SYS_3_PSZ ALL_ST=WHOLEBUILDING_FL=STORY 3_SCH=A, Cooling, Sensible, 59208.26, 4.63323, 4.63323, FORT MCMURRAY AP ANN CLG .4% CONDNS DB=>MWB, 7/21 05:00:00
 System Sizing Information, SYS_3_PSZ ALL_ST=WHOLEBUILDING_FL=STORY 3_SCH=A, Heating, Sensible, 79504.13, 0.86678, 0.86678, FORT MCMURRAY AP ANN HTG 99.6% CONDNS DB, 1/21 00:10:00
 System Sizing Information, SYS_3_PSZ ALL_ST=WHOLEBUILDING_FL=STORY 3_SCH=B, Cooling, Sensible, 35890.96, 3.13907, 3.13907, FORT MCMURRAY AP ANN CLG .4% CONDNS DB=>MWB, 7/21 05:00:00
 System Sizing Information, SYS_3_PSZ ALL_ST=WHOLEBUILDING_FL=STORY 3_SCH=B, Heating, Sensible, 218417.93, 2.38125, 2.38125, FORT MCMURRAY AP ANN HTG 99.6% CONDNS DB, 1/21 00:10:00
 System Sizing Information, SYS_3_PSZ ALL_ST=WHOLEBUILDING_FL=STORY 3_SCH=C, Cooling, Sensible, 62981.14, 4.40739, 4.40739, FORT MCMURRAY AP ANN CLG .4% CONDNS DB=>MWB, 7/21 05:00:00
 System Sizing Information, SYS_3_PSZ ALL_ST=WHOLEBUILDING_FL=STORY 3_SCH=C, Heating, Sensible, 171239.66, 1.86690, 1.86690, FORT MCMURRAY AP ANN HTG 99.6% CONDNS DB, 1/21 00:10:00
 System Sizing Information, SYS_3_PSZ ALL_ST=WHOLEBUILDING_FL=STORY 3_SCH=C 1, Cooling, Sensible, 59654.35, 4.46572, 4.46572, FORT MCMURRAY AP ANN CLG .4% CONDNS DB=>MWB, 7/21 05:00:00
 System Sizing Information, SYS_3_PSZ ALL_ST=WHOLEBUILDING_FL=STORY 3_SCH=C 1, Heating, Sensible, 103093.26, 1.12395, 1.12395, FORT MCMURRAY AP ANN HTG 99.6% CONDNS DB, 1/21 00:10:00
 System Sizing Information, SYS_3_PSZ ALL_ST=WHOLEBUILDING_FL=STORY 4_SCH=B, Cooling, Sensible, 108554.11, 7.25657, 7.25657, FORT MCMURRAY AP ANN CLG .4% CONDNS DB=>MWB, 7/21 05:00:00
 System Sizing Information, SYS_3_PSZ ALL_ST=WHOLEBUILDING_FL=STORY 4_SCH=B, Heating, Sensible, 291223.91, 3.17500, 3.17500, FORT MCMURRAY AP ANN HTG 99.6% CONDNS DB, 1/21 00:10:00
 System Sizing Information, SYS_3_PSZ ALL_ST=WHOLEBUILDING_FL=STORY 4_SCH=H, Cooling, Sensible, 97090.46, 7.30672, 7.30672, FORT MCMURRAY AP ANN CLG .4% CONDNS DB=>MWB, 7/21 05:00:00
 System Sizing Information, SYS_3_PSZ ALL_ST=WHOLEBUILDING_FL=STORY 4_SCH=H, Heating, Sensible, 393152.28, 4.28625, 4.28625, FORT MCMURRAY AP ANN HTG 99.6% CONDNS DB, 1/21 00:10:00
 System Sizing Information, SYS_3_PSZ DU_BT=DORMITORY_ST=WHOLEBUILDING_FL=STORY 3_SCHG, Cooling, Sensible, 30942.22, 2.51335, 2.51335, FORT MCMURRAY AP ANN CLG .4% CONDNS DB=>MWB, 7/21 05:00:00
 System Sizing Information, SYS_3_PSZ DU_BT=DORMITORY_ST=WHOLEBUILDING_FL=STORY 3_SCHG, Heating, Sensible, 71604.31, 0.96125, 0.96125, FORT MCMURRAY AP ANN HTG 99.6% CONDNS DB, 1/21 09:00:00
 System Sizing Information, SYS_4_PSZ_ALL_ST=WHOLEBUILDING_FL=STORY 1_SCH=F, Cooling, Sensible, 12192.40, 1.40970, 1.40970, FORT MCMURRAY AP ANN CLG .4% CONDNS DB=>MWB, 7/21 05:00:00
 System Sizing Information, SYS_4_PSZ_ALL_ST=WHOLEBUILDING_FL=STORY 1_SCH=F, Heating, Sensible, 129303.42, 1.40970, 1.40970, FORT MCMURRAY AP ANN HTG 99.6% CONDNS DB, 1/21 00:10:00
 System Sizing Information, SYS_4_PSZ_ALL_ST=WHOLEBUILDING_FL=STORY 4_SCH=E, Cooling, Sensible, 101091.92, 7.03761, 7.03761, FORT MCMURRAY AP ANN CLG .4% CONDNS DB=>MWB, 7/21 05:00:00
 System Sizing Information, SYS_4_PSZ_ALL_ST=WHOLEBUILDING_FL=STORY 4_SCH=E, Heating, Sensible, 202513.17, 2.34687, 2.34687, FORT MCMURRAY AP ANN HTG 99.6% CONDNS DB, 1/21 09:00:00
 System Sizing Information, SYS_6_VAV WITH REHEAT, Cooling, Sensible, 193004.33, 13.11667, 13.11667, FORT MCMURRAY AP ANN CLG .4% CONDNS DB=>MWB, 7/21 00:00:00
 System Sizing Information, SYS_6_VAV WITH REHEAT, Heating, Sensible, 503050.70, 8.81063, 8.81063, FORT MCMURRAY AP ANN HTG 99.6% CONDNS DB, 1/21 00:10:00
 System Sizing Information, SYS_6_VAV WITH REHEAT 1, Cooling, Sensible, 93200.24, 6.37823, 6.37823, FORT MCMURRAY AP ANN CLG .4% CONDNS DB=>MWB, 7/21 00:00:00
 System Sizing Information, SYS_6_VAV WITH REHEAT 1, Heating, Sensible, 132857.35, 2.43489, 2.43489, FORT MCMURRAY AP ANN HTG 99.6% CONDNS DB, 1/21 00:10:00
! <Component Sizing Information>, Component Type, Component Name, Input Field Description, Value
 Component Sizing Information, AirTerminal:SingleDuct:Uncontrolled, AIR TERMINAL SINGLE DUCT UNCONTROLLED 13, Design Size Maximum Air Flow Rate [m3/s], 2.96695
 Component Sizing Information, ZoneHVAC:Baseboard:Convective:Water, ZONE HVAC BASEBOARD CONVECTIVE WATER 13, Design Size Maximum Water Flow Rate [m3/s], 0.00000
 Component Sizing Information, ZoneHVAC:Baseboard:Convective:Water, ZONE HVAC BASEBOARD CONVECTIVE WATER 13, Design Size U-Factor Times Area Value [W/K], 0.00000
 Component Sizing Information, AirTerminal:SingleDuct:Uncontrolled, AIR TERMINAL SINGLE DUCT UNCONTROLLED 10, Design Size Maximum Air Flow Rate [m3/s], 2.38125
 Component Sizing Information, ZoneHVAC:Baseboard:Convective:Water, ZONE HVAC BASEBOARD CONVECTIVE WATER 10, Design Size Maximum Water Flow Rate [m3/s], 0.00000
 Component Sizing Information, ZoneHVAC:Baseboard:Convective:Water, ZONE HVAC BASEBOARD CONVECTIVE WATER 10, Design Size U-Factor Times Area Value [W/K], 0.00000
 Component Sizing Information, ZoneHVAC:FourPipeFanCoil, ZONE HVAC FOUR PIPE FAN COIL 1, Design Size Maximum Supply Air Flow Rate [m3/s], 2.19355
 Component Sizing Information, Fan:ConstantVolume, FAN CONSTANT VOLUME 19, Design Size Maximum Flow Rate [m3/s], 2.19355
 Component Sizing Information, ZoneHVAC:FourPipeFanCoil, ZONE HVAC FOUR PIPE FAN COIL 1, Design Size Maximum Outdoor Air Flow Rate [m3/s], 1.36208
 Component Sizing Information, ZoneHVAC:FourPipeFanCoil, ZONE HVAC FOUR PIPE FAN COIL 1, Design Size Maximum Hot Water Flow [m3/s], 1.73846E-003
 Component Sizing Information, ZoneHVAC:FourPipeFanCoil, ZONE HVAC FOUR PIPE FAN COIL 1, Design Size Maximum Cold Water Flow [m3/s], 1.42428E-003
 Component Sizing Information, Coil:Cooling:Water, COIL COOLING WATER 3, Design Size Design Water Flow Rate [m3/s], 1.42428E-003
 Component Sizing Information, Coil:Cooling:Water, COIL COOLING WATER 3, Design Size Design Air Flow Rate [m3/s], 2.19355
 Component Sizing Information, Coil:Cooling:Water, COIL COOLING WATER 3, User-Specified Design Air Flow Rate [m3/s], 2.19355
 Component Sizing Information, Coil:Cooling:Water, COIL COOLING WATER 3, Design Size Design Inlet Air Temperature [C], 25.96427
 Component Sizing Information, Coil:Cooling:Water, COIL COOLING WATER 3, Design Size Design Inlet Water Temperature [C], 7.00000
 Component Sizing Information, Coil:Cooling:Water, COIL COOLING WATER 3, Design Size Design Inlet Air Humidity Ratio, 8.94219E-003
 Component Sizing Information, Coil:Cooling:Water, COIL COOLING WATER 3, Design Size Design Outlet Air Temperature [C], 13.00000
 Component Sizing Information, Coil:Cooling:Water, COIL COOLING WATER 3, Design Size Design Outlet Air Humidity Ratio, 8.50000E-003
! <Water Cooling Coil Capacity Information>,Component Type,Name,Nominal Total Capacity {W},Nominal Sensible Capacity {W},Nominal Latent Capacity {W},Nominal Sensible Heat Ratio, Nominal Coil UA Value {W/C}, Nominal Coil Surface Area {m2}
Water Cooling Coil Capacity Information,Coil:Cooling:Water,COIL COOLING WATER 3,47178.88,33581.95,13596.93,0.71,5043.91,51.16
 Component Sizing Information, Coil:Heating:Water, COIL HEATING WATER 10, Design Size Rated Capacity [W], 116395.50074
 Component Sizing Information, Coil:Heating:Water, COIL HEATING WATER 10, Design Size Maximum Water Flow Rate [m3/s], 1.73846E-003
 Component Sizing Information, Coil:Heating:Water, COIL HEATING WATER 10, Design Size U-Factor Times Area Value [W/K], 1680.67098
! <Water Heating Coil Capacity Information>,Component Type,Name,Nominal Total Capacity {W}
Water Heating Coil Capacity Information,Coil:Heating:Water,COIL HEATING WATER 10,63864.24
 Component Sizing Information, AirTerminal:SingleDuct:Uncontrolled, AIR TERMINAL SINGLE DUCT UNCONTROLLED 15, Design Size Maximum Air Flow Rate [m3/s], 2.19355
 Component Sizing Information, AirTerminal:SingleDuct:Uncontrolled, AIR TERMINAL SINGLE DUCT UNCONTROLLED 6, Design Size Maximum Air Flow Rate [m3/s], 1.40970
 Component Sizing Information, ZoneHVAC:Baseboard:Convective:Water, ZONE HVAC BASEBOARD CONVECTIVE WATER 6, Design Size Maximum Water Flow Rate [m3/s], 0.00000
 Component Sizing Information, ZoneHVAC:Baseboard:Convective:Water, ZONE HVAC BASEBOARD CONVECTIVE WATER 6, Design Size U-Factor Times Area Value [W/K], 0.00000
 Component Sizing Information, AirTerminal:SingleDuct:VAV:Reheat, AIR TERMINAL SINGLE DUCT VAV REHEAT 2, Design Size Maximum Air Flow Rate [m3/s], 5.71500
 Component Sizing Information, AirTerminal:SingleDuct:VAV:Reheat, AIR TERMINAL SINGLE DUCT VAV REHEAT 2, Design Size Constant Minimum Air Flow Fraction, 0.33333
 Component Sizing Information, AirTerminal:SingleDuct:VAV:Reheat, AIR TERMINAL SINGLE DUCT VAV REHEAT 2, User-Specified Constant Minimum Air Flow Fraction, 0.30000
 Component Sizing Information, AirTerminal:SingleDuct:VAV:Reheat, AIR TERMINAL SINGLE DUCT VAV REHEAT 2, Design Size Minimum Air Flow Rate [m3/s], 1.71450
 Component Sizing Information, AirTerminal:SingleDuct:VAV:Reheat, AIR TERMINAL SINGLE DUCT VAV REHEAT 2, Design Size Maximum Flow per Zone Floor Area during Reheat [m3/s-m2], 6.85800E-004
 Component Sizing Information, AirTerminal:SingleDuct:VAV:Reheat, AIR TERMINAL SINGLE DUCT VAV REHEAT 2, Design Size Maximum Flow Fraction during Reheat [], 0.30000
 Component Sizing Information, AirTerminal:SingleDuct:VAV:Reheat, AIR TERMINAL SINGLE DUCT VAV REHEAT 2, Design Size Maximum Reheat Water Flow Rate [m3/s], 2.72396E-004
 Component Sizing Information, AirTerminal:SingleDuct:VAV:Reheat, AIR TERMINAL SINGLE DUCT VAV REHEAT 2, Design Size Reheat Coil Sizing Air Volume Flow Rate [m3/s], 1.71450
 Component Sizing Information, AirTerminal:SingleDuct:VAV:Reheat, AIR TERMINAL SINGLE DUCT VAV REHEAT 2, Design Size Reheat Coil Sizing Inlet Air Temperature [C], 13.10000
 Component Sizing Information, AirTerminal:SingleDuct:VAV:Reheat, AIR TERMINAL SINGLE DUCT VAV REHEAT 2, Design Size Reheat Coil Sizing Inlet Air Humidity Ratio [kgWater/kgDryAir], 8.00000E-003
 Component Sizing Information, Coil:Heating:Water, COIL HEATING WATER 6, Design Size Rated Capacity [W], 18237.77507
 Component Sizing Information, Coil:Heating:Water, COIL HEATING WATER 6, Design Size Maximum Water Flow Rate [m3/s], 2.72396E-004
 Component Sizing Information, Coil:Heating:Water, COIL HEATING WATER 6, Design Size U-Factor Times Area Value [W/K], 328.83315
Water Heating Coil Capacity Information,Coil:Heating:Water,COIL HEATING WATER 6,17100.44
 Component Sizing Information, ZoneHVAC:Baseboard:Convective:Water, ZONE HVAC BASEBOARD CONVECTIVE WATER 16, Design Size Maximum Water Flow Rate [m3/s], 0.00000
 Component Sizing Information, ZoneHVAC:Baseboard:Convective:Water, ZONE HVAC BASEBOARD CONVECTIVE WATER 16, Design Size U-Factor Times Area Value [W/K], 0.00000
 Component Sizing Information, AirTerminal:SingleDuct:VAV:Reheat, AIR TERMINAL SINGLE DUCT VAV REHEAT 3, Design Size Maximum Air Flow Rate [m3/s], 4.10419
 Component Sizing Information, AirTerminal:SingleDuct:VAV:Reheat, AIR TERMINAL SINGLE DUCT VAV REHEAT 3, Design Size Constant Minimum Air Flow Fraction, 0.34812
 Component Sizing Information, AirTerminal:SingleDuct:VAV:Reheat, AIR TERMINAL SINGLE DUCT VAV REHEAT 3, User-Specified Constant Minimum Air Flow Fraction, 0.30000
 Component Sizing Information, AirTerminal:SingleDuct:VAV:Reheat, AIR TERMINAL SINGLE DUCT VAV REHEAT 3, Design Size Minimum Air Flow Rate [m3/s], 1.23126
 Component Sizing Information, AirTerminal:SingleDuct:VAV:Reheat, AIR TERMINAL SINGLE DUCT VAV REHEAT 3, Design Size Maximum Flow per Zone Floor Area during Reheat [m3/s-m2], 6.56670E-004
 Component Sizing Information, AirTerminal:SingleDuct:VAV:Reheat, AIR TERMINAL SINGLE DUCT VAV REHEAT 3, Design Size Maximum Flow Fraction during Reheat [], 0.30000
 Component Sizing Information, AirTerminal:SingleDuct:VAV:Reheat, AIR TERMINAL SINGLE DUCT VAV REHEAT 3, Design Size Maximum Reheat Water Flow Rate [m3/s], 0.00000
 Component Sizing Information, AirTerminal:SingleDuct:VAV:Reheat, AIR TERMINAL SINGLE DUCT VAV REHEAT 3, Design Size Reheat Coil Sizing Air Volume Flow Rate [m3/s], 1.23126
 Component Sizing Information, AirTerminal:SingleDuct:VAV:Reheat, AIR TERMINAL SINGLE DUCT VAV REHEAT 3, Design Size Reheat Coil Sizing Inlet Air Temperature [C], 13.10000
 Component Sizing Information, AirTerminal:SingleDuct:VAV:Reheat, AIR TERMINAL SINGLE DUCT VAV REHEAT 3, Design Size Reheat Coil Sizing Inlet Air Humidity Ratio [kgWater/kgDryAir], 8.00000E-003
 Component Sizing Information, Coil:Heating:Water, COIL HEATING WATER 7, User-Specified Rated Capacity [W], 7387.53920
 Component Sizing Information, Coil:Heating:Water, COIL HEATING WATER 7, Design Size Maximum Water Flow Rate [m3/s], 1.61748E-004
 Component Sizing Information, Coil:Heating:Water, COIL HEATING WATER 7, Design Size U-Factor Times Area Value [W/K], 147.63988
Water Heating Coil Capacity Information,Coil:Heating:Water,COIL HEATING WATER 7,7402.47
 Component Sizing Information, ZoneHVAC:Baseboard:Convective:Water, ZONE HVAC BASEBOARD CONVECTIVE WATER 17, Design Size Maximum Water Flow Rate [m3/s], 8.82592E-006
 Component Sizing Information, ZoneHVAC:Baseboard:Convective:Water, ZONE HVAC BASEBOARD CONVECTIVE WATER 17, Design Size U-Factor Times Area Value [W/K], 11.48054
 Component Sizing Information, AirTerminal:SingleDuct:VAV:Reheat, AIR TERMINAL SINGLE DUCT VAV REHEAT 1, Design Size Maximum Air Flow Rate [m3/s], 3.29748
 Component Sizing Information, AirTerminal:SingleDuct:VAV:Reheat, AIR TERMINAL SINGLE DUCT VAV REHEAT 1, Design Size Constant Minimum Air Flow Fraction, 0.43329
 Component Sizing Information, AirTerminal:SingleDuct:VAV:Reheat, AIR TERMINAL SINGLE DUCT VAV REHEAT 1, User-Specified Constant Minimum Air Flow Fraction, 0.30000
 Component Sizing Information, AirTerminal:SingleDuct:VAV:Reheat, AIR TERMINAL SINGLE DUCT VAV REHEAT 1, Design Size Minimum Air Flow Rate [m3/s], 0.98924
 Component Sizing Information, AirTerminal:SingleDuct:VAV:Reheat, AIR TERMINAL SINGLE DUCT VAV REHEAT 1, Design Size Maximum Flow per Zone Floor Area during Reheat [m3/s-m2], 5.27596E-004
 Component Sizing Information, AirTerminal:SingleDuct:VAV:Reheat, AIR TERMINAL SINGLE DUCT VAV REHEAT 1, Design Size Maximum Flow Fraction during Reheat [], 0.30000
 Component Sizing Information, AirTerminal:SingleDuct:VAV:Reheat, AIR TERMINAL SINGLE DUCT VAV REHEAT 1, Design Size Maximum Reheat Water Flow Rate [m3/s], 3.06711E-004
 Component Sizing Information, AirTerminal:SingleDuct:VAV:Reheat, AIR TERMINAL SINGLE DUCT VAV REHEAT 1, Design Size Reheat Coil Sizing Air Volume Flow Rate [m3/s], 0.98924
 Component Sizing Information, AirTerminal:SingleDuct:VAV:Reheat, AIR TERMINAL SINGLE DUCT VAV REHEAT 1, Design Size Reheat Coil Sizing Inlet Air Temperature [C], 13.10000
 Component Sizing Information, AirTerminal:SingleDuct:VAV:Reheat, AIR TERMINAL SINGLE DUCT VAV REHEAT 1, Design Size Reheat Coil Sizing Inlet Air Humidity Ratio [kgWater/kgDryAir], 8.00000E-003
 Component Sizing Information, Coil:Heating:Water, COIL HEATING WATER 5, Design Size Rated Capacity [W], 20535.27439
 Component Sizing Information, Coil:Heating:Water, COIL HEATING WATER 5, Design Size Maximum Water Flow Rate [m3/s], 3.06711E-004
 Component Sizing Information, Coil:Heating:Water, COIL HEATING WATER 5, Design Size U-Factor Times Area Value [W/K], 411.26544
Water Heating Coil Capacity Information,Coil:Heating:Water,COIL HEATING WATER 5,19271.92
 Component Sizing Information, ZoneHVAC:Baseboard:Convective:Water, ZONE HVAC BASEBOARD CONVECTIVE WATER 15, Design Size Maximum Water Flow Rate [m3/s], 1.44887E-004
 Component Sizing Information, ZoneHVAC:Baseboard:Convective:Water, ZONE HVAC BASEBOARD CONVECTIVE WATER 15, Design Size U-Factor Times Area Value [W/K], 293.23902
 Component Sizing Information, ZoneHVAC:FourPipeFanCoil, ZONE HVAC FOUR PIPE FAN COIL 2, Design Size Maximum Supply Air Flow Rate [m3/s], 2.32562
 Component Sizing Information, Fan:ConstantVolume, FAN CONSTANT VOLUME 21, Design Size Maximum Flow Rate [m3/s], 2.32562
 Component Sizing Information, ZoneHVAC:FourPipeFanCoil, ZONE HVAC FOUR PIPE FAN COIL 2, Design Size Maximum Outdoor Air Flow Rate [m3/s], 0.90488
 Component Sizing Information, ZoneHVAC:FourPipeFanCoil, ZONE HVAC FOUR PIPE FAN COIL 2, Design Size Maximum Hot Water Flow [m3/s], 1.15492E-003
 Component Sizing Information, ZoneHVAC:FourPipeFanCoil, ZONE HVAC FOUR PIPE FAN COIL 2, Design Size Maximum Cold Water Flow [m3/s], 1.45633E-003
 Component Sizing Information, Coil:Cooling:Water, COIL COOLING WATER 4, Design Size Design Water Flow Rate [m3/s], 1.45633E-003
 Component Sizing Information, Coil:Cooling:Water, COIL COOLING WATER 4, Design Size Design Air Flow Rate [m3/s], 2.32562
 Component Sizing Information, Coil:Cooling:Water, COIL COOLING WATER 4, User-Specified Design Air Flow Rate [m3/s], 2.32562
 Component Sizing Information, Coil:Cooling:Water, COIL COOLING WATER 4, Design Size Design Inlet Air Temperature [C], 25.23045
 Component Sizing Information, Coil:Cooling:Water, COIL COOLING WATER 4, Design Size Design Inlet Water Temperature [C], 7.00000
 Component Sizing Information, Coil:Cooling:Water, COIL COOLING WATER 4, Design Size Design Inlet Air Humidity Ratio, 9.01606E-003
 Component Sizing Information, Coil:Cooling:Water, COIL COOLING WATER 4, Design Size Design Outlet Air Temperature [C], 13.00000
 Component Sizing Information, Coil:Cooling:Water, COIL COOLING WATER 4, Design Size Design Outlet Air Humidity Ratio, 8.50000E-003
Water Cooling Coil Capacity Information,Coil:Cooling:Water,COIL COOLING WATER 4,49196.32,35228.95,13967.37,0.72,5268.10,53.43
 Component Sizing Information, Coil:Heating:Water, COIL HEATING WATER 11, Design Size Rated Capacity [W], 77325.63665
 Component Sizing Information, Coil:Heating:Water, COIL HEATING WATER 11, Design Size Maximum Water Flow Rate [m3/s], 1.15492E-003
 Component Sizing Information, Coil:Heating:Water, COIL HEATING WATER 11, Design Size U-Factor Times Area Value [W/K], 1116.52855
Water Heating Coil Capacity Information,Coil:Heating:Water,COIL HEATING WATER 11,42427.27
 Component Sizing Information, AirTerminal:SingleDuct:Uncontrolled, AIR TERMINAL SINGLE DUCT UNCONTROLLED 16, Design Size Maximum Air Flow Rate [m3/s], 2.32562
 Component Sizing Information, AirTerminal:SingleDuct:Uncontrolled, AIR TERMINAL SINGLE DUCT UNCONTROLLED 8, Design Size Maximum Air Flow Rate [m3/s], 4.63323
 Component Sizing Information, ZoneHVAC:Baseboard:Convective:Water, ZONE HVAC BASEBOARD CONVECTIVE WATER 8, Design Size Maximum Water Flow Rate [m3/s], 2.03718E-004
 Component Sizing Information, ZoneHVAC:Baseboard:Convective:Water, ZONE HVAC BASEBOARD CONVECTIVE WATER 8, Design Size U-Factor Times Area Value [W/K], 412.56647
 Component Sizing Information, AirTerminal:SingleDuct:Uncontrolled, AIR TERMINAL SINGLE DUCT UNCONTROLLED 9, Design Size Maximum Air Flow Rate [m3/s], 3.13907
 Component Sizing Information, ZoneHVAC:Baseboard:Convective:Water, ZONE HVAC BASEBOARD CONVECTIVE WATER 9, Design Size Maximum Water Flow Rate [m3/s], 3.83550E-004
 Component Sizing Information, ZoneHVAC:Baseboard:Convective:Water, ZONE HVAC BASEBOARD CONVECTIVE WATER 9, Design Size U-Factor Times Area Value [W/K], 778.19544
 Component Sizing Information, AirTerminal:SingleDuct:Uncontrolled, AIR TERMINAL SINGLE DUCT UNCONTROLLED 7, Design Size Maximum Air Flow Rate [m3/s], 4.40739
 Component Sizing Information, ZoneHVAC:Baseboard:Convective:Water, ZONE HVAC BASEBOARD CONVECTIVE WATER 7, Design Size Maximum Water Flow Rate [m3/s], 0.00000
 Component Sizing Information, ZoneHVAC:Baseboard:Convective:Water, ZONE HVAC BASEBOARD CONVECTIVE WATER 7, Design Size U-Factor Times Area Value [W/K], 0.00000
 Component Sizing Information, AirTerminal:SingleDuct:Uncontrolled, AIR TERMINAL SINGLE DUCT UNCONTROLLED 14, Design Size Maximum Air Flow Rate [m3/s], 4.46572
 Component Sizing Information, ZoneHVAC:Baseboard:Convective:Water, ZONE HVAC BASEBOARD CONVECTIVE WATER 14, Design Size Maximum Water Flow Rate [m3/s], 3.94266E-004
 Component Sizing Information, ZoneHVAC:Baseboard:Convective:Water, ZONE HVAC BASEBOARD CONVECTIVE WATER 14, Design Size U-Factor Times Area Value [W/K], 800.53450
 Component Sizing Information, AirTerminal:SingleDuct:Uncontrolled, AIR TERMINAL SINGLE DUCT UNCONTROLLED 11, Design Size Maximum Air Flow Rate [m3/s], 7.25657
 Component Sizing Information, ZoneHVAC:Baseboard:Convective:Water, ZONE HVAC BASEBOARD CONVECTIVE WATER 11, Design Size Maximum Water Flow Rate [m3/s], 7.15340E-004
 Component Sizing Information, ZoneHVAC:Baseboard:Convective:Water, ZONE HVAC BASEBOARD CONVECTIVE WATER 11, Design Size U-Factor Times Area Value [W/K], 1459.80492
 Component Sizing Information, AirTerminal:SingleDuct:VAV:Reheat, AIR TERMINAL SINGLE DUCT VAV REHEAT 4, Design Size Maximum Air Flow Rate [m3/s], 6.37823
 Component Sizing Information, AirTerminal:SingleDuct:VAV:Reheat, AIR TERMINAL SINGLE DUCT VAV REHEAT 4, Design Size Constant Minimum Air Flow Fraction, 0.22400
 Component Sizing Information, AirTerminal:SingleDuct:VAV:Reheat, AIR TERMINAL SINGLE DUCT VAV REHEAT 4, User-Specified Constant Minimum Air Flow Fraction, 0.30000
 Component Sizing Information, AirTerminal:SingleDuct:VAV:Reheat, AIR TERMINAL SINGLE DUCT VAV REHEAT 4, Design Size Minimum Air Flow Rate [m3/s], 1.91347
 Component Sizing Information, AirTerminal:SingleDuct:VAV:Reheat, AIR TERMINAL SINGLE DUCT VAV REHEAT 4, Design Size Maximum Flow per Zone Floor Area during Reheat [m3/s-m2], 1.02052E-003
 Component Sizing Information, AirTerminal:SingleDuct:VAV:Reheat, AIR TERMINAL SINGLE DUCT VAV REHEAT 4, Design Size Maximum Flow Fraction during Reheat [], 0.30000
 Component Sizing Information, AirTerminal:SingleDuct:VAV:Reheat, AIR TERMINAL SINGLE DUCT VAV REHEAT 4, Design Size Maximum Reheat Water Flow Rate [m3/s], 1.31466E-003
 Component Sizing Information, AirTerminal:SingleDuct:VAV:Reheat, AIR TERMINAL SINGLE DUCT VAV REHEAT 4, Design Size Reheat Coil Sizing Air Volume Flow Rate [m3/s], 2.43489
 Component Sizing Information, AirTerminal:SingleDuct:VAV:Reheat, AIR TERMINAL SINGLE DUCT VAV REHEAT 4, Design Size Reheat Coil Sizing Inlet Air Temperature [C], 13.10000
 Component Sizing Information, AirTerminal:SingleDuct:VAV:Reheat, AIR TERMINAL SINGLE DUCT VAV REHEAT 4, Design Size Reheat Coil Sizing Inlet Air Humidity Ratio [kgWater/kgDryAir], 8.00000E-003
 Component Sizing Information, Coil:Heating:Water, COIL HEATING WATER 9, Design Size Rated Capacity [W], 88020.37121
 Component Sizing Information, Coil:Heating:Water, COIL HEATING WATER 9, Design Size Maximum Water Flow Rate [m3/s], 1.31466E-003
 Component Sizing Information, Coil:Heating:Water, COIL HEATING WATER 9, Design Size U-Factor Times Area Value [W/K], 2006.47119
Water Heating Coil Capacity Information,Coil:Heating:Water,COIL HEATING WATER 9,77400.38
 Component Sizing Information, ZoneHVAC:Baseboard:Convective:Water, ZONE HVAC BASEBOARD CONVECTIVE WATER 18, Design Size Maximum Water Flow Rate [m3/s], 9.12740E-004
 Component Sizing Information, ZoneHVAC:Baseboard:Convective:Water, ZONE HVAC BASEBOARD CONVECTIVE WATER 18, Design Size U-Factor Times Area Value [W/K], 1862.88340
 Component Sizing Information, AirTerminal:SingleDuct:Uncontrolled, AIR TERMINAL SINGLE DUCT UNCONTROLLED 5, Design Size Maximum Air Flow Rate [m3/s], 7.03761
 Component Sizing Information, ZoneHVAC:Baseboard:Convective:Water, ZONE HVAC BASEBOARD CONVECTIVE WATER 5, Design Size Maximum Water Flow Rate [m3/s], 9.25917E-004
 Component Sizing Information, ZoneHVAC:Baseboard:Convective:Water, ZONE HVAC BASEBOARD CONVECTIVE WATER 5, Design Size U-Factor Times Area Value [W/K], 1893.79760
 Component Sizing Information, AirTerminal:SingleDuct:Uncontrolled, AIR TERMINAL SINGLE DUCT UNCONTROLLED 12, Design Size Maximum Air Flow Rate [m3/s], 7.30672
 Component Sizing Information, ZoneHVAC:Baseboard:Convective:Water, ZONE HVAC BASEBOARD CONVECTIVE WATER 12, Design Size Maximum Water Flow Rate [m3/s], 3.56303E-004
 Component Sizing Information, ZoneHVAC:Baseboard:Convective:Water, ZONE HVAC BASEBOARD CONVECTIVE WATER 12, Design Size U-Factor Times Area Value [W/K], 725.81499
 Component Sizing Information, AirTerminal:SingleDuct:Uncontrolled, AIR TERMINAL SINGLE DUCT UNCONTROLLED 1, Design Size Maximum Air Flow Rate [m3/s], 2.51335
 Component Sizing Information, ZoneHVAC:Baseboard:Convective:Water, ZONE HVAC BASEBOARD CONVECTIVE WATER 1, Design Size Maximum Water Flow Rate [m3/s], 3.66131E-004
 Component Sizing Information, ZoneHVAC:Baseboard:Convective:Water, ZONE HVAC BASEBOARD CONVECTIVE WATER 1, Design Size U-Factor Times Area Value [W/K], 744.43064
 Component Sizing Information, ZoneHVAC:PackagedTerminalAirConditioner, DU_BT=HOTEL_ST=WHOLEBUILDING_FL=STORY 4_SCHF PTAC, Design Size Cooling Supply Air Flow Rate [m3/s], 4.22332
 Component Sizing Information, ZoneHVAC:PackagedTerminalAirConditioner, DU_BT=HOTEL_ST=WHOLEBUILDING_FL=STORY 4_SCHF PTAC, Design Size Heating Supply Air Flow Rate [m3/s], 4.22332
 Component Sizing Information, ZoneHVAC:PackagedTerminalAirConditioner, DU_BT=HOTEL_ST=WHOLEBUILDING_FL=STORY 4_SCHF PTAC, Design Size No Load Supply Air Flow Rate [m3/s], 4.22332
 Component Sizing Information, ZoneHVAC:PackagedTerminalAirConditioner, DU_BT=HOTEL_ST=WHOLEBUILDING_FL=STORY 4_SCHF PTAC, Design Size Outdoor Air Flow Rate During Cooling Operation [m3/s], 0.75248
 Component Sizing Information, ZoneHVAC:PackagedTerminalAirConditioner, DU_BT=HOTEL_ST=WHOLEBUILDING_FL=STORY 4_SCHF PTAC, Design Size Outdoor Air Flow Rate During Heating Operation [m3/s], 0.75248
 Component Sizing Information, ZoneHVAC:PackagedTerminalAirConditioner, DU_BT=HOTEL_ST=WHOLEBUILDING_FL=STORY 4_SCHF PTAC, Design Size Outdoor Air Flow Rate When No Cooling or Heating is Needed [m3/s], 0.75248
[...]
 Component Sizing Information, Fan:VariableVolume, SYS6 SUPPLY FAN, Design Size Maximum Flow Rate [m3/s], 13.11667
 Component Sizing Information, Controller:WaterCoil, CONTROLLER WATER COIL 5, Maximum Actuated Flow [m3/s], 9.49239E-003
 Component Sizing Information, Controller:WaterCoil, CONTROLLER WATER COIL 5, Controller Convergence Tolerance, 5.01655E-005
 Component Sizing Information, Controller:WaterCoil, CONTROLLER WATER COIL 4, Maximum Actuated Flow [m3/s], 3.35567E-003
 Component Sizing Information, Fan:VariableVolume, SYS6 RETURN FAN 1, Design Size Maximum Flow Rate [m3/s], 6.37823
 Component Sizing Information, Controller:OutdoorAir, CONTROLLER OUTDOOR AIR 16, Maximum Outdoor Air Flow Rate [m3/s], 6.37823
 Component Sizing Information, Controller:OutdoorAir, CONTROLLER OUTDOOR AIR 16, Minimum Outdoor Air Flow Rate [m3/s], 2.34315
 Component Sizing Information, HeatExchanger:AirToAir:SensibleAndLatent, SYS_6_VAV WITH REHEAT 1 ERV, Design Size Nominal Supply Air Flow Rate [m3/s], 2.34315
 Component Sizing Information, Coil:Cooling:Water, COIL COOLING WATER 2, Design Size Design Coil Load [W], 113754.71354
 Component Sizing Information, Coil:Cooling:Water, COIL COOLING WATER 2, Design Size Design Water Flow Rate [m3/s], 4.51669E-003
 Component Sizing Information, Coil:Cooling:Water, COIL COOLING WATER 2, Design Size Design Air Flow Rate [m3/s], 6.37823
 Component Sizing Information, Coil:Cooling:Water, COIL COOLING WATER 2, Design Size Design Inlet Air Temperature [C], 25.61707
 Component Sizing Information, Coil:Cooling:Water, COIL COOLING WATER 2, Design Size Design Inlet Water Temperature [C], 7.00000
 Component Sizing Information, Coil:Cooling:Water, COIL COOLING WATER 2, Design Size Design Outlet Air Temperature [C], 13.00000
 Component Sizing Information, Coil:Cooling:Water, COIL COOLING WATER 2, Design Size Design Inlet Air Humidity Ratio, 8.72046E-003
 Component Sizing Information, Coil:Cooling:Water, COIL COOLING WATER 2, Design Size Design Outlet Air Humidity Ratio, 8.72046E-003
Water Cooling Coil Capacity Information,Coil:Cooling:Water,COIL COOLING WATER 2,147063.51,102560.13,44503.38,0.70,16492.54,167.28
 Component Sizing Information, Coil:Heating:Water, COIL HEATING WATER 8, Design Size Rated Capacity [W], 109251.34796
 Component Sizing Information, Coil:Heating:Water, COIL HEATING WATER 8, Design Size Maximum Water Flow Rate [m3/s], 1.63176E-003
 Component Sizing Information, Coil:Heating:Water, COIL HEATING WATER 8, Design Size U-Factor Times Area Value [W/K], 1333.18679
Water Heating Coil Capacity Information,Coil:Heating:Water,COIL HEATING WATER 8,60869.90
 Component Sizing Information, Fan:VariableVolume, SYS6 SUPPLY FAN 1, Design Size Maximum Flow Rate [m3/s], 6.37823
 Component Sizing Information, Controller:WaterCoil, CONTROLLER WATER COIL 10, Maximum Actuated Flow [m3/s], 4.51669E-003
 Component Sizing Information, Controller:WaterCoil, CONTROLLER WATER COIL 10, Controller Convergence Tolerance, 1.05429E-004
 Component Sizing Information, Controller:WaterCoil, CONTROLLER WATER COIL 9, Maximum Actuated Flow [m3/s], 1.63176E-003
Water Heater Information,WaterHeater:Mixed,1054GAL NATURALGAS WATER HEATER - 1796KBTU/HR 0.803 THERM EFF,3.9883,526369.0,0.177,0.2186
 Component Sizing Information, PlantLoop, CHILLED WATER LOOP, Maximum Loop Flow Rate [m3/s], 1.40091E-002
 Component Sizing Information, PlantLoop, CHILLED WATER LOOP, Plant Loop Volume [m3], 1.68109
 Component Sizing Information, Pump:ConstantSpeed, PUMP CONSTANT SPEED 1, Design Flow Rate [m3/s], 1.40091E-002
 Component Sizing Information, Pump:ConstantSpeed, PUMP CONSTANT SPEED 1, Design Power Consumption [W], 3599.13548
 Component Sizing Information, Chiller:Electric:EIR, PRIMARY CHILLER WATERCOOLED SCROLL 102TONS 0.8KW/TON, Design Size Reference Chilled Water Flow Rate [m3/s], 1.40091E-002
 Component Sizing Information, Chiller:Electric:EIR, PRIMARY CHILLER WATERCOOLED SCROLL 102TONS 0.8KW/TON, Design Size Reference Capacity [W], 352818.82636
 Component Sizing Information, Chiller:Electric:EIR, PRIMARY CHILLER WATERCOOLED SCROLL 102TONS 0.8KW/TON, User-Specified Reference Capacity [W], 357277.79916
 Component Sizing Information, Chiller:Electric:EIR, PRIMARY CHILLER WATERCOOLED SCROLL 102TONS 0.8KW/TON, Design Size Reference Condenser Fluid Flow Rate [m3/s], 1.73829E-002
! <Chiller Standard Rating Information>, Component Type, Component Name, IPLV in SI Units {W/W}, IPLV in IP Units {Btu/W-h}
 Chiller Standard Rating Information, Chiller:Electric:EIR, PRIMARY CHILLER WATERCOOLED SCROLL 102TONS 0.8KW/TON, 5.66, 19.31
 Component Sizing Information, Chiller:Electric:EIR, SECONDARY CHILLER WATERCOOLED SCROLL 0TONS 0.8KW/TON, Design Size Reference Chilled Water Flow Rate [m3/s], 1.40091E-002
 Component Sizing Information, Chiller:Electric:EIR, SECONDARY CHILLER WATERCOOLED SCROLL 0TONS 0.8KW/TON, Design Size Reference Capacity [W], 352818.82636
 Component Sizing Information, Chiller:Electric:EIR, SECONDARY CHILLER WATERCOOLED SCROLL 0TONS 0.8KW/TON, User-Specified Reference Capacity [W], 1.00000E-003
 Component Sizing Information, Chiller:Electric:EIR, SECONDARY CHILLER WATERCOOLED SCROLL 0TONS 0.8KW/TON, Design Size Reference Condenser Fluid Flow Rate [m3/s], 4.87330E-011
 Chiller Standard Rating Information, Chiller:Electric:EIR, SECONDARY CHILLER WATERCOOLED SCROLL 0TONS 0.8KW/TON, 5.61, 19.14
 Component Sizing Information, PlantLoop, CHILLED WATER LOOP 1, Maximum Loop Flow Rate [m3/s], 1.42428E-003
 Component Sizing Information, PlantLoop, CHILLED WATER LOOP 1, Plant Loop Volume [m3], 0.17091
 Component Sizing Information, Pump:ConstantSpeed, PUMP CONSTANT SPEED 3, Design Flow Rate [m3/s], 1.42428E-003
 Component Sizing Information, Pump:ConstantSpeed, PUMP CONSTANT SPEED 3, Design Power Consumption [W], 383.03589
 Component Sizing Information, Chiller:Electric:EIR, PRIMARY CHILLER WATERCOOLED SCROLL 1 10TONS 0.8KW/TON, Design Size Reference Chilled Water Flow Rate [m3/s], 1.42428E-003
 Component Sizing Information, Chiller:Electric:EIR, PRIMARY CHILLER WATERCOOLED SCROLL 1 10TONS 0.8KW/TON, Design Size Reference Capacity [W], 35870.39065
 Component Sizing Information, Chiller:Electric:EIR, PRIMARY CHILLER WATERCOOLED SCROLL 1 10TONS 0.8KW/TON, User-Specified Reference Capacity [W], 35870.39065
 Component Sizing Information, Chiller:Electric:EIR, PRIMARY CHILLER WATERCOOLED SCROLL 1 10TONS 0.8KW/TON, Design Size Reference Condenser Fluid Flow Rate [m3/s], 1.74807E-003
 Chiller Standard Rating Information, Chiller:Electric:EIR, PRIMARY CHILLER WATERCOOLED SCROLL 1 10TONS 0.8KW/TON, 5.61, 19.14
 Component Sizing Information, Chiller:Electric:EIR, SECONDARY CHILLER WATERCOOLED SCROLL 1 0TONS 0.8KW/TON, Design Size Reference Chilled Water Flow Rate [m3/s], 1.42428E-003
 Component Sizing Information, Chiller:Electric:EIR, SECONDARY CHILLER WATERCOOLED SCROLL 1 0TONS 0.8KW/TON, Design Size Reference Capacity [W], 35870.39065
 Component Sizing Information, Chiller:Electric:EIR, SECONDARY CHILLER WATERCOOLED SCROLL 1 0TONS 0.8KW/TON, User-Specified Reference Capacity [W], 1.00000E-003
 Component Sizing Information, Chiller:Electric:EIR, SECONDARY CHILLER WATERCOOLED SCROLL 1 0TONS 0.8KW/TON, Design Size Reference Condenser Fluid Flow Rate [m3/s], 4.87330E-011
 Chiller Standard Rating Information, Chiller:Electric:EIR, SECONDARY CHILLER WATERCOOLED SCROLL 1 0TONS 0.8KW/TON, 5.61, 19.14
 Component Sizing Information, PlantLoop, CHILLED WATER LOOP 2, Maximum Loop Flow Rate [m3/s], 1.45633E-003
 Component Sizing Information, PlantLoop, CHILLED WATER LOOP 2, Plant Loop Volume [m3], 0.17476
 Component Sizing Information, Pump:ConstantSpeed, PUMP CONSTANT SPEED 5, Design Flow Rate [m3/s], 1.45633E-003
 Component Sizing Information, Pump:ConstantSpeed, PUMP CONSTANT SPEED 5, Design Power Consumption [W], 391.65591
 Component Sizing Information, Chiller:Electric:EIR, PRIMARY CHILLER WATERCOOLED SCROLL 2 10TONS 0.8KW/TON, Design Size Reference Chilled Water Flow Rate [m3/s], 1.45633E-003
 Component Sizing Information, Chiller:Electric:EIR, PRIMARY CHILLER WATERCOOLED SCROLL 2 10TONS 0.8KW/TON, Design Size Reference Capacity [W], 36677.63502
 Component Sizing Information, Chiller:Electric:EIR, PRIMARY CHILLER WATERCOOLED SCROLL 2 10TONS 0.8KW/TON, User-Specified Reference Capacity [W], 36677.63502
 Component Sizing Information, Chiller:Electric:EIR, PRIMARY CHILLER WATERCOOLED SCROLL 2 10TONS 0.8KW/TON, Design Size Reference Condenser Fluid Flow Rate [m3/s], 1.78741E-003
 Chiller Standard Rating Information, Chiller:Electric:EIR, PRIMARY CHILLER WATERCOOLED SCROLL 2 10TONS 0.8KW/TON, 5.61, 19.14
 Component Sizing Information, Chiller:Electric:EIR, SECONDARY CHILLER WATERCOOLED SCROLL 2 0TONS 0.8KW/TON, Design Size Reference Chilled Water Flow Rate [m3/s], 1.45633E-003
 Component Sizing Information, Chiller:Electric:EIR, SECONDARY CHILLER WATERCOOLED SCROLL 2 0TONS 0.8KW/TON, Design Size Reference Capacity [W], 36677.63502
 Component Sizing Information, Chiller:Electric:EIR, SECONDARY CHILLER WATERCOOLED SCROLL 2 0TONS 0.8KW/TON, User-Specified Reference Capacity [W], 1.00000E-003
 Component Sizing Information, Chiller:Electric:EIR, SECONDARY CHILLER WATERCOOLED SCROLL 2 0TONS 0.8KW/TON, Design Size Reference Condenser Fluid Flow Rate [m3/s], 4.87330E-011
 Chiller Standard Rating Information, Chiller:Electric:EIR, SECONDARY CHILLER WATERCOOLED SCROLL 2 0TONS 0.8KW/TON, 5.61, 19.14
 Component Sizing Information, PlantLoop, CONDENSER WATER LOOP, Maximum Loop Flow Rate [m3/s], 1.73829E-002
 Component Sizing Information, PlantLoop, CONDENSER WATER LOOP, Plant Loop Volume [m3], 2.08594
 Component Sizing Information, Pump:ConstantSpeed, PUMP CONSTANT SPEED 2, Design Flow Rate [m3/s], 1.73829E-002
 Component Sizing Information, Pump:ConstantSpeed, PUMP CONSTANT SPEED 2, Design Power Consumption [W], 4325.74649
 Component Sizing Information, CoolingTower:SingleSpeed, COOLING TOWER SINGLE SPEED 1, Design Water Flow Rate [m3/s], 1.73829E-002
 Component Sizing Information, CoolingTower:SingleSpeed, COOLING TOWER SINGLE SPEED 1, Fan Power at Design Air Flow Rate [W], 3814.09862
 Component Sizing Information, CoolingTower:SingleSpeed, COOLING TOWER SINGLE SPEED 1, Design Air Flow Rate [m3/s], 10.48801
 Component Sizing Information, CoolingTower:SingleSpeed, COOLING TOWER SINGLE SPEED 1, U-Factor Times Area Value at Design Air Flow Rate [W/C], 18728.78092
 Component Sizing Information, CoolingTower:SingleSpeed, COOLING TOWER SINGLE SPEED 1, Free Convection Regime Air Flow Rate [m3/s], 1.04880
 Component Sizing Information, CoolingTower:SingleSpeed, COOLING TOWER SINGLE SPEED 1, Free Convection U-Factor Times Area Value [W/K], 1872.87809
 Component Sizing Information, PlantLoop, CONDENSER WATER LOOP 1, Maximum Loop Flow Rate [m3/s], 1.74807E-003
 Component Sizing Information, PlantLoop, CONDENSER WATER LOOP 1, Plant Loop Volume [m3], 0.20977
 Component Sizing Information, Pump:ConstantSpeed, PUMP CONSTANT SPEED 4, Design Flow Rate [m3/s], 1.74807E-003
 Component Sizing Information, Pump:ConstantSpeed, PUMP CONSTANT SPEED 4, Design Power Consumption [W], 464.68100
 Component Sizing Information, CoolingTower:SingleSpeed, COOLING TOWER SINGLE SPEED 2, Design Water Flow Rate [m3/s], 1.74807E-003
 Component Sizing Information, CoolingTower:SingleSpeed, COOLING TOWER SINGLE SPEED 2, Fan Power at Design Air Flow Rate [W], 383.55699
 Component Sizing Information, CoolingTower:SingleSpeed, COOLING TOWER SINGLE SPEED 2, Design Air Flow Rate [m3/s], 1.05470
 Component Sizing Information, CoolingTower:SingleSpeed, COOLING TOWER SINGLE SPEED 2, U-Factor Times Area Value at Design Air Flow Rate [W/C], 1883.42137
 Component Sizing Information, CoolingTower:SingleSpeed, COOLING TOWER SINGLE SPEED 2, Free Convection Regime Air Flow Rate [m3/s], 0.10547
 Component Sizing Information, CoolingTower:SingleSpeed, COOLING TOWER SINGLE SPEED 2, Free Convection U-Factor Times Area Value [W/K], 188.34214
 Component Sizing Information, PlantLoop, CONDENSER WATER LOOP 2, Maximum Loop Flow Rate [m3/s], 1.78741E-003
 Component Sizing Information, PlantLoop, CONDENSER WATER LOOP 2, Plant Loop Volume [m3], 0.21449
 Component Sizing Information, Pump:ConstantSpeed, PUMP CONSTANT SPEED 6, Design Flow Rate [m3/s], 1.78741E-003
 Component Sizing Information, Pump:ConstantSpeed, PUMP CONSTANT SPEED 6, Design Power Consumption [W], 475.13840
 Component Sizing Information, CoolingTower:SingleSpeed, COOLING TOWER SINGLE SPEED 3, Design Water Flow Rate [m3/s], 1.78741E-003
 Component Sizing Information, CoolingTower:SingleSpeed, COOLING TOWER SINGLE SPEED 3, Design Air Flow Rate [m3/s], 1.84879
 Component Sizing Information, CoolingTower:SingleSpeed, COOLING TOWER SINGLE SPEED 3, U-Factor Times Area Value at Design Air Flow Rate [W/C], 1563.94327
 Component Sizing Information, CoolingTower:SingleSpeed, COOLING TOWER SINGLE SPEED 3, Free Convection Regime Air Flow Rate [m3/s], 0.18488
 Component Sizing Information, CoolingTower:SingleSpeed, COOLING TOWER SINGLE SPEED 3, Free Convection U-Factor Times Area Value [W/K], 156.39433
 Component Sizing Information, PlantLoop, HOT WATER LOOP, Maximum Loop Flow Rate [m3/s], 1.84817E-002
 Component Sizing Information, PlantLoop, HOT WATER LOOP, Plant Loop Volume [m3], 2.21781
 Component Sizing Information, Pump:VariableSpeed, PUMP VARIABLE SPEED 1, Design Flow Rate [m3/s], 1.84817E-002
 Component Sizing Information, Pump:VariableSpeed, PUMP VARIABLE SPEED 1, Design Power Consumption [W], 4634.30725
 Component Sizing Information, Boiler:HotWater, PRIMARY BOILER 4201KBTU/HR 0.833 COMBUSTION EFF, Design Size Nominal Capacity [W], 1242200.15064
 Component Sizing Information, Boiler:HotWater, PRIMARY BOILER 4201KBTU/HR 0.833 COMBUSTION EFF, User-Specified Nominal Capacity [W], 1231328.67427
 Component Sizing Information, Boiler:HotWater, PRIMARY BOILER 4201KBTU/HR 0.833 COMBUSTION EFF, Design Size Design Water Flow Rate [m3/s], 1.84817E-002
 Component Sizing Information, Boiler:HotWater, SECONDARY BOILER 0KBTU/HR 0.85 AFUE, Design Size Nominal Capacity [W], 1242200.15064
 Component Sizing Information, Boiler:HotWater, SECONDARY BOILER 0KBTU/HR 0.85 AFUE, User-Specified Nominal Capacity [W], 1.00000E-003
 Component Sizing Information, Boiler:HotWater, SECONDARY BOILER 0KBTU/HR 0.85 AFUE, Design Size Design Water Flow Rate [m3/s], 1.84817E-002
 Component Sizing Information, PlantLoop, MAIN SERVICE WATER LOOP, Maximum Loop Flow Rate [m3/s], 1.83394E-003
 Component Sizing Information, PlantLoop, MAIN SERVICE WATER LOOP, Plant Loop Volume [m3], 0.22007
 Component Sizing Information, Pump:ConstantSpeed, SERVICE WATER LOOP PUMP, Design Flow Rate [m3/s], 1.83394E-003
 Component Sizing Information, Pump:ConstantSpeed, SERVICE WATER LOOP PUMP, Design Power Consumption [W], 237.28226
 Component Sizing Information, WaterHeater:Mixed, 1054GAL NATURALGAS WATER HEATER - 1796KBTU/HR 0.803 THERM EFF, Use Side Design Flow Rate [m3/s], 1.83394E-003
! <Environment>,Environment Name,Environment Type, Start Date, End Date, Start DayOfWeek, Duration {#days}, Source:Start DayOfWeek,  Use Daylight Saving, Use Holidays, Apply Weekend Holiday Rule,  Use Rain Values, Use Snow Values
! <Environment:Special Days>, Special Day Name, Special Day Type, Source, Start Date, Duration {#days}
! <Environment:Daylight Saving>, Daylight Saving Indicator, Source, Start Date, End Date
! <Environment:WarmupDays>, NumberofWarmupDays
Environment,RUN PERIOD 1,WeatherFileRunPeriod,01/01,12/31,Sunday,365,Use RunPeriod Specified Day,No,No,No,Yes,Yes
Environment:Daylight Saving,No,RunPeriod Object
Environment:WarmupDays, 25
! <Tabular Report>,Style,Unit Conversion
Tabular Report,HTML,None
! <Warmup Convergence Information>,Zone Name,Environment Type/Name,Average Warmup Temperature Difference {deltaC},Std Dev Warmup Temperature Difference {deltaC},Max Temperature Pass/Fail Convergence,Min Temperature Pass/Fail Convergence,Average Warmup Load Difference {W},Std Dev Warmup Load Difference {W},Heating Load Pass/Fail Convergence,Cooling Load Pass/Fail Convergence
 Warmup Convergence Information,ALL_ST=WHOLEBUILDING_FL=STORY 1_SCH=A,RunPeriod: RUN PERIOD 1,1.8198032948E-003,1.8703974881E-003,Pass,Pass,0.0000000000,0.0000000000,Pass,Pass
 Warmup Convergence Information,ALL_ST=WHOLEBUILDING_FL=STORY 1_SCH=B,RunPeriod: RUN PERIOD 1,5.9787721921E-002,0.1418409633,Pass,Pass,3.7609659437E-002,0.1554498814,Pass,Pass
 Warmup Convergence Information,ALL_ST=WHOLEBUILDING_FL=STORY 1_SCH=C,RunPeriod: RUN PERIOD 1,7.1675320215E-002,0.2212571604,Pass,Pass,0.2156879082,1.1012051365,Fail,Pass
 Warmup Convergence Information,ALL_ST=WHOLEBUILDING_FL=STORY 1_SCH=F,RunPeriod: RUN PERIOD 1,2.9736789700E-002,0.1290505857,Pass,Pass,8.4333297504E-002,0.2725689220,Pass,Pass
 Warmup Convergence Information,ALL_ST=WHOLEBUILDING_FL=STORY 2_SCH=A,RunPeriod: RUN PERIOD 1,0.1860105392,0.2923286323,Pass,Pass,1.4103932751,5.4435328792,Fail,Fail
 Warmup Convergence Information,ALL_ST=WHOLEBUILDING_FL=STORY 2_SCH=A 1,RunPeriod: RUN PERIOD 1,0.1494557591,0.2543007365,Pass,Pass,3.3920641395,23.8494549766,Fail,Fail
 Warmup Convergence Information,ALL_ST=WHOLEBUILDING_FL=STORY 2_SCH=B,RunPeriod: RUN PERIOD 1,0.1570962694,0.2065239618,Pass,Pass,0.3290307133,1.1125303329,Fail,Fail
 Warmup Convergence Information,ALL_ST=WHOLEBUILDING_FL=STORY 2_SCH=C,RunPeriod: RUN PERIOD 1,7.0748295032E-002,0.1956481111,Pass,Pass,0.2981032147,0.8803412626,Fail,Pass
 Warmup Convergence Information,ALL_ST=WHOLEBUILDING_FL=STORY 3_SCH=A,RunPeriod: RUN PERIOD 1,1.1839930331E-002,1.3914707524E-002,Pass,Pass,0.0000000000,0.0000000000,Pass,Pass
 Warmup Convergence Information,ALL_ST=WHOLEBUILDING_FL=STORY 3_SCH=B,RunPeriod: RUN PERIOD 1,3.7379661606E-002,0.1385407799,Pass,Pass,4.2509918379E-002,0.1099936504,Pass,Pass
 Warmup Convergence Information,ALL_ST=WHOLEBUILDING_FL=STORY 3_SCH=C,RunPeriod: RUN PERIOD 1,2.2152907286E-002,5.9379996336E-002,Pass,Pass,1.4429363036E-002,8.5368361983E-002,Pass,Pass
 Warmup Convergence Information,ALL_ST=WHOLEBUILDING_FL=STORY 3_SCH=C 1,RunPeriod: RUN PERIOD 1,2.5350223342E-002,0.1201136659,Pass,Pass,4.3264157393E-002,0.1721909446,Pass,Pass
 Warmup Convergence Information,ALL_ST=WHOLEBUILDING_FL=STORY 4_SCH=B,RunPeriod: RUN PERIOD 1,7.9574210679E-002,0.2134262612,Pass,Pass,7.7552162933E-002,0.1967427578,Pass,Pass
 Warmup Convergence Information,ALL_ST=WHOLEBUILDING_FL=STORY 4_SCH=B 1,RunPeriod: RUN PERIOD 1,9.4982929702E-002,0.2937122256,Pass,Pass,0.8434547036,4.1014840236,Pass,Pass
 Warmup Convergence Information,ALL_ST=WHOLEBUILDING_FL=STORY 4_SCH=E,RunPeriod: RUN PERIOD 1,7.0894950297E-002,0.1282603606,Pass,Pass,3.0259406358E-002,6.9399313424E-002,Pass,Pass
 Warmup Convergence Information,ALL_ST=WHOLEBUILDING_FL=STORY 4_SCH=H,RunPeriod: RUN PERIOD 1,5.5556939722E-002,0.2921757506,Pass,Pass,0.1526429547,0.6208274886,Pass,Pass
 Warmup Convergence Information,DU_BT=DORMITORY_ST=WHOLEBUILDING_FL=STORY 3_SCHG,RunPeriod: RUN PERIOD 1,4.8983246208E-002,0.2019941898,Pass,Pass,0.2214468446,0.9768053047,Pass,Pass
 Warmup Convergence Information,DU_BT=HOTEL_ST=WHOLEBUILDING_FL=STORY 4_SCHF,RunPeriod: RUN PERIOD 1,5.6825615494E-002,0.1495828952,Pass,Pass,0.6709518929,2.4131210339,Pass,Pass
 Warmup Convergence Information,DU_BT=MOTEL_ST=WHOLEBUILDING_FL=STORY 2_SCHF,RunPeriod: RUN PERIOD 1,3.3072410819E-002,2.6768375033E-002,Pass,Pass,1.0929828324E-002,9.2996537478E-003,Pass,Pass
 Warmup Convergence Information,DU_BT=MULTI-UNIT RESIDENTIAL_ST=WHOLEBUILDING_FL=STORY 1_SCHG,RunPeriod: RUN PERIOD 1,2.9974885606E-002,3.6967054449E-002,Pass,Pass,9.4310810735E-003,1.3640475382E-002,Pass,Pass
! <Program Control Information:Threads/Parallel Sims>, Threading Supported,Maximum Number of Threads, Env Set Threads (OMP_NUM_THREADS), EP Env Set Threads (EP_OMP_NUM_THREADS), IDF Set Threads, Number of Threads Used (Interior Radiant Exchange), Number Nominal Surfaces, Number Parallel Sims
Program Control:Threads/Parallel Sims, No,1, N/A, N/A, N/A, N/A, N/A, N/A
End of Data
