Program Version,EnergyPlus, Version 8.9.0-eba93e8e1b, YMD=2019.03.28 14:24,
   ************* Beginning Zone Sizing Calculations
   ** Warning ** ProcessScheduleInput: Schedule:Day:Interval="SCHEDULE DAY 1", Blank Schedule Type Limits Name input -- will not be validated.
   ** Warning ** ProcessScheduleInput: Schedule:Day:Interval="SCHEDULE DAY 2", Blank Schedule Type Limits Name input -- will not be validated.
   ** Warning ** ProcessScheduleInput: Schedule:Constant="ALWAYS OFF DISCRETE", Blank Schedule Type Limits Name input -- will not be validated.
   ** Warning ** ProcessScheduleInput: Schedule:Constant="ALWAYS ON CONTINUOUS", Blank Schedule Type Limits Name input -- will not be validated.
   ** Warning ** CheckUsedConstructions: There are 27 nominally unused constructions in input.
   **   ~~~   ** For explicit details on each unused construction, use Output:Diagnostics,DisplayExtraWarnings;
   ** Warning ** GetInternalHeatGains: People Combination of ZoneList and Object Name generate a name too long.
   **   ~~~   ** Object Name="SPACE FUNCTION STORAGE ROOM <= 5 M2 <= 100 M2-SCH-A PEOPLE".
   **   ~~~   ** ZoneList/Zone Name="STORAGE ROOM <= 5 M2 <= 100 M2-SCH-A-SPACE FUNCTION ZN".
   **   ~~~   ** Item length=[112] > Maximum Length=[100]. You may need to shorten the names.
   **   ~~~   ** Shortening the Object Name by [13] characters will assure uniqueness for this ZoneList.
   **   ~~~   ** name that will be used (may be needed in reporting)="STORAGE ROOM <= 5 M2 <= 100 M2-SCH-A-SPACE FUNCTION ZN SPACE FUNCTION STORAGE ROOM <= 5 M2 <= 100 M2-SCH-A PEOPLE".
   ** Warning ** GetInternalHeatGains: People Combination of ZoneList and Object Name generate a name too long.
   **   ~~~   ** Object Name="SPACE FUNCTION STORAGE ROOM <= 5 M2 <= 100 M2-SCH-B PEOPLE".
   **   ~~~   ** ZoneList/Zone Name="STORAGE ROOM <= 5 M2 <= 100 M2-SCH-B-SPACE FUNCTION ZN".
   **   ~~~   ** Item length=[112] > Maximum Length=[100]. You may need to shorten the names.
   **   ~~~   ** Shortening the Object Name by [13] characters will assure uniqueness for this ZoneList.
   **   ~~~   ** name that will be used (may be needed in reporting)="STORAGE ROOM <= 5 M2 <= 100 M2-SCH-B-SPACE FUNCTION ZN SPACE FUNCTION STORAGE ROOM <= 5 M2 <= 100 M2-SCH-B PEOPLE".
   ** Warning ** GetInternalHeatGains: People Combination of ZoneList and Object Name generate a name too long.
   **   ~~~   ** Object Name="SPACE FUNCTION STORAGE ROOM <= 5 M2 <= 100 M2-SCH-C PEOPLE".
   **   ~~~   ** ZoneList/Zone Name="STORAGE ROOM <= 5 M2 <= 100 M2-SCH-C-SPACE FUNCTION ZN".
   **   ~~~   ** Item length=[112] > Maximum Length=[100]. You may need to shorten the names.
   **   ~~~   ** Shortening the Object Name by [13] characters will assure uniqueness for this ZoneList.
   **   ~~~   ** name that will be used (may be needed in reporting)="STORAGE ROOM <= 5 M2 <= 100 M2-SCH-C-SPACE FUNCTION ZN SPACE FUNCTION STORAGE ROOM <= 5 M2 <= 100 M2-SCH-C PEOPLE".
   ** Warning ** GetInternalHeatGains: People Combination of ZoneList and Object Name generate a name too long.
   **   ~~~   ** Object Name="SPACE FUNCTION STORAGE ROOM <= 5 M2 <= 100 M2-SCH-D PEOPLE".
   **   ~~~   ** ZoneList/Zone Name="STORAGE ROOM <= 5 M2 <= 100 M2-SCH-D-SPACE FUNCTION ZN".
   **   ~~~   ** Item length=[112] > Maximum Length=[100]. You may need to shorten the names.
   **   ~~~   ** Shortening the Object Name by [13] characters will assure uniqueness for this ZoneList.
   **   ~~~   ** name that will be used (may be needed in reporting)="STORAGE ROOM <= 5 M2 <= 100 M2-SCH-D-SPACE FUNCTION ZN SPACE FUNCTION STORAGE ROOM <= 5 M2 <= 100 M2-SCH-D PEOPLE".
   ** Warning ** GetInternalHeatGains: People Combination of ZoneList and Object Name generate a name too long.
   **   ~~~   ** Object Name="SPACE FUNCTION STORAGE ROOM <= 5 M2 <= 100 M2-SCH-E PEOPLE".
   **   ~~~   ** ZoneList/Zone Name="STORAGE ROOM <= 5 M2 <= 100 M2-SCH-E-SPACE FUNCTION ZN".
   **   ~~~   ** Item length=[112] > Maximum Length=[100]. You may need to shorten the names.
   **   ~~~   ** Shortening the Object Name by [13] characters will assure uniqueness for this ZoneList.
   **   ~~~   ** name that will be used (may be needed in reporting)="STORAGE ROOM <= 5 M2 <= 100 M2-SCH-E-SPACE FUNCTION ZN SPACE FUNCTION STORAGE ROOM <= 5 M2 <= 100 M2-SCH-E PEOPLE".
   ** Warning ** GetInternalHeatGains: People Combination of ZoneList and Object Name generate a name too long.
   **   ~~~   ** Object Name="SPACE FUNCTION STORAGE ROOM <= 5 M2 <= 100 M2-SCH-F PEOPLE".
   **   ~~~   ** ZoneList/Zone Name="STORAGE ROOM <= 5 M2 <= 100 M2-SCH-F-SPACE FUNCTION ZN".
   **   ~~~   ** Item length=[112] > Maximum Length=[100]. You may need to shorten the names.
   **   ~~~   ** Shortening the Object Name by [13] characters will assure uniqueness for this ZoneList.
   **   ~~~   ** name that will be used (may be needed in reporting)="STORAGE ROOM <= 5 M2 <= 100 M2-SCH-F-SPACE FUNCTION ZN SPACE FUNCTION STORAGE ROOM <= 5 M2 <= 100 M2-SCH-F PEOPLE".
   ** Warning ** GetInternalHeatGains: People Combination of ZoneList and Object Name generate a name too long.
   **   ~~~   ** Object Name="SPACE FUNCTION STORAGE ROOM <= 5 M2 <= 100 M2-SCH-G PEOPLE".
   **   ~~~   ** ZoneList/Zone Name="STORAGE ROOM <= 5 M2 <= 100 M2-SCH-G-SPACE FUNCTION ZN".
   **   ~~~   ** Item length=[112] > Maximum Length=[100]. You may need to shorten the names.
   **   ~~~   ** Shortening the Object Name by [13] characters will assure uniqueness for this ZoneList.
   **   ~~~   ** name that will be used (may be needed in reporting)="STORAGE ROOM <= 5 M2 <= 100 M2-SCH-G-SPACE FUNCTION ZN SPACE FUNCTION STORAGE ROOM <= 5 M2 <= 100 M2-SCH-G PEOPLE".
   ** Warning ** GetInternalHeatGains: People Combination of ZoneList and Object Name generate a name too long.
   **   ~~~   ** Object Name="SPACE FUNCTION STORAGE ROOM <= 5 M2 <= 100 M2-SCH-H PEOPLE".
   **   ~~~   ** ZoneList/Zone Name="STORAGE ROOM <= 5 M2 <= 100 M2-SCH-H-SPACE FUNCTION ZN".
   **   ~~~   ** Item length=[112] > Maximum Length=[100]. You may need to shorten the names.
   **   ~~~   ** Shortening the Object Name by [13] characters will assure uniqueness for this ZoneList.
   **   ~~~   ** name that will be used (may be needed in reporting)="STORAGE ROOM <= 5 M2 <= 100 M2-SCH-H-SPACE FUNCTION ZN SPACE FUNCTION STORAGE ROOM <= 5 M2 <= 100 M2-SCH-H PEOPLE".
   ** Warning ** GetInternalHeatGains: Lights Combination of ZoneList and Object Name generate a name too long.
   **   ~~~   ** Object Name="SPACE FUNCTION STORAGE ROOM <= 5 M2 <= 100 M2-SCH-A LIGHTS".
   **   ~~~   ** ZoneList/Zone Name="STORAGE ROOM <= 5 M2 <= 100 M2-SCH-A-SPACE FUNCTION ZN".
   **   ~~~   ** Item length=[112] > Maximum Length=[100]. You may need to shorten the names.
   **   ~~~   ** Shortening the Object Name by [13] characters will assure uniqueness for this ZoneList.
   **   ~~~   ** name that will be used (may be needed in reporting)="STORAGE ROOM <= 5 M2 <= 100 M2-SCH-A-SPACE FUNCTION ZN SPACE FUNCTION STORAGE ROOM <= 5 M2 <= 100 M2-SCH-A LIGHTS".
   ** Warning ** GetInternalHeatGains: Lights Combination of ZoneList and Object Name generate a name too long.
   **   ~~~   ** Object Name="SPACE FUNCTION STORAGE ROOM <= 5 M2 <= 100 M2-SCH-B LIGHTS".
   **   ~~~   ** ZoneList/Zone Name="STORAGE ROOM <= 5 M2 <= 100 M2-SCH-B-SPACE FUNCTION ZN".
   **   ~~~   ** Item length=[112] > Maximum Length=[100]. You may need to shorten the names.
   **   ~~~   ** Shortening the Object Name by [13] characters will assure uniqueness for this ZoneList.
   **   ~~~   ** name that will be used (may be needed in reporting)="STORAGE ROOM <= 5 M2 <= 100 M2-SCH-B-SPACE FUNCTION ZN SPACE FUNCTION STORAGE ROOM <= 5 M2 <= 100 M2-SCH-B LIGHTS".
   ** Warning ** GetInternalHeatGains: Lights Combination of ZoneList and Object Name generate a name too long.
   **   ~~~   ** Object Name="SPACE FUNCTION STORAGE ROOM <= 5 M2 <= 100 M2-SCH-C LIGHTS".
   **   ~~~   ** ZoneList/Zone Name="STORAGE ROOM <= 5 M2 <= 100 M2-SCH-C-SPACE FUNCTION ZN".
   **   ~~~   ** Item length=[112] > Maximum Length=[100]. You may need to shorten the names.
   **   ~~~   ** Shortening the Object Name by [13] characters will assure uniqueness for this ZoneList.
   **   ~~~   ** name that will be used (may be needed in reporting)="STORAGE ROOM <= 5 M2 <= 100 M2-SCH-C-SPACE FUNCTION ZN SPACE FUNCTION STORAGE ROOM <= 5 M2 <= 100 M2-SCH-C LIGHTS".
   ** Warning ** GetInternalHeatGains: Lights Combination of ZoneList and Object Name generate a name too long.
   **   ~~~   ** Object Name="SPACE FUNCTION STORAGE ROOM <= 5 M2 <= 100 M2-SCH-D LIGHTS".
   **   ~~~   ** ZoneList/Zone Name="STORAGE ROOM <= 5 M2 <= 100 M2-SCH-D-SPACE FUNCTION ZN".
   **   ~~~   ** Item length=[112] > Maximum Length=[100]. You may need to shorten the names.
   **   ~~~   ** Shortening the Object Name by [13] characters will assure uniqueness for this ZoneList.
   **   ~~~   ** name that will be used (may be needed in reporting)="STORAGE ROOM <= 5 M2 <= 100 M2-SCH-D-SPACE FUNCTION ZN SPACE FUNCTION STORAGE ROOM <= 5 M2 <= 100 M2-SCH-D LIGHTS".
   ** Warning ** GetInternalHeatGains: Lights Combination of ZoneList and Object Name generate a name too long.
   **   ~~~   ** Object Name="SPACE FUNCTION STORAGE ROOM <= 5 M2 <= 100 M2-SCH-E LIGHTS".
   **   ~~~   ** ZoneList/Zone Name="STORAGE ROOM <= 5 M2 <= 100 M2-SCH-E-SPACE FUNCTION ZN".
   **   ~~~   ** Item length=[112] > Maximum Length=[100]. You may need to shorten the names.
   **   ~~~   ** Shortening the Object Name by [13] characters will assure uniqueness for this ZoneList.
   **   ~~~   ** name that will be used (may be needed in reporting)="STORAGE ROOM <= 5 M2 <= 100 M2-SCH-E-SPACE FUNCTION ZN SPACE FUNCTION STORAGE ROOM <= 5 M2 <= 100 M2-SCH-E LIGHTS".
   ** Warning ** GetInternalHeatGains: Lights Combination of ZoneList and Object Name generate a name too long.
   **   ~~~   ** Object Name="SPACE FUNCTION STORAGE ROOM <= 5 M2 <= 100 M2-SCH-F LIGHTS".
   **   ~~~   ** ZoneList/Zone Name="STORAGE ROOM <= 5 M2 <= 100 M2-SCH-F-SPACE FUNCTION ZN".
   **   ~~~   ** Item length=[112] > Maximum Length=[100]. You may need to shorten the names.
   **   ~~~   ** Shortening the Object Name by [13] characters will assure uniqueness for this ZoneList.
   **   ~~~   ** name that will be used (may be needed in reporting)="STORAGE ROOM <= 5 M2 <= 100 M2-SCH-F-SPACE FUNCTION ZN SPACE FUNCTION STORAGE ROOM <= 5 M2 <= 100 M2-SCH-F LIGHTS".
   ** Warning ** GetInternalHeatGains: Lights Combination of ZoneList and Object Name generate a name too long.
   **   ~~~   ** Object Name="SPACE FUNCTION STORAGE ROOM <= 5 M2 <= 100 M2-SCH-G LIGHTS".
   **   ~~~   ** ZoneList/Zone Name="STORAGE ROOM <= 5 M2 <= 100 M2-SCH-G-SPACE FUNCTION ZN".
   **   ~~~   ** Item length=[112] > Maximum Length=[100]. You may need to shorten the names.
   **   ~~~   ** Shortening the Object Name by [13] characters will assure uniqueness for this ZoneList.
   **   ~~~   ** name that will be used (may be needed in reporting)="STORAGE ROOM <= 5 M2 <= 100 M2-SCH-G-SPACE FUNCTION ZN SPACE FUNCTION STORAGE ROOM <= 5 M2 <= 100 M2-SCH-G LIGHTS".
   ** Warning ** GetInternalHeatGains: Lights Combination of ZoneList and Object Name generate a name too long.
   **   ~~~   ** Object Name="SPACE FUNCTION STORAGE ROOM <= 5 M2 <= 100 M2-SCH-H LIGHTS".
   **   ~~~   ** ZoneList/Zone Name="STORAGE ROOM <= 5 M2 <= 100 M2-SCH-H-SPACE FUNCTION ZN".
   **   ~~~   ** Item length=[112] > Maximum Length=[100]. You may need to shorten the names.
   **   ~~~   ** Shortening the Object Name by [13] characters will assure uniqueness for this ZoneList.
   **   ~~~   ** name that will be used (may be needed in reporting)="STORAGE ROOM <= 5 M2 <= 100 M2-SCH-H-SPACE FUNCTION ZN SPACE FUNCTION STORAGE ROOM <= 5 M2 <= 100 M2-SCH-H LIGHTS".
   ** Warning ** Calculated design cooling load for zone=STORAGE GARAGE INTERIOR-SPACE FUNCTION ZN is zero.
   **   ~~~   ** Check Sizing:Zone and ZoneControl:Thermostat inputs.
   ** Warning ** Calculated design heating load for zone=STORAGE GARAGE INTERIOR-SPACE FUNCTION ZN is zero.
   **   ~~~   ** Check Sizing:Zone and ZoneControl:Thermostat inputs.
   ** Warning ** Calculated design heating load for zone=STORAGE ROOM < 5 M2-SCH-B-SPACE FUNCTION ZN is zero.
   **   ~~~   ** Check Sizing:Zone and ZoneControl:Thermostat inputs.
   ** Warning ** Calculated design heating load for zone=STORAGE ROOM < 5 M2-SCH-I-SPACE FUNCTION ZN is zero.
   **   ~~~   ** Check Sizing:Zone and ZoneControl:Thermostat inputs.
   ** Warning ** Calculated design heating load for zone=STORAGE ROOM < 5 M2-SCH-J-SPACE FUNCTION ZN is zero.
   **   ~~~   ** Check Sizing:Zone and ZoneControl:Thermostat inputs.
   ** Warning ** Calculated design cooling load for zone=STORAGE ROOM < 5 M2-SCH-K-SPACE FUNCTION ZN is zero.
   **   ~~~   ** Check Sizing:Zone and ZoneControl:Thermostat inputs.
   ** Warning ** Calculated design heating load for zone=STORAGE ROOM < 5 M2-SCH-K-SPACE FUNCTION ZN is zero.
   **   ~~~   ** Check Sizing:Zone and ZoneControl:Thermostat inputs.
   ** Warning ** Calculated design heating load for zone=STORAGE ROOM <= 5 M2 <= 100 M2-SCH-D-SPACE FUNCTION ZN is zero.
   **   ~~~   ** Check Sizing:Zone and ZoneControl:Thermostat inputs.
   ** Warning ** Output:Meter: invalid Key Name="GAS:FACILITY" - not found.
   ** Warning ** Output:Meter:MeterFileOnly: invalid Key Name="GAS:FACILITY" - not found.
   ** Warning ** Output:Meter:MeterFileOnly requested for "Electricity:Facility" (TimeStep), already on "Output:Meter". Will report to both eplusout.eso and eplusout.mtr
   ************* Testing Individual Branch Integrity
   ************* All Branches passed integrity testing
   ************* Testing Individual Supply Air Path Integrity
   ************* All Supply Air Paths passed integrity testing
   ************* Testing Individual Return Air Path Integrity
   ************* All Return Air Paths passed integrity testing
   ************* No node connection errors were found.
   ************* Beginning Simulation
   ** Warning ** Output:Table:Monthly requested with SimulationControl Run Simulation for Weather File Run Periods set to No so Output:Table:Monthly will not be generated
   ************* Simulation Error Summary *************
   ************* There are 8 unused objects in input.
   ************* Use Output:Diagnostics,DisplayUnusedObjects; to see them.
   ************* There are 6 unused schedules in input.
   ************* There are 6 unused week schedules in input.
   ************* There are 9 unused day schedules in input.
   ************* Use Output:Diagnostics,DisplayUnusedSchedules; to see them.
   *************
   ************* ===== Final Error Summary =====
   ************* The following error categories occurred.  Consider correcting or noting.
   ************* Nominally Unused Constructions
   ************* ..The nominally unused constructions warning is provided to alert you to potential conditions that can cause
   ************* ..extra time during simulation. Each construction is calculated by the algorithm indicated in the HeatBalanceAlgorithm
   ************* ..object. You may remove the constructions indicated (when you use the DisplayExtraWarnings option).
   *************
   ************* EnergyPlus Warmup Error Summary. During Warmup: 0 Warning; 0 Severe Errors.
   ************* EnergyPlus Sizing Error Summary. During Sizing: 29 Warning; 0 Severe Errors.
   ************* EnergyPlus Completed Successfully-- 33 Warning; 0 Severe Errors; Elapsed Time=00hr 00min  2.43sec
