! Program Version,EnergyPlus, Version 8.9.0-eba93e8e1b, YMD=2019.03.05 16:13,
! Output:Meter Objects (applicable to this run)
Output:Meter,Electricity:Facility,hourly; !- [J]
Output:Meter:Cumulative,Electricity:Facility,hourly; !- [J]
Output:Meter,Electricity:Building,hourly; !- [J]
Output:Meter:Cumulative,Electricity:Building,hourly; !- [J]
Output:Meter,Electricity:Zone:STORY 28 SOUTH PERIMETER SPACE ZN,hourly; !- [J]
Output:Meter:Cumulative,Electricity:Zone:STORY 28 SOUTH PERIMETER SPACE ZN,hourly; !- [J]
Output:Meter,InteriorLights:Electricity,hourly; !- [J]
Output:Meter:Cumulative,InteriorLights:Electricity,hourly; !- [J]
Output:Meter,InteriorLights:Electricity:Zone:STORY 28 SOUTH PERIMETER SPACE ZN,hourly; !- [J]
Output:Meter:Cumulative,InteriorLights:Electricity:Zone:STORY 28 SOUTH PERIMETER SPACE ZN,hourly; !- [J]
Output:Meter,General:InteriorLights:Electricity,hourly; !- [J]
Output:Meter:Cumulative,General:InteriorLights:Electricity,hourly; !- [J]
Output:Meter,Electricity:Zone:STORY 26 WEST PERIMETER SPACE ZN,hourly; !- [J]
Output:Meter:Cumulative,Electricity:Zone:STORY 26 WEST PERIMETER SPACE ZN,hourly; !- [J]
Output:Meter,InteriorLights:Electricity:Zone:STORY 26 WEST PERIMETER SPACE ZN,hourly; !- [J]
Output:Meter:Cumulative,InteriorLights:Electricity:Zone:STORY 26 WEST PERIMETER SPACE ZN,hourly; !- [J]
Output:Meter,Electricity:Zone:STORY 9 EAST PERIMETER SPACE ZN,hourly; !- [J]
Output:Meter:Cumulative,Electricity:Zone:STORY 9 EAST PERIMETER SPACE ZN,hourly; !- [J]
Output:Meter,InteriorLights:Electricity:Zone:STORY 9 EAST PERIMETER SPACE ZN,hourly; !- [J]
Output:Meter:Cumulative,InteriorLights:Electricity:Zone:STORY 9 EAST PERIMETER SPACE ZN,hourly; !- [J]
Output:Meter,Electricity:Zone:STORY 10 CORE SPACE ZN,hourly; !- [J]
Output:Meter:Cumulative,Electricity:Zone:STORY 10 CORE SPACE ZN,hourly; !- [J]
Output:Meter,InteriorLights:Electricity:Zone:STORY 10 CORE SPACE ZN,hourly; !- [J]
Output:Meter:Cumulative,InteriorLights:Electricity:Zone:STORY 10 CORE SPACE ZN,hourly; !- [J]
Output:Meter,Electricity:Zone:STORY 11 SOUTH PERIMETER SPACE ZN,hourly; !- [J]
Output:Meter:Cumulative,Electricity:Zone:STORY 11 SOUTH PERIMETER SPACE ZN,hourly; !- [J]
Output:Meter,InteriorLights:Electricity:Zone:STORY 11 SOUTH PERIMETER SPACE ZN,hourly; !- [J]
Output:Meter:Cumulative,InteriorLights:Electricity:Zone:STORY 11 SOUTH PERIMETER SPACE ZN,hourly; !- [J]
Output:Meter,Electricity:Zone:STORY 11 CORE SPACE ZN,hourly; !- [J]
Output:Meter:Cumulative,Electricity:Zone:STORY 11 CORE SPACE ZN,hourly; !- [J]
Output:Meter,InteriorLights:Electricity:Zone:STORY 11 CORE SPACE ZN,hourly; !- [J]
Output:Meter:Cumulative,InteriorLights:Electricity:Zone:STORY 11 CORE SPACE ZN,hourly; !- [J]
Output:Meter,Electricity:Zone:STORY 8 WEST PERIMETER SPACE ZN,hourly; !- [J]
Output:Meter:Cumulative,Electricity:Zone:STORY 8 WEST PERIMETER SPACE ZN,hourly; !- [J]
Output:Meter,InteriorLights:Electricity:Zone:STORY 8 WEST PERIMETER SPACE ZN,hourly; !- [J]
Output:Meter:Cumulative,InteriorLights:Electricity:Zone:STORY 8 WEST PERIMETER SPACE ZN,hourly; !- [J]
Output:Meter,Electricity:Zone:STORY 1 NORTH PERIMETER SPACE ZN,hourly; !- [J]
Output:Meter:Cumulative,Electricity:Zone:STORY 1 NORTH PERIMETER SPACE ZN,hourly; !- [J]
Output:Meter,InteriorLights:Electricity:Zone:STORY 1 NORTH PERIMETER SPACE ZN,hourly; !- [J]
Output:Meter:Cumulative,InteriorLights:Electricity:Zone:STORY 1 NORTH PERIMETER SPACE ZN,hourly; !- [J]
Output:Meter,Electricity:Zone:STORY 12 NORTH PERIMETER SPACE ZN,hourly; !- [J]
Output:Meter:Cumulative,Electricity:Zone:STORY 12 NORTH PERIMETER SPACE ZN,hourly; !- [J]
Output:Meter,InteriorLights:Electricity:Zone:STORY 12 NORTH PERIMETER SPACE ZN,hourly; !- [J]
Output:Meter:Cumulative,InteriorLights:Electricity:Zone:STORY 12 NORTH PERIMETER SPACE ZN,hourly; !- [J]
Output:Meter,Electricity:Zone:STORY 12 SOUTH PERIMETER SPACE ZN,hourly; !- [J]
Output:Meter:Cumulative,Electricity:Zone:STORY 12 SOUTH PERIMETER SPACE ZN,hourly; !- [J]
Output:Meter,InteriorLights:Electricity:Zone:STORY 12 SOUTH PERIMETER SPACE ZN,hourly; !- [J]
Output:Meter:Cumulative,InteriorLights:Electricity:Zone:STORY 12 SOUTH PERIMETER SPACE ZN,hourly; !- [J]
Output:Meter,Electricity:Zone:STORY 12 CORE SPACE ZN,hourly; !- [J]
Output:Meter:Cumulative,Electricity:Zone:STORY 12 CORE SPACE ZN,hourly; !- [J]
Output:Meter,InteriorLights:Electricity:Zone:STORY 12 CORE SPACE ZN,hourly; !- [J]
Output:Meter:Cumulative,InteriorLights:Electricity:Zone:STORY 12 CORE SPACE ZN,hourly; !- [J]
Output:Meter,Electricity:Zone:STORY 13 CORE SPACE ZN,hourly; !- [J]
Output:Meter:Cumulative,Electricity:Zone:STORY 13 CORE SPACE ZN,hourly; !- [J]
Output:Meter,InteriorLights:Electricity:Zone:STORY 13 CORE SPACE ZN,hourly; !- [J]
Output:Meter:Cumulative,InteriorLights:Electricity:Zone:STORY 13 CORE SPACE ZN,hourly; !- [J]
Output:Meter,Electricity:Zone:STORY 25 CORE SPACE ZN,hourly; !- [J]
Output:Meter:Cumulative,Electricity:Zone:STORY 25 CORE SPACE ZN,hourly; !- [J]
Output:Meter,InteriorLights:Electricity:Zone:STORY 25 CORE SPACE ZN,hourly; !- [J]
Output:Meter:Cumulative,InteriorLights:Electricity:Zone:STORY 25 CORE SPACE ZN,hourly; !- [J]
Output:Meter,Electricity:Zone:STORY 15 SOUTH PERIMETER SPACE ZN,hourly; !- [J]
Output:Meter:Cumulative,Electricity:Zone:STORY 15 SOUTH PERIMETER SPACE ZN,hourly; !- [J]
Output:Meter,InteriorLights:Electricity:Zone:STORY 15 SOUTH PERIMETER SPACE ZN,hourly; !- [J]
Output:Meter:Cumulative,InteriorLights:Electricity:Zone:STORY 15 SOUTH PERIMETER SPACE ZN,hourly; !- [J]
Output:Meter,Electricity:Zone:STORY 13 NORTH PERIMETER SPACE ZN,hourly; !- [J]
Output:Meter:Cumulative,Electricity:Zone:STORY 13 NORTH PERIMETER SPACE ZN,hourly; !- [J]
Output:Meter,InteriorLights:Electricity:Zone:STORY 13 NORTH PERIMETER SPACE ZN,hourly; !- [J]
Output:Meter:Cumulative,InteriorLights:Electricity:Zone:STORY 13 NORTH PERIMETER SPACE ZN,hourly; !- [J]
Output:Meter,Electricity:Zone:STORY 14 NORTH PERIMETER SPACE ZN,hourly; !- [J]
Output:Meter:Cumulative,Electricity:Zone:STORY 14 NORTH PERIMETER SPACE ZN,hourly; !- [J]
Output:Meter,InteriorLights:Electricity:Zone:STORY 14 NORTH PERIMETER SPACE ZN,hourly; !- [J]
Output:Meter:Cumulative,InteriorLights:Electricity:Zone:STORY 14 NORTH PERIMETER SPACE ZN,hourly; !- [J]
Output:Meter,Electricity:Zone:STORY 26 SOUTH PERIMETER SPACE ZN,hourly; !- [J]
Output:Meter:Cumulative,Electricity:Zone:STORY 26 SOUTH PERIMETER SPACE ZN,hourly; !- [J]
Output:Meter,InteriorLights:Electricity:Zone:STORY 26 SOUTH PERIMETER SPACE ZN,hourly; !- [J]
Output:Meter:Cumulative,InteriorLights:Electricity:Zone:STORY 26 SOUTH PERIMETER SPACE ZN,hourly; !- [J]
Output:Meter,Electricity:Zone:STORY 11 EAST PERIMETER SPACE ZN,hourly; !- [J]
Output:Meter:Cumulative,Electricity:Zone:STORY 11 EAST PERIMETER SPACE ZN,hourly; !- [J]
Output:Meter,InteriorLights:Electricity:Zone:STORY 11 EAST PERIMETER SPACE ZN,hourly; !- [J]
Output:Meter:Cumulative,InteriorLights:Electricity:Zone:STORY 11 EAST PERIMETER SPACE ZN,hourly; !- [J]
Output:Meter,Electricity:Zone:STORY 16 EAST PERIMETER SPACE ZN,hourly; !- [J]
Output:Meter:Cumulative,Electricity:Zone:STORY 16 EAST PERIMETER SPACE ZN,hourly; !- [J]
Output:Meter,InteriorLights:Electricity:Zone:STORY 16 EAST PERIMETER SPACE ZN,hourly; !- [J]
Output:Meter:Cumulative,InteriorLights:Electricity:Zone:STORY 16 EAST PERIMETER SPACE ZN,hourly; !- [J]
Output:Meter,Electricity:Zone:STORY 22 EAST PERIMETER SPACE ZN,hourly; !- [J]
Output:Meter:Cumulative,Electricity:Zone:STORY 22 EAST PERIMETER SPACE ZN,hourly; !- [J]
Output:Meter,InteriorLights:Electricity:Zone:STORY 22 EAST PERIMETER SPACE ZN,hourly; !- [J]
Output:Meter:Cumulative,InteriorLights:Electricity:Zone:STORY 22 EAST PERIMETER SPACE ZN,hourly; !- [J]
Output:Meter,Electricity:Zone:STORY 14 EAST PERIMETER SPACE ZN,hourly; !- [J]
Output:Meter:Cumulative,Electricity:Zone:STORY 14 EAST PERIMETER SPACE ZN,hourly; !- [J]
Output:Meter,InteriorLights:Electricity:Zone:STORY 14 EAST PERIMETER SPACE ZN,hourly; !- [J]
Output:Meter:Cumulative,InteriorLights:Electricity:Zone:STORY 14 EAST PERIMETER SPACE ZN,hourly; !- [J]
Output:Meter,Electricity:Zone:STORY 14 SOUTH PERIMETER SPACE ZN,hourly; !- [J]
Output:Meter:Cumulative,Electricity:Zone:STORY 14 SOUTH PERIMETER SPACE ZN,hourly; !- [J]
Output:Meter,InteriorLights:Electricity:Zone:STORY 14 SOUTH PERIMETER SPACE ZN,hourly; !- [J]
Output:Meter:Cumulative,InteriorLights:Electricity:Zone:STORY 14 SOUTH PERIMETER SPACE ZN,hourly; !- [J]
Output:Meter,Electricity:Zone:STORY 15 WEST PERIMETER SPACE ZN,hourly; !- [J]
Output:Meter:Cumulative,Electricity:Zone:STORY 15 WEST PERIMETER SPACE ZN,hourly; !- [J]
Output:Meter,InteriorLights:Electricity:Zone:STORY 15 WEST PERIMETER SPACE ZN,hourly; !- [J]
Output:Meter:Cumulative,InteriorLights:Electricity:Zone:STORY 15 WEST PERIMETER SPACE ZN,hourly; !- [J]
Output:Meter,Electricity:Zone:STORY 25 SOUTH PERIMETER SPACE ZN,hourly; !- [J]
Output:Meter:Cumulative,Electricity:Zone:STORY 25 SOUTH PERIMETER SPACE ZN,hourly; !- [J]
Output:Meter,InteriorLights:Electricity:Zone:STORY 25 SOUTH PERIMETER SPACE ZN,hourly; !- [J]
Output:Meter:Cumulative,InteriorLights:Electricity:Zone:STORY 25 SOUTH PERIMETER SPACE ZN,hourly; !- [J]
Output:Meter,Electricity:Zone:STORY 6 CORE SPACE ZN,hourly; !- [J]
Output:Meter:Cumulative,Electricity:Zone:STORY 6 CORE SPACE ZN,hourly; !- [J]
Output:Meter,InteriorLights:Electricity:Zone:STORY 6 CORE SPACE ZN,hourly; !- [J]
Output:Meter:Cumulative,InteriorLights:Electricity:Zone:STORY 6 CORE SPACE ZN,hourly; !- [J]
Output:Meter,Electricity:Zone:STORY 18 NORTH PERIMETER SPACE ZN,hourly; !- [J]
Output:Meter:Cumulative,Electricity:Zone:STORY 18 NORTH PERIMETER SPACE ZN,hourly; !- [J]
Output:Meter,InteriorLights:Electricity:Zone:STORY 18 NORTH PERIMETER SPACE ZN,hourly; !- [J]
Output:Meter:Cumulative,InteriorLights:Electricity:Zone:STORY 18 NORTH PERIMETER SPACE ZN,hourly; !- [J]
Output:Meter,Electricity:Zone:STORY 25 EAST PERIMETER SPACE ZN,hourly; !- [J]
Output:Meter:Cumulative,Electricity:Zone:STORY 25 EAST PERIMETER SPACE ZN,hourly; !- [J]
Output:Meter,InteriorLights:Electricity:Zone:STORY 25 EAST PERIMETER SPACE ZN,hourly; !- [J]
Output:Meter:Cumulative,InteriorLights:Electricity:Zone:STORY 25 EAST PERIMETER SPACE ZN,hourly; !- [J]
Output:Meter,Electricity:Zone:STORY 15 EAST PERIMETER SPACE ZN,hourly; !- [J]
Output:Meter:Cumulative,Electricity:Zone:STORY 15 EAST PERIMETER SPACE ZN,hourly; !- [J]
Output:Meter,InteriorLights:Electricity:Zone:STORY 15 EAST PERIMETER SPACE ZN,hourly; !- [J]
Output:Meter:Cumulative,InteriorLights:Electricity:Zone:STORY 15 EAST PERIMETER SPACE ZN,hourly; !- [J]
Output:Meter,Electricity:Zone:STORY 16 CORE SPACE ZN,hourly; !- [J]
Output:Meter:Cumulative,Electricity:Zone:STORY 16 CORE SPACE ZN,hourly; !- [J]
Output:Meter,InteriorLights:Electricity:Zone:STORY 16 CORE SPACE ZN,hourly; !- [J]
Output:Meter:Cumulative,InteriorLights:Electricity:Zone:STORY 16 CORE SPACE ZN,hourly; !- [J]
Output:Meter,Electricity:Zone:STORY 16 WEST PERIMETER SPACE ZN,hourly; !- [J]
Output:Meter:Cumulative,Electricity:Zone:STORY 16 WEST PERIMETER SPACE ZN,hourly; !- [J]
Output:Meter,InteriorLights:Electricity:Zone:STORY 16 WEST PERIMETER SPACE ZN,hourly; !- [J]
Output:Meter:Cumulative,InteriorLights:Electricity:Zone:STORY 16 WEST PERIMETER SPACE ZN,hourly; !- [J]
Output:Meter,Electricity:Zone:STORY 17 SOUTH PERIMETER SPACE ZN,hourly; !- [J]
Output:Meter:Cumulative,Electricity:Zone:STORY 17 SOUTH PERIMETER SPACE ZN,hourly; !- [J]
Output:Meter,InteriorLights:Electricity:Zone:STORY 17 SOUTH PERIMETER SPACE ZN,hourly; !- [J]
Output:Meter:Cumulative,InteriorLights:Electricity:Zone:STORY 17 SOUTH PERIMETER SPACE ZN,hourly; !- [J]
Output:Meter,Electricity:Zone:STORY 16 SOUTH PERIMETER SPACE ZN,hourly; !- [J]
Output:Meter:Cumulative,Electricity:Zone:STORY 16 SOUTH PERIMETER SPACE ZN,hourly; !- [J]
Output:Meter,InteriorLights:Electricity:Zone:STORY 16 SOUTH PERIMETER SPACE ZN,hourly; !- [J]
Output:Meter:Cumulative,InteriorLights:Electricity:Zone:STORY 16 SOUTH PERIMETER SPACE ZN,hourly; !- [J]
Output:Meter,Electricity:Zone:STORY 27 CORE SPACE ZN,hourly; !- [J]
Output:Meter:Cumulative,Electricity:Zone:STORY 27 CORE SPACE ZN,hourly; !- [J]
Output:Meter,InteriorLights:Electricity:Zone:STORY 27 CORE SPACE ZN,hourly; !- [J]
Output:Meter:Cumulative,InteriorLights:Electricity:Zone:STORY 27 CORE SPACE ZN,hourly; !- [J]
Output:Meter,Electricity:Zone:STORY 17 NORTH PERIMETER SPACE ZN,hourly; !- [J]
Output:Meter:Cumulative,Electricity:Zone:STORY 17 NORTH PERIMETER SPACE ZN,hourly; !- [J]
Output:Meter,InteriorLights:Electricity:Zone:STORY 17 NORTH PERIMETER SPACE ZN,hourly; !- [J]
Output:Meter:Cumulative,InteriorLights:Electricity:Zone:STORY 17 NORTH PERIMETER SPACE ZN,hourly; !- [J]
Output:Meter,Electricity:Zone:STORY 24 SOUTH PERIMETER SPACE ZN,hourly; !- [J]
Output:Meter:Cumulative,Electricity:Zone:STORY 24 SOUTH PERIMETER SPACE ZN,hourly; !- [J]
Output:Meter,InteriorLights:Electricity:Zone:STORY 24 SOUTH PERIMETER SPACE ZN,hourly; !- [J]
Output:Meter:Cumulative,InteriorLights:Electricity:Zone:STORY 24 SOUTH PERIMETER SPACE ZN,hourly; !- [J]
Output:Meter,Electricity:Zone:STORY 2 SOUTH PERIMETER SPACE ZN,hourly; !- [J]
Output:Meter:Cumulative,Electricity:Zone:STORY 2 SOUTH PERIMETER SPACE ZN,hourly; !- [J]
Output:Meter,InteriorLights:Electricity:Zone:STORY 2 SOUTH PERIMETER SPACE ZN,hourly; !- [J]
Output:Meter:Cumulative,InteriorLights:Electricity:Zone:STORY 2 SOUTH PERIMETER SPACE ZN,hourly; !- [J]
Output:Meter,Electricity:Zone:STORY 10 SOUTH PERIMETER SPACE ZN,hourly; !- [J]
Output:Meter:Cumulative,Electricity:Zone:STORY 10 SOUTH PERIMETER SPACE ZN,hourly; !- [J]
Output:Meter,InteriorLights:Electricity:Zone:STORY 10 SOUTH PERIMETER SPACE ZN,hourly; !- [J]
Output:Meter:Cumulative,InteriorLights:Electricity:Zone:STORY 10 SOUTH PERIMETER SPACE ZN,hourly; !- [J]
Output:Meter,Electricity:Zone:STORY 18 EAST PERIMETER SPACE ZN,hourly; !- [J]
Output:Meter:Cumulative,Electricity:Zone:STORY 18 EAST PERIMETER SPACE ZN,hourly; !- [J]
Output:Meter,InteriorLights:Electricity:Zone:STORY 18 EAST PERIMETER SPACE ZN,hourly; !- [J]
Output:Meter:Cumulative,InteriorLights:Electricity:Zone:STORY 18 EAST PERIMETER SPACE ZN,hourly; !- [J]
Output:Meter,Electricity:Zone:STORY 1 SOUTH PERIMETER SPACE ZN,hourly; !- [J]
Output:Meter:Cumulative,Electricity:Zone:STORY 1 SOUTH PERIMETER SPACE ZN,hourly; !- [J]
Output:Meter,InteriorLights:Electricity:Zone:STORY 1 SOUTH PERIMETER SPACE ZN,hourly; !- [J]
Output:Meter:Cumulative,InteriorLights:Electricity:Zone:STORY 1 SOUTH PERIMETER SPACE ZN,hourly; !- [J]
Output:Meter,Electricity:Zone:STORY 18 CORE SPACE ZN,hourly; !- [J]
Output:Meter:Cumulative,Electricity:Zone:STORY 18 CORE SPACE ZN,hourly; !- [J]
Output:Meter,InteriorLights:Electricity:Zone:STORY 18 CORE SPACE ZN,hourly; !- [J]
Output:Meter:Cumulative,InteriorLights:Electricity:Zone:STORY 18 CORE SPACE ZN,hourly; !- [J]
Output:Meter,Electricity:Zone:STORY 7 EAST PERIMETER SPACE ZN,hourly; !- [J]
Output:Meter:Cumulative,Electricity:Zone:STORY 7 EAST PERIMETER SPACE ZN,hourly; !- [J]
Output:Meter,InteriorLights:Electricity:Zone:STORY 7 EAST PERIMETER SPACE ZN,hourly; !- [J]
Output:Meter:Cumulative,InteriorLights:Electricity:Zone:STORY 7 EAST PERIMETER SPACE ZN,hourly; !- [J]
Output:Meter,Electricity:Zone:STORY 19 WEST PERIMETER SPACE ZN,hourly; !- [J]
Output:Meter:Cumulative,Electricity:Zone:STORY 19 WEST PERIMETER SPACE ZN,hourly; !- [J]
Output:Meter,InteriorLights:Electricity:Zone:STORY 19 WEST PERIMETER SPACE ZN,hourly; !- [J]
Output:Meter:Cumulative,InteriorLights:Electricity:Zone:STORY 19 WEST PERIMETER SPACE ZN,hourly; !- [J]
Output:Meter,Electricity:Zone:STORY 19 EAST PERIMETER SPACE ZN,hourly; !- [J]
Output:Meter:Cumulative,Electricity:Zone:STORY 19 EAST PERIMETER SPACE ZN,hourly; !- [J]
Output:Meter,InteriorLights:Electricity:Zone:STORY 19 EAST PERIMETER SPACE ZN,hourly; !- [J]
Output:Meter:Cumulative,InteriorLights:Electricity:Zone:STORY 19 EAST PERIMETER SPACE ZN,hourly; !- [J]
Output:Meter,Electricity:Zone:STORY 19 SOUTH PERIMETER SPACE ZN,hourly; !- [J]
Output:Meter:Cumulative,Electricity:Zone:STORY 19 SOUTH PERIMETER SPACE ZN,hourly; !- [J]
Output:Meter,InteriorLights:Electricity:Zone:STORY 19 SOUTH PERIMETER SPACE ZN,hourly; !- [J]
Output:Meter:Cumulative,InteriorLights:Electricity:Zone:STORY 19 SOUTH PERIMETER SPACE ZN,hourly; !- [J]
Output:Meter,Electricity:Zone:STORY 1 CORE SPACE ZN,hourly; !- [J]
Output:Meter:Cumulative,Electricity:Zone:STORY 1 CORE SPACE ZN,hourly; !- [J]
Output:Meter,InteriorLights:Electricity:Zone:STORY 1 CORE SPACE ZN,hourly; !- [J]
Output:Meter:Cumulative,InteriorLights:Electricity:Zone:STORY 1 CORE SPACE ZN,hourly; !- [J]
Output:Meter,Electricity:Zone:STORY 24 NORTH PERIMETER SPACE ZN,hourly; !- [J]
Output:Meter:Cumulative,Electricity:Zone:STORY 24 NORTH PERIMETER SPACE ZN,hourly; !- [J]
Output:Meter,InteriorLights:Electricity:Zone:STORY 24 NORTH PERIMETER SPACE ZN,hourly; !- [J]
Output:Meter:Cumulative,InteriorLights:Electricity:Zone:STORY 24 NORTH PERIMETER SPACE ZN,hourly; !- [J]
Output:Meter,Electricity:Zone:STORY 19 CORE SPACE ZN,hourly; !- [J]
Output:Meter:Cumulative,Electricity:Zone:STORY 19 CORE SPACE ZN,hourly; !- [J]
Output:Meter,InteriorLights:Electricity:Zone:STORY 19 CORE SPACE ZN,hourly; !- [J]
Output:Meter:Cumulative,InteriorLights:Electricity:Zone:STORY 19 CORE SPACE ZN,hourly; !- [J]
Output:Meter,Electricity:Zone:STORY 24 WEST PERIMETER SPACE ZN,hourly; !- [J]
Output:Meter:Cumulative,Electricity:Zone:STORY 24 WEST PERIMETER SPACE ZN,hourly; !- [J]
Output:Meter,InteriorLights:Electricity:Zone:STORY 24 WEST PERIMETER SPACE ZN,hourly; !- [J]
Output:Meter:Cumulative,InteriorLights:Electricity:Zone:STORY 24 WEST PERIMETER SPACE ZN,hourly; !- [J]
Output:Meter,Electricity:Zone:STORY 23 CORE SPACE ZN,hourly; !- [J]
Output:Meter:Cumulative,Electricity:Zone:STORY 23 CORE SPACE ZN,hourly; !- [J]
Output:Meter,InteriorLights:Electricity:Zone:STORY 23 CORE SPACE ZN,hourly; !- [J]
Output:Meter:Cumulative,InteriorLights:Electricity:Zone:STORY 23 CORE SPACE ZN,hourly; !- [J]
Output:Meter,Electricity:Zone:STORY 23 SOUTH PERIMETER SPACE ZN,hourly; !- [J]
Output:Meter:Cumulative,Electricity:Zone:STORY 23 SOUTH PERIMETER SPACE ZN,hourly; !- [J]
Output:Meter,InteriorLights:Electricity:Zone:STORY 23 SOUTH PERIMETER SPACE ZN,hourly; !- [J]
Output:Meter:Cumulative,InteriorLights:Electricity:Zone:STORY 23 SOUTH PERIMETER SPACE ZN,hourly; !- [J]
Output:Meter,Electricity:Zone:STORY 28 CORE SPACE ZN,hourly; !- [J]
Output:Meter:Cumulative,Electricity:Zone:STORY 28 CORE SPACE ZN,hourly; !- [J]
Output:Meter,InteriorLights:Electricity:Zone:STORY 28 CORE SPACE ZN,hourly; !- [J]
Output:Meter:Cumulative,InteriorLights:Electricity:Zone:STORY 28 CORE SPACE ZN,hourly; !- [J]
Output:Meter,Electricity:Zone:STORY 23 EAST PERIMETER SPACE ZN,hourly; !- [J]
Output:Meter:Cumulative,Electricity:Zone:STORY 23 EAST PERIMETER SPACE ZN,hourly; !- [J]
Output:Meter,InteriorLights:Electricity:Zone:STORY 23 EAST PERIMETER SPACE ZN,hourly; !- [J]
Output:Meter:Cumulative,InteriorLights:Electricity:Zone:STORY 23 EAST PERIMETER SPACE ZN,hourly; !- [J]
Output:Meter,Electricity:Zone:STORY 28 EAST PERIMETER SPACE ZN,hourly; !- [J]
Output:Meter:Cumulative,Electricity:Zone:STORY 28 EAST PERIMETER SPACE ZN,hourly; !- [J]
Output:Meter,InteriorLights:Electricity:Zone:STORY 28 EAST PERIMETER SPACE ZN,hourly; !- [J]
Output:Meter:Cumulative,InteriorLights:Electricity:Zone:STORY 28 EAST PERIMETER SPACE ZN,hourly; !- [J]
Output:Meter,Electricity:Zone:STORY 22 SOUTH PERIMETER SPACE ZN,hourly; !- [J]
Output:Meter:Cumulative,Electricity:Zone:STORY 22 SOUTH PERIMETER SPACE ZN,hourly; !- [J]
Output:Meter,InteriorLights:Electricity:Zone:STORY 22 SOUTH PERIMETER SPACE ZN,hourly; !- [J]
Output:Meter:Cumulative,InteriorLights:Electricity:Zone:STORY 22 SOUTH PERIMETER SPACE ZN,hourly; !- [J]
Output:Meter,Electricity:Zone:STORY 22 WEST PERIMETER SPACE ZN,hourly; !- [J]
Output:Meter:Cumulative,Electricity:Zone:STORY 22 WEST PERIMETER SPACE ZN,hourly; !- [J]
Output:Meter,InteriorLights:Electricity:Zone:STORY 22 WEST PERIMETER SPACE ZN,hourly; !- [J]
Output:Meter:Cumulative,InteriorLights:Electricity:Zone:STORY 22 WEST PERIMETER SPACE ZN,hourly; !- [J]
Output:Meter,Electricity:Zone:STORY 21 CORE SPACE ZN,hourly; !- [J]
Output:Meter:Cumulative,Electricity:Zone:STORY 21 CORE SPACE ZN,hourly; !- [J]
Output:Meter,InteriorLights:Electricity:Zone:STORY 21 CORE SPACE ZN,hourly; !- [J]
Output:Meter:Cumulative,InteriorLights:Electricity:Zone:STORY 21 CORE SPACE ZN,hourly; !- [J]
Output:Meter,Electricity:Zone:STORY 21 NORTH PERIMETER SPACE ZN,hourly; !- [J]
Output:Meter:Cumulative,Electricity:Zone:STORY 21 NORTH PERIMETER SPACE ZN,hourly; !- [J]
Output:Meter,InteriorLights:Electricity:Zone:STORY 21 NORTH PERIMETER SPACE ZN,hourly; !- [J]
Output:Meter:Cumulative,InteriorLights:Electricity:Zone:STORY 21 NORTH PERIMETER SPACE ZN,hourly; !- [J]
Output:Meter,Electricity:Zone:STORY 21 WEST PERIMETER SPACE ZN,hourly; !- [J]
Output:Meter:Cumulative,Electricity:Zone:STORY 21 WEST PERIMETER SPACE ZN,hourly; !- [J]
Output:Meter,InteriorLights:Electricity:Zone:STORY 21 WEST PERIMETER SPACE ZN,hourly; !- [J]
Output:Meter:Cumulative,InteriorLights:Electricity:Zone:STORY 21 WEST PERIMETER SPACE ZN,hourly; !- [J]
Output:Meter,Electricity:Zone:STORY 20 CORE SPACE ZN,hourly; !- [J]
Output:Meter:Cumulative,Electricity:Zone:STORY 20 CORE SPACE ZN,hourly; !- [J]
Output:Meter,InteriorLights:Electricity:Zone:STORY 20 CORE SPACE ZN,hourly; !- [J]
Output:Meter:Cumulative,InteriorLights:Electricity:Zone:STORY 20 CORE SPACE ZN,hourly; !- [J]
Output:Meter,Electricity:Zone:STORY 20 SOUTH PERIMETER SPACE ZN,hourly; !- [J]
Output:Meter:Cumulative,Electricity:Zone:STORY 20 SOUTH PERIMETER SPACE ZN,hourly; !- [J]
Output:Meter,InteriorLights:Electricity:Zone:STORY 20 SOUTH PERIMETER SPACE ZN,hourly; !- [J]
Output:Meter:Cumulative,InteriorLights:Electricity:Zone:STORY 20 SOUTH PERIMETER SPACE ZN,hourly; !- [J]
Output:Meter,Electricity:Zone:STORY 20 EAST PERIMETER SPACE ZN,hourly; !- [J]
Output:Meter:Cumulative,Electricity:Zone:STORY 20 EAST PERIMETER SPACE ZN,hourly; !- [J]
Output:Meter,InteriorLights:Electricity:Zone:STORY 20 EAST PERIMETER SPACE ZN,hourly; !- [J]
Output:Meter:Cumulative,InteriorLights:Electricity:Zone:STORY 20 EAST PERIMETER SPACE ZN,hourly; !- [J]
Output:Meter,Electricity:Zone:STORY 20 NORTH PERIMETER SPACE ZN,hourly; !- [J]
Output:Meter:Cumulative,Electricity:Zone:STORY 20 NORTH PERIMETER SPACE ZN,hourly; !- [J]
Output:Meter,InteriorLights:Electricity:Zone:STORY 20 NORTH PERIMETER SPACE ZN,hourly; !- [J]
Output:Meter:Cumulative,InteriorLights:Electricity:Zone:STORY 20 NORTH PERIMETER SPACE ZN,hourly; !- [J]
Output:Meter,Electricity:Zone:STORY 28 NORTH PERIMETER SPACE ZN,hourly; !- [J]
Output:Meter:Cumulative,Electricity:Zone:STORY 28 NORTH PERIMETER SPACE ZN,hourly; !- [J]
Output:Meter,InteriorLights:Electricity:Zone:STORY 28 NORTH PERIMETER SPACE ZN,hourly; !- [J]
Output:Meter:Cumulative,InteriorLights:Electricity:Zone:STORY 28 NORTH PERIMETER SPACE ZN,hourly; !- [J]
Output:Meter,Electricity:Zone:STORY 9 WEST PERIMETER SPACE ZN,hourly; !- [J]
Output:Meter:Cumulative,Electricity:Zone:STORY 9 WEST PERIMETER SPACE ZN,hourly; !- [J]
Output:Meter,InteriorLights:Electricity:Zone:STORY 9 WEST PERIMETER SPACE ZN,hourly; !- [J]
Output:Meter:Cumulative,InteriorLights:Electricity:Zone:STORY 9 WEST PERIMETER SPACE ZN,hourly; !- [J]
Output:Meter,Electricity:Zone:STORY 26 NORTH PERIMETER SPACE ZN,hourly; !- [J]
Output:Meter:Cumulative,Electricity:Zone:STORY 26 NORTH PERIMETER SPACE ZN,hourly; !- [J]
Output:Meter,InteriorLights:Electricity:Zone:STORY 26 NORTH PERIMETER SPACE ZN,hourly; !- [J]
Output:Meter:Cumulative,InteriorLights:Electricity:Zone:STORY 26 NORTH PERIMETER SPACE ZN,hourly; !- [J]
Output:Meter,Electricity:Zone:STORY 3 WEST PERIMETER SPACE ZN,hourly; !- [J]
Output:Meter:Cumulative,Electricity:Zone:STORY 3 WEST PERIMETER SPACE ZN,hourly; !- [J]
Output:Meter,InteriorLights:Electricity:Zone:STORY 3 WEST PERIMETER SPACE ZN,hourly; !- [J]
Output:Meter:Cumulative,InteriorLights:Electricity:Zone:STORY 3 WEST PERIMETER SPACE ZN,hourly; !- [J]
Output:Meter,Electricity:Zone:STORY 22 CORE SPACE ZN,hourly; !- [J]
Output:Meter:Cumulative,Electricity:Zone:STORY 22 CORE SPACE ZN,hourly; !- [J]
Output:Meter,InteriorLights:Electricity:Zone:STORY 22 CORE SPACE ZN,hourly; !- [J]
Output:Meter:Cumulative,InteriorLights:Electricity:Zone:STORY 22 CORE SPACE ZN,hourly; !- [J]
Output:Meter,Electricity:Zone:STORY 18 WEST PERIMETER SPACE ZN,hourly; !- [J]
Output:Meter:Cumulative,Electricity:Zone:STORY 18 WEST PERIMETER SPACE ZN,hourly; !- [J]
Output:Meter,InteriorLights:Electricity:Zone:STORY 18 WEST PERIMETER SPACE ZN,hourly; !- [J]
Output:Meter:Cumulative,InteriorLights:Electricity:Zone:STORY 18 WEST PERIMETER SPACE ZN,hourly; !- [J]
Output:Meter,Electricity:Zone:STORY 26 EAST PERIMETER SPACE ZN,hourly; !- [J]
Output:Meter:Cumulative,Electricity:Zone:STORY 26 EAST PERIMETER SPACE ZN,hourly; !- [J]
Output:Meter,InteriorLights:Electricity:Zone:STORY 26 EAST PERIMETER SPACE ZN,hourly; !- [J]
Output:Meter:Cumulative,InteriorLights:Electricity:Zone:STORY 26 EAST PERIMETER SPACE ZN,hourly; !- [J]
Output:Meter,Electricity:Zone:STORY 9 NORTH PERIMETER SPACE ZN,hourly; !- [J]
Output:Meter:Cumulative,Electricity:Zone:STORY 9 NORTH PERIMETER SPACE ZN,hourly; !- [J]
Output:Meter,InteriorLights:Electricity:Zone:STORY 9 NORTH PERIMETER SPACE ZN,hourly; !- [J]
Output:Meter:Cumulative,InteriorLights:Electricity:Zone:STORY 9 NORTH PERIMETER SPACE ZN,hourly; !- [J]
Output:Meter,Electricity:Zone:STORY 5 SOUTH PERIMETER SPACE ZN,hourly; !- [J]
Output:Meter:Cumulative,Electricity:Zone:STORY 5 SOUTH PERIMETER SPACE ZN,hourly; !- [J]
Output:Meter,InteriorLights:Electricity:Zone:STORY 5 SOUTH PERIMETER SPACE ZN,hourly; !- [J]
Output:Meter:Cumulative,InteriorLights:Electricity:Zone:STORY 5 SOUTH PERIMETER SPACE ZN,hourly; !- [J]
Output:Meter,Electricity:Zone:STORY 27 SOUTH PERIMETER SPACE ZN,hourly; !- [J]
Output:Meter:Cumulative,Electricity:Zone:STORY 27 SOUTH PERIMETER SPACE ZN,hourly; !- [J]
Output:Meter,InteriorLights:Electricity:Zone:STORY 27 SOUTH PERIMETER SPACE ZN,hourly; !- [J]
Output:Meter:Cumulative,InteriorLights:Electricity:Zone:STORY 27 SOUTH PERIMETER SPACE ZN,hourly; !- [J]
Output:Meter,Electricity:Zone:STORY 6 EAST PERIMETER SPACE ZN,hourly; !- [J]
Output:Meter:Cumulative,Electricity:Zone:STORY 6 EAST PERIMETER SPACE ZN,hourly; !- [J]
Output:Meter,InteriorLights:Electricity:Zone:STORY 6 EAST PERIMETER SPACE ZN,hourly; !- [J]
Output:Meter:Cumulative,InteriorLights:Electricity:Zone:STORY 6 EAST PERIMETER SPACE ZN,hourly; !- [J]
Output:Meter,Electricity:Zone:STORY 2 NORTH PERIMETER SPACE ZN,hourly; !- [J]
Output:Meter:Cumulative,Electricity:Zone:STORY 2 NORTH PERIMETER SPACE ZN,hourly; !- [J]
Output:Meter,InteriorLights:Electricity:Zone:STORY 2 NORTH PERIMETER SPACE ZN,hourly; !- [J]
Output:Meter:Cumulative,InteriorLights:Electricity:Zone:STORY 2 NORTH PERIMETER SPACE ZN,hourly; !- [J]
Output:Meter,Electricity:Zone:STORY 18 SOUTH PERIMETER SPACE ZN,hourly; !- [J]
Output:Meter:Cumulative,Electricity:Zone:STORY 18 SOUTH PERIMETER SPACE ZN,hourly; !- [J]
Output:Meter,InteriorLights:Electricity:Zone:STORY 18 SOUTH PERIMETER SPACE ZN,hourly; !- [J]
Output:Meter:Cumulative,InteriorLights:Electricity:Zone:STORY 18 SOUTH PERIMETER SPACE ZN,hourly; !- [J]
Output:Meter,Electricity:Zone:STORY 25 NORTH PERIMETER SPACE ZN,hourly; !- [J]
Output:Meter:Cumulative,Electricity:Zone:STORY 25 NORTH PERIMETER SPACE ZN,hourly; !- [J]
Output:Meter,InteriorLights:Electricity:Zone:STORY 25 NORTH PERIMETER SPACE ZN,hourly; !- [J]
Output:Meter:Cumulative,InteriorLights:Electricity:Zone:STORY 25 NORTH PERIMETER SPACE ZN,hourly; !- [J]
Output:Meter,Electricity:Zone:STORY 25 WEST PERIMETER SPACE ZN,hourly; !- [J]
Output:Meter:Cumulative,Electricity:Zone:STORY 25 WEST PERIMETER SPACE ZN,hourly; !- [J]
Output:Meter,InteriorLights:Electricity:Zone:STORY 25 WEST PERIMETER SPACE ZN,hourly; !- [J]
Output:Meter:Cumulative,InteriorLights:Electricity:Zone:STORY 25 WEST PERIMETER SPACE ZN,hourly; !- [J]
Output:Meter,Electricity:Zone:STORY 5 CORE SPACE ZN,hourly; !- [J]
Output:Meter:Cumulative,Electricity:Zone:STORY 5 CORE SPACE ZN,hourly; !- [J]
Output:Meter,InteriorLights:Electricity:Zone:STORY 5 CORE SPACE ZN,hourly; !- [J]
Output:Meter:Cumulative,InteriorLights:Electricity:Zone:STORY 5 CORE SPACE ZN,hourly; !- [J]
Output:Meter,Electricity:Zone:STORY 6 NORTH PERIMETER SPACE ZN,hourly; !- [J]
Output:Meter:Cumulative,Electricity:Zone:STORY 6 NORTH PERIMETER SPACE ZN,hourly; !- [J]
Output:Meter,InteriorLights:Electricity:Zone:STORY 6 NORTH PERIMETER SPACE ZN,hourly; !- [J]
Output:Meter:Cumulative,InteriorLights:Electricity:Zone:STORY 6 NORTH PERIMETER SPACE ZN,hourly; !- [J]
Output:Meter,Electricity:Zone:STORY 1 EAST PERIMETER SPACE ZN,hourly; !- [J]
Output:Meter:Cumulative,Electricity:Zone:STORY 1 EAST PERIMETER SPACE ZN,hourly; !- [J]
Output:Meter,InteriorLights:Electricity:Zone:STORY 1 EAST PERIMETER SPACE ZN,hourly; !- [J]
Output:Meter:Cumulative,InteriorLights:Electricity:Zone:STORY 1 EAST PERIMETER SPACE ZN,hourly; !- [J]
Output:Meter,Electricity:Zone:STORY 15 NORTH PERIMETER SPACE ZN,hourly; !- [J]
Output:Meter:Cumulative,Electricity:Zone:STORY 15 NORTH PERIMETER SPACE ZN,hourly; !- [J]
Output:Meter,InteriorLights:Electricity:Zone:STORY 15 NORTH PERIMETER SPACE ZN,hourly; !- [J]
Output:Meter:Cumulative,InteriorLights:Electricity:Zone:STORY 15 NORTH PERIMETER SPACE ZN,hourly; !- [J]
Output:Meter,Electricity:Zone:STORY 8 CORE SPACE ZN,hourly; !- [J]
Output:Meter:Cumulative,Electricity:Zone:STORY 8 CORE SPACE ZN,hourly; !- [J]
Output:Meter,InteriorLights:Electricity:Zone:STORY 8 CORE SPACE ZN,hourly; !- [J]
Output:Meter:Cumulative,InteriorLights:Electricity:Zone:STORY 8 CORE SPACE ZN,hourly; !- [J]
Output:Meter,Electricity:Zone:STORY 27 EAST PERIMETER SPACE ZN,hourly; !- [J]
Output:Meter:Cumulative,Electricity:Zone:STORY 27 EAST PERIMETER SPACE ZN,hourly; !- [J]
Output:Meter,InteriorLights:Electricity:Zone:STORY 27 EAST PERIMETER SPACE ZN,hourly; !- [J]
Output:Meter:Cumulative,InteriorLights:Electricity:Zone:STORY 27 EAST PERIMETER SPACE ZN,hourly; !- [J]
Output:Meter,Electricity:Zone:STORY 4 CORE SPACE ZN,hourly; !- [J]
Output:Meter:Cumulative,Electricity:Zone:STORY 4 CORE SPACE ZN,hourly; !- [J]
Output:Meter,InteriorLights:Electricity:Zone:STORY 4 CORE SPACE ZN,hourly; !- [J]
Output:Meter:Cumulative,InteriorLights:Electricity:Zone:STORY 4 CORE SPACE ZN,hourly; !- [J]
Output:Meter,Electricity:Zone:STORY 5 EAST PERIMETER SPACE ZN,hourly; !- [J]
Output:Meter:Cumulative,Electricity:Zone:STORY 5 EAST PERIMETER SPACE ZN,hourly; !- [J]
Output:Meter,InteriorLights:Electricity:Zone:STORY 5 EAST PERIMETER SPACE ZN,hourly; !- [J]
Output:Meter:Cumulative,InteriorLights:Electricity:Zone:STORY 5 EAST PERIMETER SPACE ZN,hourly; !- [J]
Output:Meter,Electricity:Zone:STORY 12 WEST PERIMETER SPACE ZN,hourly; !- [J]
Output:Meter:Cumulative,Electricity:Zone:STORY 12 WEST PERIMETER SPACE ZN,hourly; !- [J]
Output:Meter,InteriorLights:Electricity:Zone:STORY 12 WEST PERIMETER SPACE ZN,hourly; !- [J]
Output:Meter:Cumulative,InteriorLights:Electricity:Zone:STORY 12 WEST PERIMETER SPACE ZN,hourly; !- [J]
Output:Meter,Electricity:Zone:STORY 9 CORE SPACE ZN,hourly; !- [J]
Output:Meter:Cumulative,Electricity:Zone:STORY 9 CORE SPACE ZN,hourly; !- [J]
Output:Meter,InteriorLights:Electricity:Zone:STORY 9 CORE SPACE ZN,hourly; !- [J]
Output:Meter:Cumulative,InteriorLights:Electricity:Zone:STORY 9 CORE SPACE ZN,hourly; !- [J]
Output:Meter,Electricity:Zone:STORY 8 SOUTH PERIMETER SPACE ZN,hourly; !- [J]
Output:Meter:Cumulative,Electricity:Zone:STORY 8 SOUTH PERIMETER SPACE ZN,hourly; !- [J]
Output:Meter,InteriorLights:Electricity:Zone:STORY 8 SOUTH PERIMETER SPACE ZN,hourly; !- [J]
Output:Meter:Cumulative,InteriorLights:Electricity:Zone:STORY 8 SOUTH PERIMETER SPACE ZN,hourly; !- [J]
Output:Meter,Electricity:Zone:STORY 4 EAST PERIMETER SPACE ZN,hourly; !- [J]
Output:Meter:Cumulative,Electricity:Zone:STORY 4 EAST PERIMETER SPACE ZN,hourly; !- [J]
Output:Meter,InteriorLights:Electricity:Zone:STORY 4 EAST PERIMETER SPACE ZN,hourly; !- [J]
Output:Meter:Cumulative,InteriorLights:Electricity:Zone:STORY 4 EAST PERIMETER SPACE ZN,hourly; !- [J]
Output:Meter,Electricity:Zone:STORY 6 SOUTH PERIMETER SPACE ZN,hourly; !- [J]
Output:Meter:Cumulative,Electricity:Zone:STORY 6 SOUTH PERIMETER SPACE ZN,hourly; !- [J]
Output:Meter,InteriorLights:Electricity:Zone:STORY 6 SOUTH PERIMETER SPACE ZN,hourly; !- [J]
Output:Meter:Cumulative,InteriorLights:Electricity:Zone:STORY 6 SOUTH PERIMETER SPACE ZN,hourly; !- [J]
Output:Meter,Electricity:Zone:STORY 10 EAST PERIMETER SPACE ZN,hourly; !- [J]
Output:Meter:Cumulative,Electricity:Zone:STORY 10 EAST PERIMETER SPACE ZN,hourly; !- [J]
Output:Meter,InteriorLights:Electricity:Zone:STORY 10 EAST PERIMETER SPACE ZN,hourly; !- [J]
Output:Meter:Cumulative,InteriorLights:Electricity:Zone:STORY 10 EAST PERIMETER SPACE ZN,hourly; !- [J]
Output:Meter,Electricity:Zone:STORY 4 SOUTH PERIMETER SPACE ZN,hourly; !- [J]
Output:Meter:Cumulative,Electricity:Zone:STORY 4 SOUTH PERIMETER SPACE ZN,hourly; !- [J]
Output:Meter,InteriorLights:Electricity:Zone:STORY 4 SOUTH PERIMETER SPACE ZN,hourly; !- [J]
Output:Meter:Cumulative,InteriorLights:Electricity:Zone:STORY 4 SOUTH PERIMETER SPACE ZN,hourly; !- [J]
Output:Meter,Electricity:Zone:STORY 8 EAST PERIMETER SPACE ZN,hourly; !- [J]
Output:Meter:Cumulative,Electricity:Zone:STORY 8 EAST PERIMETER SPACE ZN,hourly; !- [J]
Output:Meter,InteriorLights:Electricity:Zone:STORY 8 EAST PERIMETER SPACE ZN,hourly; !- [J]
Output:Meter:Cumulative,InteriorLights:Electricity:Zone:STORY 8 EAST PERIMETER SPACE ZN,hourly; !- [J]
Output:Meter,Electricity:Zone:STORY 27 NORTH PERIMETER SPACE ZN,hourly; !- [J]
Output:Meter:Cumulative,Electricity:Zone:STORY 27 NORTH PERIMETER SPACE ZN,hourly; !- [J]
Output:Meter,InteriorLights:Electricity:Zone:STORY 27 NORTH PERIMETER SPACE ZN,hourly; !- [J]
Output:Meter:Cumulative,InteriorLights:Electricity:Zone:STORY 27 NORTH PERIMETER SPACE ZN,hourly; !- [J]
Output:Meter,Electricity:Zone:STORY 21 EAST PERIMETER SPACE ZN,hourly; !- [J]
Output:Meter:Cumulative,Electricity:Zone:STORY 21 EAST PERIMETER SPACE ZN,hourly; !- [J]
Output:Meter,InteriorLights:Electricity:Zone:STORY 21 EAST PERIMETER SPACE ZN,hourly; !- [J]
Output:Meter:Cumulative,InteriorLights:Electricity:Zone:STORY 21 EAST PERIMETER SPACE ZN,hourly; !- [J]
Output:Meter,Electricity:Zone:STORY 3 EAST PERIMETER SPACE ZN,hourly; !- [J]
Output:Meter:Cumulative,Electricity:Zone:STORY 3 EAST PERIMETER SPACE ZN,hourly; !- [J]
Output:Meter,InteriorLights:Electricity:Zone:STORY 3 EAST PERIMETER SPACE ZN,hourly; !- [J]
Output:Meter:Cumulative,InteriorLights:Electricity:Zone:STORY 3 EAST PERIMETER SPACE ZN,hourly; !- [J]
Output:Meter,Electricity:Zone:STORY 10 NORTH PERIMETER SPACE ZN,hourly; !- [J]
Output:Meter:Cumulative,Electricity:Zone:STORY 10 NORTH PERIMETER SPACE ZN,hourly; !- [J]
Output:Meter,InteriorLights:Electricity:Zone:STORY 10 NORTH PERIMETER SPACE ZN,hourly; !- [J]
Output:Meter:Cumulative,InteriorLights:Electricity:Zone:STORY 10 NORTH PERIMETER SPACE ZN,hourly; !- [J]
Output:Meter,Electricity:Zone:STORY 2 CORE SPACE ZN,hourly; !- [J]
Output:Meter:Cumulative,Electricity:Zone:STORY 2 CORE SPACE ZN,hourly; !- [J]
Output:Meter,InteriorLights:Electricity:Zone:STORY 2 CORE SPACE ZN,hourly; !- [J]
Output:Meter:Cumulative,InteriorLights:Electricity:Zone:STORY 2 CORE SPACE ZN,hourly; !- [J]
Output:Meter,Electricity:Zone:STORY 7 NORTH PERIMETER SPACE ZN,hourly; !- [J]
Output:Meter:Cumulative,Electricity:Zone:STORY 7 NORTH PERIMETER SPACE ZN,hourly; !- [J]
Output:Meter,InteriorLights:Electricity:Zone:STORY 7 NORTH PERIMETER SPACE ZN,hourly; !- [J]
Output:Meter:Cumulative,InteriorLights:Electricity:Zone:STORY 7 NORTH PERIMETER SPACE ZN,hourly; !- [J]
Output:Meter,Electricity:Zone:STORY 17 CORE SPACE ZN,hourly; !- [J]
Output:Meter:Cumulative,Electricity:Zone:STORY 17 CORE SPACE ZN,hourly; !- [J]
Output:Meter,InteriorLights:Electricity:Zone:STORY 17 CORE SPACE ZN,hourly; !- [J]
Output:Meter:Cumulative,InteriorLights:Electricity:Zone:STORY 17 CORE SPACE ZN,hourly; !- [J]
Output:Meter,Electricity:Zone:STORY 8 NORTH PERIMETER SPACE ZN,hourly; !- [J]
Output:Meter:Cumulative,Electricity:Zone:STORY 8 NORTH PERIMETER SPACE ZN,hourly; !- [J]
Output:Meter,InteriorLights:Electricity:Zone:STORY 8 NORTH PERIMETER SPACE ZN,hourly; !- [J]
Output:Meter:Cumulative,InteriorLights:Electricity:Zone:STORY 8 NORTH PERIMETER SPACE ZN,hourly; !- [J]
Output:Meter,Electricity:Zone:STORY 7 CORE SPACE ZN,hourly; !- [J]
Output:Meter:Cumulative,Electricity:Zone:STORY 7 CORE SPACE ZN,hourly; !- [J]
Output:Meter,InteriorLights:Electricity:Zone:STORY 7 CORE SPACE ZN,hourly; !- [J]
Output:Meter:Cumulative,InteriorLights:Electricity:Zone:STORY 7 CORE SPACE ZN,hourly; !- [J]
Output:Meter,Electricity:Zone:STORY 13 WEST PERIMETER SPACE ZN,hourly; !- [J]
Output:Meter:Cumulative,Electricity:Zone:STORY 13 WEST PERIMETER SPACE ZN,hourly; !- [J]
Output:Meter,InteriorLights:Electricity:Zone:STORY 13 WEST PERIMETER SPACE ZN,hourly; !- [J]
Output:Meter:Cumulative,InteriorLights:Electricity:Zone:STORY 13 WEST PERIMETER SPACE ZN,hourly; !- [J]
Output:Meter,Electricity:Zone:STORY 9 SOUTH PERIMETER SPACE ZN,hourly; !- [J]
Output:Meter:Cumulative,Electricity:Zone:STORY 9 SOUTH PERIMETER SPACE ZN,hourly; !- [J]
Output:Meter,InteriorLights:Electricity:Zone:STORY 9 SOUTH PERIMETER SPACE ZN,hourly; !- [J]
Output:Meter:Cumulative,InteriorLights:Electricity:Zone:STORY 9 SOUTH PERIMETER SPACE ZN,hourly; !- [J]
Output:Meter,Electricity:Zone:STORY 27 WEST PERIMETER SPACE ZN,hourly; !- [J]
Output:Meter:Cumulative,Electricity:Zone:STORY 27 WEST PERIMETER SPACE ZN,hourly; !- [J]
Output:Meter,InteriorLights:Electricity:Zone:STORY 27 WEST PERIMETER SPACE ZN,hourly; !- [J]
Output:Meter:Cumulative,InteriorLights:Electricity:Zone:STORY 27 WEST PERIMETER SPACE ZN,hourly; !- [J]
Output:Meter,Electricity:Zone:STORY 4 WEST PERIMETER SPACE ZN,hourly; !- [J]
Output:Meter:Cumulative,Electricity:Zone:STORY 4 WEST PERIMETER SPACE ZN,hourly; !- [J]
Output:Meter,InteriorLights:Electricity:Zone:STORY 4 WEST PERIMETER SPACE ZN,hourly; !- [J]
Output:Meter:Cumulative,InteriorLights:Electricity:Zone:STORY 4 WEST PERIMETER SPACE ZN,hourly; !- [J]
Output:Meter,Electricity:Zone:STORY 3 CORE SPACE ZN,hourly; !- [J]
Output:Meter:Cumulative,Electricity:Zone:STORY 3 CORE SPACE ZN,hourly; !- [J]
Output:Meter,InteriorLights:Electricity:Zone:STORY 3 CORE SPACE ZN,hourly; !- [J]
Output:Meter:Cumulative,InteriorLights:Electricity:Zone:STORY 3 CORE SPACE ZN,hourly; !- [J]
Output:Meter,Electricity:Zone:STORY 19 NORTH PERIMETER SPACE ZN,hourly; !- [J]
Output:Meter:Cumulative,Electricity:Zone:STORY 19 NORTH PERIMETER SPACE ZN,hourly; !- [J]
Output:Meter,InteriorLights:Electricity:Zone:STORY 19 NORTH PERIMETER SPACE ZN,hourly; !- [J]
Output:Meter:Cumulative,InteriorLights:Electricity:Zone:STORY 19 NORTH PERIMETER SPACE ZN,hourly; !- [J]
Output:Meter,Electricity:Zone:STORY 21 SOUTH PERIMETER SPACE ZN,hourly; !- [J]
Output:Meter:Cumulative,Electricity:Zone:STORY 21 SOUTH PERIMETER SPACE ZN,hourly; !- [J]
Output:Meter,InteriorLights:Electricity:Zone:STORY 21 SOUTH PERIMETER SPACE ZN,hourly; !- [J]
Output:Meter:Cumulative,InteriorLights:Electricity:Zone:STORY 21 SOUTH PERIMETER SPACE ZN,hourly; !- [J]
Output:Meter,Electricity:Zone:STORY 13 EAST PERIMETER SPACE ZN,hourly; !- [J]
Output:Meter:Cumulative,Electricity:Zone:STORY 13 EAST PERIMETER SPACE ZN,hourly; !- [J]
Output:Meter,InteriorLights:Electricity:Zone:STORY 13 EAST PERIMETER SPACE ZN,hourly; !- [J]
Output:Meter:Cumulative,InteriorLights:Electricity:Zone:STORY 13 EAST PERIMETER SPACE ZN,hourly; !- [J]
Output:Meter,Electricity:Zone:STORY 2 WEST PERIMETER SPACE ZN,hourly; !- [J]
Output:Meter:Cumulative,Electricity:Zone:STORY 2 WEST PERIMETER SPACE ZN,hourly; !- [J]
Output:Meter,InteriorLights:Electricity:Zone:STORY 2 WEST PERIMETER SPACE ZN,hourly; !- [J]
Output:Meter:Cumulative,InteriorLights:Electricity:Zone:STORY 2 WEST PERIMETER SPACE ZN,hourly; !- [J]
Output:Meter,Electricity:Zone:STORY 1 WEST PERIMETER SPACE ZN,hourly; !- [J]
Output:Meter:Cumulative,Electricity:Zone:STORY 1 WEST PERIMETER SPACE ZN,hourly; !- [J]
Output:Meter,InteriorLights:Electricity:Zone:STORY 1 WEST PERIMETER SPACE ZN,hourly; !- [J]
Output:Meter:Cumulative,InteriorLights:Electricity:Zone:STORY 1 WEST PERIMETER SPACE ZN,hourly; !- [J]
Output:Meter,Electricity:Zone:STORY 7 SOUTH PERIMETER SPACE ZN,hourly; !- [J]
Output:Meter:Cumulative,Electricity:Zone:STORY 7 SOUTH PERIMETER SPACE ZN,hourly; !- [J]
Output:Meter,InteriorLights:Electricity:Zone:STORY 7 SOUTH PERIMETER SPACE ZN,hourly; !- [J]
Output:Meter:Cumulative,InteriorLights:Electricity:Zone:STORY 7 SOUTH PERIMETER SPACE ZN,hourly; !- [J]
Output:Meter,Electricity:Zone:STORY 23 NORTH PERIMETER SPACE ZN,hourly; !- [J]
Output:Meter:Cumulative,Electricity:Zone:STORY 23 NORTH PERIMETER SPACE ZN,hourly; !- [J]
Output:Meter,InteriorLights:Electricity:Zone:STORY 23 NORTH PERIMETER SPACE ZN,hourly; !- [J]
Output:Meter:Cumulative,InteriorLights:Electricity:Zone:STORY 23 NORTH PERIMETER SPACE ZN,hourly; !- [J]
Output:Meter,Electricity:Zone:STORY 11 WEST PERIMETER SPACE ZN,hourly; !- [J]
Output:Meter:Cumulative,Electricity:Zone:STORY 11 WEST PERIMETER SPACE ZN,hourly; !- [J]
Output:Meter,InteriorLights:Electricity:Zone:STORY 11 WEST PERIMETER SPACE ZN,hourly; !- [J]
Output:Meter:Cumulative,InteriorLights:Electricity:Zone:STORY 11 WEST PERIMETER SPACE ZN,hourly; !- [J]
Output:Meter,Electricity:Zone:STORY 28 WEST PERIMETER SPACE ZN,hourly; !- [J]
Output:Meter:Cumulative,Electricity:Zone:STORY 28 WEST PERIMETER SPACE ZN,hourly; !- [J]
Output:Meter,InteriorLights:Electricity:Zone:STORY 28 WEST PERIMETER SPACE ZN,hourly; !- [J]
Output:Meter:Cumulative,InteriorLights:Electricity:Zone:STORY 28 WEST PERIMETER SPACE ZN,hourly; !- [J]
Output:Meter,Electricity:Zone:STORY 5 WEST PERIMETER SPACE ZN,hourly; !- [J]
Output:Meter:Cumulative,Electricity:Zone:STORY 5 WEST PERIMETER SPACE ZN,hourly; !- [J]
Output:Meter,InteriorLights:Electricity:Zone:STORY 5 WEST PERIMETER SPACE ZN,hourly; !- [J]
Output:Meter:Cumulative,InteriorLights:Electricity:Zone:STORY 5 WEST PERIMETER SPACE ZN,hourly; !- [J]
Output:Meter,Electricity:Zone:STORY 3 NORTH PERIMETER SPACE ZN,hourly; !- [J]
Output:Meter:Cumulative,Electricity:Zone:STORY 3 NORTH PERIMETER SPACE ZN,hourly; !- [J]
Output:Meter,InteriorLights:Electricity:Zone:STORY 3 NORTH PERIMETER SPACE ZN,hourly; !- [J]
Output:Meter:Cumulative,InteriorLights:Electricity:Zone:STORY 3 NORTH PERIMETER SPACE ZN,hourly; !- [J]
Output:Meter,Electricity:Zone:STORY 17 EAST PERIMETER SPACE ZN,hourly; !- [J]
Output:Meter:Cumulative,Electricity:Zone:STORY 17 EAST PERIMETER SPACE ZN,hourly; !- [J]
Output:Meter,InteriorLights:Electricity:Zone:STORY 17 EAST PERIMETER SPACE ZN,hourly; !- [J]
Output:Meter:Cumulative,InteriorLights:Electricity:Zone:STORY 17 EAST PERIMETER SPACE ZN,hourly; !- [J]
Output:Meter,Electricity:Zone:STORY 17 WEST PERIMETER SPACE ZN,hourly; !- [J]
Output:Meter:Cumulative,Electricity:Zone:STORY 17 WEST PERIMETER SPACE ZN,hourly; !- [J]
Output:Meter,InteriorLights:Electricity:Zone:STORY 17 WEST PERIMETER SPACE ZN,hourly; !- [J]
Output:Meter:Cumulative,InteriorLights:Electricity:Zone:STORY 17 WEST PERIMETER SPACE ZN,hourly; !- [J]
Output:Meter,Electricity:Zone:STORY 6 WEST PERIMETER SPACE ZN,hourly; !- [J]
Output:Meter:Cumulative,Electricity:Zone:STORY 6 WEST PERIMETER SPACE ZN,hourly; !- [J]
Output:Meter,InteriorLights:Electricity:Zone:STORY 6 WEST PERIMETER SPACE ZN,hourly; !- [J]
Output:Meter:Cumulative,InteriorLights:Electricity:Zone:STORY 6 WEST PERIMETER SPACE ZN,hourly; !- [J]
Output:Meter,Electricity:Zone:STORY 2 EAST PERIMETER SPACE ZN,hourly; !- [J]
Output:Meter:Cumulative,Electricity:Zone:STORY 2 EAST PERIMETER SPACE ZN,hourly; !- [J]
Output:Meter,InteriorLights:Electricity:Zone:STORY 2 EAST PERIMETER SPACE ZN,hourly; !- [J]
Output:Meter:Cumulative,InteriorLights:Electricity:Zone:STORY 2 EAST PERIMETER SPACE ZN,hourly; !- [J]
Output:Meter,Electricity:Zone:STORY 16 NORTH PERIMETER SPACE ZN,hourly; !- [J]
Output:Meter:Cumulative,Electricity:Zone:STORY 16 NORTH PERIMETER SPACE ZN,hourly; !- [J]
Output:Meter,InteriorLights:Electricity:Zone:STORY 16 NORTH PERIMETER SPACE ZN,hourly; !- [J]
Output:Meter:Cumulative,InteriorLights:Electricity:Zone:STORY 16 NORTH PERIMETER SPACE ZN,hourly; !- [J]
Output:Meter,Electricity:Zone:STORY 13 SOUTH PERIMETER SPACE ZN,hourly; !- [J]
Output:Meter:Cumulative,Electricity:Zone:STORY 13 SOUTH PERIMETER SPACE ZN,hourly; !- [J]
Output:Meter,InteriorLights:Electricity:Zone:STORY 13 SOUTH PERIMETER SPACE ZN,hourly; !- [J]
Output:Meter:Cumulative,InteriorLights:Electricity:Zone:STORY 13 SOUTH PERIMETER SPACE ZN,hourly; !- [J]
Output:Meter,Electricity:Zone:STORY 24 EAST PERIMETER SPACE ZN,hourly; !- [J]
Output:Meter:Cumulative,Electricity:Zone:STORY 24 EAST PERIMETER SPACE ZN,hourly; !- [J]
Output:Meter,InteriorLights:Electricity:Zone:STORY 24 EAST PERIMETER SPACE ZN,hourly; !- [J]
Output:Meter:Cumulative,InteriorLights:Electricity:Zone:STORY 24 EAST PERIMETER SPACE ZN,hourly; !- [J]
Output:Meter,Electricity:Zone:STORY 23 WEST PERIMETER SPACE ZN,hourly; !- [J]
Output:Meter:Cumulative,Electricity:Zone:STORY 23 WEST PERIMETER SPACE ZN,hourly; !- [J]
Output:Meter,InteriorLights:Electricity:Zone:STORY 23 WEST PERIMETER SPACE ZN,hourly; !- [J]
Output:Meter:Cumulative,InteriorLights:Electricity:Zone:STORY 23 WEST PERIMETER SPACE ZN,hourly; !- [J]
Output:Meter,Electricity:Zone:STORY 26 CORE SPACE ZN,hourly; !- [J]
Output:Meter:Cumulative,Electricity:Zone:STORY 26 CORE SPACE ZN,hourly; !- [J]
Output:Meter,InteriorLights:Electricity:Zone:STORY 26 CORE SPACE ZN,hourly; !- [J]
Output:Meter:Cumulative,InteriorLights:Electricity:Zone:STORY 26 CORE SPACE ZN,hourly; !- [J]
Output:Meter,Electricity:Zone:STORY 10 WEST PERIMETER SPACE ZN,hourly; !- [J]
Output:Meter:Cumulative,Electricity:Zone:STORY 10 WEST PERIMETER SPACE ZN,hourly; !- [J]
Output:Meter,InteriorLights:Electricity:Zone:STORY 10 WEST PERIMETER SPACE ZN,hourly; !- [J]
Output:Meter:Cumulative,InteriorLights:Electricity:Zone:STORY 10 WEST PERIMETER SPACE ZN,hourly; !- [J]
Output:Meter,Electricity:Zone:STORY 14 WEST PERIMETER SPACE ZN,hourly; !- [J]
Output:Meter:Cumulative,Electricity:Zone:STORY 14 WEST PERIMETER SPACE ZN,hourly; !- [J]
Output:Meter,InteriorLights:Electricity:Zone:STORY 14 WEST PERIMETER SPACE ZN,hourly; !- [J]
Output:Meter:Cumulative,InteriorLights:Electricity:Zone:STORY 14 WEST PERIMETER SPACE ZN,hourly; !- [J]
Output:Meter,Electricity:Zone:STORY 4 NORTH PERIMETER SPACE ZN,hourly; !- [J]
Output:Meter:Cumulative,Electricity:Zone:STORY 4 NORTH PERIMETER SPACE ZN,hourly; !- [J]
Output:Meter,InteriorLights:Electricity:Zone:STORY 4 NORTH PERIMETER SPACE ZN,hourly; !- [J]
Output:Meter:Cumulative,InteriorLights:Electricity:Zone:STORY 4 NORTH PERIMETER SPACE ZN,hourly; !- [J]
Output:Meter,Electricity:Zone:STORY 24 CORE SPACE ZN,hourly; !- [J]
Output:Meter:Cumulative,Electricity:Zone:STORY 24 CORE SPACE ZN,hourly; !- [J]
Output:Meter,InteriorLights:Electricity:Zone:STORY 24 CORE SPACE ZN,hourly; !- [J]
Output:Meter:Cumulative,InteriorLights:Electricity:Zone:STORY 24 CORE SPACE ZN,hourly; !- [J]
Output:Meter,Electricity:Zone:STORY 3 SOUTH PERIMETER SPACE ZN,hourly; !- [J]
Output:Meter:Cumulative,Electricity:Zone:STORY 3 SOUTH PERIMETER SPACE ZN,hourly; !- [J]
Output:Meter,InteriorLights:Electricity:Zone:STORY 3 SOUTH PERIMETER SPACE ZN,hourly; !- [J]
Output:Meter:Cumulative,InteriorLights:Electricity:Zone:STORY 3 SOUTH PERIMETER SPACE ZN,hourly; !- [J]
Output:Meter,Electricity:Zone:STORY 5 NORTH PERIMETER SPACE ZN,hourly; !- [J]
Output:Meter:Cumulative,Electricity:Zone:STORY 5 NORTH PERIMETER SPACE ZN,hourly; !- [J]
Output:Meter,InteriorLights:Electricity:Zone:STORY 5 NORTH PERIMETER SPACE ZN,hourly; !- [J]
Output:Meter:Cumulative,InteriorLights:Electricity:Zone:STORY 5 NORTH PERIMETER SPACE ZN,hourly; !- [J]
Output:Meter,Electricity:Zone:STORY 22 NORTH PERIMETER SPACE ZN,hourly; !- [J]
Output:Meter:Cumulative,Electricity:Zone:STORY 22 NORTH PERIMETER SPACE ZN,hourly; !- [J]
Output:Meter,InteriorLights:Electricity:Zone:STORY 22 NORTH PERIMETER SPACE ZN,hourly; !- [J]
Output:Meter:Cumulative,InteriorLights:Electricity:Zone:STORY 22 NORTH PERIMETER SPACE ZN,hourly; !- [J]
Output:Meter,Electricity:Zone:STORY 15 CORE SPACE ZN,hourly; !- [J]
Output:Meter:Cumulative,Electricity:Zone:STORY 15 CORE SPACE ZN,hourly; !- [J]
Output:Meter,InteriorLights:Electricity:Zone:STORY 15 CORE SPACE ZN,hourly; !- [J]
Output:Meter:Cumulative,InteriorLights:Electricity:Zone:STORY 15 CORE SPACE ZN,hourly; !- [J]
Output:Meter,Electricity:Zone:STORY 11 NORTH PERIMETER SPACE ZN,hourly; !- [J]
Output:Meter:Cumulative,Electricity:Zone:STORY 11 NORTH PERIMETER SPACE ZN,hourly; !- [J]
Output:Meter,InteriorLights:Electricity:Zone:STORY 11 NORTH PERIMETER SPACE ZN,hourly; !- [J]
Output:Meter:Cumulative,InteriorLights:Electricity:Zone:STORY 11 NORTH PERIMETER SPACE ZN,hourly; !- [J]
Output:Meter,Electricity:Zone:STORY 14 CORE SPACE ZN,hourly; !- [J]
Output:Meter:Cumulative,Electricity:Zone:STORY 14 CORE SPACE ZN,hourly; !- [J]
Output:Meter,InteriorLights:Electricity:Zone:STORY 14 CORE SPACE ZN,hourly; !- [J]
Output:Meter:Cumulative,InteriorLights:Electricity:Zone:STORY 14 CORE SPACE ZN,hourly; !- [J]
Output:Meter,InteriorEquipment:Electricity,hourly; !- [J]
Output:Meter:Cumulative,InteriorEquipment:Electricity,hourly; !- [J]
Output:Meter,InteriorEquipment:Electricity:Zone:STORY 28 SOUTH PERIMETER SPACE ZN,hourly; !- [J]
Output:Meter:Cumulative,InteriorEquipment:Electricity:Zone:STORY 28 SOUTH PERIMETER SPACE ZN,hourly; !- [J]
Output:Meter,General:InteriorEquipment:Electricity,hourly; !- [J]
Output:Meter:Cumulative,General:InteriorEquipment:Electricity,hourly; !- [J]
Output:Meter,InteriorEquipment:Electricity:Zone:STORY 26 WEST PERIMETER SPACE ZN,hourly; !- [J]
Output:Meter:Cumulative,InteriorEquipment:Electricity:Zone:STORY 26 WEST PERIMETER SPACE ZN,hourly; !- [J]
Output:Meter,InteriorEquipment:Electricity:Zone:STORY 9 EAST PERIMETER SPACE ZN,hourly; !- [J]
Output:Meter:Cumulative,InteriorEquipment:Electricity:Zone:STORY 9 EAST PERIMETER SPACE ZN,hourly; !- [J]
Output:Meter,InteriorEquipment:Electricity:Zone:STORY 10 CORE SPACE ZN,hourly; !- [J]
Output:Meter:Cumulative,InteriorEquipment:Electricity:Zone:STORY 10 CORE SPACE ZN,hourly; !- [J]
Output:Meter,InteriorEquipment:Electricity:Zone:STORY 11 SOUTH PERIMETER SPACE ZN,hourly; !- [J]
Output:Meter:Cumulative,InteriorEquipment:Electricity:Zone:STORY 11 SOUTH PERIMETER SPACE ZN,hourly; !- [J]
Output:Meter,InteriorEquipment:Electricity:Zone:STORY 11 CORE SPACE ZN,hourly; !- [J]
Output:Meter:Cumulative,InteriorEquipment:Electricity:Zone:STORY 11 CORE SPACE ZN,hourly; !- [J]
Output:Meter,InteriorEquipment:Electricity:Zone:STORY 8 WEST PERIMETER SPACE ZN,hourly; !- [J]
Output:Meter:Cumulative,InteriorEquipment:Electricity:Zone:STORY 8 WEST PERIMETER SPACE ZN,hourly; !- [J]
Output:Meter,InteriorEquipment:Electricity:Zone:STORY 12 NORTH PERIMETER SPACE ZN,hourly; !- [J]
Output:Meter:Cumulative,InteriorEquipment:Electricity:Zone:STORY 12 NORTH PERIMETER SPACE ZN,hourly; !- [J]
Output:Meter,InteriorEquipment:Electricity:Zone:STORY 12 SOUTH PERIMETER SPACE ZN,hourly; !- [J]
Output:Meter:Cumulative,InteriorEquipment:Electricity:Zone:STORY 12 SOUTH PERIMETER SPACE ZN,hourly; !- [J]
Output:Meter,InteriorEquipment:Electricity:Zone:STORY 12 CORE SPACE ZN,hourly; !- [J]
Output:Meter:Cumulative,InteriorEquipment:Electricity:Zone:STORY 12 CORE SPACE ZN,hourly; !- [J]
Output:Meter,InteriorEquipment:Electricity:Zone:STORY 13 CORE SPACE ZN,hourly; !- [J]
Output:Meter:Cumulative,InteriorEquipment:Electricity:Zone:STORY 13 CORE SPACE ZN,hourly; !- [J]
Output:Meter,InteriorEquipment:Electricity:Zone:STORY 25 CORE SPACE ZN,hourly; !- [J]
Output:Meter:Cumulative,InteriorEquipment:Electricity:Zone:STORY 25 CORE SPACE ZN,hourly; !- [J]
Output:Meter,InteriorEquipment:Electricity:Zone:STORY 15 SOUTH PERIMETER SPACE ZN,hourly; !- [J]
Output:Meter:Cumulative,InteriorEquipment:Electricity:Zone:STORY 15 SOUTH PERIMETER SPACE ZN,hourly; !- [J]
Output:Meter,InteriorEquipment:Electricity:Zone:STORY 13 NORTH PERIMETER SPACE ZN,hourly; !- [J]
Output:Meter:Cumulative,InteriorEquipment:Electricity:Zone:STORY 13 NORTH PERIMETER SPACE ZN,hourly; !- [J]
Output:Meter,InteriorEquipment:Electricity:Zone:STORY 14 NORTH PERIMETER SPACE ZN,hourly; !- [J]
Output:Meter:Cumulative,InteriorEquipment:Electricity:Zone:STORY 14 NORTH PERIMETER SPACE ZN,hourly; !- [J]
Output:Meter,InteriorEquipment:Electricity:Zone:STORY 26 SOUTH PERIMETER SPACE ZN,hourly; !- [J]
Output:Meter:Cumulative,InteriorEquipment:Electricity:Zone:STORY 26 SOUTH PERIMETER SPACE ZN,hourly; !- [J]
Output:Meter,InteriorEquipment:Electricity:Zone:STORY 11 EAST PERIMETER SPACE ZN,hourly; !- [J]
Output:Meter:Cumulative,InteriorEquipment:Electricity:Zone:STORY 11 EAST PERIMETER SPACE ZN,hourly; !- [J]
Output:Meter,InteriorEquipment:Electricity:Zone:STORY 16 EAST PERIMETER SPACE ZN,hourly; !- [J]
Output:Meter:Cumulative,InteriorEquipment:Electricity:Zone:STORY 16 EAST PERIMETER SPACE ZN,hourly; !- [J]
Output:Meter,InteriorEquipment:Electricity:Zone:STORY 22 EAST PERIMETER SPACE ZN,hourly; !- [J]
Output:Meter:Cumulative,InteriorEquipment:Electricity:Zone:STORY 22 EAST PERIMETER SPACE ZN,hourly; !- [J]
Output:Meter,InteriorEquipment:Electricity:Zone:STORY 14 SOUTH PERIMETER SPACE ZN,hourly; !- [J]
Output:Meter:Cumulative,InteriorEquipment:Electricity:Zone:STORY 14 SOUTH PERIMETER SPACE ZN,hourly; !- [J]
Output:Meter,InteriorEquipment:Electricity:Zone:STORY 15 WEST PERIMETER SPACE ZN,hourly; !- [J]
Output:Meter:Cumulative,InteriorEquipment:Electricity:Zone:STORY 15 WEST PERIMETER SPACE ZN,hourly; !- [J]
Output:Meter,InteriorEquipment:Electricity:Zone:STORY 25 SOUTH PERIMETER SPACE ZN,hourly; !- [J]
Output:Meter:Cumulative,InteriorEquipment:Electricity:Zone:STORY 25 SOUTH PERIMETER SPACE ZN,hourly; !- [J]
Output:Meter,InteriorEquipment:Electricity:Zone:STORY 6 CORE SPACE ZN,hourly; !- [J]
Output:Meter:Cumulative,InteriorEquipment:Electricity:Zone:STORY 6 CORE SPACE ZN,hourly; !- [J]
Output:Meter,InteriorEquipment:Electricity:Zone:STORY 18 NORTH PERIMETER SPACE ZN,hourly; !- [J]
Output:Meter:Cumulative,InteriorEquipment:Electricity:Zone:STORY 18 NORTH PERIMETER SPACE ZN,hourly; !- [J]
Output:Meter,InteriorEquipment:Electricity:Zone:STORY 25 EAST PERIMETER SPACE ZN,hourly; !- [J]
Output:Meter:Cumulative,InteriorEquipment:Electricity:Zone:STORY 25 EAST PERIMETER SPACE ZN,hourly; !- [J]
Output:Meter,InteriorEquipment:Electricity:Zone:STORY 15 EAST PERIMETER SPACE ZN,hourly; !- [J]
Output:Meter:Cumulative,InteriorEquipment:Electricity:Zone:STORY 15 EAST PERIMETER SPACE ZN,hourly; !- [J]
Output:Meter,InteriorEquipment:Electricity:Zone:STORY 16 CORE SPACE ZN,hourly; !- [J]
Output:Meter:Cumulative,InteriorEquipment:Electricity:Zone:STORY 16 CORE SPACE ZN,hourly; !- [J]
Output:Meter,InteriorEquipment:Electricity:Zone:STORY 16 WEST PERIMETER SPACE ZN,hourly; !- [J]
Output:Meter:Cumulative,InteriorEquipment:Electricity:Zone:STORY 16 WEST PERIMETER SPACE ZN,hourly; !- [J]
Output:Meter,InteriorEquipment:Electricity:Zone:STORY 17 SOUTH PERIMETER SPACE ZN,hourly; !- [J]
Output:Meter:Cumulative,InteriorEquipment:Electricity:Zone:STORY 17 SOUTH PERIMETER SPACE ZN,hourly; !- [J]
Output:Meter,InteriorEquipment:Electricity:Zone:STORY 16 SOUTH PERIMETER SPACE ZN,hourly; !- [J]
Output:Meter:Cumulative,InteriorEquipment:Electricity:Zone:STORY 16 SOUTH PERIMETER SPACE ZN,hourly; !- [J]
Output:Meter,InteriorEquipment:Electricity:Zone:STORY 17 NORTH PERIMETER SPACE ZN,hourly; !- [J]
Output:Meter:Cumulative,InteriorEquipment:Electricity:Zone:STORY 17 NORTH PERIMETER SPACE ZN,hourly; !- [J]
Output:Meter,InteriorEquipment:Electricity:Zone:STORY 24 SOUTH PERIMETER SPACE ZN,hourly; !- [J]
Output:Meter:Cumulative,InteriorEquipment:Electricity:Zone:STORY 24 SOUTH PERIMETER SPACE ZN,hourly; !- [J]
Output:Meter,InteriorEquipment:Electricity:Zone:STORY 10 SOUTH PERIMETER SPACE ZN,hourly; !- [J]
Output:Meter:Cumulative,InteriorEquipment:Electricity:Zone:STORY 10 SOUTH PERIMETER SPACE ZN,hourly; !- [J]
Output:Meter,InteriorEquipment:Electricity:Zone:STORY 18 EAST PERIMETER SPACE ZN,hourly; !- [J]
Output:Meter:Cumulative,InteriorEquipment:Electricity:Zone:STORY 18 EAST PERIMETER SPACE ZN,hourly; !- [J]
Output:Meter,InteriorEquipment:Electricity:Zone:STORY 1 SOUTH PERIMETER SPACE ZN,hourly; !- [J]
Output:Meter:Cumulative,InteriorEquipment:Electricity:Zone:STORY 1 SOUTH PERIMETER SPACE ZN,hourly; !- [J]
Output:Meter,InteriorEquipment:Electricity:Zone:STORY 18 CORE SPACE ZN,hourly; !- [J]
Output:Meter:Cumulative,InteriorEquipment:Electricity:Zone:STORY 18 CORE SPACE ZN,hourly; !- [J]
Output:Meter,InteriorEquipment:Electricity:Zone:STORY 7 EAST PERIMETER SPACE ZN,hourly; !- [J]
Output:Meter:Cumulative,InteriorEquipment:Electricity:Zone:STORY 7 EAST PERIMETER SPACE ZN,hourly; !- [J]
Output:Meter,InteriorEquipment:Electricity:Zone:STORY 19 WEST PERIMETER SPACE ZN,hourly; !- [J]
Output:Meter:Cumulative,InteriorEquipment:Electricity:Zone:STORY 19 WEST PERIMETER SPACE ZN,hourly; !- [J]
Output:Meter,InteriorEquipment:Electricity:Zone:STORY 19 EAST PERIMETER SPACE ZN,hourly; !- [J]
Output:Meter:Cumulative,InteriorEquipment:Electricity:Zone:STORY 19 EAST PERIMETER SPACE ZN,hourly; !- [J]
Output:Meter,InteriorEquipment:Electricity:Zone:STORY 19 SOUTH PERIMETER SPACE ZN,hourly; !- [J]
Output:Meter:Cumulative,InteriorEquipment:Electricity:Zone:STORY 19 SOUTH PERIMETER SPACE ZN,hourly; !- [J]
Output:Meter,InteriorEquipment:Electricity:Zone:STORY 1 CORE SPACE ZN,hourly; !- [J]
Output:Meter:Cumulative,InteriorEquipment:Electricity:Zone:STORY 1 CORE SPACE ZN,hourly; !- [J]
Output:Meter,InteriorEquipment:Electricity:Zone:STORY 24 NORTH PERIMETER SPACE ZN,hourly; !- [J]
Output:Meter:Cumulative,InteriorEquipment:Electricity:Zone:STORY 24 NORTH PERIMETER SPACE ZN,hourly; !- [J]
Output:Meter,InteriorEquipment:Electricity:Zone:STORY 19 CORE SPACE ZN,hourly; !- [J]
Output:Meter:Cumulative,InteriorEquipment:Electricity:Zone:STORY 19 CORE SPACE ZN,hourly; !- [J]
Output:Meter,InteriorEquipment:Electricity:Zone:STORY 24 WEST PERIMETER SPACE ZN,hourly; !- [J]
Output:Meter:Cumulative,InteriorEquipment:Electricity:Zone:STORY 24 WEST PERIMETER SPACE ZN,hourly; !- [J]
Output:Meter,InteriorEquipment:Electricity:Zone:STORY 23 CORE SPACE ZN,hourly; !- [J]
Output:Meter:Cumulative,InteriorEquipment:Electricity:Zone:STORY 23 CORE SPACE ZN,hourly; !- [J]
Output:Meter,InteriorEquipment:Electricity:Zone:STORY 23 SOUTH PERIMETER SPACE ZN,hourly; !- [J]
Output:Meter:Cumulative,InteriorEquipment:Electricity:Zone:STORY 23 SOUTH PERIMETER SPACE ZN,hourly; !- [J]
Output:Meter,InteriorEquipment:Electricity:Zone:STORY 28 CORE SPACE ZN,hourly; !- [J]
Output:Meter:Cumulative,InteriorEquipment:Electricity:Zone:STORY 28 CORE SPACE ZN,hourly; !- [J]
Output:Meter,InteriorEquipment:Electricity:Zone:STORY 23 EAST PERIMETER SPACE ZN,hourly; !- [J]
Output:Meter:Cumulative,InteriorEquipment:Electricity:Zone:STORY 23 EAST PERIMETER SPACE ZN,hourly; !- [J]
Output:Meter,InteriorEquipment:Electricity:Zone:STORY 28 EAST PERIMETER SPACE ZN,hourly; !- [J]
Output:Meter:Cumulative,InteriorEquipment:Electricity:Zone:STORY 28 EAST PERIMETER SPACE ZN,hourly; !- [J]
Output:Meter,InteriorEquipment:Electricity:Zone:STORY 22 SOUTH PERIMETER SPACE ZN,hourly; !- [J]
Output:Meter:Cumulative,InteriorEquipment:Electricity:Zone:STORY 22 SOUTH PERIMETER SPACE ZN,hourly; !- [J]
Output:Meter,InteriorEquipment:Electricity:Zone:STORY 21 CORE SPACE ZN,hourly; !- [J]
Output:Meter:Cumulative,InteriorEquipment:Electricity:Zone:STORY 21 CORE SPACE ZN,hourly; !- [J]
Output:Meter,InteriorEquipment:Electricity:Zone:STORY 21 NORTH PERIMETER SPACE ZN,hourly; !- [J]
Output:Meter:Cumulative,InteriorEquipment:Electricity:Zone:STORY 21 NORTH PERIMETER SPACE ZN,hourly; !- [J]
Output:Meter,InteriorEquipment:Electricity:Zone:STORY 21 WEST PERIMETER SPACE ZN,hourly; !- [J]
Output:Meter:Cumulative,InteriorEquipment:Electricity:Zone:STORY 21 WEST PERIMETER SPACE ZN,hourly; !- [J]
Output:Meter,InteriorEquipment:Electricity:Zone:STORY 20 CORE SPACE ZN,hourly; !- [J]
Output:Meter:Cumulative,InteriorEquipment:Electricity:Zone:STORY 20 CORE SPACE ZN,hourly; !- [J]
Output:Meter,InteriorEquipment:Electricity:Zone:STORY 20 SOUTH PERIMETER SPACE ZN,hourly; !- [J]
Output:Meter:Cumulative,InteriorEquipment:Electricity:Zone:STORY 20 SOUTH PERIMETER SPACE ZN,hourly; !- [J]
Output:Meter,InteriorEquipment:Electricity:Zone:STORY 20 EAST PERIMETER SPACE ZN,hourly; !- [J]
Output:Meter:Cumulative,InteriorEquipment:Electricity:Zone:STORY 20 EAST PERIMETER SPACE ZN,hourly; !- [J]
Output:Meter,InteriorEquipment:Electricity:Zone:STORY 20 NORTH PERIMETER SPACE ZN,hourly; !- [J]
Output:Meter:Cumulative,InteriorEquipment:Electricity:Zone:STORY 20 NORTH PERIMETER SPACE ZN,hourly; !- [J]
Output:Meter,InteriorEquipment:Electricity:Zone:STORY 28 NORTH PERIMETER SPACE ZN,hourly; !- [J]
Output:Meter:Cumulative,InteriorEquipment:Electricity:Zone:STORY 28 NORTH PERIMETER SPACE ZN,hourly; !- [J]
Output:Meter,Electricity:Zone:STORY 20 WEST PERIMETER SPACE ZN,hourly; !- [J]
Output:Meter:Cumulative,Electricity:Zone:STORY 20 WEST PERIMETER SPACE ZN,hourly; !- [J]
Output:Meter,InteriorEquipment:Electricity:Zone:STORY 20 WEST PERIMETER SPACE ZN,hourly; !- [J]
Output:Meter:Cumulative,InteriorEquipment:Electricity:Zone:STORY 20 WEST PERIMETER SPACE ZN,hourly; !- [J]
Output:Meter,Electricity:Zone:STORY 7 WEST PERIMETER SPACE ZN,hourly; !- [J]
Output:Meter:Cumulative,Electricity:Zone:STORY 7 WEST PERIMETER SPACE ZN,hourly; !- [J]
Output:Meter,InteriorEquipment:Electricity:Zone:STORY 7 WEST PERIMETER SPACE ZN,hourly; !- [J]
Output:Meter:Cumulative,InteriorEquipment:Electricity:Zone:STORY 7 WEST PERIMETER SPACE ZN,hourly; !- [J]
Output:Meter,InteriorEquipment:Electricity:Zone:STORY 9 WEST PERIMETER SPACE ZN,hourly; !- [J]
Output:Meter:Cumulative,InteriorEquipment:Electricity:Zone:STORY 9 WEST PERIMETER SPACE ZN,hourly; !- [J]
Output:Meter,InteriorEquipment:Electricity:Zone:STORY 26 NORTH PERIMETER SPACE ZN,hourly; !- [J]
Output:Meter:Cumulative,InteriorEquipment:Electricity:Zone:STORY 26 NORTH PERIMETER SPACE ZN,hourly; !- [J]
Output:Meter,InteriorEquipment:Electricity:Zone:STORY 3 WEST PERIMETER SPACE ZN,hourly; !- [J]
Output:Meter:Cumulative,InteriorEquipment:Electricity:Zone:STORY 3 WEST PERIMETER SPACE ZN,hourly; !- [J]
Output:Meter,InteriorEquipment:Electricity:Zone:STORY 22 CORE SPACE ZN,hourly; !- [J]
Output:Meter:Cumulative,InteriorEquipment:Electricity:Zone:STORY 22 CORE SPACE ZN,hourly; !- [J]
Output:Meter,InteriorEquipment:Electricity:Zone:STORY 18 WEST PERIMETER SPACE ZN,hourly; !- [J]
Output:Meter:Cumulative,InteriorEquipment:Electricity:Zone:STORY 18 WEST PERIMETER SPACE ZN,hourly; !- [J]
Output:Meter,InteriorEquipment:Electricity:Zone:STORY 26 EAST PERIMETER SPACE ZN,hourly; !- [J]
Output:Meter:Cumulative,InteriorEquipment:Electricity:Zone:STORY 26 EAST PERIMETER SPACE ZN,hourly; !- [J]
Output:Meter,InteriorEquipment:Electricity:Zone:STORY 9 NORTH PERIMETER SPACE ZN,hourly; !- [J]
Output:Meter:Cumulative,InteriorEquipment:Electricity:Zone:STORY 9 NORTH PERIMETER SPACE ZN,hourly; !- [J]
Output:Meter,InteriorEquipment:Electricity:Zone:STORY 5 SOUTH PERIMETER SPACE ZN,hourly; !- [J]
Output:Meter:Cumulative,InteriorEquipment:Electricity:Zone:STORY 5 SOUTH PERIMETER SPACE ZN,hourly; !- [J]
Output:Meter,InteriorEquipment:Electricity:Zone:STORY 27 SOUTH PERIMETER SPACE ZN,hourly; !- [J]
Output:Meter:Cumulative,InteriorEquipment:Electricity:Zone:STORY 27 SOUTH PERIMETER SPACE ZN,hourly; !- [J]
Output:Meter,InteriorEquipment:Electricity:Zone:STORY 6 EAST PERIMETER SPACE ZN,hourly; !- [J]
Output:Meter:Cumulative,InteriorEquipment:Electricity:Zone:STORY 6 EAST PERIMETER SPACE ZN,hourly; !- [J]
Output:Meter,InteriorEquipment:Electricity:Zone:STORY 2 NORTH PERIMETER SPACE ZN,hourly; !- [J]
Output:Meter:Cumulative,InteriorEquipment:Electricity:Zone:STORY 2 NORTH PERIMETER SPACE ZN,hourly; !- [J]
Output:Meter,InteriorEquipment:Electricity:Zone:STORY 18 SOUTH PERIMETER SPACE ZN,hourly; !- [J]
Output:Meter:Cumulative,InteriorEquipment:Electricity:Zone:STORY 18 SOUTH PERIMETER SPACE ZN,hourly; !- [J]
Output:Meter,InteriorEquipment:Electricity:Zone:STORY 25 NORTH PERIMETER SPACE ZN,hourly; !- [J]
Output:Meter:Cumulative,InteriorEquipment:Electricity:Zone:STORY 25 NORTH PERIMETER SPACE ZN,hourly; !- [J]
Output:Meter,InteriorEquipment:Electricity:Zone:STORY 25 WEST PERIMETER SPACE ZN,hourly; !- [J]
Output:Meter:Cumulative,InteriorEquipment:Electricity:Zone:STORY 25 WEST PERIMETER SPACE ZN,hourly; !- [J]
Output:Meter,InteriorEquipment:Electricity:Zone:STORY 5 CORE SPACE ZN,hourly; !- [J]
Output:Meter:Cumulative,InteriorEquipment:Electricity:Zone:STORY 5 CORE SPACE ZN,hourly; !- [J]
Output:Meter,InteriorEquipment:Electricity:Zone:STORY 6 NORTH PERIMETER SPACE ZN,hourly; !- [J]
Output:Meter:Cumulative,InteriorEquipment:Electricity:Zone:STORY 6 NORTH PERIMETER SPACE ZN,hourly; !- [J]
Output:Meter,InteriorEquipment:Electricity:Zone:STORY 1 EAST PERIMETER SPACE ZN,hourly; !- [J]
Output:Meter:Cumulative,InteriorEquipment:Electricity:Zone:STORY 1 EAST PERIMETER SPACE ZN,hourly; !- [J]
Output:Meter,InteriorEquipment:Electricity:Zone:STORY 15 NORTH PERIMETER SPACE ZN,hourly; !- [J]
Output:Meter:Cumulative,InteriorEquipment:Electricity:Zone:STORY 15 NORTH PERIMETER SPACE ZN,hourly; !- [J]
Output:Meter,InteriorEquipment:Electricity:Zone:STORY 8 CORE SPACE ZN,hourly; !- [J]
Output:Meter:Cumulative,InteriorEquipment:Electricity:Zone:STORY 8 CORE SPACE ZN,hourly; !- [J]
Output:Meter,InteriorEquipment:Electricity:Zone:STORY 27 EAST PERIMETER SPACE ZN,hourly; !- [J]
Output:Meter:Cumulative,InteriorEquipment:Electricity:Zone:STORY 27 EAST PERIMETER SPACE ZN,hourly; !- [J]
Output:Meter,InteriorEquipment:Electricity:Zone:STORY 4 CORE SPACE ZN,hourly; !- [J]
Output:Meter:Cumulative,InteriorEquipment:Electricity:Zone:STORY 4 CORE SPACE ZN,hourly; !- [J]
Output:Meter,InteriorEquipment:Electricity:Zone:STORY 5 EAST PERIMETER SPACE ZN,hourly; !- [J]
Output:Meter:Cumulative,InteriorEquipment:Electricity:Zone:STORY 5 EAST PERIMETER SPACE ZN,hourly; !- [J]
Output:Meter,InteriorEquipment:Electricity:Zone:STORY 12 WEST PERIMETER SPACE ZN,hourly; !- [J]
Output:Meter:Cumulative,InteriorEquipment:Electricity:Zone:STORY 12 WEST PERIMETER SPACE ZN,hourly; !- [J]
Output:Meter,InteriorEquipment:Electricity:Zone:STORY 9 CORE SPACE ZN,hourly; !- [J]
Output:Meter:Cumulative,InteriorEquipment:Electricity:Zone:STORY 9 CORE SPACE ZN,hourly; !- [J]
Output:Meter,InteriorEquipment:Electricity:Zone:STORY 4 EAST PERIMETER SPACE ZN,hourly; !- [J]
Output:Meter:Cumulative,InteriorEquipment:Electricity:Zone:STORY 4 EAST PERIMETER SPACE ZN,hourly; !- [J]
Output:Meter,InteriorEquipment:Electricity:Zone:STORY 6 SOUTH PERIMETER SPACE ZN,hourly; !- [J]
Output:Meter:Cumulative,InteriorEquipment:Electricity:Zone:STORY 6 SOUTH PERIMETER SPACE ZN,hourly; !- [J]
Output:Meter,InteriorEquipment:Electricity:Zone:STORY 10 EAST PERIMETER SPACE ZN,hourly; !- [J]
Output:Meter:Cumulative,InteriorEquipment:Electricity:Zone:STORY 10 EAST PERIMETER SPACE ZN,hourly; !- [J]
Output:Meter,InteriorEquipment:Electricity:Zone:STORY 4 SOUTH PERIMETER SPACE ZN,hourly; !- [J]
Output:Meter:Cumulative,InteriorEquipment:Electricity:Zone:STORY 4 SOUTH PERIMETER SPACE ZN,hourly; !- [J]
Output:Meter,InteriorEquipment:Electricity:Zone:STORY 8 EAST PERIMETER SPACE ZN,hourly; !- [J]
Output:Meter:Cumulative,InteriorEquipment:Electricity:Zone:STORY 8 EAST PERIMETER SPACE ZN,hourly; !- [J]
Output:Meter,InteriorEquipment:Electricity:Zone:STORY 27 NORTH PERIMETER SPACE ZN,hourly; !- [J]
Output:Meter:Cumulative,InteriorEquipment:Electricity:Zone:STORY 27 NORTH PERIMETER SPACE ZN,hourly; !- [J]
Output:Meter,InteriorEquipment:Electricity:Zone:STORY 21 EAST PERIMETER SPACE ZN,hourly; !- [J]
Output:Meter:Cumulative,InteriorEquipment:Electricity:Zone:STORY 21 EAST PERIMETER SPACE ZN,hourly; !- [J]
Output:Meter,InteriorEquipment:Electricity:Zone:STORY 3 EAST PERIMETER SPACE ZN,hourly; !- [J]
Output:Meter:Cumulative,InteriorEquipment:Electricity:Zone:STORY 3 EAST PERIMETER SPACE ZN,hourly; !- [J]
Output:Meter,InteriorEquipment:Electricity:Zone:STORY 10 NORTH PERIMETER SPACE ZN,hourly; !- [J]
Output:Meter:Cumulative,InteriorEquipment:Electricity:Zone:STORY 10 NORTH PERIMETER SPACE ZN,hourly; !- [J]
Output:Meter,InteriorEquipment:Electricity:Zone:STORY 2 CORE SPACE ZN,hourly; !- [J]
Output:Meter:Cumulative,InteriorEquipment:Electricity:Zone:STORY 2 CORE SPACE ZN,hourly; !- [J]
Output:Meter,InteriorEquipment:Electricity:Zone:STORY 7 NORTH PERIMETER SPACE ZN,hourly; !- [J]
Output:Meter:Cumulative,InteriorEquipment:Electricity:Zone:STORY 7 NORTH PERIMETER SPACE ZN,hourly; !- [J]
Output:Meter,InteriorEquipment:Electricity:Zone:STORY 17 CORE SPACE ZN,hourly; !- [J]
Output:Meter:Cumulative,InteriorEquipment:Electricity:Zone:STORY 17 CORE SPACE ZN,hourly; !- [J]
Output:Meter,InteriorEquipment:Electricity:Zone:STORY 8 NORTH PERIMETER SPACE ZN,hourly; !- [J]
Output:Meter:Cumulative,InteriorEquipment:Electricity:Zone:STORY 8 NORTH PERIMETER SPACE ZN,hourly; !- [J]
Output:Meter,InteriorEquipment:Electricity:Zone:STORY 7 CORE SPACE ZN,hourly; !- [J]
Output:Meter:Cumulative,InteriorEquipment:Electricity:Zone:STORY 7 CORE SPACE ZN,hourly; !- [J]
Output:Meter,InteriorEquipment:Electricity:Zone:STORY 13 WEST PERIMETER SPACE ZN,hourly; !- [J]
Output:Meter:Cumulative,InteriorEquipment:Electricity:Zone:STORY 13 WEST PERIMETER SPACE ZN,hourly; !- [J]
Output:Meter,InteriorEquipment:Electricity:Zone:STORY 9 SOUTH PERIMETER SPACE ZN,hourly; !- [J]
Output:Meter:Cumulative,InteriorEquipment:Electricity:Zone:STORY 9 SOUTH PERIMETER SPACE ZN,hourly; !- [J]
Output:Meter,InteriorEquipment:Electricity:Zone:STORY 27 WEST PERIMETER SPACE ZN,hourly; !- [J]
Output:Meter:Cumulative,InteriorEquipment:Electricity:Zone:STORY 27 WEST PERIMETER SPACE ZN,hourly; !- [J]
Output:Meter,InteriorEquipment:Electricity:Zone:STORY 4 WEST PERIMETER SPACE ZN,hourly; !- [J]
Output:Meter:Cumulative,InteriorEquipment:Electricity:Zone:STORY 4 WEST PERIMETER SPACE ZN,hourly; !- [J]
Output:Meter,InteriorEquipment:Electricity:Zone:STORY 3 CORE SPACE ZN,hourly; !- [J]
Output:Meter:Cumulative,InteriorEquipment:Electricity:Zone:STORY 3 CORE SPACE ZN,hourly; !- [J]
Output:Meter,InteriorEquipment:Electricity:Zone:STORY 19 NORTH PERIMETER SPACE ZN,hourly; !- [J]
Output:Meter:Cumulative,InteriorEquipment:Electricity:Zone:STORY 19 NORTH PERIMETER SPACE ZN,hourly; !- [J]
Output:Meter,InteriorEquipment:Electricity:Zone:STORY 21 SOUTH PERIMETER SPACE ZN,hourly; !- [J]
Output:Meter:Cumulative,InteriorEquipment:Electricity:Zone:STORY 21 SOUTH PERIMETER SPACE ZN,hourly; !- [J]
Output:Meter,InteriorEquipment:Electricity:Zone:STORY 13 EAST PERIMETER SPACE ZN,hourly; !- [J]
Output:Meter:Cumulative,InteriorEquipment:Electricity:Zone:STORY 13 EAST PERIMETER SPACE ZN,hourly; !- [J]
Output:Meter,InteriorEquipment:Electricity:Zone:STORY 2 WEST PERIMETER SPACE ZN,hourly; !- [J]
Output:Meter:Cumulative,InteriorEquipment:Electricity:Zone:STORY 2 WEST PERIMETER SPACE ZN,hourly; !- [J]
Output:Meter,InteriorEquipment:Electricity:Zone:STORY 1 WEST PERIMETER SPACE ZN,hourly; !- [J]
Output:Meter:Cumulative,InteriorEquipment:Electricity:Zone:STORY 1 WEST PERIMETER SPACE ZN,hourly; !- [J]
Output:Meter,InteriorEquipment:Electricity:Zone:STORY 7 SOUTH PERIMETER SPACE ZN,hourly; !- [J]
Output:Meter:Cumulative,InteriorEquipment:Electricity:Zone:STORY 7 SOUTH PERIMETER SPACE ZN,hourly; !- [J]
Output:Meter,InteriorEquipment:Electricity:Zone:STORY 23 NORTH PERIMETER SPACE ZN,hourly; !- [J]
Output:Meter:Cumulative,InteriorEquipment:Electricity:Zone:STORY 23 NORTH PERIMETER SPACE ZN,hourly; !- [J]
Output:Meter,InteriorEquipment:Electricity:Zone:STORY 11 WEST PERIMETER SPACE ZN,hourly; !- [J]
Output:Meter:Cumulative,InteriorEquipment:Electricity:Zone:STORY 11 WEST PERIMETER SPACE ZN,hourly; !- [J]
Output:Meter,InteriorEquipment:Electricity:Zone:STORY 28 WEST PERIMETER SPACE ZN,hourly; !- [J]
Output:Meter:Cumulative,InteriorEquipment:Electricity:Zone:STORY 28 WEST PERIMETER SPACE ZN,hourly; !- [J]
Output:Meter,InteriorEquipment:Electricity:Zone:STORY 3 NORTH PERIMETER SPACE ZN,hourly; !- [J]
Output:Meter:Cumulative,InteriorEquipment:Electricity:Zone:STORY 3 NORTH PERIMETER SPACE ZN,hourly; !- [J]
Output:Meter,InteriorEquipment:Electricity:Zone:STORY 17 EAST PERIMETER SPACE ZN,hourly; !- [J]
Output:Meter:Cumulative,InteriorEquipment:Electricity:Zone:STORY 17 EAST PERIMETER SPACE ZN,hourly; !- [J]
Output:Meter,InteriorEquipment:Electricity:Zone:STORY 17 WEST PERIMETER SPACE ZN,hourly; !- [J]
Output:Meter:Cumulative,InteriorEquipment:Electricity:Zone:STORY 17 WEST PERIMETER SPACE ZN,hourly; !- [J]
Output:Meter,InteriorEquipment:Electricity:Zone:STORY 6 WEST PERIMETER SPACE ZN,hourly; !- [J]
Output:Meter:Cumulative,InteriorEquipment:Electricity:Zone:STORY 6 WEST PERIMETER SPACE ZN,hourly; !- [J]
Output:Meter,InteriorEquipment:Electricity:Zone:STORY 2 EAST PERIMETER SPACE ZN,hourly; !- [J]
Output:Meter:Cumulative,InteriorEquipment:Electricity:Zone:STORY 2 EAST PERIMETER SPACE ZN,hourly; !- [J]
Output:Meter,InteriorEquipment:Electricity:Zone:STORY 16 NORTH PERIMETER SPACE ZN,hourly; !- [J]
Output:Meter:Cumulative,InteriorEquipment:Electricity:Zone:STORY 16 NORTH PERIMETER SPACE ZN,hourly; !- [J]
Output:Meter,InteriorEquipment:Electricity:Zone:STORY 13 SOUTH PERIMETER SPACE ZN,hourly; !- [J]
Output:Meter:Cumulative,InteriorEquipment:Electricity:Zone:STORY 13 SOUTH PERIMETER SPACE ZN,hourly; !- [J]
Output:Meter,InteriorEquipment:Electricity:Zone:STORY 24 EAST PERIMETER SPACE ZN,hourly; !- [J]
Output:Meter:Cumulative,InteriorEquipment:Electricity:Zone:STORY 24 EAST PERIMETER SPACE ZN,hourly; !- [J]
Output:Meter,InteriorEquipment:Electricity:Zone:STORY 23 WEST PERIMETER SPACE ZN,hourly; !- [J]
Output:Meter:Cumulative,InteriorEquipment:Electricity:Zone:STORY 23 WEST PERIMETER SPACE ZN,hourly; !- [J]
Output:Meter,InteriorEquipment:Electricity:Zone:STORY 26 CORE SPACE ZN,hourly; !- [J]
Output:Meter:Cumulative,InteriorEquipment:Electricity:Zone:STORY 26 CORE SPACE ZN,hourly; !- [J]
Output:Meter,InteriorEquipment:Electricity:Zone:STORY 10 WEST PERIMETER SPACE ZN,hourly; !- [J]
Output:Meter:Cumulative,InteriorEquipment:Electricity:Zone:STORY 10 WEST PERIMETER SPACE ZN,hourly; !- [J]
Output:Meter,InteriorEquipment:Electricity:Zone:STORY 14 WEST PERIMETER SPACE ZN,hourly; !- [J]
Output:Meter:Cumulative,InteriorEquipment:Electricity:Zone:STORY 14 WEST PERIMETER SPACE ZN,hourly; !- [J]
Output:Meter,InteriorEquipment:Electricity:Zone:STORY 4 NORTH PERIMETER SPACE ZN,hourly; !- [J]
Output:Meter:Cumulative,InteriorEquipment:Electricity:Zone:STORY 4 NORTH PERIMETER SPACE ZN,hourly; !- [J]
Output:Meter,InteriorEquipment:Electricity:Zone:STORY 24 CORE SPACE ZN,hourly; !- [J]
Output:Meter:Cumulative,InteriorEquipment:Electricity:Zone:STORY 24 CORE SPACE ZN,hourly; !- [J]
Output:Meter,InteriorEquipment:Electricity:Zone:STORY 3 SOUTH PERIMETER SPACE ZN,hourly; !- [J]
Output:Meter:Cumulative,InteriorEquipment:Electricity:Zone:STORY 3 SOUTH PERIMETER SPACE ZN,hourly; !- [J]
Output:Meter,InteriorEquipment:Electricity:Zone:STORY 5 NORTH PERIMETER SPACE ZN,hourly; !- [J]
Output:Meter:Cumulative,InteriorEquipment:Electricity:Zone:STORY 5 NORTH PERIMETER SPACE ZN,hourly; !- [J]
Output:Meter,InteriorEquipment:Electricity:Zone:STORY 22 NORTH PERIMETER SPACE ZN,hourly; !- [J]
Output:Meter:Cumulative,InteriorEquipment:Electricity:Zone:STORY 22 NORTH PERIMETER SPACE ZN,hourly; !- [J]
Output:Meter,InteriorEquipment:Electricity:Zone:STORY 15 CORE SPACE ZN,hourly; !- [J]
Output:Meter:Cumulative,InteriorEquipment:Electricity:Zone:STORY 15 CORE SPACE ZN,hourly; !- [J]
Output:Meter,InteriorEquipment:Electricity:Zone:STORY 14 CORE SPACE ZN,hourly; !- [J]
Output:Meter:Cumulative,InteriorEquipment:Electricity:Zone:STORY 14 CORE SPACE ZN,hourly; !- [J]
Output:Meter,EnergyTransfer:Facility,hourly; !- [J]
Output:Meter:Cumulative,EnergyTransfer:Facility,hourly; !- [J]
Output:Meter,EnergyTransfer:Building,hourly; !- [J]
Output:Meter:Cumulative,EnergyTransfer:Building,hourly; !- [J]
Output:Meter,EnergyTransfer:Zone:STORY 1 CORE SPACE ZN,hourly; !- [J]
Output:Meter:Cumulative,EnergyTransfer:Zone:STORY 1 CORE SPACE ZN,hourly; !- [J]
Output:Meter,Heating:EnergyTransfer,hourly; !- [J]
Output:Meter:Cumulative,Heating:EnergyTransfer,hourly; !- [J]
Output:Meter,Heating:EnergyTransfer:Zone:STORY 1 CORE SPACE ZN,hourly; !- [J]
Output:Meter:Cumulative,Heating:EnergyTransfer:Zone:STORY 1 CORE SPACE ZN,hourly; !- [J]
Output:Meter,Cooling:EnergyTransfer,hourly; !- [J]
Output:Meter:Cumulative,Cooling:EnergyTransfer,hourly; !- [J]
Output:Meter,Cooling:EnergyTransfer:Zone:STORY 1 CORE SPACE ZN,hourly; !- [J]
Output:Meter:Cumulative,Cooling:EnergyTransfer:Zone:STORY 1 CORE SPACE ZN,hourly; !- [J]
Output:Meter,EnergyTransfer:Zone:STORY 1 EAST PERIMETER SPACE ZN,hourly; !- [J]
Output:Meter:Cumulative,EnergyTransfer:Zone:STORY 1 EAST PERIMETER SPACE ZN,hourly; !- [J]
Output:Meter,Heating:EnergyTransfer:Zone:STORY 1 EAST PERIMETER SPACE ZN,hourly; !- [J]
Output:Meter:Cumulative,Heating:EnergyTransfer:Zone:STORY 1 EAST PERIMETER SPACE ZN,hourly; !- [J]
Output:Meter,Cooling:EnergyTransfer:Zone:STORY 1 EAST PERIMETER SPACE ZN,hourly; !- [J]
Output:Meter:Cumulative,Cooling:EnergyTransfer:Zone:STORY 1 EAST PERIMETER SPACE ZN,hourly; !- [J]
Output:Meter,EnergyTransfer:Zone:STORY 1 NORTH PERIMETER SPACE ZN,hourly; !- [J]
Output:Meter:Cumulative,EnergyTransfer:Zone:STORY 1 NORTH PERIMETER SPACE ZN,hourly; !- [J]
Output:Meter,Heating:EnergyTransfer:Zone:STORY 1 NORTH PERIMETER SPACE ZN,hourly; !- [J]
Output:Meter:Cumulative,Heating:EnergyTransfer:Zone:STORY 1 NORTH PERIMETER SPACE ZN,hourly; !- [J]
Output:Meter,Cooling:EnergyTransfer:Zone:STORY 1 NORTH PERIMETER SPACE ZN,hourly; !- [J]
Output:Meter:Cumulative,Cooling:EnergyTransfer:Zone:STORY 1 NORTH PERIMETER SPACE ZN,hourly; !- [J]
Output:Meter,EnergyTransfer:Zone:STORY 1 SOUTH PERIMETER SPACE ZN,hourly; !- [J]
Output:Meter:Cumulative,EnergyTransfer:Zone:STORY 1 SOUTH PERIMETER SPACE ZN,hourly; !- [J]
Output:Meter,Heating:EnergyTransfer:Zone:STORY 1 SOUTH PERIMETER SPACE ZN,hourly; !- [J]
Output:Meter:Cumulative,Heating:EnergyTransfer:Zone:STORY 1 SOUTH PERIMETER SPACE ZN,hourly; !- [J]
Output:Meter,Cooling:EnergyTransfer:Zone:STORY 1 SOUTH PERIMETER SPACE ZN,hourly; !- [J]
Output:Meter:Cumulative,Cooling:EnergyTransfer:Zone:STORY 1 SOUTH PERIMETER SPACE ZN,hourly; !- [J]
Output:Meter,EnergyTransfer:Zone:STORY 1 WEST PERIMETER SPACE ZN,hourly; !- [J]
Output:Meter:Cumulative,EnergyTransfer:Zone:STORY 1 WEST PERIMETER SPACE ZN,hourly; !- [J]
Output:Meter,Heating:EnergyTransfer:Zone:STORY 1 WEST PERIMETER SPACE ZN,hourly; !- [J]
Output:Meter:Cumulative,Heating:EnergyTransfer:Zone:STORY 1 WEST PERIMETER SPACE ZN,hourly; !- [J]
Output:Meter,Cooling:EnergyTransfer:Zone:STORY 1 WEST PERIMETER SPACE ZN,hourly; !- [J]
Output:Meter:Cumulative,Cooling:EnergyTransfer:Zone:STORY 1 WEST PERIMETER SPACE ZN,hourly; !- [J]
Output:Meter,EnergyTransfer:Zone:STORY 10 CORE SPACE ZN,hourly; !- [J]
Output:Meter:Cumulative,EnergyTransfer:Zone:STORY 10 CORE SPACE ZN,hourly; !- [J]
Output:Meter,Heating:EnergyTransfer:Zone:STORY 10 CORE SPACE ZN,hourly; !- [J]
Output:Meter:Cumulative,Heating:EnergyTransfer:Zone:STORY 10 CORE SPACE ZN,hourly; !- [J]
Output:Meter,Cooling:EnergyTransfer:Zone:STORY 10 CORE SPACE ZN,hourly; !- [J]
Output:Meter:Cumulative,Cooling:EnergyTransfer:Zone:STORY 10 CORE SPACE ZN,hourly; !- [J]
Output:Meter,EnergyTransfer:Zone:STORY 10 EAST PERIMETER SPACE ZN,hourly; !- [J]
Output:Meter:Cumulative,EnergyTransfer:Zone:STORY 10 EAST PERIMETER SPACE ZN,hourly; !- [J]
Output:Meter,Heating:EnergyTransfer:Zone:STORY 10 EAST PERIMETER SPACE ZN,hourly; !- [J]
[...]
Output:Meter,Cooling:EnergyTransfer:Zone:STORY 3 EAST PERIMETER SPACE ZN,hourly; !- [J]
Output:Meter:Cumulative,Cooling:EnergyTransfer:Zone:STORY 3 EAST PERIMETER SPACE ZN,hourly; !- [J]
Output:Meter,EnergyTransfer:Zone:STORY 3 NORTH PERIMETER SPACE ZN,hourly; !- [J]
Output:Meter:Cumulative,EnergyTransfer:Zone:STORY 3 NORTH PERIMETER SPACE ZN,hourly; !- [J]
Output:Meter,Heating:EnergyTransfer:Zone:STORY 3 NORTH PERIMETER SPACE ZN,hourly; !- [J]
Output:Meter:Cumulative,Heating:EnergyTransfer:Zone:STORY 3 NORTH PERIMETER SPACE ZN,hourly; !- [J]
Output:Meter,Cooling:EnergyTransfer:Zone:STORY 3 NORTH PERIMETER SPACE ZN,hourly; !- [J]
Output:Meter:Cumulative,Cooling:EnergyTransfer:Zone:STORY 3 NORTH PERIMETER SPACE ZN,hourly; !- [J]
Output:Meter,EnergyTransfer:Zone:STORY 3 SOUTH PERIMETER SPACE ZN,hourly; !- [J]
Output:Meter:Cumulative,EnergyTransfer:Zone:STORY 3 SOUTH PERIMETER SPACE ZN,hourly; !- [J]
Output:Meter,Heating:EnergyTransfer:Zone:STORY 3 SOUTH PERIMETER SPACE ZN,hourly; !- [J]
Output:Meter:Cumulative,Heating:EnergyTransfer:Zone:STORY 3 SOUTH PERIMETER SPACE ZN,hourly; !- [J]
Output:Meter,Cooling:EnergyTransfer:Zone:STORY 3 SOUTH PERIMETER SPACE ZN,hourly; !- [J]
Output:Meter:Cumulative,Cooling:EnergyTransfer:Zone:STORY 3 SOUTH PERIMETER SPACE ZN,hourly; !- [J]
Output:Meter,EnergyTransfer:Zone:STORY 3 WEST PERIMETER SPACE ZN,hourly; !- [J]
Output:Meter:Cumulative,EnergyTransfer:Zone:STORY 3 WEST PERIMETER SPACE ZN,hourly; !- [J]
Output:Meter,Heating:EnergyTransfer:Zone:STORY 3 WEST PERIMETER SPACE ZN,hourly; !- [J]
Output:Meter:Cumulative,Heating:EnergyTransfer:Zone:STORY 3 WEST PERIMETER SPACE ZN,hourly; !- [J]
Output:Meter,Cooling:EnergyTransfer:Zone:STORY 3 WEST PERIMETER SPACE ZN,hourly; !- [J]
Output:Meter:Cumulative,Cooling:EnergyTransfer:Zone:STORY 3 WEST PERIMETER SPACE ZN,hourly; !- [J]
Output:Meter,EnergyTransfer:Zone:STORY 4 CORE SPACE ZN,hourly; !- [J]
Output:Meter:Cumulative,EnergyTransfer:Zone:STORY 4 CORE SPACE ZN,hourly; !- [J]
Output:Meter,Heating:EnergyTransfer:Zone:STORY 4 CORE SPACE ZN,hourly; !- [J]
Output:Meter:Cumulative,Heating:EnergyTransfer:Zone:STORY 4 CORE SPACE ZN,hourly; !- [J]
Output:Meter,Cooling:EnergyTransfer:Zone:STORY 4 CORE SPACE ZN,hourly; !- [J]
Output:Meter:Cumulative,Cooling:EnergyTransfer:Zone:STORY 4 CORE SPACE ZN,hourly; !- [J]
Output:Meter,EnergyTransfer:Zone:STORY 4 EAST PERIMETER SPACE ZN,hourly; !- [J]
Output:Meter:Cumulative,EnergyTransfer:Zone:STORY 4 EAST PERIMETER SPACE ZN,hourly; !- [J]
Output:Meter,Heating:EnergyTransfer:Zone:STORY 4 EAST PERIMETER SPACE ZN,hourly; !- [J]
Output:Meter:Cumulative,Heating:EnergyTransfer:Zone:STORY 4 EAST PERIMETER SPACE ZN,hourly; !- [J]
Output:Meter,Cooling:EnergyTransfer:Zone:STORY 4 EAST PERIMETER SPACE ZN,hourly; !- [J]
Output:Meter:Cumulative,Cooling:EnergyTransfer:Zone:STORY 4 EAST PERIMETER SPACE ZN,hourly; !- [J]
Output:Meter,EnergyTransfer:Zone:STORY 4 NORTH PERIMETER SPACE ZN,hourly; !- [J]
Output:Meter:Cumulative,EnergyTransfer:Zone:STORY 4 NORTH PERIMETER SPACE ZN,hourly; !- [J]
Output:Meter,Heating:EnergyTransfer:Zone:STORY 4 NORTH PERIMETER SPACE ZN,hourly; !- [J]
Output:Meter:Cumulative,Heating:EnergyTransfer:Zone:STORY 4 NORTH PERIMETER SPACE ZN,hourly; !- [J]
Output:Meter,Cooling:EnergyTransfer:Zone:STORY 4 NORTH PERIMETER SPACE ZN,hourly; !- [J]
Output:Meter:Cumulative,Cooling:EnergyTransfer:Zone:STORY 4 NORTH PERIMETER SPACE ZN,hourly; !- [J]
Output:Meter,EnergyTransfer:Zone:STORY 4 SOUTH PERIMETER SPACE ZN,hourly; !- [J]
Output:Meter:Cumulative,EnergyTransfer:Zone:STORY 4 SOUTH PERIMETER SPACE ZN,hourly; !- [J]
Output:Meter,Heating:EnergyTransfer:Zone:STORY 4 SOUTH PERIMETER SPACE ZN,hourly; !- [J]
Output:Meter:Cumulative,Heating:EnergyTransfer:Zone:STORY 4 SOUTH PERIMETER SPACE ZN,hourly; !- [J]
Output:Meter,Cooling:EnergyTransfer:Zone:STORY 4 SOUTH PERIMETER SPACE ZN,hourly; !- [J]
Output:Meter:Cumulative,Cooling:EnergyTransfer:Zone:STORY 4 SOUTH PERIMETER SPACE ZN,hourly; !- [J]
Output:Meter,EnergyTransfer:Zone:STORY 4 WEST PERIMETER SPACE ZN,hourly; !- [J]
Output:Meter:Cumulative,EnergyTransfer:Zone:STORY 4 WEST PERIMETER SPACE ZN,hourly; !- [J]
Output:Meter,Heating:EnergyTransfer:Zone:STORY 4 WEST PERIMETER SPACE ZN,hourly; !- [J]
Output:Meter:Cumulative,Heating:EnergyTransfer:Zone:STORY 4 WEST PERIMETER SPACE ZN,hourly; !- [J]
Output:Meter,Cooling:EnergyTransfer:Zone:STORY 4 WEST PERIMETER SPACE ZN,hourly; !- [J]
Output:Meter:Cumulative,Cooling:EnergyTransfer:Zone:STORY 4 WEST PERIMETER SPACE ZN,hourly; !- [J]
Output:Meter,EnergyTransfer:Zone:STORY 5 CORE SPACE ZN,hourly; !- [J]
Output:Meter:Cumulative,EnergyTransfer:Zone:STORY 5 CORE SPACE ZN,hourly; !- [J]
Output:Meter,Heating:EnergyTransfer:Zone:STORY 5 CORE SPACE ZN,hourly; !- [J]
Output:Meter:Cumulative,Heating:EnergyTransfer:Zone:STORY 5 CORE SPACE ZN,hourly; !- [J]
Output:Meter,Cooling:EnergyTransfer:Zone:STORY 5 CORE SPACE ZN,hourly; !- [J]
Output:Meter:Cumulative,Cooling:EnergyTransfer:Zone:STORY 5 CORE SPACE ZN,hourly; !- [J]
Output:Meter,EnergyTransfer:Zone:STORY 5 EAST PERIMETER SPACE ZN,hourly; !- [J]
Output:Meter:Cumulative,EnergyTransfer:Zone:STORY 5 EAST PERIMETER SPACE ZN,hourly; !- [J]
Output:Meter,Heating:EnergyTransfer:Zone:STORY 5 EAST PERIMETER SPACE ZN,hourly; !- [J]
Output:Meter:Cumulative,Heating:EnergyTransfer:Zone:STORY 5 EAST PERIMETER SPACE ZN,hourly; !- [J]
Output:Meter,Cooling:EnergyTransfer:Zone:STORY 5 EAST PERIMETER SPACE ZN,hourly; !- [J]
Output:Meter:Cumulative,Cooling:EnergyTransfer:Zone:STORY 5 EAST PERIMETER SPACE ZN,hourly; !- [J]
Output:Meter,EnergyTransfer:Zone:STORY 5 NORTH PERIMETER SPACE ZN,hourly; !- [J]
Output:Meter:Cumulative,EnergyTransfer:Zone:STORY 5 NORTH PERIMETER SPACE ZN,hourly; !- [J]
Output:Meter,Heating:EnergyTransfer:Zone:STORY 5 NORTH PERIMETER SPACE ZN,hourly; !- [J]
Output:Meter:Cumulative,Heating:EnergyTransfer:Zone:STORY 5 NORTH PERIMETER SPACE ZN,hourly; !- [J]
Output:Meter,Cooling:EnergyTransfer:Zone:STORY 5 NORTH PERIMETER SPACE ZN,hourly; !- [J]
Output:Meter:Cumulative,Cooling:EnergyTransfer:Zone:STORY 5 NORTH PERIMETER SPACE ZN,hourly; !- [J]
Output:Meter,EnergyTransfer:Zone:STORY 5 SOUTH PERIMETER SPACE ZN,hourly; !- [J]
Output:Meter:Cumulative,EnergyTransfer:Zone:STORY 5 SOUTH PERIMETER SPACE ZN,hourly; !- [J]
Output:Meter,Heating:EnergyTransfer:Zone:STORY 5 SOUTH PERIMETER SPACE ZN,hourly; !- [J]
Output:Meter:Cumulative,Heating:EnergyTransfer:Zone:STORY 5 SOUTH PERIMETER SPACE ZN,hourly; !- [J]
Output:Meter,Cooling:EnergyTransfer:Zone:STORY 5 SOUTH PERIMETER SPACE ZN,hourly; !- [J]
Output:Meter:Cumulative,Cooling:EnergyTransfer:Zone:STORY 5 SOUTH PERIMETER SPACE ZN,hourly; !- [J]
Output:Meter,EnergyTransfer:Zone:STORY 5 WEST PERIMETER SPACE ZN,hourly; !- [J]
Output:Meter:Cumulative,EnergyTransfer:Zone:STORY 5 WEST PERIMETER SPACE ZN,hourly; !- [J]
Output:Meter,Heating:EnergyTransfer:Zone:STORY 5 WEST PERIMETER SPACE ZN,hourly; !- [J]
Output:Meter:Cumulative,Heating:EnergyTransfer:Zone:STORY 5 WEST PERIMETER SPACE ZN,hourly; !- [J]
Output:Meter,Cooling:EnergyTransfer:Zone:STORY 5 WEST PERIMETER SPACE ZN,hourly; !- [J]
Output:Meter:Cumulative,Cooling:EnergyTransfer:Zone:STORY 5 WEST PERIMETER SPACE ZN,hourly; !- [J]
Output:Meter,EnergyTransfer:Zone:STORY 6 CORE SPACE ZN,hourly; !- [J]
Output:Meter:Cumulative,EnergyTransfer:Zone:STORY 6 CORE SPACE ZN,hourly; !- [J]
Output:Meter,Heating:EnergyTransfer:Zone:STORY 6 CORE SPACE ZN,hourly; !- [J]
Output:Meter:Cumulative,Heating:EnergyTransfer:Zone:STORY 6 CORE SPACE ZN,hourly; !- [J]
Output:Meter,Cooling:EnergyTransfer:Zone:STORY 6 CORE SPACE ZN,hourly; !- [J]
Output:Meter:Cumulative,Cooling:EnergyTransfer:Zone:STORY 6 CORE SPACE ZN,hourly; !- [J]
Output:Meter,EnergyTransfer:Zone:STORY 6 EAST PERIMETER SPACE ZN,hourly; !- [J]
Output:Meter:Cumulative,EnergyTransfer:Zone:STORY 6 EAST PERIMETER SPACE ZN,hourly; !- [J]
Output:Meter,Heating:EnergyTransfer:Zone:STORY 6 EAST PERIMETER SPACE ZN,hourly; !- [J]
Output:Meter:Cumulative,Heating:EnergyTransfer:Zone:STORY 6 EAST PERIMETER SPACE ZN,hourly; !- [J]
Output:Meter,Cooling:EnergyTransfer:Zone:STORY 6 EAST PERIMETER SPACE ZN,hourly; !- [J]
Output:Meter:Cumulative,Cooling:EnergyTransfer:Zone:STORY 6 EAST PERIMETER SPACE ZN,hourly; !- [J]
Output:Meter,EnergyTransfer:Zone:STORY 6 NORTH PERIMETER SPACE ZN,hourly; !- [J]
Output:Meter:Cumulative,EnergyTransfer:Zone:STORY 6 NORTH PERIMETER SPACE ZN,hourly; !- [J]
Output:Meter,Heating:EnergyTransfer:Zone:STORY 6 NORTH PERIMETER SPACE ZN,hourly; !- [J]
Output:Meter:Cumulative,Heating:EnergyTransfer:Zone:STORY 6 NORTH PERIMETER SPACE ZN,hourly; !- [J]
Output:Meter,Cooling:EnergyTransfer:Zone:STORY 6 NORTH PERIMETER SPACE ZN,hourly; !- [J]
Output:Meter:Cumulative,Cooling:EnergyTransfer:Zone:STORY 6 NORTH PERIMETER SPACE ZN,hourly; !- [J]
Output:Meter,EnergyTransfer:Zone:STORY 6 SOUTH PERIMETER SPACE ZN,hourly; !- [J]
Output:Meter:Cumulative,EnergyTransfer:Zone:STORY 6 SOUTH PERIMETER SPACE ZN,hourly; !- [J]
Output:Meter,Heating:EnergyTransfer:Zone:STORY 6 SOUTH PERIMETER SPACE ZN,hourly; !- [J]
Output:Meter:Cumulative,Heating:EnergyTransfer:Zone:STORY 6 SOUTH PERIMETER SPACE ZN,hourly; !- [J]
Output:Meter,Cooling:EnergyTransfer:Zone:STORY 6 SOUTH PERIMETER SPACE ZN,hourly; !- [J]
Output:Meter:Cumulative,Cooling:EnergyTransfer:Zone:STORY 6 SOUTH PERIMETER SPACE ZN,hourly; !- [J]
Output:Meter,EnergyTransfer:Zone:STORY 6 WEST PERIMETER SPACE ZN,hourly; !- [J]
Output:Meter:Cumulative,EnergyTransfer:Zone:STORY 6 WEST PERIMETER SPACE ZN,hourly; !- [J]
Output:Meter,Heating:EnergyTransfer:Zone:STORY 6 WEST PERIMETER SPACE ZN,hourly; !- [J]
Output:Meter:Cumulative,Heating:EnergyTransfer:Zone:STORY 6 WEST PERIMETER SPACE ZN,hourly; !- [J]
Output:Meter,Cooling:EnergyTransfer:Zone:STORY 6 WEST PERIMETER SPACE ZN,hourly; !- [J]
Output:Meter:Cumulative,Cooling:EnergyTransfer:Zone:STORY 6 WEST PERIMETER SPACE ZN,hourly; !- [J]
Output:Meter,EnergyTransfer:Zone:STORY 7 CORE SPACE ZN,hourly; !- [J]
Output:Meter:Cumulative,EnergyTransfer:Zone:STORY 7 CORE SPACE ZN,hourly; !- [J]
Output:Meter,Heating:EnergyTransfer:Zone:STORY 7 CORE SPACE ZN,hourly; !- [J]
Output:Meter:Cumulative,Heating:EnergyTransfer:Zone:STORY 7 CORE SPACE ZN,hourly; !- [J]
Output:Meter,Cooling:EnergyTransfer:Zone:STORY 7 CORE SPACE ZN,hourly; !- [J]
Output:Meter:Cumulative,Cooling:EnergyTransfer:Zone:STORY 7 CORE SPACE ZN,hourly; !- [J]
Output:Meter,EnergyTransfer:Zone:STORY 7 EAST PERIMETER SPACE ZN,hourly; !- [J]
Output:Meter:Cumulative,EnergyTransfer:Zone:STORY 7 EAST PERIMETER SPACE ZN,hourly; !- [J]
Output:Meter,Heating:EnergyTransfer:Zone:STORY 7 EAST PERIMETER SPACE ZN,hourly; !- [J]
Output:Meter:Cumulative,Heating:EnergyTransfer:Zone:STORY 7 EAST PERIMETER SPACE ZN,hourly; !- [J]
Output:Meter,Cooling:EnergyTransfer:Zone:STORY 7 EAST PERIMETER SPACE ZN,hourly; !- [J]
Output:Meter:Cumulative,Cooling:EnergyTransfer:Zone:STORY 7 EAST PERIMETER SPACE ZN,hourly; !- [J]
Output:Meter,EnergyTransfer:Zone:STORY 7 NORTH PERIMETER SPACE ZN,hourly; !- [J]
Output:Meter:Cumulative,EnergyTransfer:Zone:STORY 7 NORTH PERIMETER SPACE ZN,hourly; !- [J]
Output:Meter,Heating:EnergyTransfer:Zone:STORY 7 NORTH PERIMETER SPACE ZN,hourly; !- [J]
Output:Meter:Cumulative,Heating:EnergyTransfer:Zone:STORY 7 NORTH PERIMETER SPACE ZN,hourly; !- [J]
Output:Meter,Cooling:EnergyTransfer:Zone:STORY 7 NORTH PERIMETER SPACE ZN,hourly; !- [J]
Output:Meter:Cumulative,Cooling:EnergyTransfer:Zone:STORY 7 NORTH PERIMETER SPACE ZN,hourly; !- [J]
Output:Meter,EnergyTransfer:Zone:STORY 7 SOUTH PERIMETER SPACE ZN,hourly; !- [J]
Output:Meter:Cumulative,EnergyTransfer:Zone:STORY 7 SOUTH PERIMETER SPACE ZN,hourly; !- [J]
Output:Meter,Heating:EnergyTransfer:Zone:STORY 7 SOUTH PERIMETER SPACE ZN,hourly; !- [J]
Output:Meter:Cumulative,Heating:EnergyTransfer:Zone:STORY 7 SOUTH PERIMETER SPACE ZN,hourly; !- [J]
Output:Meter,Cooling:EnergyTransfer:Zone:STORY 7 SOUTH PERIMETER SPACE ZN,hourly; !- [J]
Output:Meter:Cumulative,Cooling:EnergyTransfer:Zone:STORY 7 SOUTH PERIMETER SPACE ZN,hourly; !- [J]
Output:Meter,EnergyTransfer:Zone:STORY 7 WEST PERIMETER SPACE ZN,hourly; !- [J]
Output:Meter:Cumulative,EnergyTransfer:Zone:STORY 7 WEST PERIMETER SPACE ZN,hourly; !- [J]
Output:Meter,Heating:EnergyTransfer:Zone:STORY 7 WEST PERIMETER SPACE ZN,hourly; !- [J]
Output:Meter:Cumulative,Heating:EnergyTransfer:Zone:STORY 7 WEST PERIMETER SPACE ZN,hourly; !- [J]
Output:Meter,Cooling:EnergyTransfer:Zone:STORY 7 WEST PERIMETER SPACE ZN,hourly; !- [J]
Output:Meter:Cumulative,Cooling:EnergyTransfer:Zone:STORY 7 WEST PERIMETER SPACE ZN,hourly; !- [J]
Output:Meter,EnergyTransfer:Zone:STORY 8 CORE SPACE ZN,hourly; !- [J]
Output:Meter:Cumulative,EnergyTransfer:Zone:STORY 8 CORE SPACE ZN,hourly; !- [J]
Output:Meter,Heating:EnergyTransfer:Zone:STORY 8 CORE SPACE ZN,hourly; !- [J]
Output:Meter:Cumulative,Heating:EnergyTransfer:Zone:STORY 8 CORE SPACE ZN,hourly; !- [J]
Output:Meter,Cooling:EnergyTransfer:Zone:STORY 8 CORE SPACE ZN,hourly; !- [J]
Output:Meter:Cumulative,Cooling:EnergyTransfer:Zone:STORY 8 CORE SPACE ZN,hourly; !- [J]
Output:Meter,EnergyTransfer:Zone:STORY 8 EAST PERIMETER SPACE ZN,hourly; !- [J]
Output:Meter:Cumulative,EnergyTransfer:Zone:STORY 8 EAST PERIMETER SPACE ZN,hourly; !- [J]
Output:Meter,Heating:EnergyTransfer:Zone:STORY 8 EAST PERIMETER SPACE ZN,hourly; !- [J]
Output:Meter:Cumulative,Heating:EnergyTransfer:Zone:STORY 8 EAST PERIMETER SPACE ZN,hourly; !- [J]
Output:Meter,Cooling:EnergyTransfer:Zone:STORY 8 EAST PERIMETER SPACE ZN,hourly; !- [J]
Output:Meter:Cumulative,Cooling:EnergyTransfer:Zone:STORY 8 EAST PERIMETER SPACE ZN,hourly; !- [J]
Output:Meter,EnergyTransfer:Zone:STORY 8 NORTH PERIMETER SPACE ZN,hourly; !- [J]
Output:Meter:Cumulative,EnergyTransfer:Zone:STORY 8 NORTH PERIMETER SPACE ZN,hourly; !- [J]
Output:Meter,Heating:EnergyTransfer:Zone:STORY 8 NORTH PERIMETER SPACE ZN,hourly; !- [J]
Output:Meter:Cumulative,Heating:EnergyTransfer:Zone:STORY 8 NORTH PERIMETER SPACE ZN,hourly; !- [J]
Output:Meter,Cooling:EnergyTransfer:Zone:STORY 8 NORTH PERIMETER SPACE ZN,hourly; !- [J]
Output:Meter:Cumulative,Cooling:EnergyTransfer:Zone:STORY 8 NORTH PERIMETER SPACE ZN,hourly; !- [J]
Output:Meter,EnergyTransfer:Zone:STORY 8 SOUTH PERIMETER SPACE ZN,hourly; !- [J]
Output:Meter:Cumulative,EnergyTransfer:Zone:STORY 8 SOUTH PERIMETER SPACE ZN,hourly; !- [J]
Output:Meter,Heating:EnergyTransfer:Zone:STORY 8 SOUTH PERIMETER SPACE ZN,hourly; !- [J]
Output:Meter:Cumulative,Heating:EnergyTransfer:Zone:STORY 8 SOUTH PERIMETER SPACE ZN,hourly; !- [J]
Output:Meter,Cooling:EnergyTransfer:Zone:STORY 8 SOUTH PERIMETER SPACE ZN,hourly; !- [J]
Output:Meter:Cumulative,Cooling:EnergyTransfer:Zone:STORY 8 SOUTH PERIMETER SPACE ZN,hourly; !- [J]
Output:Meter,EnergyTransfer:Zone:STORY 8 WEST PERIMETER SPACE ZN,hourly; !- [J]
Output:Meter:Cumulative,EnergyTransfer:Zone:STORY 8 WEST PERIMETER SPACE ZN,hourly; !- [J]
Output:Meter,Heating:EnergyTransfer:Zone:STORY 8 WEST PERIMETER SPACE ZN,hourly; !- [J]
Output:Meter:Cumulative,Heating:EnergyTransfer:Zone:STORY 8 WEST PERIMETER SPACE ZN,hourly; !- [J]
Output:Meter,Cooling:EnergyTransfer:Zone:STORY 8 WEST PERIMETER SPACE ZN,hourly; !- [J]
Output:Meter:Cumulative,Cooling:EnergyTransfer:Zone:STORY 8 WEST PERIMETER SPACE ZN,hourly; !- [J]
Output:Meter,EnergyTransfer:Zone:STORY 9 CORE SPACE ZN,hourly; !- [J]
Output:Meter:Cumulative,EnergyTransfer:Zone:STORY 9 CORE SPACE ZN,hourly; !- [J]
Output:Meter,Heating:EnergyTransfer:Zone:STORY 9 CORE SPACE ZN,hourly; !- [J]
Output:Meter:Cumulative,Heating:EnergyTransfer:Zone:STORY 9 CORE SPACE ZN,hourly; !- [J]
Output:Meter,Cooling:EnergyTransfer:Zone:STORY 9 CORE SPACE ZN,hourly; !- [J]
Output:Meter:Cumulative,Cooling:EnergyTransfer:Zone:STORY 9 CORE SPACE ZN,hourly; !- [J]
Output:Meter,EnergyTransfer:Zone:STORY 9 EAST PERIMETER SPACE ZN,hourly; !- [J]
Output:Meter:Cumulative,EnergyTransfer:Zone:STORY 9 EAST PERIMETER SPACE ZN,hourly; !- [J]
Output:Meter,Heating:EnergyTransfer:Zone:STORY 9 EAST PERIMETER SPACE ZN,hourly; !- [J]
Output:Meter:Cumulative,Heating:EnergyTransfer:Zone:STORY 9 EAST PERIMETER SPACE ZN,hourly; !- [J]
Output:Meter,Cooling:EnergyTransfer:Zone:STORY 9 EAST PERIMETER SPACE ZN,hourly; !- [J]
Output:Meter:Cumulative,Cooling:EnergyTransfer:Zone:STORY 9 EAST PERIMETER SPACE ZN,hourly; !- [J]
Output:Meter,EnergyTransfer:Zone:STORY 9 NORTH PERIMETER SPACE ZN,hourly; !- [J]
Output:Meter:Cumulative,EnergyTransfer:Zone:STORY 9 NORTH PERIMETER SPACE ZN,hourly; !- [J]
Output:Meter,Heating:EnergyTransfer:Zone:STORY 9 NORTH PERIMETER SPACE ZN,hourly; !- [J]
Output:Meter:Cumulative,Heating:EnergyTransfer:Zone:STORY 9 NORTH PERIMETER SPACE ZN,hourly; !- [J]
Output:Meter,Cooling:EnergyTransfer:Zone:STORY 9 NORTH PERIMETER SPACE ZN,hourly; !- [J]
Output:Meter:Cumulative,Cooling:EnergyTransfer:Zone:STORY 9 NORTH PERIMETER SPACE ZN,hourly; !- [J]
Output:Meter,EnergyTransfer:Zone:STORY 9 SOUTH PERIMETER SPACE ZN,hourly; !- [J]
Output:Meter:Cumulative,EnergyTransfer:Zone:STORY 9 SOUTH PERIMETER SPACE ZN,hourly; !- [J]
Output:Meter,Heating:EnergyTransfer:Zone:STORY 9 SOUTH PERIMETER SPACE ZN,hourly; !- [J]
Output:Meter:Cumulative,Heating:EnergyTransfer:Zone:STORY 9 SOUTH PERIMETER SPACE ZN,hourly; !- [J]
Output:Meter,Cooling:EnergyTransfer:Zone:STORY 9 SOUTH PERIMETER SPACE ZN,hourly; !- [J]
Output:Meter:Cumulative,Cooling:EnergyTransfer:Zone:STORY 9 SOUTH PERIMETER SPACE ZN,hourly; !- [J]
Output:Meter,EnergyTransfer:Zone:STORY 9 WEST PERIMETER SPACE ZN,hourly; !- [J]
Output:Meter:Cumulative,EnergyTransfer:Zone:STORY 9 WEST PERIMETER SPACE ZN,hourly; !- [J]
Output:Meter,Heating:EnergyTransfer:Zone:STORY 9 WEST PERIMETER SPACE ZN,hourly; !- [J]
Output:Meter:Cumulative,Heating:EnergyTransfer:Zone:STORY 9 WEST PERIMETER SPACE ZN,hourly; !- [J]
Output:Meter,Cooling:EnergyTransfer:Zone:STORY 9 WEST PERIMETER SPACE ZN,hourly; !- [J]
Output:Meter:Cumulative,Cooling:EnergyTransfer:Zone:STORY 9 WEST PERIMETER SPACE ZN,hourly; !- [J]
Output:Meter,ElectricityPurchased:Facility,hourly; !- [J]
Output:Meter:Cumulative,ElectricityPurchased:Facility,hourly; !- [J]
Output:Meter,ElectricityPurchased:Plant,hourly; !- [J]
Output:Meter:Cumulative,ElectricityPurchased:Plant,hourly; !- [J]
Output:Meter,Cogeneration:ElectricityPurchased,hourly; !- [J]
Output:Meter:Cumulative,Cogeneration:ElectricityPurchased,hourly; !- [J]
Output:Meter,ElectricitySurplusSold:Facility,hourly; !- [J]
Output:Meter:Cumulative,ElectricitySurplusSold:Facility,hourly; !- [J]
Output:Meter,ElectricitySurplusSold:Plant,hourly; !- [J]
Output:Meter:Cumulative,ElectricitySurplusSold:Plant,hourly; !- [J]
Output:Meter,Cogeneration:ElectricitySurplusSold,hourly; !- [J]
Output:Meter:Cumulative,Cogeneration:ElectricitySurplusSold,hourly; !- [J]
Output:Meter,ElectricityNet:Facility,hourly; !- [J]
Output:Meter:Cumulative,ElectricityNet:Facility,hourly; !- [J]
Output:Meter,ElectricityNet:Plant,hourly; !- [J]
Output:Meter:Cumulative,ElectricityNet:Plant,hourly; !- [J]
Output:Meter,Cogeneration:ElectricityNet,hourly; !- [J]
Output:Meter:Cumulative,Cogeneration:ElectricityNet,hourly; !- [J]
Output:Meter,DistrictHeating:Facility,hourly; !- [J]
Output:Meter:Cumulative,DistrictHeating:Facility,hourly; !- [J]
Output:Meter,DistrictHeating:HVAC,hourly; !- [J]
Output:Meter:Cumulative,DistrictHeating:HVAC,hourly; !- [J]
Output:Meter,Heating:DistrictHeating,hourly; !- [J]
Output:Meter:Cumulative,Heating:DistrictHeating,hourly; !- [J]
Output:Meter,DistrictCooling:Facility,hourly; !- [J]
Output:Meter:Cumulative,DistrictCooling:Facility,hourly; !- [J]
Output:Meter,DistrictCooling:HVAC,hourly; !- [J]
Output:Meter:Cumulative,DistrictCooling:HVAC,hourly; !- [J]
Output:Meter,Cooling:DistrictCooling,hourly; !- [J]
Output:Meter:Cumulative,Cooling:DistrictCooling,hourly; !- [J]
Output:Meter,Carbon Equivalent:Facility,hourly; !- [kg]
Output:Meter:Cumulative,Carbon Equivalent:Facility,hourly; !- [kg]
Output:Meter,CarbonEquivalentEmissions:Carbon Equivalent,hourly; !- [kg]
Output:Meter:Cumulative,CarbonEquivalentEmissions:Carbon Equivalent,hourly; !- [kg]
