Program Version,EnergyPlus, Version 8.9.0-eba93e8e1b, YMD=2019.03.26 20:19
! <Version>, Version ID
 Version, 8.9
! <Timesteps per Hour>, #TimeSteps, Minutes per TimeStep {minutes}
 Timesteps per Hour,  6, 10
! <System Convergence Limits>, Minimum System TimeStep {minutes}, Max HVAC Iterations, Minimum Plant Iterations, Maximum Plant Iterations
 System Convergence Limits, 1, 20, 2, 8
! <Simulation Control>, Do Zone Sizing, Do System Sizing, Do Plant Sizing, Do Design Days, Do Weather Simulation, Do HVAC Sizing Simulation
 Simulation Control, Yes, No, No, Yes, No, No
! <Output Reporting Tolerances>, Tolerance for Time Heating Setpoint Not Met, Tolerance for Zone Cooling Setpoint Not Met Time
 Output Reporting Tolerances, 0.200, 0.200, 
! <Site:GroundTemperature:BuildingSurface>,Jan{C},Feb{C},Mar{C},Apr{C},May{C},Jun{C},Jul{C},Aug{C},Sep{C},Oct{C},Nov{C},Dec{C}
 Site:GroundTemperature:BuildingSurface,  19.53,  19.50,  19.54,  19.60,  20.00,  21.64,  22.23,  22.38,  21.45,  20.12,  19.80,  19.63
! <Site:GroundTemperature:FCfactorMethod>,Jan{C},Feb{C},Mar{C},Apr{C},May{C},Jun{C},Jul{C},Aug{C},Sep{C},Oct{C},Nov{C},Dec{C}
 Site:GroundTemperature:FCfactorMethod, -12.27, -13.66, -11.19,  -7.33,   2.77,  10.57,  15.83,  17.43,  14.70,   8.65,   0.56,  -6.95
! <Site:GroundTemperature:Shallow>,Jan{C},Feb{C},Mar{C},Apr{C},May{C},Jun{C},Jul{C},Aug{C},Sep{C},Oct{C},Nov{C},Dec{C}
 Site:GroundTemperature:Shallow,  13.00,  13.00,  13.00,  13.00,  13.00,  13.00,  13.00,  13.00,  13.00,  13.00,  13.00,  13.00
! <Site:GroundTemperature:Deep>,Jan{C},Feb{C},Mar{C},Apr{C},May{C},Jun{C},Jul{C},Aug{C},Sep{C},Oct{C},Nov{C},Dec{C}
 Site:GroundTemperature:Deep,  16.00,  16.00,  16.00,  16.00,  16.00,  16.00,  16.00,  16.00,  16.00,  16.00,  16.00,  16.00
! <Site:GroundReflectance>,Jan{dimensionless},Feb{dimensionless},Mar{dimensionless},Apr{dimensionless},May{dimensionless},Jun{dimensionless},Jul{dimensionless},Aug{dimensionless},Sep{dimensionless},Oct{dimensionless},Nov{dimensionless},Dec{dimensionless}
 Site:GroundReflectance,  0.20,  0.20,  0.20,  0.20,  0.20,  0.20,  0.20,  0.20,  0.20,  0.20,  0.20,  0.20
! <Site:GroundReflectance:SnowModifier>, Normal, Daylighting {dimensionless}
 Site:GroundReflectance:SnowModifier,   1.000,   1.000
! <Site:GroundReflectance:Snow>,Jan{dimensionless},Feb{dimensionless},Mar{dimensionless},Apr{dimensionless},May{dimensionless},Jun{dimensionless},Jul{dimensionless},Aug{dimensionless},Sep{dimensionless},Oct{dimensionless},Nov{dimensionless},Dec{dimensionless}
 Site:GroundReflectance:Snow,  0.20,  0.20,  0.20,  0.20,  0.20,  0.20,  0.20,  0.20,  0.20,  0.20,  0.20,  0.20
! <Site:GroundReflectance:Snow:Daylighting>,Jan{dimensionless},Feb{dimensionless},Mar{dimensionless},Apr{dimensionless},May{dimensionless},Jun{dimensionless},Jul{dimensionless},Aug{dimensionless},Sep{dimensionless},Oct{dimensionless},Nov{dimensionless},Dec{dimensionless}
 Site:GroundReflectance:Snow:Daylighting,  0.20,  0.20,  0.20,  0.20,  0.20,  0.20,  0.20,  0.20,  0.20,  0.20,  0.20,  0.20
! <Environment:Weather Station>,Wind Sensor Height Above Ground {m},Wind Speed Profile Exponent {},Wind Speed Profile Boundary Layer Thickness {m},Air Temperature Sensor Height Above Ground {m},Wind Speed Modifier Coefficient-Internal,Temperature Modifier Coefficient-Internal
Environment:Weather Station,10.000,0.140,270.000,1.500,1.586,9.750E-003
! <Site:Location>, Location Name, Latitude {N+/S- Deg}, Longitude {E+/W- Deg},  Time Zone Number {GMT+/-}, Elevation {m},  Standard Pressure at Elevation {Pa}, Standard RhoAir at Elevation
Site:Location,Fort McMurray AP AB CAN CWEC2016 WMO#=716890,56.65,-111.22,-7.00,369.10,96969,1.1525
! <Building Information>, Building Name,North Axis {deg},Terrain,  Loads Convergence Tolerance Value,Temperature Convergence Tolerance Value,  Solar Distribution,Maximum Number of Warmup Days,Minimum Number of Warmup Days
 Building Information,Building 1,0.000,Suburbs,4.00000E-002,0.40000,FullExterior,25,6
! <Inside Convection Algorithm>, Algorithm {Simple | TARP | CeilingDiffuser | AdaptiveConvectionAlgorithm}
Inside Convection Algorithm,TARP
! <Outside Convection Algorithm>, Algorithm {SimpleCombined | TARP | MoWitt | DOE-2 | AdaptiveConvectionAlgorithm}
Outside Convection Algorithm,TARP
! <Sky Radiance Distribution>, Value {Anisotropic}
Sky Radiance Distribution,Anisotropic
! <Zone Air Solution Algorithm>, Value {ThirdOrderBackwardDifference | AnalyticalSolution | EulerMethod}
 Zone Air Solution Algorithm, ThirdOrderBackwardDifference
! <Zone Air Carbon Dioxide Balance Simulation>, Simulation {Yes/No}, Carbon Dioxide Concentration
 Zone Air Carbon Dioxide Balance Simulation, No,N/A
! <Zone Air Generic Contaminant Balance Simulation>, Simulation {Yes/No}, Generic Contaminant Concentration
 Zone Air Generic Contaminant Balance Simulation, No,N/A
! <Zone Air Mass Flow Balance Simulation>, Enforce Mass Balance, Adjust Zone Mixing, Adjust Zone Infiltration {AddInfiltration | AdjustInfiltration | None}, Infiltration Zones {MixingSourceZonesOnly | AllZones}
 Zone Air Mass Flow Balance Simulation, No,N/A,N/A,N/A
! <HVACSystemRootFindingAlgorithm>, Value {RegulaFalsi | Bisection | BisectionThenRegulaFalsi | RegulaFalsiThenBisection}
 HVACSystemRootFindingAlgorithm, RegulaFalsi
! <Environment:Site Atmospheric Variation>,Wind Speed Profile Exponent {},Wind Speed Profile Boundary Layer Thickness {m},Air Temperature Gradient Coefficient {K/m}
Environment:Site Atmospheric Variation,0.220,370.000,6.500000E-003
! <Surface Geometry>,Starting Corner,Vertex Input Direction,Coordinate System,Daylight Reference Point Coordinate System,Rectangular (Simple) Surface Coordinate System
 Surface Geometry,UpperLeftCorner,Counterclockwise,RelativeCoordinateSystem,RelativeCoordinateSystem,RelativeToZoneOrigin
! <Surface Heat Transfer Algorithm>, Value {CTF - ConductionTransferFunction | EMPD - MoisturePenetrationDepthConductionTransferFunction | CondFD - ConductionFiniteDifference | HAMT - CombinedHeatAndMoistureFiniteElement} - Description,Inside Surface Max Temperature Limit{C}, Surface Convection Coefficient Lower Limit {W/m2-K}, Surface Convection Coefficient Upper Limit {W/m2-K}
Surface Heat Transfer Algorithm, CTF - ConductionTransferFunction,200,0.10,1000.0
! <Shading Summary>, Number of Fixed Detached Shades, Number of Building Detached Shades, Number of Attached Shades
 Shading Summary,0,0,0
! <Zone Summary>, Number of Zones, Number of Zone Surfaces, Number of SubSurfaces
 Zone Summary,20,137,17
! <Zone Information>,Zone Name,North Axis {deg},Origin X-Coordinate {m},Origin Y-Coordinate {m},Origin Z-Coordinate {m},Centroid X-Coordinate {m},Centroid Y-Coordinate {m},Centroid Z-Coordinate {m},Type,Zone Multiplier,Zone List Multiplier,Minimum X {m},Maximum X {m},Minimum Y {m},Maximum Y {m},Minimum Z {m},Maximum Z {m},Ceiling Height {m},Volume {m3},Zone Inside Convection Algorithm {Simple-Detailed-CeilingDiffuser-TrombeWall},Zone Outside Convection Algorithm {Simple-Detailed-Tarp-MoWitt-DOE-2-BLAST}, Floor Area {m2},Exterior Gross Wall Area {m2},Exterior Net Wall Area {m2},Exterior Window Area {m2}, Number of Surfaces, Number of SubSurfaces, Number of Shading SubSurfaces,  Part of Total Building Area
 Zone Information, MANUFACTURING FACILITY EQUIPMENT ROOM-SPACE FUNCTION ZN,0.0,0.00,0.00,11.40,50.00,10.85,13.30,1,1,1,0.00,100.00,0.00,25.00,11.40,15.20,3.80,7125.00,TARP,TARP,1875.00,380.00,285.00,188.75,6,2,0,Yes
 Zone Information, MANUFACTURING FACILITY EXTRA HIGH BAY AREA (> 15 M FLOOR-TO-CEILING HEIGHT)-SPACE FUNCTION ZN,0.0,25.00,75.00,11.40,50.00,89.15,13.30,1,1,1,0.00,100.00,75.00,100.00,11.40,15.20,3.80,7125.00,TARP,TARP,1875.00,380.00,285.00,188.75,6,2,0,Yes
 Zone Information, MANUFACTURING FACILITY HIGH BAY AREA (7.5 TO 15 M FLOOR-TO-CEILING HEIGHT)-SPACE FUNCTION ZN,0.0,0.00,0.00,7.60,50.00,10.85,9.50,1,1,1,0.00,100.00,0.00,25.00,7.60,11.40,3.80,7125.00,TARP,TARP,1875.00,380.00,285.00,95.00,6,1,0,Yes
 Zone Information, MANUFACTURING FACILITY LOW BAY AREA (< 7.5 M FLOOR-TO-CEILING HEIGHT)-SPACE FUNCTION ZN,0.0,25.00,75.00,7.60,50.00,89.15,9.50,1,1,1,0.00,100.00,75.00,100.00,7.60,11.40,3.80,7125.00,TARP,TARP,1875.00,380.00,285.00,95.00,6,1,0,Yes
 Zone Information, MUSEUM GENERAL EXHIBITION AREA-SPACE FUNCTION ZN,0.0,0.00,0.00,7.60,10.85,50.00,9.50,1,1,1,0.00,25.00,0.00,100.00,7.60,11.40,3.80,7125.00,TARP,TARP,1875.00,380.00,285.00,95.00,6,1,0,Yes
 Zone Information, MUSEUM RESTORATION ROOM-SPACE FUNCTION ZN,0.0,0.00,0.00,0.00,10.85,50.00,1.90,1,1,1,0.00,25.00,0.00,100.00,0.00,3.80,3.80,7125.00,TARP,TARP,1875.00,0.00,0.00,0.00,6,0,0,Yes
 Zone Information, POST OFFICE SORTING AREA-SPACE FUNCTION ZN,0.0,75.00,25.00,11.40,89.15,50.00,13.30,1,1,1,75.00,100.00,0.00,100.00,11.40,15.20,3.80,7125.00,TARP,TARP,1875.00,380.00,285.00,188.75,6,2,0,Yes
 Zone Information, RELIGIOUS BUILDING FELLOWSHIP HALL-SPACE FUNCTION ZN,0.0,25.00,75.00,0.00,50.00,89.15,1.90,1,1,1,0.00,100.00,75.00,100.00,0.00,3.80,3.80,7125.00,TARP,TARP,1875.00,0.00,0.00,0.00,6,0,0,Yes
 Zone Information, RETAIL FACILITY DRESSING/FITTING ROOM-SPACE FUNCTION ZN,0.0,25.00,25.00,7.60,50.00,50.00,9.50,1,1,1,25.00,75.00,25.00,75.00,7.60,11.40,3.80,9500.00,TARP,TARP,2500.00,0.00,0.00,0.00,6,0,0,Yes
 Zone Information, RETAIL FACILITY MALL CONCOURSE-SPACE FUNCTION ZN,0.0,25.00,25.00,3.80,50.00,50.00,5.70,1,1,1,25.00,75.00,25.00,75.00,3.80,7.60,3.80,9500.00,TARP,TARP,2500.00,0.00,0.00,0.00,6,0,0,Yes
 Zone Information, SPACE DESIGNED TO ANSI/IES RP-28 RECREATION ROOM (USED PRIMARILY BY RESIDENTS)-SPACE FUNCTION ZN,0.0,25.00,25.00,11.40,50.00,50.00,13.30,1,1,1,25.00,75.00,25.00,75.00,11.40,15.20,3.80,9500.00,TARP,TARP,2500.00,0.00,0.00,125.00,6,1,0,Yes
 Zone Information, SPORTS ARENA PLAYING AREA CLASS I FACILITY(4)-SPACE FUNCTION ZN,0.0,0.00,0.00,11.40,10.85,50.00,13.30,1,1,1,0.00,25.00,0.00,100.00,11.40,15.20,3.80,7125.00,TARP,TARP,1875.00,380.00,285.00,188.75,6,2,0,Yes
 Zone Information, SPORTS ARENA PLAYING AREA CLASS II FACILITY(4)-SPACE FUNCTION ZN,0.0,75.00,25.00,0.00,89.15,50.00,1.90,1,1,1,75.00,100.00,0.00,100.00,0.00,3.80,3.80,7125.00,TARP,TARP,1875.00,0.00,0.00,0.00,6,0,0,Yes
 Zone Information, SPORTS ARENA PLAYING AREA CLASS III FACILITY(4)-SPACE FUNCTION ZN,0.0,75.00,25.00,7.60,89.15,50.00,9.50,1,1,1,75.00,100.00,0.00,100.00,7.60,11.40,3.80,7125.00,TARP,TARP,1875.00,380.00,285.00,95.00,6,1,0,Yes
 Zone Information, SPORTS ARENA PLAYING AREA CLASS IV FACILITY(4)-SPACE FUNCTION ZN,0.0,0.00,0.00,0.00,50.00,10.85,1.90,1,1,1,0.00,100.00,0.00,25.00,0.00,3.80,3.80,7125.00,TARP,TARP,1875.00,0.00,0.00,0.00,6,0,0,Yes
 Zone Information, TRANSPORTATION FACILITY AIRPORT CONCOURSE-SPACE FUNCTION ZN,0.0,25.00,25.00,0.00,50.00,50.00,1.90,1,1,1,25.00,75.00,25.00,75.00,0.00,3.80,3.80,9500.00,TARP,TARP,2500.00,0.00,0.00,0.00,6,0,0,Yes
 Zone Information, TRANSPORTATION FACILITY BAGGAGE/CAROUSEL AREA-SPACE FUNCTION ZN,0.0,25.00,75.00,3.80,50.00,89.15,5.70,1,1,1,0.00,100.00,75.00,100.00,3.80,7.60,3.80,7125.00,TARP,TARP,1875.00,380.00,285.00,95.00,6,1,0,Yes
 Zone Information, TRANSPORTATION FACILITY TERMINAL TICKET COUNTER-SPACE FUNCTION ZN,0.0,0.00,0.00,3.80,50.00,10.85,5.70,1,1,1,0.00,100.00,0.00,25.00,3.80,7.60,3.80,7125.00,TARP,TARP,1875.00,380.00,285.00,95.00,6,1,0,Yes
 Zone Information, WAREHOUSE STORAGE AREA MEDIUM TO BULKY PALLETIZED ITEMS-SPACE FUNCTION ZN,0.0,0.00,0.00,3.80,10.85,50.00,5.70,1,1,1,0.00,25.00,0.00,100.00,3.80,7.60,3.80,7125.00,TARP,TARP,1875.00,380.00,285.00,95.00,6,1,0,Yes
 Zone Information, WAREHOUSE STORAGE AREA SMALL HAND-CARRIED ITEMS(4)-SPACE FUNCTION ZN,0.0,75.00,25.00,3.80,89.15,50.00,5.70,1,1,1,75.00,100.00,0.00,100.00,3.80,7.60,3.80,7125.00,TARP,TARP,1875.00,380.00,285.00,95.00,6,1,0,Yes
! <Zone Internal Gains Nominal>,Zone Name, Floor Area {m2},# Occupants,Area per Occupant {m2/person},Occupant per Area {person/m2},Interior Lighting {W/m2},Electric Load {W/m2},Gas Load {W/m2},Other Load {W/m2},Hot Water Eq {W/m2},Steam Equipment {W/m2},Sum Loads per Area {W/m2},Outdoor Controlled Baseboard Heat
 Zone Internal Gains Nominal, MANUFACTURING FACILITY EQUIPMENT ROOM-SPACE FUNCTION ZN,1875.00,62.5,29.989,3.335E-002,8.003,10.004,0.000,0.000,0.000,0.000,18.007,No
 Zone Internal Gains Nominal, MANUFACTURING FACILITY EXTRA HIGH BAY AREA (> 15 M FLOOR-TO-CEILING HEIGHT)-SPACE FUNCTION ZN,1875.00,62.5,29.989,3.335E-002,11.304,10.004,0.000,0.000,0.000,0.000,21.308,No
 Zone Internal Gains Nominal, MANUFACTURING FACILITY HIGH BAY AREA (7.5 TO 15 M FLOOR-TO-CEILING HEIGHT)-SPACE FUNCTION ZN,1875.00,62.5,29.989,3.335E-002,13.305,10.004,0.000,0.000,0.000,0.000,23.308,No
 Zone Internal Gains Nominal, MANUFACTURING FACILITY LOW BAY AREA (< 7.5 M FLOOR-TO-CEILING HEIGHT)-SPACE FUNCTION ZN,1875.00,62.5,29.989,3.335E-002,12.905,10.004,0.000,0.000,0.000,0.000,22.908,No
 Zone Internal Gains Nominal, MUSEUM GENERAL EXHIBITION AREA-SPACE FUNCTION ZN,1875.00,375.1,4.998,0.200,11.404,2.501,0.000,0.000,0.000,0.000,13.905,No
 Zone Internal Gains Nominal, MUSEUM RESTORATION ROOM-SPACE FUNCTION ZN,1875.00,93.8,19.993,5.002E-002,11.004,5.002,0.000,0.000,0.000,0.000,16.006,No
 Zone Internal Gains Nominal, POST OFFICE SORTING AREA-SPACE FUNCTION ZN,1875.00,93.8,19.993,5.002E-002,10.204,7.503,0.000,0.000,0.000,0.000,17.706,No
 Zone Internal Gains Nominal, RELIGIOUS BUILDING FELLOWSHIP HALL-SPACE FUNCTION ZN,1875.00,375.1,4.998,0.200,6.903,1.000,0.000,0.000,0.000,0.000,7.903,No
 Zone Internal Gains Nominal, RETAIL FACILITY DRESSING/FITTING ROOM-SPACE FUNCTION ZN,2500.00,83.4,29.989,3.335E-002,7.703,2.501,0.000,0.000,0.000,0.000,10.204,No
 Zone Internal Gains Nominal, RETAIL FACILITY MALL CONCOURSE-SPACE FUNCTION ZN,2500.00,125.0,19.993,5.002E-002,11.904,1.000,0.000,0.000,0.000,0.000,12.905,No
 Zone Internal Gains Nominal, SPACE DESIGNED TO ANSI/IES RP-28 RECREATION ROOM (USED PRIMARILY BY RESIDENTS)-SPACE FUNCTION ZN,2500.00,125.0,19.993,5.002E-002,25.909,1.000,0.000,0.000,0.000,0.000,26.910,No
 Zone Internal Gains Nominal, SPORTS ARENA PLAYING AREA CLASS I FACILITY(4)-SPACE FUNCTION ZN,1875.00,375.1,4.998,0.200,39.714,1.501,0.000,0.000,0.000,0.000,41.215,No
 Zone Internal Gains Nominal, SPORTS ARENA PLAYING AREA CLASS II FACILITY(4)-SPACE FUNCTION ZN,1875.00,375.1,4.998,0.200,25.909,1.501,0.000,0.000,0.000,0.000,27.410,No
 Zone Internal Gains Nominal, SPORTS ARENA PLAYING AREA CLASS III FACILITY(4)-SPACE FUNCTION ZN,1875.00,375.1,4.998,0.200,19.407,1.501,0.000,0.000,0.000,0.000,20.908,No
 Zone Internal Gains Nominal, SPORTS ARENA PLAYING AREA CLASS IV FACILITY(4)-SPACE FUNCTION ZN,1875.00,375.1,4.998,0.200,13.005,1.501,0.000,0.000,0.000,0.000,14.505,No
 Zone Internal Gains Nominal, TRANSPORTATION FACILITY AIRPORT CONCOURSE-SPACE FUNCTION ZN,2500.00,125.0,19.993,5.002E-002,3.901,0.000,0.000,0.000,0.000,0.000,3.901,No
 Zone Internal Gains Nominal, TRANSPORTATION FACILITY BAGGAGE/CAROUSEL AREA-SPACE FUNCTION ZN,1875.00,93.8,19.993,5.002E-002,5.702,2.501,0.000,0.000,0.000,0.000,8.203,No
 Zone Internal Gains Nominal, TRANSPORTATION FACILITY TERMINAL TICKET COUNTER-SPACE FUNCTION ZN,1875.00,187.6,9.996,0.100,8.703,2.501,0.000,0.000,0.000,0.000,11.204,No
 Zone Internal Gains Nominal, WAREHOUSE STORAGE AREA MEDIUM TO BULKY PALLETIZED ITEMS-SPACE FUNCTION ZN,1875.00,18.8,99.964,1.000E-002,6.202,1.000,0.000,0.000,0.000,0.000,7.203,No
 Zone Internal Gains Nominal, WAREHOUSE STORAGE AREA SMALL HAND-CARRIED ITEMS(4)-SPACE FUNCTION ZN,1875.00,37.5,49.982,2.001E-002,10.204,1.000,0.000,0.000,0.000,0.000,11.204,No
! <People Internal Gains Nominal>,Name,Schedule Name,Zone Name,Zone Floor Area {m2},# Zone Occupants,Number of People {},People/Floor Area {person/m2},Floor Area per person {m2/person},Fraction Radiant,Fraction Convected,Sensible Fraction Calculation,Activity level,ASHRAE 55 Warnings,Carbon Dioxide Generation Rate,Nominal Minimum Number of People,Nominal Maximum Number of People
 People Internal Gains Nominal, MANUFACTURING FACILITY EQUIPMENT ROOM-SPACE FUNCTION ZN SPACE FUNCTION MANUFACTURING FACILITY EQUIPMENT ROOM PEOPLE,NECB-A-OCCUPANCY,MANUFACTURING FACILITY EQUIPMENT ROOM-SPACE FUNCTION ZN,1875.00,62.5,62.5,3.335E-002,29.989,0.300,0.700,AutoCalculate,NECB-ACTIVITY,No,3.8200E-008,0,56
 People Internal Gains Nominal, MANUFACTURING FACILITY EXTRA HIGH BAY AREA (> 15 M FLOOR-TO-CEILING HEIGHT)-SPACE FUNCTION ZN SPACE FUNCTION MANUFACTURING FACILITY EXTRA HIGH BAY AREA (> 15 M FLOOR-TO-CEILING HEIGHT) PEOPLE,NECB-A-OCCUPANCY,MANUFACTURING FACILITY EXTRA HIGH BAY AREA (> 15 M FLOOR-TO-CEILING HEIGHT)-SPACE FUNCTION ZN,1875.00,62.5,62.5,3.335E-002,29.989,0.300,0.700,AutoCalculate,NECB-ACTIVITY,No,3.8200E-008,0,56
 People Internal Gains Nominal, MANUFACTURING FACILITY HIGH BAY AREA (7.5 TO 15 M FLOOR-TO-CEILING HEIGHT)-SPACE FUNCTION ZN SPACE FUNCTION MANUFACTURING FACILITY HIGH BAY AREA (7.5 TO 15 M FLOOR-TO-CEILING HEIGHT) PEOPLE,NECB-A-OCCUPANCY,MANUFACTURING FACILITY HIGH BAY AREA (7.5 TO 15 M FLOOR-TO-CEILING HEIGHT)-SPACE FUNCTION ZN,1875.00,62.5,62.5,3.335E-002,29.989,0.300,0.700,AutoCalculate,NECB-ACTIVITY,No,3.8200E-008,0,56
 People Internal Gains Nominal, MANUFACTURING FACILITY LOW BAY AREA (< 7.5 M FLOOR-TO-CEILING HEIGHT)-SPACE FUNCTION ZN SPACE FUNCTION MANUFACTURING FACILITY LOW BAY AREA (< 7.5 M FLOOR-TO-CEILING HEIGHT) PEOPLE,NECB-A-OCCUPANCY,MANUFACTURING FACILITY LOW BAY AREA (< 7.5 M FLOOR-TO-CEILING HEIGHT)-SPACE FUNCTION ZN,1875.00,62.5,62.5,3.335E-002,29.989,0.300,0.700,AutoCalculate,NECB-ACTIVITY,No,3.8200E-008,0,56
 People Internal Gains Nominal, MUSEUM GENERAL EXHIBITION AREA-SPACE FUNCTION ZN SPACE FUNCTION MUSEUM GENERAL EXHIBITION AREA PEOPLE,NECB-C-OCCUPANCY,MUSEUM GENERAL EXHIBITION AREA-SPACE FUNCTION ZN,1875.00,375.1,375.1,0.200,4.998,0.300,0.700,AutoCalculate,NECB-ACTIVITY,No,3.8200E-008,0,338
 People Internal Gains Nominal, MUSEUM RESTORATION ROOM-SPACE FUNCTION ZN SPACE FUNCTION MUSEUM RESTORATION ROOM PEOPLE,NECB-A-OCCUPANCY,MUSEUM RESTORATION ROOM-SPACE FUNCTION ZN,1875.00,93.8,93.8,5.002E-002,19.993,0.300,0.700,AutoCalculate,NECB-ACTIVITY,No,3.8200E-008,0,84
 People Internal Gains Nominal, POST OFFICE SORTING AREA-SPACE FUNCTION ZN SPACE FUNCTION POST OFFICE SORTING AREA PEOPLE,NECB-A-OCCUPANCY,POST OFFICE SORTING AREA-SPACE FUNCTION ZN,1875.00,93.8,93.8,5.002E-002,19.993,0.300,0.700,AutoCalculate,NECB-ACTIVITY,No,3.8200E-008,0,84
 People Internal Gains Nominal, RELIGIOUS BUILDING FELLOWSHIP HALL-SPACE FUNCTION ZN SPACE FUNCTION RELIGIOUS BUILDING FELLOWSHIP HALL PEOPLE,NECB-C-OCCUPANCY,RELIGIOUS BUILDING FELLOWSHIP HALL-SPACE FUNCTION ZN,1875.00,375.1,375.1,0.200,4.998,0.300,0.700,AutoCalculate,NECB-ACTIVITY,No,3.8200E-008,0,338
 People Internal Gains Nominal, RETAIL FACILITY DRESSING/FITTING ROOM-SPACE FUNCTION ZN SPACE FUNCTION RETAIL FACILITY DRESSING/FITTING ROOM PEOPLE,NECB-C-OCCUPANCY,RETAIL FACILITY DRESSING/FITTING ROOM-SPACE FUNCTION ZN,2500.00,83.4,83.4,3.335E-002,29.989,0.300,0.700,AutoCalculate,NECB-ACTIVITY,No,3.8200E-008,0,75
 People Internal Gains Nominal, RETAIL FACILITY MALL CONCOURSE-SPACE FUNCTION ZN SPACE FUNCTION RETAIL FACILITY MALL CONCOURSE PEOPLE,NECB-C-OCCUPANCY,RETAIL FACILITY MALL CONCOURSE-SPACE FUNCTION ZN,2500.00,125.0,125.0,5.002E-002,19.993,0.300,0.700,AutoCalculate,NECB-ACTIVITY,No,3.8200E-008,0,113
 People Internal Gains Nominal, SPACE DESIGNED TO ANSI/IES RP-28 RECREATION ROOM (USED PRIMARILY BY RESIDENTS)-SPACE FUNCTION ZN SPACE FUNCTION SPACE DESIGNED TO ANSI/IES RP-28 RECREATION ROOM (USED PRIMARILY BY RESIDENTS) PEOPLE,NECB-B-OCCUPANCY,SPACE DESIGNED TO ANSI/IES RP-28 RECREATION ROOM (USED PRIMARILY BY RESIDENTS)-SPACE FUNCTION ZN,2500.00,125.0,125.0,5.002E-002,19.993,0.300,0.700,AutoCalculate,NECB-ACTIVITY,No,3.8200E-008,0,113
 People Internal Gains Nominal, SPORTS ARENA PLAYING AREA CLASS I FACILITY(4)-SPACE FUNCTION ZN SPACE FUNCTION SPORTS ARENA PLAYING AREA CLASS I FACILITY(4) PEOPLE,NECB-B-OCCUPANCY,SPORTS ARENA PLAYING AREA CLASS I FACILITY(4)-SPACE FUNCTION ZN,1875.00,375.1,375.1,0.200,4.998,0.300,0.700,AutoCalculate,NECB-ACTIVITY,No,3.8200E-008,0,338
 People Internal Gains Nominal, SPORTS ARENA PLAYING AREA CLASS II FACILITY(4)-SPACE FUNCTION ZN SPACE FUNCTION SPORTS ARENA PLAYING AREA CLASS II FACILITY(4) PEOPLE,NECB-B-OCCUPANCY,SPORTS ARENA PLAYING AREA CLASS II FACILITY(4)-SPACE FUNCTION ZN,1875.00,375.1,375.1,0.200,4.998,0.300,0.700,AutoCalculate,NECB-ACTIVITY,No,3.8200E-008,0,338
 People Internal Gains Nominal, SPORTS ARENA PLAYING AREA CLASS III FACILITY(4)-SPACE FUNCTION ZN SPACE FUNCTION SPORTS ARENA PLAYING AREA CLASS III FACILITY(4) PEOPLE,NECB-B-OCCUPANCY,SPORTS ARENA PLAYING AREA CLASS III FACILITY(4)-SPACE FUNCTION ZN,1875.00,375.1,375.1,0.200,4.998,0.300,0.700,AutoCalculate,NECB-ACTIVITY,No,3.8200E-008,0,338
 People Internal Gains Nominal, SPORTS ARENA PLAYING AREA CLASS IV FACILITY(4)-SPACE FUNCTION ZN SPACE FUNCTION SPORTS ARENA PLAYING AREA CLASS IV FACILITY(4) PEOPLE,NECB-B-OCCUPANCY,SPORTS ARENA PLAYING AREA CLASS IV FACILITY(4)-SPACE FUNCTION ZN,1875.00,375.1,375.1,0.200,4.998,0.300,0.700,AutoCalculate,NECB-ACTIVITY,No,3.8200E-008,0,338
 People Internal Gains Nominal, TRANSPORTATION FACILITY AIRPORT CONCOURSE-SPACE FUNCTION ZN SPACE FUNCTION TRANSPORTATION FACILITY AIRPORT CONCOURSE PEOPLE,NECB-H-OCCUPANCY,TRANSPORTATION FACILITY AIRPORT CONCOURSE-SPACE FUNCTION ZN,2500.00,125.0,125.0,5.002E-002,19.993,0.300,0.700,AutoCalculate,NECB-ACTIVITY,No,3.8200E-008,113,113
 People Internal Gains Nominal, TRANSPORTATION FACILITY BAGGAGE/CAROUSEL AREA-SPACE FUNCTION ZN SPACE FUNCTION TRANSPORTATION FACILITY BAGGAGE/CAROUSEL AREA PEOPLE,NECB-H-OCCUPANCY,TRANSPORTATION FACILITY BAGGAGE/CAROUSEL AREA-SPACE FUNCTION ZN,1875.00,93.8,93.8,5.002E-002,19.993,0.300,0.700,AutoCalculate,NECB-ACTIVITY,No,3.8200E-008,84,84
 People Internal Gains Nominal, TRANSPORTATION FACILITY TERMINAL TICKET COUNTER-SPACE FUNCTION ZN SPACE FUNCTION TRANSPORTATION FACILITY TERMINAL TICKET COUNTER PEOPLE,NECB-H-OCCUPANCY,TRANSPORTATION FACILITY TERMINAL TICKET COUNTER-SPACE FUNCTION ZN,1875.00,187.6,187.6,0.100,9.996,0.300,0.700,AutoCalculate,NECB-ACTIVITY,No,3.8200E-008,169,169
 People Internal Gains Nominal, WAREHOUSE STORAGE AREA MEDIUM TO BULKY PALLETIZED ITEMS-SPACE FUNCTION ZN SPACE FUNCTION WAREHOUSE STORAGE AREA MEDIUM TO BULKY PALLETIZED ITEMS PEOPLE,NECB-A-OCCUPANCY,WAREHOUSE STORAGE AREA MEDIUM TO BULKY PALLETIZED ITEMS-SPACE FUNCTION ZN,1875.00,18.8,18.8,1.000E-002,99.964,0.300,0.700,AutoCalculate,NECB-ACTIVITY,No,3.8200E-008,0,17
 People Internal Gains Nominal, WAREHOUSE STORAGE AREA SMALL HAND-CARRIED ITEMS(4)-SPACE FUNCTION ZN SPACE FUNCTION WAREHOUSE STORAGE AREA SMALL HAND-CARRIED ITEMS(4) PEOPLE,NECB-A-OCCUPANCY,WAREHOUSE STORAGE AREA SMALL HAND-CARRIED ITEMS(4)-SPACE FUNCTION ZN,1875.00,37.5,37.5,2.001E-002,49.982,0.300,0.700,AutoCalculate,NECB-ACTIVITY,No,3.8200E-008,0,34
! <Lights Internal Gains Nominal>,Name,Schedule Name,Zone Name,Zone Floor Area {m2},# Zone Occupants,Lighting Level {W},Lights/Floor Area {W/m2},Lights per person {W/person},Fraction Return Air,Fraction Radiant,Fraction Short Wave,Fraction Convected,Fraction Replaceable,End-Use Category,Nominal Minimum Lighting Level {W},Nominal Maximum Lighting Level {W}
 Lights Internal Gains Nominal, MANUFACTURING FACILITY EQUIPMENT ROOM-SPACE FUNCTION ZN SPACE FUNCTION MANUFACTURING FACILITY EQUIPMENT ROOM LIGHTS,NECB-A-LIGHTING,MANUFACTURING FACILITY EQUIPMENT ROOM-SPACE FUNCTION ZN,1875.00,62.5,15005.451,8.003,240.000,0.000,0.500,0.200,0.300,1.000,General,750.273,13504.906
 Lights Internal Gains Nominal, MANUFACTURING FACILITY EXTRA HIGH BAY AREA (> 15 M FLOOR-TO-CEILING HEIGHT)-SPACE FUNCTION ZN SPACE FUNCTION MANUFACTURING FACILITY EXTRA HIGH BAY AREA (> 15 M FLOOR-TO-CEILING HEIGHT) LIGHTS,NECB-A-OCCUPANCY-NECB-A-LIGHTING-0.0-0.0-0.67-LIGHT RULESET,MANUFACTURING FACILITY EXTRA HIGH BAY AREA (> 15 M FLOOR-TO-CEILING HEIGHT)-SPACE FUNCTION ZN,1875.00,62.5,21195.200,11.304,339.000,0.000,0.500,0.200,0.300,1.000,General,1059.760,19075.680
 Lights Internal Gains Nominal, MANUFACTURING FACILITY HIGH BAY AREA (7.5 TO 15 M FLOOR-TO-CEILING HEIGHT)-SPACE FUNCTION ZN SPACE FUNCTION MANUFACTURING FACILITY HIGH BAY AREA (7.5 TO 15 M FLOOR-TO-CEILING HEIGHT) LIGHTS,NECB-A-OCCUPANCY-NECB-A-LIGHTING-0.0-0.0-0.67-LIGHT RULESET,MANUFACTURING FACILITY HIGH BAY AREA (7.5 TO 15 M FLOOR-TO-CEILING HEIGHT)-SPACE FUNCTION ZN,1875.00,62.5,24946.563,13.305,399.000,0.000,0.500,0.200,0.300,1.000,General,1247.328,22451.907
 Lights Internal Gains Nominal, MANUFACTURING FACILITY LOW BAY AREA (< 7.5 M FLOOR-TO-CEILING HEIGHT)-SPACE FUNCTION ZN SPACE FUNCTION MANUFACTURING FACILITY LOW BAY AREA (< 7.5 M FLOOR-TO-CEILING HEIGHT) LIGHTS,NECB-A-OCCUPANCY-NECB-A-LIGHTING-0.0-0.0-0.67-LIGHT RULESET,MANUFACTURING FACILITY LOW BAY AREA (< 7.5 M FLOOR-TO-CEILING HEIGHT)-SPACE FUNCTION ZN,1875.00,62.5,24196.290,12.905,387.000,0.000,0.500,0.200,0.300,1.000,General,1209.815,21776.661
 Lights Internal Gains Nominal, MUSEUM GENERAL EXHIBITION AREA-SPACE FUNCTION ZN SPACE FUNCTION MUSEUM GENERAL EXHIBITION AREA LIGHTS,NECB-C-OCCUPANCY-NECB-C-LIGHTING-0.2-0.0-0.67-LIGHT RULESET,MUSEUM GENERAL EXHIBITION AREA-SPACE FUNCTION ZN,1875.00,375.1,21382.768,11.404,57.000,0.000,0.500,0.200,0.300,1.000,General,925.874,19244.491
 Lights Internal Gains Nominal, MUSEUM RESTORATION ROOM-SPACE FUNCTION ZN SPACE FUNCTION MUSEUM RESTORATION ROOM LIGHTS,NECB-A-OCCUPANCY-NECB-A-LIGHTING-0.3-0.0-0.67-LIGHT RULESET,MUSEUM RESTORATION ROOM-SPACE FUNCTION ZN,1875.00,93.8,20632.496,11.004,220.000,0.000,0.500,0.200,0.300,1.000,General,824.268,18569.246
 Lights Internal Gains Nominal, POST OFFICE SORTING AREA-SPACE FUNCTION ZN SPACE FUNCTION POST OFFICE SORTING AREA LIGHTS,NECB-A-OCCUPANCY-NECB-A-LIGHTING-0.0-0.0-0.67-LIGHT RULESET,POST OFFICE SORTING AREA-SPACE FUNCTION ZN,1875.00,93.8,19131.950,10.204,204.000,0.000,0.500,0.200,0.300,1.000,General,956.598,17218.755
 Lights Internal Gains Nominal, RELIGIOUS BUILDING FELLOWSHIP HALL-SPACE FUNCTION ZN SPACE FUNCTION RELIGIOUS BUILDING FELLOWSHIP HALL LIGHTS,NECB-C-LIGHTING,RELIGIOUS BUILDING FELLOWSHIP HALL-SPACE FUNCTION ZN,1875.00,375.1,12942.202,6.903,34.500,0.000,0.500,0.200,0.300,1.000,General,647.110,11647.982
 Lights Internal Gains Nominal, RETAIL FACILITY DRESSING/FITTING ROOM-SPACE FUNCTION ZN SPACE FUNCTION RETAIL FACILITY DRESSING/FITTING ROOM LIGHTS,NECB-C-LIGHTING,RETAIL FACILITY DRESSING/FITTING ROOM-SPACE FUNCTION ZN,2500.00,83.4,19256.996,7.703,231.000,0.000,0.500,0.200,0.300,1.000,General,962.850,17331.296
 Lights Internal Gains Nominal, RETAIL FACILITY MALL CONCOURSE-SPACE FUNCTION ZN SPACE FUNCTION RETAIL FACILITY MALL CONCOURSE LIGHTS,NECB-C-OCCUPANCY-NECB-C-LIGHTING-0.0-0.0-0.67-LIGHT RULESET,RETAIL FACILITY MALL CONCOURSE-SPACE FUNCTION ZN,2500.00,125.0,29760.812,11.904,238.000,0.000,0.500,0.200,0.300,1.000,General,1488.041,26784.731
 Lights Internal Gains Nominal, SPACE DESIGNED TO ANSI/IES RP-28 RECREATION ROOM (USED PRIMARILY BY RESIDENTS)-SPACE FUNCTION ZN SPACE FUNCTION SPACE DESIGNED TO ANSI/IES RP-28 RECREATION ROOM (USED PRIMARILY BY RESIDENTS) LIGHTS,NECB-B-OCCUPANCY-NECB-B-LIGHTING-0.2-0.0-0.67-LIGHT RULESET,SPACE DESIGNED TO ANSI/IES RP-28 RECREATION ROOM (USED PRIMARILY BY RESIDENTS)-SPACE FUNCTION ZN,2500.00,125.0,64773.532,25.909,518.000,0.000,0.500,0.200,0.300,1.000,General,5609.388,58296.178
 Lights Internal Gains Nominal, SPORTS ARENA PLAYING AREA CLASS I FACILITY(4)-SPACE FUNCTION ZN SPACE FUNCTION SPORTS ARENA PLAYING AREA CLASS I FACILITY(4) LIGHTS,NECB-B-OCCUPANCY-NECB-B-LIGHTING-0.0-0.0-0.67-LIGHT RULESET,SPORTS ARENA PLAYING AREA CLASS I FACILITY(4)-SPACE FUNCTION ZN,1875.00,375.1,74464.552,39.714,198.500,0.000,0.500,0.200,0.300,1.000,General,7446.455,67018.097
 Lights Internal Gains Nominal, SPORTS ARENA PLAYING AREA CLASS II FACILITY(4)-SPACE FUNCTION ZN SPACE FUNCTION SPORTS ARENA PLAYING AREA CLASS II FACILITY(4) LIGHTS,NECB-B-OCCUPANCY-NECB-B-LIGHTING-0.0-0.0-0.67-LIGHT RULESET,SPORTS ARENA PLAYING AREA CLASS II FACILITY(4)-SPACE FUNCTION ZN,1875.00,375.1,48580.149,25.909,129.500,0.000,0.500,0.200,0.300,1.000,General,4858.015,43722.134
 Lights Internal Gains Nominal, SPORTS ARENA PLAYING AREA CLASS III FACILITY(4)-SPACE FUNCTION ZN SPACE FUNCTION SPORTS ARENA PLAYING AREA CLASS III FACILITY(4) LIGHTS,NECB-B-OCCUPANCY-NECB-B-LIGHTING-0.0-0.0-0.67-LIGHT RULESET,SPORTS ARENA PLAYING AREA CLASS III FACILITY(4)-SPACE FUNCTION ZN,1875.00,375.1,36388.219,19.407,97.000,0.000,0.500,0.200,0.300,1.000,General,3638.822,32749.398
 Lights Internal Gains Nominal, SPORTS ARENA PLAYING AREA CLASS IV FACILITY(4)-SPACE FUNCTION ZN SPACE FUNCTION SPORTS ARENA PLAYING AREA CLASS IV FACILITY(4) LIGHTS,NECB-B-OCCUPANCY-NECB-B-LIGHTING-0.0-0.0-0.67-LIGHT RULESET,SPORTS ARENA PLAYING AREA CLASS IV FACILITY(4)-SPACE FUNCTION ZN,1875.00,375.1,24383.858,13.005,65.000,0.000,0.500,0.200,0.300,1.000,General,2438.386,21945.473
 Lights Internal Gains Nominal, TRANSPORTATION FACILITY AIRPORT CONCOURSE-SPACE FUNCTION ZN SPACE FUNCTION TRANSPORTATION FACILITY AIRPORT CONCOURSE LIGHTS,NECB-H-LIGHTING,TRANSPORTATION FACILITY AIRPORT CONCOURSE-SPACE FUNCTION ZN,2500.00,125.0,9753.543,3.901,78.000,0.000,0.500,0.200,0.300,1.000,General,8778.189,8778.189
 Lights Internal Gains Nominal, TRANSPORTATION FACILITY BAGGAGE/CAROUSEL AREA-SPACE FUNCTION ZN SPACE FUNCTION TRANSPORTATION FACILITY BAGGAGE/CAROUSEL AREA LIGHTS,NECB-H-LIGHTING,TRANSPORTATION FACILITY BAGGAGE/CAROUSEL AREA-SPACE FUNCTION ZN,1875.00,93.8,10691.384,5.702,114.000,0.000,0.500,0.200,0.300,1.000,General,9622.246,9622.246
 Lights Internal Gains Nominal, TRANSPORTATION FACILITY TERMINAL TICKET COUNTER-SPACE FUNCTION ZN SPACE FUNCTION TRANSPORTATION FACILITY TERMINAL TICKET COUNTER LIGHTS,NECB-H-OCCUPANCY-NECB-H-LIGHTING-0.0-0.0-0.67-LIGHT RULESET,TRANSPORTATION FACILITY TERMINAL TICKET COUNTER-SPACE FUNCTION ZN,1875.00,187.6,16318.428,8.703,87.000,0.000,0.500,0.200,0.300,1.000,General,14686.585,14686.585
 Lights Internal Gains Nominal, WAREHOUSE STORAGE AREA MEDIUM TO BULKY PALLETIZED ITEMS-SPACE FUNCTION ZN SPACE FUNCTION WAREHOUSE STORAGE AREA MEDIUM TO BULKY PALLETIZED ITEMS LIGHTS,NECB-A-LIGHTING,WAREHOUSE STORAGE AREA MEDIUM TO BULKY PALLETIZED ITEMS-SPACE FUNCTION ZN,1875.00,18.8,11629.225,6.202,620.000,0.000,0.500,0.200,0.300,1.000,General,581.461,10466.302
 Lights Internal Gains Nominal, WAREHOUSE STORAGE AREA SMALL HAND-CARRIED ITEMS(4)-SPACE FUNCTION ZN SPACE FUNCTION WAREHOUSE STORAGE AREA SMALL HAND-CARRIED ITEMS(4) LIGHTS,NECB-A-OCCUPANCY-NECB-A-LIGHTING-0.5-0.0-0.67-LIGHT RULESET,WAREHOUSE STORAGE AREA SMALL HAND-CARRIED ITEMS(4)-SPACE FUNCTION ZN,1875.00,37.5,19131.950,10.204,510.000,0.000,0.500,0.200,0.300,1.000,General,636.137,17218.755
! <ElectricEquipment Internal Gains Nominal>,Name,Schedule Name,Zone Name,Zone Floor Area {m2},# Zone Occupants,Equipment Level {W},Equipment/Floor Area {W/m2},Equipment per person {W/person},Fraction Latent,Fraction Radiant,Fraction Lost,Fraction Convected,End-Use SubCategory,Nominal Minimum Equipment Level {W},Nominal Maximum Equipment Level {W}
 ElectricEquipment Internal Gains Nominal, MANUFACTURING FACILITY EQUIPMENT ROOM-SPACE FUNCTION ZN SPACE FUNCTION MANUFACTURING FACILITY EQUIPMENT ROOM ELEC EQUIP,NECB-A-ELECTRIC-EQUIPMENT,MANUFACTURING FACILITY EQUIPMENT ROOM-SPACE FUNCTION ZN,1875.00,62.5,18756.814,10.004,300.000,0.000,0.500,0.000,0.500,General,3751.363,16881.133
 ElectricEquipment Internal Gains Nominal, MANUFACTURING FACILITY EXTRA HIGH BAY AREA (> 15 M FLOOR-TO-CEILING HEIGHT)-SPACE FUNCTION ZN SPACE FUNCTION MANUFACTURING FACILITY EXTRA HIGH BAY AREA (> 15 M FLOOR-TO-CEILING HEIGHT) ELEC EQUIP,NECB-A-ELECTRIC-EQUIPMENT,MANUFACTURING FACILITY EXTRA HIGH BAY AREA (> 15 M FLOOR-TO-CEILING HEIGHT)-SPACE FUNCTION ZN,1875.00,62.5,18756.814,10.004,300.000,0.000,0.500,0.000,0.500,General,3751.363,16881.133
 ElectricEquipment Internal Gains Nominal, MANUFACTURING FACILITY HIGH BAY AREA (7.5 TO 15 M FLOOR-TO-CEILING HEIGHT)-SPACE FUNCTION ZN SPACE FUNCTION MANUFACTURING FACILITY HIGH BAY AREA (7.5 TO 15 M FLOOR-TO-CEILING HEIGHT) ELEC EQUIP,NECB-A-ELECTRIC-EQUIPMENT,MANUFACTURING FACILITY HIGH BAY AREA (7.5 TO 15 M FLOOR-TO-CEILING HEIGHT)-SPACE FUNCTION ZN,1875.00,62.5,18756.814,10.004,300.000,0.000,0.500,0.000,0.500,General,3751.363,16881.133
 ElectricEquipment Internal Gains Nominal, MANUFACTURING FACILITY LOW BAY AREA (< 7.5 M FLOOR-TO-CEILING HEIGHT)-SPACE FUNCTION ZN SPACE FUNCTION MANUFACTURING FACILITY LOW BAY AREA (< 7.5 M FLOOR-TO-CEILING HEIGHT) ELEC EQUIP,NECB-A-ELECTRIC-EQUIPMENT,MANUFACTURING FACILITY LOW BAY AREA (< 7.5 M FLOOR-TO-CEILING HEIGHT)-SPACE FUNCTION ZN,1875.00,62.5,18756.814,10.004,300.000,0.000,0.500,0.000,0.500,General,3751.363,16881.133
 ElectricEquipment Internal Gains Nominal, MUSEUM GENERAL EXHIBITION AREA-SPACE FUNCTION ZN SPACE FUNCTION MUSEUM GENERAL EXHIBITION AREA ELEC EQUIP,NECB-C-ELECTRIC-EQUIPMENT,MUSEUM GENERAL EXHIBITION AREA-SPACE FUNCTION ZN,1875.00,375.1,4689.204,2.501,12.500,0.000,0.500,0.000,0.500,General,234.460,4220.283
 ElectricEquipment Internal Gains Nominal, MUSEUM RESTORATION ROOM-SPACE FUNCTION ZN SPACE FUNCTION MUSEUM RESTORATION ROOM ELEC EQUIP,NECB-A-ELECTRIC-EQUIPMENT,MUSEUM RESTORATION ROOM-SPACE FUNCTION ZN,1875.00,93.8,9378.407,5.002,100.000,0.000,0.500,0.000,0.500,General,1875.681,8440.566
 ElectricEquipment Internal Gains Nominal, POST OFFICE SORTING AREA-SPACE FUNCTION ZN SPACE FUNCTION POST OFFICE SORTING AREA ELEC EQUIP,NECB-A-ELECTRIC-EQUIPMENT,POST OFFICE SORTING AREA-SPACE FUNCTION ZN,1875.00,93.8,14067.611,7.503,150.000,0.000,0.500,0.000,0.500,General,2813.522,12660.850
 ElectricEquipment Internal Gains Nominal, RELIGIOUS BUILDING FELLOWSHIP HALL-SPACE FUNCTION ZN SPACE FUNCTION RELIGIOUS BUILDING FELLOWSHIP HALL ELEC EQUIP,NECB-C-ELECTRIC-EQUIPMENT,RELIGIOUS BUILDING FELLOWSHIP HALL-SPACE FUNCTION ZN,1875.00,375.1,1875.681,1.000,5.000,0.000,0.500,0.000,0.500,General,93.784,1688.113
 ElectricEquipment Internal Gains Nominal, RETAIL FACILITY DRESSING/FITTING ROOM-SPACE FUNCTION ZN SPACE FUNCTION RETAIL FACILITY DRESSING/FITTING ROOM ELEC EQUIP,NECB-C-ELECTRIC-EQUIPMENT,RETAIL FACILITY DRESSING/FITTING ROOM-SPACE FUNCTION ZN,2500.00,83.4,6252.271,2.501,75.000,0.000,0.500,0.000,0.500,General,312.614,5627.044
 ElectricEquipment Internal Gains Nominal, RETAIL FACILITY MALL CONCOURSE-SPACE FUNCTION ZN SPACE FUNCTION RETAIL FACILITY MALL CONCOURSE ELEC EQUIP,NECB-C-ELECTRIC-EQUIPMENT,RETAIL FACILITY MALL CONCOURSE-SPACE FUNCTION ZN,2500.00,125.0,2500.909,1.000,20.000,0.000,0.500,0.000,0.500,General,125.045,2250.818
 ElectricEquipment Internal Gains Nominal, SPACE DESIGNED TO ANSI/IES RP-28 RECREATION ROOM (USED PRIMARILY BY RESIDENTS)-SPACE FUNCTION ZN SPACE FUNCTION SPACE DESIGNED TO ANSI/IES RP-28 RECREATION ROOM (USED PRIMARILY BY RESIDENTS) ELEC EQUIP,NECB-B-ELECTRIC-EQUIPMENT,SPACE DESIGNED TO ANSI/IES RP-28 RECREATION ROOM (USED PRIMARILY BY RESIDENTS)-SPACE FUNCTION ZN,2500.00,125.0,2500.909,1.000,20.000,0.000,0.500,0.000,0.500,General,250.091,2250.818
 ElectricEquipment Internal Gains Nominal, SPORTS ARENA PLAYING AREA CLASS I FACILITY(4)-SPACE FUNCTION ZN SPACE FUNCTION SPORTS ARENA PLAYING AREA CLASS I FACILITY(4) ELEC EQUIP,NECB-B-ELECTRIC-EQUIPMENT,SPORTS ARENA PLAYING AREA CLASS I FACILITY(4)-SPACE FUNCTION ZN,1875.00,375.1,2813.522,1.501,7.500,0.000,0.500,0.000,0.500,General,281.352,2532.170
 ElectricEquipment Internal Gains Nominal, SPORTS ARENA PLAYING AREA CLASS II FACILITY(4)-SPACE FUNCTION ZN SPACE FUNCTION SPORTS ARENA PLAYING AREA CLASS II FACILITY(4) ELEC EQUIP,NECB-B-ELECTRIC-EQUIPMENT,SPORTS ARENA PLAYING AREA CLASS II FACILITY(4)-SPACE FUNCTION ZN,1875.00,375.1,2813.522,1.501,7.500,0.000,0.500,0.000,0.500,General,281.352,2532.170
 ElectricEquipment Internal Gains Nominal, SPORTS ARENA PLAYING AREA CLASS III FACILITY(4)-SPACE FUNCTION ZN SPACE FUNCTION SPORTS ARENA PLAYING AREA CLASS III FACILITY(4) ELEC EQUIP,NECB-B-ELECTRIC-EQUIPMENT,SPORTS ARENA PLAYING AREA CLASS III FACILITY(4)-SPACE FUNCTION ZN,1875.00,375.1,2813.522,1.501,7.500,0.000,0.500,0.000,0.500,General,281.352,2532.170
 ElectricEquipment Internal Gains Nominal, SPORTS ARENA PLAYING AREA CLASS IV FACILITY(4)-SPACE FUNCTION ZN SPACE FUNCTION SPORTS ARENA PLAYING AREA CLASS IV FACILITY(4) ELEC EQUIP,NECB-B-ELECTRIC-EQUIPMENT,SPORTS ARENA PLAYING AREA CLASS IV FACILITY(4)-SPACE FUNCTION ZN,1875.00,375.1,2813.522,1.501,7.500,0.000,0.500,0.000,0.500,General,281.352,2532.170
 ElectricEquipment Internal Gains Nominal, TRANSPORTATION FACILITY BAGGAGE/CAROUSEL AREA-SPACE FUNCTION ZN SPACE FUNCTION TRANSPORTATION FACILITY BAGGAGE/CAROUSEL AREA ELEC EQUIP,NECB-H-ELECTRIC-EQUIPMENT,TRANSPORTATION FACILITY BAGGAGE/CAROUSEL AREA-SPACE FUNCTION ZN,1875.00,93.8,4689.204,2.501,50.000,0.000,0.500,0.000,0.500,General,4220.283,4220.283
 ElectricEquipment Internal Gains Nominal, TRANSPORTATION FACILITY TERMINAL TICKET COUNTER-SPACE FUNCTION ZN SPACE FUNCTION TRANSPORTATION FACILITY TERMINAL TICKET COUNTER ELEC EQUIP,NECB-H-ELECTRIC-EQUIPMENT,TRANSPORTATION FACILITY TERMINAL TICKET COUNTER-SPACE FUNCTION ZN,1875.00,187.6,4689.204,2.501,25.000,0.000,0.500,0.000,0.500,General,4220.283,4220.283
 ElectricEquipment Internal Gains Nominal, WAREHOUSE STORAGE AREA MEDIUM TO BULKY PALLETIZED ITEMS-SPACE FUNCTION ZN SPACE FUNCTION WAREHOUSE STORAGE AREA MEDIUM TO BULKY PALLETIZED ITEMS ELEC EQUIP,NECB-A-ELECTRIC-EQUIPMENT,WAREHOUSE STORAGE AREA MEDIUM TO BULKY PALLETIZED ITEMS-SPACE FUNCTION ZN,1875.00,18.8,1875.681,1.000,100.000,0.000,0.500,0.000,0.500,General,375.136,1688.113
 ElectricEquipment Internal Gains Nominal, WAREHOUSE STORAGE AREA SMALL HAND-CARRIED ITEMS(4)-SPACE FUNCTION ZN SPACE FUNCTION WAREHOUSE STORAGE AREA SMALL HAND-CARRIED ITEMS(4) ELEC EQUIP,NECB-A-ELECTRIC-EQUIPMENT,WAREHOUSE STORAGE AREA SMALL HAND-CARRIED ITEMS(4)-SPACE FUNCTION ZN,1875.00,37.5,1875.681,1.000,50.000,0.000,0.500,0.000,0.500,General,375.136,1688.113
! <Shadowing/Sun Position Calculations Annual Simulations>, Calculation Method, Value {days}, Allowable Number Figures in Shadow Overlap {}, Polygon Clipping Algorithm, Sky Diffuse Modeling Algorithm, External Shading Calculation Method, Output External Shading Calculation Results, Disable Self-Shading Within Shading Zone Groups, Disable Self-Shading From Shading Zone Groups to Other Zones
Shadowing/Sun Position Calculations Annual Simulations,AverageOverDaysInFrequency,20,15000,SutherlandHodgman,SimpleSkyDiffuseModeling,InternalCalculation,No,No,No
! <ZoneInfiltration Airflow Stats Nominal>,Name,Schedule Name,Zone Name, Zone Floor Area {m2}, # Zone Occupants,Design Volume Flow Rate {m3/s},Volume Flow Rate/Floor Area {m3/s/m2},Volume Flow Rate/Exterior Surface Area {m3/s/m2},ACH - Air Changes per Hour,Equation A - Constant Term Coefficient {},Equation B - Temperature Term Coefficient {1/C},Equation C - Velocity Term Coefficient {s/m}, Equation D - Velocity Squared Term Coefficient {s2/m2}
 ZoneInfiltration Airflow Stats Nominal, MANUFACTURING FACILITY EQUIPMENT ROOM-SPACE FUNCTION INFILTRATION,ALWAYS ON DISCRETE,MANUFACTURING FACILITY EQUIPMENT ROOM-SPACE FUNCTION ZN,1875.00,62.5,0.564,3.007E-004,2.500E-004,0.285,0.000,0.000,0.224,0.000
 ZoneInfiltration Airflow Stats Nominal, MANUFACTURING FACILITY EXTRA HIGH BAY AREA (> 15 M FLOOR-TO-CEILING HEIGHT)-SPACE FUNCTION INFILTRATION,ALWAYS ON DISCRETE,MANUFACTURING FACILITY EXTRA HIGH BAY AREA (> 15 M FLOOR-TO-CEILING HEIGHT)-SPACE FUNCTION ZN,1875.00,62.5,0.564,3.007E-004,2.500E-004,0.285,0.000,0.000,0.224,0.000
 ZoneInfiltration Airflow Stats Nominal, MANUFACTURING FACILITY HIGH BAY AREA (7.5 TO 15 M FLOOR-TO-CEILING HEIGHT)-SPACE FUNCTION INFILTRATION,ALWAYS ON DISCRETE,MANUFACTURING FACILITY HIGH BAY AREA (7.5 TO 15 M FLOOR-TO-CEILING HEIGHT)-SPACE FUNCTION ZN,1875.00,62.5,9.500E-002,5.067E-005,2.500E-004,4.800E-002,0.000,0.000,0.224,0.000
 ZoneInfiltration Airflow Stats Nominal, MANUFACTURING FACILITY LOW BAY AREA (< 7.5 M FLOOR-TO-CEILING HEIGHT)-SPACE FUNCTION INFILTRATION,ALWAYS ON DISCRETE,MANUFACTURING FACILITY LOW BAY AREA (< 7.5 M FLOOR-TO-CEILING HEIGHT)-SPACE FUNCTION ZN,1875.00,62.5,9.500E-002,5.067E-005,2.500E-004,4.800E-002,0.000,0.000,0.224,0.000
 ZoneInfiltration Airflow Stats Nominal, MUSEUM GENERAL EXHIBITION AREA-SPACE FUNCTION INFILTRATION,ALWAYS ON DISCRETE,MUSEUM GENERAL EXHIBITION AREA-SPACE FUNCTION ZN,1875.00,375.1,9.500E-002,5.067E-005,2.500E-004,4.800E-002,0.000,0.000,0.224,0.000
 ZoneInfiltration Airflow Stats Nominal, POST OFFICE SORTING AREA-SPACE FUNCTION INFILTRATION,ALWAYS ON DISCRETE,POST OFFICE SORTING AREA-SPACE FUNCTION ZN,1875.00,93.8,0.564,3.007E-004,2.500E-004,0.285,0.000,0.000,0.224,0.000
 ZoneInfiltration Airflow Stats Nominal, SPACE DESIGNED TO ANSI/IES RP-28 RECREATION ROOM (USED PRIMARILY BY RESIDENTS)-SPACE FUNCTION INFILTRATION,ALWAYS ON DISCRETE,SPACE DESIGNED TO ANSI/IES RP-28 RECREATION ROOM (USED PRIMARILY BY RESIDENTS)-SPACE FUNCTION ZN,2500.00,125.0,0.625,2.500E-004,2.500E-004,0.237,0.000,0.000,0.224,0.000
 ZoneInfiltration Airflow Stats Nominal, SPORTS ARENA PLAYING AREA CLASS I FACILITY(4)-SPACE FUNCTION INFILTRATION,ALWAYS ON DISCRETE,SPORTS ARENA PLAYING AREA CLASS I FACILITY(4)-SPACE FUNCTION ZN,1875.00,375.1,0.564,3.007E-004,2.500E-004,0.285,0.000,0.000,0.224,0.000
 ZoneInfiltration Airflow Stats Nominal, SPORTS ARENA PLAYING AREA CLASS III FACILITY(4)-SPACE FUNCTION INFILTRATION,ALWAYS ON DISCRETE,SPORTS ARENA PLAYING AREA CLASS III FACILITY(4)-SPACE FUNCTION ZN,1875.00,375.1,9.500E-002,5.067E-005,2.500E-004,4.800E-002,0.000,0.000,0.224,0.000
 ZoneInfiltration Airflow Stats Nominal, TRANSPORTATION FACILITY BAGGAGE/CAROUSEL AREA-SPACE FUNCTION INFILTRATION,ALWAYS ON DISCRETE,TRANSPORTATION FACILITY BAGGAGE/CAROUSEL AREA-SPACE FUNCTION ZN,1875.00,93.8,9.500E-002,5.067E-005,2.500E-004,4.800E-002,0.000,0.000,0.224,0.000
 ZoneInfiltration Airflow Stats Nominal, TRANSPORTATION FACILITY TERMINAL TICKET COUNTER-SPACE FUNCTION INFILTRATION,ALWAYS ON DISCRETE,TRANSPORTATION FACILITY TERMINAL TICKET COUNTER-SPACE FUNCTION ZN,1875.00,187.6,9.500E-002,5.067E-005,2.500E-004,4.800E-002,0.000,0.000,0.224,0.000
 ZoneInfiltration Airflow Stats Nominal, WAREHOUSE STORAGE AREA MEDIUM TO BULKY PALLETIZED ITEMS-SPACE FUNCTION INFILTRATION,ALWAYS ON DISCRETE,WAREHOUSE STORAGE AREA MEDIUM TO BULKY PALLETIZED ITEMS-SPACE FUNCTION ZN,1875.00,18.8,9.500E-002,5.067E-005,2.500E-004,4.800E-002,0.000,0.000,0.224,0.000
 ZoneInfiltration Airflow Stats Nominal, WAREHOUSE STORAGE AREA SMALL HAND-CARRIED ITEMS(4)-SPACE FUNCTION INFILTRATION,ALWAYS ON DISCRETE,WAREHOUSE STORAGE AREA SMALL HAND-CARRIED ITEMS(4)-SPACE FUNCTION ZN,1875.00,37.5,9.500E-002,5.067E-005,2.500E-004,4.800E-002,0.000,0.000,0.224,0.000
! <AirFlow Model>, Simple
 AirFlow Model, Simple
! <RoomAir Model>, Zone Name, Mixing/Mundt/UCSDDV/UCSDCV/UCSDUFI/UCSDUFE/User Defined
RoomAir Model,MANUFACTURING FACILITY EQUIPMENT ROOM-SPACE FUNCTION ZN,Mixing/Well-Stirred
RoomAir Model,MANUFACTURING FACILITY EXTRA HIGH BAY AREA (> 15 M FLOOR-TO-CEILING HEIGHT)-SPACE FUNCTION ZN,Mixing/Well-Stirred
RoomAir Model,MANUFACTURING FACILITY HIGH BAY AREA (7.5 TO 15 M FLOOR-TO-CEILING HEIGHT)-SPACE FUNCTION ZN,Mixing/Well-Stirred
RoomAir Model,MANUFACTURING FACILITY LOW BAY AREA (< 7.5 M FLOOR-TO-CEILING HEIGHT)-SPACE FUNCTION ZN,Mixing/Well-Stirred
RoomAir Model,MUSEUM GENERAL EXHIBITION AREA-SPACE FUNCTION ZN,Mixing/Well-Stirred
RoomAir Model,MUSEUM RESTORATION ROOM-SPACE FUNCTION ZN,Mixing/Well-Stirred
RoomAir Model,POST OFFICE SORTING AREA-SPACE FUNCTION ZN,Mixing/Well-Stirred
RoomAir Model,RELIGIOUS BUILDING FELLOWSHIP HALL-SPACE FUNCTION ZN,Mixing/Well-Stirred
RoomAir Model,RETAIL FACILITY DRESSING/FITTING ROOM-SPACE FUNCTION ZN,Mixing/Well-Stirred
RoomAir Model,RETAIL FACILITY MALL CONCOURSE-SPACE FUNCTION ZN,Mixing/Well-Stirred
RoomAir Model,SPACE DESIGNED TO ANSI/IES RP-28 RECREATION ROOM (USED PRIMARILY BY RESIDENTS)-SPACE FUNCTION ZN,Mixing/Well-Stirred
RoomAir Model,SPORTS ARENA PLAYING AREA CLASS I FACILITY(4)-SPACE FUNCTION ZN,Mixing/Well-Stirred
RoomAir Model,SPORTS ARENA PLAYING AREA CLASS II FACILITY(4)-SPACE FUNCTION ZN,Mixing/Well-Stirred
RoomAir Model,SPORTS ARENA PLAYING AREA CLASS III FACILITY(4)-SPACE FUNCTION ZN,Mixing/Well-Stirred
RoomAir Model,SPORTS ARENA PLAYING AREA CLASS IV FACILITY(4)-SPACE FUNCTION ZN,Mixing/Well-Stirred
RoomAir Model,TRANSPORTATION FACILITY AIRPORT CONCOURSE-SPACE FUNCTION ZN,Mixing/Well-Stirred
RoomAir Model,TRANSPORTATION FACILITY BAGGAGE/CAROUSEL AREA-SPACE FUNCTION ZN,Mixing/Well-Stirred
RoomAir Model,TRANSPORTATION FACILITY TERMINAL TICKET COUNTER-SPACE FUNCTION ZN,Mixing/Well-Stirred
RoomAir Model,WAREHOUSE STORAGE AREA MEDIUM TO BULKY PALLETIZED ITEMS-SPACE FUNCTION ZN,Mixing/Well-Stirred
RoomAir Model,WAREHOUSE STORAGE AREA SMALL HAND-CARRIED ITEMS(4)-SPACE FUNCTION ZN,Mixing/Well-Stirred
! <AirflowNetwork Model:Control>, No Multizone or Distribution/Multizone with Distribution/Multizone without Distribution/Multizone with Distribution only during Fan Operation
AirflowNetwork Model:Control,NoMultizoneOrDistribution
! <Zone Volume Capacitance Multiplier>, Sensible Heat Capacity Multiplier, Moisture Capacity Multiplier, Carbon Dioxide Capacity Multiplier, Generic Contaminant Capacity Multiplier
Zone Volume Capacitance Multiplier,   1.000 ,   1.000,   1.000,   1.000
! <Load Timesteps in Zone Design Calculation Averaging Window>, Value
 Load Timesteps in Zone Design Calculation Averaging Window,    6
! <Heating Sizing Factor Information>, Sizing Factor ID, Value
 Heating Sizing Factor Information, Global,   1.2500    
 Heating Sizing Factor Information, Zone MANUFACTURING FACILITY EQUIPMENT ROOM-SPACE FUNCTION ZN,   1.2500    
 Heating Sizing Factor Information, Zone MANUFACTURING FACILITY EXTRA HIGH BAY AREA (> 15 M FLOOR-TO-CEILING HEIGHT)-SPACE FUNCTION ZN,   1.2500    
 Heating Sizing Factor Information, Zone MANUFACTURING FACILITY HIGH BAY AREA (7.5 TO 15 M FLOOR-TO-CEILING HEIGHT)-SPACE FUNCTION ZN,   1.2500    
 Heating Sizing Factor Information, Zone MANUFACTURING FACILITY LOW BAY AREA (< 7.5 M FLOOR-TO-CEILING HEIGHT)-SPACE FUNCTION ZN,   1.2500    
 Heating Sizing Factor Information, Zone MUSEUM GENERAL EXHIBITION AREA-SPACE FUNCTION ZN,   1.2500    
 Heating Sizing Factor Information, Zone MUSEUM RESTORATION ROOM-SPACE FUNCTION ZN,   1.2500    
 Heating Sizing Factor Information, Zone POST OFFICE SORTING AREA-SPACE FUNCTION ZN,   1.2500    
 Heating Sizing Factor Information, Zone RELIGIOUS BUILDING FELLOWSHIP HALL-SPACE FUNCTION ZN,   1.2500    
 Heating Sizing Factor Information, Zone RETAIL FACILITY DRESSING/FITTING ROOM-SPACE FUNCTION ZN,   1.2500    
 Heating Sizing Factor Information, Zone RETAIL FACILITY MALL CONCOURSE-SPACE FUNCTION ZN,   1.2500    
 Heating Sizing Factor Information, Zone SPACE DESIGNED TO ANSI/IES RP-28 RECREATION ROOM (USED PRIMARILY BY RESIDENTS)-SPACE FUNCTION ZN,   1.2500    
 Heating Sizing Factor Information, Zone SPORTS ARENA PLAYING AREA CLASS I FACILITY(4)-SPACE FUNCTION ZN,   1.2500    
 Heating Sizing Factor Information, Zone SPORTS ARENA PLAYING AREA CLASS II FACILITY(4)-SPACE FUNCTION ZN,   1.2500    
 Heating Sizing Factor Information, Zone SPORTS ARENA PLAYING AREA CLASS III FACILITY(4)-SPACE FUNCTION ZN,   1.2500    
 Heating Sizing Factor Information, Zone SPORTS ARENA PLAYING AREA CLASS IV FACILITY(4)-SPACE FUNCTION ZN,   1.2500    
 Heating Sizing Factor Information, Zone TRANSPORTATION FACILITY AIRPORT CONCOURSE-SPACE FUNCTION ZN,   1.2500    
 Heating Sizing Factor Information, Zone TRANSPORTATION FACILITY BAGGAGE/CAROUSEL AREA-SPACE FUNCTION ZN,   1.2500    
 Heating Sizing Factor Information, Zone TRANSPORTATION FACILITY TERMINAL TICKET COUNTER-SPACE FUNCTION ZN,   1.2500    
 Heating Sizing Factor Information, Zone WAREHOUSE STORAGE AREA MEDIUM TO BULKY PALLETIZED ITEMS-SPACE FUNCTION ZN,   1.2500    
 Heating Sizing Factor Information, Zone WAREHOUSE STORAGE AREA SMALL HAND-CARRIED ITEMS(4)-SPACE FUNCTION ZN,   1.2500    
! <Cooling Sizing Factor Information>, Sizing Factor ID, Value
 Cooling Sizing Factor Information, Global,   1.1500    
 Cooling Sizing Factor Information, Zone MANUFACTURING FACILITY EQUIPMENT ROOM-SPACE FUNCTION ZN,   1.1500    
 Cooling Sizing Factor Information, Zone MANUFACTURING FACILITY EXTRA HIGH BAY AREA (> 15 M FLOOR-TO-CEILING HEIGHT)-SPACE FUNCTION ZN,   1.1500    
 Cooling Sizing Factor Information, Zone MANUFACTURING FACILITY HIGH BAY AREA (7.5 TO 15 M FLOOR-TO-CEILING HEIGHT)-SPACE FUNCTION ZN,   1.1500    
 Cooling Sizing Factor Information, Zone MANUFACTURING FACILITY LOW BAY AREA (< 7.5 M FLOOR-TO-CEILING HEIGHT)-SPACE FUNCTION ZN,   1.1500    
 Cooling Sizing Factor Information, Zone MUSEUM GENERAL EXHIBITION AREA-SPACE FUNCTION ZN,   1.1500    
 Cooling Sizing Factor Information, Zone MUSEUM RESTORATION ROOM-SPACE FUNCTION ZN,   1.1500    
 Cooling Sizing Factor Information, Zone POST OFFICE SORTING AREA-SPACE FUNCTION ZN,   1.1500    
 Cooling Sizing Factor Information, Zone RELIGIOUS BUILDING FELLOWSHIP HALL-SPACE FUNCTION ZN,   1.1500    
 Cooling Sizing Factor Information, Zone RETAIL FACILITY DRESSING/FITTING ROOM-SPACE FUNCTION ZN,   1.1500    
 Cooling Sizing Factor Information, Zone RETAIL FACILITY MALL CONCOURSE-SPACE FUNCTION ZN,   1.1500    
 Cooling Sizing Factor Information, Zone SPACE DESIGNED TO ANSI/IES RP-28 RECREATION ROOM (USED PRIMARILY BY RESIDENTS)-SPACE FUNCTION ZN,   1.1500    
 Cooling Sizing Factor Information, Zone SPORTS ARENA PLAYING AREA CLASS I FACILITY(4)-SPACE FUNCTION ZN,   1.1500    
 Cooling Sizing Factor Information, Zone SPORTS ARENA PLAYING AREA CLASS II FACILITY(4)-SPACE FUNCTION ZN,   1.1500    
 Cooling Sizing Factor Information, Zone SPORTS ARENA PLAYING AREA CLASS III FACILITY(4)-SPACE FUNCTION ZN,   1.1500    
 Cooling Sizing Factor Information, Zone SPORTS ARENA PLAYING AREA CLASS IV FACILITY(4)-SPACE FUNCTION ZN,   1.1500    
 Cooling Sizing Factor Information, Zone TRANSPORTATION FACILITY AIRPORT CONCOURSE-SPACE FUNCTION ZN,   1.1500    
 Cooling Sizing Factor Information, Zone TRANSPORTATION FACILITY BAGGAGE/CAROUSEL AREA-SPACE FUNCTION ZN,   1.1500    
 Cooling Sizing Factor Information, Zone TRANSPORTATION FACILITY TERMINAL TICKET COUNTER-SPACE FUNCTION ZN,   1.1500    
 Cooling Sizing Factor Information, Zone WAREHOUSE STORAGE AREA MEDIUM TO BULKY PALLETIZED ITEMS-SPACE FUNCTION ZN,   1.1500    
 Cooling Sizing Factor Information, Zone WAREHOUSE STORAGE AREA SMALL HAND-CARRIED ITEMS(4)-SPACE FUNCTION ZN,   1.1500    
! <Zone Sizing Information>, Zone Name, Load Type, Calc Des Load {W}, User Des Load {W}, Calc Des Air Flow Rate {m3/s}, User Des Air Flow Rate {m3/s}, Design Day Name, Date/Time of Peak, Temperature at Peak {C}, Humidity Ratio at Peak {kgWater/kgDryAir}, Floor Area {m2}, # Occupants, Calc Outdoor Air Flow Rate {m3/s}, Calc DOAS Heat Addition Rate {W}
 Zone Sizing Information, MANUFACTURING FACILITY EQUIPMENT ROOM-SPACE FUNCTION ZN, Cooling, 91717.66134, 105475.31054, 7.79735, 8.96695, FORT MCMURRAY AP ANN CLG .4% CONDNS DB=>MWB, 7/21 13:30:00, 28.59000, 8.76969E-003, 1875.00000, 62.52271, 2.38125, 0.00000
 Zone Sizing Information, MANUFACTURING FACILITY EQUIPMENT ROOM-SPACE FUNCTION ZN, Heating, 44822.46057, 56028.07571, 2.07545, 2.59431, FORT MCMURRAY AP ANN HTG 99.6% CONDNS DB, 1/21 08:00:00, -36.20000, 1.25811E-004, 1875.00000, 62.52271, 2.38125, 0.00000
 Zone Sizing Information, MANUFACTURING FACILITY EXTRA HIGH BAY AREA (> 15 M FLOOR-TO-CEILING HEIGHT)-SPACE FUNCTION ZN, Cooling, 77977.97536, 89674.67166, 6.62925, 7.62364, FORT MCMURRAY AP ANN CLG .4% CONDNS DB=>MWB, 7/21 14:30:00, 28.90000, 8.76969E-003, 1875.00000, 62.52271, 2.38125, 0.00000
 Zone Sizing Information, MANUFACTURING FACILITY EXTRA HIGH BAY AREA (> 15 M FLOOR-TO-CEILING HEIGHT)-SPACE FUNCTION ZN, Heating, 44375.41921, 55469.27401, 2.05437, 2.56796, FORT MCMURRAY AP ANN HTG 99.6% CONDNS DB, 1/21 08:00:00, -36.20000, 1.25811E-004, 1875.00000, 62.52271, 2.38125, 0.00000
 Zone Sizing Information, MANUFACTURING FACILITY HIGH BAY AREA (7.5 TO 15 M FLOOR-TO-CEILING HEIGHT)-SPACE FUNCTION ZN, Cooling, 58285.32024, 67028.11827, 4.95513, 5.69840, FORT MCMURRAY AP ANN CLG .4% CONDNS DB=>MWB, 7/21 15:00:00, 28.90000, 8.76969E-003, 1875.00000, 62.52271, 2.38125, 0.00000
 Zone Sizing Information, MANUFACTURING FACILITY HIGH BAY AREA (7.5 TO 15 M FLOOR-TO-CEILING HEIGHT)-SPACE FUNCTION ZN, Heating, 8187.89052, 10234.86315, 0.37646, 2.38125, FORT MCMURRAY AP ANN HTG 99.6% CONDNS DB, 1/21 08:00:00, -36.20000, 1.25811E-004, 1875.00000, 62.52271, 2.38125, 0.00000
 Zone Sizing Information, MANUFACTURING FACILITY LOW BAY AREA (< 7.5 M FLOOR-TO-CEILING HEIGHT)-SPACE FUNCTION ZN, Cooling, 46712.01292, 53718.81486, 3.97131, 4.56701, FORT MCMURRAY AP ANN CLG .4% CONDNS DB=>MWB, 7/21 17:00:00, 27.16400, 8.76969E-003, 1875.00000, 62.52271, 2.38125, 0.00000
 Zone Sizing Information, MANUFACTURING FACILITY LOW BAY AREA (< 7.5 M FLOOR-TO-CEILING HEIGHT)-SPACE FUNCTION ZN, Heating, 11659.53180, 14574.41475, 0.53237, 2.38125, FORT MCMURRAY AP ANN HTG 99.6% CONDNS DB, 1/21 08:00:00, -36.20000, 1.25811E-004, 1875.00000, 62.52271, 2.38125, 0.00000
 Zone Sizing Information, MUSEUM GENERAL EXHIBITION AREA-SPACE FUNCTION ZN, Cooling, 70652.03738, 81249.84298, 6.00842, 6.90968, FORT MCMURRAY AP ANN CLG .4% CONDNS DB=>MWB, 7/21 17:30:00, 26.54400, 8.76969E-003, 1875.00000, 375.13628, 3.42900, 0.00000
 Zone Sizing Information, MUSEUM GENERAL EXHIBITION AREA-SPACE FUNCTION ZN, Heating, 8556.00730, 10695.00912, 0.38554, 3.42900, FORT MCMURRAY AP ANN HTG 99.6% CONDNS DB, 1/21 09:00:00, -36.20000, 1.25811E-004, 1875.00000, 375.13628, 3.42900, 0.00000
 Zone Sizing Information, MUSEUM RESTORATION ROOM-SPACE FUNCTION ZN, Cooling, 28124.44255, 32343.10893, 2.39115, 2.74982, FORT MCMURRAY AP ANN CLG .4% CONDNS DB=>MWB, 7/21 17:00:00, 27.16400, 8.76969E-003, 1875.00000, 93.78407, 1.61925, 0.00000
 Zone Sizing Information, MUSEUM RESTORATION ROOM-SPACE FUNCTION ZN, Heating, 0.00000, 0.00000, 0.00000, 1.61925, FORT MCMURRAY AP ANN HTG 99.6% CONDNS DB, , -36.20000, 1.25811E-004, 1875.00000, 93.78407, 1.61925, 0.00000
 Zone Sizing Information, POST OFFICE SORTING AREA-SPACE FUNCTION ZN, Cooling, 84784.75391, 97502.46699, 7.20833, 8.28958, FORT MCMURRAY AP ANN CLG .4% CONDNS DB=>MWB, 7/21 10:20:00, 24.80800, 8.76969E-003, 1875.00000, 93.78407, 1.64783, 0.00000
 Zone Sizing Information, POST OFFICE SORTING AREA-SPACE FUNCTION ZN, Heating, 42978.49647, 53723.12059, 1.98882, 2.48602, FORT MCMURRAY AP ANN HTG 99.6% CONDNS DB, 1/21 08:00:00, -36.20000, 1.25811E-004, 1875.00000, 93.78407, 1.64783, 0.00000
 Zone Sizing Information, RELIGIOUS BUILDING FELLOWSHIP HALL-SPACE FUNCTION ZN, Cooling, 29309.39055, 33705.79913, 2.49259, 6.28650, FORT MCMURRAY AP ANN CLG .4% CONDNS DB=>MWB, 7/21 17:00:00, 27.16400, 8.76969E-003, 1875.00000, 375.13628, 6.28650, 0.00000
 Zone Sizing Information, RELIGIOUS BUILDING FELLOWSHIP HALL-SPACE FUNCTION ZN, Heating, 0.00000, 0.00000, 0.00000, 6.28650, FORT MCMURRAY AP ANN HTG 99.6% CONDNS DB, , -36.20000, 1.25811E-004, 1875.00000, 375.13628, 6.28650, 0.00000
 Zone Sizing Information, RETAIL FACILITY DRESSING/FITTING ROOM-SPACE FUNCTION ZN, Cooling, 41563.37022, 47797.87575, 3.18390, 3.66148, FORT MCMURRAY AP ANN CLG .4% CONDNS DB=>MWB, 7/21 08:00:00, 19.72400, 8.76969E-003, 2500.00000, 83.36362, 2.95910, 0.00000
 Zone Sizing Information, RETAIL FACILITY DRESSING/FITTING ROOM-SPACE FUNCTION ZN, Heating, 0.00000, 0.00000, 0.00000, 2.95910, FORT MCMURRAY AP ANN HTG 99.6% CONDNS DB, , -36.20000, 1.25811E-004, 2500.00000, 83.36362, 2.95910, 0.00000
 Zone Sizing Information, RETAIL FACILITY MALL CONCOURSE-SPACE FUNCTION ZN, Cooling, 33117.52853, 38085.15781, 2.81561, 4.57200, FORT MCMURRAY AP ANN CLG .4% CONDNS DB=>MWB, 7/21 17:00:00, 27.16400, 8.76969E-003, 2500.00000, 125.04543, 4.57200, 0.00000
 Zone Sizing Information, RETAIL FACILITY MALL CONCOURSE-SPACE FUNCTION ZN, Heating, 0.00000, 0.00000, 0.00000, 4.57200, FORT MCMURRAY AP ANN HTG 99.6% CONDNS DB, , -36.20000, 1.25811E-004, 2500.00000, 125.04543, 4.57200, 0.00000
 Zone Sizing Information, SPACE DESIGNED TO ANSI/IES RP-28 RECREATION ROOM (USED PRIMARILY BY RESIDENTS)-SPACE FUNCTION ZN, Cooling, 107404.62435, 123515.31800, 9.13140, 10.50111, FORT MCMURRAY AP ANN CLG .4% CONDNS DB=>MWB, 7/21 13:20:00, 28.48667, 8.76969E-003, 2500.00000, 125.04543, 9.14400, 0.00000
 Zone Sizing Information, SPACE DESIGNED TO ANSI/IES RP-28 RECREATION ROOM (USED PRIMARILY BY RESIDENTS)-SPACE FUNCTION ZN, Heating, 30133.19402, 37666.49252, 1.23701, 9.14400, FORT MCMURRAY AP ANN HTG 99.6% CONDNS DB, 1/21 09:00:00, -36.20000, 1.25811E-004, 2500.00000, 125.04543, 9.14400, 0.00000
 Zone Sizing Information, SPORTS ARENA PLAYING AREA CLASS I FACILITY(4)-SPACE FUNCTION ZN, Cooling, 122552.85667, 140935.78517, 10.42226, 11.98560, FORT MCMURRAY AP ANN CLG .4% CONDNS DB=>MWB, 7/21 14:00:00, 28.90000, 8.76969E-003, 1875.00000, 375.13628, 2.85750, 0.00000
 Zone Sizing Information, SPORTS ARENA PLAYING AREA CLASS I FACILITY(4)-SPACE FUNCTION ZN, Heating, 35233.46041, 44041.82552, 1.46492, 2.85750, FORT MCMURRAY AP ANN HTG 99.6% CONDNS DB, 1/21 09:00:00, -36.20000, 1.25811E-004, 1875.00000, 375.13628, 2.85750, 0.00000
 Zone Sizing Information, SPORTS ARENA PLAYING AREA CLASS II FACILITY(4)-SPACE FUNCTION ZN, Cooling, 56124.65461, 64543.35280, 4.77298, 5.48893, FORT MCMURRAY AP ANN CLG .4% CONDNS DB=>MWB, 7/21 20:10:00, 22.51400, 8.76969E-003, 1875.00000, 375.13628, 2.85750, 0.00000
 Zone Sizing Information, SPORTS ARENA PLAYING AREA CLASS II FACILITY(4)-SPACE FUNCTION ZN, Heating, 0.00000, 0.00000, 0.00000, 2.85750, FORT MCMURRAY AP ANN HTG 99.6% CONDNS DB, , -36.20000, 1.25811E-004, 1875.00000, 375.13628, 2.85750, 0.00000
 Zone Sizing Information, SPORTS ARENA PLAYING AREA CLASS III FACILITY(4)-SPACE FUNCTION ZN, Cooling, 66862.74108, 76892.15224, 5.68582, 6.53869, FORT MCMURRAY AP ANN CLG .4% CONDNS DB=>MWB, 7/21 13:00:00, 28.28000, 8.76969E-003, 1875.00000, 375.13628, 2.85750, 0.00000
 Zone Sizing Information, SPORTS ARENA PLAYING AREA CLASS III FACILITY(4)-SPACE FUNCTION ZN, Heating, 5009.43650, 6261.79562, 0.22197, 2.85750, FORT MCMURRAY AP ANN HTG 99.6% CONDNS DB, 1/21 09:10:00, -36.20000, 1.25811E-004, 1875.00000, 375.13628, 2.85750, 0.00000
 Zone Sizing Information, SPORTS ARENA PLAYING AREA CLASS IV FACILITY(4)-SPACE FUNCTION ZN, Cooling, 41607.56704, 47848.70210, 3.53864, 4.06943, FORT MCMURRAY AP ANN CLG .4% CONDNS DB=>MWB, 7/21 21:00:00, 21.58400, 8.76969E-003, 1875.00000, 375.13628, 2.85750, 0.00000
 Zone Sizing Information, SPORTS ARENA PLAYING AREA CLASS IV FACILITY(4)-SPACE FUNCTION ZN, Heating, 0.00000, 0.00000, 0.00000, 2.85750, FORT MCMURRAY AP ANN HTG 99.6% CONDNS DB, , -36.20000, 1.25811E-004, 1875.00000, 375.13628, 2.85750, 0.00000
 Zone Sizing Information, TRANSPORTATION FACILITY AIRPORT CONCOURSE-SPACE FUNCTION ZN, Cooling, 17624.07928, 20267.69117, 1.49833, 10.28700, FORT MCMURRAY AP ANN CLG .4% CONDNS DB=>MWB, 7/21 06:30:00, 17.18200, 8.76969E-003, 2500.00000, 125.04543, 10.28700, 0.00000
 Zone Sizing Information, TRANSPORTATION FACILITY AIRPORT CONCOURSE-SPACE FUNCTION ZN, Heating, 0.00000, 0.00000, 0.00000, 10.28700, FORT MCMURRAY AP ANN HTG 99.6% CONDNS DB, , -36.20000, 1.25811E-004, 2500.00000, 125.04543, 10.28700, 0.00000
 Zone Sizing Information, TRANSPORTATION FACILITY BAGGAGE/CAROUSEL AREA-SPACE FUNCTION ZN, Cooling, 25799.99387, 29669.99295, 2.19353, 2.52256, FORT MCMURRAY AP ANN CLG .4% CONDNS DB=>MWB, 7/21 20:10:00, 22.51400, 8.76969E-003, 1875.00000, 93.78407, 1.64783, 0.00000
 Zone Sizing Information, TRANSPORTATION FACILITY BAGGAGE/CAROUSEL AREA-SPACE FUNCTION ZN, Heating, 0.00000, 0.00000, 0.00000, 1.64783, FORT MCMURRAY AP ANN HTG 99.6% CONDNS DB, , -36.20000, 1.25811E-004, 1875.00000, 93.78407, 1.64783, 0.00000
 Zone Sizing Information, TRANSPORTATION FACILITY TERMINAL TICKET COUNTER-SPACE FUNCTION ZN, Cooling, 45474.95895, 52296.20279, 3.86672, 4.44672, FORT MCMURRAY AP ANN CLG .4% CONDNS DB=>MWB, 7/21 13:50:00, 28.79667, 8.76969E-003, 1875.00000, 187.56814, 1.64783, 0.00000
 Zone Sizing Information, TRANSPORTATION FACILITY TERMINAL TICKET COUNTER-SPACE FUNCTION ZN, Heating, 0.00000, 0.00000, 0.00000, 1.64783, FORT MCMURRAY AP ANN HTG 99.6% CONDNS DB, , -36.20000, 1.25811E-004, 1875.00000, 187.56814, 1.64783, 0.00000
 Zone Sizing Information, WAREHOUSE STORAGE AREA MEDIUM TO BULKY PALLETIZED ITEMS-SPACE FUNCTION ZN, Cooling, 36804.44889, 42325.11623, 3.12884, 3.59817, FORT MCMURRAY AP ANN CLG .4% CONDNS DB=>MWB, 7/21 17:50:00, 26.13067, 8.76969E-003, 1875.00000, 18.75681, 0.57150, 0.00000
 Zone Sizing Information, WAREHOUSE STORAGE AREA MEDIUM TO BULKY PALLETIZED ITEMS-SPACE FUNCTION ZN, Heating, 5650.29814, 7062.87267, 0.26292, 0.57150, FORT MCMURRAY AP ANN HTG 99.6% CONDNS DB, 1/21 08:00:00, -36.20000, 1.25811E-004, 1875.00000, 18.75681, 0.57150, 0.00000
 Zone Sizing Information, WAREHOUSE STORAGE AREA SMALL HAND-CARRIED ITEMS(4)-SPACE FUNCTION ZN, Cooling, 48246.90997, 55483.94646, 3.71725, 4.27483, FORT MCMURRAY AP ANN CLG .4% CONDNS DB=>MWB, 7/21 07:00:00, 17.61600, 8.76969E-003, 1875.00000, 37.51363, 0.57150, 0.00000
 Zone Sizing Information, WAREHOUSE STORAGE AREA SMALL HAND-CARRIED ITEMS(4)-SPACE FUNCTION ZN, Heating, 0.00000, 0.00000, 0.00000, 0.57150, FORT MCMURRAY AP ANN HTG 99.6% CONDNS DB, , -36.20000, 1.25811E-004, 1875.00000, 37.51363, 0.57150, 0.00000
! <Component Sizing Information>, Component Type, Component Name, Input Field Description, Value
 Component Sizing Information, ZoneHVAC:IdealLoadsAirSystem, ZONE HVAC IDEAL LOADS AIR SYSTEM 1, User-Specified Maximum Heating Air Flow Rate [m3/s], 0.00000
 Component Sizing Information, ZoneHVAC:IdealLoadsAirSystem, ZONE HVAC IDEAL LOADS AIR SYSTEM 1, User-Specified Maximum Cooling Air Flow Rate [m3/s], 0.00000
 Component Sizing Information, ZoneHVAC:IdealLoadsAirSystem, ZONE HVAC IDEAL LOADS AIR SYSTEM 2, User-Specified Maximum Heating Air Flow Rate [m3/s], 0.00000
 Component Sizing Information, ZoneHVAC:IdealLoadsAirSystem, ZONE HVAC IDEAL LOADS AIR SYSTEM 2, User-Specified Maximum Cooling Air Flow Rate [m3/s], 0.00000
 Component Sizing Information, ZoneHVAC:IdealLoadsAirSystem, ZONE HVAC IDEAL LOADS AIR SYSTEM 3, User-Specified Maximum Heating Air Flow Rate [m3/s], 0.00000
 Component Sizing Information, ZoneHVAC:IdealLoadsAirSystem, ZONE HVAC IDEAL LOADS AIR SYSTEM 3, User-Specified Maximum Cooling Air Flow Rate [m3/s], 0.00000
 Component Sizing Information, ZoneHVAC:IdealLoadsAirSystem, ZONE HVAC IDEAL LOADS AIR SYSTEM 4, User-Specified Maximum Heating Air Flow Rate [m3/s], 0.00000
 Component Sizing Information, ZoneHVAC:IdealLoadsAirSystem, ZONE HVAC IDEAL LOADS AIR SYSTEM 4, User-Specified Maximum Cooling Air Flow Rate [m3/s], 0.00000
 Component Sizing Information, ZoneHVAC:IdealLoadsAirSystem, ZONE HVAC IDEAL LOADS AIR SYSTEM 5, User-Specified Maximum Heating Air Flow Rate [m3/s], 0.00000
 Component Sizing Information, ZoneHVAC:IdealLoadsAirSystem, ZONE HVAC IDEAL LOADS AIR SYSTEM 5, User-Specified Maximum Cooling Air Flow Rate [m3/s], 0.00000
 Component Sizing Information, ZoneHVAC:IdealLoadsAirSystem, ZONE HVAC IDEAL LOADS AIR SYSTEM 6, User-Specified Maximum Heating Air Flow Rate [m3/s], 0.00000
 Component Sizing Information, ZoneHVAC:IdealLoadsAirSystem, ZONE HVAC IDEAL LOADS AIR SYSTEM 6, User-Specified Maximum Cooling Air Flow Rate [m3/s], 0.00000
 Component Sizing Information, ZoneHVAC:IdealLoadsAirSystem, ZONE HVAC IDEAL LOADS AIR SYSTEM 7, User-Specified Maximum Heating Air Flow Rate [m3/s], 0.00000
 Component Sizing Information, ZoneHVAC:IdealLoadsAirSystem, ZONE HVAC IDEAL LOADS AIR SYSTEM 7, User-Specified Maximum Cooling Air Flow Rate [m3/s], 0.00000
 Component Sizing Information, ZoneHVAC:IdealLoadsAirSystem, ZONE HVAC IDEAL LOADS AIR SYSTEM 8, User-Specified Maximum Heating Air Flow Rate [m3/s], 0.00000
 Component Sizing Information, ZoneHVAC:IdealLoadsAirSystem, ZONE HVAC IDEAL LOADS AIR SYSTEM 8, User-Specified Maximum Cooling Air Flow Rate [m3/s], 0.00000
 Component Sizing Information, ZoneHVAC:IdealLoadsAirSystem, ZONE HVAC IDEAL LOADS AIR SYSTEM 9, User-Specified Maximum Heating Air Flow Rate [m3/s], 0.00000
 Component Sizing Information, ZoneHVAC:IdealLoadsAirSystem, ZONE HVAC IDEAL LOADS AIR SYSTEM 9, User-Specified Maximum Cooling Air Flow Rate [m3/s], 0.00000
 Component Sizing Information, ZoneHVAC:IdealLoadsAirSystem, ZONE HVAC IDEAL LOADS AIR SYSTEM 10, User-Specified Maximum Heating Air Flow Rate [m3/s], 0.00000
 Component Sizing Information, ZoneHVAC:IdealLoadsAirSystem, ZONE HVAC IDEAL LOADS AIR SYSTEM 10, User-Specified Maximum Cooling Air Flow Rate [m3/s], 0.00000
 Component Sizing Information, ZoneHVAC:IdealLoadsAirSystem, ZONE HVAC IDEAL LOADS AIR SYSTEM 11, User-Specified Maximum Heating Air Flow Rate [m3/s], 0.00000
 Component Sizing Information, ZoneHVAC:IdealLoadsAirSystem, ZONE HVAC IDEAL LOADS AIR SYSTEM 11, User-Specified Maximum Cooling Air Flow Rate [m3/s], 0.00000
 Component Sizing Information, ZoneHVAC:IdealLoadsAirSystem, ZONE HVAC IDEAL LOADS AIR SYSTEM 12, User-Specified Maximum Heating Air Flow Rate [m3/s], 0.00000
 Component Sizing Information, ZoneHVAC:IdealLoadsAirSystem, ZONE HVAC IDEAL LOADS AIR SYSTEM 12, User-Specified Maximum Cooling Air Flow Rate [m3/s], 0.00000
 Component Sizing Information, ZoneHVAC:IdealLoadsAirSystem, ZONE HVAC IDEAL LOADS AIR SYSTEM 13, User-Specified Maximum Heating Air Flow Rate [m3/s], 0.00000
 Component Sizing Information, ZoneHVAC:IdealLoadsAirSystem, ZONE HVAC IDEAL LOADS AIR SYSTEM 13, User-Specified Maximum Cooling Air Flow Rate [m3/s], 0.00000
 Component Sizing Information, ZoneHVAC:IdealLoadsAirSystem, ZONE HVAC IDEAL LOADS AIR SYSTEM 14, User-Specified Maximum Heating Air Flow Rate [m3/s], 0.00000
 Component Sizing Information, ZoneHVAC:IdealLoadsAirSystem, ZONE HVAC IDEAL LOADS AIR SYSTEM 14, User-Specified Maximum Cooling Air Flow Rate [m3/s], 0.00000
 Component Sizing Information, ZoneHVAC:IdealLoadsAirSystem, ZONE HVAC IDEAL LOADS AIR SYSTEM 15, User-Specified Maximum Heating Air Flow Rate [m3/s], 0.00000
 Component Sizing Information, ZoneHVAC:IdealLoadsAirSystem, ZONE HVAC IDEAL LOADS AIR SYSTEM 15, User-Specified Maximum Cooling Air Flow Rate [m3/s], 0.00000
 Component Sizing Information, ZoneHVAC:IdealLoadsAirSystem, ZONE HVAC IDEAL LOADS AIR SYSTEM 16, User-Specified Maximum Heating Air Flow Rate [m3/s], 0.00000
 Component Sizing Information, ZoneHVAC:IdealLoadsAirSystem, ZONE HVAC IDEAL LOADS AIR SYSTEM 16, User-Specified Maximum Cooling Air Flow Rate [m3/s], 0.00000
 Component Sizing Information, ZoneHVAC:IdealLoadsAirSystem, ZONE HVAC IDEAL LOADS AIR SYSTEM 17, User-Specified Maximum Heating Air Flow Rate [m3/s], 0.00000
 Component Sizing Information, ZoneHVAC:IdealLoadsAirSystem, ZONE HVAC IDEAL LOADS AIR SYSTEM 17, User-Specified Maximum Cooling Air Flow Rate [m3/s], 0.00000
 Component Sizing Information, ZoneHVAC:IdealLoadsAirSystem, ZONE HVAC IDEAL LOADS AIR SYSTEM 18, User-Specified Maximum Heating Air Flow Rate [m3/s], 0.00000
 Component Sizing Information, ZoneHVAC:IdealLoadsAirSystem, ZONE HVAC IDEAL LOADS AIR SYSTEM 18, User-Specified Maximum Cooling Air Flow Rate [m3/s], 0.00000
 Component Sizing Information, ZoneHVAC:IdealLoadsAirSystem, ZONE HVAC IDEAL LOADS AIR SYSTEM 19, User-Specified Maximum Heating Air Flow Rate [m3/s], 0.00000
 Component Sizing Information, ZoneHVAC:IdealLoadsAirSystem, ZONE HVAC IDEAL LOADS AIR SYSTEM 19, User-Specified Maximum Cooling Air Flow Rate [m3/s], 0.00000
 Component Sizing Information, ZoneHVAC:IdealLoadsAirSystem, ZONE HVAC IDEAL LOADS AIR SYSTEM 20, User-Specified Maximum Heating Air Flow Rate [m3/s], 0.00000
 Component Sizing Information, ZoneHVAC:IdealLoadsAirSystem, ZONE HVAC IDEAL LOADS AIR SYSTEM 20, User-Specified Maximum Cooling Air Flow Rate [m3/s], 0.00000
! <Environment>,Environment Name,Environment Type, Start Date, End Date, Start DayOfWeek, Duration {#days}, Source:Start DayOfWeek,  Use Daylight Saving, Use Holidays, Apply Weekend Holiday Rule,  Use Rain Values, Use Snow Values
! <Environment:Special Days>, Special Day Name, Special Day Type, Source, Start Date, Duration {#days}
! <Environment:Daylight Saving>, Daylight Saving Indicator, Source, Start Date, End Date
! <Environment:WarmupDays>, NumberofWarmupDays
Environment,FORT MCMURRAY AP ANN CLG .4% CONDNS DB=>MWB,SizingPeriod:DesignDay,07/21,07/21,SummerDesignDay,1,N/A,N/A,N/A,N/A,N/A,N/A
Environment:Daylight Saving,No,SizingPeriod:DesignDay
! <Environment:Design Day Data>, Max Dry-Bulb Temp {C}, Temp Range {dC}, Temp Range Ind Type, Hum Ind Value at Max Temp, Hum Ind Type,Pressure {Pa}, Wind Direction {deg CW from N}, Wind Speed {m/s}, Clearness, Rain, Snow
! <Environment:Design Day Misc>,DayOfYear,ASHRAE A Coeff,ASHRAE B Coeff,ASHRAE C Coeff,Solar Constant-Annual Variation,Eq of Time {minutes}, Solar Declination Angle {deg}, Solar Model
Environment:Design Day Data,28.90,12.40,DefaultMultipliers,96969,250,3.7,0.00,No,No
Environment:Design Day Misc,202,1084.4,0.2082,0.1365,1.0,-6.23,20.6,ASHRAETau
Environment:WarmupDays,  6
! <Tabular Report>,Style,Unit Conversion
Tabular Report,HTML,None
! <Warmup Convergence Information>,Zone Name,Environment Type/Name,Average Warmup Temperature Difference {deltaC},Std Dev Warmup Temperature Difference {deltaC},Max Temperature Pass/Fail Convergence,Min Temperature Pass/Fail Convergence,Average Warmup Load Difference {W},Std Dev Warmup Load Difference {W},Heating Load Pass/Fail Convergence,Cooling Load Pass/Fail Convergence
 Warmup Convergence Information,MANUFACTURING FACILITY EQUIPMENT ROOM-SPACE FUNCTION ZN,SizingPeriod: FORT MCMURRAY AP ANN CLG .4% CONDNS DB=>MWB,4.1692572861E-002,6.9221330482E-002,Pass,Pass,3.5212158626E-002,9.7723521801E-002,Pass,Pass
 Warmup Convergence Information,MANUFACTURING FACILITY EXTRA HIGH BAY AREA (> 15 M FLOOR-TO-CEILING HEIGHT)-SPACE FUNCTION ZN,SizingPeriod: FORT MCMURRAY AP ANN CLG .4% CONDNS DB=>MWB,4.1663378182E-002,6.7409940008E-002,Pass,Pass,3.3748027119E-002,9.8626647244E-002,Pass,Pass
 Warmup Convergence Information,MANUFACTURING FACILITY HIGH BAY AREA (7.5 TO 15 M FLOOR-TO-CEILING HEIGHT)-SPACE FUNCTION ZN,SizingPeriod: FORT MCMURRAY AP ANN CLG .4% CONDNS DB=>MWB,3.0787686390E-002,7.3225558727E-002,Pass,Pass,3.1457101924E-002,0.1458160980,Pass,Pass
 Warmup Convergence Information,MANUFACTURING FACILITY LOW BAY AREA (< 7.5 M FLOOR-TO-CEILING HEIGHT)-SPACE FUNCTION ZN,SizingPeriod: FORT MCMURRAY AP ANN CLG .4% CONDNS DB=>MWB,2.8908367106E-002,5.9387944235E-002,Pass,Pass,2.9951063530E-002,0.1254418604,Pass,Pass
 Warmup Convergence Information,MUSEUM GENERAL EXHIBITION AREA-SPACE FUNCTION ZN,SizingPeriod: FORT MCMURRAY AP ANN CLG .4% CONDNS DB=>MWB,3.5999261726E-002,7.2855079267E-002,Pass,Pass,3.5825145049E-002,0.1451434119,Pass,Pass
 Warmup Convergence Information,MUSEUM RESTORATION ROOM-SPACE FUNCTION ZN,SizingPeriod: FORT MCMURRAY AP ANN CLG .4% CONDNS DB=>MWB,2.3220549349E-002,4.2003192787E-002,Pass,Pass,3.3446630637E-002,0.1182789012,Pass,Pass
 Warmup Convergence Information,POST OFFICE SORTING AREA-SPACE FUNCTION ZN,SizingPeriod: FORT MCMURRAY AP ANN CLG .4% CONDNS DB=>MWB,3.5735998461E-002,6.2228338804E-002,Pass,Pass,4.1270003797E-002,0.1547348260,Pass,Pass
 Warmup Convergence Information,RELIGIOUS BUILDING FELLOWSHIP HALL-SPACE FUNCTION ZN,SizingPeriod: FORT MCMURRAY AP ANN CLG .4% CONDNS DB=>MWB,5.9719600483E-002,0.1147713321,Pass,Pass,4.1150744103E-002,8.6241590302E-002,Pass,Pass
 Warmup Convergence Information,RETAIL FACILITY DRESSING/FITTING ROOM-SPACE FUNCTION ZN,SizingPeriod: FORT MCMURRAY AP ANN CLG .4% CONDNS DB=>MWB,2.9718509912E-002,4.7968647197E-002,Pass,Pass,3.2016786731E-002,0.1094338952,Pass,Pass
 Warmup Convergence Information,RETAIL FACILITY MALL CONCOURSE-SPACE FUNCTION ZN,SizingPeriod: FORT MCMURRAY AP ANN CLG .4% CONDNS DB=>MWB,3.6551589945E-002,5.9292733809E-002,Pass,Pass,2.8603622135E-002,6.0499488602E-002,Pass,Pass
 Warmup Convergence Information,SPACE DESIGNED TO ANSI/IES RP-28 RECREATION ROOM (USED PRIMARILY BY RESIDENTS)-SPACE FUNCTION ZN,SizingPeriod: FORT MCMURRAY AP ANN CLG .4% CONDNS DB=>MWB,6.4264982594E-002,0.1175576478,Pass,Pass,2.8626009570E-002,5.6830265626E-002,Pass,Pass
 Warmup Convergence Information,SPORTS ARENA PLAYING AREA CLASS I FACILITY(4)-SPACE FUNCTION ZN,SizingPeriod: FORT MCMURRAY AP ANN CLG .4% CONDNS DB=>MWB,4.9666899547E-002,0.1157186869,Pass,Pass,3.5445512191E-002,0.1325272952,Pass,Pass
 Warmup Convergence Information,SPORTS ARENA PLAYING AREA CLASS II FACILITY(4)-SPACE FUNCTION ZN,SizingPeriod: FORT MCMURRAY AP ANN CLG .4% CONDNS DB=>MWB,2.8047575355E-002,5.9993303163E-002,Pass,Pass,3.1773330638E-002,9.2096587312E-002,Pass,Pass
 Warmup Convergence Information,SPORTS ARENA PLAYING AREA CLASS III FACILITY(4)-SPACE FUNCTION ZN,SizingPeriod: FORT MCMURRAY AP ANN CLG .4% CONDNS DB=>MWB,3.5864154652E-002,0.1049724498,Pass,Pass,2.6995958064E-002,8.3094140735E-002,Pass,Pass
 Warmup Convergence Information,SPORTS ARENA PLAYING AREA CLASS IV FACILITY(4)-SPACE FUNCTION ZN,SizingPeriod: FORT MCMURRAY AP ANN CLG .4% CONDNS DB=>MWB,2.5960495047E-002,5.1337673577E-002,Pass,Pass,3.4051194295E-002,6.8037543844E-002,Pass,Pass
 Warmup Convergence Information,TRANSPORTATION FACILITY AIRPORT CONCOURSE-SPACE FUNCTION ZN,SizingPeriod: FORT MCMURRAY AP ANN CLG .4% CONDNS DB=>MWB,5.7899019234E-002,9.9884588471E-002,Pass,Pass,4.2622818596E-002,8.0275731257E-002,Pass,Pass
 Warmup Convergence Information,TRANSPORTATION FACILITY BAGGAGE/CAROUSEL AREA-SPACE FUNCTION ZN,SizingPeriod: FORT MCMURRAY AP ANN CLG .4% CONDNS DB=>MWB,3.4046839422E-014,3.0631784492E-014,Pass,Pass,5.7414237608E-003,3.3467279429E-003,Pass,Pass
 Warmup Convergence Information,TRANSPORTATION FACILITY TERMINAL TICKET COUNTER-SPACE FUNCTION ZN,SizingPeriod: FORT MCMURRAY AP ANN CLG .4% CONDNS DB=>MWB,5.2599899744E-014,4.4661389011E-014,Pass,Pass,5.0702779395E-003,4.4188780152E-003,Pass,Pass
 Warmup Convergence Information,WAREHOUSE STORAGE AREA MEDIUM TO BULKY PALLETIZED ITEMS-SPACE FUNCTION ZN,SizingPeriod: FORT MCMURRAY AP ANN CLG .4% CONDNS DB=>MWB,2.8060214031E-002,0.1079228669,Pass,Pass,8.0235391881E-002,0.5070497485,Pass,Pass
 Warmup Convergence Information,WAREHOUSE STORAGE AREA SMALL HAND-CARRIED ITEMS(4)-SPACE FUNCTION ZN,SizingPeriod: FORT MCMURRAY AP ANN CLG .4% CONDNS DB=>MWB,4.2673970222E-002,0.2141952772,Pass,Pass,7.5426858585E-002,0.5284058362,Pass,Pass
Environment,FORT MCMURRAY AP ANN HTG 99.6% CONDNS DB,SizingPeriod:DesignDay,01/21,01/21,WinterDesignDay,1,N/A,N/A,N/A,N/A,N/A,N/A
Environment:Daylight Saving,No,SizingPeriod:DesignDay
Environment:Design Day Data,-36.20,0.00,DefaultMultipliers,96969,90,1.0,0.00,No,No
Environment:Design Day Misc, 21,1229.0,0.1415,5.7310E-002,1.0,-11.15,-20.1,ASHRAEClearSky
Environment:WarmupDays,  6
 Warmup Convergence Information,MANUFACTURING FACILITY EQUIPMENT ROOM-SPACE FUNCTION ZN,SizingPeriod: FORT MCMURRAY AP ANN HTG 99.6% CONDNS DB,5.5555555556E-002,0.3652539433,Pass,Pass,8.6560379316E-002,0.2989966607,Pass,Pass
 Warmup Convergence Information,MANUFACTURING FACILITY EXTRA HIGH BAY AREA (> 15 M FLOOR-TO-CEILING HEIGHT)-SPACE FUNCTION ZN,SizingPeriod: FORT MCMURRAY AP ANN HTG 99.6% CONDNS DB,5.5555555556E-002,0.3652078477,Pass,Pass,9.0617569790E-002,0.2988569603,Pass,Pass
 Warmup Convergence Information,MANUFACTURING FACILITY HIGH BAY AREA (7.5 TO 15 M FLOOR-TO-CEILING HEIGHT)-SPACE FUNCTION ZN,SizingPeriod: FORT MCMURRAY AP ANN HTG 99.6% CONDNS DB,5.5634693317E-002,0.3619064221,Pass,Pass,0.2297862013,0.8575361289,Pass,Pass
 Warmup Convergence Information,MANUFACTURING FACILITY LOW BAY AREA (< 7.5 M FLOOR-TO-CEILING HEIGHT)-SPACE FUNCTION ZN,SizingPeriod: FORT MCMURRAY AP ANN HTG 99.6% CONDNS DB,5.5621999979E-002,0.3619260743,Pass,Pass,0.3710164432,2.2292810388,Pass,Pass
 Warmup Convergence Information,MUSEUM GENERAL EXHIBITION AREA-SPACE FUNCTION ZN,SizingPeriod: FORT MCMURRAY AP ANN HTG 99.6% CONDNS DB,5.5555555556E-002,0.3734805493,Pass,Pass,0.1555241555,0.6724773534,Pass,Pass
 Warmup Convergence Information,MUSEUM RESTORATION ROOM-SPACE FUNCTION ZN,SizingPeriod: FORT MCMURRAY AP ANN HTG 99.6% CONDNS DB,5.6900998439E-002,0.3471279373,Pass,Pass,0.2803773203,1.6846285503,Pass,Pass
 Warmup Convergence Information,POST OFFICE SORTING AREA-SPACE FUNCTION ZN,SizingPeriod: FORT MCMURRAY AP ANN HTG 99.6% CONDNS DB,5.5803780898E-002,0.3557139020,Pass,Pass,9.8038614631E-002,0.3524175496,Pass,Pass
 Warmup Convergence Information,RELIGIOUS BUILDING FELLOWSHIP HALL-SPACE FUNCTION ZN,SizingPeriod: FORT MCMURRAY AP ANN HTG 99.6% CONDNS DB,5.5555555556E-002,0.3871376618,Pass,Pass,0.6517418552,5.1069741063,Pass,Pass
 Warmup Convergence Information,RETAIL FACILITY DRESSING/FITTING ROOM-SPACE FUNCTION ZN,SizingPeriod: FORT MCMURRAY AP ANN HTG 99.6% CONDNS DB,5.6011552191E-002,0.3590696370,Pass,Pass,0.5106505814,2.9829425317,Pass,Pass
 Warmup Convergence Information,RETAIL FACILITY MALL CONCOURSE-SPACE FUNCTION ZN,SizingPeriod: FORT MCMURRAY AP ANN HTG 99.6% CONDNS DB,5.5555555556E-002,0.3722789855,Pass,Pass,0.2638696744,1.3018025736,Pass,Pass
 Warmup Convergence Information,SPACE DESIGNED TO ANSI/IES RP-28 RECREATION ROOM (USED PRIMARILY BY RESIDENTS)-SPACE FUNCTION ZN,SizingPeriod: FORT MCMURRAY AP ANN HTG 99.6% CONDNS DB,5.5555555556E-002,0.3883795642,Pass,Pass,0.1734756318,0.5340092809,Pass,Pass
 Warmup Convergence Information,SPORTS ARENA PLAYING AREA CLASS I FACILITY(4)-SPACE FUNCTION ZN,SizingPeriod: FORT MCMURRAY AP ANN HTG 99.6% CONDNS DB,5.5555555556E-002,0.3700142913,Pass,Pass,0.1428755710,0.3980985032,Pass,Pass
 Warmup Convergence Information,SPORTS ARENA PLAYING AREA CLASS II FACILITY(4)-SPACE FUNCTION ZN,SizingPeriod: FORT MCMURRAY AP ANN HTG 99.6% CONDNS DB,5.5555555556E-002,0.3650256111,Pass,Pass,0.5989529205,4.8476436167,Pass,Pass
 Warmup Convergence Information,SPORTS ARENA PLAYING AREA CLASS III FACILITY(4)-SPACE FUNCTION ZN,SizingPeriod: FORT MCMURRAY AP ANN HTG 99.6% CONDNS DB,5.5555555556E-002,0.3670391451,Pass,Pass,0.2814162381,1.7122017503,Pass,Pass
 Warmup Convergence Information,SPORTS ARENA PLAYING AREA CLASS IV FACILITY(4)-SPACE FUNCTION ZN,SizingPeriod: FORT MCMURRAY AP ANN HTG 99.6% CONDNS DB,5.5555555556E-002,0.3654861009,Pass,Pass,0.2555712252,1.1728313949,Pass,Pass
 Warmup Convergence Information,TRANSPORTATION FACILITY AIRPORT CONCOURSE-SPACE FUNCTION ZN,SizingPeriod: FORT MCMURRAY AP ANN HTG 99.6% CONDNS DB,5.5555555556E-002,0.3892364219,Pass,Pass,0.4222916271,2.6240672248,Pass,Pass
 Warmup Convergence Information,TRANSPORTATION FACILITY BAGGAGE/CAROUSEL AREA-SPACE FUNCTION ZN,SizingPeriod: FORT MCMURRAY AP ANN HTG 99.6% CONDNS DB,5.6892509495E-002,0.3467331144,Pass,Pass,0.2434597075,0.8827810676,Pass,Pass
 Warmup Convergence Information,TRANSPORTATION FACILITY TERMINAL TICKET COUNTER-SPACE FUNCTION ZN,SizingPeriod: FORT MCMURRAY AP ANN HTG 99.6% CONDNS DB,5.7323465788E-002,0.3426750188,Pass,Pass,0.1724451494,0.9197287746,Pass,Pass
 Warmup Convergence Information,WAREHOUSE STORAGE AREA MEDIUM TO BULKY PALLETIZED ITEMS-SPACE FUNCTION ZN,SizingPeriod: FORT MCMURRAY AP ANN HTG 99.6% CONDNS DB,6.1690129665E-002,0.3092776970,Pass,Pass,0.1737101418,0.7508234022,Pass,Pass
 Warmup Convergence Information,WAREHOUSE STORAGE AREA SMALL HAND-CARRIED ITEMS(4)-SPACE FUNCTION ZN,SizingPeriod: FORT MCMURRAY AP ANN HTG 99.6% CONDNS DB,6.2358283633E-002,0.3054676570,Pass,Pass,0.2429519964,0.7521168883,Pass,Pass
! <Program Control Information:Threads/Parallel Sims>, Threading Supported,Maximum Number of Threads, Env Set Threads (OMP_NUM_THREADS), EP Env Set Threads (EP_OMP_NUM_THREADS), IDF Set Threads, Number of Threads Used (Interior Radiant Exchange), Number Nominal Surfaces, Number Parallel Sims
Program Control:Threads/Parallel Sims, No,1, N/A, N/A, N/A, N/A, N/A, N/A
End of Data
