! Program Version,EnergyPlus, Version 8.9.0-eba93e8e1b, YMD=2019.03.06 21:39,
! Output:Meter Objects (applicable to this run)
Output:Meter,Electricity:Facility,hourly; !- [J]
Output:Meter:Cumulative,Electricity:Facility,hourly; !- [J]
Output:Meter,Electricity:Building,hourly; !- [J]
Output:Meter:Cumulative,Electricity:Building,hourly; !- [J]
Output:Meter,Electricity:Zone:WHOLEBUILDING-AUTOMOTIVE FACILITY ZN,hourly; !- [J]
Output:Meter:Cumulative,Electricity:Zone:WHOLEBUILDING-AUTOMOTIVE FACILITY ZN,hourly; !- [J]
Output:Meter,InteriorLights:Electricity,hourly; !- [J]
Output:Meter:Cumulative,InteriorLights:Electricity,hourly; !- [J]
Output:Meter,InteriorLights:Electricity:Zone:WHOLEBUILDING-AUTOMOTIVE FACILITY ZN,hourly; !- [J]
Output:Meter:Cumulative,InteriorLights:Electricity:Zone:WHOLEBUILDING-AUTOMOTIVE FACILITY ZN,hourly; !- [J]
Output:Meter,General:InteriorLights:Electricity,hourly; !- [J]
Output:Meter:Cumulative,General:InteriorLights:Electricity,hourly; !- [J]
Output:Meter,Electricity:Zone:WHOLEBUILDING-CONVENTION CENTRE ZN,hourly; !- [J]
Output:Meter:Cumulative,Electricity:Zone:WHOLEBUILDING-CONVENTION CENTRE ZN,hourly; !- [J]
Output:Meter,InteriorLights:Electricity:Zone:WHOLEBUILDING-CONVENTION CENTRE ZN,hourly; !- [J]
Output:Meter:Cumulative,InteriorLights:Electricity:Zone:WHOLEBUILDING-CONVENTION CENTRE ZN,hourly; !- [J]
Output:Meter,Electricity:Zone:WHOLEBUILDING-COURTHOUSE ZN,hourly; !- [J]
Output:Meter:Cumulative,Electricity:Zone:WHOLEBUILDING-COURTHOUSE ZN,hourly; !- [J]
Output:Meter,InteriorLights:Electricity:Zone:WHOLEBUILDING-COURTHOUSE ZN,hourly; !- [J]
Output:Meter:Cumulative,InteriorLights:Electricity:Zone:WHOLEBUILDING-COURTHOUSE ZN,hourly; !- [J]
Output:Meter,Electricity:Zone:WHOLEBUILDING-DINING - BAR/LOUNGE ZN,hourly; !- [J]
Output:Meter:Cumulative,Electricity:Zone:WHOLEBUILDING-DINING - BAR/LOUNGE ZN,hourly; !- [J]
Output:Meter,InteriorLights:Electricity:Zone:WHOLEBUILDING-DINING - BAR/LOUNGE ZN,hourly; !- [J]
Output:Meter:Cumulative,InteriorLights:Electricity:Zone:WHOLEBUILDING-DINING - BAR/LOUNGE ZN,hourly; !- [J]
Output:Meter,Electricity:Zone:WHOLEBUILDING-DINING - CAFETERIA ZN,hourly; !- [J]
Output:Meter:Cumulative,Electricity:Zone:WHOLEBUILDING-DINING - CAFETERIA ZN,hourly; !- [J]
Output:Meter,InteriorLights:Electricity:Zone:WHOLEBUILDING-DINING - CAFETERIA ZN,hourly; !- [J]
Output:Meter:Cumulative,InteriorLights:Electricity:Zone:WHOLEBUILDING-DINING - CAFETERIA ZN,hourly; !- [J]
Output:Meter,Electricity:Zone:WHOLEBUILDING-DINING - FAMILY ZN,hourly; !- [J]
Output:Meter:Cumulative,Electricity:Zone:WHOLEBUILDING-DINING - FAMILY ZN,hourly; !- [J]
Output:Meter,InteriorLights:Electricity:Zone:WHOLEBUILDING-DINING - FAMILY ZN,hourly; !- [J]
Output:Meter:Cumulative,InteriorLights:Electricity:Zone:WHOLEBUILDING-DINING - FAMILY ZN,hourly; !- [J]
Output:Meter,Electricity:Zone:WHOLEBUILDING-DORMITORY ZN,hourly; !- [J]
Output:Meter:Cumulative,Electricity:Zone:WHOLEBUILDING-DORMITORY ZN,hourly; !- [J]
Output:Meter,InteriorLights:Electricity:Zone:WHOLEBUILDING-DORMITORY ZN,hourly; !- [J]
Output:Meter:Cumulative,InteriorLights:Electricity:Zone:WHOLEBUILDING-DORMITORY ZN,hourly; !- [J]
Output:Meter,Electricity:Zone:WHOLEBUILDING-EXERCISE CENTRE ZN,hourly; !- [J]
Output:Meter:Cumulative,Electricity:Zone:WHOLEBUILDING-EXERCISE CENTRE ZN,hourly; !- [J]
Output:Meter,InteriorLights:Electricity:Zone:WHOLEBUILDING-EXERCISE CENTRE ZN,hourly; !- [J]
Output:Meter:Cumulative,InteriorLights:Electricity:Zone:WHOLEBUILDING-EXERCISE CENTRE ZN,hourly; !- [J]
Output:Meter,Electricity:Zone:WHOLEBUILDING-FIRE STATION ZN,hourly; !- [J]
Output:Meter:Cumulative,Electricity:Zone:WHOLEBUILDING-FIRE STATION ZN,hourly; !- [J]
Output:Meter,InteriorLights:Electricity:Zone:WHOLEBUILDING-FIRE STATION ZN,hourly; !- [J]
Output:Meter:Cumulative,InteriorLights:Electricity:Zone:WHOLEBUILDING-FIRE STATION ZN,hourly; !- [J]
Output:Meter,Electricity:Zone:WHOLEBUILDING-GYMNASIUM ZN,hourly; !- [J]
Output:Meter:Cumulative,Electricity:Zone:WHOLEBUILDING-GYMNASIUM ZN,hourly; !- [J]
Output:Meter,InteriorLights:Electricity:Zone:WHOLEBUILDING-GYMNASIUM ZN,hourly; !- [J]
Output:Meter:Cumulative,InteriorLights:Electricity:Zone:WHOLEBUILDING-GYMNASIUM ZN,hourly; !- [J]
Output:Meter,Electricity:Zone:WHOLEBUILDING-HEALTH-CARE CLINIC ZN,hourly; !- [J]
Output:Meter:Cumulative,Electricity:Zone:WHOLEBUILDING-HEALTH-CARE CLINIC ZN,hourly; !- [J]
Output:Meter,InteriorLights:Electricity:Zone:WHOLEBUILDING-HEALTH-CARE CLINIC ZN,hourly; !- [J]
Output:Meter:Cumulative,InteriorLights:Electricity:Zone:WHOLEBUILDING-HEALTH-CARE CLINIC ZN,hourly; !- [J]
Output:Meter,Electricity:Zone:WHOLEBUILDING-HOSPITAL ZN,hourly; !- [J]
Output:Meter:Cumulative,Electricity:Zone:WHOLEBUILDING-HOSPITAL ZN,hourly; !- [J]
Output:Meter,InteriorLights:Electricity:Zone:WHOLEBUILDING-HOSPITAL ZN,hourly; !- [J]
Output:Meter:Cumulative,InteriorLights:Electricity:Zone:WHOLEBUILDING-HOSPITAL ZN,hourly; !- [J]
Output:Meter,Electricity:Zone:WHOLEBUILDING-HOTEL ZN,hourly; !- [J]
Output:Meter:Cumulative,Electricity:Zone:WHOLEBUILDING-HOTEL ZN,hourly; !- [J]
Output:Meter,InteriorLights:Electricity:Zone:WHOLEBUILDING-HOTEL ZN,hourly; !- [J]
Output:Meter:Cumulative,InteriorLights:Electricity:Zone:WHOLEBUILDING-HOTEL ZN,hourly; !- [J]
Output:Meter,Electricity:Zone:WHOLEBUILDING-LIBRARY ZN,hourly; !- [J]
Output:Meter:Cumulative,Electricity:Zone:WHOLEBUILDING-LIBRARY ZN,hourly; !- [J]
Output:Meter,InteriorLights:Electricity:Zone:WHOLEBUILDING-LIBRARY ZN,hourly; !- [J]
Output:Meter:Cumulative,InteriorLights:Electricity:Zone:WHOLEBUILDING-LIBRARY ZN,hourly; !- [J]
Output:Meter,Electricity:Zone:WHOLEBUILDING-MANUFACTURING FACILITY ZN,hourly; !- [J]
Output:Meter:Cumulative,Electricity:Zone:WHOLEBUILDING-MANUFACTURING FACILITY ZN,hourly; !- [J]
Output:Meter,InteriorLights:Electricity:Zone:WHOLEBUILDING-MANUFACTURING FACILITY ZN,hourly; !- [J]
Output:Meter:Cumulative,InteriorLights:Electricity:Zone:WHOLEBUILDING-MANUFACTURING FACILITY ZN,hourly; !- [J]
Output:Meter,Electricity:Zone:WHOLEBUILDING-MOTEL ZN,hourly; !- [J]
Output:Meter:Cumulative,Electricity:Zone:WHOLEBUILDING-MOTEL ZN,hourly; !- [J]
Output:Meter,InteriorLights:Electricity:Zone:WHOLEBUILDING-MOTEL ZN,hourly; !- [J]
Output:Meter:Cumulative,InteriorLights:Electricity:Zone:WHOLEBUILDING-MOTEL ZN,hourly; !- [J]
Output:Meter,Electricity:Zone:WHOLEBUILDING-MOTION PICTURE THEATRE ZN,hourly; !- [J]
Output:Meter:Cumulative,Electricity:Zone:WHOLEBUILDING-MOTION PICTURE THEATRE ZN,hourly; !- [J]
Output:Meter,InteriorLights:Electricity:Zone:WHOLEBUILDING-MOTION PICTURE THEATRE ZN,hourly; !- [J]
Output:Meter:Cumulative,InteriorLights:Electricity:Zone:WHOLEBUILDING-MOTION PICTURE THEATRE ZN,hourly; !- [J]
Output:Meter,Electricity:Zone:WHOLEBUILDING-MULTI-UNIT RESIDENTIAL ZN,hourly; !- [J]
Output:Meter:Cumulative,Electricity:Zone:WHOLEBUILDING-MULTI-UNIT RESIDENTIAL ZN,hourly; !- [J]
Output:Meter,InteriorLights:Electricity:Zone:WHOLEBUILDING-MULTI-UNIT RESIDENTIAL ZN,hourly; !- [J]
Output:Meter:Cumulative,InteriorLights:Electricity:Zone:WHOLEBUILDING-MULTI-UNIT RESIDENTIAL ZN,hourly; !- [J]
Output:Meter,Electricity:Zone:WHOLEBUILDING-MUSEUM ZN,hourly; !- [J]
Output:Meter:Cumulative,Electricity:Zone:WHOLEBUILDING-MUSEUM ZN,hourly; !- [J]
Output:Meter,InteriorLights:Electricity:Zone:WHOLEBUILDING-MUSEUM ZN,hourly; !- [J]
Output:Meter:Cumulative,InteriorLights:Electricity:Zone:WHOLEBUILDING-MUSEUM ZN,hourly; !- [J]
Output:Meter,Electricity:Zone:WHOLEBUILDING-OFFICE ZN,hourly; !- [J]
Output:Meter:Cumulative,Electricity:Zone:WHOLEBUILDING-OFFICE ZN,hourly; !- [J]
Output:Meter,InteriorLights:Electricity:Zone:WHOLEBUILDING-OFFICE ZN,hourly; !- [J]
Output:Meter:Cumulative,InteriorLights:Electricity:Zone:WHOLEBUILDING-OFFICE ZN,hourly; !- [J]
Output:Meter,Electricity:Zone:WHOLEBUILDING-PARKING GARAGE ZN,hourly; !- [J]
Output:Meter:Cumulative,Electricity:Zone:WHOLEBUILDING-PARKING GARAGE ZN,hourly; !- [J]
Output:Meter,InteriorLights:Electricity:Zone:WHOLEBUILDING-PARKING GARAGE ZN,hourly; !- [J]
Output:Meter:Cumulative,InteriorLights:Electricity:Zone:WHOLEBUILDING-PARKING GARAGE ZN,hourly; !- [J]
Output:Meter,Electricity:Zone:WHOLEBUILDING-PENITENTIARY ZN,hourly; !- [J]
Output:Meter:Cumulative,Electricity:Zone:WHOLEBUILDING-PENITENTIARY ZN,hourly; !- [J]
Output:Meter,InteriorLights:Electricity:Zone:WHOLEBUILDING-PENITENTIARY ZN,hourly; !- [J]
Output:Meter:Cumulative,InteriorLights:Electricity:Zone:WHOLEBUILDING-PENITENTIARY ZN,hourly; !- [J]
Output:Meter,Electricity:Zone:WHOLEBUILDING-PERFORMING ARTS THEATRE ZN,hourly; !- [J]
Output:Meter:Cumulative,Electricity:Zone:WHOLEBUILDING-PERFORMING ARTS THEATRE ZN,hourly; !- [J]
Output:Meter,InteriorLights:Electricity:Zone:WHOLEBUILDING-PERFORMING ARTS THEATRE ZN,hourly; !- [J]
Output:Meter:Cumulative,InteriorLights:Electricity:Zone:WHOLEBUILDING-PERFORMING ARTS THEATRE ZN,hourly; !- [J]
Output:Meter,Electricity:Zone:WHOLEBUILDING-POLICE STATION ZN,hourly; !- [J]
Output:Meter:Cumulative,Electricity:Zone:WHOLEBUILDING-POLICE STATION ZN,hourly; !- [J]
Output:Meter,InteriorLights:Electricity:Zone:WHOLEBUILDING-POLICE STATION ZN,hourly; !- [J]
Output:Meter:Cumulative,InteriorLights:Electricity:Zone:WHOLEBUILDING-POLICE STATION ZN,hourly; !- [J]
Output:Meter,Electricity:Zone:WHOLEBUILDING-POST OFFICE ZN,hourly; !- [J]
Output:Meter:Cumulative,Electricity:Zone:WHOLEBUILDING-POST OFFICE ZN,hourly; !- [J]
Output:Meter,InteriorLights:Electricity:Zone:WHOLEBUILDING-POST OFFICE ZN,hourly; !- [J]
Output:Meter:Cumulative,InteriorLights:Electricity:Zone:WHOLEBUILDING-POST OFFICE ZN,hourly; !- [J]
Output:Meter,Electricity:Zone:WHOLEBUILDING-RELIGIOUS ZN,hourly; !- [J]
Output:Meter:Cumulative,Electricity:Zone:WHOLEBUILDING-RELIGIOUS ZN,hourly; !- [J]
Output:Meter,InteriorLights:Electricity:Zone:WHOLEBUILDING-RELIGIOUS ZN,hourly; !- [J]
Output:Meter:Cumulative,InteriorLights:Electricity:Zone:WHOLEBUILDING-RELIGIOUS ZN,hourly; !- [J]
Output:Meter,Electricity:Zone:WHOLEBUILDING-RETAIL ZN,hourly; !- [J]
Output:Meter:Cumulative,Electricity:Zone:WHOLEBUILDING-RETAIL ZN,hourly; !- [J]
Output:Meter,InteriorLights:Electricity:Zone:WHOLEBUILDING-RETAIL ZN,hourly; !- [J]
Output:Meter:Cumulative,InteriorLights:Electricity:Zone:WHOLEBUILDING-RETAIL ZN,hourly; !- [J]
Output:Meter,Electricity:Zone:WHOLEBUILDING-SCHOOL/UNIVERSITY ZN,hourly; !- [J]
Output:Meter:Cumulative,Electricity:Zone:WHOLEBUILDING-SCHOOL/UNIVERSITY ZN,hourly; !- [J]
Output:Meter,InteriorLights:Electricity:Zone:WHOLEBUILDING-SCHOOL/UNIVERSITY ZN,hourly; !- [J]
Output:Meter:Cumulative,InteriorLights:Electricity:Zone:WHOLEBUILDING-SCHOOL/UNIVERSITY ZN,hourly; !- [J]
Output:Meter,Electricity:Zone:AUDIENCE - AUDITORIUM-SPACE FUNCTION ZN,hourly; !- [J]
Output:Meter:Cumulative,Electricity:Zone:AUDIENCE - AUDITORIUM-SPACE FUNCTION ZN,hourly; !- [J]
Output:Meter,InteriorLights:Electricity:Zone:AUDIENCE - AUDITORIUM-SPACE FUNCTION ZN,hourly; !- [J]
Output:Meter:Cumulative,InteriorLights:Electricity:Zone:AUDIENCE - AUDITORIUM-SPACE FUNCTION ZN,hourly; !- [J]
Output:Meter,Electricity:Zone:AUDIENCE - MOTION PICTURE-SPACE FUNCTION ZN,hourly; !- [J]
Output:Meter:Cumulative,Electricity:Zone:AUDIENCE - MOTION PICTURE-SPACE FUNCTION ZN,hourly; !- [J]
Output:Meter,InteriorLights:Electricity:Zone:AUDIENCE - MOTION PICTURE-SPACE FUNCTION ZN,hourly; !- [J]
Output:Meter:Cumulative,InteriorLights:Electricity:Zone:AUDIENCE - MOTION PICTURE-SPACE FUNCTION ZN,hourly; !- [J]
Output:Meter,Electricity:Zone:AUDIENCE - PERFORMANCE ARTS-SPACE FUNCTION ZN,hourly; !- [J]
Output:Meter:Cumulative,Electricity:Zone:AUDIENCE - PERFORMANCE ARTS-SPACE FUNCTION ZN,hourly; !- [J]
Output:Meter,InteriorLights:Electricity:Zone:AUDIENCE - PERFORMANCE ARTS-SPACE FUNCTION ZN,hourly; !- [J]
Output:Meter:Cumulative,InteriorLights:Electricity:Zone:AUDIENCE - PERFORMANCE ARTS-SPACE FUNCTION ZN,hourly; !- [J]
Output:Meter,Electricity:Zone:AUTOMOTIVE - REPAIR-SPACE FUNCTION ZN,hourly; !- [J]
Output:Meter:Cumulative,Electricity:Zone:AUTOMOTIVE - REPAIR-SPACE FUNCTION ZN,hourly; !- [J]
Output:Meter,InteriorLights:Electricity:Zone:AUTOMOTIVE - REPAIR-SPACE FUNCTION ZN,hourly; !- [J]
Output:Meter:Cumulative,InteriorLights:Electricity:Zone:AUTOMOTIVE - REPAIR-SPACE FUNCTION ZN,hourly; !- [J]
Output:Meter,Electricity:Zone:BANK - BANKING AND OFFICES-SPACE FUNCTION ZN,hourly; !- [J]
Output:Meter:Cumulative,Electricity:Zone:BANK - BANKING AND OFFICES-SPACE FUNCTION ZN,hourly; !- [J]
Output:Meter,InteriorLights:Electricity:Zone:BANK - BANKING AND OFFICES-SPACE FUNCTION ZN,hourly; !- [J]
Output:Meter:Cumulative,InteriorLights:Electricity:Zone:BANK - BANKING AND OFFICES-SPACE FUNCTION ZN,hourly; !- [J]
Output:Meter,Electricity:Zone:CLASSROOM/LECTURE/TRAINING-SPACE FUNCTION ZN,hourly; !- [J]
Output:Meter:Cumulative,Electricity:Zone:CLASSROOM/LECTURE/TRAINING-SPACE FUNCTION ZN,hourly; !- [J]
Output:Meter,InteriorLights:Electricity:Zone:CLASSROOM/LECTURE/TRAINING-SPACE FUNCTION ZN,hourly; !- [J]
Output:Meter:Cumulative,InteriorLights:Electricity:Zone:CLASSROOM/LECTURE/TRAINING-SPACE FUNCTION ZN,hourly; !- [J]
Output:Meter,Electricity:Zone:CONF./MEET./MULTI-PURPOSE-SPACE FUNCTION ZN,hourly; !- [J]
Output:Meter:Cumulative,Electricity:Zone:CONF./MEET./MULTI-PURPOSE-SPACE FUNCTION ZN,hourly; !- [J]
Output:Meter,InteriorLights:Electricity:Zone:CONF./MEET./MULTI-PURPOSE-SPACE FUNCTION ZN,hourly; !- [J]
Output:Meter:Cumulative,InteriorLights:Electricity:Zone:CONF./MEET./MULTI-PURPOSE-SPACE FUNCTION ZN,hourly; !- [J]
Output:Meter,Electricity:Zone:CONVENTION CENTRE - AUDIENCE-SPACE FUNCTION ZN,hourly; !- [J]
Output:Meter:Cumulative,Electricity:Zone:CONVENTION CENTRE - AUDIENCE-SPACE FUNCTION ZN,hourly; !- [J]
Output:Meter,InteriorLights:Electricity:Zone:CONVENTION CENTRE - AUDIENCE-SPACE FUNCTION ZN,hourly; !- [J]
Output:Meter:Cumulative,InteriorLights:Electricity:Zone:CONVENTION CENTRE - AUDIENCE-SPACE FUNCTION ZN,hourly; !- [J]
Output:Meter,Electricity:Zone:CONVENTION CENTRE - EXHIBIT-SPACE FUNCTION ZN,hourly; !- [J]
Output:Meter:Cumulative,Electricity:Zone:CONVENTION CENTRE - EXHIBIT-SPACE FUNCTION ZN,hourly; !- [J]
Output:Meter,InteriorLights:Electricity:Zone:CONVENTION CENTRE - EXHIBIT-SPACE FUNCTION ZN,hourly; !- [J]
Output:Meter:Cumulative,InteriorLights:Electricity:Zone:CONVENTION CENTRE - EXHIBIT-SPACE FUNCTION ZN,hourly; !- [J]
Output:Meter,Electricity:Zone:CORR. < 2.4M WIDE-SCH-A-SPACE FUNCTION ZN,hourly; !- [J]
Output:Meter:Cumulative,Electricity:Zone:CORR. < 2.4M WIDE-SCH-A-SPACE FUNCTION ZN,hourly; !- [J]
Output:Meter,InteriorLights:Electricity:Zone:CORR. < 2.4M WIDE-SCH-A-SPACE FUNCTION ZN,hourly; !- [J]
Output:Meter:Cumulative,InteriorLights:Electricity:Zone:CORR. < 2.4M WIDE-SCH-A-SPACE FUNCTION ZN,hourly; !- [J]
Output:Meter,Electricity:Zone:CORR. < 2.4M WIDE-SCH-B-SPACE FUNCTION ZN,hourly; !- [J]
Output:Meter:Cumulative,Electricity:Zone:CORR. < 2.4M WIDE-SCH-B-SPACE FUNCTION ZN,hourly; !- [J]
Output:Meter,InteriorLights:Electricity:Zone:CORR. < 2.4M WIDE-SCH-B-SPACE FUNCTION ZN,hourly; !- [J]
Output:Meter:Cumulative,InteriorLights:Electricity:Zone:CORR. < 2.4M WIDE-SCH-B-SPACE FUNCTION ZN,hourly; !- [J]
Output:Meter,Electricity:Zone:CORR. < 2.4M WIDE-SCH-C-SPACE FUNCTION ZN,hourly; !- [J]
Output:Meter:Cumulative,Electricity:Zone:CORR. < 2.4M WIDE-SCH-C-SPACE FUNCTION ZN,hourly; !- [J]
Output:Meter,InteriorLights:Electricity:Zone:CORR. < 2.4M WIDE-SCH-C-SPACE FUNCTION ZN,hourly; !- [J]
Output:Meter:Cumulative,InteriorLights:Electricity:Zone:CORR. < 2.4M WIDE-SCH-C-SPACE FUNCTION ZN,hourly; !- [J]
Output:Meter,Electricity:Zone:CORR. < 2.4M WIDE-SCH-D-SPACE FUNCTION ZN,hourly; !- [J]
Output:Meter:Cumulative,Electricity:Zone:CORR. < 2.4M WIDE-SCH-D-SPACE FUNCTION ZN,hourly; !- [J]
Output:Meter,InteriorLights:Electricity:Zone:CORR. < 2.4M WIDE-SCH-D-SPACE FUNCTION ZN,hourly; !- [J]
Output:Meter:Cumulative,InteriorLights:Electricity:Zone:CORR. < 2.4M WIDE-SCH-D-SPACE FUNCTION ZN,hourly; !- [J]
Output:Meter,Electricity:Zone:CORR. < 2.4M WIDE-SCH-E-SPACE FUNCTION ZN,hourly; !- [J]
Output:Meter:Cumulative,Electricity:Zone:CORR. < 2.4M WIDE-SCH-E-SPACE FUNCTION ZN,hourly; !- [J]
Output:Meter,InteriorLights:Electricity:Zone:CORR. < 2.4M WIDE-SCH-E-SPACE FUNCTION ZN,hourly; !- [J]
Output:Meter:Cumulative,InteriorLights:Electricity:Zone:CORR. < 2.4M WIDE-SCH-E-SPACE FUNCTION ZN,hourly; !- [J]
Output:Meter,Electricity:Zone:CORR. < 2.4M WIDE-SCH-F-SPACE FUNCTION ZN,hourly; !- [J]
Output:Meter:Cumulative,Electricity:Zone:CORR. < 2.4M WIDE-SCH-F-SPACE FUNCTION ZN,hourly; !- [J]
Output:Meter,InteriorLights:Electricity:Zone:CORR. < 2.4M WIDE-SCH-F-SPACE FUNCTION ZN,hourly; !- [J]
Output:Meter:Cumulative,InteriorLights:Electricity:Zone:CORR. < 2.4M WIDE-SCH-F-SPACE FUNCTION ZN,hourly; !- [J]
Output:Meter,Electricity:Zone:CORR. < 2.4M WIDE-SCH-G-SPACE FUNCTION ZN,hourly; !- [J]
Output:Meter:Cumulative,Electricity:Zone:CORR. < 2.4M WIDE-SCH-G-SPACE FUNCTION ZN,hourly; !- [J]
Output:Meter,InteriorLights:Electricity:Zone:CORR. < 2.4M WIDE-SCH-G-SPACE FUNCTION ZN,hourly; !- [J]
Output:Meter:Cumulative,InteriorLights:Electricity:Zone:CORR. < 2.4M WIDE-SCH-G-SPACE FUNCTION ZN,hourly; !- [J]
Output:Meter,Electricity:Zone:CORR. < 2.4M WIDE-SCH-H-SPACE FUNCTION ZN,hourly; !- [J]
Output:Meter:Cumulative,Electricity:Zone:CORR. < 2.4M WIDE-SCH-H-SPACE FUNCTION ZN,hourly; !- [J]
Output:Meter,InteriorLights:Electricity:Zone:CORR. < 2.4M WIDE-SCH-H-SPACE FUNCTION ZN,hourly; !- [J]
Output:Meter:Cumulative,InteriorLights:Electricity:Zone:CORR. < 2.4M WIDE-SCH-H-SPACE FUNCTION ZN,hourly; !- [J]
Output:Meter,Electricity:Zone:CORR. < 2.4M WIDE-SCH-I-SPACE FUNCTION ZN,hourly; !- [J]
Output:Meter:Cumulative,Electricity:Zone:CORR. < 2.4M WIDE-SCH-I-SPACE FUNCTION ZN,hourly; !- [J]
Output:Meter,InteriorLights:Electricity:Zone:CORR. < 2.4M WIDE-SCH-I-SPACE FUNCTION ZN,hourly; !- [J]
Output:Meter:Cumulative,InteriorLights:Electricity:Zone:CORR. < 2.4M WIDE-SCH-I-SPACE FUNCTION ZN,hourly; !- [J]
Output:Meter,Electricity:Zone:CORR. >= 2.4M WIDE-SCH-A-SPACE FUNCTION ZN,hourly; !- [J]
Output:Meter:Cumulative,Electricity:Zone:CORR. >= 2.4M WIDE-SCH-A-SPACE FUNCTION ZN,hourly; !- [J]
Output:Meter,InteriorLights:Electricity:Zone:CORR. >= 2.4M WIDE-SCH-A-SPACE FUNCTION ZN,hourly; !- [J]
Output:Meter:Cumulative,InteriorLights:Electricity:Zone:CORR. >= 2.4M WIDE-SCH-A-SPACE FUNCTION ZN,hourly; !- [J]
Output:Meter,Electricity:Zone:CORR. >= 2.4M WIDE-SCH-B-SPACE FUNCTION ZN,hourly; !- [J]
Output:Meter:Cumulative,Electricity:Zone:CORR. >= 2.4M WIDE-SCH-B-SPACE FUNCTION ZN,hourly; !- [J]
Output:Meter,InteriorLights:Electricity:Zone:CORR. >= 2.4M WIDE-SCH-B-SPACE FUNCTION ZN,hourly; !- [J]
Output:Meter:Cumulative,InteriorLights:Electricity:Zone:CORR. >= 2.4M WIDE-SCH-B-SPACE FUNCTION ZN,hourly; !- [J]
Output:Meter,Electricity:Zone:CORR. >= 2.4M WIDE-SCH-C-SPACE FUNCTION ZN,hourly; !- [J]
Output:Meter:Cumulative,Electricity:Zone:CORR. >= 2.4M WIDE-SCH-C-SPACE FUNCTION ZN,hourly; !- [J]
Output:Meter,InteriorLights:Electricity:Zone:CORR. >= 2.4M WIDE-SCH-C-SPACE FUNCTION ZN,hourly; !- [J]
Output:Meter:Cumulative,InteriorLights:Electricity:Zone:CORR. >= 2.4M WIDE-SCH-C-SPACE FUNCTION ZN,hourly; !- [J]
Output:Meter,Electricity:Zone:CORR. >= 2.4M WIDE-SCH-D-SPACE FUNCTION ZN,hourly; !- [J]
Output:Meter:Cumulative,Electricity:Zone:CORR. >= 2.4M WIDE-SCH-D-SPACE FUNCTION ZN,hourly; !- [J]
Output:Meter,InteriorLights:Electricity:Zone:CORR. >= 2.4M WIDE-SCH-D-SPACE FUNCTION ZN,hourly; !- [J]
Output:Meter:Cumulative,InteriorLights:Electricity:Zone:CORR. >= 2.4M WIDE-SCH-D-SPACE FUNCTION ZN,hourly; !- [J]
Output:Meter,Electricity:Zone:CORR. >= 2.4M WIDE-SCH-E-SPACE FUNCTION ZN,hourly; !- [J]
Output:Meter:Cumulative,Electricity:Zone:CORR. >= 2.4M WIDE-SCH-E-SPACE FUNCTION ZN,hourly; !- [J]
Output:Meter,InteriorLights:Electricity:Zone:CORR. >= 2.4M WIDE-SCH-E-SPACE FUNCTION ZN,hourly; !- [J]
Output:Meter:Cumulative,InteriorLights:Electricity:Zone:CORR. >= 2.4M WIDE-SCH-E-SPACE FUNCTION ZN,hourly; !- [J]
Output:Meter,Electricity:Zone:CORR. >= 2.4M WIDE-SCH-F-SPACE FUNCTION ZN,hourly; !- [J]
Output:Meter:Cumulative,Electricity:Zone:CORR. >= 2.4M WIDE-SCH-F-SPACE FUNCTION ZN,hourly; !- [J]
Output:Meter,InteriorLights:Electricity:Zone:CORR. >= 2.4M WIDE-SCH-F-SPACE FUNCTION ZN,hourly; !- [J]
Output:Meter:Cumulative,InteriorLights:Electricity:Zone:CORR. >= 2.4M WIDE-SCH-F-SPACE FUNCTION ZN,hourly; !- [J]
Output:Meter,Electricity:Zone:CORR. >= 2.4M WIDE-SCH-G-SPACE FUNCTION ZN,hourly; !- [J]
Output:Meter:Cumulative,Electricity:Zone:CORR. >= 2.4M WIDE-SCH-G-SPACE FUNCTION ZN,hourly; !- [J]
Output:Meter,InteriorLights:Electricity:Zone:CORR. >= 2.4M WIDE-SCH-G-SPACE FUNCTION ZN,hourly; !- [J]
Output:Meter:Cumulative,InteriorLights:Electricity:Zone:CORR. >= 2.4M WIDE-SCH-G-SPACE FUNCTION ZN,hourly; !- [J]
Output:Meter,Electricity:Zone:CORR. >= 2.4M WIDE-SCH-H-SPACE FUNCTION ZN,hourly; !- [J]
Output:Meter:Cumulative,Electricity:Zone:CORR. >= 2.4M WIDE-SCH-H-SPACE FUNCTION ZN,hourly; !- [J]
Output:Meter,InteriorLights:Electricity:Zone:CORR. >= 2.4M WIDE-SCH-H-SPACE FUNCTION ZN,hourly; !- [J]
Output:Meter:Cumulative,InteriorLights:Electricity:Zone:CORR. >= 2.4M WIDE-SCH-H-SPACE FUNCTION ZN,hourly; !- [J]
Output:Meter,Electricity:Zone:CORR. >= 2.4M WIDE-SCH-I-SPACE FUNCTION ZN,hourly; !- [J]
Output:Meter:Cumulative,Electricity:Zone:CORR. >= 2.4M WIDE-SCH-I-SPACE FUNCTION ZN,hourly; !- [J]
Output:Meter,InteriorLights:Electricity:Zone:CORR. >= 2.4M WIDE-SCH-I-SPACE FUNCTION ZN,hourly; !- [J]
Output:Meter:Cumulative,InteriorLights:Electricity:Zone:CORR. >= 2.4M WIDE-SCH-I-SPACE FUNCTION ZN,hourly; !- [J]
Output:Meter,Electricity:Zone:COURTHOUSE - CELL-SPACE FUNCTION ZN,hourly; !- [J]
Output:Meter:Cumulative,Electricity:Zone:COURTHOUSE - CELL-SPACE FUNCTION ZN,hourly; !- [J]
Output:Meter,InteriorLights:Electricity:Zone:COURTHOUSE - CELL-SPACE FUNCTION ZN,hourly; !- [J]
Output:Meter:Cumulative,InteriorLights:Electricity:Zone:COURTHOUSE - CELL-SPACE FUNCTION ZN,hourly; !- [J]
Output:Meter,Electricity:Zone:COURTHOUSE - CHAMBERS-SPACE FUNCTION ZN,hourly; !- [J]
Output:Meter:Cumulative,Electricity:Zone:COURTHOUSE - CHAMBERS-SPACE FUNCTION ZN,hourly; !- [J]
Output:Meter,InteriorLights:Electricity:Zone:COURTHOUSE - CHAMBERS-SPACE FUNCTION ZN,hourly; !- [J]
Output:Meter:Cumulative,InteriorLights:Electricity:Zone:COURTHOUSE - CHAMBERS-SPACE FUNCTION ZN,hourly; !- [J]
Output:Meter,Electricity:Zone:COURTHOUSE - COURTROOM-SPACE FUNCTION ZN,hourly; !- [J]
Output:Meter:Cumulative,Electricity:Zone:COURTHOUSE - COURTROOM-SPACE FUNCTION ZN,hourly; !- [J]
Output:Meter,InteriorLights:Electricity:Zone:COURTHOUSE - COURTROOM-SPACE FUNCTION ZN,hourly; !- [J]
Output:Meter:Cumulative,InteriorLights:Electricity:Zone:COURTHOUSE - COURTROOM-SPACE FUNCTION ZN,hourly; !- [J]
Output:Meter,Electricity:Zone:DINING - BAR LOUNGE/LEISURE-SPACE FUNCTION ZN,hourly; !- [J]
Output:Meter:Cumulative,Electricity:Zone:DINING - BAR LOUNGE/LEISURE-SPACE FUNCTION ZN,hourly; !- [J]
Output:Meter,InteriorLights:Electricity:Zone:DINING - BAR LOUNGE/LEISURE-SPACE FUNCTION ZN,hourly; !- [J]
Output:Meter:Cumulative,InteriorLights:Electricity:Zone:DINING - BAR LOUNGE/LEISURE-SPACE FUNCTION ZN,hourly; !- [J]
Output:Meter,Electricity:Zone:DINING - FAMILY SPACE-SPACE FUNCTION ZN,hourly; !- [J]
Output:Meter:Cumulative,Electricity:Zone:DINING - FAMILY SPACE-SPACE FUNCTION ZN,hourly; !- [J]
Output:Meter,InteriorLights:Electricity:Zone:DINING - FAMILY SPACE-SPACE FUNCTION ZN,hourly; !- [J]
Output:Meter:Cumulative,InteriorLights:Electricity:Zone:DINING - FAMILY SPACE-SPACE FUNCTION ZN,hourly; !- [J]
Output:Meter,Electricity:Zone:DINING - OTHER-SPACE FUNCTION ZN,hourly; !- [J]
Output:Meter:Cumulative,Electricity:Zone:DINING - OTHER-SPACE FUNCTION ZN,hourly; !- [J]
Output:Meter,InteriorLights:Electricity:Zone:DINING - OTHER-SPACE FUNCTION ZN,hourly; !- [J]
Output:Meter:Cumulative,InteriorLights:Electricity:Zone:DINING - OTHER-SPACE FUNCTION ZN,hourly; !- [J]
Output:Meter,Electricity:Zone:DORMITORY - LIVING QUARTERS-SPACE FUNCTION ZN,hourly; !- [J]
Output:Meter:Cumulative,Electricity:Zone:DORMITORY - LIVING QUARTERS-SPACE FUNCTION ZN,hourly; !- [J]
Output:Meter,InteriorLights:Electricity:Zone:DORMITORY - LIVING QUARTERS-SPACE FUNCTION ZN,hourly; !- [J]
Output:Meter:Cumulative,InteriorLights:Electricity:Zone:DORMITORY - LIVING QUARTERS-SPACE FUNCTION ZN,hourly; !- [J]
Output:Meter,Electricity:Zone:DRESS./FITT. - PERFORMANCE ARTS-SPACE FUNCTION ZN,hourly; !- [J]
Output:Meter:Cumulative,Electricity:Zone:DRESS./FITT. - PERFORMANCE ARTS-SPACE FUNCTION ZN,hourly; !- [J]
Output:Meter,InteriorLights:Electricity:Zone:DRESS./FITT. - PERFORMANCE ARTS-SPACE FUNCTION ZN,hourly; !- [J]
Output:Meter:Cumulative,InteriorLights:Electricity:Zone:DRESS./FITT. - PERFORMANCE ARTS-SPACE FUNCTION ZN,hourly; !- [J]
Output:Meter,Electricity:Zone:DWELLING UNIT(S)-SPACE FUNCTION ZN,hourly; !- [J]
Output:Meter:Cumulative,Electricity:Zone:DWELLING UNIT(S)-SPACE FUNCTION ZN,hourly; !- [J]
Output:Meter,InteriorLights:Electricity:Zone:DWELLING UNIT(S)-SPACE FUNCTION ZN,hourly; !- [J]
Output:Meter:Cumulative,InteriorLights:Electricity:Zone:DWELLING UNIT(S)-SPACE FUNCTION ZN,hourly; !- [J]
Output:Meter,Electricity:Zone:ELECTRICAL/MECHANICAL-SCH-A-SPACE FUNCTION ZN,hourly; !- [J]
Output:Meter:Cumulative,Electricity:Zone:ELECTRICAL/MECHANICAL-SCH-A-SPACE FUNCTION ZN,hourly; !- [J]
Output:Meter,InteriorLights:Electricity:Zone:ELECTRICAL/MECHANICAL-SCH-A-SPACE FUNCTION ZN,hourly; !- [J]
Output:Meter:Cumulative,InteriorLights:Electricity:Zone:ELECTRICAL/MECHANICAL-SCH-A-SPACE FUNCTION ZN,hourly; !- [J]
Output:Meter,Electricity:Zone:ELECTRICAL/MECHANICAL-SCH-B-SPACE FUNCTION ZN,hourly; !- [J]
Output:Meter:Cumulative,Electricity:Zone:ELECTRICAL/MECHANICAL-SCH-B-SPACE FUNCTION ZN,hourly; !- [J]
Output:Meter,InteriorLights:Electricity:Zone:ELECTRICAL/MECHANICAL-SCH-B-SPACE FUNCTION ZN,hourly; !- [J]
Output:Meter:Cumulative,InteriorLights:Electricity:Zone:ELECTRICAL/MECHANICAL-SCH-B-SPACE FUNCTION ZN,hourly; !- [J]
Output:Meter,Electricity:Zone:ELECTRICAL/MECHANICAL-SCH-C-SPACE FUNCTION ZN,hourly; !- [J]
Output:Meter:Cumulative,Electricity:Zone:ELECTRICAL/MECHANICAL-SCH-C-SPACE FUNCTION ZN,hourly; !- [J]
Output:Meter,InteriorLights:Electricity:Zone:ELECTRICAL/MECHANICAL-SCH-C-SPACE FUNCTION ZN,hourly; !- [J]
Output:Meter:Cumulative,InteriorLights:Electricity:Zone:ELECTRICAL/MECHANICAL-SCH-C-SPACE FUNCTION ZN,hourly; !- [J]
Output:Meter,Electricity:Zone:ELECTRICAL/MECHANICAL-SCH-D-SPACE FUNCTION ZN,hourly; !- [J]
Output:Meter:Cumulative,Electricity:Zone:ELECTRICAL/MECHANICAL-SCH-D-SPACE FUNCTION ZN,hourly; !- [J]
Output:Meter,InteriorLights:Electricity:Zone:ELECTRICAL/MECHANICAL-SCH-D-SPACE FUNCTION ZN,hourly; !- [J]
Output:Meter:Cumulative,InteriorLights:Electricity:Zone:ELECTRICAL/MECHANICAL-SCH-D-SPACE FUNCTION ZN,hourly; !- [J]
Output:Meter,Electricity:Zone:ELECTRICAL/MECHANICAL-SCH-E-SPACE FUNCTION ZN,hourly; !- [J]
Output:Meter:Cumulative,Electricity:Zone:ELECTRICAL/MECHANICAL-SCH-E-SPACE FUNCTION ZN,hourly; !- [J]
Output:Meter,InteriorLights:Electricity:Zone:ELECTRICAL/MECHANICAL-SCH-E-SPACE FUNCTION ZN,hourly; !- [J]
Output:Meter:Cumulative,InteriorLights:Electricity:Zone:ELECTRICAL/MECHANICAL-SCH-E-SPACE FUNCTION ZN,hourly; !- [J]
Output:Meter,Electricity:Zone:ELECTRICAL/MECHANICAL-SCH-F-SPACE FUNCTION ZN,hourly; !- [J]
Output:Meter:Cumulative,Electricity:Zone:ELECTRICAL/MECHANICAL-SCH-F-SPACE FUNCTION ZN,hourly; !- [J]
Output:Meter,InteriorLights:Electricity:Zone:ELECTRICAL/MECHANICAL-SCH-F-SPACE FUNCTION ZN,hourly; !- [J]
Output:Meter:Cumulative,InteriorLights:Electricity:Zone:ELECTRICAL/MECHANICAL-SCH-F-SPACE FUNCTION ZN,hourly; !- [J]
Output:Meter,Electricity:Zone:ELECTRICAL/MECHANICAL-SCH-G-SPACE FUNCTION ZN,hourly; !- [J]
Output:Meter:Cumulative,Electricity:Zone:ELECTRICAL/MECHANICAL-SCH-G-SPACE FUNCTION ZN,hourly; !- [J]
Output:Meter,InteriorLights:Electricity:Zone:ELECTRICAL/MECHANICAL-SCH-G-SPACE FUNCTION ZN,hourly; !- [J]
Output:Meter:Cumulative,InteriorLights:Electricity:Zone:ELECTRICAL/MECHANICAL-SCH-G-SPACE FUNCTION ZN,hourly; !- [J]
Output:Meter,Electricity:Zone:ELECTRICAL/MECHANICAL-SCH-H-SPACE FUNCTION ZN,hourly; !- [J]
Output:Meter:Cumulative,Electricity:Zone:ELECTRICAL/MECHANICAL-SCH-H-SPACE FUNCTION ZN,hourly; !- [J]
Output:Meter,InteriorLights:Electricity:Zone:ELECTRICAL/MECHANICAL-SCH-H-SPACE FUNCTION ZN,hourly; !- [J]
Output:Meter:Cumulative,InteriorLights:Electricity:Zone:ELECTRICAL/MECHANICAL-SCH-H-SPACE FUNCTION ZN,hourly; !- [J]
Output:Meter,Electricity:Zone:ELECTRICAL/MECHANICAL-SCH-I-SPACE FUNCTION ZN,hourly; !- [J]
Output:Meter:Cumulative,Electricity:Zone:ELECTRICAL/MECHANICAL-SCH-I-SPACE FUNCTION ZN,hourly; !- [J]
Output:Meter,InteriorLights:Electricity:Zone:ELECTRICAL/MECHANICAL-SCH-I-SPACE FUNCTION ZN,hourly; !- [J]
Output:Meter:Cumulative,InteriorLights:Electricity:Zone:ELECTRICAL/MECHANICAL-SCH-I-SPACE FUNCTION ZN,hourly; !- [J]
Output:Meter,Electricity:Zone:FIRE STATION - ENGINE ROOM-SPACE FUNCTION ZN,hourly; !- [J]
Output:Meter:Cumulative,Electricity:Zone:FIRE STATION - ENGINE ROOM-SPACE FUNCTION ZN,hourly; !- [J]
Output:Meter,InteriorLights:Electricity:Zone:FIRE STATION - ENGINE ROOM-SPACE FUNCTION ZN,hourly; !- [J]
Output:Meter:Cumulative,InteriorLights:Electricity:Zone:FIRE STATION - ENGINE ROOM-SPACE FUNCTION ZN,hourly; !- [J]
Output:Meter,Electricity:Zone:FIRE STATION - QUARTERS-SPACE FUNCTION ZN,hourly; !- [J]
Output:Meter:Cumulative,Electricity:Zone:FIRE STATION - QUARTERS-SPACE FUNCTION ZN,hourly; !- [J]
Output:Meter,InteriorLights:Electricity:Zone:FIRE STATION - QUARTERS-SPACE FUNCTION ZN,hourly; !- [J]
Output:Meter:Cumulative,InteriorLights:Electricity:Zone:FIRE STATION - QUARTERS-SPACE FUNCTION ZN,hourly; !- [J]
Output:Meter,Electricity:Zone:FOOD PREPARATION-SPACE FUNCTION ZN,hourly; !- [J]
Output:Meter:Cumulative,Electricity:Zone:FOOD PREPARATION-SPACE FUNCTION ZN,hourly; !- [J]
Output:Meter,InteriorLights:Electricity:Zone:FOOD PREPARATION-SPACE FUNCTION ZN,hourly; !- [J]
Output:Meter:Cumulative,InteriorLights:Electricity:Zone:FOOD PREPARATION-SPACE FUNCTION ZN,hourly; !- [J]
Output:Meter,Electricity:Zone:FOOD PREPARATION - VENTED-SPACE FUNCTION ZN,hourly; !- [J]
Output:Meter:Cumulative,Electricity:Zone:FOOD PREPARATION - VENTED-SPACE FUNCTION ZN,hourly; !- [J]
Output:Meter,InteriorLights:Electricity:Zone:FOOD PREPARATION - VENTED-SPACE FUNCTION ZN,hourly; !- [J]
Output:Meter:Cumulative,InteriorLights:Electricity:Zone:FOOD PREPARATION - VENTED-SPACE FUNCTION ZN,hourly; !- [J]
Output:Meter,Electricity:Zone:GYM - AUDIENCE-SPACE FUNCTION ZN,hourly; !- [J]
Output:Meter:Cumulative,Electricity:Zone:GYM - AUDIENCE-SPACE FUNCTION ZN,hourly; !- [J]
Output:Meter,InteriorLights:Electricity:Zone:GYM - AUDIENCE-SPACE FUNCTION ZN,hourly; !- [J]
Output:Meter:Cumulative,InteriorLights:Electricity:Zone:GYM - AUDIENCE-SPACE FUNCTION ZN,hourly; !- [J]
Output:Meter,Electricity:Zone:GYM - FITNESS-SPACE FUNCTION ZN,hourly; !- [J]
Output:Meter:Cumulative,Electricity:Zone:GYM - FITNESS-SPACE FUNCTION ZN,hourly; !- [J]
Output:Meter,InteriorLights:Electricity:Zone:GYM - FITNESS-SPACE FUNCTION ZN,hourly; !- [J]
Output:Meter:Cumulative,InteriorLights:Electricity:Zone:GYM - FITNESS-SPACE FUNCTION ZN,hourly; !- [J]
Output:Meter,Electricity:Zone:GYM - PLAY-SPACE FUNCTION ZN,hourly; !- [J]
Output:Meter:Cumulative,Electricity:Zone:GYM - PLAY-SPACE FUNCTION ZN,hourly; !- [J]
Output:Meter,InteriorLights:Electricity:Zone:GYM - PLAY-SPACE FUNCTION ZN,hourly; !- [J]
Output:Meter:Cumulative,InteriorLights:Electricity:Zone:GYM - PLAY-SPACE FUNCTION ZN,hourly; !- [J]
Output:Meter,Electricity:Zone:HOSPITAL - EMERGENCY-SPACE FUNCTION ZN,hourly; !- [J]
Output:Meter:Cumulative,Electricity:Zone:HOSPITAL - EMERGENCY-SPACE FUNCTION ZN,hourly; !- [J]
Output:Meter,InteriorLights:Electricity:Zone:HOSPITAL - EMERGENCY-SPACE FUNCTION ZN,hourly; !- [J]
Output:Meter:Cumulative,InteriorLights:Electricity:Zone:HOSPITAL - EMERGENCY-SPACE FUNCTION ZN,hourly; !- [J]
Output:Meter,Electricity:Zone:HOSPITAL - EXAM-SPACE FUNCTION ZN,hourly; !- [J]
Output:Meter:Cumulative,Electricity:Zone:HOSPITAL - EXAM-SPACE FUNCTION ZN,hourly; !- [J]
Output:Meter,InteriorLights:Electricity:Zone:HOSPITAL - EXAM-SPACE FUNCTION ZN,hourly; !- [J]
Output:Meter:Cumulative,InteriorLights:Electricity:Zone:HOSPITAL - EXAM-SPACE FUNCTION ZN,hourly; !- [J]
Output:Meter,Electricity:Zone:HOSPITAL - LAUNDRY/WASHING-SPACE FUNCTION ZN,hourly; !- [J]
Output:Meter:Cumulative,Electricity:Zone:HOSPITAL - LAUNDRY/WASHING-SPACE FUNCTION ZN,hourly; !- [J]
Output:Meter,InteriorLights:Electricity:Zone:HOSPITAL - LAUNDRY/WASHING-SPACE FUNCTION ZN,hourly; !- [J]
Output:Meter:Cumulative,InteriorLights:Electricity:Zone:HOSPITAL - LAUNDRY/WASHING-SPACE FUNCTION ZN,hourly; !- [J]
Output:Meter,Electricity:Zone:HOSPITAL - LOUNGE/RECREATION-SPACE FUNCTION ZN,hourly; !- [J]
Output:Meter:Cumulative,Electricity:Zone:HOSPITAL - LOUNGE/RECREATION-SPACE FUNCTION ZN,hourly; !- [J]
Output:Meter,InteriorLights:Electricity:Zone:HOSPITAL - LOUNGE/RECREATION-SPACE FUNCTION ZN,hourly; !- [J]
Output:Meter:Cumulative,InteriorLights:Electricity:Zone:HOSPITAL - LOUNGE/RECREATION-SPACE FUNCTION ZN,hourly; !- [J]
Output:Meter,Electricity:Zone:HOSPITAL - MEDICAL SUPPLY-SPACE FUNCTION ZN,hourly; !- [J]
Output:Meter:Cumulative,Electricity:Zone:HOSPITAL - MEDICAL SUPPLY-SPACE FUNCTION ZN,hourly; !- [J]
Output:Meter,InteriorLights:Electricity:Zone:HOSPITAL - MEDICAL SUPPLY-SPACE FUNCTION ZN,hourly; !- [J]
Output:Meter:Cumulative,InteriorLights:Electricity:Zone:HOSPITAL - MEDICAL SUPPLY-SPACE FUNCTION ZN,hourly; !- [J]
Output:Meter,Electricity:Zone:HOSPITAL - MEDICAL SUPPLY - OCCSENS-SPACE FUNCTION ZN,hourly; !- [J]
Output:Meter:Cumulative,Electricity:Zone:HOSPITAL - MEDICAL SUPPLY - OCCSENS-SPACE FUNCTION ZN,hourly; !- [J]
Output:Meter,InteriorLights:Electricity:Zone:HOSPITAL - MEDICAL SUPPLY - OCCSENS-SPACE FUNCTION ZN,hourly; !- [J]
Output:Meter:Cumulative,InteriorLights:Electricity:Zone:HOSPITAL - MEDICAL SUPPLY - OCCSENS-SPACE FUNCTION ZN,hourly; !- [J]
Output:Meter,Electricity:Zone:HOSPITAL - NURSERY-SPACE FUNCTION ZN,hourly; !- [J]
Output:Meter:Cumulative,Electricity:Zone:HOSPITAL - NURSERY-SPACE FUNCTION ZN,hourly; !- [J]
Output:Meter,InteriorLights:Electricity:Zone:HOSPITAL - NURSERY-SPACE FUNCTION ZN,hourly; !- [J]
Output:Meter:Cumulative,InteriorLights:Electricity:Zone:HOSPITAL - NURSERY-SPACE FUNCTION ZN,hourly; !- [J]
Output:Meter,Electricity:Zone:HOSPITAL - NURSES' STATION-SPACE FUNCTION ZN,hourly; !- [J]
Output:Meter:Cumulative,Electricity:Zone:HOSPITAL - NURSES' STATION-SPACE FUNCTION ZN,hourly; !- [J]
Output:Meter,InteriorLights:Electricity:Zone:HOSPITAL - NURSES' STATION-SPACE FUNCTION ZN,hourly; !- [J]
Output:Meter:Cumulative,InteriorLights:Electricity:Zone:HOSPITAL - NURSES' STATION-SPACE FUNCTION ZN,hourly; !- [J]
Output:Meter,Electricity:Zone:HOSPITAL - OPERATING ROOM-SPACE FUNCTION ZN,hourly; !- [J]
Output:Meter:Cumulative,Electricity:Zone:HOSPITAL - OPERATING ROOM-SPACE FUNCTION ZN,hourly; !- [J]
Output:Meter,InteriorLights:Electricity:Zone:HOSPITAL - OPERATING ROOM-SPACE FUNCTION ZN,hourly; !- [J]
Output:Meter:Cumulative,InteriorLights:Electricity:Zone:HOSPITAL - OPERATING ROOM-SPACE FUNCTION ZN,hourly; !- [J]
Output:Meter,Electricity:Zone:HOSPITAL - PATIENT ROOM-SPACE FUNCTION ZN,hourly; !- [J]
Output:Meter:Cumulative,Electricity:Zone:HOSPITAL - PATIENT ROOM-SPACE FUNCTION ZN,hourly; !- [J]
Output:Meter,InteriorLights:Electricity:Zone:HOSPITAL - PATIENT ROOM-SPACE FUNCTION ZN,hourly; !- [J]
Output:Meter:Cumulative,InteriorLights:Electricity:Zone:HOSPITAL - PATIENT ROOM-SPACE FUNCTION ZN,hourly; !- [J]
Output:Meter,Electricity:Zone:HOSPITAL - PHARMACY-SPACE FUNCTION ZN,hourly; !- [J]
Output:Meter:Cumulative,Electricity:Zone:HOSPITAL - PHARMACY-SPACE FUNCTION ZN,hourly; !- [J]
Output:Meter,InteriorLights:Electricity:Zone:HOSPITAL - PHARMACY-SPACE FUNCTION ZN,hourly; !- [J]
Output:Meter:Cumulative,InteriorLights:Electricity:Zone:HOSPITAL - PHARMACY-SPACE FUNCTION ZN,hourly; !- [J]
Output:Meter,Electricity:Zone:HOSPITAL - PHYSICAL THERAPY-SPACE FUNCTION ZN,hourly; !- [J]
Output:Meter:Cumulative,Electricity:Zone:HOSPITAL - PHYSICAL THERAPY-SPACE FUNCTION ZN,hourly; !- [J]
Output:Meter,InteriorLights:Electricity:Zone:HOSPITAL - PHYSICAL THERAPY-SPACE FUNCTION ZN,hourly; !- [J]
Output:Meter:Cumulative,InteriorLights:Electricity:Zone:HOSPITAL - PHYSICAL THERAPY-SPACE FUNCTION ZN,hourly; !- [J]
Output:Meter,Electricity:Zone:HOSPITAL - RADIOLOGY/IMAGING-SPACE FUNCTION ZN,hourly; !- [J]
Output:Meter:Cumulative,Electricity:Zone:HOSPITAL - RADIOLOGY/IMAGING-SPACE FUNCTION ZN,hourly; !- [J]
Output:Meter,InteriorLights:Electricity:Zone:HOSPITAL - RADIOLOGY/IMAGING-SPACE FUNCTION ZN,hourly; !- [J]
Output:Meter:Cumulative,InteriorLights:Electricity:Zone:HOSPITAL - RADIOLOGY/IMAGING-SPACE FUNCTION ZN,hourly; !- [J]
Output:Meter,Electricity:Zone:HOSPITAL - RECOVERY-SPACE FUNCTION ZN,hourly; !- [J]
Output:Meter:Cumulative,Electricity:Zone:HOSPITAL - RECOVERY-SPACE FUNCTION ZN,hourly; !- [J]
Output:Meter,InteriorLights:Electricity:Zone:HOSPITAL - RECOVERY-SPACE FUNCTION ZN,hourly; !- [J]
Output:Meter:Cumulative,InteriorLights:Electricity:Zone:HOSPITAL - RECOVERY-SPACE FUNCTION ZN,hourly; !- [J]
Output:Meter,Electricity:Zone:HOSPITAL CORR. < 2.4M-SCH-A-SPACE FUNCTION ZN,hourly; !- [J]
Output:Meter:Cumulative,Electricity:Zone:HOSPITAL CORR. < 2.4M-SCH-A-SPACE FUNCTION ZN,hourly; !- [J]
Output:Meter,InteriorLights:Electricity:Zone:HOSPITAL CORR. < 2.4M-SCH-A-SPACE FUNCTION ZN,hourly; !- [J]
Output:Meter:Cumulative,InteriorLights:Electricity:Zone:HOSPITAL CORR. < 2.4M-SCH-A-SPACE FUNCTION ZN,hourly; !- [J]
Output:Meter,Electricity:Zone:HOSPITAL CORR. < 2.4M-SCH-B-SPACE FUNCTION ZN,hourly; !- [J]
Output:Meter:Cumulative,Electricity:Zone:HOSPITAL CORR. < 2.4M-SCH-B-SPACE FUNCTION ZN,hourly; !- [J]
Output:Meter,InteriorLights:Electricity:Zone:HOSPITAL CORR. < 2.4M-SCH-B-SPACE FUNCTION ZN,hourly; !- [J]
Output:Meter:Cumulative,InteriorLights:Electricity:Zone:HOSPITAL CORR. < 2.4M-SCH-B-SPACE FUNCTION ZN,hourly; !- [J]
Output:Meter,Electricity:Zone:HOSPITAL CORR. < 2.4M-SCH-C-SPACE FUNCTION ZN,hourly; !- [J]
Output:Meter:Cumulative,Electricity:Zone:HOSPITAL CORR. < 2.4M-SCH-C-SPACE FUNCTION ZN,hourly; !- [J]
Output:Meter,InteriorLights:Electricity:Zone:HOSPITAL CORR. < 2.4M-SCH-C-SPACE FUNCTION ZN,hourly; !- [J]
Output:Meter:Cumulative,InteriorLights:Electricity:Zone:HOSPITAL CORR. < 2.4M-SCH-C-SPACE FUNCTION ZN,hourly; !- [J]
Output:Meter,Electricity:Zone:HOSPITAL CORR. < 2.4M-SCH-D-SPACE FUNCTION ZN,hourly; !- [J]
Output:Meter:Cumulative,Electricity:Zone:HOSPITAL CORR. < 2.4M-SCH-D-SPACE FUNCTION ZN,hourly; !- [J]
Output:Meter,InteriorLights:Electricity:Zone:HOSPITAL CORR. < 2.4M-SCH-D-SPACE FUNCTION ZN,hourly; !- [J]
Output:Meter:Cumulative,InteriorLights:Electricity:Zone:HOSPITAL CORR. < 2.4M-SCH-D-SPACE FUNCTION ZN,hourly; !- [J]
Output:Meter,Electricity:Zone:HOSPITAL CORR. < 2.4M-SCH-E-SPACE FUNCTION ZN,hourly; !- [J]
Output:Meter:Cumulative,Electricity:Zone:HOSPITAL CORR. < 2.4M-SCH-E-SPACE FUNCTION ZN,hourly; !- [J]
Output:Meter,InteriorLights:Electricity:Zone:HOSPITAL CORR. < 2.4M-SCH-E-SPACE FUNCTION ZN,hourly; !- [J]
Output:Meter:Cumulative,InteriorLights:Electricity:Zone:HOSPITAL CORR. < 2.4M-SCH-E-SPACE FUNCTION ZN,hourly; !- [J]
Output:Meter,Electricity:Zone:HOSPITAL CORR. < 2.4M-SCH-F-SPACE FUNCTION ZN,hourly; !- [J]
Output:Meter:Cumulative,Electricity:Zone:HOSPITAL CORR. < 2.4M-SCH-F-SPACE FUNCTION ZN,hourly; !- [J]
Output:Meter,InteriorLights:Electricity:Zone:HOSPITAL CORR. < 2.4M-SCH-F-SPACE FUNCTION ZN,hourly; !- [J]
Output:Meter:Cumulative,InteriorLights:Electricity:Zone:HOSPITAL CORR. < 2.4M-SCH-F-SPACE FUNCTION ZN,hourly; !- [J]
Output:Meter,Electricity:Zone:HOSPITAL CORR. < 2.4M-SCH-G-SPACE FUNCTION ZN,hourly; !- [J]
Output:Meter:Cumulative,Electricity:Zone:HOSPITAL CORR. < 2.4M-SCH-G-SPACE FUNCTION ZN,hourly; !- [J]
Output:Meter,InteriorLights:Electricity:Zone:HOSPITAL CORR. < 2.4M-SCH-G-SPACE FUNCTION ZN,hourly; !- [J]
Output:Meter:Cumulative,InteriorLights:Electricity:Zone:HOSPITAL CORR. < 2.4M-SCH-G-SPACE FUNCTION ZN,hourly; !- [J]
Output:Meter,Electricity:Zone:HOSPITAL CORR. < 2.4M-SCH-H-SPACE FUNCTION ZN,hourly; !- [J]
Output:Meter:Cumulative,Electricity:Zone:HOSPITAL CORR. < 2.4M-SCH-H-SPACE FUNCTION ZN,hourly; !- [J]
Output:Meter,InteriorLights:Electricity:Zone:HOSPITAL CORR. < 2.4M-SCH-H-SPACE FUNCTION ZN,hourly; !- [J]
Output:Meter:Cumulative,InteriorLights:Electricity:Zone:HOSPITAL CORR. < 2.4M-SCH-H-SPACE FUNCTION ZN,hourly; !- [J]
Output:Meter,Electricity:Zone:HOSPITAL CORR. < 2.4M-SCH-I-SPACE FUNCTION ZN,hourly; !- [J]
Output:Meter:Cumulative,Electricity:Zone:HOSPITAL CORR. < 2.4M-SCH-I-SPACE FUNCTION ZN,hourly; !- [J]
Output:Meter,InteriorLights:Electricity:Zone:HOSPITAL CORR. < 2.4M-SCH-I-SPACE FUNCTION ZN,hourly; !- [J]
Output:Meter:Cumulative,InteriorLights:Electricity:Zone:HOSPITAL CORR. < 2.4M-SCH-I-SPACE FUNCTION ZN,hourly; !- [J]
Output:Meter,Electricity:Zone:HOSPITAL CORR. >= 2.4M-SCH-A-SPACE FUNCTION ZN,hourly; !- [J]
Output:Meter:Cumulative,Electricity:Zone:HOSPITAL CORR. >= 2.4M-SCH-A-SPACE FUNCTION ZN,hourly; !- [J]
Output:Meter,InteriorLights:Electricity:Zone:HOSPITAL CORR. >= 2.4M-SCH-A-SPACE FUNCTION ZN,hourly; !- [J]
Output:Meter:Cumulative,InteriorLights:Electricity:Zone:HOSPITAL CORR. >= 2.4M-SCH-A-SPACE FUNCTION ZN,hourly; !- [J]
Output:Meter,Electricity:Zone:HOSPITAL CORR. >= 2.4M-SCH-B-SPACE FUNCTION ZN,hourly; !- [J]
Output:Meter:Cumulative,Electricity:Zone:HOSPITAL CORR. >= 2.4M-SCH-B-SPACE FUNCTION ZN,hourly; !- [J]
Output:Meter,InteriorLights:Electricity:Zone:HOSPITAL CORR. >= 2.4M-SCH-B-SPACE FUNCTION ZN,hourly; !- [J]
Output:Meter:Cumulative,InteriorLights:Electricity:Zone:HOSPITAL CORR. >= 2.4M-SCH-B-SPACE FUNCTION ZN,hourly; !- [J]
Output:Meter,Electricity:Zone:HOSPITAL CORR. >= 2.4M-SCH-C-SPACE FUNCTION ZN,hourly; !- [J]
Output:Meter:Cumulative,Electricity:Zone:HOSPITAL CORR. >= 2.4M-SCH-C-SPACE FUNCTION ZN,hourly; !- [J]
Output:Meter,InteriorLights:Electricity:Zone:HOSPITAL CORR. >= 2.4M-SCH-C-SPACE FUNCTION ZN,hourly; !- [J]
Output:Meter:Cumulative,InteriorLights:Electricity:Zone:HOSPITAL CORR. >= 2.4M-SCH-C-SPACE FUNCTION ZN,hourly; !- [J]
Output:Meter,Electricity:Zone:HOSPITAL CORR. >= 2.4M-SCH-D-SPACE FUNCTION ZN,hourly; !- [J]
Output:Meter:Cumulative,Electricity:Zone:HOSPITAL CORR. >= 2.4M-SCH-D-SPACE FUNCTION ZN,hourly; !- [J]
Output:Meter,InteriorLights:Electricity:Zone:HOSPITAL CORR. >= 2.4M-SCH-D-SPACE FUNCTION ZN,hourly; !- [J]
Output:Meter:Cumulative,InteriorLights:Electricity:Zone:HOSPITAL CORR. >= 2.4M-SCH-D-SPACE FUNCTION ZN,hourly; !- [J]
Output:Meter,Electricity:Zone:HOSPITAL CORR. >= 2.4M-SCH-E-SPACE FUNCTION ZN,hourly; !- [J]
Output:Meter:Cumulative,Electricity:Zone:HOSPITAL CORR. >= 2.4M-SCH-E-SPACE FUNCTION ZN,hourly; !- [J]
Output:Meter,InteriorLights:Electricity:Zone:HOSPITAL CORR. >= 2.4M-SCH-E-SPACE FUNCTION ZN,hourly; !- [J]
Output:Meter:Cumulative,InteriorLights:Electricity:Zone:HOSPITAL CORR. >= 2.4M-SCH-E-SPACE FUNCTION ZN,hourly; !- [J]
Output:Meter,Electricity:Zone:HOSPITAL CORR. >= 2.4M-SCH-F-SPACE FUNCTION ZN,hourly; !- [J]
Output:Meter:Cumulative,Electricity:Zone:HOSPITAL CORR. >= 2.4M-SCH-F-SPACE FUNCTION ZN,hourly; !- [J]
Output:Meter,InteriorLights:Electricity:Zone:HOSPITAL CORR. >= 2.4M-SCH-F-SPACE FUNCTION ZN,hourly; !- [J]
Output:Meter:Cumulative,InteriorLights:Electricity:Zone:HOSPITAL CORR. >= 2.4M-SCH-F-SPACE FUNCTION ZN,hourly; !- [J]
Output:Meter,Electricity:Zone:HOSPITAL CORR. >= 2.4M-SCH-G-SPACE FUNCTION ZN,hourly; !- [J]
Output:Meter:Cumulative,Electricity:Zone:HOSPITAL CORR. >= 2.4M-SCH-G-SPACE FUNCTION ZN,hourly; !- [J]
Output:Meter,InteriorLights:Electricity:Zone:HOSPITAL CORR. >= 2.4M-SCH-G-SPACE FUNCTION ZN,hourly; !- [J]
Output:Meter:Cumulative,InteriorLights:Electricity:Zone:HOSPITAL CORR. >= 2.4M-SCH-G-SPACE FUNCTION ZN,hourly; !- [J]
Output:Meter,Electricity:Zone:HOSPITAL CORR. >= 2.4M-SCH-H-SPACE FUNCTION ZN,hourly; !- [J]
Output:Meter:Cumulative,Electricity:Zone:HOSPITAL CORR. >= 2.4M-SCH-H-SPACE FUNCTION ZN,hourly; !- [J]
Output:Meter,InteriorLights:Electricity:Zone:HOSPITAL CORR. >= 2.4M-SCH-H-SPACE FUNCTION ZN,hourly; !- [J]
Output:Meter:Cumulative,InteriorLights:Electricity:Zone:HOSPITAL CORR. >= 2.4M-SCH-H-SPACE FUNCTION ZN,hourly; !- [J]
Output:Meter,Electricity:Zone:HOSPITAL CORR. >= 2.4M-SCH-I-SPACE FUNCTION ZN,hourly; !- [J]
Output:Meter:Cumulative,Electricity:Zone:HOSPITAL CORR. >= 2.4M-SCH-I-SPACE FUNCTION ZN,hourly; !- [J]
Output:Meter,InteriorLights:Electricity:Zone:HOSPITAL CORR. >= 2.4M-SCH-I-SPACE FUNCTION ZN,hourly; !- [J]
Output:Meter:Cumulative,InteriorLights:Electricity:Zone:HOSPITAL CORR. >= 2.4M-SCH-I-SPACE FUNCTION ZN,hourly; !- [J]
Output:Meter,Electricity:Zone:HOTEL/MOTEL - DINING-SPACE FUNCTION ZN,hourly; !- [J]
Output:Meter:Cumulative,Electricity:Zone:HOTEL/MOTEL - DINING-SPACE FUNCTION ZN,hourly; !- [J]
Output:Meter,InteriorLights:Electricity:Zone:HOTEL/MOTEL - DINING-SPACE FUNCTION ZN,hourly; !- [J]
Output:Meter:Cumulative,InteriorLights:Electricity:Zone:HOTEL/MOTEL - DINING-SPACE FUNCTION ZN,hourly; !- [J]
Output:Meter,Electricity:Zone:HOTEL/MOTEL - LOBBY-SPACE FUNCTION ZN,hourly; !- [J]
Output:Meter:Cumulative,Electricity:Zone:HOTEL/MOTEL - LOBBY-SPACE FUNCTION ZN,hourly; !- [J]
Output:Meter,InteriorLights:Electricity:Zone:HOTEL/MOTEL - LOBBY-SPACE FUNCTION ZN,hourly; !- [J]
Output:Meter:Cumulative,InteriorLights:Electricity:Zone:HOTEL/MOTEL - LOBBY-SPACE FUNCTION ZN,hourly; !- [J]
Output:Meter,Electricity:Zone:HOTEL/MOTEL - ROOMS-SPACE FUNCTION ZN,hourly; !- [J]
Output:Meter:Cumulative,Electricity:Zone:HOTEL/MOTEL - ROOMS-SPACE FUNCTION ZN,hourly; !- [J]
Output:Meter,InteriorLights:Electricity:Zone:HOTEL/MOTEL - ROOMS-SPACE FUNCTION ZN,hourly; !- [J]
Output:Meter:Cumulative,InteriorLights:Electricity:Zone:HOTEL/MOTEL - ROOMS-SPACE FUNCTION ZN,hourly; !- [J]
Output:Meter,Electricity:Zone:HWAY LODGING - DINING-SPACE FUNCTION ZN,hourly; !- [J]
Output:Meter:Cumulative,Electricity:Zone:HWAY LODGING - DINING-SPACE FUNCTION ZN,hourly; !- [J]
Output:Meter,InteriorLights:Electricity:Zone:HWAY LODGING - DINING-SPACE FUNCTION ZN,hourly; !- [J]
Output:Meter:Cumulative,InteriorLights:Electricity:Zone:HWAY LODGING - DINING-SPACE FUNCTION ZN,hourly; !- [J]
Output:Meter,Electricity:Zone:HWAY LODGING - ROOMS-SPACE FUNCTION ZN,hourly; !- [J]
Output:Meter:Cumulative,Electricity:Zone:HWAY LODGING - ROOMS-SPACE FUNCTION ZN,hourly; !- [J]
Output:Meter,InteriorLights:Electricity:Zone:HWAY LODGING - ROOMS-SPACE FUNCTION ZN,hourly; !- [J]
Output:Meter:Cumulative,InteriorLights:Electricity:Zone:HWAY LODGING - ROOMS-SPACE FUNCTION ZN,hourly; !- [J]
Output:Meter,Electricity:Zone:LAB - CLASSROOMS-SPACE FUNCTION ZN,hourly; !- [J]
Output:Meter:Cumulative,Electricity:Zone:LAB - CLASSROOMS-SPACE FUNCTION ZN,hourly; !- [J]
Output:Meter,InteriorLights:Electricity:Zone:LAB - CLASSROOMS-SPACE FUNCTION ZN,hourly; !- [J]
Output:Meter:Cumulative,InteriorLights:Electricity:Zone:LAB - CLASSROOMS-SPACE FUNCTION ZN,hourly; !- [J]
Output:Meter,Electricity:Zone:LAB - RESEARCH-SPACE FUNCTION ZN,hourly; !- [J]
Output:Meter:Cumulative,Electricity:Zone:LAB - RESEARCH-SPACE FUNCTION ZN,hourly; !- [J]
Output:Meter,InteriorLights:Electricity:Zone:LAB - RESEARCH-SPACE FUNCTION ZN,hourly; !- [J]
Output:Meter:Cumulative,InteriorLights:Electricity:Zone:LAB - RESEARCH-SPACE FUNCTION ZN,hourly; !- [J]
Output:Meter,Electricity:Zone:LIBRARY - CATALOGING-SPACE FUNCTION ZN,hourly; !- [J]
Output:Meter:Cumulative,Electricity:Zone:LIBRARY - CATALOGING-SPACE FUNCTION ZN,hourly; !- [J]
Output:Meter,InteriorLights:Electricity:Zone:LIBRARY - CATALOGING-SPACE FUNCTION ZN,hourly; !- [J]
Output:Meter:Cumulative,InteriorLights:Electricity:Zone:LIBRARY - CATALOGING-SPACE FUNCTION ZN,hourly; !- [J]
Output:Meter,Electricity:Zone:LIBRARY - READING-SPACE FUNCTION ZN,hourly; !- [J]
Output:Meter:Cumulative,Electricity:Zone:LIBRARY - READING-SPACE FUNCTION ZN,hourly; !- [J]
Output:Meter,InteriorLights:Electricity:Zone:LIBRARY - READING-SPACE FUNCTION ZN,hourly; !- [J]
Output:Meter:Cumulative,InteriorLights:Electricity:Zone:LIBRARY - READING-SPACE FUNCTION ZN,hourly; !- [J]
Output:Meter,Electricity:Zone:LIBRARY - STACKS-SPACE FUNCTION ZN,hourly; !- [J]
Output:Meter:Cumulative,Electricity:Zone:LIBRARY - STACKS-SPACE FUNCTION ZN,hourly; !- [J]
Output:Meter,InteriorLights:Electricity:Zone:LIBRARY - STACKS-SPACE FUNCTION ZN,hourly; !- [J]
Output:Meter:Cumulative,InteriorLights:Electricity:Zone:LIBRARY - STACKS-SPACE FUNCTION ZN,hourly; !- [J]
Output:Meter,Electricity:Zone:LOBBY - ELEVATOR-SPACE FUNCTION ZN,hourly; !- [J]
Output:Meter:Cumulative,Electricity:Zone:LOBBY - ELEVATOR-SPACE FUNCTION ZN,hourly; !- [J]
Output:Meter,InteriorLights:Electricity:Zone:LOBBY - ELEVATOR-SPACE FUNCTION ZN,hourly; !- [J]
Output:Meter:Cumulative,InteriorLights:Electricity:Zone:LOBBY - ELEVATOR-SPACE FUNCTION ZN,hourly; !- [J]
Output:Meter,Electricity:Zone:LOBBY - MOTION PICTURE-SPACE FUNCTION ZN,hourly; !- [J]
Output:Meter:Cumulative,Electricity:Zone:LOBBY - MOTION PICTURE-SPACE FUNCTION ZN,hourly; !- [J]
Output:Meter,InteriorLights:Electricity:Zone:LOBBY - MOTION PICTURE-SPACE FUNCTION ZN,hourly; !- [J]
Output:Meter:Cumulative,InteriorLights:Electricity:Zone:LOBBY - MOTION PICTURE-SPACE FUNCTION ZN,hourly; !- [J]
Output:Meter,Electricity:Zone:LOBBY - OTHER-SPACE FUNCTION ZN,hourly; !- [J]
Output:Meter:Cumulative,Electricity:Zone:LOBBY - OTHER-SPACE FUNCTION ZN,hourly; !- [J]
Output:Meter,InteriorLights:Electricity:Zone:LOBBY - OTHER-SPACE FUNCTION ZN,hourly; !- [J]
Output:Meter:Cumulative,InteriorLights:Electricity:Zone:LOBBY - OTHER-SPACE FUNCTION ZN,hourly; !- [J]
Output:Meter,Electricity:Zone:LOBBY - PERFORMANCE ARTS-SPACE FUNCTION ZN,hourly; !- [J]
Output:Meter:Cumulative,Electricity:Zone:LOBBY - PERFORMANCE ARTS-SPACE FUNCTION ZN,hourly; !- [J]
Output:Meter,InteriorLights:Electricity:Zone:LOBBY - PERFORMANCE ARTS-SPACE FUNCTION ZN,hourly; !- [J]
Output:Meter:Cumulative,InteriorLights:Electricity:Zone:LOBBY - PERFORMANCE ARTS-SPACE FUNCTION ZN,hourly; !- [J]
Output:Meter,Electricity:Zone:LOCKER ROOM-SCH-A-SPACE FUNCTION ZN,hourly; !- [J]
Output:Meter:Cumulative,Electricity:Zone:LOCKER ROOM-SCH-A-SPACE FUNCTION ZN,hourly; !- [J]
Output:Meter,InteriorLights:Electricity:Zone:LOCKER ROOM-SCH-A-SPACE FUNCTION ZN,hourly; !- [J]
Output:Meter:Cumulative,InteriorLights:Electricity:Zone:LOCKER ROOM-SCH-A-SPACE FUNCTION ZN,hourly; !- [J]
Output:Meter,Electricity:Zone:LOCKER ROOM-SCH-B-SPACE FUNCTION ZN,hourly; !- [J]
Output:Meter:Cumulative,Electricity:Zone:LOCKER ROOM-SCH-B-SPACE FUNCTION ZN,hourly; !- [J]
Output:Meter,InteriorLights:Electricity:Zone:LOCKER ROOM-SCH-B-SPACE FUNCTION ZN,hourly; !- [J]
Output:Meter:Cumulative,InteriorLights:Electricity:Zone:LOCKER ROOM-SCH-B-SPACE FUNCTION ZN,hourly; !- [J]
Output:Meter,Electricity:Zone:LOCKER ROOM-SCH-C-SPACE FUNCTION ZN,hourly; !- [J]
Output:Meter:Cumulative,Electricity:Zone:LOCKER ROOM-SCH-C-SPACE FUNCTION ZN,hourly; !- [J]
Output:Meter,InteriorLights:Electricity:Zone:LOCKER ROOM-SCH-C-SPACE FUNCTION ZN,hourly; !- [J]
Output:Meter:Cumulative,InteriorLights:Electricity:Zone:LOCKER ROOM-SCH-C-SPACE FUNCTION ZN,hourly; !- [J]
Output:Meter,Electricity:Zone:LOCKER ROOM-SCH-D-SPACE FUNCTION ZN,hourly; !- [J]
Output:Meter:Cumulative,Electricity:Zone:LOCKER ROOM-SCH-D-SPACE FUNCTION ZN,hourly; !- [J]
Output:Meter,InteriorLights:Electricity:Zone:LOCKER ROOM-SCH-D-SPACE FUNCTION ZN,hourly; !- [J]
Output:Meter:Cumulative,InteriorLights:Electricity:Zone:LOCKER ROOM-SCH-D-SPACE FUNCTION ZN,hourly; !- [J]
Output:Meter,Electricity:Zone:LOCKER ROOM-SCH-E-SPACE FUNCTION ZN,hourly; !- [J]
Output:Meter:Cumulative,Electricity:Zone:LOCKER ROOM-SCH-E-SPACE FUNCTION ZN,hourly; !- [J]
Output:Meter,InteriorLights:Electricity:Zone:LOCKER ROOM-SCH-E-SPACE FUNCTION ZN,hourly; !- [J]
Output:Meter:Cumulative,InteriorLights:Electricity:Zone:LOCKER ROOM-SCH-E-SPACE FUNCTION ZN,hourly; !- [J]
Output:Meter,Electricity:Zone:LOCKER ROOM-SCH-F-SPACE FUNCTION ZN,hourly; !- [J]
Output:Meter:Cumulative,Electricity:Zone:LOCKER ROOM-SCH-F-SPACE FUNCTION ZN,hourly; !- [J]
Output:Meter,InteriorLights:Electricity:Zone:LOCKER ROOM-SCH-F-SPACE FUNCTION ZN,hourly; !- [J]
Output:Meter:Cumulative,InteriorLights:Electricity:Zone:LOCKER ROOM-SCH-F-SPACE FUNCTION ZN,hourly; !- [J]
Output:Meter,Electricity:Zone:LOCKER ROOM-SCH-G-SPACE FUNCTION ZN,hourly; !- [J]
Output:Meter:Cumulative,Electricity:Zone:LOCKER ROOM-SCH-G-SPACE FUNCTION ZN,hourly; !- [J]
Output:Meter,InteriorLights:Electricity:Zone:LOCKER ROOM-SCH-G-SPACE FUNCTION ZN,hourly; !- [J]
Output:Meter:Cumulative,InteriorLights:Electricity:Zone:LOCKER ROOM-SCH-G-SPACE FUNCTION ZN,hourly; !- [J]
Output:Meter,Electricity:Zone:LOCKER ROOM-SCH-H-SPACE FUNCTION ZN,hourly; !- [J]
Output:Meter:Cumulative,Electricity:Zone:LOCKER ROOM-SCH-H-SPACE FUNCTION ZN,hourly; !- [J]
Output:Meter,InteriorLights:Electricity:Zone:LOCKER ROOM-SCH-H-SPACE FUNCTION ZN,hourly; !- [J]
Output:Meter:Cumulative,InteriorLights:Electricity:Zone:LOCKER ROOM-SCH-H-SPACE FUNCTION ZN,hourly; !- [J]
Output:Meter,Electricity:Zone:LOCKER ROOM-SCH-I-SPACE FUNCTION ZN,hourly; !- [J]
Output:Meter:Cumulative,Electricity:Zone:LOCKER ROOM-SCH-I-SPACE FUNCTION ZN,hourly; !- [J]
Output:Meter,InteriorLights:Electricity:Zone:LOCKER ROOM-SCH-I-SPACE FUNCTION ZN,hourly; !- [J]
Output:Meter:Cumulative,InteriorLights:Electricity:Zone:LOCKER ROOM-SCH-I-SPACE FUNCTION ZN,hourly; !- [J]
Output:Meter,Electricity:Zone:LOUNGE/RECREATION-SPACE FUNCTION ZN,hourly; !- [J]
Output:Meter:Cumulative,Electricity:Zone:LOUNGE/RECREATION-SPACE FUNCTION ZN,hourly; !- [J]
Output:Meter,InteriorLights:Electricity:Zone:LOUNGE/RECREATION-SPACE FUNCTION ZN,hourly; !- [J]
Output:Meter:Cumulative,InteriorLights:Electricity:Zone:LOUNGE/RECREATION-SPACE FUNCTION ZN,hourly; !- [J]
Output:Meter,Electricity:Zone:MFG - 7.5 <= BAY H <= 15M-SPACE FUNCTION ZN,hourly; !- [J]
Output:Meter:Cumulative,Electricity:Zone:MFG - 7.5 <= BAY H <= 15M-SPACE FUNCTION ZN,hourly; !- [J]
Output:Meter,InteriorLights:Electricity:Zone:MFG - 7.5 <= BAY H <= 15M-SPACE FUNCTION ZN,hourly; !- [J]
Output:Meter:Cumulative,InteriorLights:Electricity:Zone:MFG - 7.5 <= BAY H <= 15M-SPACE FUNCTION ZN,hourly; !- [J]
Output:Meter,Electricity:Zone:MFG - BAY H < 7.5M-SPACE FUNCTION ZN,hourly; !- [J]
Output:Meter:Cumulative,Electricity:Zone:MFG - BAY H < 7.5M-SPACE FUNCTION ZN,hourly; !- [J]
Output:Meter,InteriorLights:Electricity:Zone:MFG - BAY H < 7.5M-SPACE FUNCTION ZN,hourly; !- [J]
Output:Meter:Cumulative,InteriorLights:Electricity:Zone:MFG - BAY H < 7.5M-SPACE FUNCTION ZN,hourly; !- [J]
Output:Meter,Electricity:Zone:MFG - BAY H > 15M-SPACE FUNCTION ZN,hourly; !- [J]
Output:Meter:Cumulative,Electricity:Zone:MFG - BAY H > 15M-SPACE FUNCTION ZN,hourly; !- [J]
Output:Meter,InteriorLights:Electricity:Zone:MFG - BAY H > 15M-SPACE FUNCTION ZN,hourly; !- [J]
Output:Meter:Cumulative,InteriorLights:Electricity:Zone:MFG - BAY H > 15M-SPACE FUNCTION ZN,hourly; !- [J]
Output:Meter,Electricity:Zone:MFG - CORR. < 2.4M-SCH-A-SPACE FUNCTION ZN,hourly; !- [J]
Output:Meter:Cumulative,Electricity:Zone:MFG - CORR. < 2.4M-SCH-A-SPACE FUNCTION ZN,hourly; !- [J]
Output:Meter,InteriorLights:Electricity:Zone:MFG - CORR. < 2.4M-SCH-A-SPACE FUNCTION ZN,hourly; !- [J]
Output:Meter:Cumulative,InteriorLights:Electricity:Zone:MFG - CORR. < 2.4M-SCH-A-SPACE FUNCTION ZN,hourly; !- [J]
Output:Meter,Electricity:Zone:MFG - CORR. < 2.4M-SCH-B-SPACE FUNCTION ZN,hourly; !- [J]
Output:Meter:Cumulative,Electricity:Zone:MFG - CORR. < 2.4M-SCH-B-SPACE FUNCTION ZN,hourly; !- [J]
Output:Meter,InteriorLights:Electricity:Zone:MFG - CORR. < 2.4M-SCH-B-SPACE FUNCTION ZN,hourly; !- [J]
Output:Meter:Cumulative,InteriorLights:Electricity:Zone:MFG - CORR. < 2.4M-SCH-B-SPACE FUNCTION ZN,hourly; !- [J]
Output:Meter,Electricity:Zone:MFG - CORR. < 2.4M-SCH-C-SPACE FUNCTION ZN,hourly; !- [J]
Output:Meter:Cumulative,Electricity:Zone:MFG - CORR. < 2.4M-SCH-C-SPACE FUNCTION ZN,hourly; !- [J]
Output:Meter,InteriorLights:Electricity:Zone:MFG - CORR. < 2.4M-SCH-C-SPACE FUNCTION ZN,hourly; !- [J]
Output:Meter:Cumulative,InteriorLights:Electricity:Zone:MFG - CORR. < 2.4M-SCH-C-SPACE FUNCTION ZN,hourly; !- [J]
Output:Meter,Electricity:Zone:MFG - CORR. < 2.4M-SCH-D-SPACE FUNCTION ZN,hourly; !- [J]
Output:Meter:Cumulative,Electricity:Zone:MFG - CORR. < 2.4M-SCH-D-SPACE FUNCTION ZN,hourly; !- [J]
Output:Meter,InteriorLights:Electricity:Zone:MFG - CORR. < 2.4M-SCH-D-SPACE FUNCTION ZN,hourly; !- [J]
Output:Meter:Cumulative,InteriorLights:Electricity:Zone:MFG - CORR. < 2.4M-SCH-D-SPACE FUNCTION ZN,hourly; !- [J]
Output:Meter,Electricity:Zone:MFG - CORR. < 2.4M-SCH-E-SPACE FUNCTION ZN,hourly; !- [J]
Output:Meter:Cumulative,Electricity:Zone:MFG - CORR. < 2.4M-SCH-E-SPACE FUNCTION ZN,hourly; !- [J]
Output:Meter,InteriorLights:Electricity:Zone:MFG - CORR. < 2.4M-SCH-E-SPACE FUNCTION ZN,hourly; !- [J]
Output:Meter:Cumulative,InteriorLights:Electricity:Zone:MFG - CORR. < 2.4M-SCH-E-SPACE FUNCTION ZN,hourly; !- [J]
Output:Meter,Electricity:Zone:MFG - CORR. < 2.4M-SCH-F-SPACE FUNCTION ZN,hourly; !- [J]
Output:Meter:Cumulative,Electricity:Zone:MFG - CORR. < 2.4M-SCH-F-SPACE FUNCTION ZN,hourly; !- [J]
Output:Meter,InteriorLights:Electricity:Zone:MFG - CORR. < 2.4M-SCH-F-SPACE FUNCTION ZN,hourly; !- [J]
Output:Meter:Cumulative,InteriorLights:Electricity:Zone:MFG - CORR. < 2.4M-SCH-F-SPACE FUNCTION ZN,hourly; !- [J]
Output:Meter,Electricity:Zone:MFG - CORR. < 2.4M-SCH-G-SPACE FUNCTION ZN,hourly; !- [J]
Output:Meter:Cumulative,Electricity:Zone:MFG - CORR. < 2.4M-SCH-G-SPACE FUNCTION ZN,hourly; !- [J]
Output:Meter,InteriorLights:Electricity:Zone:MFG - CORR. < 2.4M-SCH-G-SPACE FUNCTION ZN,hourly; !- [J]
Output:Meter:Cumulative,InteriorLights:Electricity:Zone:MFG - CORR. < 2.4M-SCH-G-SPACE FUNCTION ZN,hourly; !- [J]
Output:Meter,Electricity:Zone:MFG - CORR. < 2.4M-SCH-H-SPACE FUNCTION ZN,hourly; !- [J]
Output:Meter:Cumulative,Electricity:Zone:MFG - CORR. < 2.4M-SCH-H-SPACE FUNCTION ZN,hourly; !- [J]
Output:Meter,InteriorLights:Electricity:Zone:MFG - CORR. < 2.4M-SCH-H-SPACE FUNCTION ZN,hourly; !- [J]
Output:Meter:Cumulative,InteriorLights:Electricity:Zone:MFG - CORR. < 2.4M-SCH-H-SPACE FUNCTION ZN,hourly; !- [J]
Output:Meter,Electricity:Zone:MFG - CORR. < 2.4M-SCH-I-SPACE FUNCTION ZN,hourly; !- [J]
Output:Meter:Cumulative,Electricity:Zone:MFG - CORR. < 2.4M-SCH-I-SPACE FUNCTION ZN,hourly; !- [J]
Output:Meter,InteriorLights:Electricity:Zone:MFG - CORR. < 2.4M-SCH-I-SPACE FUNCTION ZN,hourly; !- [J]
Output:Meter:Cumulative,InteriorLights:Electricity:Zone:MFG - CORR. < 2.4M-SCH-I-SPACE FUNCTION ZN,hourly; !- [J]
Output:Meter,Electricity:Zone:MFG - CORR. >= 2.4M-SCH-A-SPACE FUNCTION ZN,hourly; !- [J]
Output:Meter:Cumulative,Electricity:Zone:MFG - CORR. >= 2.4M-SCH-A-SPACE FUNCTION ZN,hourly; !- [J]
Output:Meter,InteriorLights:Electricity:Zone:MFG - CORR. >= 2.4M-SCH-A-SPACE FUNCTION ZN,hourly; !- [J]
Output:Meter:Cumulative,InteriorLights:Electricity:Zone:MFG - CORR. >= 2.4M-SCH-A-SPACE FUNCTION ZN,hourly; !- [J]
Output:Meter,Electricity:Zone:MFG - CORR. >= 2.4M-SCH-B-SPACE FUNCTION ZN,hourly; !- [J]
Output:Meter:Cumulative,Electricity:Zone:MFG - CORR. >= 2.4M-SCH-B-SPACE FUNCTION ZN,hourly; !- [J]
Output:Meter,InteriorLights:Electricity:Zone:MFG - CORR. >= 2.4M-SCH-B-SPACE FUNCTION ZN,hourly; !- [J]
Output:Meter:Cumulative,InteriorLights:Electricity:Zone:MFG - CORR. >= 2.4M-SCH-B-SPACE FUNCTION ZN,hourly; !- [J]
Output:Meter,Electricity:Zone:MFG - CORR. >= 2.4M-SCH-C-SPACE FUNCTION ZN,hourly; !- [J]
Output:Meter:Cumulative,Electricity:Zone:MFG - CORR. >= 2.4M-SCH-C-SPACE FUNCTION ZN,hourly; !- [J]
Output:Meter,InteriorLights:Electricity:Zone:MFG - CORR. >= 2.4M-SCH-C-SPACE FUNCTION ZN,hourly; !- [J]
Output:Meter:Cumulative,InteriorLights:Electricity:Zone:MFG - CORR. >= 2.4M-SCH-C-SPACE FUNCTION ZN,hourly; !- [J]
Output:Meter,Electricity:Zone:MFG - CORR. >= 2.4M-SCH-D-SPACE FUNCTION ZN,hourly; !- [J]
Output:Meter:Cumulative,Electricity:Zone:MFG - CORR. >= 2.4M-SCH-D-SPACE FUNCTION ZN,hourly; !- [J]
Output:Meter,InteriorLights:Electricity:Zone:MFG - CORR. >= 2.4M-SCH-D-SPACE FUNCTION ZN,hourly; !- [J]
Output:Meter:Cumulative,InteriorLights:Electricity:Zone:MFG - CORR. >= 2.4M-SCH-D-SPACE FUNCTION ZN,hourly; !- [J]
Output:Meter,Electricity:Zone:MFG - CORR. >= 2.4M-SCH-E-SPACE FUNCTION ZN,hourly; !- [J]
Output:Meter:Cumulative,Electricity:Zone:MFG - CORR. >= 2.4M-SCH-E-SPACE FUNCTION ZN,hourly; !- [J]
Output:Meter,InteriorLights:Electricity:Zone:MFG - CORR. >= 2.4M-SCH-E-SPACE FUNCTION ZN,hourly; !- [J]
Output:Meter:Cumulative,InteriorLights:Electricity:Zone:MFG - CORR. >= 2.4M-SCH-E-SPACE FUNCTION ZN,hourly; !- [J]
Output:Meter,Electricity:Zone:MFG - CORR. >= 2.4M-SCH-F-SPACE FUNCTION ZN,hourly; !- [J]
Output:Meter:Cumulative,Electricity:Zone:MFG - CORR. >= 2.4M-SCH-F-SPACE FUNCTION ZN,hourly; !- [J]
Output:Meter,InteriorLights:Electricity:Zone:MFG - CORR. >= 2.4M-SCH-F-SPACE FUNCTION ZN,hourly; !- [J]
Output:Meter:Cumulative,InteriorLights:Electricity:Zone:MFG - CORR. >= 2.4M-SCH-F-SPACE FUNCTION ZN,hourly; !- [J]
Output:Meter,Electricity:Zone:MFG - CORR. >= 2.4M-SCH-G-SPACE FUNCTION ZN,hourly; !- [J]
Output:Meter:Cumulative,Electricity:Zone:MFG - CORR. >= 2.4M-SCH-G-SPACE FUNCTION ZN,hourly; !- [J]
Output:Meter,InteriorLights:Electricity:Zone:MFG - CORR. >= 2.4M-SCH-G-SPACE FUNCTION ZN,hourly; !- [J]
Output:Meter:Cumulative,InteriorLights:Electricity:Zone:MFG - CORR. >= 2.4M-SCH-G-SPACE FUNCTION ZN,hourly; !- [J]
Output:Meter,Electricity:Zone:MFG - CORR. >= 2.4M-SCH-H-SPACE FUNCTION ZN,hourly; !- [J]
Output:Meter:Cumulative,Electricity:Zone:MFG - CORR. >= 2.4M-SCH-H-SPACE FUNCTION ZN,hourly; !- [J]
Output:Meter,InteriorLights:Electricity:Zone:MFG - CORR. >= 2.4M-SCH-H-SPACE FUNCTION ZN,hourly; !- [J]
Output:Meter:Cumulative,InteriorLights:Electricity:Zone:MFG - CORR. >= 2.4M-SCH-H-SPACE FUNCTION ZN,hourly; !- [J]
Output:Meter,Electricity:Zone:MFG - CORR. >= 2.4M-SCH-I-SPACE FUNCTION ZN,hourly; !- [J]
Output:Meter:Cumulative,Electricity:Zone:MFG - CORR. >= 2.4M-SCH-I-SPACE FUNCTION ZN,hourly; !- [J]
Output:Meter,InteriorLights:Electricity:Zone:MFG - CORR. >= 2.4M-SCH-I-SPACE FUNCTION ZN,hourly; !- [J]
Output:Meter:Cumulative,InteriorLights:Electricity:Zone:MFG - CORR. >= 2.4M-SCH-I-SPACE FUNCTION ZN,hourly; !- [J]
Output:Meter,Electricity:Zone:MFG - DETAILED-SPACE FUNCTION ZN,hourly; !- [J]
Output:Meter:Cumulative,Electricity:Zone:MFG - DETAILED-SPACE FUNCTION ZN,hourly; !- [J]
Output:Meter,InteriorLights:Electricity:Zone:MFG - DETAILED-SPACE FUNCTION ZN,hourly; !- [J]
Output:Meter:Cumulative,InteriorLights:Electricity:Zone:MFG - DETAILED-SPACE FUNCTION ZN,hourly; !- [J]
Output:Meter,Electricity:Zone:MFG - EQUIPMENT-SPACE FUNCTION ZN,hourly; !- [J]
Output:Meter:Cumulative,Electricity:Zone:MFG - EQUIPMENT-SPACE FUNCTION ZN,hourly; !- [J]
Output:Meter,InteriorLights:Electricity:Zone:MFG - EQUIPMENT-SPACE FUNCTION ZN,hourly; !- [J]
Output:Meter:Cumulative,InteriorLights:Electricity:Zone:MFG - EQUIPMENT-SPACE FUNCTION ZN,hourly; !- [J]
Output:Meter,Electricity:Zone:MUSEUM - EXHIBITION-SPACE FUNCTION ZN,hourly; !- [J]
Output:Meter:Cumulative,Electricity:Zone:MUSEUM - EXHIBITION-SPACE FUNCTION ZN,hourly; !- [J]
Output:Meter,InteriorLights:Electricity:Zone:MUSEUM - EXHIBITION-SPACE FUNCTION ZN,hourly; !- [J]
Output:Meter:Cumulative,InteriorLights:Electricity:Zone:MUSEUM - EXHIBITION-SPACE FUNCTION ZN,hourly; !- [J]
Output:Meter,Electricity:Zone:MUSEUM - RESTORATION-SPACE FUNCTION ZN,hourly; !- [J]
Output:Meter:Cumulative,Electricity:Zone:MUSEUM - RESTORATION-SPACE FUNCTION ZN,hourly; !- [J]
Output:Meter,InteriorLights:Electricity:Zone:MUSEUM - RESTORATION-SPACE FUNCTION ZN,hourly; !- [J]
Output:Meter:Cumulative,InteriorLights:Electricity:Zone:MUSEUM - RESTORATION-SPACE FUNCTION ZN,hourly; !- [J]
Output:Meter,Electricity:Zone:OFFICE - ENCLOSED-SPACE FUNCTION ZN,hourly; !- [J]
Output:Meter:Cumulative,Electricity:Zone:OFFICE - ENCLOSED-SPACE FUNCTION ZN,hourly; !- [J]
Output:Meter,InteriorLights:Electricity:Zone:OFFICE - ENCLOSED-SPACE FUNCTION ZN,hourly; !- [J]
Output:Meter:Cumulative,InteriorLights:Electricity:Zone:OFFICE - ENCLOSED-SPACE FUNCTION ZN,hourly; !- [J]
Output:Meter,Electricity:Zone:OFFICE - ENCLOSED - OCCSENS-SPACE FUNCTION ZN,hourly; !- [J]
Output:Meter:Cumulative,Electricity:Zone:OFFICE - ENCLOSED - OCCSENS-SPACE FUNCTION ZN,hourly; !- [J]
Output:Meter,InteriorLights:Electricity:Zone:OFFICE - ENCLOSED - OCCSENS-SPACE FUNCTION ZN,hourly; !- [J]
Output:Meter:Cumulative,InteriorLights:Electricity:Zone:OFFICE - ENCLOSED - OCCSENS-SPACE FUNCTION ZN,hourly; !- [J]
Output:Meter,Electricity:Zone:OFFICE - OPEN PLAN-SPACE FUNCTION ZN,hourly; !- [J]
Output:Meter:Cumulative,Electricity:Zone:OFFICE - OPEN PLAN-SPACE FUNCTION ZN,hourly; !- [J]
Output:Meter,InteriorLights:Electricity:Zone:OFFICE - OPEN PLAN-SPACE FUNCTION ZN,hourly; !- [J]
Output:Meter:Cumulative,InteriorLights:Electricity:Zone:OFFICE - OPEN PLAN-SPACE FUNCTION ZN,hourly; !- [J]
Output:Meter,Electricity:Zone:PARKING GARAGE SPACE-SPACE FUNCTION ZN,hourly; !- [J]
Output:Meter:Cumulative,Electricity:Zone:PARKING GARAGE SPACE-SPACE FUNCTION ZN,hourly; !- [J]
Output:Meter,InteriorLights:Electricity:Zone:PARKING GARAGE SPACE-SPACE FUNCTION ZN,hourly; !- [J]
Output:Meter:Cumulative,InteriorLights:Electricity:Zone:PARKING GARAGE SPACE-SPACE FUNCTION ZN,hourly; !- [J]
Output:Meter,Electricity:Zone:PENITENTIARY - AUDIENCE-SPACE FUNCTION ZN,hourly; !- [J]
Output:Meter:Cumulative,Electricity:Zone:PENITENTIARY - AUDIENCE-SPACE FUNCTION ZN,hourly; !- [J]
Output:Meter,InteriorLights:Electricity:Zone:PENITENTIARY - AUDIENCE-SPACE FUNCTION ZN,hourly; !- [J]
Output:Meter:Cumulative,InteriorLights:Electricity:Zone:PENITENTIARY - AUDIENCE-SPACE FUNCTION ZN,hourly; !- [J]
Output:Meter,Electricity:Zone:PENITENTIARY - CLASSROOM-SPACE FUNCTION ZN,hourly; !- [J]
Output:Meter:Cumulative,Electricity:Zone:PENITENTIARY - CLASSROOM-SPACE FUNCTION ZN,hourly; !- [J]
Output:Meter,InteriorLights:Electricity:Zone:PENITENTIARY - CLASSROOM-SPACE FUNCTION ZN,hourly; !- [J]
Output:Meter:Cumulative,InteriorLights:Electricity:Zone:PENITENTIARY - CLASSROOM-SPACE FUNCTION ZN,hourly; !- [J]
Output:Meter,Electricity:Zone:PENITENTIARY - DINING-SPACE FUNCTION ZN,hourly; !- [J]
Output:Meter:Cumulative,Electricity:Zone:PENITENTIARY - DINING-SPACE FUNCTION ZN,hourly; !- [J]
Output:Meter,InteriorLights:Electricity:Zone:PENITENTIARY - DINING-SPACE FUNCTION ZN,hourly; !- [J]
Output:Meter:Cumulative,InteriorLights:Electricity:Zone:PENITENTIARY - DINING-SPACE FUNCTION ZN,hourly; !- [J]
Output:Meter,Electricity:Zone:POST OFFICE SORTING-SPACE FUNCTION ZN,hourly; !- [J]
Output:Meter:Cumulative,Electricity:Zone:POST OFFICE SORTING-SPACE FUNCTION ZN,hourly; !- [J]
Output:Meter,InteriorLights:Electricity:Zone:POST OFFICE SORTING-SPACE FUNCTION ZN,hourly; !- [J]
Output:Meter:Cumulative,InteriorLights:Electricity:Zone:POST OFFICE SORTING-SPACE FUNCTION ZN,hourly; !- [J]
Output:Meter,Electricity:Zone:RELIGIOUS - AUDIENCE-SPACE FUNCTION ZN,hourly; !- [J]
Output:Meter:Cumulative,Electricity:Zone:RELIGIOUS - AUDIENCE-SPACE FUNCTION ZN,hourly; !- [J]
Output:Meter,InteriorLights:Electricity:Zone:RELIGIOUS - AUDIENCE-SPACE FUNCTION ZN,hourly; !- [J]
Output:Meter:Cumulative,InteriorLights:Electricity:Zone:RELIGIOUS - AUDIENCE-SPACE FUNCTION ZN,hourly; !- [J]
Output:Meter,Electricity:Zone:RELIGIOUS - FELLOWSHIP HALL-SPACE FUNCTION ZN,hourly; !- [J]
Output:Meter:Cumulative,Electricity:Zone:RELIGIOUS - FELLOWSHIP HALL-SPACE FUNCTION ZN,hourly; !- [J]
Output:Meter,InteriorLights:Electricity:Zone:RELIGIOUS - FELLOWSHIP HALL-SPACE FUNCTION ZN,hourly; !- [J]
Output:Meter:Cumulative,InteriorLights:Electricity:Zone:RELIGIOUS - FELLOWSHIP HALL-SPACE FUNCTION ZN,hourly; !- [J]
Output:Meter,Electricity:Zone:RELIGIOUS - PULPIT/CHOIR-SPACE FUNCTION ZN,hourly; !- [J]
Output:Meter:Cumulative,Electricity:Zone:RELIGIOUS - PULPIT/CHOIR-SPACE FUNCTION ZN,hourly; !- [J]
Output:Meter,InteriorLights:Electricity:Zone:RELIGIOUS - PULPIT/CHOIR-SPACE FUNCTION ZN,hourly; !- [J]
Output:Meter:Cumulative,InteriorLights:Electricity:Zone:RELIGIOUS - PULPIT/CHOIR-SPACE FUNCTION ZN,hourly; !- [J]
Output:Meter,Electricity:Zone:RETAIL - DRESSING/FITTING-SPACE FUNCTION ZN,hourly; !- [J]
Output:Meter:Cumulative,Electricity:Zone:RETAIL - DRESSING/FITTING-SPACE FUNCTION ZN,hourly; !- [J]
Output:Meter,InteriorLights:Electricity:Zone:RETAIL - DRESSING/FITTING-SPACE FUNCTION ZN,hourly; !- [J]
Output:Meter:Cumulative,InteriorLights:Electricity:Zone:RETAIL - DRESSING/FITTING-SPACE FUNCTION ZN,hourly; !- [J]
Output:Meter,Electricity:Zone:RETAIL - MALL CONCOURSE-SPACE FUNCTION ZN,hourly; !- [J]
Output:Meter:Cumulative,Electricity:Zone:RETAIL - MALL CONCOURSE-SPACE FUNCTION ZN,hourly; !- [J]
Output:Meter,InteriorLights:Electricity:Zone:RETAIL - MALL CONCOURSE-SPACE FUNCTION ZN,hourly; !- [J]
Output:Meter:Cumulative,InteriorLights:Electricity:Zone:RETAIL - MALL CONCOURSE-SPACE FUNCTION ZN,hourly; !- [J]
Output:Meter,Electricity:Zone:RETAIL - SALES-SPACE FUNCTION ZN,hourly; !- [J]
Output:Meter:Cumulative,Electricity:Zone:RETAIL - SALES-SPACE FUNCTION ZN,hourly; !- [J]
Output:Meter,InteriorLights:Electricity:Zone:RETAIL - SALES-SPACE FUNCTION ZN,hourly; !- [J]
Output:Meter:Cumulative,InteriorLights:Electricity:Zone:RETAIL - SALES-SPACE FUNCTION ZN,hourly; !- [J]
Output:Meter,Electricity:Zone:SALES AREA-SPACE FUNCTION ZN,hourly; !- [J]
Output:Meter:Cumulative,Electricity:Zone:SALES AREA-SPACE FUNCTION ZN,hourly; !- [J]
Output:Meter,InteriorLights:Electricity:Zone:SALES AREA-SPACE FUNCTION ZN,hourly; !- [J]
Output:Meter:Cumulative,InteriorLights:Electricity:Zone:SALES AREA-SPACE FUNCTION ZN,hourly; !- [J]
Output:Meter,Electricity:Zone:SPORTS ARENA - AUDIENCE-SPACE FUNCTION ZN,hourly; !- [J]
Output:Meter:Cumulative,Electricity:Zone:SPORTS ARENA - AUDIENCE-SPACE FUNCTION ZN,hourly; !- [J]
Output:Meter,InteriorLights:Electricity:Zone:SPORTS ARENA - AUDIENCE-SPACE FUNCTION ZN,hourly; !- [J]
Output:Meter:Cumulative,InteriorLights:Electricity:Zone:SPORTS ARENA - AUDIENCE-SPACE FUNCTION ZN,hourly; !- [J]
Output:Meter,Electricity:Zone:SPORTS ARENA - COURT C1-SPACE FUNCTION ZN,hourly; !- [J]
Output:Meter:Cumulative,Electricity:Zone:SPORTS ARENA - COURT C1-SPACE FUNCTION ZN,hourly; !- [J]
Output:Meter,InteriorLights:Electricity:Zone:SPORTS ARENA - COURT C1-SPACE FUNCTION ZN,hourly; !- [J]
Output:Meter:Cumulative,InteriorLights:Electricity:Zone:SPORTS ARENA - COURT C1-SPACE FUNCTION ZN,hourly; !- [J]
Output:Meter,Electricity:Zone:SPORTS ARENA - COURT C2-SPACE FUNCTION ZN,hourly; !- [J]
Output:Meter:Cumulative,Electricity:Zone:SPORTS ARENA - COURT C2-SPACE FUNCTION ZN,hourly; !- [J]
Output:Meter,InteriorLights:Electricity:Zone:SPORTS ARENA - COURT C2-SPACE FUNCTION ZN,hourly; !- [J]
Output:Meter:Cumulative,InteriorLights:Electricity:Zone:SPORTS ARENA - COURT C2-SPACE FUNCTION ZN,hourly; !- [J]
Output:Meter,Electricity:Zone:SPORTS ARENA - COURT C3-SPACE FUNCTION ZN,hourly; !- [J]
Output:Meter:Cumulative,Electricity:Zone:SPORTS ARENA - COURT C3-SPACE FUNCTION ZN,hourly; !- [J]
Output:Meter,InteriorLights:Electricity:Zone:SPORTS ARENA - COURT C3-SPACE FUNCTION ZN,hourly; !- [J]
Output:Meter:Cumulative,InteriorLights:Electricity:Zone:SPORTS ARENA - COURT C3-SPACE FUNCTION ZN,hourly; !- [J]
Output:Meter,Electricity:Zone:SPORTS ARENA - COURT C4-SPACE FUNCTION ZN,hourly; !- [J]
Output:Meter:Cumulative,Electricity:Zone:SPORTS ARENA - COURT C4-SPACE FUNCTION ZN,hourly; !- [J]
Output:Meter,InteriorLights:Electricity:Zone:SPORTS ARENA - COURT C4-SPACE FUNCTION ZN,hourly; !- [J]
Output:Meter:Cumulative,InteriorLights:Electricity:Zone:SPORTS ARENA - COURT C4-SPACE FUNCTION ZN,hourly; !- [J]
Output:Meter,Electricity:Zone:SPORTS ARENA - RING-SPACE FUNCTION ZN,hourly; !- [J]
Output:Meter:Cumulative,Electricity:Zone:SPORTS ARENA - RING-SPACE FUNCTION ZN,hourly; !- [J]
Output:Meter,InteriorLights:Electricity:Zone:SPORTS ARENA - RING-SPACE FUNCTION ZN,hourly; !- [J]
Output:Meter:Cumulative,InteriorLights:Electricity:Zone:SPORTS ARENA - RING-SPACE FUNCTION ZN,hourly; !- [J]
Output:Meter,Electricity:Zone:STAIRWAY-SCH-A-SPACE FUNCTION ZN,hourly; !- [J]
Output:Meter:Cumulative,Electricity:Zone:STAIRWAY-SCH-A-SPACE FUNCTION ZN,hourly; !- [J]
Output:Meter,InteriorLights:Electricity:Zone:STAIRWAY-SCH-A-SPACE FUNCTION ZN,hourly; !- [J]
Output:Meter:Cumulative,InteriorLights:Electricity:Zone:STAIRWAY-SCH-A-SPACE FUNCTION ZN,hourly; !- [J]
Output:Meter,Electricity:Zone:STAIRWAY-SCH-B-SPACE FUNCTION ZN,hourly; !- [J]
Output:Meter:Cumulative,Electricity:Zone:STAIRWAY-SCH-B-SPACE FUNCTION ZN,hourly; !- [J]
Output:Meter,InteriorLights:Electricity:Zone:STAIRWAY-SCH-B-SPACE FUNCTION ZN,hourly; !- [J]
Output:Meter:Cumulative,InteriorLights:Electricity:Zone:STAIRWAY-SCH-B-SPACE FUNCTION ZN,hourly; !- [J]
Output:Meter,Electricity:Zone:STAIRWAY-SCH-C-SPACE FUNCTION ZN,hourly; !- [J]
Output:Meter:Cumulative,Electricity:Zone:STAIRWAY-SCH-C-SPACE FUNCTION ZN,hourly; !- [J]
Output:Meter,InteriorLights:Electricity:Zone:STAIRWAY-SCH-C-SPACE FUNCTION ZN,hourly; !- [J]
Output:Meter:Cumulative,InteriorLights:Electricity:Zone:STAIRWAY-SCH-C-SPACE FUNCTION ZN,hourly; !- [J]
Output:Meter,Electricity:Zone:STAIRWAY-SCH-D-SPACE FUNCTION ZN,hourly; !- [J]
Output:Meter:Cumulative,Electricity:Zone:STAIRWAY-SCH-D-SPACE FUNCTION ZN,hourly; !- [J]
Output:Meter,InteriorLights:Electricity:Zone:STAIRWAY-SCH-D-SPACE FUNCTION ZN,hourly; !- [J]
Output:Meter:Cumulative,InteriorLights:Electricity:Zone:STAIRWAY-SCH-D-SPACE FUNCTION ZN,hourly; !- [J]
Output:Meter,Electricity:Zone:STAIRWAY-SCH-E-SPACE FUNCTION ZN,hourly; !- [J]
Output:Meter:Cumulative,Electricity:Zone:STAIRWAY-SCH-E-SPACE FUNCTION ZN,hourly; !- [J]
Output:Meter,InteriorLights:Electricity:Zone:STAIRWAY-SCH-E-SPACE FUNCTION ZN,hourly; !- [J]
Output:Meter:Cumulative,InteriorLights:Electricity:Zone:STAIRWAY-SCH-E-SPACE FUNCTION ZN,hourly; !- [J]
Output:Meter,Electricity:Zone:STAIRWAY-SCH-F-SPACE FUNCTION ZN,hourly; !- [J]
Output:Meter:Cumulative,Electricity:Zone:STAIRWAY-SCH-F-SPACE FUNCTION ZN,hourly; !- [J]
Output:Meter,InteriorLights:Electricity:Zone:STAIRWAY-SCH-F-SPACE FUNCTION ZN,hourly; !- [J]
Output:Meter:Cumulative,InteriorLights:Electricity:Zone:STAIRWAY-SCH-F-SPACE FUNCTION ZN,hourly; !- [J]
Output:Meter,Electricity:Zone:STAIRWAY-SCH-G-SPACE FUNCTION ZN,hourly; !- [J]
Output:Meter:Cumulative,Electricity:Zone:STAIRWAY-SCH-G-SPACE FUNCTION ZN,hourly; !- [J]
Output:Meter,InteriorLights:Electricity:Zone:STAIRWAY-SCH-G-SPACE FUNCTION ZN,hourly; !- [J]
Output:Meter:Cumulative,InteriorLights:Electricity:Zone:STAIRWAY-SCH-G-SPACE FUNCTION ZN,hourly; !- [J]
Output:Meter,Electricity:Zone:STAIRWAY-SCH-H-SPACE FUNCTION ZN,hourly; !- [J]
Output:Meter:Cumulative,Electricity:Zone:STAIRWAY-SCH-H-SPACE FUNCTION ZN,hourly; !- [J]
Output:Meter,InteriorLights:Electricity:Zone:STAIRWAY-SCH-H-SPACE FUNCTION ZN,hourly; !- [J]
Output:Meter:Cumulative,InteriorLights:Electricity:Zone:STAIRWAY-SCH-H-SPACE FUNCTION ZN,hourly; !- [J]
Output:Meter,Electricity:Zone:STAIRWAY-SCH-I-SPACE FUNCTION ZN,hourly; !- [J]
Output:Meter:Cumulative,Electricity:Zone:STAIRWAY-SCH-I-SPACE FUNCTION ZN,hourly; !- [J]
Output:Meter,InteriorLights:Electricity:Zone:STAIRWAY-SCH-I-SPACE FUNCTION ZN,hourly; !- [J]
Output:Meter:Cumulative,InteriorLights:Electricity:Zone:STAIRWAY-SCH-I-SPACE FUNCTION ZN,hourly; !- [J]
Output:Meter,Electricity:Zone:STORAGE AREA-SPACE FUNCTION ZN,hourly; !- [J]
Output:Meter:Cumulative,Electricity:Zone:STORAGE AREA-SPACE FUNCTION ZN,hourly; !- [J]
Output:Meter,InteriorLights:Electricity:Zone:STORAGE AREA-SPACE FUNCTION ZN,hourly; !- [J]
Output:Meter:Cumulative,InteriorLights:Electricity:Zone:STORAGE AREA-SPACE FUNCTION ZN,hourly; !- [J]
Output:Meter,Electricity:Zone:STORAGE AREA - OCCSENS-SPACE FUNCTION ZN,hourly; !- [J]
Output:Meter:Cumulative,Electricity:Zone:STORAGE AREA - OCCSENS-SPACE FUNCTION ZN,hourly; !- [J]
Output:Meter,InteriorLights:Electricity:Zone:STORAGE AREA - OCCSENS-SPACE FUNCTION ZN,hourly; !- [J]
Output:Meter:Cumulative,InteriorLights:Electricity:Zone:STORAGE AREA - OCCSENS-SPACE FUNCTION ZN,hourly; !- [J]
Output:Meter,Electricity:Zone:STORAGE AREA - REFRIGERATED-SPACE FUNCTION ZN,hourly; !- [J]
Output:Meter:Cumulative,Electricity:Zone:STORAGE AREA - REFRIGERATED-SPACE FUNCTION ZN,hourly; !- [J]
Output:Meter,InteriorLights:Electricity:Zone:STORAGE AREA - REFRIGERATED-SPACE FUNCTION ZN,hourly; !- [J]
Output:Meter:Cumulative,InteriorLights:Electricity:Zone:STORAGE AREA - REFRIGERATED-SPACE FUNCTION ZN,hourly; !- [J]
Output:Meter,Electricity:Zone:STORAGE AREA - REFRIGERATED - OCCSENS-SPACE FUNCTION ZN,hourly; !- [J]
Output:Meter:Cumulative,Electricity:Zone:STORAGE AREA - REFRIGERATED - OCCSENS-SPACE FUNCTION ZN,hourly; !- [J]
Output:Meter,InteriorLights:Electricity:Zone:STORAGE AREA - REFRIGERATED - OCCSENS-SPACE FUNCTION ZN,hourly; !- [J]
Output:Meter:Cumulative,InteriorLights:Electricity:Zone:STORAGE AREA - REFRIGERATED - OCCSENS-SPACE FUNCTION ZN,hourly; !- [J]
Output:Meter,Electricity:Zone:TRANSP. BAGGAGE-SPACE FUNCTION ZN,hourly; !- [J]
Output:Meter:Cumulative,Electricity:Zone:TRANSP. BAGGAGE-SPACE FUNCTION ZN,hourly; !- [J]
Output:Meter,InteriorLights:Electricity:Zone:TRANSP. BAGGAGE-SPACE FUNCTION ZN,hourly; !- [J]
Output:Meter:Cumulative,InteriorLights:Electricity:Zone:TRANSP. BAGGAGE-SPACE FUNCTION ZN,hourly; !- [J]
Output:Meter,Electricity:Zone:TRANSP. CONCOURSE-SPACE FUNCTION ZN,hourly; !- [J]
Output:Meter:Cumulative,Electricity:Zone:TRANSP. CONCOURSE-SPACE FUNCTION ZN,hourly; !- [J]
Output:Meter,InteriorLights:Electricity:Zone:TRANSP. CONCOURSE-SPACE FUNCTION ZN,hourly; !- [J]
Output:Meter:Cumulative,InteriorLights:Electricity:Zone:TRANSP. CONCOURSE-SPACE FUNCTION ZN,hourly; !- [J]
Output:Meter,Electricity:Zone:TRANSP. COUNTER-SPACE FUNCTION ZN,hourly; !- [J]
Output:Meter:Cumulative,Electricity:Zone:TRANSP. COUNTER-SPACE FUNCTION ZN,hourly; !- [J]
Output:Meter,InteriorLights:Electricity:Zone:TRANSP. COUNTER-SPACE FUNCTION ZN,hourly; !- [J]
Output:Meter:Cumulative,InteriorLights:Electricity:Zone:TRANSP. COUNTER-SPACE FUNCTION ZN,hourly; !- [J]
Output:Meter,Electricity:Zone:TRANSP. SEATING-SPACE FUNCTION ZN,hourly; !- [J]
Output:Meter:Cumulative,Electricity:Zone:TRANSP. SEATING-SPACE FUNCTION ZN,hourly; !- [J]
Output:Meter,InteriorLights:Electricity:Zone:TRANSP. SEATING-SPACE FUNCTION ZN,hourly; !- [J]
Output:Meter:Cumulative,InteriorLights:Electricity:Zone:TRANSP. SEATING-SPACE FUNCTION ZN,hourly; !- [J]
Output:Meter,Electricity:Zone:WAREHOUSE - FINE-SPACE FUNCTION ZN,hourly; !- [J]
Output:Meter:Cumulative,Electricity:Zone:WAREHOUSE - FINE-SPACE FUNCTION ZN,hourly; !- [J]
Output:Meter,InteriorLights:Electricity:Zone:WAREHOUSE - FINE-SPACE FUNCTION ZN,hourly; !- [J]
Output:Meter:Cumulative,InteriorLights:Electricity:Zone:WAREHOUSE - FINE-SPACE FUNCTION ZN,hourly; !- [J]
Output:Meter,Electricity:Zone:WAREHOUSE - FINE - REFRIGERATED-SPACE FUNCTION ZN,hourly; !- [J]
Output:Meter:Cumulative,Electricity:Zone:WAREHOUSE - FINE - REFRIGERATED-SPACE FUNCTION ZN,hourly; !- [J]
Output:Meter,InteriorLights:Electricity:Zone:WAREHOUSE - FINE - REFRIGERATED-SPACE FUNCTION ZN,hourly; !- [J]
Output:Meter:Cumulative,InteriorLights:Electricity:Zone:WAREHOUSE - FINE - REFRIGERATED-SPACE FUNCTION ZN,hourly; !- [J]
Output:Meter,Electricity:Zone:WAREHOUSE - MED/BLK-SPACE FUNCTION ZN,hourly; !- [J]
Output:Meter:Cumulative,Electricity:Zone:WAREHOUSE - MED/BLK-SPACE FUNCTION ZN,hourly; !- [J]
Output:Meter,InteriorLights:Electricity:Zone:WAREHOUSE - MED/BLK-SPACE FUNCTION ZN,hourly; !- [J]
Output:Meter:Cumulative,InteriorLights:Electricity:Zone:WAREHOUSE - MED/BLK-SPACE FUNCTION ZN,hourly; !- [J]
Output:Meter,Electricity:Zone:WAREHOUSE - MED/BLK - REFRIGERATED-SPACE FUNCTION ZN,hourly; !- [J]
Output:Meter:Cumulative,Electricity:Zone:WAREHOUSE - MED/BLK - REFRIGERATED-SPACE FUNCTION ZN,hourly; !- [J]
Output:Meter,InteriorLights:Electricity:Zone:WAREHOUSE - MED/BLK - REFRIGERATED-SPACE FUNCTION ZN,hourly; !- [J]
Output:Meter:Cumulative,InteriorLights:Electricity:Zone:WAREHOUSE - MED/BLK - REFRIGERATED-SPACE FUNCTION ZN,hourly; !- [J]
[...]
Output:Meter:Cumulative,Cooling:EnergyTransfer:Zone:WHOLEBUILDING-CONVENTION CENTRE ZN,hourly; !- [J]
Output:Meter,EnergyTransfer:Zone:WHOLEBUILDING-COURTHOUSE ZN,hourly; !- [J]
Output:Meter:Cumulative,EnergyTransfer:Zone:WHOLEBUILDING-COURTHOUSE ZN,hourly; !- [J]
Output:Meter,Heating:EnergyTransfer:Zone:WHOLEBUILDING-COURTHOUSE ZN,hourly; !- [J]
Output:Meter:Cumulative,Heating:EnergyTransfer:Zone:WHOLEBUILDING-COURTHOUSE ZN,hourly; !- [J]
Output:Meter,Cooling:EnergyTransfer:Zone:WHOLEBUILDING-COURTHOUSE ZN,hourly; !- [J]
Output:Meter:Cumulative,Cooling:EnergyTransfer:Zone:WHOLEBUILDING-COURTHOUSE ZN,hourly; !- [J]
Output:Meter,EnergyTransfer:Zone:WHOLEBUILDING-DINING - BAR/LOUNGE ZN,hourly; !- [J]
Output:Meter:Cumulative,EnergyTransfer:Zone:WHOLEBUILDING-DINING - BAR/LOUNGE ZN,hourly; !- [J]
Output:Meter,Heating:EnergyTransfer:Zone:WHOLEBUILDING-DINING - BAR/LOUNGE ZN,hourly; !- [J]
Output:Meter:Cumulative,Heating:EnergyTransfer:Zone:WHOLEBUILDING-DINING - BAR/LOUNGE ZN,hourly; !- [J]
Output:Meter,Cooling:EnergyTransfer:Zone:WHOLEBUILDING-DINING - BAR/LOUNGE ZN,hourly; !- [J]
Output:Meter:Cumulative,Cooling:EnergyTransfer:Zone:WHOLEBUILDING-DINING - BAR/LOUNGE ZN,hourly; !- [J]
Output:Meter,EnergyTransfer:Zone:WHOLEBUILDING-DINING - CAFETERIA ZN,hourly; !- [J]
Output:Meter:Cumulative,EnergyTransfer:Zone:WHOLEBUILDING-DINING - CAFETERIA ZN,hourly; !- [J]
Output:Meter,Heating:EnergyTransfer:Zone:WHOLEBUILDING-DINING - CAFETERIA ZN,hourly; !- [J]
Output:Meter:Cumulative,Heating:EnergyTransfer:Zone:WHOLEBUILDING-DINING - CAFETERIA ZN,hourly; !- [J]
Output:Meter,Cooling:EnergyTransfer:Zone:WHOLEBUILDING-DINING - CAFETERIA ZN,hourly; !- [J]
Output:Meter:Cumulative,Cooling:EnergyTransfer:Zone:WHOLEBUILDING-DINING - CAFETERIA ZN,hourly; !- [J]
Output:Meter,EnergyTransfer:Zone:WHOLEBUILDING-DINING - FAMILY ZN,hourly; !- [J]
Output:Meter:Cumulative,EnergyTransfer:Zone:WHOLEBUILDING-DINING - FAMILY ZN,hourly; !- [J]
Output:Meter,Heating:EnergyTransfer:Zone:WHOLEBUILDING-DINING - FAMILY ZN,hourly; !- [J]
Output:Meter:Cumulative,Heating:EnergyTransfer:Zone:WHOLEBUILDING-DINING - FAMILY ZN,hourly; !- [J]
Output:Meter,Cooling:EnergyTransfer:Zone:WHOLEBUILDING-DINING - FAMILY ZN,hourly; !- [J]
Output:Meter:Cumulative,Cooling:EnergyTransfer:Zone:WHOLEBUILDING-DINING - FAMILY ZN,hourly; !- [J]
Output:Meter,EnergyTransfer:Zone:WHOLEBUILDING-DORMITORY ZN,hourly; !- [J]
Output:Meter:Cumulative,EnergyTransfer:Zone:WHOLEBUILDING-DORMITORY ZN,hourly; !- [J]
Output:Meter,Heating:EnergyTransfer:Zone:WHOLEBUILDING-DORMITORY ZN,hourly; !- [J]
Output:Meter:Cumulative,Heating:EnergyTransfer:Zone:WHOLEBUILDING-DORMITORY ZN,hourly; !- [J]
Output:Meter,Cooling:EnergyTransfer:Zone:WHOLEBUILDING-DORMITORY ZN,hourly; !- [J]
Output:Meter:Cumulative,Cooling:EnergyTransfer:Zone:WHOLEBUILDING-DORMITORY ZN,hourly; !- [J]
Output:Meter,EnergyTransfer:Zone:WHOLEBUILDING-EXERCISE CENTRE ZN,hourly; !- [J]
Output:Meter:Cumulative,EnergyTransfer:Zone:WHOLEBUILDING-EXERCISE CENTRE ZN,hourly; !- [J]
Output:Meter,Heating:EnergyTransfer:Zone:WHOLEBUILDING-EXERCISE CENTRE ZN,hourly; !- [J]
Output:Meter:Cumulative,Heating:EnergyTransfer:Zone:WHOLEBUILDING-EXERCISE CENTRE ZN,hourly; !- [J]
Output:Meter,Cooling:EnergyTransfer:Zone:WHOLEBUILDING-EXERCISE CENTRE ZN,hourly; !- [J]
Output:Meter:Cumulative,Cooling:EnergyTransfer:Zone:WHOLEBUILDING-EXERCISE CENTRE ZN,hourly; !- [J]
Output:Meter,EnergyTransfer:Zone:WHOLEBUILDING-FIRE STATION ZN,hourly; !- [J]
Output:Meter:Cumulative,EnergyTransfer:Zone:WHOLEBUILDING-FIRE STATION ZN,hourly; !- [J]
Output:Meter,Heating:EnergyTransfer:Zone:WHOLEBUILDING-FIRE STATION ZN,hourly; !- [J]
Output:Meter:Cumulative,Heating:EnergyTransfer:Zone:WHOLEBUILDING-FIRE STATION ZN,hourly; !- [J]
Output:Meter,Cooling:EnergyTransfer:Zone:WHOLEBUILDING-FIRE STATION ZN,hourly; !- [J]
Output:Meter:Cumulative,Cooling:EnergyTransfer:Zone:WHOLEBUILDING-FIRE STATION ZN,hourly; !- [J]
Output:Meter,EnergyTransfer:Zone:WHOLEBUILDING-GYMNASIUM ZN,hourly; !- [J]
Output:Meter:Cumulative,EnergyTransfer:Zone:WHOLEBUILDING-GYMNASIUM ZN,hourly; !- [J]
Output:Meter,Heating:EnergyTransfer:Zone:WHOLEBUILDING-GYMNASIUM ZN,hourly; !- [J]
Output:Meter:Cumulative,Heating:EnergyTransfer:Zone:WHOLEBUILDING-GYMNASIUM ZN,hourly; !- [J]
Output:Meter,Cooling:EnergyTransfer:Zone:WHOLEBUILDING-GYMNASIUM ZN,hourly; !- [J]
Output:Meter:Cumulative,Cooling:EnergyTransfer:Zone:WHOLEBUILDING-GYMNASIUM ZN,hourly; !- [J]
Output:Meter,EnergyTransfer:Zone:WHOLEBUILDING-HEALTH-CARE CLINIC ZN,hourly; !- [J]
Output:Meter:Cumulative,EnergyTransfer:Zone:WHOLEBUILDING-HEALTH-CARE CLINIC ZN,hourly; !- [J]
Output:Meter,Heating:EnergyTransfer:Zone:WHOLEBUILDING-HEALTH-CARE CLINIC ZN,hourly; !- [J]
Output:Meter:Cumulative,Heating:EnergyTransfer:Zone:WHOLEBUILDING-HEALTH-CARE CLINIC ZN,hourly; !- [J]
Output:Meter,Cooling:EnergyTransfer:Zone:WHOLEBUILDING-HEALTH-CARE CLINIC ZN,hourly; !- [J]
Output:Meter:Cumulative,Cooling:EnergyTransfer:Zone:WHOLEBUILDING-HEALTH-CARE CLINIC ZN,hourly; !- [J]
Output:Meter,EnergyTransfer:Zone:WHOLEBUILDING-HOSPITAL ZN,hourly; !- [J]
Output:Meter:Cumulative,EnergyTransfer:Zone:WHOLEBUILDING-HOSPITAL ZN,hourly; !- [J]
Output:Meter,Heating:EnergyTransfer:Zone:WHOLEBUILDING-HOSPITAL ZN,hourly; !- [J]
Output:Meter:Cumulative,Heating:EnergyTransfer:Zone:WHOLEBUILDING-HOSPITAL ZN,hourly; !- [J]
Output:Meter,Cooling:EnergyTransfer:Zone:WHOLEBUILDING-HOSPITAL ZN,hourly; !- [J]
Output:Meter:Cumulative,Cooling:EnergyTransfer:Zone:WHOLEBUILDING-HOSPITAL ZN,hourly; !- [J]
Output:Meter,EnergyTransfer:Zone:WHOLEBUILDING-HOTEL ZN,hourly; !- [J]
Output:Meter:Cumulative,EnergyTransfer:Zone:WHOLEBUILDING-HOTEL ZN,hourly; !- [J]
Output:Meter,Heating:EnergyTransfer:Zone:WHOLEBUILDING-HOTEL ZN,hourly; !- [J]
Output:Meter:Cumulative,Heating:EnergyTransfer:Zone:WHOLEBUILDING-HOTEL ZN,hourly; !- [J]
Output:Meter,Cooling:EnergyTransfer:Zone:WHOLEBUILDING-HOTEL ZN,hourly; !- [J]
Output:Meter:Cumulative,Cooling:EnergyTransfer:Zone:WHOLEBUILDING-HOTEL ZN,hourly; !- [J]
Output:Meter,EnergyTransfer:Zone:WHOLEBUILDING-LIBRARY ZN,hourly; !- [J]
Output:Meter:Cumulative,EnergyTransfer:Zone:WHOLEBUILDING-LIBRARY ZN,hourly; !- [J]
Output:Meter,Heating:EnergyTransfer:Zone:WHOLEBUILDING-LIBRARY ZN,hourly; !- [J]
Output:Meter:Cumulative,Heating:EnergyTransfer:Zone:WHOLEBUILDING-LIBRARY ZN,hourly; !- [J]
Output:Meter,Cooling:EnergyTransfer:Zone:WHOLEBUILDING-LIBRARY ZN,hourly; !- [J]
Output:Meter:Cumulative,Cooling:EnergyTransfer:Zone:WHOLEBUILDING-LIBRARY ZN,hourly; !- [J]
Output:Meter,EnergyTransfer:Zone:WHOLEBUILDING-MANUFACTURING FACILITY ZN,hourly; !- [J]
Output:Meter:Cumulative,EnergyTransfer:Zone:WHOLEBUILDING-MANUFACTURING FACILITY ZN,hourly; !- [J]
Output:Meter,Heating:EnergyTransfer:Zone:WHOLEBUILDING-MANUFACTURING FACILITY ZN,hourly; !- [J]
Output:Meter:Cumulative,Heating:EnergyTransfer:Zone:WHOLEBUILDING-MANUFACTURING FACILITY ZN,hourly; !- [J]
Output:Meter,Cooling:EnergyTransfer:Zone:WHOLEBUILDING-MANUFACTURING FACILITY ZN,hourly; !- [J]
Output:Meter:Cumulative,Cooling:EnergyTransfer:Zone:WHOLEBUILDING-MANUFACTURING FACILITY ZN,hourly; !- [J]
Output:Meter,EnergyTransfer:Zone:WHOLEBUILDING-MOTEL ZN,hourly; !- [J]
Output:Meter:Cumulative,EnergyTransfer:Zone:WHOLEBUILDING-MOTEL ZN,hourly; !- [J]
Output:Meter,Heating:EnergyTransfer:Zone:WHOLEBUILDING-MOTEL ZN,hourly; !- [J]
Output:Meter:Cumulative,Heating:EnergyTransfer:Zone:WHOLEBUILDING-MOTEL ZN,hourly; !- [J]
Output:Meter,Cooling:EnergyTransfer:Zone:WHOLEBUILDING-MOTEL ZN,hourly; !- [J]
Output:Meter:Cumulative,Cooling:EnergyTransfer:Zone:WHOLEBUILDING-MOTEL ZN,hourly; !- [J]
Output:Meter,EnergyTransfer:Zone:WHOLEBUILDING-MOTION PICTURE THEATRE ZN,hourly; !- [J]
Output:Meter:Cumulative,EnergyTransfer:Zone:WHOLEBUILDING-MOTION PICTURE THEATRE ZN,hourly; !- [J]
Output:Meter,Heating:EnergyTransfer:Zone:WHOLEBUILDING-MOTION PICTURE THEATRE ZN,hourly; !- [J]
Output:Meter:Cumulative,Heating:EnergyTransfer:Zone:WHOLEBUILDING-MOTION PICTURE THEATRE ZN,hourly; !- [J]
Output:Meter,Cooling:EnergyTransfer:Zone:WHOLEBUILDING-MOTION PICTURE THEATRE ZN,hourly; !- [J]
Output:Meter:Cumulative,Cooling:EnergyTransfer:Zone:WHOLEBUILDING-MOTION PICTURE THEATRE ZN,hourly; !- [J]
Output:Meter,EnergyTransfer:Zone:WHOLEBUILDING-MULTI-UNIT RESIDENTIAL ZN,hourly; !- [J]
Output:Meter:Cumulative,EnergyTransfer:Zone:WHOLEBUILDING-MULTI-UNIT RESIDENTIAL ZN,hourly; !- [J]
Output:Meter,Heating:EnergyTransfer:Zone:WHOLEBUILDING-MULTI-UNIT RESIDENTIAL ZN,hourly; !- [J]
Output:Meter:Cumulative,Heating:EnergyTransfer:Zone:WHOLEBUILDING-MULTI-UNIT RESIDENTIAL ZN,hourly; !- [J]
Output:Meter,Cooling:EnergyTransfer:Zone:WHOLEBUILDING-MULTI-UNIT RESIDENTIAL ZN,hourly; !- [J]
Output:Meter:Cumulative,Cooling:EnergyTransfer:Zone:WHOLEBUILDING-MULTI-UNIT RESIDENTIAL ZN,hourly; !- [J]
Output:Meter,EnergyTransfer:Zone:WHOLEBUILDING-MUSEUM ZN,hourly; !- [J]
Output:Meter:Cumulative,EnergyTransfer:Zone:WHOLEBUILDING-MUSEUM ZN,hourly; !- [J]
Output:Meter,Heating:EnergyTransfer:Zone:WHOLEBUILDING-MUSEUM ZN,hourly; !- [J]
Output:Meter:Cumulative,Heating:EnergyTransfer:Zone:WHOLEBUILDING-MUSEUM ZN,hourly; !- [J]
Output:Meter,Cooling:EnergyTransfer:Zone:WHOLEBUILDING-MUSEUM ZN,hourly; !- [J]
Output:Meter:Cumulative,Cooling:EnergyTransfer:Zone:WHOLEBUILDING-MUSEUM ZN,hourly; !- [J]
Output:Meter,EnergyTransfer:Zone:WHOLEBUILDING-OFFICE ZN,hourly; !- [J]
Output:Meter:Cumulative,EnergyTransfer:Zone:WHOLEBUILDING-OFFICE ZN,hourly; !- [J]
Output:Meter,Heating:EnergyTransfer:Zone:WHOLEBUILDING-OFFICE ZN,hourly; !- [J]
Output:Meter:Cumulative,Heating:EnergyTransfer:Zone:WHOLEBUILDING-OFFICE ZN,hourly; !- [J]
Output:Meter,Cooling:EnergyTransfer:Zone:WHOLEBUILDING-OFFICE ZN,hourly; !- [J]
Output:Meter:Cumulative,Cooling:EnergyTransfer:Zone:WHOLEBUILDING-OFFICE ZN,hourly; !- [J]
Output:Meter,EnergyTransfer:Zone:WHOLEBUILDING-PARKING GARAGE ZN,hourly; !- [J]
Output:Meter:Cumulative,EnergyTransfer:Zone:WHOLEBUILDING-PARKING GARAGE ZN,hourly; !- [J]
Output:Meter,Heating:EnergyTransfer:Zone:WHOLEBUILDING-PARKING GARAGE ZN,hourly; !- [J]
Output:Meter:Cumulative,Heating:EnergyTransfer:Zone:WHOLEBUILDING-PARKING GARAGE ZN,hourly; !- [J]
Output:Meter,Cooling:EnergyTransfer:Zone:WHOLEBUILDING-PARKING GARAGE ZN,hourly; !- [J]
Output:Meter:Cumulative,Cooling:EnergyTransfer:Zone:WHOLEBUILDING-PARKING GARAGE ZN,hourly; !- [J]
Output:Meter,EnergyTransfer:Zone:WHOLEBUILDING-PENITENTIARY ZN,hourly; !- [J]
Output:Meter:Cumulative,EnergyTransfer:Zone:WHOLEBUILDING-PENITENTIARY ZN,hourly; !- [J]
Output:Meter,Heating:EnergyTransfer:Zone:WHOLEBUILDING-PENITENTIARY ZN,hourly; !- [J]
Output:Meter:Cumulative,Heating:EnergyTransfer:Zone:WHOLEBUILDING-PENITENTIARY ZN,hourly; !- [J]
Output:Meter,Cooling:EnergyTransfer:Zone:WHOLEBUILDING-PENITENTIARY ZN,hourly; !- [J]
Output:Meter:Cumulative,Cooling:EnergyTransfer:Zone:WHOLEBUILDING-PENITENTIARY ZN,hourly; !- [J]
Output:Meter,EnergyTransfer:Zone:WHOLEBUILDING-PERFORMING ARTS THEATRE ZN,hourly; !- [J]
Output:Meter:Cumulative,EnergyTransfer:Zone:WHOLEBUILDING-PERFORMING ARTS THEATRE ZN,hourly; !- [J]
Output:Meter,Heating:EnergyTransfer:Zone:WHOLEBUILDING-PERFORMING ARTS THEATRE ZN,hourly; !- [J]
Output:Meter:Cumulative,Heating:EnergyTransfer:Zone:WHOLEBUILDING-PERFORMING ARTS THEATRE ZN,hourly; !- [J]
Output:Meter,Cooling:EnergyTransfer:Zone:WHOLEBUILDING-PERFORMING ARTS THEATRE ZN,hourly; !- [J]
Output:Meter:Cumulative,Cooling:EnergyTransfer:Zone:WHOLEBUILDING-PERFORMING ARTS THEATRE ZN,hourly; !- [J]
Output:Meter,EnergyTransfer:Zone:WHOLEBUILDING-POLICE STATION ZN,hourly; !- [J]
Output:Meter:Cumulative,EnergyTransfer:Zone:WHOLEBUILDING-POLICE STATION ZN,hourly; !- [J]
Output:Meter,Heating:EnergyTransfer:Zone:WHOLEBUILDING-POLICE STATION ZN,hourly; !- [J]
Output:Meter:Cumulative,Heating:EnergyTransfer:Zone:WHOLEBUILDING-POLICE STATION ZN,hourly; !- [J]
Output:Meter,Cooling:EnergyTransfer:Zone:WHOLEBUILDING-POLICE STATION ZN,hourly; !- [J]
Output:Meter:Cumulative,Cooling:EnergyTransfer:Zone:WHOLEBUILDING-POLICE STATION ZN,hourly; !- [J]
Output:Meter,EnergyTransfer:Zone:WHOLEBUILDING-POST OFFICE ZN,hourly; !- [J]
Output:Meter:Cumulative,EnergyTransfer:Zone:WHOLEBUILDING-POST OFFICE ZN,hourly; !- [J]
Output:Meter,Heating:EnergyTransfer:Zone:WHOLEBUILDING-POST OFFICE ZN,hourly; !- [J]
Output:Meter:Cumulative,Heating:EnergyTransfer:Zone:WHOLEBUILDING-POST OFFICE ZN,hourly; !- [J]
Output:Meter,Cooling:EnergyTransfer:Zone:WHOLEBUILDING-POST OFFICE ZN,hourly; !- [J]
Output:Meter:Cumulative,Cooling:EnergyTransfer:Zone:WHOLEBUILDING-POST OFFICE ZN,hourly; !- [J]
Output:Meter,EnergyTransfer:Zone:WHOLEBUILDING-RELIGIOUS ZN,hourly; !- [J]
Output:Meter:Cumulative,EnergyTransfer:Zone:WHOLEBUILDING-RELIGIOUS ZN,hourly; !- [J]
Output:Meter,Heating:EnergyTransfer:Zone:WHOLEBUILDING-RELIGIOUS ZN,hourly; !- [J]
Output:Meter:Cumulative,Heating:EnergyTransfer:Zone:WHOLEBUILDING-RELIGIOUS ZN,hourly; !- [J]
Output:Meter,Cooling:EnergyTransfer:Zone:WHOLEBUILDING-RELIGIOUS ZN,hourly; !- [J]
Output:Meter:Cumulative,Cooling:EnergyTransfer:Zone:WHOLEBUILDING-RELIGIOUS ZN,hourly; !- [J]
Output:Meter,EnergyTransfer:Zone:WHOLEBUILDING-RETAIL ZN,hourly; !- [J]
Output:Meter:Cumulative,EnergyTransfer:Zone:WHOLEBUILDING-RETAIL ZN,hourly; !- [J]
Output:Meter,Heating:EnergyTransfer:Zone:WHOLEBUILDING-RETAIL ZN,hourly; !- [J]
Output:Meter:Cumulative,Heating:EnergyTransfer:Zone:WHOLEBUILDING-RETAIL ZN,hourly; !- [J]
Output:Meter,Cooling:EnergyTransfer:Zone:WHOLEBUILDING-RETAIL ZN,hourly; !- [J]
Output:Meter:Cumulative,Cooling:EnergyTransfer:Zone:WHOLEBUILDING-RETAIL ZN,hourly; !- [J]
Output:Meter,EnergyTransfer:Zone:WHOLEBUILDING-SCHOOL/UNIVERSITY ZN,hourly; !- [J]
Output:Meter:Cumulative,EnergyTransfer:Zone:WHOLEBUILDING-SCHOOL/UNIVERSITY ZN,hourly; !- [J]
Output:Meter,Heating:EnergyTransfer:Zone:WHOLEBUILDING-SCHOOL/UNIVERSITY ZN,hourly; !- [J]
Output:Meter:Cumulative,Heating:EnergyTransfer:Zone:WHOLEBUILDING-SCHOOL/UNIVERSITY ZN,hourly; !- [J]
Output:Meter,Cooling:EnergyTransfer:Zone:WHOLEBUILDING-SCHOOL/UNIVERSITY ZN,hourly; !- [J]
Output:Meter:Cumulative,Cooling:EnergyTransfer:Zone:WHOLEBUILDING-SCHOOL/UNIVERSITY ZN,hourly; !- [J]
Output:Meter,EnergyTransfer:Zone:WHOLEBUILDING-SPORTS ARENA ZN,hourly; !- [J]
Output:Meter:Cumulative,EnergyTransfer:Zone:WHOLEBUILDING-SPORTS ARENA ZN,hourly; !- [J]
Output:Meter,Heating:EnergyTransfer:Zone:WHOLEBUILDING-SPORTS ARENA ZN,hourly; !- [J]
Output:Meter:Cumulative,Heating:EnergyTransfer:Zone:WHOLEBUILDING-SPORTS ARENA ZN,hourly; !- [J]
Output:Meter,Cooling:EnergyTransfer:Zone:WHOLEBUILDING-SPORTS ARENA ZN,hourly; !- [J]
Output:Meter:Cumulative,Cooling:EnergyTransfer:Zone:WHOLEBUILDING-SPORTS ARENA ZN,hourly; !- [J]
Output:Meter,EnergyTransfer:Zone:WHOLEBUILDING-TOWN HALL ZN,hourly; !- [J]
Output:Meter:Cumulative,EnergyTransfer:Zone:WHOLEBUILDING-TOWN HALL ZN,hourly; !- [J]
Output:Meter,Heating:EnergyTransfer:Zone:WHOLEBUILDING-TOWN HALL ZN,hourly; !- [J]
Output:Meter:Cumulative,Heating:EnergyTransfer:Zone:WHOLEBUILDING-TOWN HALL ZN,hourly; !- [J]
Output:Meter,Cooling:EnergyTransfer:Zone:WHOLEBUILDING-TOWN HALL ZN,hourly; !- [J]
Output:Meter:Cumulative,Cooling:EnergyTransfer:Zone:WHOLEBUILDING-TOWN HALL ZN,hourly; !- [J]
Output:Meter,EnergyTransfer:Zone:WHOLEBUILDING-TRANSPORTATION ZN,hourly; !- [J]
Output:Meter:Cumulative,EnergyTransfer:Zone:WHOLEBUILDING-TRANSPORTATION ZN,hourly; !- [J]
Output:Meter,Heating:EnergyTransfer:Zone:WHOLEBUILDING-TRANSPORTATION ZN,hourly; !- [J]
Output:Meter:Cumulative,Heating:EnergyTransfer:Zone:WHOLEBUILDING-TRANSPORTATION ZN,hourly; !- [J]
Output:Meter,Cooling:EnergyTransfer:Zone:WHOLEBUILDING-TRANSPORTATION ZN,hourly; !- [J]
Output:Meter:Cumulative,Cooling:EnergyTransfer:Zone:WHOLEBUILDING-TRANSPORTATION ZN,hourly; !- [J]
Output:Meter,EnergyTransfer:Zone:WHOLEBUILDING-WAREHOUSE - REFRIGERATED ZN,hourly; !- [J]
Output:Meter:Cumulative,EnergyTransfer:Zone:WHOLEBUILDING-WAREHOUSE - REFRIGERATED ZN,hourly; !- [J]
Output:Meter,Heating:EnergyTransfer:Zone:WHOLEBUILDING-WAREHOUSE - REFRIGERATED ZN,hourly; !- [J]
Output:Meter:Cumulative,Heating:EnergyTransfer:Zone:WHOLEBUILDING-WAREHOUSE - REFRIGERATED ZN,hourly; !- [J]
Output:Meter,Cooling:EnergyTransfer:Zone:WHOLEBUILDING-WAREHOUSE - REFRIGERATED ZN,hourly; !- [J]
Output:Meter:Cumulative,Cooling:EnergyTransfer:Zone:WHOLEBUILDING-WAREHOUSE - REFRIGERATED ZN,hourly; !- [J]
Output:Meter,EnergyTransfer:Zone:WHOLEBUILDING-WAREHOUSE ZN,hourly; !- [J]
Output:Meter:Cumulative,EnergyTransfer:Zone:WHOLEBUILDING-WAREHOUSE ZN,hourly; !- [J]
Output:Meter,Heating:EnergyTransfer:Zone:WHOLEBUILDING-WAREHOUSE ZN,hourly; !- [J]
Output:Meter:Cumulative,Heating:EnergyTransfer:Zone:WHOLEBUILDING-WAREHOUSE ZN,hourly; !- [J]
Output:Meter,Cooling:EnergyTransfer:Zone:WHOLEBUILDING-WAREHOUSE ZN,hourly; !- [J]
Output:Meter:Cumulative,Cooling:EnergyTransfer:Zone:WHOLEBUILDING-WAREHOUSE ZN,hourly; !- [J]
Output:Meter,EnergyTransfer:Zone:WHOLEBUILDING-WORKSHOP ZN,hourly; !- [J]
Output:Meter:Cumulative,EnergyTransfer:Zone:WHOLEBUILDING-WORKSHOP ZN,hourly; !- [J]
Output:Meter,Heating:EnergyTransfer:Zone:WHOLEBUILDING-WORKSHOP ZN,hourly; !- [J]
Output:Meter:Cumulative,Heating:EnergyTransfer:Zone:WHOLEBUILDING-WORKSHOP ZN,hourly; !- [J]
Output:Meter,Cooling:EnergyTransfer:Zone:WHOLEBUILDING-WORKSHOP ZN,hourly; !- [J]
Output:Meter:Cumulative,Cooling:EnergyTransfer:Zone:WHOLEBUILDING-WORKSHOP ZN,hourly; !- [J]
Output:Meter,EnergyTransfer:Zone:WORKSHOP SPACE-SPACE FUNCTION ZN,hourly; !- [J]
Output:Meter:Cumulative,EnergyTransfer:Zone:WORKSHOP SPACE-SPACE FUNCTION ZN,hourly; !- [J]
Output:Meter,Heating:EnergyTransfer:Zone:WORKSHOP SPACE-SPACE FUNCTION ZN,hourly; !- [J]
Output:Meter:Cumulative,Heating:EnergyTransfer:Zone:WORKSHOP SPACE-SPACE FUNCTION ZN,hourly; !- [J]
Output:Meter,Cooling:EnergyTransfer:Zone:WORKSHOP SPACE-SPACE FUNCTION ZN,hourly; !- [J]
Output:Meter:Cumulative,Cooling:EnergyTransfer:Zone:WORKSHOP SPACE-SPACE FUNCTION ZN,hourly; !- [J]
Output:Meter,ElectricityPurchased:Facility,hourly; !- [J]
Output:Meter:Cumulative,ElectricityPurchased:Facility,hourly; !- [J]
Output:Meter,ElectricityPurchased:Plant,hourly; !- [J]
Output:Meter:Cumulative,ElectricityPurchased:Plant,hourly; !- [J]
Output:Meter,Cogeneration:ElectricityPurchased,hourly; !- [J]
Output:Meter:Cumulative,Cogeneration:ElectricityPurchased,hourly; !- [J]
Output:Meter,ElectricitySurplusSold:Facility,hourly; !- [J]
Output:Meter:Cumulative,ElectricitySurplusSold:Facility,hourly; !- [J]
Output:Meter,ElectricitySurplusSold:Plant,hourly; !- [J]
Output:Meter:Cumulative,ElectricitySurplusSold:Plant,hourly; !- [J]
Output:Meter,Cogeneration:ElectricitySurplusSold,hourly; !- [J]
Output:Meter:Cumulative,Cogeneration:ElectricitySurplusSold,hourly; !- [J]
Output:Meter,ElectricityNet:Facility,hourly; !- [J]
Output:Meter:Cumulative,ElectricityNet:Facility,hourly; !- [J]
Output:Meter,ElectricityNet:Plant,hourly; !- [J]
Output:Meter:Cumulative,ElectricityNet:Plant,hourly; !- [J]
Output:Meter,Cogeneration:ElectricityNet,hourly; !- [J]
Output:Meter:Cumulative,Cogeneration:ElectricityNet,hourly; !- [J]
Output:Meter,DistrictHeating:Facility,hourly; !- [J]
Output:Meter:Cumulative,DistrictHeating:Facility,hourly; !- [J]
Output:Meter,DistrictHeating:HVAC,hourly; !- [J]
Output:Meter:Cumulative,DistrictHeating:HVAC,hourly; !- [J]
Output:Meter,Heating:DistrictHeating,hourly; !- [J]
Output:Meter:Cumulative,Heating:DistrictHeating,hourly; !- [J]
Output:Meter,DistrictCooling:Facility,hourly; !- [J]
Output:Meter:Cumulative,DistrictCooling:Facility,hourly; !- [J]
Output:Meter,DistrictCooling:HVAC,hourly; !- [J]
Output:Meter:Cumulative,DistrictCooling:HVAC,hourly; !- [J]
Output:Meter,Cooling:DistrictCooling,hourly; !- [J]
Output:Meter:Cumulative,Cooling:DistrictCooling,hourly; !- [J]
Output:Meter,Carbon Equivalent:Facility,hourly; !- [kg]
Output:Meter:Cumulative,Carbon Equivalent:Facility,hourly; !- [kg]
Output:Meter,CarbonEquivalentEmissions:Carbon Equivalent,hourly; !- [kg]
Output:Meter:Cumulative,CarbonEquivalentEmissions:Carbon Equivalent,hourly; !- [kg]
