Program Version,EnergyPlus, Version 8.9.0-eba93e8e1b, YMD=2019.03.26 20:19,
   ************* Beginning Zone Sizing Calculations
   ** Warning ** ProcessScheduleInput: Schedule:Day:Interval="SCHEDULE DAY 1", Blank Schedule Type Limits Name input -- will not be validated.
   ** Warning ** ProcessScheduleInput: Schedule:Day:Interval="SCHEDULE DAY 2", Blank Schedule Type Limits Name input -- will not be validated.
   ** Warning ** ProcessScheduleInput: Schedule:Constant="ALWAYS OFF DISCRETE", Blank Schedule Type Limits Name input -- will not be validated.
   ** Warning ** ProcessScheduleInput: Schedule:Constant="ALWAYS ON CONTINUOUS", Blank Schedule Type Limits Name input -- will not be validated.
   ** Warning ** CheckUsedConstructions: There are 27 nominally unused constructions in input.
   **   ~~~   ** For explicit details on each unused construction, use Output:Diagnostics,DisplayExtraWarnings;
   ** Warning ** GetInternalHeatGains: People Combination of ZoneList and Object Name generate a name too long.
   **   ~~~   ** Object Name="SPACE FUNCTION MANUFACTURING FACILITY EQUIPMENT ROOM PEOPLE".
   **   ~~~   ** ZoneList/Zone Name="MANUFACTURING FACILITY EQUIPMENT ROOM-SPACE FUNCTION ZN".
   **   ~~~   ** Item length=[114] > Maximum Length=[100]. You may need to shorten the names.
   **   ~~~   ** Shortening the Object Name by [15] characters will assure uniqueness for this ZoneList.
   **   ~~~   ** name that will be used (may be needed in reporting)="MANUFACTURING FACILITY EQUIPMENT ROOM-SPACE FUNCTION ZN SPACE FUNCTION MANUFACTURING FACILITY EQUIPMENT ROOM PEOPLE".
   ** Warning ** GetInternalHeatGains: People Combination of ZoneList and Object Name generate a name too long.
   **   ~~~   ** Object Name="SPACE FUNCTION MANUFACTURING FACILITY EXTRA HIGH BAY AREA (> 15 M FLOOR-TO-CEILING HEIGHT) PEOPLE".
   **   ~~~   ** ZoneList/Zone Name="MANUFACTURING FACILITY EXTRA HIGH BAY AREA (> 15 M FLOOR-TO-CEILING HEIGHT)-SPACE FUNCTION ZN".
   **   ~~~   ** Item length=[190] > Maximum Length=[100]. You may need to shorten the names.
   **   ~~~   ** Shortening the Object Name by [91] characters will assure uniqueness for this ZoneList.
   **   ~~~   ** name that will be used (may be needed in reporting)="MANUFACTURING FACILITY EXTRA HIGH BAY AREA (> 15 M FLOOR-TO-CEILING HEIGHT)-SPACE FUNCTION ZN SPACE FUNCTION MANUFACTURING FACILITY EXTRA HIGH BAY AREA (> 15 M FLOOR-TO-CEILING HEIGHT) PEOPLE".
   ** Warning ** GetInternalHeatGains: People Combination of ZoneList and Object Name generate a name too long.
   **   ~~~   ** Object Name="SPACE FUNCTION MANUFACTURING FACILITY HIGH BAY AREA (7.5 TO 15 M FLOOR-TO-CEILING HEIGHT) PEOPLE".
   **   ~~~   ** ZoneList/Zone Name="MANUFACTURING FACILITY HIGH BAY AREA (7.5 TO 15 M FLOOR-TO-CEILING HEIGHT)-SPACE FUNCTION ZN".
   **   ~~~   ** Item length=[188] > Maximum Length=[100]. You may need to shorten the names.
   **   ~~~   ** Shortening the Object Name by [89] characters will assure uniqueness for this ZoneList.
   **   ~~~   ** name that will be used (may be needed in reporting)="MANUFACTURING FACILITY HIGH BAY AREA (7.5 TO 15 M FLOOR-TO-CEILING HEIGHT)-SPACE FUNCTION ZN SPACE FUNCTION MANUFACTURING FACILITY HIGH BAY AREA (7.5 TO 15 M FLOOR-TO-CEILING HEIGHT) PEOPLE".
   ** Warning ** GetInternalHeatGains: People Combination of ZoneList and Object Name generate a name too long.
   **   ~~~   ** Object Name="SPACE FUNCTION MANUFACTURING FACILITY LOW BAY AREA (< 7.5 M FLOOR-TO-CEILING HEIGHT) PEOPLE".
   **   ~~~   ** ZoneList/Zone Name="MANUFACTURING FACILITY LOW BAY AREA (< 7.5 M FLOOR-TO-CEILING HEIGHT)-SPACE FUNCTION ZN".
   **   ~~~   ** Item length=[178] > Maximum Length=[100]. You may need to shorten the names.
   **   ~~~   ** Shortening the Object Name by [79] characters will assure uniqueness for this ZoneList.
   **   ~~~   ** name that will be used (may be needed in reporting)="MANUFACTURING FACILITY LOW BAY AREA (< 7.5 M FLOOR-TO-CEILING HEIGHT)-SPACE FUNCTION ZN SPACE FUNCTION MANUFACTURING FACILITY LOW BAY AREA (< 7.5 M FLOOR-TO-CEILING HEIGHT) PEOPLE".
   ** Warning ** GetInternalHeatGains: People Combination of ZoneList and Object Name generate a name too long.
   **   ~~~   ** Object Name="SPACE FUNCTION RELIGIOUS BUILDING FELLOWSHIP HALL PEOPLE".
   **   ~~~   ** ZoneList/Zone Name="RELIGIOUS BUILDING FELLOWSHIP HALL-SPACE FUNCTION ZN".
   **   ~~~   ** Item length=[108] > Maximum Length=[100]. You may need to shorten the names.
   **   ~~~   ** Shortening the Object Name by [9] characters will assure uniqueness for this ZoneList.
   **   ~~~   ** name that will be used (may be needed in reporting)="RELIGIOUS BUILDING FELLOWSHIP HALL-SPACE FUNCTION ZN SPACE FUNCTION RELIGIOUS BUILDING FELLOWSHIP HALL PEOPLE".
   ** Warning ** GetInternalHeatGains: People Combination of ZoneList and Object Name generate a name too long.
   **   ~~~   ** Object Name="SPACE FUNCTION RETAIL FACILITY DRESSING/FITTING ROOM PEOPLE".
   **   ~~~   ** ZoneList/Zone Name="RETAIL FACILITY DRESSING/FITTING ROOM-SPACE FUNCTION ZN".
   **   ~~~   ** Item length=[114] > Maximum Length=[100]. You may need to shorten the names.
   **   ~~~   ** Shortening the Object Name by [15] characters will assure uniqueness for this ZoneList.
   **   ~~~   ** name that will be used (may be needed in reporting)="RETAIL FACILITY DRESSING/FITTING ROOM-SPACE FUNCTION ZN SPACE FUNCTION RETAIL FACILITY DRESSING/FITTING ROOM PEOPLE".
   ** Warning ** GetInternalHeatGains: People Combination of ZoneList and Object Name generate a name too long.
   **   ~~~   ** Object Name="SPACE FUNCTION SPACE DESIGNED TO ANSI/IES RP-28 RECREATION ROOM (USED PRIMARILY BY RESIDENTS) PEOPLE".
   **   ~~~   ** ZoneList/Zone Name="SPACE DESIGNED TO ANSI/IES RP-28 RECREATION ROOM (USED PRIMARILY BY RESIDENTS)-SPACE FUNCTION ZN".
   **   ~~~   ** Item length=[196] > Maximum Length=[100]. You may need to shorten the names.
   **   ~~~   ** Shortening the Object Name by [97] characters will assure uniqueness for this ZoneList.
   **   ~~~   ** name that will be used (may be needed in reporting)="SPACE DESIGNED TO ANSI/IES RP-28 RECREATION ROOM (USED PRIMARILY BY RESIDENTS)-SPACE FUNCTION ZN SPACE FUNCTION SPACE DESIGNED TO ANSI/IES RP-28 RECREATION ROOM (USED PRIMARILY BY RESIDENTS) PEOPLE".
   ** Warning ** GetInternalHeatGains: People Combination of ZoneList and Object Name generate a name too long.
   **   ~~~   ** Object Name="SPACE FUNCTION SPORTS ARENA PLAYING AREA CLASS I FACILITY(4) PEOPLE".
   **   ~~~   ** ZoneList/Zone Name="SPORTS ARENA PLAYING AREA CLASS I FACILITY(4)-SPACE FUNCTION ZN".
   **   ~~~   ** Item length=[130] > Maximum Length=[100]. You may need to shorten the names.
   **   ~~~   ** Shortening the Object Name by [31] characters will assure uniqueness for this ZoneList.
   **   ~~~   ** name that will be used (may be needed in reporting)="SPORTS ARENA PLAYING AREA CLASS I FACILITY(4)-SPACE FUNCTION ZN SPACE FUNCTION SPORTS ARENA PLAYING AREA CLASS I FACILITY(4) PEOPLE".
   ** Warning ** GetInternalHeatGains: People Combination of ZoneList and Object Name generate a name too long.
   **   ~~~   ** Object Name="SPACE FUNCTION SPORTS ARENA PLAYING AREA CLASS II FACILITY(4) PEOPLE".
   **   ~~~   ** ZoneList/Zone Name="SPORTS ARENA PLAYING AREA CLASS II FACILITY(4)-SPACE FUNCTION ZN".
   **   ~~~   ** Item length=[132] > Maximum Length=[100]. You may need to shorten the names.
   **   ~~~   ** Shortening the Object Name by [33] characters will assure uniqueness for this ZoneList.
   **   ~~~   ** name that will be used (may be needed in reporting)="SPORTS ARENA PLAYING AREA CLASS II FACILITY(4)-SPACE FUNCTION ZN SPACE FUNCTION SPORTS ARENA PLAYING AREA CLASS II FACILITY(4) PEOPLE".
   ** Warning ** GetInternalHeatGains: People Combination of ZoneList and Object Name generate a name too long.
   **   ~~~   ** Object Name="SPACE FUNCTION SPORTS ARENA PLAYING AREA CLASS III FACILITY(4) PEOPLE".
   **   ~~~   ** ZoneList/Zone Name="SPORTS ARENA PLAYING AREA CLASS III FACILITY(4)-SPACE FUNCTION ZN".
   **   ~~~   ** Item length=[134] > Maximum Length=[100]. You may need to shorten the names.
   **   ~~~   ** Shortening the Object Name by [35] characters will assure uniqueness for this ZoneList.
   **   ~~~   ** name that will be used (may be needed in reporting)="SPORTS ARENA PLAYING AREA CLASS III FACILITY(4)-SPACE FUNCTION ZN SPACE FUNCTION SPORTS ARENA PLAYING AREA CLASS III FACILITY(4) PEOPLE".
   ** Warning ** GetInternalHeatGains: People Combination of ZoneList and Object Name generate a name too long.
   **   ~~~   ** Object Name="SPACE FUNCTION SPORTS ARENA PLAYING AREA CLASS IV FACILITY(4) PEOPLE".
   **   ~~~   ** ZoneList/Zone Name="SPORTS ARENA PLAYING AREA CLASS IV FACILITY(4)-SPACE FUNCTION ZN".
   **   ~~~   ** Item length=[132] > Maximum Length=[100]. You may need to shorten the names.
   **   ~~~   ** Shortening the Object Name by [33] characters will assure uniqueness for this ZoneList.
   **   ~~~   ** name that will be used (may be needed in reporting)="SPORTS ARENA PLAYING AREA CLASS IV FACILITY(4)-SPACE FUNCTION ZN SPACE FUNCTION SPORTS ARENA PLAYING AREA CLASS IV FACILITY(4) PEOPLE".
   ** Warning ** GetInternalHeatGains: People Combination of ZoneList and Object Name generate a name too long.
   **   ~~~   ** Object Name="SPACE FUNCTION TRANSPORTATION FACILITY AIRPORT CONCOURSE PEOPLE".
   **   ~~~   ** ZoneList/Zone Name="TRANSPORTATION FACILITY AIRPORT CONCOURSE-SPACE FUNCTION ZN".
   **   ~~~   ** Item length=[122] > Maximum Length=[100]. You may need to shorten the names.
   **   ~~~   ** Shortening the Object Name by [23] characters will assure uniqueness for this ZoneList.
   **   ~~~   ** name that will be used (may be needed in reporting)="TRANSPORTATION FACILITY AIRPORT CONCOURSE-SPACE FUNCTION ZN SPACE FUNCTION TRANSPORTATION FACILITY AIRPORT CONCOURSE PEOPLE".
   ** Warning ** GetInternalHeatGains: People Combination of ZoneList and Object Name generate a name too long.
   **   ~~~   ** Object Name="SPACE FUNCTION TRANSPORTATION FACILITY BAGGAGE/CAROUSEL AREA PEOPLE".
   **   ~~~   ** ZoneList/Zone Name="TRANSPORTATION FACILITY BAGGAGE/CAROUSEL AREA-SPACE FUNCTION ZN".
   **   ~~~   ** Item length=[130] > Maximum Length=[100]. You may need to shorten the names.
   **   ~~~   ** Shortening the Object Name by [31] characters will assure uniqueness for this ZoneList.
   **   ~~~   ** name that will be used (may be needed in reporting)="TRANSPORTATION FACILITY BAGGAGE/CAROUSEL AREA-SPACE FUNCTION ZN SPACE FUNCTION TRANSPORTATION FACILITY BAGGAGE/CAROUSEL AREA PEOPLE".
   ** Warning ** GetInternalHeatGains: People Combination of ZoneList and Object Name generate a name too long.
   **   ~~~   ** Object Name="SPACE FUNCTION TRANSPORTATION FACILITY TERMINAL TICKET COUNTER PEOPLE".
   **   ~~~   ** ZoneList/Zone Name="TRANSPORTATION FACILITY TERMINAL TICKET COUNTER-SPACE FUNCTION ZN".
   **   ~~~   ** Item length=[134] > Maximum Length=[100]. You may need to shorten the names.
   **   ~~~   ** Shortening the Object Name by [35] characters will assure uniqueness for this ZoneList.
   **   ~~~   ** name that will be used (may be needed in reporting)="TRANSPORTATION FACILITY TERMINAL TICKET COUNTER-SPACE FUNCTION ZN SPACE FUNCTION TRANSPORTATION FACILITY TERMINAL TICKET COUNTER PEOPLE".
   ** Warning ** GetInternalHeatGains: People Combination of ZoneList and Object Name generate a name too long.
   **   ~~~   ** Object Name="SPACE FUNCTION WAREHOUSE STORAGE AREA MEDIUM TO BULKY PALLETIZED ITEMS PEOPLE".
   **   ~~~   ** ZoneList/Zone Name="WAREHOUSE STORAGE AREA MEDIUM TO BULKY PALLETIZED ITEMS-SPACE FUNCTION ZN".
   **   ~~~   ** Item length=[150] > Maximum Length=[100]. You may need to shorten the names.
   **   ~~~   ** Shortening the Object Name by [51] characters will assure uniqueness for this ZoneList.
   **   ~~~   ** name that will be used (may be needed in reporting)="WAREHOUSE STORAGE AREA MEDIUM TO BULKY PALLETIZED ITEMS-SPACE FUNCTION ZN SPACE FUNCTION WAREHOUSE STORAGE AREA MEDIUM TO BULKY PALLETIZED ITEMS PEOPLE".
   ** Warning ** GetInternalHeatGains: People Combination of ZoneList and Object Name generate a name too long.
   **   ~~~   ** Object Name="SPACE FUNCTION WAREHOUSE STORAGE AREA SMALL HAND-CARRIED ITEMS(4) PEOPLE".
   **   ~~~   ** ZoneList/Zone Name="WAREHOUSE STORAGE AREA SMALL HAND-CARRIED ITEMS(4)-SPACE FUNCTION ZN".
   **   ~~~   ** Item length=[140] > Maximum Length=[100]. You may need to shorten the names.
   **   ~~~   ** Shortening the Object Name by [41] characters will assure uniqueness for this ZoneList.
   **   ~~~   ** name that will be used (may be needed in reporting)="WAREHOUSE STORAGE AREA SMALL HAND-CARRIED ITEMS(4)-SPACE FUNCTION ZN SPACE FUNCTION WAREHOUSE STORAGE AREA SMALL HAND-CARRIED ITEMS(4) PEOPLE".
   ** Warning ** GetInternalHeatGains: Lights Combination of ZoneList and Object Name generate a name too long.
   **   ~~~   ** Object Name="SPACE FUNCTION MANUFACTURING FACILITY EQUIPMENT ROOM LIGHTS".
   **   ~~~   ** ZoneList/Zone Name="MANUFACTURING FACILITY EQUIPMENT ROOM-SPACE FUNCTION ZN".
   **   ~~~   ** Item length=[114] > Maximum Length=[100]. You may need to shorten the names.
   **   ~~~   ** Shortening the Object Name by [15] characters will assure uniqueness for this ZoneList.
   **   ~~~   ** name that will be used (may be needed in reporting)="MANUFACTURING FACILITY EQUIPMENT ROOM-SPACE FUNCTION ZN SPACE FUNCTION MANUFACTURING FACILITY EQUIPMENT ROOM LIGHTS".
   ** Warning ** GetInternalHeatGains: Lights Combination of ZoneList and Object Name generate a name too long.
   **   ~~~   ** Object Name="SPACE FUNCTION MANUFACTURING FACILITY EXTRA HIGH BAY AREA (> 15 M FLOOR-TO-CEILING HEIGHT) LIGHTS".
   **   ~~~   ** ZoneList/Zone Name="MANUFACTURING FACILITY EXTRA HIGH BAY AREA (> 15 M FLOOR-TO-CEILING HEIGHT)-SPACE FUNCTION ZN".
   **   ~~~   ** Item length=[190] > Maximum Length=[100]. You may need to shorten the names.
   **   ~~~   ** Shortening the Object Name by [91] characters will assure uniqueness for this ZoneList.
   **   ~~~   ** name that will be used (may be needed in reporting)="MANUFACTURING FACILITY EXTRA HIGH BAY AREA (> 15 M FLOOR-TO-CEILING HEIGHT)-SPACE FUNCTION ZN SPACE FUNCTION MANUFACTURING FACILITY EXTRA HIGH BAY AREA (> 15 M FLOOR-TO-CEILING HEIGHT) LIGHTS".
   ** Warning ** GetInternalHeatGains: Lights Combination of ZoneList and Object Name generate a name too long.
   **   ~~~   ** Object Name="SPACE FUNCTION MANUFACTURING FACILITY HIGH BAY AREA (7.5 TO 15 M FLOOR-TO-CEILING HEIGHT) LIGHTS".
   **   ~~~   ** ZoneList/Zone Name="MANUFACTURING FACILITY HIGH BAY AREA (7.5 TO 15 M FLOOR-TO-CEILING HEIGHT)-SPACE FUNCTION ZN".
   **   ~~~   ** Item length=[188] > Maximum Length=[100]. You may need to shorten the names.
   **   ~~~   ** Shortening the Object Name by [89] characters will assure uniqueness for this ZoneList.
   **   ~~~   ** name that will be used (may be needed in reporting)="MANUFACTURING FACILITY HIGH BAY AREA (7.5 TO 15 M FLOOR-TO-CEILING HEIGHT)-SPACE FUNCTION ZN SPACE FUNCTION MANUFACTURING FACILITY HIGH BAY AREA (7.5 TO 15 M FLOOR-TO-CEILING HEIGHT) LIGHTS".
   ** Warning ** GetInternalHeatGains: Lights Combination of ZoneList and Object Name generate a name too long.
   **   ~~~   ** Object Name="SPACE FUNCTION MANUFACTURING FACILITY LOW BAY AREA (< 7.5 M FLOOR-TO-CEILING HEIGHT) LIGHTS".
   **   ~~~   ** ZoneList/Zone Name="MANUFACTURING FACILITY LOW BAY AREA (< 7.5 M FLOOR-TO-CEILING HEIGHT)-SPACE FUNCTION ZN".
   **   ~~~   ** Item length=[178] > Maximum Length=[100]. You may need to shorten the names.
   **   ~~~   ** Shortening the Object Name by [79] characters will assure uniqueness for this ZoneList.
   **   ~~~   ** name that will be used (may be needed in reporting)="MANUFACTURING FACILITY LOW BAY AREA (< 7.5 M FLOOR-TO-CEILING HEIGHT)-SPACE FUNCTION ZN SPACE FUNCTION MANUFACTURING FACILITY LOW BAY AREA (< 7.5 M FLOOR-TO-CEILING HEIGHT) LIGHTS".
   ** Warning ** GetInternalHeatGains: Lights Combination of ZoneList and Object Name generate a name too long.
   **   ~~~   ** Object Name="SPACE FUNCTION RELIGIOUS BUILDING FELLOWSHIP HALL LIGHTS".
   **   ~~~   ** ZoneList/Zone Name="RELIGIOUS BUILDING FELLOWSHIP HALL-SPACE FUNCTION ZN".
   **   ~~~   ** Item length=[108] > Maximum Length=[100]. You may need to shorten the names.
   **   ~~~   ** Shortening the Object Name by [9] characters will assure uniqueness for this ZoneList.
   **   ~~~   ** name that will be used (may be needed in reporting)="RELIGIOUS BUILDING FELLOWSHIP HALL-SPACE FUNCTION ZN SPACE FUNCTION RELIGIOUS BUILDING FELLOWSHIP HALL LIGHTS".
   ** Warning ** GetInternalHeatGains: Lights Combination of ZoneList and Object Name generate a name too long.
   **   ~~~   ** Object Name="SPACE FUNCTION RETAIL FACILITY DRESSING/FITTING ROOM LIGHTS".
   **   ~~~   ** ZoneList/Zone Name="RETAIL FACILITY DRESSING/FITTING ROOM-SPACE FUNCTION ZN".
   **   ~~~   ** Item length=[114] > Maximum Length=[100]. You may need to shorten the names.
   **   ~~~   ** Shortening the Object Name by [15] characters will assure uniqueness for this ZoneList.
   **   ~~~   ** name that will be used (may be needed in reporting)="RETAIL FACILITY DRESSING/FITTING ROOM-SPACE FUNCTION ZN SPACE FUNCTION RETAIL FACILITY DRESSING/FITTING ROOM LIGHTS".
   ** Warning ** GetInternalHeatGains: Lights Combination of ZoneList and Object Name generate a name too long.
   **   ~~~   ** Object Name="SPACE FUNCTION SPACE DESIGNED TO ANSI/IES RP-28 RECREATION ROOM (USED PRIMARILY BY RESIDENTS) LIGHTS".
   **   ~~~   ** ZoneList/Zone Name="SPACE DESIGNED TO ANSI/IES RP-28 RECREATION ROOM (USED PRIMARILY BY RESIDENTS)-SPACE FUNCTION ZN".
   **   ~~~   ** Item length=[196] > Maximum Length=[100]. You may need to shorten the names.
   **   ~~~   ** Shortening the Object Name by [97] characters will assure uniqueness for this ZoneList.
   **   ~~~   ** name that will be used (may be needed in reporting)="SPACE DESIGNED TO ANSI/IES RP-28 RECREATION ROOM (USED PRIMARILY BY RESIDENTS)-SPACE FUNCTION ZN SPACE FUNCTION SPACE DESIGNED TO ANSI/IES RP-28 RECREATION ROOM (USED PRIMARILY BY RESIDENTS) LIGHTS".
   ** Warning ** GetInternalHeatGains: Lights Combination of ZoneList and Object Name generate a name too long.
   **   ~~~   ** Object Name="SPACE FUNCTION SPORTS ARENA PLAYING AREA CLASS I FACILITY(4) LIGHTS".
   **   ~~~   ** ZoneList/Zone Name="SPORTS ARENA PLAYING AREA CLASS I FACILITY(4)-SPACE FUNCTION ZN".
   **   ~~~   ** Item length=[130] > Maximum Length=[100]. You may need to shorten the names.
   **   ~~~   ** Shortening the Object Name by [31] characters will assure uniqueness for this ZoneList.
   **   ~~~   ** name that will be used (may be needed in reporting)="SPORTS ARENA PLAYING AREA CLASS I FACILITY(4)-SPACE FUNCTION ZN SPACE FUNCTION SPORTS ARENA PLAYING AREA CLASS I FACILITY(4) LIGHTS".
   ** Warning ** GetInternalHeatGains: Lights Combination of ZoneList and Object Name generate a name too long.
   **   ~~~   ** Object Name="SPACE FUNCTION SPORTS ARENA PLAYING AREA CLASS II FACILITY(4) LIGHTS".
   **   ~~~   ** ZoneList/Zone Name="SPORTS ARENA PLAYING AREA CLASS II FACILITY(4)-SPACE FUNCTION ZN".
   **   ~~~   ** Item length=[132] > Maximum Length=[100]. You may need to shorten the names.
   **   ~~~   ** Shortening the Object Name by [33] characters will assure uniqueness for this ZoneList.
   **   ~~~   ** name that will be used (may be needed in reporting)="SPORTS ARENA PLAYING AREA CLASS II FACILITY(4)-SPACE FUNCTION ZN SPACE FUNCTION SPORTS ARENA PLAYING AREA CLASS II FACILITY(4) LIGHTS".
   ** Warning ** GetInternalHeatGains: Lights Combination of ZoneList and Object Name generate a name too long.
   **   ~~~   ** Object Name="SPACE FUNCTION SPORTS ARENA PLAYING AREA CLASS III FACILITY(4) LIGHTS".
   **   ~~~   ** ZoneList/Zone Name="SPORTS ARENA PLAYING AREA CLASS III FACILITY(4)-SPACE FUNCTION ZN".
   **   ~~~   ** Item length=[134] > Maximum Length=[100]. You may need to shorten the names.
   **   ~~~   ** Shortening the Object Name by [35] characters will assure uniqueness for this ZoneList.
   **   ~~~   ** name that will be used (may be needed in reporting)="SPORTS ARENA PLAYING AREA CLASS III FACILITY(4)-SPACE FUNCTION ZN SPACE FUNCTION SPORTS ARENA PLAYING AREA CLASS III FACILITY(4) LIGHTS".
   ** Warning ** GetInternalHeatGains: Lights Combination of ZoneList and Object Name generate a name too long.
   **   ~~~   ** Object Name="SPACE FUNCTION SPORTS ARENA PLAYING AREA CLASS IV FACILITY(4) LIGHTS".
   **   ~~~   ** ZoneList/Zone Name="SPORTS ARENA PLAYING AREA CLASS IV FACILITY(4)-SPACE FUNCTION ZN".
   **   ~~~   ** Item length=[132] > Maximum Length=[100]. You may need to shorten the names.
   **   ~~~   ** Shortening the Object Name by [33] characters will assure uniqueness for this ZoneList.
   **   ~~~   ** name that will be used (may be needed in reporting)="SPORTS ARENA PLAYING AREA CLASS IV FACILITY(4)-SPACE FUNCTION ZN SPACE FUNCTION SPORTS ARENA PLAYING AREA CLASS IV FACILITY(4) LIGHTS".
   ** Warning ** GetInternalHeatGains: Lights Combination of ZoneList and Object Name generate a name too long.
   **   ~~~   ** Object Name="SPACE FUNCTION TRANSPORTATION FACILITY AIRPORT CONCOURSE LIGHTS".
   **   ~~~   ** ZoneList/Zone Name="TRANSPORTATION FACILITY AIRPORT CONCOURSE-SPACE FUNCTION ZN".
   **   ~~~   ** Item length=[122] > Maximum Length=[100]. You may need to shorten the names.
   **   ~~~   ** Shortening the Object Name by [23] characters will assure uniqueness for this ZoneList.
   **   ~~~   ** name that will be used (may be needed in reporting)="TRANSPORTATION FACILITY AIRPORT CONCOURSE-SPACE FUNCTION ZN SPACE FUNCTION TRANSPORTATION FACILITY AIRPORT CONCOURSE LIGHTS".
   ** Warning ** GetInternalHeatGains: Lights Combination of ZoneList and Object Name generate a name too long.
   **   ~~~   ** Object Name="SPACE FUNCTION TRANSPORTATION FACILITY BAGGAGE/CAROUSEL AREA LIGHTS".
   **   ~~~   ** ZoneList/Zone Name="TRANSPORTATION FACILITY BAGGAGE/CAROUSEL AREA-SPACE FUNCTION ZN".
   **   ~~~   ** Item length=[130] > Maximum Length=[100]. You may need to shorten the names.
   **   ~~~   ** Shortening the Object Name by [31] characters will assure uniqueness for this ZoneList.
   **   ~~~   ** name that will be used (may be needed in reporting)="TRANSPORTATION FACILITY BAGGAGE/CAROUSEL AREA-SPACE FUNCTION ZN SPACE FUNCTION TRANSPORTATION FACILITY BAGGAGE/CAROUSEL AREA LIGHTS".
   ** Warning ** GetInternalHeatGains: Lights Combination of ZoneList and Object Name generate a name too long.
   **   ~~~   ** Object Name="SPACE FUNCTION TRANSPORTATION FACILITY TERMINAL TICKET COUNTER LIGHTS".
   **   ~~~   ** ZoneList/Zone Name="TRANSPORTATION FACILITY TERMINAL TICKET COUNTER-SPACE FUNCTION ZN".
   **   ~~~   ** Item length=[134] > Maximum Length=[100]. You may need to shorten the names.
   **   ~~~   ** Shortening the Object Name by [35] characters will assure uniqueness for this ZoneList.
   **   ~~~   ** name that will be used (may be needed in reporting)="TRANSPORTATION FACILITY TERMINAL TICKET COUNTER-SPACE FUNCTION ZN SPACE FUNCTION TRANSPORTATION FACILITY TERMINAL TICKET COUNTER LIGHTS".
   ** Warning ** GetInternalHeatGains: Lights Combination of ZoneList and Object Name generate a name too long.
   **   ~~~   ** Object Name="SPACE FUNCTION WAREHOUSE STORAGE AREA MEDIUM TO BULKY PALLETIZED ITEMS LIGHTS".
   **   ~~~   ** ZoneList/Zone Name="WAREHOUSE STORAGE AREA MEDIUM TO BULKY PALLETIZED ITEMS-SPACE FUNCTION ZN".
   **   ~~~   ** Item length=[150] > Maximum Length=[100]. You may need to shorten the names.
   **   ~~~   ** Shortening the Object Name by [51] characters will assure uniqueness for this ZoneList.
   **   ~~~   ** name that will be used (may be needed in reporting)="WAREHOUSE STORAGE AREA MEDIUM TO BULKY PALLETIZED ITEMS-SPACE FUNCTION ZN SPACE FUNCTION WAREHOUSE STORAGE AREA MEDIUM TO BULKY PALLETIZED ITEMS LIGHTS".
   ** Warning ** GetInternalHeatGains: Lights Combination of ZoneList and Object Name generate a name too long.
   **   ~~~   ** Object Name="SPACE FUNCTION WAREHOUSE STORAGE AREA SMALL HAND-CARRIED ITEMS(4) LIGHTS".
   **   ~~~   ** ZoneList/Zone Name="WAREHOUSE STORAGE AREA SMALL HAND-CARRIED ITEMS(4)-SPACE FUNCTION ZN".
   **   ~~~   ** Item length=[140] > Maximum Length=[100]. You may need to shorten the names.
   **   ~~~   ** Shortening the Object Name by [41] characters will assure uniqueness for this ZoneList.
   **   ~~~   ** name that will be used (may be needed in reporting)="WAREHOUSE STORAGE AREA SMALL HAND-CARRIED ITEMS(4)-SPACE FUNCTION ZN SPACE FUNCTION WAREHOUSE STORAGE AREA SMALL HAND-CARRIED ITEMS(4) LIGHTS".
   ** Warning ** GetInternalHeatGains: ElectricEquipment Combination of ZoneList and Object Name generate a name too long.
   **   ~~~   ** Object Name="SPACE FUNCTION MANUFACTURING FACILITY EQUIPMENT ROOM ELEC EQUIP".
   **   ~~~   ** ZoneList/Zone Name="MANUFACTURING FACILITY EQUIPMENT ROOM-SPACE FUNCTION ZN".
   **   ~~~   ** Item length=[118] > Maximum Length=[100]. You may need to shorten the names.
   **   ~~~   ** Shortening the Object Name by [19] characters will assure uniqueness for this ZoneList.
   **   ~~~   ** name that will be used (may be needed in reporting)="MANUFACTURING FACILITY EQUIPMENT ROOM-SPACE FUNCTION ZN SPACE FUNCTION MANUFACTURING FACILITY EQUIPMENT ROOM ELEC EQUIP".
   ** Warning ** GetInternalHeatGains: ElectricEquipment Combination of ZoneList and Object Name generate a name too long.
   **   ~~~   ** Object Name="SPACE FUNCTION MANUFACTURING FACILITY EXTRA HIGH BAY AREA (> 15 M FLOOR-TO-CEILING HEIGHT) ELEC EQUIP".
   **   ~~~   ** ZoneList/Zone Name="MANUFACTURING FACILITY EXTRA HIGH BAY AREA (> 15 M FLOOR-TO-CEILING HEIGHT)-SPACE FUNCTION ZN".
   **   ~~~   ** Item length=[194] > Maximum Length=[100]. You may need to shorten the names.
   **   ~~~   ** Shortening the Object Name by [95] characters will assure uniqueness for this ZoneList.
   **   ~~~   ** name that will be used (may be needed in reporting)="MANUFACTURING FACILITY EXTRA HIGH BAY AREA (> 15 M FLOOR-TO-CEILING HEIGHT)-SPACE FUNCTION ZN SPACE FUNCTION MANUFACTURING FACILITY EXTRA HIGH BAY AREA (> 15 M FLOOR-TO-CEILING HEIGHT) ELEC EQUIP".
   ** Warning ** GetInternalHeatGains: ElectricEquipment Combination of ZoneList and Object Name generate a name too long.
   **   ~~~   ** Object Name="SPACE FUNCTION MANUFACTURING FACILITY HIGH BAY AREA (7.5 TO 15 M FLOOR-TO-CEILING HEIGHT) ELEC EQUIP".
   **   ~~~   ** ZoneList/Zone Name="MANUFACTURING FACILITY HIGH BAY AREA (7.5 TO 15 M FLOOR-TO-CEILING HEIGHT)-SPACE FUNCTION ZN".
   **   ~~~   ** Item length=[192] > Maximum Length=[100]. You may need to shorten the names.
   **   ~~~   ** Shortening the Object Name by [93] characters will assure uniqueness for this ZoneList.
   **   ~~~   ** name that will be used (may be needed in reporting)="MANUFACTURING FACILITY HIGH BAY AREA (7.5 TO 15 M FLOOR-TO-CEILING HEIGHT)-SPACE FUNCTION ZN SPACE FUNCTION MANUFACTURING FACILITY HIGH BAY AREA (7.5 TO 15 M FLOOR-TO-CEILING HEIGHT) ELEC EQUIP".
   ** Warning ** GetInternalHeatGains: ElectricEquipment Combination of ZoneList and Object Name generate a name too long.
   **   ~~~   ** Object Name="SPACE FUNCTION MANUFACTURING FACILITY LOW BAY AREA (< 7.5 M FLOOR-TO-CEILING HEIGHT) ELEC EQUIP".
   **   ~~~   ** ZoneList/Zone Name="MANUFACTURING FACILITY LOW BAY AREA (< 7.5 M FLOOR-TO-CEILING HEIGHT)-SPACE FUNCTION ZN".
   **   ~~~   ** Item length=[182] > Maximum Length=[100]. You may need to shorten the names.
   **   ~~~   ** Shortening the Object Name by [83] characters will assure uniqueness for this ZoneList.
   **   ~~~   ** name that will be used (may be needed in reporting)="MANUFACTURING FACILITY LOW BAY AREA (< 7.5 M FLOOR-TO-CEILING HEIGHT)-SPACE FUNCTION ZN SPACE FUNCTION MANUFACTURING FACILITY LOW BAY AREA (< 7.5 M FLOOR-TO-CEILING HEIGHT) ELEC EQUIP".
   ** Warning ** GetInternalHeatGains: ElectricEquipment Combination of ZoneList and Object Name generate a name too long.
   **   ~~~   ** Object Name="SPACE FUNCTION MUSEUM GENERAL EXHIBITION AREA ELEC EQUIP".
   **   ~~~   ** ZoneList/Zone Name="MUSEUM GENERAL EXHIBITION AREA-SPACE FUNCTION ZN".
   **   ~~~   ** Item length=[104] > Maximum Length=[100]. You may need to shorten the names.
   **   ~~~   ** Shortening the Object Name by [5] characters will assure uniqueness for this ZoneList.
   **   ~~~   ** name that will be used (may be needed in reporting)="MUSEUM GENERAL EXHIBITION AREA-SPACE FUNCTION ZN SPACE FUNCTION MUSEUM GENERAL EXHIBITION AREA ELEC EQUIP".
   ** Warning ** GetInternalHeatGains: ElectricEquipment Combination of ZoneList and Object Name generate a name too long.
   **   ~~~   ** Object Name="SPACE FUNCTION RELIGIOUS BUILDING FELLOWSHIP HALL ELEC EQUIP".
   **   ~~~   ** ZoneList/Zone Name="RELIGIOUS BUILDING FELLOWSHIP HALL-SPACE FUNCTION ZN".
   **   ~~~   ** Item length=[112] > Maximum Length=[100]. You may need to shorten the names.
   **   ~~~   ** Shortening the Object Name by [13] characters will assure uniqueness for this ZoneList.
   **   ~~~   ** name that will be used (may be needed in reporting)="RELIGIOUS BUILDING FELLOWSHIP HALL-SPACE FUNCTION ZN SPACE FUNCTION RELIGIOUS BUILDING FELLOWSHIP HALL ELEC EQUIP".
   ** Warning ** GetInternalHeatGains: ElectricEquipment Combination of ZoneList and Object Name generate a name too long.
   **   ~~~   ** Object Name="SPACE FUNCTION RETAIL FACILITY DRESSING/FITTING ROOM ELEC EQUIP".
   **   ~~~   ** ZoneList/Zone Name="RETAIL FACILITY DRESSING/FITTING ROOM-SPACE FUNCTION ZN".
   **   ~~~   ** Item length=[118] > Maximum Length=[100]. You may need to shorten the names.
   **   ~~~   ** Shortening the Object Name by [19] characters will assure uniqueness for this ZoneList.
   **   ~~~   ** name that will be used (may be needed in reporting)="RETAIL FACILITY DRESSING/FITTING ROOM-SPACE FUNCTION ZN SPACE FUNCTION RETAIL FACILITY DRESSING/FITTING ROOM ELEC EQUIP".
   ** Warning ** GetInternalHeatGains: ElectricEquipment Combination of ZoneList and Object Name generate a name too long.
   **   ~~~   ** Object Name="SPACE FUNCTION RETAIL FACILITY MALL CONCOURSE ELEC EQUIP".
   **   ~~~   ** ZoneList/Zone Name="RETAIL FACILITY MALL CONCOURSE-SPACE FUNCTION ZN".
   **   ~~~   ** Item length=[104] > Maximum Length=[100]. You may need to shorten the names.
   **   ~~~   ** Shortening the Object Name by [5] characters will assure uniqueness for this ZoneList.
   **   ~~~   ** name that will be used (may be needed in reporting)="RETAIL FACILITY MALL CONCOURSE-SPACE FUNCTION ZN SPACE FUNCTION RETAIL FACILITY MALL CONCOURSE ELEC EQUIP".
   ** Warning ** GetInternalHeatGains: ElectricEquipment Combination of ZoneList and Object Name generate a name too long.
   **   ~~~   ** Object Name="SPACE FUNCTION SPACE DESIGNED TO ANSI/IES RP-28 RECREATION ROOM (USED PRIMARILY BY RESIDENTS) ELEC EQUIP".
   **   ~~~   ** ZoneList/Zone Name="SPACE DESIGNED TO ANSI/IES RP-28 RECREATION ROOM (USED PRIMARILY BY RESIDENTS)-SPACE FUNCTION ZN".
   **   ~~~   ** Item length=[200] > Maximum Length=[100]. You may need to shorten the names.
   **   ~~~   ** Shortening the Object Name by [101] characters will assure uniqueness for this ZoneList.
   **   ~~~   ** name that will be used (may be needed in reporting)="SPACE DESIGNED TO ANSI/IES RP-28 RECREATION ROOM (USED PRIMARILY BY RESIDENTS)-SPACE FUNCTION ZN SPACE FUNCTION SPACE DESIGNED TO ANSI/IES RP-28 RECREATION ROOM (USED PRIMARILY BY RESIDENTS) ELEC EQUIP".
   ** Warning ** GetInternalHeatGains: ElectricEquipment Combination of ZoneList and Object Name generate a name too long.
   **   ~~~   ** Object Name="SPACE FUNCTION SPORTS ARENA PLAYING AREA CLASS I FACILITY(4) ELEC EQUIP".
   **   ~~~   ** ZoneList/Zone Name="SPORTS ARENA PLAYING AREA CLASS I FACILITY(4)-SPACE FUNCTION ZN".
   **   ~~~   ** Item length=[134] > Maximum Length=[100]. You may need to shorten the names.
   **   ~~~   ** Shortening the Object Name by [35] characters will assure uniqueness for this ZoneList.
   **   ~~~   ** name that will be used (may be needed in reporting)="SPORTS ARENA PLAYING AREA CLASS I FACILITY(4)-SPACE FUNCTION ZN SPACE FUNCTION SPORTS ARENA PLAYING AREA CLASS I FACILITY(4) ELEC EQUIP".
   ** Warning ** GetInternalHeatGains: ElectricEquipment Combination of ZoneList and Object Name generate a name too long.
   **   ~~~   ** Object Name="SPACE FUNCTION SPORTS ARENA PLAYING AREA CLASS II FACILITY(4) ELEC EQUIP".
   **   ~~~   ** ZoneList/Zone Name="SPORTS ARENA PLAYING AREA CLASS II FACILITY(4)-SPACE FUNCTION ZN".
   **   ~~~   ** Item length=[136] > Maximum Length=[100]. You may need to shorten the names.
   **   ~~~   ** Shortening the Object Name by [37] characters will assure uniqueness for this ZoneList.
   **   ~~~   ** name that will be used (may be needed in reporting)="SPORTS ARENA PLAYING AREA CLASS II FACILITY(4)-SPACE FUNCTION ZN SPACE FUNCTION SPORTS ARENA PLAYING AREA CLASS II FACILITY(4) ELEC EQUIP".
   ** Warning ** GetInternalHeatGains: ElectricEquipment Combination of ZoneList and Object Name generate a name too long.
   **   ~~~   ** Object Name="SPACE FUNCTION SPORTS ARENA PLAYING AREA CLASS III FACILITY(4) ELEC EQUIP".
   **   ~~~   ** ZoneList/Zone Name="SPORTS ARENA PLAYING AREA CLASS III FACILITY(4)-SPACE FUNCTION ZN".
   **   ~~~   ** Item length=[138] > Maximum Length=[100]. You may need to shorten the names.
   **   ~~~   ** Shortening the Object Name by [39] characters will assure uniqueness for this ZoneList.
   **   ~~~   ** name that will be used (may be needed in reporting)="SPORTS ARENA PLAYING AREA CLASS III FACILITY(4)-SPACE FUNCTION ZN SPACE FUNCTION SPORTS ARENA PLAYING AREA CLASS III FACILITY(4) ELEC EQUIP".
   ** Warning ** GetInternalHeatGains: ElectricEquipment Combination of ZoneList and Object Name generate a name too long.
   **   ~~~   ** Object Name="SPACE FUNCTION SPORTS ARENA PLAYING AREA CLASS IV FACILITY(4) ELEC EQUIP".
   **   ~~~   ** ZoneList/Zone Name="SPORTS ARENA PLAYING AREA CLASS IV FACILITY(4)-SPACE FUNCTION ZN".
   **   ~~~   ** Item length=[136] > Maximum Length=[100]. You may need to shorten the names.
   **   ~~~   ** Shortening the Object Name by [37] characters will assure uniqueness for this ZoneList.
   **   ~~~   ** name that will be used (may be needed in reporting)="SPORTS ARENA PLAYING AREA CLASS IV FACILITY(4)-SPACE FUNCTION ZN SPACE FUNCTION SPORTS ARENA PLAYING AREA CLASS IV FACILITY(4) ELEC EQUIP".
   ** Warning ** GetInternalHeatGains: ElectricEquipment Combination of ZoneList and Object Name generate a name too long.
   **   ~~~   ** Object Name="SPACE FUNCTION TRANSPORTATION FACILITY BAGGAGE/CAROUSEL AREA ELEC EQUIP".
   **   ~~~   ** ZoneList/Zone Name="TRANSPORTATION FACILITY BAGGAGE/CAROUSEL AREA-SPACE FUNCTION ZN".
   **   ~~~   ** Item length=[134] > Maximum Length=[100]. You may need to shorten the names.
   **   ~~~   ** Shortening the Object Name by [35] characters will assure uniqueness for this ZoneList.
   **   ~~~   ** name that will be used (may be needed in reporting)="TRANSPORTATION FACILITY BAGGAGE/CAROUSEL AREA-SPACE FUNCTION ZN SPACE FUNCTION TRANSPORTATION FACILITY BAGGAGE/CAROUSEL AREA ELEC EQUIP".
   ** Warning ** GetInternalHeatGains: ElectricEquipment Combination of ZoneList and Object Name generate a name too long.
   **   ~~~   ** Object Name="SPACE FUNCTION TRANSPORTATION FACILITY TERMINAL TICKET COUNTER ELEC EQUIP".
   **   ~~~   ** ZoneList/Zone Name="TRANSPORTATION FACILITY TERMINAL TICKET COUNTER-SPACE FUNCTION ZN".
   **   ~~~   ** Item length=[138] > Maximum Length=[100]. You may need to shorten the names.
   **   ~~~   ** Shortening the Object Name by [39] characters will assure uniqueness for this ZoneList.
   **   ~~~   ** name that will be used (may be needed in reporting)="TRANSPORTATION FACILITY TERMINAL TICKET COUNTER-SPACE FUNCTION ZN SPACE FUNCTION TRANSPORTATION FACILITY TERMINAL TICKET COUNTER ELEC EQUIP".
   ** Warning ** GetInternalHeatGains: ElectricEquipment Combination of ZoneList and Object Name generate a name too long.
   **   ~~~   ** Object Name="SPACE FUNCTION WAREHOUSE STORAGE AREA MEDIUM TO BULKY PALLETIZED ITEMS ELEC EQUIP".
   **   ~~~   ** ZoneList/Zone Name="WAREHOUSE STORAGE AREA MEDIUM TO BULKY PALLETIZED ITEMS-SPACE FUNCTION ZN".
   **   ~~~   ** Item length=[154] > Maximum Length=[100]. You may need to shorten the names.
   **   ~~~   ** Shortening the Object Name by [55] characters will assure uniqueness for this ZoneList.
   **   ~~~   ** name that will be used (may be needed in reporting)="WAREHOUSE STORAGE AREA MEDIUM TO BULKY PALLETIZED ITEMS-SPACE FUNCTION ZN SPACE FUNCTION WAREHOUSE STORAGE AREA MEDIUM TO BULKY PALLETIZED ITEMS ELEC EQUIP".
   ** Warning ** GetInternalHeatGains: ElectricEquipment Combination of ZoneList and Object Name generate a name too long.
   **   ~~~   ** Object Name="SPACE FUNCTION WAREHOUSE STORAGE AREA SMALL HAND-CARRIED ITEMS(4) ELEC EQUIP".
   **   ~~~   ** ZoneList/Zone Name="WAREHOUSE STORAGE AREA SMALL HAND-CARRIED ITEMS(4)-SPACE FUNCTION ZN".
   **   ~~~   ** Item length=[144] > Maximum Length=[100]. You may need to shorten the names.
   **   ~~~   ** Shortening the Object Name by [45] characters will assure uniqueness for this ZoneList.
   **   ~~~   ** name that will be used (may be needed in reporting)="WAREHOUSE STORAGE AREA SMALL HAND-CARRIED ITEMS(4)-SPACE FUNCTION ZN SPACE FUNCTION WAREHOUSE STORAGE AREA SMALL HAND-CARRIED ITEMS(4) ELEC EQUIP".
   ** Warning ** Calculated design heating load for zone=MUSEUM RESTORATION ROOM-SPACE FUNCTION ZN is zero.
   **   ~~~   ** Check Sizing:Zone and ZoneControl:Thermostat inputs.
   ** Warning ** Calculated design heating load for zone=RELIGIOUS BUILDING FELLOWSHIP HALL-SPACE FUNCTION ZN is zero.
   **   ~~~   ** Check Sizing:Zone and ZoneControl:Thermostat inputs.
   ** Warning ** Calculated design heating load for zone=RETAIL FACILITY DRESSING/FITTING ROOM-SPACE FUNCTION ZN is zero.
   **   ~~~   ** Check Sizing:Zone and ZoneControl:Thermostat inputs.
   ** Warning ** Calculated design heating load for zone=RETAIL FACILITY MALL CONCOURSE-SPACE FUNCTION ZN is zero.
   **   ~~~   ** Check Sizing:Zone and ZoneControl:Thermostat inputs.
   ** Warning ** Calculated design heating load for zone=SPORTS ARENA PLAYING AREA CLASS II FACILITY(4)-SPACE FUNCTION ZN is zero.
   **   ~~~   ** Check Sizing:Zone and ZoneControl:Thermostat inputs.
   ** Warning ** Calculated design heating load for zone=SPORTS ARENA PLAYING AREA CLASS IV FACILITY(4)-SPACE FUNCTION ZN is zero.
   **   ~~~   ** Check Sizing:Zone and ZoneControl:Thermostat inputs.
   ** Warning ** Calculated design heating load for zone=TRANSPORTATION FACILITY AIRPORT CONCOURSE-SPACE FUNCTION ZN is zero.
   **   ~~~   ** Check Sizing:Zone and ZoneControl:Thermostat inputs.
   ** Warning ** Calculated design heating load for zone=TRANSPORTATION FACILITY BAGGAGE/CAROUSEL AREA-SPACE FUNCTION ZN is zero.
   **   ~~~   ** Check Sizing:Zone and ZoneControl:Thermostat inputs.
   ** Warning ** Calculated design heating load for zone=TRANSPORTATION FACILITY TERMINAL TICKET COUNTER-SPACE FUNCTION ZN is zero.
   **   ~~~   ** Check Sizing:Zone and ZoneControl:Thermostat inputs.
   ** Warning ** Calculated design heating load for zone=WAREHOUSE STORAGE AREA SMALL HAND-CARRIED ITEMS(4)-SPACE FUNCTION ZN is zero.
   **   ~~~   ** Check Sizing:Zone and ZoneControl:Thermostat inputs.
   ** Warning ** Output:Meter: invalid Key Name="GAS:FACILITY" - not found.
   ** Warning ** Output:Meter:MeterFileOnly: invalid Key Name="GAS:FACILITY" - not found.
   ** Warning ** Output:Meter:MeterFileOnly requested for "Electricity:Facility" (TimeStep), already on "Output:Meter". Will report to both eplusout.eso and eplusout.mtr
   ************* Testing Individual Branch Integrity
   ************* All Branches passed integrity testing
   ************* Testing Individual Supply Air Path Integrity
   ************* All Supply Air Paths passed integrity testing
   ************* Testing Individual Return Air Path Integrity
   ************* All Return Air Paths passed integrity testing
   ************* No node connection errors were found.
   ************* Beginning Simulation
   ** Warning ** Output:Table:Monthly requested with SimulationControl Run Simulation for Weather File Run Periods set to No so Output:Table:Monthly will not be generated
   ************* Simulation Error Summary *************
   ************* There are 8 unused objects in input.
   ************* Use Output:Diagnostics,DisplayUnusedObjects; to see them.
   ************* There are 6 unused schedules in input.
   ************* There are 6 unused week schedules in input.
   ************* There are 9 unused day schedules in input.
   ************* Use Output:Diagnostics,DisplayUnusedSchedules; to see them.
   *************
   ************* ===== Final Error Summary =====
   ************* The following error categories occurred.  Consider correcting or noting.
   ************* Nominally Unused Constructions
   ************* ..The nominally unused constructions warning is provided to alert you to potential conditions that can cause
   ************* ..extra time during simulation. Each construction is calculated by the algorithm indicated in the HeatBalanceAlgorithm
   ************* ..object. You may remove the constructions indicated (when you use the DisplayExtraWarnings option).
   *************
   ************* EnergyPlus Warmup Error Summary. During Warmup: 0 Warning; 0 Severe Errors.
   ************* EnergyPlus Sizing Error Summary. During Sizing: 64 Warning; 0 Severe Errors.
   ************* EnergyPlus Completed Successfully-- 68 Warning; 0 Severe Errors; Elapsed Time=00hr 00min  2.45sec
