Program Version,EnergyPlus, Version 8.9.0-eba93e8e1b, YMD=2019.03.05 18:46
! <Version>, Version ID
 Version, 8.9
! <Timesteps per Hour>, #TimeSteps, Minutes per TimeStep {minutes}
 Timesteps per Hour,  6, 10
! <System Convergence Limits>, Minimum System TimeStep {minutes}, Max HVAC Iterations, Minimum Plant Iterations, Maximum Plant Iterations
 System Convergence Limits, 1, 20, 2, 8
! <Simulation Control>, Do Zone Sizing, Do System Sizing, Do Plant Sizing, Do Design Days, Do Weather Simulation, Do HVAC Sizing Simulation
 Simulation Control, Yes, No, No, Yes, No, No
! <Output Reporting Tolerances>, Tolerance for Time Heating Setpoint Not Met, Tolerance for Zone Cooling Setpoint Not Met Time
 Output Reporting Tolerances, 0.200, 0.200, 
! <Site:GroundTemperature:BuildingSurface>,Jan{C},Feb{C},Mar{C},Apr{C},May{C},Jun{C},Jul{C},Aug{C},Sep{C},Oct{C},Nov{C},Dec{C}
 Site:GroundTemperature:BuildingSurface,  19.53,  19.50,  19.54,  19.60,  20.00,  21.64,  22.23,  22.38,  21.45,  20.12,  19.80,  19.63
! <Site:GroundTemperature:FCfactorMethod>,Jan{C},Feb{C},Mar{C},Apr{C},May{C},Jun{C},Jul{C},Aug{C},Sep{C},Oct{C},Nov{C},Dec{C}
 Site:GroundTemperature:FCfactorMethod, -12.27, -13.66, -11.19,  -7.33,   2.77,  10.57,  15.83,  17.43,  14.70,   8.65,   0.56,  -6.95
! <Site:GroundTemperature:Shallow>,Jan{C},Feb{C},Mar{C},Apr{C},May{C},Jun{C},Jul{C},Aug{C},Sep{C},Oct{C},Nov{C},Dec{C}
 Site:GroundTemperature:Shallow,  13.00,  13.00,  13.00,  13.00,  13.00,  13.00,  13.00,  13.00,  13.00,  13.00,  13.00,  13.00
! <Site:GroundTemperature:Deep>,Jan{C},Feb{C},Mar{C},Apr{C},May{C},Jun{C},Jul{C},Aug{C},Sep{C},Oct{C},Nov{C},Dec{C}
 Site:GroundTemperature:Deep,  16.00,  16.00,  16.00,  16.00,  16.00,  16.00,  16.00,  16.00,  16.00,  16.00,  16.00,  16.00
! <Site:GroundReflectance>,Jan{dimensionless},Feb{dimensionless},Mar{dimensionless},Apr{dimensionless},May{dimensionless},Jun{dimensionless},Jul{dimensionless},Aug{dimensionless},Sep{dimensionless},Oct{dimensionless},Nov{dimensionless},Dec{dimensionless}
 Site:GroundReflectance,  0.20,  0.20,  0.20,  0.20,  0.20,  0.20,  0.20,  0.20,  0.20,  0.20,  0.20,  0.20
! <Site:GroundReflectance:SnowModifier>, Normal, Daylighting {dimensionless}
 Site:GroundReflectance:SnowModifier,   1.000,   1.000
! <Site:GroundReflectance:Snow>,Jan{dimensionless},Feb{dimensionless},Mar{dimensionless},Apr{dimensionless},May{dimensionless},Jun{dimensionless},Jul{dimensionless},Aug{dimensionless},Sep{dimensionless},Oct{dimensionless},Nov{dimensionless},Dec{dimensionless}
 Site:GroundReflectance:Snow,  0.20,  0.20,  0.20,  0.20,  0.20,  0.20,  0.20,  0.20,  0.20,  0.20,  0.20,  0.20
! <Site:GroundReflectance:Snow:Daylighting>,Jan{dimensionless},Feb{dimensionless},Mar{dimensionless},Apr{dimensionless},May{dimensionless},Jun{dimensionless},Jul{dimensionless},Aug{dimensionless},Sep{dimensionless},Oct{dimensionless},Nov{dimensionless},Dec{dimensionless}
 Site:GroundReflectance:Snow:Daylighting,  0.20,  0.20,  0.20,  0.20,  0.20,  0.20,  0.20,  0.20,  0.20,  0.20,  0.20,  0.20
! <Environment:Weather Station>,Wind Sensor Height Above Ground {m},Wind Speed Profile Exponent {},Wind Speed Profile Boundary Layer Thickness {m},Air Temperature Sensor Height Above Ground {m},Wind Speed Modifier Coefficient-Internal,Temperature Modifier Coefficient-Internal
Environment:Weather Station,10.000,0.140,270.000,1.500,1.586,9.750E-003
! <Site:Location>, Location Name, Latitude {N+/S- Deg}, Longitude {E+/W- Deg},  Time Zone Number {GMT+/-}, Elevation {m},  Standard Pressure at Elevation {Pa}, Standard RhoAir at Elevation
Site:Location,Fort McMurray AP AB CAN CWEC2016 WMO#=716890,56.65,-111.22,-7.00,369.10,96969,1.1525
! <Building Information>, Building Name,North Axis {deg},Terrain,  Loads Convergence Tolerance Value,Temperature Convergence Tolerance Value,  Solar Distribution,Maximum Number of Warmup Days,Minimum Number of Warmup Days
 Building Information,Building 1,0.000,Suburbs,4.00000E-002,0.40000,FullExterior,25,6
! <Inside Convection Algorithm>, Algorithm {Simple | TARP | CeilingDiffuser | AdaptiveConvectionAlgorithm}
Inside Convection Algorithm,TARP
! <Outside Convection Algorithm>, Algorithm {SimpleCombined | TARP | MoWitt | DOE-2 | AdaptiveConvectionAlgorithm}
Outside Convection Algorithm,TARP
! <Sky Radiance Distribution>, Value {Anisotropic}
Sky Radiance Distribution,Anisotropic
! <Zone Air Solution Algorithm>, Value {ThirdOrderBackwardDifference | AnalyticalSolution | EulerMethod}
 Zone Air Solution Algorithm, ThirdOrderBackwardDifference
! <Zone Air Carbon Dioxide Balance Simulation>, Simulation {Yes/No}, Carbon Dioxide Concentration
 Zone Air Carbon Dioxide Balance Simulation, No,N/A
! <Zone Air Generic Contaminant Balance Simulation>, Simulation {Yes/No}, Generic Contaminant Concentration
 Zone Air Generic Contaminant Balance Simulation, No,N/A
! <Zone Air Mass Flow Balance Simulation>, Enforce Mass Balance, Adjust Zone Mixing, Adjust Zone Infiltration {AddInfiltration | AdjustInfiltration | None}, Infiltration Zones {MixingSourceZonesOnly | AllZones}
 Zone Air Mass Flow Balance Simulation, No,N/A,N/A,N/A
! <HVACSystemRootFindingAlgorithm>, Value {RegulaFalsi | Bisection | BisectionThenRegulaFalsi | RegulaFalsiThenBisection}
 HVACSystemRootFindingAlgorithm, RegulaFalsi
! <Environment:Site Atmospheric Variation>,Wind Speed Profile Exponent {},Wind Speed Profile Boundary Layer Thickness {m},Air Temperature Gradient Coefficient {K/m}
Environment:Site Atmospheric Variation,0.220,370.000,6.500000E-003
! <Surface Geometry>,Starting Corner,Vertex Input Direction,Coordinate System,Daylight Reference Point Coordinate System,Rectangular (Simple) Surface Coordinate System
 Surface Geometry,UpperLeftCorner,Counterclockwise,RelativeCoordinateSystem,RelativeCoordinateSystem,RelativeToZoneOrigin
! <Surface Heat Transfer Algorithm>, Value {CTF - ConductionTransferFunction | EMPD - MoisturePenetrationDepthConductionTransferFunction | CondFD - ConductionFiniteDifference | HAMT - CombinedHeatAndMoistureFiniteElement} - Description,Inside Surface Max Temperature Limit{C}, Surface Convection Coefficient Lower Limit {W/m2-K}, Surface Convection Coefficient Upper Limit {W/m2-K}
Surface Heat Transfer Algorithm, CTF - ConductionTransferFunction,200,0.10,1000.0
! <Shading Summary>, Number of Fixed Detached Shades, Number of Building Detached Shades, Number of Attached Shades
 Shading Summary,0,0,0
! <Zone Summary>, Number of Zones, Number of Zone Surfaces, Number of SubSurfaces
 Zone Summary,140,952,112
! <Zone Information>,Zone Name,North Axis {deg},Origin X-Coordinate {m},Origin Y-Coordinate {m},Origin Z-Coordinate {m},Centroid X-Coordinate {m},Centroid Y-Coordinate {m},Centroid Z-Coordinate {m},Type,Zone Multiplier,Zone List Multiplier,Minimum X {m},Maximum X {m},Minimum Y {m},Maximum Y {m},Minimum Z {m},Maximum Z {m},Ceiling Height {m},Volume {m3},Zone Inside Convection Algorithm {Simple-Detailed-CeilingDiffuser-TrombeWall},Zone Outside Convection Algorithm {Simple-Detailed-Tarp-MoWitt-DOE-2-BLAST}, Floor Area {m2},Exterior Gross Wall Area {m2},Exterior Net Wall Area {m2},Exterior Window Area {m2}, Number of Surfaces, Number of SubSurfaces, Number of Shading SubSurfaces,  Part of Total Building Area
 Zone Information, - UNDEFINED --SPACE FUNCTION ZN,0.0,75.00,25.00,98.80,89.15,50.00,100.70,1,1,1,75.00,100.00,0.00,100.00,98.80,102.60,3.80,7125.00,TARP,TARP,1875.00,380.00,380.00,0.00,6,0,0,Yes
 Zone Information, ATRIUM - H < 13M-SPACE FUNCTION ZN,0.0,0.00,0.00,30.40,10.85,50.00,32.30,1,1,1,0.00,25.00,0.00,100.00,30.40,34.20,3.80,7125.00,TARP,TARP,1875.00,380.00,285.00,95.00,6,1,0,Yes
 Zone Information, ATRIUM - H > 13M-SPACE FUNCTION ZN,0.0,25.00,25.00,26.60,50.00,50.00,28.50,1,1,1,25.00,75.00,25.00,75.00,26.60,30.40,3.80,9500.00,TARP,TARP,2500.00,0.00,0.00,0.00,6,0,0,Yes
 Zone Information, AUDIENCE - AUDITORIUM-SPACE FUNCTION ZN,0.0,25.00,75.00,30.40,50.00,89.15,32.30,1,1,1,0.00,100.00,75.00,100.00,30.40,34.20,3.80,7125.00,TARP,TARP,1875.00,380.00,285.00,95.00,6,1,0,Yes
 Zone Information, AUDIENCE - MOTION PICTURE-SPACE FUNCTION ZN,0.0,75.00,25.00,0.00,89.15,50.00,1.90,1,1,1,75.00,100.00,0.00,100.00,0.00,3.80,3.80,7125.00,TARP,TARP,1875.00,0.00,0.00,0.00,6,0,0,Yes
 Zone Information, AUDIENCE - PERFORMANCE ARTS-SPACE FUNCTION ZN,0.0,0.00,0.00,41.80,50.00,10.85,43.70,1,1,1,0.00,100.00,0.00,25.00,41.80,45.60,3.80,7125.00,TARP,TARP,1875.00,380.00,285.00,95.00,6,1,0,Yes
 Zone Information, AUTOMOTIVE - REPAIR-SPACE FUNCTION ZN,0.0,75.00,25.00,26.60,89.15,50.00,28.50,1,1,1,75.00,100.00,0.00,100.00,26.60,30.40,3.80,7125.00,TARP,TARP,1875.00,380.00,285.00,95.00,6,1,0,Yes
 Zone Information, BANK - BANKING AND OFFICES-SPACE FUNCTION ZN,0.0,75.00,25.00,30.40,89.15,50.00,32.30,1,1,1,75.00,100.00,0.00,100.00,30.40,34.20,3.80,7125.00,TARP,TARP,1875.00,380.00,285.00,95.00,6,1,0,Yes
 Zone Information, CLASSROOM/LECTURE/TRAINING-SPACE FUNCTION ZN,0.0,25.00,25.00,19.00,50.00,50.00,20.90,1,1,1,25.00,75.00,25.00,75.00,19.00,22.80,3.80,9500.00,TARP,TARP,2500.00,0.00,0.00,0.00,6,0,0,Yes
 Zone Information, CONF./MEET./MULTI-PURPOSE-SPACE FUNCTION ZN,0.0,25.00,75.00,98.80,50.00,89.15,100.70,1,1,1,0.00,100.00,75.00,100.00,98.80,102.60,3.80,7125.00,TARP,TARP,1875.00,380.00,285.00,95.00,6,1,0,Yes
 Zone Information, CONVENTION CENTRE - AUDIENCE-SPACE FUNCTION ZN,0.0,25.00,25.00,22.80,50.00,50.00,24.70,1,1,1,25.00,75.00,25.00,75.00,22.80,26.60,3.80,9500.00,TARP,TARP,2500.00,0.00,0.00,0.00,6,0,0,Yes
 Zone Information, CONVENTION CENTRE - EXHIBIT-SPACE FUNCTION ZN,0.0,25.00,25.00,3.80,50.00,50.00,5.70,1,1,1,25.00,75.00,25.00,75.00,3.80,7.60,3.80,9500.00,TARP,TARP,2500.00,0.00,0.00,0.00,6,0,0,Yes
 Zone Information, COURTHOUSE - CELL-SPACE FUNCTION ZN,0.0,25.00,75.00,22.80,50.00,89.15,24.70,1,1,1,0.00,100.00,75.00,100.00,22.80,26.60,3.80,7125.00,TARP,TARP,1875.00,380.00,285.00,95.00,6,1,0,Yes
 Zone Information, COURTHOUSE - CHAMBERS-SPACE FUNCTION ZN,0.0,0.00,0.00,22.80,10.85,50.00,24.70,1,1,1,0.00,25.00,0.00,100.00,22.80,26.60,3.80,7125.00,TARP,TARP,1875.00,380.00,285.00,95.00,6,1,0,Yes
 Zone Information, COURTHOUSE - COURTROOM-SPACE FUNCTION ZN,0.0,0.00,0.00,15.20,50.00,10.85,17.10,1,1,1,0.00,100.00,0.00,25.00,15.20,19.00,3.80,7125.00,TARP,TARP,1875.00,380.00,285.00,95.00,6,1,0,Yes
 Zone Information, DINING - BAR LOUNGE/LEISURE-SPACE FUNCTION ZN,0.0,0.00,0.00,95.00,50.00,10.85,96.90,1,1,1,0.00,100.00,0.00,25.00,95.00,98.80,3.80,7125.00,TARP,TARP,1875.00,380.00,285.00,95.00,6,1,0,Yes
 Zone Information, DINING - FAMILY SPACE-SPACE FUNCTION ZN,0.0,0.00,0.00,34.20,10.85,50.00,36.10,1,1,1,0.00,25.00,0.00,100.00,34.20,38.00,3.80,7125.00,TARP,TARP,1875.00,380.00,285.00,95.00,6,1,0,Yes
 Zone Information, DINING - OTHER-SPACE FUNCTION ZN,0.0,25.00,25.00,68.40,50.00,50.00,70.30,1,1,1,25.00,75.00,25.00,75.00,68.40,72.20,3.80,9500.00,TARP,TARP,2500.00,0.00,0.00,0.00,6,0,0,Yes
 Zone Information, DORMITORY - LIVING QUARTERS-SPACE FUNCTION ZN,0.0,75.00,25.00,19.00,89.15,50.00,20.90,1,1,1,75.00,100.00,0.00,100.00,19.00,22.80,3.80,7125.00,TARP,TARP,1875.00,380.00,285.00,95.00,6,1,0,Yes
 Zone Information, DRESS./FITT. - PERFORMANCE ARTS-SPACE FUNCTION ZN,0.0,0.00,0.00,0.00,50.00,10.85,1.90,1,1,1,0.00,100.00,0.00,25.00,0.00,3.80,3.80,7125.00,TARP,TARP,1875.00,0.00,0.00,0.00,6,0,0,Yes
 Zone Information, DWELLING UNIT(S)-SPACE FUNCTION ZN,0.0,75.00,25.00,11.40,89.15,50.00,13.30,1,1,1,75.00,100.00,0.00,100.00,11.40,15.20,3.80,7125.00,TARP,TARP,1875.00,380.00,285.00,95.00,6,1,0,Yes
 Zone Information, FIRE STATION - ENGINE ROOM-SPACE FUNCTION ZN,0.0,25.00,75.00,91.20,50.00,89.15,93.10,1,1,1,0.00,100.00,75.00,100.00,91.20,95.00,3.80,7125.00,TARP,TARP,1875.00,380.00,285.00,95.00,6,1,0,Yes
 Zone Information, FIRE STATION - QUARTERS-SPACE FUNCTION ZN,0.0,0.00,0.00,41.80,10.85,50.00,43.70,1,1,1,0.00,25.00,0.00,100.00,41.80,45.60,3.80,7125.00,TARP,TARP,1875.00,380.00,285.00,95.00,6,1,0,Yes
 Zone Information, FOOD PREPARATION - VENTED-SPACE FUNCTION ZN,0.0,0.00,0.00,45.60,50.00,10.85,47.50,1,1,1,0.00,100.00,0.00,25.00,45.60,49.40,3.80,7125.00,TARP,TARP,1875.00,380.00,285.00,95.00,6,1,0,Yes
 Zone Information, FOOD PREPARATION-SPACE FUNCTION ZN,0.0,0.00,0.00,26.60,50.00,10.85,28.50,1,1,1,0.00,100.00,0.00,25.00,26.60,30.40,3.80,7125.00,TARP,TARP,1875.00,380.00,285.00,95.00,6,1,0,Yes
 Zone Information, GYM - AUDIENCE-SPACE FUNCTION ZN,0.0,75.00,25.00,64.60,89.15,50.00,66.50,1,1,1,75.00,100.00,0.00,100.00,64.60,68.40,3.80,7125.00,TARP,TARP,1875.00,380.00,285.00,95.00,6,1,0,Yes
 Zone Information, GYM - FITNESS-SPACE FUNCTION ZN,0.0,75.00,25.00,3.80,89.15,50.00,5.70,1,1,1,75.00,100.00,0.00,100.00,3.80,7.60,3.80,7125.00,TARP,TARP,1875.00,380.00,285.00,95.00,6,1,0,Yes
 Zone Information, GYM - PLAY-SPACE FUNCTION ZN,0.0,25.00,75.00,64.60,50.00,89.15,66.50,1,1,1,0.00,100.00,75.00,100.00,64.60,68.40,3.80,7125.00,TARP,TARP,1875.00,380.00,285.00,95.00,6,1,0,Yes
 Zone Information, HOSPITAL - EMERGENCY-SPACE FUNCTION ZN,0.0,0.00,0.00,15.20,10.85,50.00,17.10,1,1,1,0.00,25.00,0.00,100.00,15.20,19.00,3.80,7125.00,TARP,TARP,1875.00,380.00,285.00,95.00,6,1,0,Yes
 Zone Information, HOSPITAL - EXAM-SPACE FUNCTION ZN,0.0,75.00,25.00,38.00,89.15,50.00,39.90,1,1,1,75.00,100.00,0.00,100.00,38.00,41.80,3.80,7125.00,TARP,TARP,1875.00,380.00,285.00,95.00,6,1,0,Yes
 Zone Information, HOSPITAL - LAUNDRY/WASHING-SPACE FUNCTION ZN,0.0,25.00,25.00,102.60,50.00,50.00,104.50,1,1,1,25.00,75.00,25.00,75.00,102.60,106.40,3.80,9500.00,TARP,TARP,2500.00,0.00,0.00,125.00,6,1,0,Yes
 Zone Information, HOSPITAL - LOUNGE/RECREATION-SPACE FUNCTION ZN,0.0,25.00,25.00,95.00,50.00,50.00,96.90,1,1,1,25.00,75.00,25.00,75.00,95.00,98.80,3.80,9500.00,TARP,TARP,2500.00,0.00,0.00,0.00,6,0,0,Yes
 Zone Information, HOSPITAL - MEDICAL SUPPLY - OCCSENS-SPACE FUNCTION ZN,0.0,25.00,75.00,26.60,50.00,89.15,28.50,1,1,1,0.00,100.00,75.00,100.00,26.60,30.40,3.80,7125.00,TARP,TARP,1875.00,380.00,285.00,95.00,6,1,0,Yes
 Zone Information, HOSPITAL - MEDICAL SUPPLY-SPACE FUNCTION ZN,0.0,0.00,0.00,7.60,10.85,50.00,9.50,1,1,1,0.00,25.00,0.00,100.00,7.60,11.40,3.80,7125.00,TARP,TARP,1875.00,380.00,285.00,95.00,6,1,0,Yes
 Zone Information, HOSPITAL - NURSERY-SPACE FUNCTION ZN,0.0,75.00,25.00,49.40,89.15,50.00,51.30,1,1,1,75.00,100.00,0.00,100.00,49.40,53.20,3.80,7125.00,TARP,TARP,1875.00,380.00,285.00,95.00,6,1,0,Yes
 Zone Information, HOSPITAL - NURSES' STATION-SPACE FUNCTION ZN,0.0,0.00,0.00,83.60,10.85,50.00,85.50,1,1,1,0.00,25.00,0.00,100.00,83.60,87.40,3.80,7125.00,TARP,TARP,1875.00,380.00,285.00,95.00,6,1,0,Yes
 Zone Information, HOSPITAL - OPERATING ROOM-SPACE FUNCTION ZN,0.0,25.00,75.00,7.60,50.00,89.15,9.50,1,1,1,0.00,100.00,75.00,100.00,7.60,11.40,3.80,7125.00,TARP,TARP,1875.00,380.00,285.00,95.00,6,1,0,Yes
 Zone Information, HOSPITAL - PATIENT ROOM-SPACE FUNCTION ZN,0.0,75.00,25.00,22.80,89.15,50.00,24.70,1,1,1,75.00,100.00,0.00,100.00,22.80,26.60,3.80,7125.00,TARP,TARP,1875.00,380.00,285.00,95.00,6,1,0,Yes
 Zone Information, HOSPITAL - PHARMACY-SPACE FUNCTION ZN,0.0,0.00,0.00,3.80,10.85,50.00,5.70,1,1,1,0.00,25.00,0.00,100.00,3.80,7.60,3.80,7125.00,TARP,TARP,1875.00,380.00,285.00,95.00,6,1,0,Yes
 Zone Information, HOSPITAL - PHYSICAL THERAPY-SPACE FUNCTION ZN,0.0,25.00,25.00,7.60,50.00,50.00,9.50,1,1,1,25.00,75.00,25.00,75.00,7.60,11.40,3.80,9500.00,TARP,TARP,2500.00,0.00,0.00,0.00,6,0,0,Yes
 Zone Information, HOSPITAL - RADIOLOGY/IMAGING-SPACE FUNCTION ZN,0.0,25.00,25.00,41.80,50.00,50.00,43.70,1,1,1,25.00,75.00,25.00,75.00,41.80,45.60,3.80,9500.00,TARP,TARP,2500.00,0.00,0.00,0.00,6,0,0,Yes
 Zone Information, HOSPITAL - RECOVERY-SPACE FUNCTION ZN,0.0,25.00,75.00,45.60,50.00,89.15,47.50,1,1,1,0.00,100.00,75.00,100.00,45.60,49.40,3.80,7125.00,TARP,TARP,1875.00,380.00,285.00,95.00,6,1,0,Yes
 Zone Information, HOTEL/MOTEL - DINING-SPACE FUNCTION ZN,0.0,75.00,25.00,41.80,89.15,50.00,43.70,1,1,1,75.00,100.00,0.00,100.00,41.80,45.60,3.80,7125.00,TARP,TARP,1875.00,380.00,285.00,95.00,6,1,0,Yes
 Zone Information, HOTEL/MOTEL - LOBBY-SPACE FUNCTION ZN,0.0,25.00,25.00,64.60,50.00,50.00,66.50,1,1,1,25.00,75.00,25.00,75.00,64.60,68.40,3.80,9500.00,TARP,TARP,2500.00,0.00,0.00,0.00,6,0,0,Yes
 Zone Information, HOTEL/MOTEL - ROOMS-SPACE FUNCTION ZN,0.0,0.00,0.00,98.80,50.00,10.85,100.70,1,1,1,0.00,100.00,0.00,25.00,98.80,102.60,3.80,7125.00,TARP,TARP,1875.00,380.00,285.00,95.00,6,1,0,Yes
 Zone Information, HWAY LODGING - DINING-SPACE FUNCTION ZN,0.0,0.00,0.00,19.00,10.85,50.00,20.90,1,1,1,0.00,25.00,0.00,100.00,19.00,22.80,3.80,7125.00,TARP,TARP,1875.00,380.00,285.00,95.00,6,1,0,Yes
 Zone Information, HWAY LODGING - ROOMS-SPACE FUNCTION ZN,0.0,25.00,75.00,0.00,50.00,89.15,1.90,1,1,1,0.00,100.00,75.00,100.00,0.00,3.80,3.80,7125.00,TARP,TARP,1875.00,0.00,0.00,0.00,6,0,0,Yes
 Zone Information, LAB - CLASSROOMS-SPACE FUNCTION ZN,0.0,0.00,0.00,26.60,10.85,50.00,28.50,1,1,1,0.00,25.00,0.00,100.00,26.60,30.40,3.80,7125.00,TARP,TARP,1875.00,380.00,285.00,95.00,6,1,0,Yes
 Zone Information, LAB - RESEARCH-SPACE FUNCTION ZN,0.0,25.00,75.00,72.20,50.00,89.15,74.10,1,1,1,0.00,100.00,75.00,100.00,72.20,76.00,3.80,7125.00,TARP,TARP,1875.00,380.00,285.00,95.00,6,1,0,Yes
 Zone Information, LIBRARY - CATALOGING-SPACE FUNCTION ZN,0.0,0.00,0.00,7.60,50.00,10.85,9.50,1,1,1,0.00,100.00,0.00,25.00,7.60,11.40,3.80,7125.00,TARP,TARP,1875.00,380.00,285.00,95.00,6,1,0,Yes
 Zone Information, LIBRARY - READING-SPACE FUNCTION ZN,0.0,25.00,25.00,15.20,50.00,50.00,17.10,1,1,1,25.00,75.00,25.00,75.00,15.20,19.00,3.80,9500.00,TARP,TARP,2500.00,0.00,0.00,0.00,6,0,0,Yes
 Zone Information, LIBRARY - STACKS-SPACE FUNCTION ZN,0.0,25.00,75.00,34.20,50.00,89.15,36.10,1,1,1,0.00,100.00,75.00,100.00,34.20,38.00,3.80,7125.00,TARP,TARP,1875.00,380.00,285.00,95.00,6,1,0,Yes
 Zone Information, LOBBY - ELEVATOR-SPACE FUNCTION ZN,0.0,75.00,25.00,91.20,89.15,50.00,93.10,1,1,1,75.00,100.00,0.00,100.00,91.20,95.00,3.80,7125.00,TARP,TARP,1875.00,380.00,285.00,95.00,6,1,0,Yes
 Zone Information, LOBBY - MOTION PICTURE-SPACE FUNCTION ZN,0.0,0.00,0.00,11.40,10.85,50.00,13.30,1,1,1,0.00,25.00,0.00,100.00,11.40,15.20,3.80,7125.00,TARP,TARP,1875.00,380.00,285.00,95.00,6,1,0,Yes
 Zone Information, LOBBY - OTHER-SPACE FUNCTION ZN,0.0,25.00,25.00,0.00,50.00,50.00,1.90,1,1,1,25.00,75.00,25.00,75.00,0.00,3.80,3.80,9500.00,TARP,TARP,2500.00,0.00,0.00,0.00,6,0,0,Yes
 Zone Information, LOBBY - PERFORMANCE ARTS-SPACE FUNCTION ZN,0.0,0.00,0.00,57.00,50.00,10.85,58.90,1,1,1,0.00,100.00,0.00,25.00,57.00,60.80,3.80,7125.00,TARP,TARP,1875.00,380.00,285.00,95.00,6,1,0,Yes
 Zone Information, LOCKER ROOM-SCH-A-SPACE FUNCTION ZN,0.0,75.00,25.00,83.60,89.15,50.00,85.50,1,1,1,75.00,100.00,0.00,100.00,83.60,87.40,3.80,7125.00,TARP,TARP,1875.00,380.00,285.00,95.00,6,1,0,Yes
 Zone Information, LOCKER ROOM-SCH-B-SPACE FUNCTION ZN,0.0,25.00,25.00,57.00,50.00,50.00,58.90,1,1,1,25.00,75.00,25.00,75.00,57.00,60.80,3.80,9500.00,TARP,TARP,2500.00,0.00,0.00,0.00,6,0,0,Yes
 Zone Information, LOCKER ROOM-SCH-C-SPACE FUNCTION ZN,0.0,0.00,0.00,60.80,10.85,50.00,62.70,1,1,1,0.00,25.00,0.00,100.00,60.80,64.60,3.80,7125.00,TARP,TARP,1875.00,380.00,285.00,95.00,6,1,0,Yes
 Zone Information, LOCKER ROOM-SCH-D-SPACE FUNCTION ZN,0.0,0.00,0.00,91.20,50.00,10.85,93.10,1,1,1,0.00,100.00,0.00,25.00,91.20,95.00,3.80,7125.00,TARP,TARP,1875.00,380.00,285.00,95.00,6,1,0,Yes
 Zone Information, LOCKER ROOM-SCH-E-SPACE FUNCTION ZN,0.0,0.00,0.00,30.40,50.00,10.85,32.30,1,1,1,0.00,100.00,0.00,25.00,30.40,34.20,3.80,7125.00,TARP,TARP,1875.00,380.00,285.00,95.00,6,1,0,Yes
 Zone Information, LOCKER ROOM-SCH-F-SPACE FUNCTION ZN,0.0,75.00,25.00,60.80,89.15,50.00,62.70,1,1,1,75.00,100.00,0.00,100.00,60.80,64.60,3.80,7125.00,TARP,TARP,1875.00,380.00,285.00,95.00,6,1,0,Yes
 Zone Information, LOCKER ROOM-SCH-G-SPACE FUNCTION ZN,0.0,75.00,25.00,7.60,89.15,50.00,9.50,1,1,1,75.00,100.00,0.00,100.00,7.60,11.40,3.80,7125.00,TARP,TARP,1875.00,380.00,285.00,95.00,6,1,0,Yes
 Zone Information, LOCKER ROOM-SCH-H-SPACE FUNCTION ZN,0.0,0.00,0.00,22.80,50.00,10.85,24.70,1,1,1,0.00,100.00,0.00,25.00,22.80,26.60,3.80,7125.00,TARP,TARP,1875.00,380.00,285.00,95.00,6,1,0,Yes
 Zone Information, LOCKER ROOM-SCH-I-SPACE FUNCTION ZN,0.0,75.00,25.00,68.40,89.15,50.00,70.30,1,1,1,75.00,100.00,0.00,100.00,68.40,72.20,3.80,7125.00,TARP,TARP,1875.00,380.00,285.00,95.00,6,1,0,Yes
 Zone Information, LOUNGE/RECREATION-SPACE FUNCTION ZN,0.0,25.00,75.00,11.40,50.00,89.15,13.30,1,1,1,0.00,100.00,75.00,100.00,11.40,15.20,3.80,7125.00,TARP,TARP,1875.00,380.00,285.00,95.00,6,1,0,Yes
 Zone Information, MFG - 7.5 <= BAY H <= 15M-SPACE FUNCTION ZN,0.0,25.00,25.00,11.40,50.00,50.00,13.30,1,1,1,25.00,75.00,25.00,75.00,11.40,15.20,3.80,9500.00,TARP,TARP,2500.00,0.00,0.00,0.00,6,0,0,Yes
 Zone Information, MFG - BAY H < 7.5M-SPACE FUNCTION ZN,0.0,25.00,25.00,98.80,50.00,50.00,100.70,1,1,1,25.00,75.00,25.00,75.00,98.80,102.60,3.80,9500.00,TARP,TARP,2500.00,0.00,0.00,0.00,6,0,0,Yes
 Zone Information, MFG - BAY H > 15M-SPACE FUNCTION ZN,0.0,0.00,0.00,11.40,50.00,10.85,13.30,1,1,1,0.00,100.00,0.00,25.00,11.40,15.20,3.80,7125.00,TARP,TARP,1875.00,380.00,285.00,95.00,6,1,0,Yes
 Zone Information, MFG - DETAILED-SPACE FUNCTION ZN,0.0,0.00,0.00,53.20,50.00,10.85,55.10,1,1,1,0.00,100.00,0.00,25.00,53.20,57.00,3.80,7125.00,TARP,TARP,1875.00,380.00,285.00,95.00,6,1,0,Yes
 Zone Information, MFG - EQUIPMENT-SPACE FUNCTION ZN,0.0,75.00,25.00,95.00,89.15,50.00,96.90,1,1,1,75.00,100.00,0.00,100.00,95.00,98.80,3.80,7125.00,TARP,TARP,1875.00,380.00,285.00,95.00,6,1,0,Yes
 Zone Information, MUSEUM - EXHIBITION-SPACE FUNCTION ZN,0.0,75.00,25.00,15.20,89.15,50.00,17.10,1,1,1,75.00,100.00,0.00,100.00,15.20,19.00,3.80,7125.00,TARP,TARP,1875.00,380.00,285.00,95.00,6,1,0,Yes
 Zone Information, MUSEUM - RESTORATION-SPACE FUNCTION ZN,0.0,0.00,0.00,0.00,10.85,50.00,1.90,1,1,1,0.00,25.00,0.00,100.00,0.00,3.80,3.80,7125.00,TARP,TARP,1875.00,0.00,0.00,0.00,6,0,0,Yes
 Zone Information, OFFICE - ENCLOSED - OCCSENS-SPACE FUNCTION ZN,0.0,75.00,25.00,53.20,89.15,50.00,55.10,1,1,1,75.00,100.00,0.00,100.00,53.20,57.00,3.80,7125.00,TARP,TARP,1875.00,380.00,285.00,95.00,6,1,0,Yes
 Zone Information, OFFICE - ENCLOSED-SPACE FUNCTION ZN,0.0,25.00,75.00,15.20,50.00,89.15,17.10,1,1,1,0.00,100.00,75.00,100.00,15.20,19.00,3.80,7125.00,TARP,TARP,1875.00,380.00,285.00,95.00,6,1,0,Yes
 Zone Information, OFFICE - OPEN PLAN-SPACE FUNCTION ZN,0.0,75.00,25.00,34.20,89.15,50.00,36.10,1,1,1,75.00,100.00,0.00,100.00,34.20,38.00,3.80,7125.00,TARP,TARP,1875.00,380.00,285.00,95.00,6,1,0,Yes
 Zone Information, PARKING GARAGE SPACE-SPACE FUNCTION ZN,0.0,0.00,0.00,49.40,10.85,50.00,51.30,1,1,1,0.00,25.00,0.00,100.00,49.40,53.20,3.80,7125.00,TARP,TARP,1875.00,380.00,285.00,95.00,6,1,0,Yes
 Zone Information, PENITENTIARY - AUDIENCE-SPACE FUNCTION ZN,0.0,0.00,0.00,34.20,50.00,10.85,36.10,1,1,1,0.00,100.00,0.00,25.00,34.20,38.00,3.80,7125.00,TARP,TARP,1875.00,380.00,285.00,95.00,6,1,0,Yes
 Zone Information, PENITENTIARY - CLASSROOM-SPACE FUNCTION ZN,0.0,25.00,25.00,34.20,50.00,50.00,36.10,1,1,1,25.00,75.00,25.00,75.00,34.20,38.00,3.80,9500.00,TARP,TARP,2500.00,0.00,0.00,0.00,6,0,0,Yes
 Zone Information, PENITENTIARY - DINING-SPACE FUNCTION ZN,0.0,25.00,25.00,38.00,50.00,50.00,39.90,1,1,1,25.00,75.00,25.00,75.00,38.00,41.80,3.80,9500.00,TARP,TARP,2500.00,0.00,0.00,0.00,6,0,0,Yes
 Zone Information, POST OFFICE SORTING-SPACE FUNCTION ZN,0.0,0.00,0.00,38.00,10.85,50.00,39.90,1,1,1,0.00,25.00,0.00,100.00,38.00,41.80,3.80,7125.00,TARP,TARP,1875.00,380.00,285.00,95.00,6,1,0,Yes
 Zone Information, RELIGIOUS - AUDIENCE-SPACE FUNCTION ZN,0.0,25.00,75.00,38.00,50.00,89.15,39.90,1,1,1,0.00,100.00,75.00,100.00,38.00,41.80,3.80,7125.00,TARP,TARP,1875.00,380.00,285.00,95.00,6,1,0,Yes
 Zone Information, RELIGIOUS - FELLOWSHIP HALL-SPACE FUNCTION ZN,0.0,0.00,0.00,38.00,50.00,10.85,39.90,1,1,1,0.00,100.00,0.00,25.00,38.00,41.80,3.80,7125.00,TARP,TARP,1875.00,380.00,285.00,95.00,6,1,0,Yes
 Zone Information, RELIGIOUS - PULPIT/CHOIR-SPACE FUNCTION ZN,0.0,75.00,25.00,87.40,89.15,50.00,89.30,1,1,1,75.00,100.00,0.00,100.00,87.40,91.20,3.80,7125.00,TARP,TARP,1875.00,380.00,285.00,95.00,6,1,0,Yes
 Zone Information, RETAIL - DRESSING/FITTING-SPACE FUNCTION ZN,0.0,75.00,25.00,45.60,89.15,50.00,47.50,1,1,1,75.00,100.00,0.00,100.00,45.60,49.40,3.80,7125.00,TARP,TARP,1875.00,380.00,285.00,95.00,6,1,0,Yes
 Zone Information, RETAIL - MALL CONCOURSE-SPACE FUNCTION ZN,0.0,25.00,25.00,45.60,50.00,50.00,47.50,1,1,1,25.00,75.00,25.00,75.00,45.60,49.40,3.80,9500.00,TARP,TARP,2500.00,0.00,0.00,0.00,6,0,0,Yes
 Zone Information, RETAIL - SALES-SPACE FUNCTION ZN,0.0,25.00,75.00,49.40,50.00,89.15,51.30,1,1,1,0.00,100.00,75.00,100.00,49.40,53.20,3.80,7125.00,TARP,TARP,1875.00,380.00,285.00,95.00,6,1,0,Yes
 Zone Information, SALES AREA-SPACE FUNCTION ZN,0.0,0.00,0.00,49.40,50.00,10.85,51.30,1,1,1,0.00,100.00,0.00,25.00,49.40,53.20,3.80,7125.00,TARP,TARP,1875.00,380.00,285.00,95.00,6,1,0,Yes
 Zone Information, SPORTS ARENA - AUDIENCE-SPACE FUNCTION ZN,0.0,0.00,0.00,19.00,50.00,10.85,20.90,1,1,1,0.00,100.00,0.00,25.00,19.00,22.80,3.80,7125.00,TARP,TARP,1875.00,380.00,285.00,95.00,6,1,0,Yes
 Zone Information, SPORTS ARENA - COURT C1-SPACE FUNCTION ZN,0.0,25.00,25.00,49.40,50.00,50.00,51.30,1,1,1,25.00,75.00,25.00,75.00,49.40,53.20,3.80,9500.00,TARP,TARP,2500.00,0.00,0.00,0.00,6,0,0,Yes
 Zone Information, SPORTS ARENA - COURT C2-SPACE FUNCTION ZN,0.0,0.00,0.00,53.20,10.85,50.00,55.10,1,1,1,0.00,25.00,0.00,100.00,53.20,57.00,3.80,7125.00,TARP,TARP,1875.00,380.00,285.00,95.00,6,1,0,Yes
 Zone Information, SPORTS ARENA - COURT C3-SPACE FUNCTION ZN,0.0,0.00,0.00,60.80,50.00,10.85,62.70,1,1,1,0.00,100.00,0.00,25.00,60.80,64.60,3.80,7125.00,TARP,TARP,1875.00,380.00,285.00,95.00,6,1,0,Yes
 Zone Information, SPORTS ARENA - COURT C4-SPACE FUNCTION ZN,0.0,0.00,0.00,45.60,10.85,50.00,47.50,1,1,1,0.00,25.00,0.00,100.00,45.60,49.40,3.80,7125.00,TARP,TARP,1875.00,380.00,285.00,95.00,6,1,0,Yes
 Zone Information, SPORTS ARENA - RING-SPACE FUNCTION ZN,0.0,25.00,25.00,53.20,50.00,50.00,55.10,1,1,1,25.00,75.00,25.00,75.00,53.20,57.00,3.80,9500.00,TARP,TARP,2500.00,0.00,0.00,0.00,6,0,0,Yes
 Zone Information, STORAGE AREA - OCCSENS-SPACE FUNCTION ZN,0.0,25.00,75.00,53.20,50.00,89.15,55.10,1,1,1,0.00,100.00,75.00,100.00,53.20,57.00,3.80,7125.00,TARP,TARP,1875.00,380.00,285.00,95.00,6,1,0,Yes
 Zone Information, STORAGE AREA - REFRIGERATED - OCCSENS-SPACE FUNCTION ZN,0.0,0.00,0.00,57.00,10.85,50.00,58.90,1,1,1,0.00,25.00,0.00,100.00,57.00,60.80,3.80,7125.00,TARP,TARP,1875.00,380.00,285.00,95.00,6,1,0,Yes
 Zone Information, STORAGE AREA - REFRIGERATED-SPACE FUNCTION ZN,0.0,0.00,0.00,64.60,10.85,50.00,66.50,1,1,1,0.00,25.00,0.00,100.00,64.60,68.40,3.80,7125.00,TARP,TARP,1875.00,380.00,285.00,95.00,6,1,0,Yes
 Zone Information, STORAGE AREA-SPACE FUNCTION ZN,0.0,0.00,0.00,83.60,50.00,10.85,85.50,1,1,1,0.00,100.00,0.00,25.00,83.60,87.40,3.80,7125.00,TARP,TARP,1875.00,380.00,285.00,95.00,6,1,0,Yes
 Zone Information, TRANSP. BAGGAGE-SPACE FUNCTION ZN,0.0,25.00,25.00,83.60,50.00,50.00,85.50,1,1,1,25.00,75.00,25.00,75.00,83.60,87.40,3.80,9500.00,TARP,TARP,2500.00,0.00,0.00,0.00,6,0,0,Yes
 Zone Information, TRANSP. CONCOURSE-SPACE FUNCTION ZN,0.0,0.00,0.00,68.40,10.85,50.00,70.30,1,1,1,0.00,25.00,0.00,100.00,68.40,72.20,3.80,7125.00,TARP,TARP,1875.00,380.00,285.00,95.00,6,1,0,Yes
 Zone Information, TRANSP. COUNTER-SPACE FUNCTION ZN,0.0,25.00,75.00,41.80,50.00,89.15,43.70,1,1,1,0.00,100.00,75.00,100.00,41.80,45.60,3.80,7125.00,TARP,TARP,1875.00,380.00,285.00,95.00,6,1,0,Yes
 Zone Information, TRANSP. SEATING-SPACE FUNCTION ZN,0.0,25.00,75.00,57.00,50.00,89.15,58.90,1,1,1,0.00,100.00,75.00,100.00,57.00,60.80,3.80,7125.00,TARP,TARP,1875.00,380.00,285.00,95.00,6,1,0,Yes
 Zone Information, WAREHOUSE - FINE - REFRIGERATED-SPACE FUNCTION ZN,0.0,75.00,25.00,57.00,89.15,50.00,58.90,1,1,1,75.00,100.00,0.00,100.00,57.00,60.80,3.80,7125.00,TARP,TARP,1875.00,380.00,285.00,95.00,6,1,0,Yes
 Zone Information, WAREHOUSE - FINE-SPACE FUNCTION ZN,0.0,0.00,0.00,79.80,50.00,10.85,81.70,1,1,1,0.00,100.00,0.00,25.00,79.80,83.60,3.80,7125.00,TARP,TARP,1875.00,380.00,285.00,95.00,6,1,0,Yes
 Zone Information, WAREHOUSE - MED/BLK - REFRIGERATED-SPACE FUNCTION ZN,0.0,75.00,25.00,102.60,89.15,50.00,104.50,1,1,1,75.00,100.00,0.00,100.00,102.60,106.40,3.80,7125.00,TARP,TARP,1875.00,380.00,285.00,188.75,6,2,0,Yes
 Zone Information, WAREHOUSE - MED/BLK-SPACE FUNCTION ZN,0.0,25.00,75.00,60.80,50.00,89.15,62.70,1,1,1,0.00,100.00,75.00,100.00,60.80,64.60,3.80,7125.00,TARP,TARP,1875.00,380.00,285.00,95.00,6,1,0,Yes
 Zone Information, WAREHOUSE - MED/BLK2 - REFRIGERATED-SPACE FUNCTION ZN,0.0,25.00,25.00,60.80,50.00,50.00,62.70,1,1,1,25.00,75.00,25.00,75.00,60.80,64.60,3.80,9500.00,TARP,TARP,2500.00,0.00,0.00,0.00,6,0,0,Yes
 Zone Information, WAREHOUSE - MED/BLK2-SPACE FUNCTION ZN,0.0,0.00,0.00,3.80,50.00,10.85,5.70,1,1,1,0.00,100.00,0.00,25.00,3.80,7.60,3.80,7125.00,TARP,TARP,1875.00,380.00,285.00,95.00,6,1,0,Yes
 Zone Information, WHOLEBUILDING-AUTOMOTIVE FACILITY ZN,0.0,0.00,0.00,102.60,50.00,10.85,104.50,1,1,1,0.00,100.00,0.00,25.00,102.60,106.40,3.80,7125.00,TARP,TARP,1875.00,380.00,285.00,188.75,6,2,0,Yes
 Zone Information, WHOLEBUILDING-CONVENTION CENTRE ZN,0.0,25.00,75.00,102.60,50.00,89.15,104.50,1,1,1,0.00,100.00,75.00,100.00,102.60,106.40,3.80,7125.00,TARP,TARP,1875.00,380.00,285.00,188.75,6,2,0,Yes
 Zone Information, WHOLEBUILDING-COURTHOUSE ZN,0.0,0.00,0.00,102.60,10.85,50.00,104.50,1,1,1,0.00,25.00,0.00,100.00,102.60,106.40,3.80,7125.00,TARP,TARP,1875.00,380.00,285.00,188.75,6,2,0,Yes
 Zone Information, WHOLEBUILDING-DINING - BAR/LOUNGE ZN,0.0,0.00,0.00,98.80,10.85,50.00,100.70,1,1,1,0.00,25.00,0.00,100.00,98.80,102.60,3.80,7125.00,TARP,TARP,1875.00,380.00,285.00,95.00,6,1,0,Yes
 Zone Information, WHOLEBUILDING-DINING - CAFETERIA ZN,0.0,25.00,75.00,95.00,50.00,89.15,96.90,1,1,1,0.00,100.00,75.00,100.00,95.00,98.80,3.80,7125.00,TARP,TARP,1875.00,380.00,285.00,95.00,6,1,0,Yes
 Zone Information, WHOLEBUILDING-DINING - FAMILY ZN,0.0,0.00,0.00,95.00,10.85,50.00,96.90,1,1,1,0.00,25.00,0.00,100.00,95.00,98.80,3.80,7125.00,TARP,TARP,1875.00,380.00,285.00,95.00,6,1,0,Yes
 Zone Information, WHOLEBUILDING-DORMITORY ZN,0.0,25.00,25.00,91.20,50.00,50.00,93.10,1,1,1,25.00,75.00,25.00,75.00,91.20,95.00,3.80,9500.00,TARP,TARP,2500.00,0.00,0.00,0.00,6,0,0,Yes
 Zone Information, WHOLEBUILDING-EXERCISE CENTRE ZN,0.0,0.00,0.00,91.20,10.85,50.00,93.10,1,1,1,0.00,25.00,0.00,100.00,91.20,95.00,3.80,7125.00,TARP,TARP,1875.00,380.00,285.00,95.00,6,1,0,Yes
 Zone Information, WHOLEBUILDING-FIRE STATION ZN,0.0,25.00,25.00,87.40,50.00,50.00,89.30,1,1,1,25.00,75.00,25.00,75.00,87.40,91.20,3.80,9500.00,TARP,TARP,2500.00,0.00,0.00,0.00,6,0,0,Yes
 Zone Information, WHOLEBUILDING-GYMNASIUM ZN,0.0,0.00,0.00,87.40,50.00,10.85,89.30,1,1,1,0.00,100.00,0.00,25.00,87.40,91.20,3.80,7125.00,TARP,TARP,1875.00,380.00,285.00,95.00,6,1,0,Yes
 Zone Information, WHOLEBUILDING-HEALTH-CARE CLINIC ZN,0.0,25.00,75.00,87.40,50.00,89.15,89.30,1,1,1,0.00,100.00,75.00,100.00,87.40,91.20,3.80,7125.00,TARP,TARP,1875.00,380.00,285.00,95.00,6,1,0,Yes
 Zone Information, WHOLEBUILDING-HOSPITAL ZN,0.0,0.00,0.00,87.40,10.85,50.00,89.30,1,1,1,0.00,25.00,0.00,100.00,87.40,91.20,3.80,7125.00,TARP,TARP,1875.00,380.00,285.00,95.00,6,1,0,Yes
 Zone Information, WHOLEBUILDING-HOTEL ZN,0.0,25.00,75.00,83.60,50.00,89.15,85.50,1,1,1,0.00,100.00,75.00,100.00,83.60,87.40,3.80,7125.00,TARP,TARP,1875.00,380.00,285.00,95.00,6,1,0,Yes
 Zone Information, WHOLEBUILDING-LIBRARY ZN,0.0,25.00,25.00,79.80,50.00,50.00,81.70,1,1,1,25.00,75.00,25.00,75.00,79.80,83.60,3.80,9500.00,TARP,TARP,2500.00,0.00,0.00,0.00,6,0,0,Yes
 Zone Information, WHOLEBUILDING-MANUFACTURING FACILITY ZN,0.0,75.00,25.00,79.80,89.15,50.00,81.70,1,1,1,75.00,100.00,0.00,100.00,79.80,83.60,3.80,7125.00,TARP,TARP,1875.00,380.00,285.00,95.00,6,1,0,Yes
 Zone Information, WHOLEBUILDING-MOTEL ZN,0.0,25.00,75.00,79.80,50.00,89.15,81.70,1,1,1,0.00,100.00,75.00,100.00,79.80,83.60,3.80,7125.00,TARP,TARP,1875.00,380.00,285.00,95.00,6,1,0,Yes
 Zone Information, WHOLEBUILDING-MOTION PICTURE THEATRE ZN,0.0,25.00,25.00,76.00,50.00,50.00,77.90,1,1,1,25.00,75.00,25.00,75.00,76.00,79.80,3.80,9500.00,TARP,TARP,2500.00,0.00,0.00,0.00,6,0,0,Yes
 Zone Information, WHOLEBUILDING-MULTI-UNIT RESIDENTIAL ZN,0.0,0.00,0.00,76.00,50.00,10.85,77.90,1,1,1,0.00,100.00,0.00,25.00,76.00,79.80,3.80,7125.00,TARP,TARP,1875.00,380.00,285.00,95.00,6,1,0,Yes
 Zone Information, WHOLEBUILDING-MUSEUM ZN,0.0,75.00,25.00,76.00,89.15,50.00,77.90,1,1,1,75.00,100.00,0.00,100.00,76.00,79.80,3.80,7125.00,TARP,TARP,1875.00,380.00,285.00,95.00,6,1,0,Yes
 Zone Information, WHOLEBUILDING-OFFICE ZN,0.0,25.00,75.00,76.00,50.00,89.15,77.90,1,1,1,0.00,100.00,75.00,100.00,76.00,79.80,3.80,7125.00,TARP,TARP,1875.00,380.00,285.00,95.00,6,1,0,Yes
 Zone Information, WHOLEBUILDING-PARKING GARAGE ZN,0.0,0.00,0.00,76.00,10.85,50.00,77.90,1,1,1,0.00,25.00,0.00,100.00,76.00,79.80,3.80,7125.00,TARP,TARP,1875.00,380.00,285.00,95.00,6,1,0,Yes
 Zone Information, WHOLEBUILDING-PENITENTIARY ZN,0.0,25.00,25.00,72.20,50.00,50.00,74.10,1,1,1,25.00,75.00,25.00,75.00,72.20,76.00,3.80,9500.00,TARP,TARP,2500.00,0.00,0.00,0.00,6,0,0,Yes
 Zone Information, WHOLEBUILDING-PERFORMING ARTS THEATRE ZN,0.0,0.00,0.00,72.20,50.00,10.85,74.10,1,1,1,0.00,100.00,0.00,25.00,72.20,76.00,3.80,7125.00,TARP,TARP,1875.00,380.00,285.00,95.00,6,1,0,Yes
 Zone Information, WHOLEBUILDING-POLICE STATION ZN,0.0,75.00,25.00,72.20,89.15,50.00,74.10,1,1,1,75.00,100.00,0.00,100.00,72.20,76.00,3.80,7125.00,TARP,TARP,1875.00,380.00,285.00,95.00,6,1,0,Yes
 Zone Information, WHOLEBUILDING-POST OFFICE ZN,0.0,0.00,0.00,79.80,10.85,50.00,81.70,1,1,1,0.00,25.00,0.00,100.00,79.80,83.60,3.80,7125.00,TARP,TARP,1875.00,380.00,285.00,95.00,6,1,0,Yes
 Zone Information, WHOLEBUILDING-RELIGIOUS ZN,0.0,25.00,75.00,19.00,50.00,89.15,20.90,1,1,1,0.00,100.00,75.00,100.00,19.00,22.80,3.80,7125.00,TARP,TARP,1875.00,380.00,285.00,95.00,6,1,0,Yes
 Zone Information, WHOLEBUILDING-RETAIL ZN,0.0,25.00,25.00,30.40,50.00,50.00,32.30,1,1,1,25.00,75.00,25.00,75.00,30.40,34.20,3.80,9500.00,TARP,TARP,2500.00,0.00,0.00,0.00,6,0,0,Yes
 Zone Information, WHOLEBUILDING-SCHOOL/UNIVERSITY ZN,0.0,25.00,75.00,3.80,50.00,89.15,5.70,1,1,1,0.00,100.00,75.00,100.00,3.80,7.60,3.80,7125.00,TARP,TARP,1875.00,380.00,285.00,95.00,6,1,0,Yes
 Zone Information, WHOLEBUILDING-SPORTS ARENA ZN,0.0,25.00,75.00,68.40,50.00,89.15,70.30,1,1,1,0.00,100.00,75.00,100.00,68.40,72.20,3.80,7125.00,TARP,TARP,1875.00,380.00,285.00,95.00,6,1,0,Yes
 Zone Information, WHOLEBUILDING-TOWN HALL ZN,0.0,0.00,0.00,68.40,50.00,10.85,70.30,1,1,1,0.00,100.00,0.00,25.00,68.40,72.20,3.80,7125.00,TARP,TARP,1875.00,380.00,285.00,95.00,6,1,0,Yes
 Zone Information, WHOLEBUILDING-TRANSPORTATION ZN,0.0,0.00,0.00,72.20,10.85,50.00,74.10,1,1,1,0.00,25.00,0.00,100.00,72.20,76.00,3.80,7125.00,TARP,TARP,1875.00,380.00,285.00,95.00,6,1,0,Yes
 Zone Information, WORKSHOP SPACE-SPACE FUNCTION ZN,0.0,0.00,0.00,64.60,50.00,10.85,66.50,1,1,1,0.00,100.00,0.00,25.00,64.60,68.40,3.80,7125.00,TARP,TARP,1875.00,380.00,285.00,95.00,6,1,0,Yes
! <Zone Internal Gains Nominal>,Zone Name, Floor Area {m2},# Occupants,Area per Occupant {m2/person},Occupant per Area {person/m2},Interior Lighting {W/m2},Electric Load {W/m2},Gas Load {W/m2},Other Load {W/m2},Hot Water Eq {W/m2},Steam Equipment {W/m2},Sum Loads per Area {W/m2},Outdoor Controlled Baseboard Heat
 Zone Internal Gains Nominal, - UNDEFINED --SPACE FUNCTION ZN,1875.00,0.0,N/A,0.000,0.000,0.000,0.000,0.000,0.000,0.000,0.000,No
 Zone Internal Gains Nominal, ATRIUM - H < 13M-SPACE FUNCTION ZN,1875.00,187.5,10.000,10.000E-002,0.000,2.500,0.000,0.000,0.000,0.000,2.500,No
 Zone Internal Gains Nominal, ATRIUM - H > 13M-SPACE FUNCTION ZN,2500.00,250.0,10.000,10.000E-002,0.000,2.500,0.000,0.000,0.000,0.000,2.500,No
 Zone Internal Gains Nominal, AUDIENCE - AUDITORIUM-SPACE FUNCTION ZN,1875.00,375.0,5.000,0.200,8.500,2.500,0.000,0.000,0.000,0.000,11.000,No
 Zone Internal Gains Nominal, AUDIENCE - MOTION PICTURE-SPACE FUNCTION ZN,1875.00,375.0,5.000,0.200,12.300,2.500,0.000,0.000,0.000,0.000,14.800,No
 Zone Internal Gains Nominal, AUDIENCE - PERFORMANCE ARTS-SPACE FUNCTION ZN,1875.00,250.1,7.498,0.133,26.200,2.500,0.000,0.000,0.000,0.000,28.700,No
 Zone Internal Gains Nominal, AUTOMOTIVE - REPAIR-SPACE FUNCTION ZN,1875.00,93.8,19.979,5.005E-002,7.200,5.000,0.000,0.000,0.000,0.000,12.200,No
 Zone Internal Gains Nominal, BANK - BANKING AND OFFICES-SPACE FUNCTION ZN,1875.00,75.1,24.974,4.004E-002,14.900,5.000,0.000,0.000,0.000,0.000,19.900,No
 Zone Internal Gains Nominal, CLASSROOM/LECTURE/TRAINING-SPACE FUNCTION ZN,2500.00,333.4,7.498,0.133,11.970,5.000,0.000,0.000,0.000,0.000,16.970,No
 Zone Internal Gains Nominal, CONF./MEET./MULTI-PURPOSE-SPACE FUNCTION ZN,1875.00,375.0,5.000,0.200,11.880,1.000,0.000,0.000,0.000,0.000,12.880,No
 Zone Internal Gains Nominal, CONVENTION CENTRE - AUDIENCE-SPACE FUNCTION ZN,2500.00,500.0,5.000,0.200,8.800,2.500,0.000,0.000,0.000,0.000,11.300,No
 Zone Internal Gains Nominal, CONVENTION CENTRE - EXHIBIT-SPACE FUNCTION ZN,2500.00,500.0,5.000,0.200,15.600,2.500,0.000,0.000,0.000,0.000,18.100,No
 Zone Internal Gains Nominal, COURTHOUSE - CELL-SPACE FUNCTION ZN,1875.00,75.1,24.974,4.004E-002,14.700,2.500,0.000,0.000,0.000,0.000,17.200,No
 Zone Internal Gains Nominal, COURTHOUSE - CHAMBERS-SPACE FUNCTION ZN,1875.00,93.8,19.979,5.005E-002,12.600,7.500,0.000,0.000,0.000,0.000,20.100,No
 Zone Internal Gains Nominal, COURTHOUSE - COURTROOM-SPACE FUNCTION ZN,1875.00,375.0,5.000,0.200,18.500,2.500,0.000,0.000,0.000,0.000,21.000,No
 Zone Internal Gains Nominal, DINING - BAR LOUNGE/LEISURE-SPACE FUNCTION ZN,1875.00,187.5,10.000,10.000E-002,14.100,1.000,0.000,0.000,0.000,0.000,15.100,No
 Zone Internal Gains Nominal, DINING - FAMILY SPACE-SPACE FUNCTION ZN,1875.00,187.5,10.000,10.000E-002,9.600,1.000,0.000,0.000,0.000,0.000,10.600,No
 Zone Internal Gains Nominal, DINING - OTHER-SPACE FUNCTION ZN,2500.00,250.0,10.000,10.000E-002,7.000,1.000,0.000,0.000,0.000,0.000,8.000,No
 Zone Internal Gains Nominal, DORMITORY - LIVING QUARTERS-SPACE FUNCTION ZN,1875.00,75.1,24.974,4.004E-002,4.100,2.500,0.000,0.000,0.000,0.000,6.600,No
 Zone Internal Gains Nominal, DRESS./FITT. - PERFORMANCE ARTS-SPACE FUNCTION ZN,1875.00,62.6,29.969,3.337E-002,3.870,2.500,0.000,0.000,0.000,0.000,6.370,No
 Zone Internal Gains Nominal, DWELLING UNIT(S)-SPACE FUNCTION ZN,1875.00,31.3,59.937,1.668E-002,5.000,5.000,0.000,0.000,0.000,0.000,10.000,No
 Zone Internal Gains Nominal, FIRE STATION - ENGINE ROOM-SPACE FUNCTION ZN,1875.00,75.1,24.974,4.004E-002,6.000,2.500,0.000,0.000,0.000,0.000,8.500,No
 Zone Internal Gains Nominal, FIRE STATION - QUARTERS-SPACE FUNCTION ZN,1875.00,75.1,24.974,4.004E-002,3.400,2.500,0.000,0.000,0.000,0.000,5.900,No
 Zone Internal Gains Nominal, FOOD PREPARATION - VENTED-SPACE FUNCTION ZN,1875.00,93.8,19.979,5.005E-002,10.700,10.000,0.000,0.000,0.000,0.000,20.700,No
 Zone Internal Gains Nominal, FOOD PREPARATION-SPACE FUNCTION ZN,1875.00,93.8,19.979,5.005E-002,10.700,10.000,0.000,0.000,0.000,0.000,20.700,No
 Zone Internal Gains Nominal, GYM - AUDIENCE-SPACE FUNCTION ZN,1875.00,375.0,5.000,0.200,4.600,0.000,0.000,0.000,0.000,0.000,4.600,No
 Zone Internal Gains Nominal, GYM - FITNESS-SPACE FUNCTION ZN,1875.00,375.0,5.000,0.200,9.800,1.000,0.000,0.000,0.000,0.000,10.800,No
 Zone Internal Gains Nominal, GYM - PLAY-SPACE FUNCTION ZN,1875.00,375.0,5.000,0.200,12.900,1.500,0.000,0.000,0.000,0.000,14.400,No
 Zone Internal Gains Nominal, HOSPITAL - EMERGENCY-SPACE FUNCTION ZN,1875.00,93.8,19.979,5.005E-002,24.300,10.000,0.000,0.000,0.000,0.000,34.300,No
 Zone Internal Gains Nominal, HOSPITAL - EXAM-SPACE FUNCTION ZN,1875.00,93.8,19.979,5.005E-002,17.900,10.000,0.000,0.000,0.000,0.000,27.900,No
 Zone Internal Gains Nominal, HOSPITAL - LAUNDRY/WASHING-SPACE FUNCTION ZN,2500.00,125.1,19.979,5.005E-002,8.000,20.000,0.000,0.000,0.000,0.000,28.000,No
 Zone Internal Gains Nominal, HOSPITAL - LOUNGE/RECREATION-SPACE FUNCTION ZN,2500.00,250.0,10.000,10.000E-002,11.500,1.000,0.000,0.000,0.000,0.000,12.500,No
 Zone Internal Gains Nominal, HOSPITAL - MEDICAL SUPPLY - OCCSENS-SPACE FUNCTION ZN,1875.00,93.8,19.979,5.005E-002,12.330,1.000,0.000,0.000,0.000,0.000,13.330,No
 Zone Internal Gains Nominal, HOSPITAL - MEDICAL SUPPLY-SPACE FUNCTION ZN,1875.00,93.8,19.979,5.005E-002,13.700,1.000,0.000,0.000,0.000,0.000,14.700,No
 Zone Internal Gains Nominal, HOSPITAL - NURSERY-SPACE FUNCTION ZN,1875.00,93.8,19.979,5.005E-002,9.500,10.000,0.000,0.000,0.000,0.000,19.500,No
 Zone Internal Gains Nominal, HOSPITAL - NURSES' STATION-SPACE FUNCTION ZN,1875.00,93.8,19.979,5.005E-002,9.400,2.500,0.000,0.000,0.000,0.000,11.900,No
 Zone Internal Gains Nominal, HOSPITAL - OPERATING ROOM-SPACE FUNCTION ZN,1875.00,93.8,19.979,5.005E-002,20.300,10.000,0.000,0.000,0.000,0.000,30.300,No
 Zone Internal Gains Nominal, HOSPITAL - PATIENT ROOM-SPACE FUNCTION ZN,1875.00,93.8,19.979,5.005E-002,6.700,10.000,0.000,0.000,0.000,0.000,16.700,No
 Zone Internal Gains Nominal, HOSPITAL - PHARMACY-SPACE FUNCTION ZN,1875.00,93.8,19.979,5.005E-002,12.300,2.500,0.000,0.000,0.000,0.000,14.800,No
 Zone Internal Gains Nominal, HOSPITAL - PHYSICAL THERAPY-SPACE FUNCTION ZN,2500.00,125.1,19.979,5.005E-002,9.800,10.000,0.000,0.000,0.000,0.000,19.800,No
 Zone Internal Gains Nominal, HOSPITAL - RADIOLOGY/IMAGING-SPACE FUNCTION ZN,2500.00,125.1,19.979,5.005E-002,14.200,10.000,0.000,0.000,0.000,0.000,24.200,No
 Zone Internal Gains Nominal, HOSPITAL - RECOVERY-SPACE FUNCTION ZN,1875.00,93.8,19.979,5.005E-002,12.400,10.000,0.000,0.000,0.000,0.000,22.400,No
 Zone Internal Gains Nominal, HOTEL/MOTEL - DINING-SPACE FUNCTION ZN,1875.00,187.5,10.000,10.000E-002,8.800,1.000,0.000,0.000,0.000,0.000,9.800,No
 Zone Internal Gains Nominal, HOTEL/MOTEL - LOBBY-SPACE FUNCTION ZN,2500.00,250.0,10.000,10.000E-002,11.400,2.500,0.000,0.000,0.000,0.000,13.900,No
 Zone Internal Gains Nominal, HOTEL/MOTEL - ROOMS-SPACE FUNCTION ZN,1875.00,75.1,24.974,4.004E-002,11.900,2.500,0.000,0.000,0.000,0.000,14.400,No
 Zone Internal Gains Nominal, HWAY LODGING - DINING-SPACE FUNCTION ZN,1875.00,187.5,10.000,10.000E-002,9.500,1.000,0.000,0.000,0.000,0.000,10.500,No
 Zone Internal Gains Nominal, HWAY LODGING - ROOMS-SPACE FUNCTION ZN,1875.00,75.1,24.974,4.004E-002,8.100,2.500,0.000,0.000,0.000,0.000,10.600,No
 Zone Internal Gains Nominal, LAB - CLASSROOMS-SPACE FUNCTION ZN,1875.00,93.8,19.979,5.005E-002,17.200,10.000,0.000,0.000,0.000,0.000,27.200,No
 Zone Internal Gains Nominal, LAB - RESEARCH-SPACE FUNCTION ZN,1875.00,93.8,19.979,5.005E-002,23.600,10.000,0.000,0.000,0.000,0.000,33.600,No
 Zone Internal Gains Nominal, LIBRARY - CATALOGING-SPACE FUNCTION ZN,1875.00,93.8,19.979,5.005E-002,7.800,2.500,0.000,0.000,0.000,0.000,10.300,No
 Zone Internal Gains Nominal, LIBRARY - READING-SPACE FUNCTION ZN,2500.00,125.1,19.979,5.005E-002,10.000,1.000,0.000,0.000,0.000,0.000,11.000,No
 Zone Internal Gains Nominal, LIBRARY - STACKS-SPACE FUNCTION ZN,1875.00,93.8,19.979,5.005E-002,22.900,0.000,0.000,0.000,0.000,0.000,22.900,No
 Zone Internal Gains Nominal, LOBBY - ELEVATOR-SPACE FUNCTION ZN,1875.00,187.5,10.000,10.000E-002,6.900,1.000,0.000,0.000,0.000,0.000,7.900,No
 Zone Internal Gains Nominal, LOBBY - MOTION PICTURE-SPACE FUNCTION ZN,1875.00,187.5,10.000,10.000E-002,5.600,1.000,0.000,0.000,0.000,0.000,6.600,No
 Zone Internal Gains Nominal, LOBBY - OTHER-SPACE FUNCTION ZN,2500.00,250.0,10.000,10.000E-002,9.700,1.000,0.000,0.000,0.000,0.000,10.700,No
 Zone Internal Gains Nominal, LOBBY - PERFORMANCE ARTS-SPACE FUNCTION ZN,1875.00,187.5,10.000,10.000E-002,21.500,1.000,0.000,0.000,0.000,0.000,22.500,No
 Zone Internal Gains Nominal, LOCKER ROOM-SCH-A-SPACE FUNCTION ZN,1875.00,187.5,10.000,10.000E-002,8.820,2.500,0.000,0.000,0.000,0.000,11.320,No
 Zone Internal Gains Nominal, LOCKER ROOM-SCH-B-SPACE FUNCTION ZN,2500.00,250.0,10.000,10.000E-002,8.820,2.500,0.000,0.000,0.000,0.000,11.320,No
 Zone Internal Gains Nominal, LOCKER ROOM-SCH-C-SPACE FUNCTION ZN,1875.00,187.5,10.000,10.000E-002,8.820,2.500,0.000,0.000,0.000,0.000,11.320,No
 Zone Internal Gains Nominal, LOCKER ROOM-SCH-D-SPACE FUNCTION ZN,1875.00,187.5,10.000,10.000E-002,8.820,2.500,0.000,0.000,0.000,0.000,11.320,No
 Zone Internal Gains Nominal, LOCKER ROOM-SCH-E-SPACE FUNCTION ZN,1875.00,187.5,10.000,10.000E-002,8.820,2.500,0.000,0.000,0.000,0.000,11.320,No
 Zone Internal Gains Nominal, LOCKER ROOM-SCH-F-SPACE FUNCTION ZN,1875.00,187.5,10.000,10.000E-002,8.820,2.500,0.000,0.000,0.000,0.000,11.320,No
 Zone Internal Gains Nominal, LOCKER ROOM-SCH-G-SPACE FUNCTION ZN,1875.00,187.5,10.000,10.000E-002,8.820,2.500,0.000,0.000,0.000,0.000,11.320,No
 Zone Internal Gains Nominal, LOCKER ROOM-SCH-H-SPACE FUNCTION ZN,1875.00,187.5,10.000,10.000E-002,8.820,2.500,0.000,0.000,0.000,0.000,11.320,No
 Zone Internal Gains Nominal, LOCKER ROOM-SCH-I-SPACE FUNCTION ZN,1875.00,187.5,10.000,10.000E-002,8.820,2.500,0.000,0.000,0.000,0.000,11.320,No
 Zone Internal Gains Nominal, LOUNGE/RECREATION-SPACE FUNCTION ZN,1875.00,187.5,10.000,10.000E-002,8.460,1.000,0.000,0.000,0.000,0.000,9.460,No
 Zone Internal Gains Nominal, MFG - 7.5 <= BAY H <= 15M-SPACE FUNCTION ZN,2500.00,83.4,29.969,3.337E-002,13.200,10.000,0.000,0.000,0.000,0.000,23.200,No
 Zone Internal Gains Nominal, MFG - BAY H < 7.5M-SPACE FUNCTION ZN,2500.00,83.4,29.969,3.337E-002,12.800,10.000,0.000,0.000,0.000,0.000,22.800,No
 Zone Internal Gains Nominal, MFG - BAY H > 15M-SPACE FUNCTION ZN,1875.00,62.6,29.969,3.337E-002,11.300,10.000,0.000,0.000,0.000,0.000,21.300,No
 Zone Internal Gains Nominal, MFG - DETAILED-SPACE FUNCTION ZN,1875.00,62.6,29.969,3.337E-002,13.900,0.000,0.000,0.000,0.000,0.000,13.900,No
 Zone Internal Gains Nominal, MFG - EQUIPMENT-SPACE FUNCTION ZN,1875.00,62.6,29.969,3.337E-002,13.300,10.000,0.000,0.000,0.000,0.000,23.300,No
 Zone Internal Gains Nominal, MUSEUM - EXHIBITION-SPACE FUNCTION ZN,1875.00,375.0,5.000,0.200,11.300,2.500,0.000,0.000,0.000,0.000,13.800,No
 Zone Internal Gains Nominal, MUSEUM - RESTORATION-SPACE FUNCTION ZN,1875.00,93.8,19.979,5.005E-002,11.000,5.000,0.000,0.000,0.000,0.000,16.000,No
 Zone Internal Gains Nominal, OFFICE - ENCLOSED - OCCSENS-SPACE FUNCTION ZN,1875.00,93.8,19.979,5.005E-002,10.710,7.500,0.000,0.000,0.000,0.000,18.210,No
 Zone Internal Gains Nominal, OFFICE - ENCLOSED-SPACE FUNCTION ZN,1875.00,93.8,19.979,5.005E-002,11.900,7.500,0.000,0.000,0.000,0.000,19.400,No
 Zone Internal Gains Nominal, OFFICE - OPEN PLAN-SPACE FUNCTION ZN,1875.00,93.8,19.979,5.005E-002,11.000,7.500,0.000,0.000,0.000,0.000,18.500,No
 Zone Internal Gains Nominal, PARKING GARAGE SPACE-SPACE FUNCTION ZN,1875.00,1.8,1032.256,9.688E-004,2.000,0.000,0.000,0.000,0.000,0.000,2.000,No
 Zone Internal Gains Nominal, PENITENTIARY - AUDIENCE-SPACE FUNCTION ZN,1875.00,375.0,5.000,0.200,4.600,2.500,0.000,0.000,0.000,0.000,7.100,No
 Zone Internal Gains Nominal, PENITENTIARY - CLASSROOM-SPACE FUNCTION ZN,2500.00,333.4,7.498,0.133,14.400,5.000,0.000,0.000,0.000,0.000,19.400,No
 Zone Internal Gains Nominal, PENITENTIARY - DINING-SPACE FUNCTION ZN,2500.00,250.0,10.000,10.000E-002,11.500,1.000,0.000,0.000,0.000,0.000,12.500,No
 Zone Internal Gains Nominal, POST OFFICE SORTING-SPACE FUNCTION ZN,1875.00,93.8,19.979,5.005E-002,10.100,7.500,0.000,0.000,0.000,0.000,17.600,No
 Zone Internal Gains Nominal, RELIGIOUS - AUDIENCE-SPACE FUNCTION ZN,1875.00,375.0,5.000,0.200,18.200,1.000,0.000,0.000,0.000,0.000,19.200,No
 Zone Internal Gains Nominal, RELIGIOUS - FELLOWSHIP HALL-SPACE FUNCTION ZN,1875.00,375.0,5.000,0.200,6.900,1.000,0.000,0.000,0.000,0.000,7.900,No
 Zone Internal Gains Nominal, RELIGIOUS - PULPIT/CHOIR-SPACE FUNCTION ZN,1875.00,375.0,5.000,0.200,18.200,1.000,0.000,0.000,0.000,0.000,19.200,No
 Zone Internal Gains Nominal, RETAIL - DRESSING/FITTING-SPACE FUNCTION ZN,1875.00,62.6,29.969,3.337E-002,8.460,2.500,0.000,0.000,0.000,0.000,10.960,No
 Zone Internal Gains Nominal, RETAIL - MALL CONCOURSE-SPACE FUNCTION ZN,2500.00,125.1,19.979,5.005E-002,11.800,1.000,0.000,0.000,0.000,0.000,12.800,No
 Zone Internal Gains Nominal, RETAIL - SALES-SPACE FUNCTION ZN,1875.00,62.6,29.969,3.337E-002,18.100,2.500,0.000,0.000,0.000,0.000,20.600,No
 Zone Internal Gains Nominal, SALES AREA-SPACE FUNCTION ZN,1875.00,62.6,29.969,3.337E-002,18.100,2.500,0.000,0.000,0.000,0.000,20.600,No
 Zone Internal Gains Nominal, SPORTS ARENA - AUDIENCE-SPACE FUNCTION ZN,1875.00,375.0,5.000,0.200,4.600,0.000,0.000,0.000,0.000,0.000,4.600,No
 Zone Internal Gains Nominal, SPORTS ARENA - COURT C1-SPACE FUNCTION ZN,2500.00,500.0,5.000,0.200,32.400,1.500,0.000,0.000,0.000,0.000,33.900,No
 Zone Internal Gains Nominal, SPORTS ARENA - COURT C2-SPACE FUNCTION ZN,1875.00,375.0,5.000,0.200,20.700,1.500,0.000,0.000,0.000,0.000,22.200,No
 Zone Internal Gains Nominal, SPORTS ARENA - COURT C3-SPACE FUNCTION ZN,1875.00,375.0,5.000,0.200,12.900,1.500,0.000,0.000,0.000,0.000,14.400,No
 Zone Internal Gains Nominal, SPORTS ARENA - COURT C4-SPACE FUNCTION ZN,1875.00,375.0,5.000,0.200,7.800,1.500,0.000,0.000,0.000,0.000,9.300,No
 Zone Internal Gains Nominal, SPORTS ARENA - RING-SPACE FUNCTION ZN,2500.00,500.0,5.000,0.200,28.800,1.500,0.000,0.000,0.000,0.000,30.300,No
 Zone Internal Gains Nominal, STORAGE AREA - OCCSENS-SPACE FUNCTION ZN,1875.00,18.8,99.896,1.001E-002,6.120,1.000,0.000,0.000,0.000,0.000,7.120,No
 Zone Internal Gains Nominal, STORAGE AREA - REFRIGERATED - OCCSENS-SPACE FUNCTION ZN,1875.00,18.8,99.896,1.001E-002,6.120,1.000,0.000,0.000,0.000,0.000,7.120,No
 Zone Internal Gains Nominal, STORAGE AREA - REFRIGERATED-SPACE FUNCTION ZN,1875.00,18.8,99.896,1.001E-002,6.800,1.000,0.000,0.000,0.000,0.000,7.800,No
 Zone Internal Gains Nominal, STORAGE AREA-SPACE FUNCTION ZN,1875.00,18.8,99.896,1.001E-002,6.800,1.000,0.000,0.000,0.000,0.000,7.800,No
 Zone Internal Gains Nominal, TRANSP. BAGGAGE-SPACE FUNCTION ZN,2500.00,125.1,19.979,5.005E-002,8.200,2.500,0.000,0.000,0.000,0.000,10.700,No
 Zone Internal Gains Nominal, TRANSP. CONCOURSE-SPACE FUNCTION ZN,1875.00,93.8,19.979,5.005E-002,3.900,0.000,0.000,0.000,0.000,0.000,3.900,No
 Zone Internal Gains Nominal, TRANSP. COUNTER-SPACE FUNCTION ZN,1875.00,187.5,10.000,10.000E-002,11.600,2.500,0.000,0.000,0.000,0.000,14.100,No
 Zone Internal Gains Nominal, TRANSP. SEATING-SPACE FUNCTION ZN,1875.00,187.5,10.000,10.000E-002,5.800,0.000,0.000,0.000,0.000,0.000,5.800,No
 Zone Internal Gains Nominal, WAREHOUSE - FINE - REFRIGERATED-SPACE FUNCTION ZN,1875.00,37.5,49.948,2.002E-002,10.200,1.000,0.000,0.000,0.000,0.000,11.200,No
 Zone Internal Gains Nominal, WAREHOUSE - FINE-SPACE FUNCTION ZN,1875.00,37.5,49.948,2.002E-002,10.200,1.000,0.000,0.000,0.000,0.000,11.200,No
 Zone Internal Gains Nominal, WAREHOUSE - MED/BLK - REFRIGERATED-SPACE FUNCTION ZN,1875.00,18.8,99.896,1.001E-002,6.400,1.000,0.000,0.000,0.000,0.000,7.400,No
 Zone Internal Gains Nominal, WAREHOUSE - MED/BLK-SPACE FUNCTION ZN,1875.00,18.8,99.896,1.001E-002,6.400,1.000,0.000,0.000,0.000,0.000,7.400,No
 Zone Internal Gains Nominal, WAREHOUSE - MED/BLK2 - REFRIGERATED-SPACE FUNCTION ZN,2500.00,25.0,99.896,1.001E-002,10.200,1.000,0.000,0.000,0.000,0.000,11.200,No
 Zone Internal Gains Nominal, WAREHOUSE - MED/BLK2-SPACE FUNCTION ZN,1875.00,18.8,99.896,1.001E-002,10.200,1.000,0.000,0.000,0.000,0.000,11.200,No
 Zone Internal Gains Nominal, WHOLEBUILDING-AUTOMOTIVE FACILITY ZN,1875.00,93.8,19.979,5.005E-002,8.800,5.000,0.000,0.000,0.000,0.000,13.800,No
 Zone Internal Gains Nominal, WHOLEBUILDING-CONVENTION CENTRE ZN,1875.00,234.3,8.002,0.125,11.600,2.500,0.000,0.000,0.000,0.000,14.100,No
 Zone Internal Gains Nominal, WHOLEBUILDING-COURTHOUSE ZN,1875.00,124.9,15.009,6.663E-002,11.300,5.000,0.000,0.000,0.000,0.000,16.300,No
 Zone Internal Gains Nominal, WHOLEBUILDING-DINING - BAR/LOUNGE ZN,1875.00,187.5,10.000,10.000E-002,10.700,1.000,0.000,0.000,0.000,0.000,11.700,No
 Zone Internal Gains Nominal, WHOLEBUILDING-DINING - CAFETERIA ZN,1875.00,187.5,10.000,10.000E-002,9.700,1.000,0.000,0.000,0.000,0.000,10.700,No
 Zone Internal Gains Nominal, WHOLEBUILDING-DINING - FAMILY ZN,1875.00,187.5,10.000,10.000E-002,9.600,1.000,0.000,0.000,0.000,0.000,10.600,No
 Zone Internal Gains Nominal, WHOLEBUILDING-DORMITORY ZN,2500.00,83.4,29.969,3.337E-002,6.600,2.500,0.000,0.000,0.000,0.000,9.100,No
 Zone Internal Gains Nominal, WHOLEBUILDING-EXERCISE CENTRE ZN,1875.00,187.5,10.000,10.000E-002,9.500,1.000,0.000,0.000,0.000,0.000,10.500,No
 Zone Internal Gains Nominal, WHOLEBUILDING-FIRE STATION ZN,2500.00,100.1,24.974,4.004E-002,7.600,2.500,0.000,0.000,0.000,0.000,10.100,No
 Zone Internal Gains Nominal, WHOLEBUILDING-GYMNASIUM ZN,1875.00,187.5,10.000,10.000E-002,10.800,1.000,0.000,0.000,0.000,0.000,11.800,No
 Zone Internal Gains Nominal, WHOLEBUILDING-HEALTH-CARE CLINIC ZN,1875.00,93.8,19.979,5.005E-002,9.400,7.500,0.000,0.000,0.000,0.000,16.900,No
 Zone Internal Gains Nominal, WHOLEBUILDING-HOSPITAL ZN,1875.00,93.8,19.979,5.005E-002,13.000,7.500,0.000,0.000,0.000,0.000,20.500,No
 Zone Internal Gains Nominal, WHOLEBUILDING-HOTEL ZN,1875.00,75.1,24.974,4.004E-002,10.800,2.500,0.000,0.000,0.000,0.000,13.300,No
 Zone Internal Gains Nominal, WHOLEBUILDING-LIBRARY ZN,2500.00,125.1,19.979,5.005E-002,12.700,2.500,0.000,0.000,0.000,0.000,15.200,No
 Zone Internal Gains Nominal, WHOLEBUILDING-MANUFACTURING FACILITY ZN,1875.00,62.6,29.969,3.337E-002,11.900,10.000,0.000,0.000,0.000,0.000,21.900,No
 Zone Internal Gains Nominal, WHOLEBUILDING-MOTEL ZN,1875.00,75.1,24.974,4.004E-002,9.500,2.500,0.000,0.000,0.000,0.000,12.000,No
 Zone Internal Gains Nominal, WHOLEBUILDING-MOTION PICTURE THEATRE ZN,2500.00,312.4,8.002,0.125,8.900,1.000,0.000,0.000,0.000,0.000,9.900,No
 Zone Internal Gains Nominal, WHOLEBUILDING-MULTI-UNIT RESIDENTIAL ZN,1875.00,31.3,59.937,1.668E-002,6.500,5.000,0.000,0.000,0.000,0.000,11.500,No
 Zone Internal Gains Nominal, WHOLEBUILDING-MUSEUM ZN,1875.00,93.8,19.979,5.005E-002,11.400,2.500,0.000,0.000,0.000,0.000,13.900,No
 Zone Internal Gains Nominal, WHOLEBUILDING-OFFICE ZN,1875.00,75.1,24.974,4.004E-002,9.700,7.500,0.000,0.000,0.000,0.000,17.200,No
 Zone Internal Gains Nominal, WHOLEBUILDING-PARKING GARAGE ZN,1875.00,1.8,1032.256,9.688E-004,2.700,0.000,0.000,0.000,0.000,0.000,2.700,No
 Zone Internal Gains Nominal, WHOLEBUILDING-PENITENTIARY ZN,2500.00,83.4,29.969,3.337E-002,10.400,2.500,0.000,0.000,0.000,0.000,12.900,No
 Zone Internal Gains Nominal, WHOLEBUILDING-PERFORMING ARTS THEATRE ZN,1875.00,234.3,8.002,0.125,15.000,1.000,0.000,0.000,0.000,0.000,16.000,No
 Zone Internal Gains Nominal, WHOLEBUILDING-POLICE STATION ZN,1875.00,75.1,24.974,4.004E-002,10.300,7.500,0.000,0.000,0.000,0.000,17.800,No
 Zone Internal Gains Nominal, WHOLEBUILDING-POST OFFICE ZN,1875.00,75.1,24.974,4.004E-002,9.400,7.500,0.000,0.000,0.000,0.000,16.900,No
 Zone Internal Gains Nominal, WHOLEBUILDING-RELIGIOUS ZN,1875.00,375.0,5.000,0.200,11.300,1.000,0.000,0.000,0.000,0.000,12.300,No
 Zone Internal Gains Nominal, WHOLEBUILDING-RETAIL ZN,2500.00,83.4,29.969,3.337E-002,15.100,2.500,0.000,0.000,0.000,0.000,17.600,No
 Zone Internal Gains Nominal, WHOLEBUILDING-SCHOOL/UNIVERSITY ZN,1875.00,234.3,8.002,0.125,10.700,5.000,0.000,0.000,0.000,0.000,15.700,No
 Zone Internal Gains Nominal, WHOLEBUILDING-SPORTS ARENA ZN,1875.00,187.5,10.000,10.000E-002,8.400,1.000,0.000,0.000,0.000,0.000,9.400,No
 Zone Internal Gains Nominal, WHOLEBUILDING-TOWN HALL ZN,1875.00,75.1,24.974,4.004E-002,9.900,7.500,0.000,0.000,0.000,0.000,17.400,No
 Zone Internal Gains Nominal, WHOLEBUILDING-TRANSPORTATION ZN,1875.00,124.9,15.009,6.663E-002,8.300,1.000,0.000,0.000,0.000,0.000,9.300,No
 Zone Internal Gains Nominal, WORKSHOP SPACE-SPACE FUNCTION ZN,1875.00,62.6,29.969,3.337E-002,17.100,10.000,0.000,0.000,0.000,0.000,27.100,No
! <People Internal Gains Nominal>,Name,Schedule Name,Zone Name,Zone Floor Area {m2},# Zone Occupants,Number of People {},People/Floor Area {person/m2},Floor Area per person {m2/person},Fraction Radiant,Fraction Convected,Sensible Fraction Calculation,Activity level,ASHRAE 55 Warnings,Carbon Dioxide Generation Rate,Nominal Minimum Number of People,Nominal Maximum Number of People
 People Internal Gains Nominal, WHOLEBUILDING-AUTOMOTIVE FACILITY ZN SPACE TYPE 1 PEOPLE,NECB-E-OCCUPANCY,WHOLEBUILDING-AUTOMOTIVE FACILITY ZN,1875.00,93.8,93.8,5.005E-002,19.979,0.300,0.700,AutoCalculate,NECB-ACTIVITY,No,3.8200E-008,0,84
 People Internal Gains Nominal, WHOLEBUILDING-GYMNASIUM ZN SPACE TYPE 10 PEOPLE,NECB-B-OCCUPANCY,WHOLEBUILDING-GYMNASIUM ZN,1875.00,187.5,187.5,10.000E-002,10.000,0.300,0.700,AutoCalculate,NECB-ACTIVITY,No,3.8200E-008,0,169
 People Internal Gains Nominal, MUSEUM - EXHIBITION-SPACE FUNCTION ZN SPACE TYPE 100 PEOPLE,NECB-C-OCCUPANCY,MUSEUM - EXHIBITION-SPACE FUNCTION ZN,1875.00,375.0,375.0,0.200,5.000,0.300,0.700,AutoCalculate,NECB-ACTIVITY,No,3.8200E-008,0,337
 People Internal Gains Nominal, MUSEUM - RESTORATION-SPACE FUNCTION ZN SPACE TYPE 101 PEOPLE,NECB-A-OCCUPANCY,MUSEUM - RESTORATION-SPACE FUNCTION ZN,1875.00,93.8,93.8,5.005E-002,19.979,0.300,0.700,AutoCalculate,NECB-ACTIVITY,No,3.8200E-008,0,84
 People Internal Gains Nominal, OFFICE - ENCLOSED-SPACE FUNCTION ZN SPACE TYPE 102 PEOPLE,NECB-A-OCCUPANCY,OFFICE - ENCLOSED-SPACE FUNCTION ZN,1875.00,93.8,93.8,5.005E-002,19.979,0.300,0.700,AutoCalculate,NECB-ACTIVITY,No,3.8200E-008,0,84
 People Internal Gains Nominal, OFFICE - ENCLOSED - OCCSENS-SPACE FUNCTION ZN SPACE TYPE 103 PEOPLE,NECB-A-OCCUPANCY,OFFICE - ENCLOSED - OCCSENS-SPACE FUNCTION ZN,1875.00,93.8,93.8,5.005E-002,19.979,0.300,0.700,AutoCalculate,NECB-ACTIVITY,No,3.8200E-008,0,84
 People Internal Gains Nominal, OFFICE - OPEN PLAN-SPACE FUNCTION ZN SPACE TYPE 104 PEOPLE,NECB-A-OCCUPANCY,OFFICE - OPEN PLAN-SPACE FUNCTION ZN,1875.00,93.8,93.8,5.005E-002,19.979,0.300,0.700,AutoCalculate,NECB-ACTIVITY,No,3.8200E-008,0,84
 People Internal Gains Nominal, PARKING GARAGE SPACE-SPACE FUNCTION ZN SPACE TYPE 105 PEOPLE,NECB-H-OCCUPANCY,PARKING GARAGE SPACE-SPACE FUNCTION ZN,1875.00,1.8,1.8,9.688E-004,1032.256,0.300,0.700,AutoCalculate,NECB-ACTIVITY,No,3.8200E-008,2,2
 People Internal Gains Nominal, PENITENTIARY - AUDIENCE-SPACE FUNCTION ZN SPACE TYPE 106 PEOPLE,NECB-C-OCCUPANCY,PENITENTIARY - AUDIENCE-SPACE FUNCTION ZN,1875.00,375.0,375.0,0.200,5.000,0.300,0.700,AutoCalculate,NECB-ACTIVITY,No,3.8200E-008,0,337
 People Internal Gains Nominal, PENITENTIARY - CLASSROOM-SPACE FUNCTION ZN SPACE TYPE 107 PEOPLE,NECB-D-OCCUPANCY,PENITENTIARY - CLASSROOM-SPACE FUNCTION ZN,2500.00,333.4,333.4,0.133,7.498,0.300,0.700,AutoCalculate,NECB-ACTIVITY,No,3.8200E-008,0,300
 People Internal Gains Nominal, PENITENTIARY - DINING-SPACE FUNCTION ZN SPACE TYPE 108 PEOPLE,NECB-B-OCCUPANCY,PENITENTIARY - DINING-SPACE FUNCTION ZN,2500.00,250.0,250.0,10.000E-002,10.000,0.300,0.700,AutoCalculate,NECB-ACTIVITY,No,3.8200E-008,0,225
 People Internal Gains Nominal, POST OFFICE SORTING-SPACE FUNCTION ZN SPACE TYPE 109 PEOPLE,NECB-A-OCCUPANCY,POST OFFICE SORTING-SPACE FUNCTION ZN,1875.00,93.8,93.8,5.005E-002,19.979,0.300,0.700,AutoCalculate,NECB-ACTIVITY,No,3.8200E-008,0,84
 People Internal Gains Nominal, WHOLEBUILDING-HEALTH-CARE CLINIC ZN SPACE TYPE 11 PEOPLE,NECB-A-OCCUPANCY,WHOLEBUILDING-HEALTH-CARE CLINIC ZN,1875.00,93.8,93.8,5.005E-002,19.979,0.300,0.700,AutoCalculate,NECB-ACTIVITY,No,3.8200E-008,0,84
 People Internal Gains Nominal, RELIGIOUS - AUDIENCE-SPACE FUNCTION ZN SPACE TYPE 110 PEOPLE,NECB-I-OCCUPANCY,RELIGIOUS - AUDIENCE-SPACE FUNCTION ZN,1875.00,375.0,375.0,0.200,5.000,0.300,0.700,AutoCalculate,NECB-ACTIVITY,No,3.8200E-008,0,300
 People Internal Gains Nominal, RELIGIOUS - FELLOWSHIP HALL-SPACE FUNCTION ZN SPACE TYPE 111 PEOPLE,NECB-C-OCCUPANCY,RELIGIOUS - FELLOWSHIP HALL-SPACE FUNCTION ZN,1875.00,375.0,375.0,0.200,5.000,0.300,0.700,AutoCalculate,NECB-ACTIVITY,No,3.8200E-008,0,337
 People Internal Gains Nominal, RELIGIOUS - PULPIT/CHOIR-SPACE FUNCTION ZN SPACE TYPE 112 PEOPLE,NECB-I-OCCUPANCY,RELIGIOUS - PULPIT/CHOIR-SPACE FUNCTION ZN,1875.00,375.0,375.0,0.200,5.000,0.300,0.700,AutoCalculate,NECB-ACTIVITY,No,3.8200E-008,0,300
 People Internal Gains Nominal, RETAIL - DRESSING/FITTING-SPACE FUNCTION ZN SPACE TYPE 113 PEOPLE,NECB-C-OCCUPANCY,RETAIL - DRESSING/FITTING-SPACE FUNCTION ZN,1875.00,62.6,62.6,3.337E-002,29.969,0.300,0.700,AutoCalculate,NECB-ACTIVITY,No,3.8200E-008,0,56
 People Internal Gains Nominal, RETAIL - MALL CONCOURSE-SPACE FUNCTION ZN SPACE TYPE 114 PEOPLE,NECB-C-OCCUPANCY,RETAIL - MALL CONCOURSE-SPACE FUNCTION ZN,2500.00,125.1,125.1,5.005E-002,19.979,0.300,0.700,AutoCalculate,NECB-ACTIVITY,No,3.8200E-008,0,113
 People Internal Gains Nominal, RETAIL - SALES-SPACE FUNCTION ZN SPACE TYPE 115 PEOPLE,NECB-C-OCCUPANCY,RETAIL - SALES-SPACE FUNCTION ZN,1875.00,62.6,62.6,3.337E-002,29.969,0.300,0.700,AutoCalculate,NECB-ACTIVITY,No,3.8200E-008,0,56
 People Internal Gains Nominal, SALES AREA-SPACE FUNCTION ZN SPACE TYPE 116 PEOPLE,NECB-C-OCCUPANCY,SALES AREA-SPACE FUNCTION ZN,1875.00,62.6,62.6,3.337E-002,29.969,0.300,0.700,AutoCalculate,NECB-ACTIVITY,No,3.8200E-008,0,56
 People Internal Gains Nominal, SPORTS ARENA - AUDIENCE-SPACE FUNCTION ZN SPACE TYPE 117 PEOPLE,NECB-B-OCCUPANCY,SPORTS ARENA - AUDIENCE-SPACE FUNCTION ZN,1875.00,375.0,375.0,0.200,5.000,0.300,0.700,AutoCalculate,NECB-ACTIVITY,No,3.8200E-008,0,337
 People Internal Gains Nominal, SPORTS ARENA - COURT C1-SPACE FUNCTION ZN SPACE TYPE 118 PEOPLE,NECB-B-OCCUPANCY,SPORTS ARENA - COURT C1-SPACE FUNCTION ZN,2500.00,500.0,500.0,0.200,5.000,0.300,0.700,AutoCalculate,NECB-ACTIVITY,No,3.8200E-008,0,450
 People Internal Gains Nominal, SPORTS ARENA - COURT C2-SPACE FUNCTION ZN SPACE TYPE 119 PEOPLE,NECB-B-OCCUPANCY,SPORTS ARENA - COURT C2-SPACE FUNCTION ZN,1875.00,375.0,375.0,0.200,5.000,0.300,0.700,AutoCalculate,NECB-ACTIVITY,No,3.8200E-008,0,337
 People Internal Gains Nominal, WHOLEBUILDING-HOSPITAL ZN SPACE TYPE 12 PEOPLE,NECB-H-OCCUPANCY,WHOLEBUILDING-HOSPITAL ZN,1875.00,93.8,93.8,5.005E-002,19.979,0.300,0.700,AutoCalculate,NECB-ACTIVITY,No,3.8200E-008,84,84
 People Internal Gains Nominal, SPORTS ARENA - COURT C3-SPACE FUNCTION ZN SPACE TYPE 120 PEOPLE,NECB-B-OCCUPANCY,SPORTS ARENA - COURT C3-SPACE FUNCTION ZN,1875.00,375.0,375.0,0.200,5.000,0.300,0.700,AutoCalculate,NECB-ACTIVITY,No,3.8200E-008,0,337
 People Internal Gains Nominal, SPORTS ARENA - COURT C4-SPACE FUNCTION ZN SPACE TYPE 121 PEOPLE,NECB-B-OCCUPANCY,SPORTS ARENA - COURT C4-SPACE FUNCTION ZN,1875.00,375.0,375.0,0.200,5.000,0.300,0.700,AutoCalculate,NECB-ACTIVITY,No,3.8200E-008,0,337
 People Internal Gains Nominal, SPORTS ARENA - RING-SPACE FUNCTION ZN SPACE TYPE 122 PEOPLE,NECB-B-OCCUPANCY,SPORTS ARENA - RING-SPACE FUNCTION ZN,2500.00,500.0,500.0,0.200,5.000,0.300,0.700,AutoCalculate,NECB-ACTIVITY,No,3.8200E-008,0,450
 People Internal Gains Nominal, STORAGE AREA-SPACE FUNCTION ZN SPACE TYPE 123 PEOPLE,NECB-E-OCCUPANCY,STORAGE AREA-SPACE FUNCTION ZN,1875.00,18.8,18.8,1.001E-002,99.896,0.300,0.700,AutoCalculate,NECB-ACTIVITY,No,3.8200E-008,0,17
 People Internal Gains Nominal, STORAGE AREA - OCCSENS-SPACE FUNCTION ZN SPACE TYPE 124 PEOPLE,NECB-E-OCCUPANCY,STORAGE AREA - OCCSENS-SPACE FUNCTION ZN,1875.00,18.8,18.8,1.001E-002,99.896,0.300,0.700,AutoCalculate,NECB-ACTIVITY,No,3.8200E-008,0,17
 People Internal Gains Nominal, STORAGE AREA - REFRIGERATED-SPACE FUNCTION ZN SPACE TYPE 125 PEOPLE,NECB-E-OCCUPANCY,STORAGE AREA - REFRIGERATED-SPACE FUNCTION ZN,1875.00,18.8,18.8,1.001E-002,99.896,0.300,0.700,AutoCalculate,NECB-ACTIVITY,No,3.8200E-008,0,17
 People Internal Gains Nominal, STORAGE AREA - REFRIGERATED - OCCSENS-SPACE FUNCTION ZN SPACE TYPE 126 PEOPLE,NECB-E-OCCUPANCY,STORAGE AREA - REFRIGERATED - OCCSENS-SPACE FUNCTION ZN,1875.00,18.8,18.8,1.001E-002,99.896,0.300,0.700,AutoCalculate,NECB-ACTIVITY,No,3.8200E-008,0,17
 People Internal Gains Nominal, TRANSP. BAGGAGE-SPACE FUNCTION ZN SPACE TYPE 127 PEOPLE,NECB-H-OCCUPANCY,TRANSP. BAGGAGE-SPACE FUNCTION ZN,2500.00,125.1,125.1,5.005E-002,19.979,0.300,0.700,AutoCalculate,NECB-ACTIVITY,No,3.8200E-008,113,113
 People Internal Gains Nominal, TRANSP. CONCOURSE-SPACE FUNCTION ZN SPACE TYPE 128 PEOPLE,NECB-H-OCCUPANCY,TRANSP. CONCOURSE-SPACE FUNCTION ZN,1875.00,93.8,93.8,5.005E-002,19.979,0.300,0.700,AutoCalculate,NECB-ACTIVITY,No,3.8200E-008,84,84
 People Internal Gains Nominal, TRANSP. COUNTER-SPACE FUNCTION ZN SPACE TYPE 129 PEOPLE,NECB-H-OCCUPANCY,TRANSP. COUNTER-SPACE FUNCTION ZN,1875.00,187.5,187.5,10.000E-002,10.000,0.300,0.700,AutoCalculate,NECB-ACTIVITY,No,3.8200E-008,169,169
 People Internal Gains Nominal, WHOLEBUILDING-HOTEL ZN SPACE TYPE 13 PEOPLE,NECB-F-OCCUPANCY,WHOLEBUILDING-HOTEL ZN,1875.00,75.1,75.1,4.004E-002,24.974,0.300,0.700,AutoCalculate,NECB-ACTIVITY,No,3.8200E-008,15,68
 People Internal Gains Nominal, TRANSP. SEATING-SPACE FUNCTION ZN SPACE TYPE 130 PEOPLE,NECB-H-OCCUPANCY,TRANSP. SEATING-SPACE FUNCTION ZN,1875.00,187.5,187.5,10.000E-002,10.000,0.300,0.700,AutoCalculate,NECB-ACTIVITY,No,3.8200E-008,169,169
 People Internal Gains Nominal, WAREHOUSE - FINE-SPACE FUNCTION ZN SPACE TYPE 131 PEOPLE,NECB-A-OCCUPANCY,WAREHOUSE - FINE-SPACE FUNCTION ZN,1875.00,37.5,37.5,2.002E-002,49.948,0.300,0.700,AutoCalculate,NECB-ACTIVITY,No,3.8200E-008,0,34
 People Internal Gains Nominal, WAREHOUSE - FINE - REFRIGERATED-SPACE FUNCTION ZN SPACE TYPE 132 PEOPLE,NECB-A-OCCUPANCY,WAREHOUSE - FINE - REFRIGERATED-SPACE FUNCTION ZN,1875.00,37.5,37.5,2.002E-002,49.948,0.300,0.700,AutoCalculate,NECB-ACTIVITY,No,3.8200E-008,0,34
 People Internal Gains Nominal, WAREHOUSE - MED/BLK-SPACE FUNCTION ZN SPACE TYPE 133 PEOPLE,NECB-A-OCCUPANCY,WAREHOUSE - MED/BLK-SPACE FUNCTION ZN,1875.00,18.8,18.8,1.001E-002,99.896,0.300,0.700,AutoCalculate,NECB-ACTIVITY,No,3.8200E-008,0,17
 People Internal Gains Nominal, WAREHOUSE - MED/BLK - REFRIGERATED-SPACE FUNCTION ZN SPACE TYPE 134 PEOPLE,NECB-A-OCCUPANCY,WAREHOUSE - MED/BLK - REFRIGERATED-SPACE FUNCTION ZN,1875.00,18.8,18.8,1.001E-002,99.896,0.300,0.700,AutoCalculate,NECB-ACTIVITY,No,3.8200E-008,0,17
 People Internal Gains Nominal, WAREHOUSE - MED/BLK2-SPACE FUNCTION ZN SPACE TYPE 135 PEOPLE,NECB-A-OCCUPANCY,WAREHOUSE - MED/BLK2-SPACE FUNCTION ZN,1875.00,18.8,18.8,1.001E-002,99.896,0.300,0.700,AutoCalculate,NECB-ACTIVITY,No,3.8200E-008,0,17
 People Internal Gains Nominal, WAREHOUSE - MED/BLK2 - REFRIGERATED-SPACE FUNCTION ZN SPACE TYPE 136 PEOPLE,NECB-A-OCCUPANCY,WAREHOUSE - MED/BLK2 - REFRIGERATED-SPACE FUNCTION ZN,2500.00,25.0,25.0,1.001E-002,99.896,0.300,0.700,AutoCalculate,NECB-ACTIVITY,No,3.8200E-008,0,23
 People Internal Gains Nominal, WORKSHOP SPACE-SPACE FUNCTION ZN SPACE TYPE 137 PEOPLE,NECB-A-OCCUPANCY,WORKSHOP SPACE-SPACE FUNCTION ZN,1875.00,62.6,62.6,3.337E-002,29.969,0.300,0.700,AutoCalculate,NECB-ACTIVITY,No,3.8200E-008,0,56
 People Internal Gains Nominal, WHOLEBUILDING-SPORTS ARENA ZN SPACE TYPE 138 PEOPLE,NECB-B-OCCUPANCY,WHOLEBUILDING-SPORTS ARENA ZN,1875.00,187.5,187.5,10.000E-002,10.000,0.300,0.700,AutoCalculate,NECB-ACTIVITY,No,3.8200E-008,0,169
 People Internal Gains Nominal, WHOLEBUILDING-TOWN HALL ZN SPACE TYPE 139 PEOPLE,NECB-D-OCCUPANCY,WHOLEBUILDING-TOWN HALL ZN,1875.00,75.1,75.1,4.004E-002,24.974,0.300,0.700,AutoCalculate,NECB-ACTIVITY,No,3.8200E-008,0,68
 People Internal Gains Nominal, WHOLEBUILDING-LIBRARY ZN SPACE TYPE 14 PEOPLE,NECB-C-OCCUPANCY,WHOLEBUILDING-LIBRARY ZN,2500.00,125.1,125.1,5.005E-002,19.979,0.300,0.700,AutoCalculate,NECB-ACTIVITY,No,3.8200E-008,0,113
 People Internal Gains Nominal, WHOLEBUILDING-TRANSPORTATION ZN SPACE TYPE 140 PEOPLE,NECB-H-OCCUPANCY,WHOLEBUILDING-TRANSPORTATION ZN,1875.00,124.9,124.9,6.663E-002,15.009,0.300,0.700,AutoCalculate,NECB-ACTIVITY,No,3.8200E-008,112,112
 People Internal Gains Nominal, WHOLEBUILDING-MANUFACTURING FACILITY ZN SPACE TYPE 15 PEOPLE,NECB-A-OCCUPANCY,WHOLEBUILDING-MANUFACTURING FACILITY ZN,1875.00,62.6,62.6,3.337E-002,29.969,0.300,0.700,AutoCalculate,NECB-ACTIVITY,No,3.8200E-008,0,56
 People Internal Gains Nominal, WHOLEBUILDING-MOTEL ZN SPACE TYPE 16 PEOPLE,NECB-F-OCCUPANCY,WHOLEBUILDING-MOTEL ZN,1875.00,75.1,75.1,4.004E-002,24.974,0.300,0.700,AutoCalculate,NECB-ACTIVITY,No,3.8200E-008,15,68
 People Internal Gains Nominal, WHOLEBUILDING-MOTION PICTURE THEATRE ZN SPACE TYPE 17 PEOPLE,NECB-C-OCCUPANCY,WHOLEBUILDING-MOTION PICTURE THEATRE ZN,2500.00,312.4,312.4,0.125,8.002,0.300,0.700,AutoCalculate,NECB-ACTIVITY,No,3.8200E-008,0,281
 People Internal Gains Nominal, WHOLEBUILDING-MULTI-UNIT RESIDENTIAL ZN SPACE TYPE 18 PEOPLE,NECB-G-OCCUPANCY,WHOLEBUILDING-MULTI-UNIT RESIDENTIAL ZN,1875.00,31.3,31.3,1.668E-002,59.937,0.300,0.700,AutoCalculate,NECB-ACTIVITY,No,3.8200E-008,9,28
 People Internal Gains Nominal, WHOLEBUILDING-MUSEUM ZN SPACE TYPE 19 PEOPLE,NECB-C-OCCUPANCY,WHOLEBUILDING-MUSEUM ZN,1875.00,93.8,93.8,5.005E-002,19.979,0.300,0.700,AutoCalculate,NECB-ACTIVITY,No,3.8200E-008,0,84
 People Internal Gains Nominal, WHOLEBUILDING-CONVENTION CENTRE ZN SPACE TYPE 2 PEOPLE,NECB-C-OCCUPANCY,WHOLEBUILDING-CONVENTION CENTRE ZN,1875.00,234.3,234.3,0.125,8.002,0.300,0.700,AutoCalculate,NECB-ACTIVITY,No,3.8200E-008,0,211
 People Internal Gains Nominal, WHOLEBUILDING-OFFICE ZN SPACE TYPE 20 PEOPLE,NECB-A-OCCUPANCY,WHOLEBUILDING-OFFICE ZN,1875.00,75.1,75.1,4.004E-002,24.974,0.300,0.700,AutoCalculate,NECB-ACTIVITY,No,3.8200E-008,0,68
 People Internal Gains Nominal, WHOLEBUILDING-PARKING GARAGE ZN SPACE TYPE 21 PEOPLE,NECB-H-OCCUPANCY,WHOLEBUILDING-PARKING GARAGE ZN,1875.00,1.8,1.8,9.688E-004,1032.256,0.300,0.700,AutoCalculate,NECB-ACTIVITY,No,3.8200E-008,2,2
 People Internal Gains Nominal, WHOLEBUILDING-PENITENTIARY ZN SPACE TYPE 22 PEOPLE,NECB-H-OCCUPANCY,WHOLEBUILDING-PENITENTIARY ZN,2500.00,83.4,83.4,3.337E-002,29.969,0.300,0.700,AutoCalculate,NECB-ACTIVITY,No,3.8200E-008,75,75
 People Internal Gains Nominal, WHOLEBUILDING-PERFORMING ARTS THEATRE ZN SPACE TYPE 23 PEOPLE,NECB-C-OCCUPANCY,WHOLEBUILDING-PERFORMING ARTS THEATRE ZN,1875.00,234.3,234.3,0.125,8.002,0.300,0.700,AutoCalculate,NECB-ACTIVITY,No,3.8200E-008,0,211
 People Internal Gains Nominal, WHOLEBUILDING-POLICE STATION ZN SPACE TYPE 24 PEOPLE,NECB-H-OCCUPANCY,WHOLEBUILDING-POLICE STATION ZN,1875.00,75.1,75.1,4.004E-002,24.974,0.300,0.700,AutoCalculate,NECB-ACTIVITY,No,3.8200E-008,68,68
 People Internal Gains Nominal, WHOLEBUILDING-POST OFFICE ZN SPACE TYPE 25 PEOPLE,NECB-A-OCCUPANCY,WHOLEBUILDING-POST OFFICE ZN,1875.00,75.1,75.1,4.004E-002,24.974,0.300,0.700,AutoCalculate,NECB-ACTIVITY,No,3.8200E-008,0,68
 People Internal Gains Nominal, WHOLEBUILDING-RELIGIOUS ZN SPACE TYPE 26 PEOPLE,NECB-I-OCCUPANCY,WHOLEBUILDING-RELIGIOUS ZN,1875.00,375.0,375.0,0.200,5.000,0.300,0.700,AutoCalculate,NECB-ACTIVITY,No,3.8200E-008,0,300
 People Internal Gains Nominal, WHOLEBUILDING-RETAIL ZN SPACE TYPE 27 PEOPLE,NECB-C-OCCUPANCY,WHOLEBUILDING-RETAIL ZN,2500.00,83.4,83.4,3.337E-002,29.969,0.300,0.700,AutoCalculate,NECB-ACTIVITY,No,3.8200E-008,0,75
 People Internal Gains Nominal, WHOLEBUILDING-SCHOOL/UNIVERSITY ZN SPACE TYPE 28 PEOPLE,NECB-D-OCCUPANCY,WHOLEBUILDING-SCHOOL/UNIVERSITY ZN,1875.00,234.3,234.3,0.125,8.002,0.300,0.700,AutoCalculate,NECB-ACTIVITY,No,3.8200E-008,0,211
 People Internal Gains Nominal, WHOLEBUILDING-COURTHOUSE ZN SPACE TYPE 3 PEOPLE,NECB-A-OCCUPANCY,WHOLEBUILDING-COURTHOUSE ZN,1875.00,124.9,124.9,6.663E-002,15.009,0.300,0.700,AutoCalculate,NECB-ACTIVITY,No,3.8200E-008,0,112
 People Internal Gains Nominal, ATRIUM - H < 13M-SPACE FUNCTION ZN SPACE TYPE 30 PEOPLE,NECB-C-OCCUPANCY,ATRIUM - H < 13M-SPACE FUNCTION ZN,1875.00,187.5,187.5,10.000E-002,10.000,0.300,0.700,AutoCalculate,NECB-ACTIVITY,No,3.8200E-008,0,169
 People Internal Gains Nominal, ATRIUM - H > 13M-SPACE FUNCTION ZN SPACE TYPE 31 PEOPLE,NECB-C-OCCUPANCY,ATRIUM - H > 13M-SPACE FUNCTION ZN,2500.00,250.0,250.0,10.000E-002,10.000,0.300,0.700,AutoCalculate,NECB-ACTIVITY,No,3.8200E-008,0,225
 People Internal Gains Nominal, AUDIENCE - AUDITORIUM-SPACE FUNCTION ZN SPACE TYPE 32 PEOPLE,NECB-C-OCCUPANCY,AUDIENCE - AUDITORIUM-SPACE FUNCTION ZN,1875.00,375.0,375.0,0.200,5.000,0.300,0.700,AutoCalculate,NECB-ACTIVITY,No,3.8200E-008,0,337
 People Internal Gains Nominal, AUDIENCE - MOTION PICTURE-SPACE FUNCTION ZN SPACE TYPE 33 PEOPLE,NECB-C-OCCUPANCY,AUDIENCE - MOTION PICTURE-SPACE FUNCTION ZN,1875.00,375.0,375.0,0.200,5.000,0.300,0.700,AutoCalculate,NECB-ACTIVITY,No,3.8200E-008,0,337
 People Internal Gains Nominal, AUDIENCE - PERFORMANCE ARTS-SPACE FUNCTION ZN SPACE TYPE 34 PEOPLE,NECB-C-OCCUPANCY,AUDIENCE - PERFORMANCE ARTS-SPACE FUNCTION ZN,1875.00,250.1,250.1,0.133,7.498,0.300,0.700,AutoCalculate,NECB-ACTIVITY,No,3.8200E-008,0,225
 People Internal Gains Nominal, AUTOMOTIVE - REPAIR-SPACE FUNCTION ZN SPACE TYPE 35 PEOPLE,NECB-E-OCCUPANCY,AUTOMOTIVE - REPAIR-SPACE FUNCTION ZN,1875.00,93.8,93.8,5.005E-002,19.979,0.300,0.700,AutoCalculate,NECB-ACTIVITY,No,3.8200E-008,0,84
 People Internal Gains Nominal, BANK - BANKING AND OFFICES-SPACE FUNCTION ZN SPACE TYPE 36 PEOPLE,NECB-A-OCCUPANCY,BANK - BANKING AND OFFICES-SPACE FUNCTION ZN,1875.00,75.1,75.1,4.004E-002,24.974,0.300,0.700,AutoCalculate,NECB-ACTIVITY,No,3.8200E-008,0,68
 People Internal Gains Nominal, CLASSROOM/LECTURE/TRAINING-SPACE FUNCTION ZN SPACE TYPE 37 PEOPLE,NECB-D-OCCUPANCY,CLASSROOM/LECTURE/TRAINING-SPACE FUNCTION ZN,2500.00,333.4,333.4,0.133,7.498,0.300,0.700,AutoCalculate,NECB-ACTIVITY,No,3.8200E-008,0,300
 People Internal Gains Nominal, CONF./MEET./MULTI-PURPOSE-SPACE FUNCTION ZN SPACE TYPE 38 PEOPLE,NECB-C-OCCUPANCY,CONF./MEET./MULTI-PURPOSE-SPACE FUNCTION ZN,1875.00,375.0,375.0,0.200,5.000,0.300,0.700,AutoCalculate,NECB-ACTIVITY,No,3.8200E-008,0,337
 People Internal Gains Nominal, CONVENTION CENTRE - AUDIENCE-SPACE FUNCTION ZN SPACE TYPE 39 PEOPLE,NECB-C-OCCUPANCY,CONVENTION CENTRE - AUDIENCE-SPACE FUNCTION ZN,2500.00,500.0,500.0,0.200,5.000,0.300,0.700,AutoCalculate,NECB-ACTIVITY,No,3.8200E-008,0,450
 People Internal Gains Nominal, WHOLEBUILDING-DINING - BAR/LOUNGE ZN SPACE TYPE 4 PEOPLE,NECB-B-OCCUPANCY,WHOLEBUILDING-DINING - BAR/LOUNGE ZN,1875.00,187.5,187.5,10.000E-002,10.000,0.300,0.700,AutoCalculate,NECB-ACTIVITY,No,3.8200E-008,0,169
 People Internal Gains Nominal, CONVENTION CENTRE - EXHIBIT-SPACE FUNCTION ZN SPACE TYPE 40 PEOPLE,NECB-C-OCCUPANCY,CONVENTION CENTRE - EXHIBIT-SPACE FUNCTION ZN,2500.00,500.0,500.0,0.200,5.000,0.300,0.700,AutoCalculate,NECB-ACTIVITY,No,3.8200E-008,0,450
 People Internal Gains Nominal, COURTHOUSE - CELL-SPACE FUNCTION ZN SPACE TYPE 41 PEOPLE,NECB-H-OCCUPANCY,COURTHOUSE - CELL-SPACE FUNCTION ZN,1875.00,75.1,75.1,4.004E-002,24.974,0.300,0.700,AutoCalculate,NECB-ACTIVITY,No,3.8200E-008,68,68
 People Internal Gains Nominal, COURTHOUSE - CHAMBERS-SPACE FUNCTION ZN SPACE TYPE 42 PEOPLE,NECB-A-OCCUPANCY,COURTHOUSE - CHAMBERS-SPACE FUNCTION ZN,1875.00,93.8,93.8,5.005E-002,19.979,0.300,0.700,AutoCalculate,NECB-ACTIVITY,No,3.8200E-008,0,84
 People Internal Gains Nominal, COURTHOUSE - COURTROOM-SPACE FUNCTION ZN SPACE TYPE 43 PEOPLE,NECB-A-OCCUPANCY,COURTHOUSE - COURTROOM-SPACE FUNCTION ZN,1875.00,375.0,375.0,0.200,5.000,0.300,0.700,AutoCalculate,NECB-ACTIVITY,No,3.8200E-008,0,337
 People Internal Gains Nominal, DINING - BAR LOUNGE/LEISURE-SPACE FUNCTION ZN SPACE TYPE 44 PEOPLE,NECB-B-OCCUPANCY,DINING - BAR LOUNGE/LEISURE-SPACE FUNCTION ZN,1875.00,187.5,187.5,10.000E-002,10.000,0.300,0.700,AutoCalculate,NECB-ACTIVITY,No,3.8200E-008,0,169
 People Internal Gains Nominal, DINING - FAMILY SPACE-SPACE FUNCTION ZN SPACE TYPE 45 PEOPLE,NECB-B-OCCUPANCY,DINING - FAMILY SPACE-SPACE FUNCTION ZN,1875.00,187.5,187.5,10.000E-002,10.000,0.300,0.700,AutoCalculate,NECB-ACTIVITY,No,3.8200E-008,0,169
 People Internal Gains Nominal, DINING - OTHER-SPACE FUNCTION ZN SPACE TYPE 46 PEOPLE,NECB-B-OCCUPANCY,DINING - OTHER-SPACE FUNCTION ZN,2500.00,250.0,250.0,10.000E-002,10.000,0.300,0.700,AutoCalculate,NECB-ACTIVITY,No,3.8200E-008,0,225
 People Internal Gains Nominal, DORMITORY - LIVING QUARTERS-SPACE FUNCTION ZN SPACE TYPE 47 PEOPLE,NECB-G-OCCUPANCY,DORMITORY - LIVING QUARTERS-SPACE FUNCTION ZN,1875.00,75.1,75.1,4.004E-002,24.974,0.300,0.700,AutoCalculate,NECB-ACTIVITY,No,3.8200E-008,23,68
 People Internal Gains Nominal, DRESS./FITT. - PERFORMANCE ARTS-SPACE FUNCTION ZN SPACE TYPE 48 PEOPLE,NECB-C-OCCUPANCY,DRESS./FITT. - PERFORMANCE ARTS-SPACE FUNCTION ZN,1875.00,62.6,62.6,3.337E-002,29.969,0.300,0.700,AutoCalculate,NECB-ACTIVITY,No,3.8200E-008,0,56
 People Internal Gains Nominal, DWELLING UNIT(S)-SPACE FUNCTION ZN SPACE TYPE 49 PEOPLE,NECB-G-OCCUPANCY,DWELLING UNIT(S)-SPACE FUNCTION ZN,1875.00,31.3,31.3,1.668E-002,59.937,0.300,0.700,AutoCalculate,NECB-ACTIVITY,No,3.8200E-008,9,28
 People Internal Gains Nominal, WHOLEBUILDING-DINING - CAFETERIA ZN SPACE TYPE 5 PEOPLE,NECB-B-OCCUPANCY,WHOLEBUILDING-DINING - CAFETERIA ZN,1875.00,187.5,187.5,10.000E-002,10.000,0.300,0.700,AutoCalculate,NECB-ACTIVITY,No,3.8200E-008,0,169
 People Internal Gains Nominal, FIRE STATION - ENGINE ROOM-SPACE FUNCTION ZN SPACE TYPE 50 PEOPLE,NECB-H-OCCUPANCY,FIRE STATION - ENGINE ROOM-SPACE FUNCTION ZN,1875.00,75.1,75.1,4.004E-002,24.974,0.300,0.700,AutoCalculate,NECB-ACTIVITY,No,3.8200E-008,68,68
 People Internal Gains Nominal, FIRE STATION - QUARTERS-SPACE FUNCTION ZN SPACE TYPE 51 PEOPLE,NECB-G-OCCUPANCY,FIRE STATION - QUARTERS-SPACE FUNCTION ZN,1875.00,75.1,75.1,4.004E-002,24.974,0.300,0.700,AutoCalculate,NECB-ACTIVITY,No,3.8200E-008,23,68
 People Internal Gains Nominal, FOOD PREPARATION-SPACE FUNCTION ZN SPACE TYPE 52 PEOPLE,NECB-B-OCCUPANCY,FOOD PREPARATION-SPACE FUNCTION ZN,1875.00,93.8,93.8,5.005E-002,19.979,0.300,0.700,AutoCalculate,NECB-ACTIVITY,No,3.8200E-008,0,84
 People Internal Gains Nominal, FOOD PREPARATION - VENTED-SPACE FUNCTION ZN SPACE TYPE 53 PEOPLE,NECB-B-OCCUPANCY,FOOD PREPARATION - VENTED-SPACE FUNCTION ZN,1875.00,93.8,93.8,5.005E-002,19.979,0.300,0.700,AutoCalculate,NECB-ACTIVITY,No,3.8200E-008,0,84
 People Internal Gains Nominal, GYM - AUDIENCE-SPACE FUNCTION ZN SPACE TYPE 54 PEOPLE,NECB-B-OCCUPANCY,GYM - AUDIENCE-SPACE FUNCTION ZN,1875.00,375.0,375.0,0.200,5.000,0.300,0.700,AutoCalculate,NECB-ACTIVITY,No,3.8200E-008,0,337
 People Internal Gains Nominal, GYM - FITNESS-SPACE FUNCTION ZN SPACE TYPE 55 PEOPLE,NECB-B-OCCUPANCY,GYM - FITNESS-SPACE FUNCTION ZN,1875.00,375.0,375.0,0.200,5.000,0.300,0.700,AutoCalculate,NECB-ACTIVITY,No,3.8200E-008,0,337
 People Internal Gains Nominal, GYM - PLAY-SPACE FUNCTION ZN SPACE TYPE 56 PEOPLE,NECB-B-OCCUPANCY,GYM - PLAY-SPACE FUNCTION ZN,1875.00,375.0,375.0,0.200,5.000,0.300,0.700,AutoCalculate,NECB-ACTIVITY,No,3.8200E-008,0,337
 People Internal Gains Nominal, HOSPITAL - EMERGENCY-SPACE FUNCTION ZN SPACE TYPE 57 PEOPLE,NECB-H-OCCUPANCY,HOSPITAL - EMERGENCY-SPACE FUNCTION ZN,1875.00,93.8,93.8,5.005E-002,19.979,0.300,0.700,AutoCalculate,NECB-ACTIVITY,No,3.8200E-008,84,84
 People Internal Gains Nominal, HOSPITAL - EXAM-SPACE FUNCTION ZN SPACE TYPE 58 PEOPLE,NECB-C-OCCUPANCY,HOSPITAL - EXAM-SPACE FUNCTION ZN,1875.00,93.8,93.8,5.005E-002,19.979,0.300,0.700,AutoCalculate,NECB-ACTIVITY,No,3.8200E-008,0,84
 People Internal Gains Nominal, HOSPITAL - LAUNDRY/WASHING-SPACE FUNCTION ZN SPACE TYPE 59 PEOPLE,NECB-C-OCCUPANCY,HOSPITAL - LAUNDRY/WASHING-SPACE FUNCTION ZN,2500.00,125.1,125.1,5.005E-002,19.979,0.300,0.700,AutoCalculate,NECB-ACTIVITY,No,3.8200E-008,0,113
 People Internal Gains Nominal, WHOLEBUILDING-DINING - FAMILY ZN SPACE TYPE 6 PEOPLE,NECB-B-OCCUPANCY,WHOLEBUILDING-DINING - FAMILY ZN,1875.00,187.5,187.5,10.000E-002,10.000,0.300,0.700,AutoCalculate,NECB-ACTIVITY,No,3.8200E-008,0,169
 People Internal Gains Nominal, HOSPITAL - LOUNGE/RECREATION-SPACE FUNCTION ZN SPACE TYPE 60 PEOPLE,NECB-B-OCCUPANCY,HOSPITAL - LOUNGE/RECREATION-SPACE FUNCTION ZN,2500.00,250.0,250.0,10.000E-002,10.000,0.300,0.700,AutoCalculate,NECB-ACTIVITY,No,3.8200E-008,0,225
 People Internal Gains Nominal, HOSPITAL - MEDICAL SUPPLY-SPACE FUNCTION ZN SPACE TYPE 61 PEOPLE,NECB-H-OCCUPANCY,HOSPITAL - MEDICAL SUPPLY-SPACE FUNCTION ZN,1875.00,93.8,93.8,5.005E-002,19.979,0.300,0.700,AutoCalculate,NECB-ACTIVITY,No,3.8200E-008,84,84
 People Internal Gains Nominal, HOSPITAL - MEDICAL SUPPLY - OCCSENS-SPACE FUNCTION ZN SPACE TYPE 62 PEOPLE,NECB-H-OCCUPANCY,HOSPITAL - MEDICAL SUPPLY - OCCSENS-SPACE FUNCTION ZN,1875.00,93.8,93.8,5.005E-002,19.979,0.300,0.700,AutoCalculate,NECB-ACTIVITY,No,3.8200E-008,84,84
[...]
 Warmup Convergence Information,HOTEL/MOTEL - LOBBY-SPACE FUNCTION ZN,SizingPeriod: FORT MCMURRAY AP ANN HTG 99.6% CONDNS DB,5.5917876992E-002,0.3605164593,Pass,Pass,7.2285352541E-002,0.3735943610,Pass,Pass
 Warmup Convergence Information,HOTEL/MOTEL - ROOMS-SPACE FUNCTION ZN,SizingPeriod: FORT MCMURRAY AP ANN HTG 99.6% CONDNS DB,5.8452068979E-002,0.3335417122,Pass,Pass,7.9233097402E-002,0.2567345348,Pass,Pass
 Warmup Convergence Information,HWAY LODGING - DINING-SPACE FUNCTION ZN,SizingPeriod: FORT MCMURRAY AP ANN HTG 99.6% CONDNS DB,5.5555555556E-002,0.3878500613,Pass,Pass,0.2868912374,0.9932858895,Pass,Pass
 Warmup Convergence Information,HWAY LODGING - ROOMS-SPACE FUNCTION ZN,SizingPeriod: FORT MCMURRAY AP ANN HTG 99.6% CONDNS DB,5.9556182283E-002,0.3268225514,Pass,Pass,1.1183420593,8.9442959150,Pass,Pass
 Warmup Convergence Information,LAB - CLASSROOMS-SPACE FUNCTION ZN,SizingPeriod: FORT MCMURRAY AP ANN HTG 99.6% CONDNS DB,5.5555555556E-002,0.3769357788,Pass,Pass,0.1809269345,1.1129278134,Pass,Pass
 Warmup Convergence Information,LAB - RESEARCH-SPACE FUNCTION ZN,SizingPeriod: FORT MCMURRAY AP ANN HTG 99.6% CONDNS DB,5.5555555556E-002,0.3767910104,Pass,Pass,0.1789198247,0.8675478649,Pass,Pass
 Warmup Convergence Information,LIBRARY - CATALOGING-SPACE FUNCTION ZN,SizingPeriod: FORT MCMURRAY AP ANN HTG 99.6% CONDNS DB,5.6607834380E-002,0.3499390464,Pass,Pass,0.1269342825,0.2245806763,Pass,Pass
 Warmup Convergence Information,LIBRARY - READING-SPACE FUNCTION ZN,SizingPeriod: FORT MCMURRAY AP ANN HTG 99.6% CONDNS DB,5.6915931444E-002,0.3449987433,Pass,Pass,0.3689472422,2.2832124966,Pass,Pass
 Warmup Convergence Information,LIBRARY - STACKS-SPACE FUNCTION ZN,SizingPeriod: FORT MCMURRAY AP ANN HTG 99.6% CONDNS DB,5.6720884657E-002,0.3498132183,Pass,Pass,0.1619496636,0.5070824667,Pass,Pass
 Warmup Convergence Information,LOBBY - ELEVATOR-SPACE FUNCTION ZN,SizingPeriod: FORT MCMURRAY AP ANN HTG 99.6% CONDNS DB,5.5555555556E-002,0.3895224129,Pass,Pass,0.1006857419,0.1836375870,Pass,Pass
 Warmup Convergence Information,LOBBY - MOTION PICTURE-SPACE FUNCTION ZN,SizingPeriod: FORT MCMURRAY AP ANN HTG 99.6% CONDNS DB,5.5555555556E-002,0.3895257306,Pass,Pass,0.2568089988,1.0745227082,Pass,Pass
 Warmup Convergence Information,LOBBY - OTHER-SPACE FUNCTION ZN,SizingPeriod: FORT MCMURRAY AP ANN HTG 99.6% CONDNS DB,5.5555555556E-002,0.3892886321,Pass,Pass,0.2767143478,1.4174985844,Pass,Pass
 Warmup Convergence Information,LOBBY - PERFORMANCE ARTS-SPACE FUNCTION ZN,SizingPeriod: FORT MCMURRAY AP ANN HTG 99.6% CONDNS DB,5.5555555556E-002,0.3895022977,Pass,Pass,0.1911282209,0.8020643880,Pass,Pass
 Warmup Convergence Information,LOCKER ROOM-SCH-A-SPACE FUNCTION ZN,SizingPeriod: FORT MCMURRAY AP ANN HTG 99.6% CONDNS DB,5.6396859262E-002,0.3528841186,Pass,Pass,0.1984150316,0.4898294179,Pass,Pass
 Warmup Convergence Information,LOCKER ROOM-SCH-B-SPACE FUNCTION ZN,SizingPeriod: FORT MCMURRAY AP ANN HTG 99.6% CONDNS DB,5.6836169950E-002,0.3470385320,Pass,Pass,0.4214458201,3.1786211622,Pass,Pass
 Warmup Convergence Information,LOCKER ROOM-SCH-C-SPACE FUNCTION ZN,SizingPeriod: FORT MCMURRAY AP ANN HTG 99.6% CONDNS DB,5.6359174512E-002,0.3535946049,Pass,Pass,0.7144416937,3.9483487642,Pass,Pass
 Warmup Convergence Information,LOCKER ROOM-SCH-D-SPACE FUNCTION ZN,SizingPeriod: FORT MCMURRAY AP ANN HTG 99.6% CONDNS DB,5.6449448123E-002,0.3532025295,Pass,Pass,0.5741376097,4.4190052086,Pass,Pass
 Warmup Convergence Information,LOCKER ROOM-SCH-E-SPACE FUNCTION ZN,SizingPeriod: FORT MCMURRAY AP ANN HTG 99.6% CONDNS DB,5.6412649111E-002,0.3532693138,Pass,Pass,0.1842335367,0.5891020961,Pass,Pass
 Warmup Convergence Information,LOCKER ROOM-SCH-F-SPACE FUNCTION ZN,SizingPeriod: FORT MCMURRAY AP ANN HTG 99.6% CONDNS DB,5.6710022838E-002,0.3501953343,Pass,Pass,0.1475908432,0.5928411130,Pass,Pass
 Warmup Convergence Information,LOCKER ROOM-SCH-G-SPACE FUNCTION ZN,SizingPeriod: FORT MCMURRAY AP ANN HTG 99.6% CONDNS DB,5.6739586442E-002,0.3500041694,Pass,Pass,0.2328383976,1.1422117745,Pass,Pass
 Warmup Convergence Information,LOCKER ROOM-SCH-H-SPACE FUNCTION ZN,SizingPeriod: FORT MCMURRAY AP ANN HTG 99.6% CONDNS DB,5.6938482705E-002,0.3481617727,Pass,Pass,0.1560527351,0.8331959759,Pass,Pass
 Warmup Convergence Information,LOCKER ROOM-SCH-I-SPACE FUNCTION ZN,SizingPeriod: FORT MCMURRAY AP ANN HTG 99.6% CONDNS DB,5.6469926050E-002,0.3515990716,Pass,Pass,0.1270061203,0.3635411741,Pass,Pass
 Warmup Convergence Information,LOUNGE/RECREATION-SPACE FUNCTION ZN,SizingPeriod: FORT MCMURRAY AP ANN HTG 99.6% CONDNS DB,5.6544515455E-002,0.3519958672,Pass,Pass,0.3960006479,1.5312424201,Pass,Pass
 Warmup Convergence Information,MFG - 7.5 <= BAY H <= 15M-SPACE FUNCTION ZN,SizingPeriod: FORT MCMURRAY AP ANN HTG 99.6% CONDNS DB,5.5867987441E-002,0.3591383163,Pass,Pass,0.3621916186,2.1619398646,Pass,Pass
 Warmup Convergence Information,MFG - BAY H < 7.5M-SPACE FUNCTION ZN,SizingPeriod: FORT MCMURRAY AP ANN HTG 99.6% CONDNS DB,5.5801518504E-002,0.3602521997,Pass,Pass,0.2015057356,1.2014116453,Pass,Pass
 Warmup Convergence Information,MFG - BAY H > 15M-SPACE FUNCTION ZN,SizingPeriod: FORT MCMURRAY AP ANN HTG 99.6% CONDNS DB,5.5646412863E-002,0.3619211985,Pass,Pass,0.1920810711,0.7467188661,Pass,Pass
 Warmup Convergence Information,MFG - DETAILED-SPACE FUNCTION ZN,SizingPeriod: FORT MCMURRAY AP ANN HTG 99.6% CONDNS DB,5.5627068547E-002,0.3623090074,Pass,Pass,0.1519561511,0.4028551799,Pass,Pass
 Warmup Convergence Information,MFG - EQUIPMENT-SPACE FUNCTION ZN,SizingPeriod: FORT MCMURRAY AP ANN HTG 99.6% CONDNS DB,5.5604818098E-002,0.3627507789,Pass,Pass,0.3063634917,1.0437474582,Pass,Pass
 Warmup Convergence Information,MUSEUM - EXHIBITION-SPACE FUNCTION ZN,SizingPeriod: FORT MCMURRAY AP ANN HTG 99.6% CONDNS DB,5.5555555556E-002,0.3735398597,Pass,Pass,0.1077660177,0.3380855340,Pass,Pass
 Warmup Convergence Information,MUSEUM - RESTORATION-SPACE FUNCTION ZN,SizingPeriod: FORT MCMURRAY AP ANN HTG 99.6% CONDNS DB,5.6880145878E-002,0.3475580714,Pass,Pass,0.4494260672,3.3880832256,Pass,Pass
 Warmup Convergence Information,OFFICE - ENCLOSED - OCCSENS-SPACE FUNCTION ZN,SizingPeriod: FORT MCMURRAY AP ANN HTG 99.6% CONDNS DB,5.9941119371E-002,0.3189630181,Pass,Pass,0.3521548681,1.3974767475,Pass,Pass
 Warmup Convergence Information,OFFICE - ENCLOSED-SPACE FUNCTION ZN,SizingPeriod: FORT MCMURRAY AP ANN HTG 99.6% CONDNS DB,6.0084166468E-002,0.3198460550,Pass,Pass,0.7563784174,4.1382474996,Pass,Pass
 Warmup Convergence Information,OFFICE - OPEN PLAN-SPACE FUNCTION ZN,SizingPeriod: FORT MCMURRAY AP ANN HTG 99.6% CONDNS DB,5.9863143414E-002,0.3186292624,Pass,Pass,0.3048457980,1.1192720638,Pass,Pass
 Warmup Convergence Information,PARKING GARAGE SPACE-SPACE FUNCTION ZN,SizingPeriod: FORT MCMURRAY AP ANN HTG 99.6% CONDNS DB,5.5555555556E-002,0.3805000851,Pass,Pass,5.2667268216E-002,0.1946880590,Pass,Pass
 Warmup Convergence Information,PENITENTIARY - AUDIENCE-SPACE FUNCTION ZN,SizingPeriod: FORT MCMURRAY AP ANN HTG 99.6% CONDNS DB,5.5555555556E-002,0.3761103803,Pass,Pass,0.1149328727,0.2469156859,Pass,Pass
 Warmup Convergence Information,PENITENTIARY - CLASSROOM-SPACE FUNCTION ZN,SizingPeriod: FORT MCMURRAY AP ANN HTG 99.6% CONDNS DB,5.5555555556E-002,0.3820387410,Pass,Pass,0.2508362886,1.2691372124,Pass,Pass
 Warmup Convergence Information,PENITENTIARY - DINING-SPACE FUNCTION ZN,SizingPeriod: FORT MCMURRAY AP ANN HTG 99.6% CONDNS DB,5.5555555556E-002,0.3875907997,Pass,Pass,3.0924237417,34.8553454785,Pass,Pass
 Warmup Convergence Information,POST OFFICE SORTING-SPACE FUNCTION ZN,SizingPeriod: FORT MCMURRAY AP ANN HTG 99.6% CONDNS DB,5.6662041434E-002,0.3500482761,Pass,Pass,0.3062944032,1.2243167725,Pass,Pass
 Warmup Convergence Information,RELIGIOUS - AUDIENCE-SPACE FUNCTION ZN,SizingPeriod: FORT MCMURRAY AP ANN HTG 99.6% CONDNS DB,5.5555555556E-002,0.3870752684,Pass,Pass,0.1074483778,0.3433872230,Pass,Pass
 Warmup Convergence Information,RELIGIOUS - FELLOWSHIP HALL-SPACE FUNCTION ZN,SizingPeriod: FORT MCMURRAY AP ANN HTG 99.6% CONDNS DB,5.5555555556E-002,0.3872505199,Pass,Pass,0.1943117781,0.7630018561,Pass,Pass
 Warmup Convergence Information,RELIGIOUS - PULPIT/CHOIR-SPACE FUNCTION ZN,SizingPeriod: FORT MCMURRAY AP ANN HTG 99.6% CONDNS DB,5.5555555556E-002,0.3870949464,Pass,Pass,0.1086189645,0.3114229377,Pass,Pass
 Warmup Convergence Information,RETAIL - DRESSING/FITTING-SPACE FUNCTION ZN,SizingPeriod: FORT MCMURRAY AP ANN HTG 99.6% CONDNS DB,5.5845448121E-002,0.3604068211,Pass,Pass,0.3215633948,1.2719159463,Pass,Pass
 Warmup Convergence Information,RETAIL - MALL CONCOURSE-SPACE FUNCTION ZN,SizingPeriod: FORT MCMURRAY AP ANN HTG 99.6% CONDNS DB,5.5555555556E-002,0.3701111510,Pass,Pass,0.2363298496,1.3336393321,Pass,Pass
 Warmup Convergence Information,RETAIL - SALES-SPACE FUNCTION ZN,SizingPeriod: FORT MCMURRAY AP ANN HTG 99.6% CONDNS DB,5.5851557899E-002,0.3597872083,Pass,Pass,0.1728098997,0.5686530258,Pass,Pass
 Warmup Convergence Information,SALES AREA-SPACE FUNCTION ZN,SizingPeriod: FORT MCMURRAY AP ANN HTG 99.6% CONDNS DB,5.5876837242E-002,0.3601193828,Pass,Pass,0.5672471706,4.8922345719,Pass,Pass
 Warmup Convergence Information,SPORTS ARENA - AUDIENCE-SPACE FUNCTION ZN,SizingPeriod: FORT MCMURRAY AP ANN HTG 99.6% CONDNS DB,5.5555555556E-002,0.3950293020,Pass,Pass,0.3115685126,1.1273397348,Pass,Pass
 Warmup Convergence Information,SPORTS ARENA - COURT C1-SPACE FUNCTION ZN,SizingPeriod: FORT MCMURRAY AP ANN HTG 99.6% CONDNS DB,5.5578844578E-002,0.3638909074,Pass,Pass,0.1532478513,0.7303640476,Pass,Pass
 Warmup Convergence Information,SPORTS ARENA - COURT C2-SPACE FUNCTION ZN,SizingPeriod: FORT MCMURRAY AP ANN HTG 99.6% CONDNS DB,5.5555555556E-002,0.3669365901,Pass,Pass,0.2126306565,0.6772381544,Pass,Pass
 Warmup Convergence Information,SPORTS ARENA - COURT C3-SPACE FUNCTION ZN,SizingPeriod: FORT MCMURRAY AP ANN HTG 99.6% CONDNS DB,5.5555555556E-002,0.3671215844,Pass,Pass,0.1992852654,0.8772536273,Pass,Pass
 Warmup Convergence Information,SPORTS ARENA - COURT C4-SPACE FUNCTION ZN,SizingPeriod: FORT MCMURRAY AP ANN HTG 99.6% CONDNS DB,5.5555555556E-002,0.3671632140,Pass,Pass,0.2038303328,0.7102364313,Pass,Pass
 Warmup Convergence Information,SPORTS ARENA - RING-SPACE FUNCTION ZN,SizingPeriod: FORT MCMURRAY AP ANN HTG 99.6% CONDNS DB,5.5579915520E-002,0.3635122369,Pass,Pass,0.1652429249,0.8067724093,Pass,Pass
 Warmup Convergence Information,STORAGE AREA - OCCSENS-SPACE FUNCTION ZN,SizingPeriod: FORT MCMURRAY AP ANN HTG 99.6% CONDNS DB,6.0491822033E-002,0.3155113086,Pass,Pass,0.1034716050,0.3204365811,Pass,Pass
 Warmup Convergence Information,STORAGE AREA - REFRIGERATED - OCCSENS-SPACE FUNCTION ZN,SizingPeriod: FORT MCMURRAY AP ANN HTG 99.6% CONDNS DB,6.0411960854E-002,0.3160355406,Pass,Pass,0.1124490886,0.4280832040,Pass,Pass
 Warmup Convergence Information,STORAGE AREA - REFRIGERATED-SPACE FUNCTION ZN,SizingPeriod: FORT MCMURRAY AP ANN HTG 99.6% CONDNS DB,6.0286603106E-002,0.3172405770,Pass,Pass,0.1075833052,0.3151638250,Pass,Pass
 Warmup Convergence Information,STORAGE AREA-SPACE FUNCTION ZN,SizingPeriod: FORT MCMURRAY AP ANN HTG 99.6% CONDNS DB,6.0302463936E-002,0.3174687514,Pass,Pass,0.1098692903,0.3310956781,Pass,Pass
 Warmup Convergence Information,TRANSP. BAGGAGE-SPACE FUNCTION ZN,SizingPeriod: FORT MCMURRAY AP ANN HTG 99.6% CONDNS DB,5.7486534246E-002,0.3421944428,Pass,Pass,0.5340282112,5.4059112065,Pass,Pass
 Warmup Convergence Information,TRANSP. CONCOURSE-SPACE FUNCTION ZN,SizingPeriod: FORT MCMURRAY AP ANN HTG 99.6% CONDNS DB,5.5555555556E-002,0.3893652753,Pass,Pass,0.4154467056,3.2769355939,Pass,Pass
 Warmup Convergence Information,TRANSP. COUNTER-SPACE FUNCTION ZN,SizingPeriod: FORT MCMURRAY AP ANN HTG 99.6% CONDNS DB,5.7487138926E-002,0.3420120230,Pass,Pass,0.2380640241,1.8921253082,Pass,Pass
 Warmup Convergence Information,TRANSP. SEATING-SPACE FUNCTION ZN,SizingPeriod: FORT MCMURRAY AP ANN HTG 99.6% CONDNS DB,5.5555555556E-002,0.3892511009,Pass,Pass,0.2792069315,1.2096903586,Pass,Pass
 Warmup Convergence Information,WAREHOUSE - FINE - REFRIGERATED-SPACE FUNCTION ZN,SizingPeriod: FORT MCMURRAY AP ANN HTG 99.6% CONDNS DB,6.1745219696E-002,0.3111169657,Pass,Pass,0.1835226273,0.7285013477,Pass,Pass
 Warmup Convergence Information,WAREHOUSE - FINE-SPACE FUNCTION ZN,SizingPeriod: FORT MCMURRAY AP ANN HTG 99.6% CONDNS DB,6.1153067620E-002,0.3121951509,Pass,Pass,0.1403631754,0.4671822583,Pass,Pass
 Warmup Convergence Information,WAREHOUSE - MED/BLK - REFRIGERATED-SPACE FUNCTION ZN,SizingPeriod: FORT MCMURRAY AP ANN HTG 99.6% CONDNS DB,5.7085103145E-002,0.3331613867,Pass,Pass,4.2275200166E-002,0.1605862911,Pass,Pass
 Warmup Convergence Information,WAREHOUSE - MED/BLK-SPACE FUNCTION ZN,SizingPeriod: FORT MCMURRAY AP ANN HTG 99.6% CONDNS DB,6.1948193884E-002,0.3131954280,Pass,Pass,0.1667123867,0.6696228325,Pass,Pass
 Warmup Convergence Information,WAREHOUSE - MED/BLK2 - REFRIGERATED-SPACE FUNCTION ZN,SizingPeriod: FORT MCMURRAY AP ANN HTG 99.6% CONDNS DB,6.7177992116E-002,0.3054907818,Pass,Pass,0.6341020886,5.1561248775,Pass,Pass
 Warmup Convergence Information,WAREHOUSE - MED/BLK2-SPACE FUNCTION ZN,SizingPeriod: FORT MCMURRAY AP ANN HTG 99.6% CONDNS DB,6.1445609720E-002,0.3096452015,Pass,Pass,0.1845412039,0.7495435723,Pass,Pass
 Warmup Convergence Information,WHOLEBUILDING-AUTOMOTIVE FACILITY ZN,SizingPeriod: FORT MCMURRAY AP ANN HTG 99.6% CONDNS DB,5.5555555556E-002,0.3645646327,Pass,Pass,5.1160225311E-002,0.1606504812,Pass,Pass
 Warmup Convergence Information,WHOLEBUILDING-CONVENTION CENTRE ZN,SizingPeriod: FORT MCMURRAY AP ANN HTG 99.6% CONDNS DB,5.5925391206E-002,0.3538587891,Pass,Pass,5.2142873495E-002,0.1514011029,Pass,Pass
 Warmup Convergence Information,WHOLEBUILDING-COURTHOUSE ZN,SizingPeriod: FORT MCMURRAY AP ANN HTG 99.6% CONDNS DB,5.6733940587E-002,0.3393745848,Pass,Pass,6.6988129349E-002,0.2310821700,Pass,Pass
 Warmup Convergence Information,WHOLEBUILDING-DINING - BAR/LOUNGE ZN,SizingPeriod: FORT MCMURRAY AP ANN HTG 99.6% CONDNS DB,5.5593059657E-002,0.3637593087,Pass,Pass,0.5428176779,4.2188957975,Pass,Pass
 Warmup Convergence Information,WHOLEBUILDING-DINING - CAFETERIA ZN,SizingPeriod: FORT MCMURRAY AP ANN HTG 99.6% CONDNS DB,5.5616804828E-002,0.3633994875,Pass,Pass,0.4064316924,1.5155234972,Pass,Pass
 Warmup Convergence Information,WHOLEBUILDING-DINING - FAMILY ZN,SizingPeriod: FORT MCMURRAY AP ANN HTG 99.6% CONDNS DB,5.5637207636E-002,0.3632597225,Pass,Pass,0.1700909298,0.4273539896,Pass,Pass
 Warmup Convergence Information,WHOLEBUILDING-DORMITORY ZN,SizingPeriod: FORT MCMURRAY AP ANN HTG 99.6% CONDNS DB,6.3187295139E-002,0.3090078931,Pass,Pass,0.2709764951,1.0565655747,Pass,Pass
 Warmup Convergence Information,WHOLEBUILDING-EXERCISE CENTRE ZN,SizingPeriod: FORT MCMURRAY AP ANN HTG 99.6% CONDNS DB,5.5701986443E-002,0.3626793999,Pass,Pass,0.2929943040,0.9509486861,Pass,Pass
 Warmup Convergence Information,WHOLEBUILDING-FIRE STATION ZN,SizingPeriod: FORT MCMURRAY AP ANN HTG 99.6% CONDNS DB,5.7954232479E-002,0.3382161185,Pass,Pass,0.3959584954,2.4970217047,Pass,Pass
 Warmup Convergence Information,WHOLEBUILDING-GYMNASIUM ZN,SizingPeriod: FORT MCMURRAY AP ANN HTG 99.6% CONDNS DB,5.5641545469E-002,0.3629218659,Pass,Pass,0.4783163259,2.2029689550,Pass,Pass
 Warmup Convergence Information,WHOLEBUILDING-HEALTH-CARE CLINIC ZN,SizingPeriod: FORT MCMURRAY AP ANN HTG 99.6% CONDNS DB,5.5555555556E-002,0.3779235081,Pass,Pass,0.2200412864,0.7764878742,Pass,Pass
 Warmup Convergence Information,WHOLEBUILDING-HOSPITAL ZN,SizingPeriod: FORT MCMURRAY AP ANN HTG 99.6% CONDNS DB,5.5555555556E-002,0.3762779335,Pass,Pass,2.0470938504,23.5114093896,Pass,Pass
 Warmup Convergence Information,WHOLEBUILDING-HOTEL ZN,SizingPeriod: FORT MCMURRAY AP ANN HTG 99.6% CONDNS DB,6.1115265247E-002,0.3184924033,Pass,Pass,1.5255314291,12.7050318384,Pass,Pass
 Warmup Convergence Information,WHOLEBUILDING-LIBRARY ZN,SizingPeriod: FORT MCMURRAY AP ANN HTG 99.6% CONDNS DB,5.7845639284E-002,0.3377950646,Pass,Pass,0.2418170131,1.3444061595,Pass,Pass
 Warmup Convergence Information,WHOLEBUILDING-MANUFACTURING FACILITY ZN,SizingPeriod: FORT MCMURRAY AP ANN HTG 99.6% CONDNS DB,5.6090404957E-002,0.3567881677,Pass,Pass,0.4026584998,2.9111008778,Pass,Pass
 Warmup Convergence Information,WHOLEBUILDING-MOTEL ZN,SizingPeriod: FORT MCMURRAY AP ANN HTG 99.6% CONDNS DB,6.1065923639E-002,0.3188411200,Pass,Pass,0.4682576540,3.4771039473,Pass,Pass
 Warmup Convergence Information,WHOLEBUILDING-MOTION PICTURE THEATRE ZN,SizingPeriod: FORT MCMURRAY AP ANN HTG 99.6% CONDNS DB,5.9060850795E-002,0.3288387547,Pass,Pass,0.8577326447,6.3264827202,Pass,Pass
 Warmup Convergence Information,WHOLEBUILDING-MULTI-UNIT RESIDENTIAL ZN,SizingPeriod: FORT MCMURRAY AP ANN HTG 99.6% CONDNS DB,6.1735800087E-002,0.3190742259,Pass,Pass,0.2691435432,1.6798282655,Pass,Pass
 Warmup Convergence Information,WHOLEBUILDING-MUSEUM ZN,SizingPeriod: FORT MCMURRAY AP ANN HTG 99.6% CONDNS DB,5.9321364573E-002,0.3274719428,Pass,Pass,0.2311939514,0.8744721496,Pass,Pass
 Warmup Convergence Information,WHOLEBUILDING-OFFICE ZN,SizingPeriod: FORT MCMURRAY AP ANN HTG 99.6% CONDNS DB,6.0276511568E-002,0.3169865756,Pass,Pass,0.3281544179,1.0174998488,Pass,Pass
 Warmup Convergence Information,WHOLEBUILDING-PARKING GARAGE ZN,SizingPeriod: FORT MCMURRAY AP ANN HTG 99.6% CONDNS DB,6.2085276483E-002,0.3145499820,Pass,Pass,0.1297148288,0.5153806210,Pass,Pass
 Warmup Convergence Information,WHOLEBUILDING-PENITENTIARY ZN,SizingPeriod: FORT MCMURRAY AP ANN HTG 99.6% CONDNS DB,6.5269279337E-002,0.3018498152,Pass,Pass,0.2470057860,1.4958525447,Pass,Pass
 Warmup Convergence Information,WHOLEBUILDING-PERFORMING ARTS THEATRE ZN,SizingPeriod: FORT MCMURRAY AP ANN HTG 99.6% CONDNS DB,5.8134676668E-002,0.3364383352,Pass,Pass,0.2886173764,1.2893397667,Pass,Pass
 Warmup Convergence Information,WHOLEBUILDING-POLICE STATION ZN,SizingPeriod: FORT MCMURRAY AP ANN HTG 99.6% CONDNS DB,6.2788280646E-002,0.3072920723,Pass,Pass,0.1664319747,0.9455164525,Pass,Pass
 Warmup Convergence Information,WHOLEBUILDING-POST OFFICE ZN,SizingPeriod: FORT MCMURRAY AP ANN HTG 99.6% CONDNS DB,5.7030729357E-002,0.3434108466,Pass,Pass,0.1951319238,0.6632490832,Pass,Pass
 Warmup Convergence Information,WHOLEBUILDING-RELIGIOUS ZN,SizingPeriod: FORT MCMURRAY AP ANN HTG 99.6% CONDNS DB,5.6973314276E-002,0.3423017646,Pass,Pass,0.1123303814,0.3609331446,Pass,Pass
 Warmup Convergence Information,WHOLEBUILDING-RETAIL ZN,SizingPeriod: FORT MCMURRAY AP ANN HTG 99.6% CONDNS DB,6.1411984987E-002,0.3113197928,Pass,Pass,0.3100213730,1.7500646926,Pass,Pass
 Warmup Convergence Information,WHOLEBUILDING-SCHOOL/UNIVERSITY ZN,SizingPeriod: FORT MCMURRAY AP ANN HTG 99.6% CONDNS DB,5.7174606190E-002,0.3431230971,Pass,Pass,0.2231116310,1.1449404383,Pass,Pass
 Warmup Convergence Information,WHOLEBUILDING-SPORTS ARENA ZN,SizingPeriod: FORT MCMURRAY AP ANN HTG 99.6% CONDNS DB,5.7721704070E-002,0.3393829421,Pass,Pass,0.2967696144,1.1941123939,Pass,Pass
 Warmup Convergence Information,WHOLEBUILDING-TOWN HALL ZN,SizingPeriod: FORT MCMURRAY AP ANN HTG 99.6% CONDNS DB,6.0064653679E-002,0.3182403626,Pass,Pass,0.4273431909,2.3988838944,Pass,Pass
 Warmup Convergence Information,WHOLEBUILDING-TRANSPORTATION ZN,SizingPeriod: FORT MCMURRAY AP ANN HTG 99.6% CONDNS DB,5.9743890896E-002,0.3239077647,Pass,Pass,0.2260147935,0.6843860104,Pass,Pass
 Warmup Convergence Information,WORKSHOP SPACE-SPACE FUNCTION ZN,SizingPeriod: FORT MCMURRAY AP ANN HTG 99.6% CONDNS DB,5.5555555556E-002,0.3742869423,Pass,Pass,0.2021635160,0.8653632390,Pass,Pass
! <Program Control Information:Threads/Parallel Sims>, Threading Supported,Maximum Number of Threads, Env Set Threads (OMP_NUM_THREADS), EP Env Set Threads (EP_OMP_NUM_THREADS), IDF Set Threads, Number of Threads Used (Interior Radiant Exchange), Number Nominal Surfaces, Number Parallel Sims
Program Control:Threads/Parallel Sims, No,1, N/A, N/A, N/A, N/A, N/A, N/A
End of Data
