Program Version,EnergyPlus, Version 8.9.0-eba93e8e1b, YMD=2019.03.19 18:42
! <Version>, Version ID
 Version, 8.9
! <Timesteps per Hour>, #TimeSteps, Minutes per TimeStep {minutes}
 Timesteps per Hour,  6, 10
! <System Convergence Limits>, Minimum System TimeStep {minutes}, Max HVAC Iterations, Minimum Plant Iterations, Maximum Plant Iterations
 System Convergence Limits, 1, 20, 2, 8
! <Simulation Control>, Do Zone Sizing, Do System Sizing, Do Plant Sizing, Do Design Days, Do Weather Simulation, Do HVAC Sizing Simulation
 Simulation Control, Yes, No, No, Yes, No, No
! <Output Reporting Tolerances>, Tolerance for Time Heating Setpoint Not Met, Tolerance for Zone Cooling Setpoint Not Met Time
 Output Reporting Tolerances, 0.200, 0.200, 
! <Site:GroundTemperature:BuildingSurface>,Jan{C},Feb{C},Mar{C},Apr{C},May{C},Jun{C},Jul{C},Aug{C},Sep{C},Oct{C},Nov{C},Dec{C}
 Site:GroundTemperature:BuildingSurface,  19.53,  19.50,  19.54,  19.60,  20.00,  21.64,  22.23,  22.38,  21.45,  20.12,  19.80,  19.63
! <Site:GroundTemperature:FCfactorMethod>,Jan{C},Feb{C},Mar{C},Apr{C},May{C},Jun{C},Jul{C},Aug{C},Sep{C},Oct{C},Nov{C},Dec{C}
 Site:GroundTemperature:FCfactorMethod, -12.27, -13.66, -11.19,  -7.33,   2.77,  10.57,  15.83,  17.43,  14.70,   8.65,   0.56,  -6.95
! <Site:GroundTemperature:Shallow>,Jan{C},Feb{C},Mar{C},Apr{C},May{C},Jun{C},Jul{C},Aug{C},Sep{C},Oct{C},Nov{C},Dec{C}
 Site:GroundTemperature:Shallow,  13.00,  13.00,  13.00,  13.00,  13.00,  13.00,  13.00,  13.00,  13.00,  13.00,  13.00,  13.00
! <Site:GroundTemperature:Deep>,Jan{C},Feb{C},Mar{C},Apr{C},May{C},Jun{C},Jul{C},Aug{C},Sep{C},Oct{C},Nov{C},Dec{C}
 Site:GroundTemperature:Deep,  16.00,  16.00,  16.00,  16.00,  16.00,  16.00,  16.00,  16.00,  16.00,  16.00,  16.00,  16.00
! <Site:GroundReflectance>,Jan{dimensionless},Feb{dimensionless},Mar{dimensionless},Apr{dimensionless},May{dimensionless},Jun{dimensionless},Jul{dimensionless},Aug{dimensionless},Sep{dimensionless},Oct{dimensionless},Nov{dimensionless},Dec{dimensionless}
 Site:GroundReflectance,  0.20,  0.20,  0.20,  0.20,  0.20,  0.20,  0.20,  0.20,  0.20,  0.20,  0.20,  0.20
! <Site:GroundReflectance:SnowModifier>, Normal, Daylighting {dimensionless}
 Site:GroundReflectance:SnowModifier,   1.000,   1.000
! <Site:GroundReflectance:Snow>,Jan{dimensionless},Feb{dimensionless},Mar{dimensionless},Apr{dimensionless},May{dimensionless},Jun{dimensionless},Jul{dimensionless},Aug{dimensionless},Sep{dimensionless},Oct{dimensionless},Nov{dimensionless},Dec{dimensionless}
 Site:GroundReflectance:Snow,  0.20,  0.20,  0.20,  0.20,  0.20,  0.20,  0.20,  0.20,  0.20,  0.20,  0.20,  0.20
! <Site:GroundReflectance:Snow:Daylighting>,Jan{dimensionless},Feb{dimensionless},Mar{dimensionless},Apr{dimensionless},May{dimensionless},Jun{dimensionless},Jul{dimensionless},Aug{dimensionless},Sep{dimensionless},Oct{dimensionless},Nov{dimensionless},Dec{dimensionless}
 Site:GroundReflectance:Snow:Daylighting,  0.20,  0.20,  0.20,  0.20,  0.20,  0.20,  0.20,  0.20,  0.20,  0.20,  0.20,  0.20
! <Environment:Weather Station>,Wind Sensor Height Above Ground {m},Wind Speed Profile Exponent {},Wind Speed Profile Boundary Layer Thickness {m},Air Temperature Sensor Height Above Ground {m},Wind Speed Modifier Coefficient-Internal,Temperature Modifier Coefficient-Internal
Environment:Weather Station,10.000,0.140,270.000,1.500,1.586,9.750E-003
! <Site:Location>, Location Name, Latitude {N+/S- Deg}, Longitude {E+/W- Deg},  Time Zone Number {GMT+/-}, Elevation {m},  Standard Pressure at Elevation {Pa}, Standard RhoAir at Elevation
Site:Location,Fort McMurray AP AB CAN CWEC2016 WMO#=716890,56.65,-111.22,-7.00,369.10,96969,1.1525
! <Building Information>, Building Name,North Axis {deg},Terrain,  Loads Convergence Tolerance Value,Temperature Convergence Tolerance Value,  Solar Distribution,Maximum Number of Warmup Days,Minimum Number of Warmup Days
 Building Information,Building 1,0.000,Suburbs,4.00000E-002,0.40000,FullExterior,25,6
! <Inside Convection Algorithm>, Algorithm {Simple | TARP | CeilingDiffuser | AdaptiveConvectionAlgorithm}
Inside Convection Algorithm,TARP
! <Outside Convection Algorithm>, Algorithm {SimpleCombined | TARP | MoWitt | DOE-2 | AdaptiveConvectionAlgorithm}
Outside Convection Algorithm,TARP
! <Sky Radiance Distribution>, Value {Anisotropic}
Sky Radiance Distribution,Anisotropic
! <Zone Air Solution Algorithm>, Value {ThirdOrderBackwardDifference | AnalyticalSolution | EulerMethod}
 Zone Air Solution Algorithm, ThirdOrderBackwardDifference
! <Zone Air Carbon Dioxide Balance Simulation>, Simulation {Yes/No}, Carbon Dioxide Concentration
 Zone Air Carbon Dioxide Balance Simulation, No,N/A
! <Zone Air Generic Contaminant Balance Simulation>, Simulation {Yes/No}, Generic Contaminant Concentration
 Zone Air Generic Contaminant Balance Simulation, No,N/A
! <Zone Air Mass Flow Balance Simulation>, Enforce Mass Balance, Adjust Zone Mixing, Adjust Zone Infiltration {AddInfiltration | AdjustInfiltration | None}, Infiltration Zones {MixingSourceZonesOnly | AllZones}
 Zone Air Mass Flow Balance Simulation, No,N/A,N/A,N/A
! <HVACSystemRootFindingAlgorithm>, Value {RegulaFalsi | Bisection | BisectionThenRegulaFalsi | RegulaFalsiThenBisection}
 HVACSystemRootFindingAlgorithm, RegulaFalsi
! <Environment:Site Atmospheric Variation>,Wind Speed Profile Exponent {},Wind Speed Profile Boundary Layer Thickness {m},Air Temperature Gradient Coefficient {K/m}
Environment:Site Atmospheric Variation,0.220,370.000,6.500000E-003
! <Surface Geometry>,Starting Corner,Vertex Input Direction,Coordinate System,Daylight Reference Point Coordinate System,Rectangular (Simple) Surface Coordinate System
 Surface Geometry,UpperLeftCorner,Counterclockwise,RelativeCoordinateSystem,RelativeCoordinateSystem,RelativeToZoneOrigin
! <Surface Heat Transfer Algorithm>, Value {CTF - ConductionTransferFunction | EMPD - MoisturePenetrationDepthConductionTransferFunction | CondFD - ConductionFiniteDifference | HAMT - CombinedHeatAndMoistureFiniteElement} - Description,Inside Surface Max Temperature Limit{C}, Surface Convection Coefficient Lower Limit {W/m2-K}, Surface Convection Coefficient Upper Limit {W/m2-K}
Surface Heat Transfer Algorithm, CTF - ConductionTransferFunction,200,0.10,1000.0
! <Shading Summary>, Number of Fixed Detached Shades, Number of Building Detached Shades, Number of Attached Shades
 Shading Summary,0,0,0
! <Zone Summary>, Number of Zones, Number of Zone Surfaces, Number of SubSurfaces
 Zone Summary,20,137,17
! <Zone Information>,Zone Name,North Axis {deg},Origin X-Coordinate {m},Origin Y-Coordinate {m},Origin Z-Coordinate {m},Centroid X-Coordinate {m},Centroid Y-Coordinate {m},Centroid Z-Coordinate {m},Type,Zone Multiplier,Zone List Multiplier,Minimum X {m},Maximum X {m},Minimum Y {m},Maximum Y {m},Minimum Z {m},Maximum Z {m},Ceiling Height {m},Volume {m3},Zone Inside Convection Algorithm {Simple-Detailed-CeilingDiffuser-TrombeWall},Zone Outside Convection Algorithm {Simple-Detailed-Tarp-MoWitt-DOE-2-BLAST}, Floor Area {m2},Exterior Gross Wall Area {m2},Exterior Net Wall Area {m2},Exterior Window Area {m2}, Number of Surfaces, Number of SubSurfaces, Number of Shading SubSurfaces,  Part of Total Building Area
 Zone Information, PENITENTIARY - DINING-SPACE FUNCTION ZN,0.0,25.00,25.00,11.40,50.00,50.00,13.30,1,1,1,25.00,75.00,25.00,75.00,11.40,15.20,3.80,9500.00,TARP,TARP,2500.00,0.00,0.00,125.00,6,1,0,Yes
 Zone Information, POST OFFICE SORTING-SPACE FUNCTION ZN,0.0,0.00,0.00,11.40,50.00,10.85,13.30,1,1,1,0.00,100.00,0.00,25.00,11.40,15.20,3.80,7125.00,TARP,TARP,1875.00,380.00,285.00,188.75,6,2,0,Yes
 Zone Information, RELIGIOUS - AUDIENCE-SPACE FUNCTION ZN,0.0,75.00,25.00,11.40,89.15,50.00,13.30,1,1,1,75.00,100.00,0.00,100.00,11.40,15.20,3.80,7125.00,TARP,TARP,1875.00,380.00,285.00,188.75,6,2,0,Yes
 Zone Information, RELIGIOUS - FELLOWSHIP HALL-SPACE FUNCTION ZN,0.0,25.00,75.00,11.40,50.00,89.15,13.30,1,1,1,0.00,100.00,75.00,100.00,11.40,15.20,3.80,7125.00,TARP,TARP,1875.00,380.00,285.00,188.75,6,2,0,Yes
 Zone Information, RELIGIOUS - PULPIT/CHOIR-SPACE FUNCTION ZN,0.0,75.00,25.00,7.60,89.15,50.00,9.50,1,1,1,75.00,100.00,0.00,100.00,7.60,11.40,3.80,7125.00,TARP,TARP,1875.00,380.00,285.00,95.00,6,1,0,Yes
 Zone Information, RETAIL - DRESSING/FITTING-SPACE FUNCTION ZN,0.0,25.00,75.00,7.60,50.00,89.15,9.50,1,1,1,0.00,100.00,75.00,100.00,7.60,11.40,3.80,7125.00,TARP,TARP,1875.00,380.00,285.00,95.00,6,1,0,Yes
 Zone Information, RETAIL - MALL CONCOURSE-SPACE FUNCTION ZN,0.0,25.00,25.00,7.60,50.00,50.00,9.50,1,1,1,25.00,75.00,25.00,75.00,7.60,11.40,3.80,9500.00,TARP,TARP,2500.00,0.00,0.00,0.00,6,0,0,Yes
 Zone Information, RETAIL - SALES-SPACE FUNCTION ZN,0.0,0.00,0.00,7.60,50.00,10.85,9.50,1,1,1,0.00,100.00,0.00,25.00,7.60,11.40,3.80,7125.00,TARP,TARP,1875.00,380.00,285.00,95.00,6,1,0,Yes
 Zone Information, SALES AREA-SPACE FUNCTION ZN,0.0,0.00,0.00,0.00,10.85,50.00,1.90,1,1,1,0.00,25.00,0.00,100.00,0.00,3.80,3.80,7125.00,TARP,TARP,1875.00,0.00,0.00,0.00,6,0,0,Yes
 Zone Information, SPORTS ARENA - AUDIENCE-SPACE FUNCTION ZN,0.0,0.00,0.00,7.60,10.85,50.00,9.50,1,1,1,0.00,25.00,0.00,100.00,7.60,11.40,3.80,7125.00,TARP,TARP,1875.00,380.00,285.00,95.00,6,1,0,Yes
 Zone Information, SPORTS ARENA - COURT C1-SPACE FUNCTION ZN,0.0,75.00,25.00,0.00,89.15,50.00,1.90,1,1,1,75.00,100.00,0.00,100.00,0.00,3.80,3.80,7125.00,TARP,TARP,1875.00,0.00,0.00,0.00,6,0,0,Yes
 Zone Information, SPORTS ARENA - COURT C2-SPACE FUNCTION ZN,0.0,75.00,25.00,3.80,89.15,50.00,5.70,1,1,1,75.00,100.00,0.00,100.00,3.80,7.60,3.80,7125.00,TARP,TARP,1875.00,380.00,285.00,95.00,6,1,0,Yes
 Zone Information, SPORTS ARENA - COURT C3-SPACE FUNCTION ZN,0.0,0.00,0.00,0.00,50.00,10.85,1.90,1,1,1,0.00,100.00,0.00,25.00,0.00,3.80,3.80,7125.00,TARP,TARP,1875.00,0.00,0.00,0.00,6,0,0,Yes
 Zone Information, SPORTS ARENA - COURT C4-SPACE FUNCTION ZN,0.0,25.00,75.00,3.80,50.00,89.15,5.70,1,1,1,0.00,100.00,75.00,100.00,3.80,7.60,3.80,7125.00,TARP,TARP,1875.00,380.00,285.00,95.00,6,1,0,Yes
 Zone Information, SPORTS ARENA - RING-SPACE FUNCTION ZN,0.0,0.00,0.00,3.80,10.85,50.00,5.70,1,1,1,0.00,25.00,0.00,100.00,3.80,7.60,3.80,7125.00,TARP,TARP,1875.00,380.00,285.00,95.00,6,1,0,Yes
 Zone Information, STAIRWAY-SCH-A-SPACE FUNCTION ZN,0.0,25.00,75.00,0.00,50.00,89.15,1.90,1,1,1,0.00,100.00,75.00,100.00,0.00,3.80,3.80,7125.00,TARP,TARP,1875.00,0.00,0.00,0.00,6,0,0,Yes
 Zone Information, STAIRWAY-SCH-B-SPACE FUNCTION ZN,0.0,25.00,25.00,0.00,50.00,50.00,1.90,1,1,1,25.00,75.00,25.00,75.00,0.00,3.80,3.80,9500.00,TARP,TARP,2500.00,0.00,0.00,0.00,6,0,0,Yes
 Zone Information, STAIRWAY-SCH-C-SPACE FUNCTION ZN,0.0,0.00,0.00,3.80,50.00,10.85,5.70,1,1,1,0.00,100.00,0.00,25.00,3.80,7.60,3.80,7125.00,TARP,TARP,1875.00,380.00,285.00,95.00,6,1,0,Yes
 Zone Information, STAIRWAY-SCH-D-SPACE FUNCTION ZN,0.0,0.00,0.00,11.40,10.85,50.00,13.30,1,1,1,0.00,25.00,0.00,100.00,11.40,15.20,3.80,7125.00,TARP,TARP,1875.00,380.00,285.00,188.75,6,2,0,Yes
 Zone Information, STAIRWAY-SCH-E-SPACE FUNCTION ZN,0.0,25.00,25.00,3.80,50.00,50.00,5.70,1,1,1,25.00,75.00,25.00,75.00,3.80,7.60,3.80,9500.00,TARP,TARP,2500.00,0.00,0.00,0.00,6,0,0,Yes
! <Zone Internal Gains Nominal>,Zone Name, Floor Area {m2},# Occupants,Area per Occupant {m2/person},Occupant per Area {person/m2},Interior Lighting {W/m2},Electric Load {W/m2},Gas Load {W/m2},Other Load {W/m2},Hot Water Eq {W/m2},Steam Equipment {W/m2},Sum Loads per Area {W/m2},Outdoor Controlled Baseboard Heat
 Zone Internal Gains Nominal, PENITENTIARY - DINING-SPACE FUNCTION ZN,2500.00,250.0,10.000,10.000E-002,11.500,1.000,0.000,0.000,0.000,0.000,12.500,No
 Zone Internal Gains Nominal, POST OFFICE SORTING-SPACE FUNCTION ZN,1875.00,93.8,19.979,5.005E-002,10.100,7.500,0.000,0.000,0.000,0.000,17.600,No
 Zone Internal Gains Nominal, RELIGIOUS - AUDIENCE-SPACE FUNCTION ZN,1875.00,375.0,5.000,0.200,18.200,1.000,0.000,0.000,0.000,0.000,19.200,No
 Zone Internal Gains Nominal, RELIGIOUS - FELLOWSHIP HALL-SPACE FUNCTION ZN,1875.00,375.0,5.000,0.200,6.900,1.000,0.000,0.000,0.000,0.000,7.900,No
 Zone Internal Gains Nominal, RELIGIOUS - PULPIT/CHOIR-SPACE FUNCTION ZN,1875.00,375.0,5.000,0.200,18.200,1.000,0.000,0.000,0.000,0.000,19.200,No
 Zone Internal Gains Nominal, RETAIL - DRESSING/FITTING-SPACE FUNCTION ZN,1875.00,62.6,29.969,3.337E-002,8.460,2.500,0.000,0.000,0.000,0.000,10.960,No
 Zone Internal Gains Nominal, RETAIL - MALL CONCOURSE-SPACE FUNCTION ZN,2500.00,125.1,19.979,5.005E-002,11.800,1.000,0.000,0.000,0.000,0.000,12.800,No
 Zone Internal Gains Nominal, RETAIL - SALES-SPACE FUNCTION ZN,1875.00,62.6,29.969,3.337E-002,18.100,2.500,0.000,0.000,0.000,0.000,20.600,No
 Zone Internal Gains Nominal, SALES AREA-SPACE FUNCTION ZN,1875.00,62.6,29.969,3.337E-002,18.100,2.500,0.000,0.000,0.000,0.000,20.600,No
 Zone Internal Gains Nominal, SPORTS ARENA - AUDIENCE-SPACE FUNCTION ZN,1875.00,375.0,5.000,0.200,4.600,0.000,0.000,0.000,0.000,0.000,4.600,No
 Zone Internal Gains Nominal, SPORTS ARENA - COURT C1-SPACE FUNCTION ZN,1875.00,375.0,5.000,0.200,32.400,1.500,0.000,0.000,0.000,0.000,33.900,No
 Zone Internal Gains Nominal, SPORTS ARENA - COURT C2-SPACE FUNCTION ZN,1875.00,375.0,5.000,0.200,20.700,1.500,0.000,0.000,0.000,0.000,22.200,No
 Zone Internal Gains Nominal, SPORTS ARENA - COURT C3-SPACE FUNCTION ZN,1875.00,375.0,5.000,0.200,12.900,1.500,0.000,0.000,0.000,0.000,14.400,No
 Zone Internal Gains Nominal, SPORTS ARENA - COURT C4-SPACE FUNCTION ZN,1875.00,375.0,5.000,0.200,7.800,1.500,0.000,0.000,0.000,0.000,9.300,No
 Zone Internal Gains Nominal, SPORTS ARENA - RING-SPACE FUNCTION ZN,1875.00,375.0,5.000,0.200,28.800,1.500,0.000,0.000,0.000,0.000,30.300,No
 Zone Internal Gains Nominal, STAIRWAY-SCH-A-SPACE FUNCTION ZN,1875.00,9.3,201.963,4.951E-003,7.400,0.000,0.000,0.000,0.000,0.000,7.400,No
 Zone Internal Gains Nominal, STAIRWAY-SCH-B-SPACE FUNCTION ZN,2500.00,12.4,201.963,4.951E-003,7.400,0.000,0.000,0.000,0.000,0.000,7.400,No
 Zone Internal Gains Nominal, STAIRWAY-SCH-C-SPACE FUNCTION ZN,1875.00,9.3,201.963,4.951E-003,7.400,0.000,0.000,0.000,0.000,0.000,7.400,No
 Zone Internal Gains Nominal, STAIRWAY-SCH-D-SPACE FUNCTION ZN,1875.00,9.3,201.963,4.951E-003,7.400,0.000,0.000,0.000,0.000,0.000,7.400,No
 Zone Internal Gains Nominal, STAIRWAY-SCH-E-SPACE FUNCTION ZN,2500.00,12.4,201.963,4.951E-003,7.400,0.000,0.000,0.000,0.000,0.000,7.400,No
! <People Internal Gains Nominal>,Name,Schedule Name,Zone Name,Zone Floor Area {m2},# Zone Occupants,Number of People {},People/Floor Area {person/m2},Floor Area per person {m2/person},Fraction Radiant,Fraction Convected,Sensible Fraction Calculation,Activity level,ASHRAE 55 Warnings,Carbon Dioxide Generation Rate,Nominal Minimum Number of People,Nominal Maximum Number of People
 People Internal Gains Nominal, PENITENTIARY - DINING-SPACE FUNCTION ZN SPACE FUNCTION PENITENTIARY - DINING PEOPLE,NECB-B-OCCUPANCY,PENITENTIARY - DINING-SPACE FUNCTION ZN,2500.00,250.0,250.0,10.000E-002,10.000,0.300,0.700,AutoCalculate,NECB-ACTIVITY,No,3.8200E-008,0,225
 People Internal Gains Nominal, POST OFFICE SORTING-SPACE FUNCTION ZN SPACE FUNCTION POST OFFICE SORTING PEOPLE,NECB-A-OCCUPANCY,POST OFFICE SORTING-SPACE FUNCTION ZN,1875.00,93.8,93.8,5.005E-002,19.979,0.300,0.700,AutoCalculate,NECB-ACTIVITY,No,3.8200E-008,0,84
 People Internal Gains Nominal, RELIGIOUS - AUDIENCE-SPACE FUNCTION ZN SPACE FUNCTION RELIGIOUS - AUDIENCE PEOPLE,NECB-I-OCCUPANCY,RELIGIOUS - AUDIENCE-SPACE FUNCTION ZN,1875.00,375.0,375.0,0.200,5.000,0.300,0.700,AutoCalculate,NECB-ACTIVITY,No,3.8200E-008,0,300
 People Internal Gains Nominal, RELIGIOUS - FELLOWSHIP HALL-SPACE FUNCTION ZN SPACE FUNCTION RELIGIOUS - FELLOWSHIP HALL PEOPLE,NECB-C-OCCUPANCY,RELIGIOUS - FELLOWSHIP HALL-SPACE FUNCTION ZN,1875.00,375.0,375.0,0.200,5.000,0.300,0.700,AutoCalculate,NECB-ACTIVITY,No,3.8200E-008,0,337
 People Internal Gains Nominal, RELIGIOUS - PULPIT/CHOIR-SPACE FUNCTION ZN SPACE FUNCTION RELIGIOUS - PULPIT/CHOIR PEOPLE,NECB-I-OCCUPANCY,RELIGIOUS - PULPIT/CHOIR-SPACE FUNCTION ZN,1875.00,375.0,375.0,0.200,5.000,0.300,0.700,AutoCalculate,NECB-ACTIVITY,No,3.8200E-008,0,300
 People Internal Gains Nominal, RETAIL - DRESSING/FITTING-SPACE FUNCTION ZN SPACE FUNCTION RETAIL - DRESSING/FITTING PEOPLE,NECB-C-OCCUPANCY,RETAIL - DRESSING/FITTING-SPACE FUNCTION ZN,1875.00,62.6,62.6,3.337E-002,29.969,0.300,0.700,AutoCalculate,NECB-ACTIVITY,No,3.8200E-008,0,56
 People Internal Gains Nominal, RETAIL - MALL CONCOURSE-SPACE FUNCTION ZN SPACE FUNCTION RETAIL - MALL CONCOURSE PEOPLE,NECB-C-OCCUPANCY,RETAIL - MALL CONCOURSE-SPACE FUNCTION ZN,2500.00,125.1,125.1,5.005E-002,19.979,0.300,0.700,AutoCalculate,NECB-ACTIVITY,No,3.8200E-008,0,113
 People Internal Gains Nominal, RETAIL - SALES-SPACE FUNCTION ZN SPACE FUNCTION RETAIL - SALES PEOPLE,NECB-C-OCCUPANCY,RETAIL - SALES-SPACE FUNCTION ZN,1875.00,62.6,62.6,3.337E-002,29.969,0.300,0.700,AutoCalculate,NECB-ACTIVITY,No,3.8200E-008,0,56
 People Internal Gains Nominal, SALES AREA-SPACE FUNCTION ZN SPACE FUNCTION SALES AREA PEOPLE,NECB-C-OCCUPANCY,SALES AREA-SPACE FUNCTION ZN,1875.00,62.6,62.6,3.337E-002,29.969,0.300,0.700,AutoCalculate,NECB-ACTIVITY,No,3.8200E-008,0,56
 People Internal Gains Nominal, SPORTS ARENA - AUDIENCE-SPACE FUNCTION ZN SPACE FUNCTION SPORTS ARENA - AUDIENCE PEOPLE,NECB-B-OCCUPANCY,SPORTS ARENA - AUDIENCE-SPACE FUNCTION ZN,1875.00,375.0,375.0,0.200,5.000,0.300,0.700,AutoCalculate,NECB-ACTIVITY,No,3.8200E-008,0,337
 People Internal Gains Nominal, SPORTS ARENA - COURT C1-SPACE FUNCTION ZN SPACE FUNCTION SPORTS ARENA - COURT C1 PEOPLE,NECB-B-OCCUPANCY,SPORTS ARENA - COURT C1-SPACE FUNCTION ZN,1875.00,375.0,375.0,0.200,5.000,0.300,0.700,AutoCalculate,NECB-ACTIVITY,No,3.8200E-008,0,337
 People Internal Gains Nominal, SPORTS ARENA - COURT C2-SPACE FUNCTION ZN SPACE FUNCTION SPORTS ARENA - COURT C2 PEOPLE,NECB-B-OCCUPANCY,SPORTS ARENA - COURT C2-SPACE FUNCTION ZN,1875.00,375.0,375.0,0.200,5.000,0.300,0.700,AutoCalculate,NECB-ACTIVITY,No,3.8200E-008,0,337
 People Internal Gains Nominal, SPORTS ARENA - COURT C3-SPACE FUNCTION ZN SPACE FUNCTION SPORTS ARENA - COURT C3 PEOPLE,NECB-B-OCCUPANCY,SPORTS ARENA - COURT C3-SPACE FUNCTION ZN,1875.00,375.0,375.0,0.200,5.000,0.300,0.700,AutoCalculate,NECB-ACTIVITY,No,3.8200E-008,0,337
 People Internal Gains Nominal, SPORTS ARENA - COURT C4-SPACE FUNCTION ZN SPACE FUNCTION SPORTS ARENA - COURT C4 PEOPLE,NECB-B-OCCUPANCY,SPORTS ARENA - COURT C4-SPACE FUNCTION ZN,1875.00,375.0,375.0,0.200,5.000,0.300,0.700,AutoCalculate,NECB-ACTIVITY,No,3.8200E-008,0,337
 People Internal Gains Nominal, SPORTS ARENA - RING-SPACE FUNCTION ZN SPACE FUNCTION SPORTS ARENA - RING PEOPLE,NECB-B-OCCUPANCY,SPORTS ARENA - RING-SPACE FUNCTION ZN,1875.00,375.0,375.0,0.200,5.000,0.300,0.700,AutoCalculate,NECB-ACTIVITY,No,3.8200E-008,0,337
 People Internal Gains Nominal, STAIRWAY-SCH-A-SPACE FUNCTION ZN SPACE FUNCTION STAIRWAY-SCH-A PEOPLE,NECB-A-OCCUPANCY,STAIRWAY-SCH-A-SPACE FUNCTION ZN,1875.00,9.3,9.3,4.951E-003,201.963,0.300,0.700,AutoCalculate,NECB-ACTIVITY,No,3.8200E-008,0,8
 People Internal Gains Nominal, STAIRWAY-SCH-B-SPACE FUNCTION ZN SPACE FUNCTION STAIRWAY-SCH-B PEOPLE,NECB-B-OCCUPANCY,STAIRWAY-SCH-B-SPACE FUNCTION ZN,2500.00,12.4,12.4,4.951E-003,201.963,0.300,0.700,AutoCalculate,NECB-ACTIVITY,No,3.8200E-008,0,11
 People Internal Gains Nominal, STAIRWAY-SCH-C-SPACE FUNCTION ZN SPACE FUNCTION STAIRWAY-SCH-C PEOPLE,NECB-C-OCCUPANCY,STAIRWAY-SCH-C-SPACE FUNCTION ZN,1875.00,9.3,9.3,4.951E-003,201.963,0.300,0.700,AutoCalculate,NECB-ACTIVITY,No,3.8200E-008,0,8
 People Internal Gains Nominal, STAIRWAY-SCH-D-SPACE FUNCTION ZN SPACE FUNCTION STAIRWAY-SCH-D PEOPLE,NECB-D-OCCUPANCY,STAIRWAY-SCH-D-SPACE FUNCTION ZN,1875.00,9.3,9.3,4.951E-003,201.963,0.300,0.700,AutoCalculate,NECB-ACTIVITY,No,3.8200E-008,0,8
 People Internal Gains Nominal, STAIRWAY-SCH-E-SPACE FUNCTION ZN SPACE FUNCTION STAIRWAY-SCH-E PEOPLE,NECB-E-OCCUPANCY,STAIRWAY-SCH-E-SPACE FUNCTION ZN,2500.00,12.4,12.4,4.951E-003,201.963,0.300,0.700,AutoCalculate,NECB-ACTIVITY,No,3.8200E-008,0,11
! <Lights Internal Gains Nominal>,Name,Schedule Name,Zone Name,Zone Floor Area {m2},# Zone Occupants,Lighting Level {W},Lights/Floor Area {W/m2},Lights per person {W/person},Fraction Return Air,Fraction Radiant,Fraction Short Wave,Fraction Convected,Fraction Replaceable,End-Use Category,Nominal Minimum Lighting Level {W},Nominal Maximum Lighting Level {W}
 Lights Internal Gains Nominal, PENITENTIARY - DINING-SPACE FUNCTION ZN SPACE FUNCTION PENITENTIARY - DINING LIGHTS,NECB-B-LIGHTING,PENITENTIARY - DINING-SPACE FUNCTION ZN,2500.00,250.0,28749.761,11.500,115.003,0.000,0.500,0.200,0.300,1.000,General,2874.976,25874.785
 Lights Internal Gains Nominal, POST OFFICE SORTING-SPACE FUNCTION ZN SPACE FUNCTION POST OFFICE SORTING LIGHTS,NECB-A-LIGHTING,POST OFFICE SORTING-SPACE FUNCTION ZN,1875.00,93.8,18937.342,10.100,201.788,0.000,0.500,0.200,0.300,1.000,General,946.867,17043.608
 Lights Internal Gains Nominal, RELIGIOUS - AUDIENCE-SPACE FUNCTION ZN SPACE FUNCTION RELIGIOUS - AUDIENCE LIGHTS,NECB-I-LIGHTING,RELIGIOUS - AUDIENCE-SPACE FUNCTION ZN,1875.00,375.0,34124.716,18.200,91.002,0.000,0.500,0.200,0.300,1.000,General,1706.236,30712.244
 Lights Internal Gains Nominal, RELIGIOUS - FELLOWSHIP HALL-SPACE FUNCTION ZN SPACE FUNCTION RELIGIOUS - FELLOWSHIP HALL LIGHTS,NECB-C-LIGHTING,RELIGIOUS - FELLOWSHIP HALL-SPACE FUNCTION ZN,1875.00,375.0,12937.392,6.900,34.501,0.000,0.500,0.200,0.300,1.000,General,646.870,11643.653
 Lights Internal Gains Nominal, RELIGIOUS - PULPIT/CHOIR-SPACE FUNCTION ZN SPACE FUNCTION RELIGIOUS - PULPIT/CHOIR LIGHTS,NECB-I-LIGHTING,RELIGIOUS - PULPIT/CHOIR-SPACE FUNCTION ZN,1875.00,375.0,34124.716,18.200,91.002,0.000,0.500,0.200,0.300,1.000,General,1706.236,30712.244
 Lights Internal Gains Nominal, RETAIL - DRESSING/FITTING-SPACE FUNCTION ZN SPACE FUNCTION RETAIL - DRESSING/FITTING LIGHTS,NECB-C-LIGHTING,RETAIL - DRESSING/FITTING-SPACE FUNCTION ZN,1875.00,62.6,15862.368,8.460,253.533,0.000,0.500,0.200,0.300,1.000,General,793.118,14276.131
 Lights Internal Gains Nominal, RETAIL - MALL CONCOURSE-SPACE FUNCTION ZN SPACE FUNCTION RETAIL - MALL CONCOURSE LIGHTS,NECB-C-LIGHTING,RETAIL - MALL CONCOURSE-SPACE FUNCTION ZN,2500.00,125.1,29499.754,11.800,235.752,0.000,0.500,0.200,0.300,1.000,General,1474.988,26549.779
 Lights Internal Gains Nominal, RETAIL - SALES-SPACE FUNCTION ZN SPACE FUNCTION RETAIL - SALES LIGHTS,NECB-C-LIGHTING,RETAIL - SALES-SPACE FUNCTION ZN,1875.00,62.6,33937.218,18.100,542.429,0.000,0.500,0.200,0.300,1.000,General,1696.861,30543.496
 Lights Internal Gains Nominal, SALES AREA-SPACE FUNCTION ZN SPACE FUNCTION SALES AREA LIGHTS,NECB-C-LIGHTING,SALES AREA-SPACE FUNCTION ZN,1875.00,62.6,33937.218,18.100,542.429,0.000,0.500,0.200,0.300,1.000,General,1696.861,30543.496
 Lights Internal Gains Nominal, SPORTS ARENA - AUDIENCE-SPACE FUNCTION ZN SPACE FUNCTION SPORTS ARENA - AUDIENCE LIGHTS,NECB-B-LIGHTING,SPORTS ARENA - AUDIENCE-SPACE FUNCTION ZN,1875.00,375.0,8624.928,4.600,23.001,0.000,0.500,0.200,0.300,1.000,General,862.493,7762.435
 Lights Internal Gains Nominal, SPORTS ARENA - COURT C1-SPACE FUNCTION ZN SPACE FUNCTION SPORTS ARENA - COURT C1 LIGHTS,NECB-B-LIGHTING,SPORTS ARENA - COURT C1-SPACE FUNCTION ZN,1875.00,375.0,60749.494,32.400,162.004,0.000,0.500,0.200,0.300,1.000,General,6074.949,54674.545
 Lights Internal Gains Nominal, SPORTS ARENA - COURT C2-SPACE FUNCTION ZN SPACE FUNCTION SPORTS ARENA - COURT C2 LIGHTS,NECB-B-LIGHTING,SPORTS ARENA - COURT C2-SPACE FUNCTION ZN,1875.00,375.0,38812.177,20.700,103.503,0.000,0.500,0.200,0.300,1.000,General,3881.218,34930.959
 Lights Internal Gains Nominal, SPORTS ARENA - COURT C3-SPACE FUNCTION ZN SPACE FUNCTION SPORTS ARENA - COURT C3 LIGHTS,NECB-B-LIGHTING,SPORTS ARENA - COURT C3-SPACE FUNCTION ZN,1875.00,375.0,24187.299,12.900,64.502,0.000,0.500,0.200,0.300,1.000,General,2418.730,21768.569
 Lights Internal Gains Nominal, SPORTS ARENA - COURT C4-SPACE FUNCTION ZN SPACE FUNCTION SPORTS ARENA - COURT C4 LIGHTS,NECB-B-LIGHTING,SPORTS ARENA - COURT C4-SPACE FUNCTION ZN,1875.00,375.0,14624.878,7.800,39.001,0.000,0.500,0.200,0.300,1.000,General,1462.488,13162.390
 Lights Internal Gains Nominal, SPORTS ARENA - RING-SPACE FUNCTION ZN SPACE FUNCTION SPORTS ARENA - RING LIGHTS,NECB-B-LIGHTING,SPORTS ARENA - RING-SPACE FUNCTION ZN,1875.00,375.0,53999.551,28.800,144.004,0.000,0.500,0.200,0.300,1.000,General,5399.955,48599.596
 Lights Internal Gains Nominal, STAIRWAY-SCH-A-SPACE FUNCTION ZN SPACE FUNCTION STAIRWAY-SCH-A LIGHTS,NECB-A-LIGHTING,STAIRWAY-SCH-A-SPACE FUNCTION ZN,1875.00,9.3,13874.885,7.400,1494.515,0.000,0.500,0.200,0.300,1.000,General,693.744,12487.396
 Lights Internal Gains Nominal, STAIRWAY-SCH-B-SPACE FUNCTION ZN SPACE FUNCTION STAIRWAY-SCH-B LIGHTS,NECB-B-LIGHTING,STAIRWAY-SCH-B-SPACE FUNCTION ZN,2500.00,12.4,18499.846,7.400,1494.515,0.000,0.500,0.200,0.300,1.000,General,1849.985,16649.861
 Lights Internal Gains Nominal, STAIRWAY-SCH-C-SPACE FUNCTION ZN SPACE FUNCTION STAIRWAY-SCH-C LIGHTS,NECB-C-LIGHTING,STAIRWAY-SCH-C-SPACE FUNCTION ZN,1875.00,9.3,13874.885,7.400,1494.515,0.000,0.500,0.200,0.300,1.000,General,693.744,12487.396
 Lights Internal Gains Nominal, STAIRWAY-SCH-D-SPACE FUNCTION ZN SPACE FUNCTION STAIRWAY-SCH-D LIGHTS,NECB-D-LIGHTING,STAIRWAY-SCH-D-SPACE FUNCTION ZN,1875.00,9.3,13874.885,7.400,1494.515,0.000,0.500,0.200,0.300,1.000,General,693.744,12487.396
 Lights Internal Gains Nominal, STAIRWAY-SCH-E-SPACE FUNCTION ZN SPACE FUNCTION STAIRWAY-SCH-E LIGHTS,NECB-E-LIGHTING,STAIRWAY-SCH-E-SPACE FUNCTION ZN,2500.00,12.4,18499.846,7.400,1494.515,0.000,0.500,0.200,0.300,1.000,General,924.992,16649.861
! <ElectricEquipment Internal Gains Nominal>,Name,Schedule Name,Zone Name,Zone Floor Area {m2},# Zone Occupants,Equipment Level {W},Equipment/Floor Area {W/m2},Equipment per person {W/person},Fraction Latent,Fraction Radiant,Fraction Lost,Fraction Convected,End-Use SubCategory,Nominal Minimum Equipment Level {W},Nominal Maximum Equipment Level {W}
 ElectricEquipment Internal Gains Nominal, PENITENTIARY - DINING-SPACE FUNCTION ZN SPACE FUNCTION PENITENTIARY - DINING ELEC EQUIP,NECB-B-ELECTRIC-EQUIPMENT,PENITENTIARY - DINING-SPACE FUNCTION ZN,2500.00,250.0,2499.979,1.000,10.000,0.000,0.500,0.000,0.500,General,249.998,2249.981
 ElectricEquipment Internal Gains Nominal, POST OFFICE SORTING-SPACE FUNCTION ZN SPACE FUNCTION POST OFFICE SORTING ELEC EQUIP,NECB-A-ELECTRIC-EQUIPMENT,POST OFFICE SORTING-SPACE FUNCTION ZN,1875.00,93.8,14062.383,7.500,149.842,0.000,0.500,0.000,0.500,General,2812.477,12656.145
 ElectricEquipment Internal Gains Nominal, RELIGIOUS - AUDIENCE-SPACE FUNCTION ZN SPACE FUNCTION RELIGIOUS - AUDIENCE ELEC EQUIP,NECB-I-ELECTRIC-EQUIPMENT,RELIGIOUS - AUDIENCE-SPACE FUNCTION ZN,1875.00,375.0,1874.984,1.000,5.000,0.000,0.500,0.000,0.500,General,187.498,1499.988
 ElectricEquipment Internal Gains Nominal, RELIGIOUS - FELLOWSHIP HALL-SPACE FUNCTION ZN SPACE FUNCTION RELIGIOUS - FELLOWSHIP HALL ELEC EQUIP,NECB-C-ELECTRIC-EQUIPMENT,RELIGIOUS - FELLOWSHIP HALL-SPACE FUNCTION ZN,1875.00,375.0,1874.984,1.000,5.000,0.000,0.500,0.000,0.500,General,93.749,1687.486
 ElectricEquipment Internal Gains Nominal, RELIGIOUS - PULPIT/CHOIR-SPACE FUNCTION ZN SPACE FUNCTION RELIGIOUS - PULPIT/CHOIR ELEC EQUIP,NECB-I-ELECTRIC-EQUIPMENT,RELIGIOUS - PULPIT/CHOIR-SPACE FUNCTION ZN,1875.00,375.0,1874.984,1.000,5.000,0.000,0.500,0.000,0.500,General,187.498,1499.988
 ElectricEquipment Internal Gains Nominal, RETAIL - DRESSING/FITTING-SPACE FUNCTION ZN SPACE FUNCTION RETAIL - DRESSING/FITTING ELEC EQUIP,NECB-C-ELECTRIC-EQUIPMENT,RETAIL - DRESSING/FITTING-SPACE FUNCTION ZN,1875.00,62.6,4687.461,2.500,74.921,0.000,0.500,0.000,0.500,General,234.373,4218.715
 ElectricEquipment Internal Gains Nominal, RETAIL - MALL CONCOURSE-SPACE FUNCTION ZN SPACE FUNCTION RETAIL - MALL CONCOURSE ELEC EQUIP,NECB-C-ELECTRIC-EQUIPMENT,RETAIL - MALL CONCOURSE-SPACE FUNCTION ZN,2500.00,125.1,2499.979,1.000,19.979,0.000,0.500,0.000,0.500,General,124.999,2249.981
 ElectricEquipment Internal Gains Nominal, RETAIL - SALES-SPACE FUNCTION ZN SPACE FUNCTION RETAIL - SALES ELEC EQUIP,NECB-C-ELECTRIC-EQUIPMENT,RETAIL - SALES-SPACE FUNCTION ZN,1875.00,62.6,4687.461,2.500,74.921,0.000,0.500,0.000,0.500,General,234.373,4218.715
 ElectricEquipment Internal Gains Nominal, SALES AREA-SPACE FUNCTION ZN SPACE FUNCTION SALES AREA ELEC EQUIP,NECB-C-ELECTRIC-EQUIPMENT,SALES AREA-SPACE FUNCTION ZN,1875.00,62.6,4687.461,2.500,74.921,0.000,0.500,0.000,0.500,General,234.373,4218.715
 ElectricEquipment Internal Gains Nominal, SPORTS ARENA - COURT C1-SPACE FUNCTION ZN SPACE FUNCTION SPORTS ARENA - COURT C1 ELEC EQUIP,NECB-B-ELECTRIC-EQUIPMENT,SPORTS ARENA - COURT C1-SPACE FUNCTION ZN,1875.00,375.0,2812.477,1.500,7.500,0.000,0.500,0.000,0.500,General,281.248,2531.229
 ElectricEquipment Internal Gains Nominal, SPORTS ARENA - COURT C2-SPACE FUNCTION ZN SPACE FUNCTION SPORTS ARENA - COURT C2 ELEC EQUIP,NECB-B-ELECTRIC-EQUIPMENT,SPORTS ARENA - COURT C2-SPACE FUNCTION ZN,1875.00,375.0,2812.477,1.500,7.500,0.000,0.500,0.000,0.500,General,281.248,2531.229
 ElectricEquipment Internal Gains Nominal, SPORTS ARENA - COURT C3-SPACE FUNCTION ZN SPACE FUNCTION SPORTS ARENA - COURT C3 ELEC EQUIP,NECB-B-ELECTRIC-EQUIPMENT,SPORTS ARENA - COURT C3-SPACE FUNCTION ZN,1875.00,375.0,2812.477,1.500,7.500,0.000,0.500,0.000,0.500,General,281.248,2531.229
 ElectricEquipment Internal Gains Nominal, SPORTS ARENA - COURT C4-SPACE FUNCTION ZN SPACE FUNCTION SPORTS ARENA - COURT C4 ELEC EQUIP,NECB-B-ELECTRIC-EQUIPMENT,SPORTS ARENA - COURT C4-SPACE FUNCTION ZN,1875.00,375.0,2812.477,1.500,7.500,0.000,0.500,0.000,0.500,General,281.248,2531.229
 ElectricEquipment Internal Gains Nominal, SPORTS ARENA - RING-SPACE FUNCTION ZN SPACE FUNCTION SPORTS ARENA - RING ELEC EQUIP,NECB-B-ELECTRIC-EQUIPMENT,SPORTS ARENA - RING-SPACE FUNCTION ZN,1875.00,375.0,2812.477,1.500,7.500,0.000,0.500,0.000,0.500,General,281.248,2531.229
! <Shadowing/Sun Position Calculations Annual Simulations>, Calculation Method, Value {days}, Allowable Number Figures in Shadow Overlap {}, Polygon Clipping Algorithm, Sky Diffuse Modeling Algorithm, External Shading Calculation Method, Output External Shading Calculation Results, Disable Self-Shading Within Shading Zone Groups, Disable Self-Shading From Shading Zone Groups to Other Zones
Shadowing/Sun Position Calculations Annual Simulations,AverageOverDaysInFrequency,20,15000,SutherlandHodgman,SimpleSkyDiffuseModeling,InternalCalculation,No,No,No
! <ZoneInfiltration Airflow Stats Nominal>,Name,Schedule Name,Zone Name, Zone Floor Area {m2}, # Zone Occupants,Design Volume Flow Rate {m3/s},Volume Flow Rate/Floor Area {m3/s/m2},Volume Flow Rate/Exterior Surface Area {m3/s/m2},ACH - Air Changes per Hour,Equation A - Constant Term Coefficient {},Equation B - Temperature Term Coefficient {1/C},Equation C - Velocity Term Coefficient {s/m}, Equation D - Velocity Squared Term Coefficient {s2/m2}
 ZoneInfiltration Airflow Stats Nominal, PENITENTIARY - DINING-SPACE FUNCTION INFILTRATION,ALWAYS ON DISCRETE,PENITENTIARY - DINING-SPACE FUNCTION ZN,2500.00,250.0,0.625,2.500E-004,2.500E-004,0.237,0.000,0.000,0.224,0.000
 ZoneInfiltration Airflow Stats Nominal, POST OFFICE SORTING-SPACE FUNCTION INFILTRATION,ALWAYS ON DISCRETE,POST OFFICE SORTING-SPACE FUNCTION ZN,1875.00,93.8,0.564,3.007E-004,2.500E-004,0.285,0.000,0.000,0.224,0.000
 ZoneInfiltration Airflow Stats Nominal, RELIGIOUS - AUDIENCE-SPACE FUNCTION INFILTRATION,ALWAYS ON DISCRETE,RELIGIOUS - AUDIENCE-SPACE FUNCTION ZN,1875.00,375.0,0.564,3.007E-004,2.500E-004,0.285,0.000,0.000,0.224,0.000
 ZoneInfiltration Airflow Stats Nominal, RELIGIOUS - FELLOWSHIP HALL-SPACE FUNCTION INFILTRATION,ALWAYS ON DISCRETE,RELIGIOUS - FELLOWSHIP HALL-SPACE FUNCTION ZN,1875.00,375.0,0.564,3.007E-004,2.500E-004,0.285,0.000,0.000,0.224,0.000
 ZoneInfiltration Airflow Stats Nominal, RELIGIOUS - PULPIT/CHOIR-SPACE FUNCTION INFILTRATION,ALWAYS ON DISCRETE,RELIGIOUS - PULPIT/CHOIR-SPACE FUNCTION ZN,1875.00,375.0,9.500E-002,5.067E-005,2.500E-004,4.800E-002,0.000,0.000,0.224,0.000
 ZoneInfiltration Airflow Stats Nominal, RETAIL - DRESSING/FITTING-SPACE FUNCTION INFILTRATION,ALWAYS ON DISCRETE,RETAIL - DRESSING/FITTING-SPACE FUNCTION ZN,1875.00,62.6,9.500E-002,5.067E-005,2.500E-004,4.800E-002,0.000,0.000,0.224,0.000
 ZoneInfiltration Airflow Stats Nominal, RETAIL - SALES-SPACE FUNCTION INFILTRATION,ALWAYS ON DISCRETE,RETAIL - SALES-SPACE FUNCTION ZN,1875.00,62.6,9.500E-002,5.067E-005,2.500E-004,4.800E-002,0.000,0.000,0.224,0.000
 ZoneInfiltration Airflow Stats Nominal, SPORTS ARENA - AUDIENCE-SPACE FUNCTION INFILTRATION,ALWAYS ON DISCRETE,SPORTS ARENA - AUDIENCE-SPACE FUNCTION ZN,1875.00,375.0,9.500E-002,5.067E-005,2.500E-004,4.800E-002,0.000,0.000,0.224,0.000
 ZoneInfiltration Airflow Stats Nominal, SPORTS ARENA - COURT C2-SPACE FUNCTION INFILTRATION,ALWAYS ON DISCRETE,SPORTS ARENA - COURT C2-SPACE FUNCTION ZN,1875.00,375.0,9.500E-002,5.067E-005,2.500E-004,4.800E-002,0.000,0.000,0.224,0.000
 ZoneInfiltration Airflow Stats Nominal, SPORTS ARENA - COURT C4-SPACE FUNCTION INFILTRATION,ALWAYS ON DISCRETE,SPORTS ARENA - COURT C4-SPACE FUNCTION ZN,1875.00,375.0,9.500E-002,5.067E-005,2.500E-004,4.800E-002,0.000,0.000,0.224,0.000
 ZoneInfiltration Airflow Stats Nominal, SPORTS ARENA - RING-SPACE FUNCTION INFILTRATION,ALWAYS ON DISCRETE,SPORTS ARENA - RING-SPACE FUNCTION ZN,1875.00,375.0,9.500E-002,5.067E-005,2.500E-004,4.800E-002,0.000,0.000,0.224,0.000
 ZoneInfiltration Airflow Stats Nominal, STAIRWAY-SCH-C-SPACE FUNCTION INFILTRATION,ALWAYS ON DISCRETE,STAIRWAY-SCH-C-SPACE FUNCTION ZN,1875.00,9.3,9.500E-002,5.067E-005,2.500E-004,4.800E-002,0.000,0.000,0.224,0.000
 ZoneInfiltration Airflow Stats Nominal, STAIRWAY-SCH-D-SPACE FUNCTION INFILTRATION,ALWAYS ON DISCRETE,STAIRWAY-SCH-D-SPACE FUNCTION ZN,1875.00,9.3,0.564,3.007E-004,2.500E-004,0.285,0.000,0.000,0.224,0.000
! <AirFlow Model>, Simple
 AirFlow Model, Simple
! <RoomAir Model>, Zone Name, Mixing/Mundt/UCSDDV/UCSDCV/UCSDUFI/UCSDUFE/User Defined
RoomAir Model,PENITENTIARY - DINING-SPACE FUNCTION ZN,Mixing/Well-Stirred
RoomAir Model,POST OFFICE SORTING-SPACE FUNCTION ZN,Mixing/Well-Stirred
RoomAir Model,RELIGIOUS - AUDIENCE-SPACE FUNCTION ZN,Mixing/Well-Stirred
RoomAir Model,RELIGIOUS - FELLOWSHIP HALL-SPACE FUNCTION ZN,Mixing/Well-Stirred
RoomAir Model,RELIGIOUS - PULPIT/CHOIR-SPACE FUNCTION ZN,Mixing/Well-Stirred
RoomAir Model,RETAIL - DRESSING/FITTING-SPACE FUNCTION ZN,Mixing/Well-Stirred
RoomAir Model,RETAIL - MALL CONCOURSE-SPACE FUNCTION ZN,Mixing/Well-Stirred
RoomAir Model,RETAIL - SALES-SPACE FUNCTION ZN,Mixing/Well-Stirred
RoomAir Model,SALES AREA-SPACE FUNCTION ZN,Mixing/Well-Stirred
RoomAir Model,SPORTS ARENA - AUDIENCE-SPACE FUNCTION ZN,Mixing/Well-Stirred
RoomAir Model,SPORTS ARENA - COURT C1-SPACE FUNCTION ZN,Mixing/Well-Stirred
RoomAir Model,SPORTS ARENA - COURT C2-SPACE FUNCTION ZN,Mixing/Well-Stirred
RoomAir Model,SPORTS ARENA - COURT C3-SPACE FUNCTION ZN,Mixing/Well-Stirred
RoomAir Model,SPORTS ARENA - COURT C4-SPACE FUNCTION ZN,Mixing/Well-Stirred
RoomAir Model,SPORTS ARENA - RING-SPACE FUNCTION ZN,Mixing/Well-Stirred
RoomAir Model,STAIRWAY-SCH-A-SPACE FUNCTION ZN,Mixing/Well-Stirred
RoomAir Model,STAIRWAY-SCH-B-SPACE FUNCTION ZN,Mixing/Well-Stirred
RoomAir Model,STAIRWAY-SCH-C-SPACE FUNCTION ZN,Mixing/Well-Stirred
RoomAir Model,STAIRWAY-SCH-D-SPACE FUNCTION ZN,Mixing/Well-Stirred
RoomAir Model,STAIRWAY-SCH-E-SPACE FUNCTION ZN,Mixing/Well-Stirred
! <AirflowNetwork Model:Control>, No Multizone or Distribution/Multizone with Distribution/Multizone without Distribution/Multizone with Distribution only during Fan Operation
AirflowNetwork Model:Control,NoMultizoneOrDistribution
! <Zone Volume Capacitance Multiplier>, Sensible Heat Capacity Multiplier, Moisture Capacity Multiplier, Carbon Dioxide Capacity Multiplier, Generic Contaminant Capacity Multiplier
Zone Volume Capacitance Multiplier,   1.000 ,   1.000,   1.000,   1.000
! <Load Timesteps in Zone Design Calculation Averaging Window>, Value
 Load Timesteps in Zone Design Calculation Averaging Window,    6
! <Heating Sizing Factor Information>, Sizing Factor ID, Value
 Heating Sizing Factor Information, Global,   1.2500    
 Heating Sizing Factor Information, Zone PENITENTIARY - DINING-SPACE FUNCTION ZN,   1.2500    
 Heating Sizing Factor Information, Zone POST OFFICE SORTING-SPACE FUNCTION ZN,   1.2500    
 Heating Sizing Factor Information, Zone RELIGIOUS - AUDIENCE-SPACE FUNCTION ZN,   1.2500    
 Heating Sizing Factor Information, Zone RELIGIOUS - FELLOWSHIP HALL-SPACE FUNCTION ZN,   1.2500    
 Heating Sizing Factor Information, Zone RELIGIOUS - PULPIT/CHOIR-SPACE FUNCTION ZN,   1.2500    
 Heating Sizing Factor Information, Zone RETAIL - DRESSING/FITTING-SPACE FUNCTION ZN,   1.2500    
 Heating Sizing Factor Information, Zone RETAIL - MALL CONCOURSE-SPACE FUNCTION ZN,   1.2500    
 Heating Sizing Factor Information, Zone RETAIL - SALES-SPACE FUNCTION ZN,   1.2500    
 Heating Sizing Factor Information, Zone SALES AREA-SPACE FUNCTION ZN,   1.2500    
 Heating Sizing Factor Information, Zone SPORTS ARENA - AUDIENCE-SPACE FUNCTION ZN,   1.2500    
 Heating Sizing Factor Information, Zone SPORTS ARENA - COURT C1-SPACE FUNCTION ZN,   1.2500    
 Heating Sizing Factor Information, Zone SPORTS ARENA - COURT C2-SPACE FUNCTION ZN,   1.2500    
 Heating Sizing Factor Information, Zone SPORTS ARENA - COURT C3-SPACE FUNCTION ZN,   1.2500    
 Heating Sizing Factor Information, Zone SPORTS ARENA - COURT C4-SPACE FUNCTION ZN,   1.2500    
 Heating Sizing Factor Information, Zone SPORTS ARENA - RING-SPACE FUNCTION ZN,   1.2500    
 Heating Sizing Factor Information, Zone STAIRWAY-SCH-A-SPACE FUNCTION ZN,   1.2500    
 Heating Sizing Factor Information, Zone STAIRWAY-SCH-B-SPACE FUNCTION ZN,   1.2500    
 Heating Sizing Factor Information, Zone STAIRWAY-SCH-C-SPACE FUNCTION ZN,   1.2500    
 Heating Sizing Factor Information, Zone STAIRWAY-SCH-D-SPACE FUNCTION ZN,   1.2500    
 Heating Sizing Factor Information, Zone STAIRWAY-SCH-E-SPACE FUNCTION ZN,   1.2500    
! <Cooling Sizing Factor Information>, Sizing Factor ID, Value
 Cooling Sizing Factor Information, Global,   1.1500    
 Cooling Sizing Factor Information, Zone PENITENTIARY - DINING-SPACE FUNCTION ZN,   1.1500    
 Cooling Sizing Factor Information, Zone POST OFFICE SORTING-SPACE FUNCTION ZN,   1.1500    
 Cooling Sizing Factor Information, Zone RELIGIOUS - AUDIENCE-SPACE FUNCTION ZN,   1.1500    
 Cooling Sizing Factor Information, Zone RELIGIOUS - FELLOWSHIP HALL-SPACE FUNCTION ZN,   1.1500    
 Cooling Sizing Factor Information, Zone RELIGIOUS - PULPIT/CHOIR-SPACE FUNCTION ZN,   1.1500    
 Cooling Sizing Factor Information, Zone RETAIL - DRESSING/FITTING-SPACE FUNCTION ZN,   1.1500    
 Cooling Sizing Factor Information, Zone RETAIL - MALL CONCOURSE-SPACE FUNCTION ZN,   1.1500    
 Cooling Sizing Factor Information, Zone RETAIL - SALES-SPACE FUNCTION ZN,   1.1500    
 Cooling Sizing Factor Information, Zone SALES AREA-SPACE FUNCTION ZN,   1.1500    
 Cooling Sizing Factor Information, Zone SPORTS ARENA - AUDIENCE-SPACE FUNCTION ZN,   1.1500    
 Cooling Sizing Factor Information, Zone SPORTS ARENA - COURT C1-SPACE FUNCTION ZN,   1.1500    
 Cooling Sizing Factor Information, Zone SPORTS ARENA - COURT C2-SPACE FUNCTION ZN,   1.1500    
 Cooling Sizing Factor Information, Zone SPORTS ARENA - COURT C3-SPACE FUNCTION ZN,   1.1500    
 Cooling Sizing Factor Information, Zone SPORTS ARENA - COURT C4-SPACE FUNCTION ZN,   1.1500    
 Cooling Sizing Factor Information, Zone SPORTS ARENA - RING-SPACE FUNCTION ZN,   1.1500    
 Cooling Sizing Factor Information, Zone STAIRWAY-SCH-A-SPACE FUNCTION ZN,   1.1500    
 Cooling Sizing Factor Information, Zone STAIRWAY-SCH-B-SPACE FUNCTION ZN,   1.1500    
 Cooling Sizing Factor Information, Zone STAIRWAY-SCH-C-SPACE FUNCTION ZN,   1.1500    
 Cooling Sizing Factor Information, Zone STAIRWAY-SCH-D-SPACE FUNCTION ZN,   1.1500    
 Cooling Sizing Factor Information, Zone STAIRWAY-SCH-E-SPACE FUNCTION ZN,   1.1500    
! <Zone Sizing Information>, Zone Name, Load Type, Calc Des Load {W}, User Des Load {W}, Calc Des Air Flow Rate {m3/s}, User Des Air Flow Rate {m3/s}, Design Day Name, Date/Time of Peak, Temperature at Peak {C}, Humidity Ratio at Peak {kgWater/kgDryAir}, Floor Area {m2}, # Occupants, Calc Outdoor Air Flow Rate {m3/s}, Calc DOAS Heat Addition Rate {W}
 Zone Sizing Information, PENITENTIARY - DINING-SPACE FUNCTION ZN, Cooling, 91009.57310, 104661.00907, 7.73809, 8.95350, FORT MCMURRAY AP ANN CLG .4% CONDNS DB=>MWB, 7/21 13:10:00, 28.38333, 8.76969E-003, 2500.00000, 249.99182, 8.95350, 0.00000
 Zone Sizing Information, PENITENTIARY - DINING-SPACE FUNCTION ZN, Heating, 36549.13484, 45686.41855, 1.50920, 8.95350, FORT MCMURRAY AP ANN HTG 99.6% CONDNS DB, 1/21 09:00:00, -36.20000, 1.25811E-004, 2500.00000, 249.99182, 8.95350, 0.00000
 Zone Sizing Information, POST OFFICE SORTING-SPACE FUNCTION ZN, Cooling, 91942.61927, 105734.01216, 7.81663, 8.98913, FORT MCMURRAY AP ANN CLG .4% CONDNS DB=>MWB, 7/21 13:30:00, 28.59000, 8.76969E-003, 1875.00000, 93.84784, 1.64783, 0.00000
 Zone Sizing Information, POST OFFICE SORTING-SPACE FUNCTION ZN, Heating, 48325.23164, 60406.53955, 2.24067, 2.80084, FORT MCMURRAY AP ANN HTG 99.6% CONDNS DB, 1/21 08:00:00, -36.20000, 1.25811E-004, 1875.00000, 93.84784, 1.64783, 0.00000
 Zone Sizing Information, RELIGIOUS - AUDIENCE-SPACE FUNCTION ZN, Cooling, 123801.13194, 142371.30173, 8.51309, 9.79006, FORT MCMURRAY AP ANN CLG .4% CONDNS DB=>MWB, 7/21 15:00:00, 28.90000, 8.76969E-003, 1875.00000, 374.98773, 6.28650, 0.00000
 Zone Sizing Information, RELIGIOUS - AUDIENCE-SPACE FUNCTION ZN, Heating, 41765.19637, 52206.49546, 1.85234, 6.28650, FORT MCMURRAY AP ANN HTG 99.6% CONDNS DB, 1/21 15:30:00, -36.20000, 1.25811E-004, 1875.00000, 374.98773, 6.28650, 0.00000
 Zone Sizing Information, RELIGIOUS - FELLOWSHIP HALL-SPACE FUNCTION ZN, Cooling, 72635.92593, 83531.31482, 6.17676, 7.10328, FORT MCMURRAY AP ANN CLG .4% CONDNS DB=>MWB, 7/21 13:50:00, 28.79667, 8.76969E-003, 1875.00000, 374.98773, 6.28650, 0.00000
 Zone Sizing Information, RELIGIOUS - FELLOWSHIP HALL-SPACE FUNCTION ZN, Heating, 50547.14695, 63183.93368, 2.34558, 6.28650, FORT MCMURRAY AP ANN HTG 99.6% CONDNS DB, 1/21 09:00:00, -36.20000, 1.25811E-004, 1875.00000, 374.98773, 6.28650, 0.00000
 Zone Sizing Information, RELIGIOUS - PULPIT/CHOIR-SPACE FUNCTION ZN, Cooling, 83069.42814, 95529.84236, 6.03742, 6.94304, FORT MCMURRAY AP ANN CLG .4% CONDNS DB=>MWB, 7/21 15:00:00, 28.90000, 8.76969E-003, 1875.00000, 374.98773, 6.28650, 0.00000
 Zone Sizing Information, RELIGIOUS - PULPIT/CHOIR-SPACE FUNCTION ZN, Heating, 14755.63541, 18444.54426, 0.65861, 6.28650, FORT MCMURRAY AP ANN HTG 99.6% CONDNS DB, 1/21 16:00:00, -36.20000, 1.25811E-004, 1875.00000, 374.98773, 6.28650, 0.00000
 Zone Sizing Information, RETAIL - DRESSING/FITTING-SPACE FUNCTION ZN, Cooling, 31461.61621, 36180.85864, 2.67474, 3.07595, FORT MCMURRAY AP ANN CLG .4% CONDNS DB=>MWB, 7/21 17:00:00, 27.16400, 8.76969E-003, 1875.00000, 62.56523, 2.21933, 0.00000
 Zone Sizing Information, RETAIL - DRESSING/FITTING-SPACE FUNCTION ZN, Heating, 24632.20996, 30790.26245, 1.12321, 2.21933, FORT MCMURRAY AP ANN HTG 99.6% CONDNS DB, 1/21 09:00:00, -36.20000, 1.25811E-004, 1875.00000, 62.56523, 2.21933, 0.00000
 Zone Sizing Information, RETAIL - MALL CONCOURSE-SPACE FUNCTION ZN, Cooling, 41766.85871, 48031.88752, 3.55096, 4.57200, FORT MCMURRAY AP ANN CLG .4% CONDNS DB=>MWB, 7/21 17:00:00, 27.16400, 8.76969E-003, 2500.00000, 125.13046, 4.57200, 0.00000
 Zone Sizing Information, RETAIL - MALL CONCOURSE-SPACE FUNCTION ZN, Heating, 0.00000, 0.00000, 0.00000, 4.57200, FORT MCMURRAY AP ANN HTG 99.6% CONDNS DB, , -36.20000, 1.25811E-004, 2500.00000, 125.13046, 4.57200, 0.00000
 Zone Sizing Information, RETAIL - SALES-SPACE FUNCTION ZN, Cooling, 53130.31748, 61099.86511, 4.51683, 5.19436, FORT MCMURRAY AP ANN CLG .4% CONDNS DB=>MWB, 7/21 14:20:00, 28.90000, 8.76969E-003, 1875.00000, 62.56523, 2.21933, 0.00000
 Zone Sizing Information, RETAIL - SALES-SPACE FUNCTION ZN, Heating, 19631.57520, 24539.46901, 0.88749, 2.21933, FORT MCMURRAY AP ANN HTG 99.6% CONDNS DB, 1/21 09:00:00, -36.20000, 1.25811E-004, 1875.00000, 62.56523, 2.21933, 0.00000
 Zone Sizing Information, SALES AREA-SPACE FUNCTION ZN, Cooling, 34157.01128, 39280.56298, 2.90390, 3.33948, FORT MCMURRAY AP ANN CLG .4% CONDNS DB=>MWB, 7/21 18:00:00, 25.92400, 8.76969E-003, 1875.00000, 62.56523, 2.21933, 0.00000
 Zone Sizing Information, SALES AREA-SPACE FUNCTION ZN, Heating, 0.00000, 0.00000, 0.00000, 2.21933, FORT MCMURRAY AP ANN HTG 99.6% CONDNS DB, , -36.20000, 1.25811E-004, 1875.00000, 62.56523, 2.21933, 0.00000
 Zone Sizing Information, SPORTS ARENA - AUDIENCE-SPACE FUNCTION ZN, Cooling, 57391.01742, 65999.67003, 4.88012, 11.28713, FORT MCMURRAY AP ANN CLG .4% CONDNS DB=>MWB, 7/21 20:00:00, 22.70000, 8.76969E-003, 1875.00000, 374.98773, 11.28713, 0.00000
 Zone Sizing Information, SPORTS ARENA - AUDIENCE-SPACE FUNCTION ZN, Heating, 15085.38004, 18856.72504, 0.67716, 11.28713, FORT MCMURRAY AP ANN HTG 99.6% CONDNS DB, 1/21 10:00:00, -36.20000, 1.25811E-004, 1875.00000, 374.98773, 11.28713, 0.00000
 Zone Sizing Information, SPORTS ARENA - COURT C1-SPACE FUNCTION ZN, Cooling, 67343.11219, 77444.57902, 5.72618, 6.58510, FORT MCMURRAY AP ANN CLG .4% CONDNS DB=>MWB, 7/21 22:00:00, 20.46800, 8.76969E-003, 1875.00000, 374.98773, 2.85750, 0.00000
 Zone Sizing Information, SPORTS ARENA - COURT C1-SPACE FUNCTION ZN, Heating, 0.00000, 0.00000, 0.00000, 2.85750, FORT MCMURRAY AP ANN HTG 99.6% CONDNS DB, , -36.20000, 1.25811E-004, 1875.00000, 374.98773, 2.85750, 0.00000
 Zone Sizing Information, SPORTS ARENA - COURT C2-SPACE FUNCTION ZN, Cooling, 70888.54633, 81521.82828, 6.02816, 6.93238, FORT MCMURRAY AP ANN CLG .4% CONDNS DB=>MWB, 7/21 13:00:00, 28.28000, 8.76969E-003, 1875.00000, 374.98773, 2.85750, 0.00000
 Zone Sizing Information, SPORTS ARENA - COURT C2-SPACE FUNCTION ZN, Heating, 0.00000, 0.00000, 0.00000, 2.85750, FORT MCMURRAY AP ANN HTG 99.6% CONDNS DB, , -36.20000, 1.25811E-004, 1875.00000, 374.98773, 2.85750, 0.00000
 Zone Sizing Information, SPORTS ARENA - COURT C3-SPACE FUNCTION ZN, Cooling, 41286.31623, 47479.26367, 3.51111, 4.03778, FORT MCMURRAY AP ANN CLG .4% CONDNS DB=>MWB, 7/21 20:30:00, 22.14200, 8.76969E-003, 1875.00000, 374.98773, 2.85750, 0.00000
 Zone Sizing Information, SPORTS ARENA - COURT C3-SPACE FUNCTION ZN, Heating, 0.00000, 0.00000, 0.00000, 2.85750, FORT MCMURRAY AP ANN HTG 99.6% CONDNS DB, , -36.20000, 1.25811E-004, 1875.00000, 374.98773, 2.85750, 0.00000
 Zone Sizing Information, SPORTS ARENA - COURT C4-SPACE FUNCTION ZN, Cooling, 39334.55173, 45234.73449, 3.34499, 3.84674, FORT MCMURRAY AP ANN CLG .4% CONDNS DB=>MWB, 7/21 20:20:00, 22.32800, 8.76969E-003, 1875.00000, 374.98773, 2.85750, 0.00000
 Zone Sizing Information, SPORTS ARENA - COURT C4-SPACE FUNCTION ZN, Heating, 6258.16792, 7822.70990, 0.28116, 2.85750, FORT MCMURRAY AP ANN HTG 99.6% CONDNS DB, 1/21 10:00:00, -36.20000, 1.25811E-004, 1875.00000, 374.98773, 2.85750, 0.00000
 Zone Sizing Information, SPORTS ARENA - RING-SPACE FUNCTION ZN, Cooling, 75594.16306, 86933.28752, 6.42804, 7.39225, FORT MCMURRAY AP ANN CLG .4% CONDNS DB=>MWB, 7/21 20:00:00, 22.70000, 8.76969E-003, 1875.00000, 374.98773, 2.85750, 0.00000
 Zone Sizing Information, SPORTS ARENA - RING-SPACE FUNCTION ZN, Heating, 0.00000, 0.00000, 0.00000, 2.85750, FORT MCMURRAY AP ANN HTG 99.6% CONDNS DB, , -36.20000, 1.25811E-004, 1875.00000, 374.98773, 2.85750, 0.00000
 Zone Sizing Information, STAIRWAY-SCH-A-SPACE FUNCTION ZN, Cooling, 12559.17284, 14443.04877, 0.99176, 1.14053, FORT MCMURRAY AP ANN CLG .4% CONDNS DB=>MWB, 7/21 07:00:00, 17.61600, 8.76969E-003, 1875.00000, 9.28387, 0.57150, 0.00000
 Zone Sizing Information, STAIRWAY-SCH-A-SPACE FUNCTION ZN, Heating, 0.00000, 0.00000, 0.00000, 0.57150, FORT MCMURRAY AP ANN HTG 99.6% CONDNS DB, , -36.20000, 1.25811E-004, 1875.00000, 9.28387, 0.57150, 0.00000
 Zone Sizing Information, STAIRWAY-SCH-B-SPACE FUNCTION ZN, Cooling, 17312.23511, 19909.07038, 1.34799, 1.55019, FORT MCMURRAY AP ANN CLG .4% CONDNS DB=>MWB, 7/21 09:00:00, 22.08000, 8.76969E-003, 2500.00000, 12.37850, 0.76200, 0.00000
 Zone Sizing Information, STAIRWAY-SCH-B-SPACE FUNCTION ZN, Heating, 0.00000, 0.00000, 0.00000, 0.76200, FORT MCMURRAY AP ANN HTG 99.6% CONDNS DB, , -36.20000, 1.25811E-004, 2500.00000, 12.37850, 0.76200, 0.00000
 Zone Sizing Information, STAIRWAY-SCH-C-SPACE FUNCTION ZN, Cooling, 32373.92777, 37230.01693, 2.75216, 3.16498, FORT MCMURRAY AP ANN CLG .4% CONDNS DB=>MWB, 7/21 13:40:00, 28.69333, 8.76969E-003, 1875.00000, 9.28387, 0.57150, 0.00000
 Zone Sizing Information, STAIRWAY-SCH-C-SPACE FUNCTION ZN, Heating, 9773.48148, 12216.85185, 0.44829, 0.57150, FORT MCMURRAY AP ANN HTG 99.6% CONDNS DB, 1/21 09:00:00, -36.20000, 1.25811E-004, 1875.00000, 9.28387, 0.57150, 0.00000
 Zone Sizing Information, STAIRWAY-SCH-D-SPACE FUNCTION ZN, Cooling, 67712.47766, 77869.34931, 5.75637, 6.61983, FORT MCMURRAY AP ANN CLG .4% CONDNS DB=>MWB, 7/21 16:00:00, 28.15600, 8.76969E-003, 1875.00000, 9.28387, 0.57150, 0.00000
 Zone Sizing Information, STAIRWAY-SCH-D-SPACE FUNCTION ZN, Heating, 50386.60974, 62983.26218, 2.33820, 2.92275, FORT MCMURRAY AP ANN HTG 99.6% CONDNS DB, 1/21 09:00:00, -36.20000, 1.25811E-004, 1875.00000, 9.28387, 0.57150, 0.00000
 Zone Sizing Information, STAIRWAY-SCH-E-SPACE FUNCTION ZN, Cooling, 27317.70402, 31415.35963, 2.10626, 2.42220, FORT MCMURRAY AP ANN CLG .4% CONDNS DB=>MWB, 7/21 08:00:00, 19.72400, 8.76969E-003, 2500.00000, 12.37850, 0.76200, 0.00000
 Zone Sizing Information, STAIRWAY-SCH-E-SPACE FUNCTION ZN, Heating, 0.00000, 0.00000, 0.00000, 0.76200, FORT MCMURRAY AP ANN HTG 99.6% CONDNS DB, , -36.20000, 1.25811E-004, 2500.00000, 12.37850, 0.76200, 0.00000
! <Component Sizing Information>, Component Type, Component Name, Input Field Description, Value
 Component Sizing Information, ZoneHVAC:IdealLoadsAirSystem, ZONE HVAC IDEAL LOADS AIR SYSTEM 1, User-Specified Maximum Heating Air Flow Rate [m3/s], 0.00000
 Component Sizing Information, ZoneHVAC:IdealLoadsAirSystem, ZONE HVAC IDEAL LOADS AIR SYSTEM 1, User-Specified Maximum Cooling Air Flow Rate [m3/s], 0.00000
 Component Sizing Information, ZoneHVAC:IdealLoadsAirSystem, ZONE HVAC IDEAL LOADS AIR SYSTEM 2, User-Specified Maximum Heating Air Flow Rate [m3/s], 0.00000
 Component Sizing Information, ZoneHVAC:IdealLoadsAirSystem, ZONE HVAC IDEAL LOADS AIR SYSTEM 2, User-Specified Maximum Cooling Air Flow Rate [m3/s], 0.00000
 Component Sizing Information, ZoneHVAC:IdealLoadsAirSystem, ZONE HVAC IDEAL LOADS AIR SYSTEM 3, User-Specified Maximum Heating Air Flow Rate [m3/s], 0.00000
 Component Sizing Information, ZoneHVAC:IdealLoadsAirSystem, ZONE HVAC IDEAL LOADS AIR SYSTEM 3, User-Specified Maximum Cooling Air Flow Rate [m3/s], 0.00000
 Component Sizing Information, ZoneHVAC:IdealLoadsAirSystem, ZONE HVAC IDEAL LOADS AIR SYSTEM 4, User-Specified Maximum Heating Air Flow Rate [m3/s], 0.00000
 Component Sizing Information, ZoneHVAC:IdealLoadsAirSystem, ZONE HVAC IDEAL LOADS AIR SYSTEM 4, User-Specified Maximum Cooling Air Flow Rate [m3/s], 0.00000
 Component Sizing Information, ZoneHVAC:IdealLoadsAirSystem, ZONE HVAC IDEAL LOADS AIR SYSTEM 5, User-Specified Maximum Heating Air Flow Rate [m3/s], 0.00000
 Component Sizing Information, ZoneHVAC:IdealLoadsAirSystem, ZONE HVAC IDEAL LOADS AIR SYSTEM 5, User-Specified Maximum Cooling Air Flow Rate [m3/s], 0.00000
 Component Sizing Information, ZoneHVAC:IdealLoadsAirSystem, ZONE HVAC IDEAL LOADS AIR SYSTEM 6, User-Specified Maximum Heating Air Flow Rate [m3/s], 0.00000
 Component Sizing Information, ZoneHVAC:IdealLoadsAirSystem, ZONE HVAC IDEAL LOADS AIR SYSTEM 6, User-Specified Maximum Cooling Air Flow Rate [m3/s], 0.00000
 Component Sizing Information, ZoneHVAC:IdealLoadsAirSystem, ZONE HVAC IDEAL LOADS AIR SYSTEM 7, User-Specified Maximum Heating Air Flow Rate [m3/s], 0.00000
 Component Sizing Information, ZoneHVAC:IdealLoadsAirSystem, ZONE HVAC IDEAL LOADS AIR SYSTEM 7, User-Specified Maximum Cooling Air Flow Rate [m3/s], 0.00000
 Component Sizing Information, ZoneHVAC:IdealLoadsAirSystem, ZONE HVAC IDEAL LOADS AIR SYSTEM 8, User-Specified Maximum Heating Air Flow Rate [m3/s], 0.00000
 Component Sizing Information, ZoneHVAC:IdealLoadsAirSystem, ZONE HVAC IDEAL LOADS AIR SYSTEM 8, User-Specified Maximum Cooling Air Flow Rate [m3/s], 0.00000
 Component Sizing Information, ZoneHVAC:IdealLoadsAirSystem, ZONE HVAC IDEAL LOADS AIR SYSTEM 9, User-Specified Maximum Heating Air Flow Rate [m3/s], 0.00000
 Component Sizing Information, ZoneHVAC:IdealLoadsAirSystem, ZONE HVAC IDEAL LOADS AIR SYSTEM 9, User-Specified Maximum Cooling Air Flow Rate [m3/s], 0.00000
 Component Sizing Information, ZoneHVAC:IdealLoadsAirSystem, ZONE HVAC IDEAL LOADS AIR SYSTEM 10, User-Specified Maximum Heating Air Flow Rate [m3/s], 0.00000
 Component Sizing Information, ZoneHVAC:IdealLoadsAirSystem, ZONE HVAC IDEAL LOADS AIR SYSTEM 10, User-Specified Maximum Cooling Air Flow Rate [m3/s], 0.00000
 Component Sizing Information, ZoneHVAC:IdealLoadsAirSystem, ZONE HVAC IDEAL LOADS AIR SYSTEM 11, User-Specified Maximum Heating Air Flow Rate [m3/s], 0.00000
 Component Sizing Information, ZoneHVAC:IdealLoadsAirSystem, ZONE HVAC IDEAL LOADS AIR SYSTEM 11, User-Specified Maximum Cooling Air Flow Rate [m3/s], 0.00000
 Component Sizing Information, ZoneHVAC:IdealLoadsAirSystem, ZONE HVAC IDEAL LOADS AIR SYSTEM 12, User-Specified Maximum Heating Air Flow Rate [m3/s], 0.00000
 Component Sizing Information, ZoneHVAC:IdealLoadsAirSystem, ZONE HVAC IDEAL LOADS AIR SYSTEM 12, User-Specified Maximum Cooling Air Flow Rate [m3/s], 0.00000
 Component Sizing Information, ZoneHVAC:IdealLoadsAirSystem, ZONE HVAC IDEAL LOADS AIR SYSTEM 13, User-Specified Maximum Heating Air Flow Rate [m3/s], 0.00000
 Component Sizing Information, ZoneHVAC:IdealLoadsAirSystem, ZONE HVAC IDEAL LOADS AIR SYSTEM 13, User-Specified Maximum Cooling Air Flow Rate [m3/s], 0.00000
 Component Sizing Information, ZoneHVAC:IdealLoadsAirSystem, ZONE HVAC IDEAL LOADS AIR SYSTEM 14, User-Specified Maximum Heating Air Flow Rate [m3/s], 0.00000
 Component Sizing Information, ZoneHVAC:IdealLoadsAirSystem, ZONE HVAC IDEAL LOADS AIR SYSTEM 14, User-Specified Maximum Cooling Air Flow Rate [m3/s], 0.00000
 Component Sizing Information, ZoneHVAC:IdealLoadsAirSystem, ZONE HVAC IDEAL LOADS AIR SYSTEM 15, User-Specified Maximum Heating Air Flow Rate [m3/s], 0.00000
 Component Sizing Information, ZoneHVAC:IdealLoadsAirSystem, ZONE HVAC IDEAL LOADS AIR SYSTEM 15, User-Specified Maximum Cooling Air Flow Rate [m3/s], 0.00000
 Component Sizing Information, ZoneHVAC:IdealLoadsAirSystem, ZONE HVAC IDEAL LOADS AIR SYSTEM 16, User-Specified Maximum Heating Air Flow Rate [m3/s], 0.00000
 Component Sizing Information, ZoneHVAC:IdealLoadsAirSystem, ZONE HVAC IDEAL LOADS AIR SYSTEM 16, User-Specified Maximum Cooling Air Flow Rate [m3/s], 0.00000
 Component Sizing Information, ZoneHVAC:IdealLoadsAirSystem, ZONE HVAC IDEAL LOADS AIR SYSTEM 17, User-Specified Maximum Heating Air Flow Rate [m3/s], 0.00000
 Component Sizing Information, ZoneHVAC:IdealLoadsAirSystem, ZONE HVAC IDEAL LOADS AIR SYSTEM 17, User-Specified Maximum Cooling Air Flow Rate [m3/s], 0.00000
 Component Sizing Information, ZoneHVAC:IdealLoadsAirSystem, ZONE HVAC IDEAL LOADS AIR SYSTEM 18, User-Specified Maximum Heating Air Flow Rate [m3/s], 0.00000
 Component Sizing Information, ZoneHVAC:IdealLoadsAirSystem, ZONE HVAC IDEAL LOADS AIR SYSTEM 18, User-Specified Maximum Cooling Air Flow Rate [m3/s], 0.00000
 Component Sizing Information, ZoneHVAC:IdealLoadsAirSystem, ZONE HVAC IDEAL LOADS AIR SYSTEM 19, User-Specified Maximum Heating Air Flow Rate [m3/s], 0.00000
 Component Sizing Information, ZoneHVAC:IdealLoadsAirSystem, ZONE HVAC IDEAL LOADS AIR SYSTEM 19, User-Specified Maximum Cooling Air Flow Rate [m3/s], 0.00000
 Component Sizing Information, ZoneHVAC:IdealLoadsAirSystem, ZONE HVAC IDEAL LOADS AIR SYSTEM 20, User-Specified Maximum Heating Air Flow Rate [m3/s], 0.00000
 Component Sizing Information, ZoneHVAC:IdealLoadsAirSystem, ZONE HVAC IDEAL LOADS AIR SYSTEM 20, User-Specified Maximum Cooling Air Flow Rate [m3/s], 0.00000
! <Environment>,Environment Name,Environment Type, Start Date, End Date, Start DayOfWeek, Duration {#days}, Source:Start DayOfWeek,  Use Daylight Saving, Use Holidays, Apply Weekend Holiday Rule,  Use Rain Values, Use Snow Values
! <Environment:Special Days>, Special Day Name, Special Day Type, Source, Start Date, Duration {#days}
! <Environment:Daylight Saving>, Daylight Saving Indicator, Source, Start Date, End Date
! <Environment:WarmupDays>, NumberofWarmupDays
Environment,FORT MCMURRAY AP ANN CLG .4% CONDNS DB=>MWB,SizingPeriod:DesignDay,07/21,07/21,SummerDesignDay,1,N/A,N/A,N/A,N/A,N/A,N/A
Environment:Daylight Saving,No,SizingPeriod:DesignDay
! <Environment:Design Day Data>, Max Dry-Bulb Temp {C}, Temp Range {dC}, Temp Range Ind Type, Hum Ind Value at Max Temp, Hum Ind Type,Pressure {Pa}, Wind Direction {deg CW from N}, Wind Speed {m/s}, Clearness, Rain, Snow
! <Environment:Design Day Misc>,DayOfYear,ASHRAE A Coeff,ASHRAE B Coeff,ASHRAE C Coeff,Solar Constant-Annual Variation,Eq of Time {minutes}, Solar Declination Angle {deg}, Solar Model
Environment:Design Day Data,28.90,12.40,DefaultMultipliers,96969,250,3.7,0.00,No,No
Environment:Design Day Misc,202,1084.4,0.2082,0.1365,1.0,-6.23,20.6,ASHRAETau
Environment:WarmupDays,  6
! <Tabular Report>,Style,Unit Conversion
Tabular Report,HTML,None
! <Warmup Convergence Information>,Zone Name,Environment Type/Name,Average Warmup Temperature Difference {deltaC},Std Dev Warmup Temperature Difference {deltaC},Max Temperature Pass/Fail Convergence,Min Temperature Pass/Fail Convergence,Average Warmup Load Difference {W},Std Dev Warmup Load Difference {W},Heating Load Pass/Fail Convergence,Cooling Load Pass/Fail Convergence
 Warmup Convergence Information,PENITENTIARY - DINING-SPACE FUNCTION ZN,SizingPeriod: FORT MCMURRAY AP ANN CLG .4% CONDNS DB=>MWB,6.8580212319E-002,0.1281660443,Pass,Pass,3.4464671111E-002,7.6546332456E-002,Pass,Pass
 Warmup Convergence Information,POST OFFICE SORTING-SPACE FUNCTION ZN,SizingPeriod: FORT MCMURRAY AP ANN CLG .4% CONDNS DB=>MWB,3.9508876213E-002,6.7826840118E-002,Pass,Pass,4.1982917335E-002,0.1463719695,Pass,Pass
 Warmup Convergence Information,RELIGIOUS - AUDIENCE-SPACE FUNCTION ZN,SizingPeriod: FORT MCMURRAY AP ANN CLG .4% CONDNS DB=>MWB,0.1554011736,0.5589252477,Pass,Pass,3.9571094159E-002,0.1147509373,Pass,Pass
 Warmup Convergence Information,RELIGIOUS - FELLOWSHIP HALL-SPACE FUNCTION ZN,SizingPeriod: FORT MCMURRAY AP ANN CLG .4% CONDNS DB=>MWB,6.8265491203E-002,0.1102015049,Pass,Pass,2.8150098322E-002,4.2908628056E-002,Pass,Pass
 Warmup Convergence Information,RELIGIOUS - PULPIT/CHOIR-SPACE FUNCTION ZN,SizingPeriod: FORT MCMURRAY AP ANN CLG .4% CONDNS DB=>MWB,0.1055882091,0.3981300534,Pass,Pass,9.3996708071E-002,0.2939342879,Pass,Pass
 Warmup Convergence Information,RETAIL - DRESSING/FITTING-SPACE FUNCTION ZN,SizingPeriod: FORT MCMURRAY AP ANN CLG .4% CONDNS DB=>MWB,3.1795345050E-002,5.0447460191E-002,Pass,Pass,3.6985385719E-002,0.1217239756,Pass,Pass
 Warmup Convergence Information,RETAIL - MALL CONCOURSE-SPACE FUNCTION ZN,SizingPeriod: FORT MCMURRAY AP ANN CLG .4% CONDNS DB=>MWB,3.6427871639E-002,5.7190320138E-002,Pass,Pass,2.9454314510E-002,6.3371420698E-002,Pass,Pass
 Warmup Convergence Information,RETAIL - SALES-SPACE FUNCTION ZN,SizingPeriod: FORT MCMURRAY AP ANN CLG .4% CONDNS DB=>MWB,3.1246132307E-002,6.4028212652E-002,Pass,Pass,3.6279227150E-002,0.1815759284,Pass,Pass
 Warmup Convergence Information,SALES AREA-SPACE FUNCTION ZN,SizingPeriod: FORT MCMURRAY AP ANN CLG .4% CONDNS DB=>MWB,2.6468896470E-002,5.0870425265E-002,Pass,Pass,3.5043504192E-002,0.1532954415,Pass,Pass
 Warmup Convergence Information,SPORTS ARENA - AUDIENCE-SPACE FUNCTION ZN,SizingPeriod: FORT MCMURRAY AP ANN CLG .4% CONDNS DB=>MWB,5.9471713419E-002,0.1061232091,Pass,Pass,4.0736783215E-002,6.3768426348E-002,Pass,Pass
 Warmup Convergence Information,SPORTS ARENA - COURT C1-SPACE FUNCTION ZN,SizingPeriod: FORT MCMURRAY AP ANN CLG .4% CONDNS DB=>MWB,3.0458215419E-002,8.1513997449E-002,Pass,Pass,3.0765209280E-002,0.1106148890,Pass,Pass
 Warmup Convergence Information,SPORTS ARENA - COURT C2-SPACE FUNCTION ZN,SizingPeriod: FORT MCMURRAY AP ANN CLG .4% CONDNS DB=>MWB,3.5328656136E-002,0.1104802501,Pass,Pass,2.7887629103E-002,9.1386033620E-002,Pass,Pass
 Warmup Convergence Information,SPORTS ARENA - COURT C3-SPACE FUNCTION ZN,SizingPeriod: FORT MCMURRAY AP ANN CLG .4% CONDNS DB=>MWB,2.6548156347E-002,5.4365164667E-002,Pass,Pass,3.5902996567E-002,7.2113477127E-002,Pass,Pass
 Warmup Convergence Information,SPORTS ARENA - COURT C4-SPACE FUNCTION ZN,SizingPeriod: FORT MCMURRAY AP ANN CLG .4% CONDNS DB=>MWB,2.5959223681E-002,5.4941404591E-002,Pass,Pass,3.8141239413E-002,7.7252678677E-002,Pass,Pass
 Warmup Convergence Information,SPORTS ARENA - RING-SPACE FUNCTION ZN,SizingPeriod: FORT MCMURRAY AP ANN CLG .4% CONDNS DB=>MWB,2.8294228057E-002,7.2143364151E-002,Pass,Pass,3.3911295150E-002,0.1017500680,Pass,Pass
 Warmup Convergence Information,STAIRWAY-SCH-A-SPACE FUNCTION ZN,SizingPeriod: FORT MCMURRAY AP ANN CLG .4% CONDNS DB=>MWB,1.1942094066E-002,2.1070925714E-002,Pass,Pass,3.6143797409E-002,0.1697130776,Pass,Pass
 Warmup Convergence Information,STAIRWAY-SCH-B-SPACE FUNCTION ZN,SizingPeriod: FORT MCMURRAY AP ANN CLG .4% CONDNS DB=>MWB,1.0269200737E-002,2.2729633720E-002,Pass,Pass,2.5849069613E-002,0.1098363292,Pass,Pass
 Warmup Convergence Information,STAIRWAY-SCH-C-SPACE FUNCTION ZN,SizingPeriod: FORT MCMURRAY AP ANN CLG .4% CONDNS DB=>MWB,2.2443518810E-002,8.2375163750E-002,Pass,Pass,6.3144975622E-002,0.4829393649,Pass,Pass
 Warmup Convergence Information,STAIRWAY-SCH-D-SPACE FUNCTION ZN,SizingPeriod: FORT MCMURRAY AP ANN CLG .4% CONDNS DB=>MWB,2.3706346043E-002,4.1912908380E-002,Pass,Pass,4.5681328604E-002,0.1293565366,Pass,Pass
 Warmup Convergence Information,STAIRWAY-SCH-E-SPACE FUNCTION ZN,SizingPeriod: FORT MCMURRAY AP ANN CLG .4% CONDNS DB=>MWB,1.3977730489E-002,3.6873084817E-002,Pass,Pass,0.1267979926,1.1859283479,Pass,Pass
Environment,FORT MCMURRAY AP ANN HTG 99.6% CONDNS DB,SizingPeriod:DesignDay,01/21,01/21,WinterDesignDay,1,N/A,N/A,N/A,N/A,N/A,N/A
Environment:Daylight Saving,No,SizingPeriod:DesignDay
Environment:Design Day Data,-36.20,0.00,DefaultMultipliers,96969,90,1.0,0.00,No,No
Environment:Design Day Misc, 21,1229.0,0.1415,5.7310E-002,1.0,-11.15,-20.1,ASHRAEClearSky
Environment:WarmupDays,  6
 Warmup Convergence Information,PENITENTIARY - DINING-SPACE FUNCTION ZN,SizingPeriod: FORT MCMURRAY AP ANN HTG 99.6% CONDNS DB,5.5555555556E-002,0.3882626448,Pass,Pass,0.1412660570,0.4178195870,Pass,Pass
 Warmup Convergence Information,POST OFFICE SORTING-SPACE FUNCTION ZN,SizingPeriod: FORT MCMURRAY AP ANN HTG 99.6% CONDNS DB,5.5715722747E-002,0.3558878093,Pass,Pass,8.1662996067E-002,0.2746485899,Pass,Pass
 Warmup Convergence Information,RELIGIOUS - AUDIENCE-SPACE FUNCTION ZN,SizingPeriod: FORT MCMURRAY AP ANN HTG 99.6% CONDNS DB,5.5555555556E-002,0.3872275663,Pass,Pass,0.2244573217,1.0215157016,Pass,Pass
 Warmup Convergence Information,RELIGIOUS - FELLOWSHIP HALL-SPACE FUNCTION ZN,SizingPeriod: FORT MCMURRAY AP ANN HTG 99.6% CONDNS DB,5.5555555556E-002,0.3877783699,Pass,Pass,6.4705182067E-002,0.1915457018,Pass,Pass
 Warmup Convergence Information,RELIGIOUS - PULPIT/CHOIR-SPACE FUNCTION ZN,SizingPeriod: FORT MCMURRAY AP ANN HTG 99.6% CONDNS DB,5.5555555556E-002,0.3868337024,Pass,Pass,0.2317394060,1.2535891404,Pass,Pass
 Warmup Convergence Information,RETAIL - DRESSING/FITTING-SPACE FUNCTION ZN,SizingPeriod: FORT MCMURRAY AP ANN HTG 99.6% CONDNS DB,5.5693125655E-002,0.3607335596,Pass,Pass,0.1369948641,0.3903045375,Pass,Pass
 Warmup Convergence Information,RETAIL - MALL CONCOURSE-SPACE FUNCTION ZN,SizingPeriod: FORT MCMURRAY AP ANN HTG 99.6% CONDNS DB,5.5555555556E-002,0.3725511612,Pass,Pass,0.4101979182,2.1726469555,Pass,Pass
 Warmup Convergence Information,RETAIL - SALES-SPACE FUNCTION ZN,SizingPeriod: FORT MCMURRAY AP ANN HTG 99.6% CONDNS DB,5.5697240459E-002,0.3602490700,Pass,Pass,0.3246668411,1.3885936373,Pass,Pass
 Warmup Convergence Information,SALES AREA-SPACE FUNCTION ZN,SizingPeriod: FORT MCMURRAY AP ANN HTG 99.6% CONDNS DB,5.6068783066E-002,0.3574235371,Pass,Pass,0.2626895404,1.3571339072,Pass,Pass
 Warmup Convergence Information,SPORTS ARENA - AUDIENCE-SPACE FUNCTION ZN,SizingPeriod: FORT MCMURRAY AP ANN HTG 99.6% CONDNS DB,5.5555555556E-002,0.3950543556,Pass,Pass,1.5212784335,16.3321316716,Pass,Pass
 Warmup Convergence Information,SPORTS ARENA - COURT C1-SPACE FUNCTION ZN,SizingPeriod: FORT MCMURRAY AP ANN HTG 99.6% CONDNS DB,5.5555555556E-002,0.3640195035,Pass,Pass,1.0205260500,10.4016080785,Pass,Pass
 Warmup Convergence Information,SPORTS ARENA - COURT C2-SPACE FUNCTION ZN,SizingPeriod: FORT MCMURRAY AP ANN HTG 99.6% CONDNS DB,5.5555555556E-002,0.3658612914,Pass,Pass,0.4128977381,2.3878151377,Pass,Pass
 Warmup Convergence Information,SPORTS ARENA - COURT C3-SPACE FUNCTION ZN,SizingPeriod: FORT MCMURRAY AP ANN HTG 99.6% CONDNS DB,5.5555555556E-002,0.3661060128,Pass,Pass,1.0115679180,8.4260600113,Pass,Pass
 Warmup Convergence Information,SPORTS ARENA - COURT C4-SPACE FUNCTION ZN,SizingPeriod: FORT MCMURRAY AP ANN HTG 99.6% CONDNS DB,5.5555555556E-002,0.3672813131,Pass,Pass,0.3147686103,1.3818143987,Pass,Pass
 Warmup Convergence Information,SPORTS ARENA - RING-SPACE FUNCTION ZN,SizingPeriod: FORT MCMURRAY AP ANN HTG 99.6% CONDNS DB,5.5555555556E-002,0.3661808659,Pass,Pass,0.5890764563,3.1512099271,Pass,Pass
 Warmup Convergence Information,STAIRWAY-SCH-A-SPACE FUNCTION ZN,SizingPeriod: FORT MCMURRAY AP ANN HTG 99.6% CONDNS DB,6.3328705043E-002,0.3075501755,Pass,Pass,0.4036555216,1.5319118551,Pass,Pass
 Warmup Convergence Information,STAIRWAY-SCH-B-SPACE FUNCTION ZN,SizingPeriod: FORT MCMURRAY AP ANN HTG 99.6% CONDNS DB,6.3402573278E-002,0.3132354131,Pass,Pass,0.3275784666,1.3632491181,Pass,Pass
 Warmup Convergence Information,STAIRWAY-SCH-C-SPACE FUNCTION ZN,SizingPeriod: FORT MCMURRAY AP ANN HTG 99.6% CONDNS DB,6.1716588572E-002,0.3097015658,Pass,Pass,0.1041328904,0.3234146323,Pass,Pass
 Warmup Convergence Information,STAIRWAY-SCH-D-SPACE FUNCTION ZN,SizingPeriod: FORT MCMURRAY AP ANN HTG 99.6% CONDNS DB,5.7769883695E-002,0.3276196389,Pass,Pass,8.7256640865E-002,0.3202216441,Pass,Pass
 Warmup Convergence Information,STAIRWAY-SCH-E-SPACE FUNCTION ZN,SizingPeriod: FORT MCMURRAY AP ANN HTG 99.6% CONDNS DB,6.3418460344E-002,0.3060931988,Pass,Pass,0.3167463990,1.2194819349,Pass,Pass
! <Program Control Information:Threads/Parallel Sims>, Threading Supported,Maximum Number of Threads, Env Set Threads (OMP_NUM_THREADS), EP Env Set Threads (EP_OMP_NUM_THREADS), IDF Set Threads, Number of Threads Used (Interior Radiant Exchange), Number Nominal Surfaces, Number Parallel Sims
Program Control:Threads/Parallel Sims, No,1, N/A, N/A, N/A, N/A, N/A, N/A
End of Data
