Program Version,EnergyPlus, Version 8.9.0-eba93e8e1b, YMD=2019.03.19 18:44
! <Version>, Version ID
 Version, 8.9
! <Timesteps per Hour>, #TimeSteps, Minutes per TimeStep {minutes}
 Timesteps per Hour,  6, 10
! <System Convergence Limits>, Minimum System TimeStep {minutes}, Max HVAC Iterations, Minimum Plant Iterations, Maximum Plant Iterations
 System Convergence Limits, 1, 20, 2, 8
! <Simulation Control>, Do Zone Sizing, Do System Sizing, Do Plant Sizing, Do Design Days, Do Weather Simulation, Do HVAC Sizing Simulation
 Simulation Control, Yes, Yes, Yes, Yes, No, No
! <Output Reporting Tolerances>, Tolerance for Time Heating Setpoint Not Met, Tolerance for Zone Cooling Setpoint Not Met Time
 Output Reporting Tolerances, 1.000, 1.000, 
! <Site:GroundTemperature:BuildingSurface>,Jan{C},Feb{C},Mar{C},Apr{C},May{C},Jun{C},Jul{C},Aug{C},Sep{C},Oct{C},Nov{C},Dec{C}
 Site:GroundTemperature:BuildingSurface,  19.53,  19.50,  19.54,  19.60,  20.00,  21.64,  22.23,  22.38,  21.45,  20.12,  19.80,  19.63
! <Site:GroundTemperature:FCfactorMethod>,Jan{C},Feb{C},Mar{C},Apr{C},May{C},Jun{C},Jul{C},Aug{C},Sep{C},Oct{C},Nov{C},Dec{C}
 Site:GroundTemperature:FCfactorMethod, -12.27, -13.66, -11.19,  -7.33,   2.77,  10.57,  15.83,  17.43,  14.70,   8.65,   0.56,  -6.95
! <Site:GroundTemperature:Shallow>,Jan{C},Feb{C},Mar{C},Apr{C},May{C},Jun{C},Jul{C},Aug{C},Sep{C},Oct{C},Nov{C},Dec{C}
 Site:GroundTemperature:Shallow,  13.00,  13.00,  13.00,  13.00,  13.00,  13.00,  13.00,  13.00,  13.00,  13.00,  13.00,  13.00
! <Site:GroundTemperature:Deep>,Jan{C},Feb{C},Mar{C},Apr{C},May{C},Jun{C},Jul{C},Aug{C},Sep{C},Oct{C},Nov{C},Dec{C}
 Site:GroundTemperature:Deep,  16.00,  16.00,  16.00,  16.00,  16.00,  16.00,  16.00,  16.00,  16.00,  16.00,  16.00,  16.00
! <Site:GroundReflectance>,Jan{dimensionless},Feb{dimensionless},Mar{dimensionless},Apr{dimensionless},May{dimensionless},Jun{dimensionless},Jul{dimensionless},Aug{dimensionless},Sep{dimensionless},Oct{dimensionless},Nov{dimensionless},Dec{dimensionless}
 Site:GroundReflectance,  0.20,  0.20,  0.20,  0.20,  0.20,  0.20,  0.20,  0.20,  0.20,  0.20,  0.20,  0.20
! <Site:GroundReflectance:SnowModifier>, Normal, Daylighting {dimensionless}
 Site:GroundReflectance:SnowModifier,   1.000,   1.000
! <Site:GroundReflectance:Snow>,Jan{dimensionless},Feb{dimensionless},Mar{dimensionless},Apr{dimensionless},May{dimensionless},Jun{dimensionless},Jul{dimensionless},Aug{dimensionless},Sep{dimensionless},Oct{dimensionless},Nov{dimensionless},Dec{dimensionless}
 Site:GroundReflectance:Snow,  0.20,  0.20,  0.20,  0.20,  0.20,  0.20,  0.20,  0.20,  0.20,  0.20,  0.20,  0.20
! <Site:GroundReflectance:Snow:Daylighting>,Jan{dimensionless},Feb{dimensionless},Mar{dimensionless},Apr{dimensionless},May{dimensionless},Jun{dimensionless},Jul{dimensionless},Aug{dimensionless},Sep{dimensionless},Oct{dimensionless},Nov{dimensionless},Dec{dimensionless}
 Site:GroundReflectance:Snow:Daylighting,  0.20,  0.20,  0.20,  0.20,  0.20,  0.20,  0.20,  0.20,  0.20,  0.20,  0.20,  0.20
! <Environment:Weather Station>,Wind Sensor Height Above Ground {m},Wind Speed Profile Exponent {},Wind Speed Profile Boundary Layer Thickness {m},Air Temperature Sensor Height Above Ground {m},Wind Speed Modifier Coefficient-Internal,Temperature Modifier Coefficient-Internal
Environment:Weather Station,10.000,0.140,270.000,1.500,1.586,9.750E-003
! <Site:Location>, Location Name, Latitude {N+/S- Deg}, Longitude {E+/W- Deg},  Time Zone Number {GMT+/-}, Elevation {m},  Standard Pressure at Elevation {Pa}, Standard RhoAir at Elevation
Site:Location,Fort McMurray AP AB CAN CWEC2016 WMO#=716890,56.65,-111.22,-7.00,369.10,96969,1.1525
! <Building Information>, Building Name,North Axis {deg},Terrain,  Loads Convergence Tolerance Value,Temperature Convergence Tolerance Value,  Solar Distribution,Maximum Number of Warmup Days,Minimum Number of Warmup Days
 Building Information,Building 1,0.000,Suburbs,4.00000E-002,0.40000,FullExterior,25,6
! <Inside Convection Algorithm>, Algorithm {Simple | TARP | CeilingDiffuser | AdaptiveConvectionAlgorithm}
Inside Convection Algorithm,TARP
! <Outside Convection Algorithm>, Algorithm {SimpleCombined | TARP | MoWitt | DOE-2 | AdaptiveConvectionAlgorithm}
Outside Convection Algorithm,TARP
! <Sky Radiance Distribution>, Value {Anisotropic}
Sky Radiance Distribution,Anisotropic
! <Zone Air Solution Algorithm>, Value {ThirdOrderBackwardDifference | AnalyticalSolution | EulerMethod}
 Zone Air Solution Algorithm, ThirdOrderBackwardDifference
! <Zone Air Carbon Dioxide Balance Simulation>, Simulation {Yes/No}, Carbon Dioxide Concentration
 Zone Air Carbon Dioxide Balance Simulation, No,N/A
! <Zone Air Generic Contaminant Balance Simulation>, Simulation {Yes/No}, Generic Contaminant Concentration
 Zone Air Generic Contaminant Balance Simulation, No,N/A
! <Zone Air Mass Flow Balance Simulation>, Enforce Mass Balance, Adjust Zone Mixing, Adjust Zone Infiltration {AddInfiltration | AdjustInfiltration | None}, Infiltration Zones {MixingSourceZonesOnly | AllZones}
 Zone Air Mass Flow Balance Simulation, No,N/A,N/A,N/A
! <HVACSystemRootFindingAlgorithm>, Value {RegulaFalsi | Bisection | BisectionThenRegulaFalsi | RegulaFalsiThenBisection}
 HVACSystemRootFindingAlgorithm, RegulaFalsi
! <Environment:Site Atmospheric Variation>,Wind Speed Profile Exponent {},Wind Speed Profile Boundary Layer Thickness {m},Air Temperature Gradient Coefficient {K/m}
Environment:Site Atmospheric Variation,0.220,370.000,6.500000E-003
! <Surface Geometry>,Starting Corner,Vertex Input Direction,Coordinate System,Daylight Reference Point Coordinate System,Rectangular (Simple) Surface Coordinate System
 Surface Geometry,UpperLeftCorner,Counterclockwise,RelativeCoordinateSystem,RelativeCoordinateSystem,RelativeToZoneOrigin
! <Surface Heat Transfer Algorithm>, Value {CTF - ConductionTransferFunction | EMPD - MoisturePenetrationDepthConductionTransferFunction | CondFD - ConductionFiniteDifference | HAMT - CombinedHeatAndMoistureFiniteElement} - Description,Inside Surface Max Temperature Limit{C}, Surface Convection Coefficient Lower Limit {W/m2-K}, Surface Convection Coefficient Upper Limit {W/m2-K}
Surface Heat Transfer Algorithm, CTF - ConductionTransferFunction,200,0.10,1000.0
! <Shading Summary>, Number of Fixed Detached Shades, Number of Building Detached Shades, Number of Attached Shades
 Shading Summary,0,0,0
! <Zone Summary>, Number of Zones, Number of Zone Surfaces, Number of SubSurfaces
 Zone Summary,20,137,17
! <Zone Information>,Zone Name,North Axis {deg},Origin X-Coordinate {m},Origin Y-Coordinate {m},Origin Z-Coordinate {m},Centroid X-Coordinate {m},Centroid Y-Coordinate {m},Centroid Z-Coordinate {m},Type,Zone Multiplier,Zone List Multiplier,Minimum X {m},Maximum X {m},Minimum Y {m},Maximum Y {m},Minimum Z {m},Maximum Z {m},Ceiling Height {m},Volume {m3},Zone Inside Convection Algorithm {Simple-Detailed-CeilingDiffuser-TrombeWall},Zone Outside Convection Algorithm {Simple-Detailed-Tarp-MoWitt-DOE-2-BLAST}, Floor Area {m2},Exterior Gross Wall Area {m2},Exterior Net Wall Area {m2},Exterior Window Area {m2}, Number of Surfaces, Number of SubSurfaces, Number of Shading SubSurfaces,  Part of Total Building Area
 Zone Information, ALL_ST=STORAGE AREA - OCCSENS_FL=STORY 3_SCH=E,0.0,0.00,0.00,7.60,10.85,50.00,9.50,1,1,1,0.00,25.00,0.00,100.00,7.60,11.40,3.80,7125.00,TARP,TARP,1875.00,380.00,285.00,95.00,6,1,0,Yes
 Zone Information, ALL_ST=STORAGE AREA - REFRIGERATED - OCCSENS_FL=STORY 1_SCH=E,0.0,25.00,75.00,0.00,50.00,89.15,1.90,1,1,1,0.00,100.00,75.00,100.00,0.00,3.80,3.80,7125.00,TARP,TARP,1875.00,0.00,0.00,0.00,6,0,0,Yes
 Zone Information, ALL_ST=STORAGE AREA - REFRIGERATED_FL=STORY 1_SCH=E,0.0,0.00,0.00,0.00,10.85,50.00,1.90,1,1,1,0.00,25.00,0.00,100.00,0.00,3.80,3.80,7125.00,TARP,TARP,1875.00,0.00,0.00,0.00,6,0,0,Yes
 Zone Information, ALL_ST=STORAGE AREA_FL=STORY 3_SCH=E,0.0,25.00,75.00,7.60,50.00,89.15,9.50,1,1,1,0.00,100.00,75.00,100.00,7.60,11.40,3.80,7125.00,TARP,TARP,1875.00,380.00,285.00,95.00,6,1,0,Yes
 Zone Information, ALL_ST=TRANSP. BAGGAGE_FL=STORY 4_SCH=H,0.0,75.00,25.00,11.40,89.15,50.00,13.30,1,1,1,75.00,100.00,0.00,100.00,11.40,15.20,3.80,7125.00,TARP,TARP,1875.00,380.00,285.00,188.75,6,2,0,Yes
 Zone Information, ALL_ST=TRANSP. CONCOURSE_FL=STORY 2_SCH=H,0.0,0.00,0.00,3.80,10.85,50.00,5.70,1,1,1,0.00,25.00,0.00,100.00,3.80,7.60,3.80,7125.00,TARP,TARP,1875.00,380.00,285.00,95.00,6,1,0,Yes
 Zone Information, ALL_ST=TRANSP. COUNTER_FL=STORY 2_SCH=H,0.0,25.00,25.00,3.80,50.00,50.00,5.70,1,1,1,25.00,75.00,25.00,75.00,3.80,7.60,3.80,9500.00,TARP,TARP,2500.00,0.00,0.00,0.00,6,0,0,Yes
 Zone Information, ALL_ST=TRANSP. SEATING_FL=STORY 1_SCH=H,0.0,75.00,25.00,0.00,89.15,50.00,1.90,1,1,1,75.00,100.00,0.00,100.00,0.00,3.80,3.80,7125.00,TARP,TARP,1875.00,0.00,0.00,0.00,6,0,0,Yes
 Zone Information, ALL_ST=WAREHOUSE - FINE - REFRIGERATED_FL=STORY 4_SCH=A,0.0,0.00,0.00,11.40,50.00,10.85,13.30,1,1,1,0.00,100.00,0.00,25.00,11.40,15.20,3.80,7125.00,TARP,TARP,1875.00,380.00,285.00,188.75,6,2,0,Yes
 Zone Information, ALL_ST=WAREHOUSE - FINE_FL=STORY 1_SCH=A,0.0,0.00,0.00,0.00,50.00,10.85,1.90,1,1,1,0.00,100.00,0.00,25.00,0.00,3.80,3.80,7125.00,TARP,TARP,1875.00,0.00,0.00,0.00,6,0,0,Yes
 Zone Information, ALL_ST=WAREHOUSE - MED/BLK - REFRIGERATED_FL=STORY 3_SCH=A,0.0,75.00,25.00,7.60,89.15,50.00,9.50,1,1,1,75.00,100.00,0.00,100.00,7.60,11.40,3.80,7125.00,TARP,TARP,1875.00,380.00,285.00,95.00,6,1,0,Yes
 Zone Information, ALL_ST=WAREHOUSE - MED/BLK2 - REFRIGERATED_FL=STORY 2_SCH=A,0.0,25.00,75.00,3.80,50.00,89.15,5.70,1,1,1,0.00,100.00,75.00,100.00,3.80,7.60,3.80,7125.00,TARP,TARP,1875.00,380.00,285.00,95.00,6,1,0,Yes
 Zone Information, ALL_ST=WAREHOUSE - MED/BLK2_FL=STORY 1_SCH=A,0.0,25.00,25.00,0.00,50.00,50.00,1.90,1,1,1,25.00,75.00,25.00,75.00,0.00,3.80,3.80,9500.00,TARP,TARP,2500.00,0.00,0.00,0.00,6,0,0,Yes
 Zone Information, ALL_ST=WAREHOUSE - MED/BLK_FL=STORY 2_SCH=A,0.0,75.00,25.00,3.80,89.15,50.00,5.70,1,1,1,75.00,100.00,0.00,100.00,3.80,7.60,3.80,7125.00,TARP,TARP,1875.00,380.00,285.00,95.00,6,1,0,Yes
 Zone Information, WET_ST=WASHROOM-SCH-A_FL=STORY 3_SCHA,0.0,0.00,0.00,7.60,50.00,10.85,9.50,1,1,1,0.00,100.00,0.00,25.00,7.60,11.40,3.80,7125.00,TARP,TARP,1875.00,380.00,285.00,95.00,6,1,0,Yes
 Zone Information, WET_ST=WASHROOM-SCH-B_FL=STORY 2_SCHA,0.0,0.00,0.00,3.80,50.00,10.85,5.70,1,1,1,0.00,100.00,0.00,25.00,3.80,7.60,3.80,7125.00,TARP,TARP,1875.00,380.00,285.00,95.00,6,1,0,Yes
 Zone Information, WILD_ST=STAIRWAY-SCH-F_FL=STORY 4_SCH=A,0.0,25.00,25.00,11.40,50.00,50.00,13.30,1,1,1,25.00,75.00,25.00,75.00,11.40,15.20,3.80,9500.00,TARP,TARP,2500.00,0.00,0.00,125.00,6,1,0,Yes
 Zone Information, WILD_ST=STAIRWAY-SCH-G_FL=STORY 4_SCH=A,0.0,25.00,75.00,11.40,50.00,89.15,13.30,1,1,1,0.00,100.00,75.00,100.00,11.40,15.20,3.80,7125.00,TARP,TARP,1875.00,380.00,285.00,188.75,6,2,0,Yes
 Zone Information, WILD_ST=STAIRWAY-SCH-H_FL=STORY 4_SCH=A,0.0,0.00,0.00,11.40,10.85,50.00,13.30,1,1,1,0.00,25.00,0.00,100.00,11.40,15.20,3.80,7125.00,TARP,TARP,1875.00,380.00,285.00,188.75,6,2,0,Yes
 Zone Information, WILD_ST=STAIRWAY-SCH-I_FL=STORY 3_SCH=A,0.0,25.00,25.00,7.60,50.00,50.00,9.50,1,1,1,25.00,75.00,25.00,75.00,7.60,11.40,3.80,9500.00,TARP,TARP,2500.00,0.00,0.00,0.00,6,0,0,Yes
! <Zone Internal Gains Nominal>,Zone Name, Floor Area {m2},# Occupants,Area per Occupant {m2/person},Occupant per Area {person/m2},Interior Lighting {W/m2},Electric Load {W/m2},Gas Load {W/m2},Other Load {W/m2},Hot Water Eq {W/m2},Steam Equipment {W/m2},Sum Loads per Area {W/m2},Outdoor Controlled Baseboard Heat
 Zone Internal Gains Nominal, ALL_ST=STORAGE AREA - OCCSENS_FL=STORY 3_SCH=E,1875.00,18.8,99.896,1.001E-002,6.120,1.000,0.000,0.000,0.000,0.000,7.120,No
 Zone Internal Gains Nominal, ALL_ST=STORAGE AREA - REFRIGERATED - OCCSENS_FL=STORY 1_SCH=E,1875.00,18.8,99.896,1.001E-002,6.120,1.000,0.000,0.000,0.000,0.000,7.120,No
 Zone Internal Gains Nominal, ALL_ST=STORAGE AREA - REFRIGERATED_FL=STORY 1_SCH=E,1875.00,18.8,99.896,1.001E-002,6.800,1.000,0.000,0.000,0.000,0.000,7.800,No
 Zone Internal Gains Nominal, ALL_ST=STORAGE AREA_FL=STORY 3_SCH=E,1875.00,18.8,99.896,1.001E-002,6.800,1.000,0.000,0.000,0.000,0.000,7.800,No
 Zone Internal Gains Nominal, ALL_ST=TRANSP. BAGGAGE_FL=STORY 4_SCH=H,1875.00,93.8,19.979,5.005E-002,8.200,2.500,0.000,0.000,0.000,0.000,10.700,No
 Zone Internal Gains Nominal, ALL_ST=TRANSP. CONCOURSE_FL=STORY 2_SCH=H,1875.00,93.8,19.979,5.005E-002,3.900,0.000,0.000,0.000,0.000,0.000,3.900,No
 Zone Internal Gains Nominal, ALL_ST=TRANSP. COUNTER_FL=STORY 2_SCH=H,2500.00,250.0,10.000,10.000E-002,11.600,2.500,0.000,0.000,0.000,0.000,14.100,No
 Zone Internal Gains Nominal, ALL_ST=TRANSP. SEATING_FL=STORY 1_SCH=H,1875.00,187.5,10.000,10.000E-002,5.800,0.000,0.000,0.000,0.000,0.000,5.800,No
 Zone Internal Gains Nominal, ALL_ST=WAREHOUSE - FINE - REFRIGERATED_FL=STORY 4_SCH=A,1875.00,37.5,49.948,2.002E-002,10.200,1.000,0.000,0.000,0.000,0.000,11.200,No
 Zone Internal Gains Nominal, ALL_ST=WAREHOUSE - FINE_FL=STORY 1_SCH=A,1875.00,37.5,49.948,2.002E-002,10.200,1.000,0.000,0.000,0.000,0.000,11.200,No
 Zone Internal Gains Nominal, ALL_ST=WAREHOUSE - MED/BLK - REFRIGERATED_FL=STORY 3_SCH=A,1875.00,18.8,99.896,1.001E-002,6.400,1.000,0.000,0.000,0.000,0.000,7.400,No
 Zone Internal Gains Nominal, ALL_ST=WAREHOUSE - MED/BLK2 - REFRIGERATED_FL=STORY 2_SCH=A,1875.00,18.8,99.896,1.001E-002,10.200,1.000,0.000,0.000,0.000,0.000,11.200,No
 Zone Internal Gains Nominal, ALL_ST=WAREHOUSE - MED/BLK2_FL=STORY 1_SCH=A,2500.00,25.0,99.896,1.001E-002,10.200,1.000,0.000,0.000,0.000,0.000,11.200,No
 Zone Internal Gains Nominal, ALL_ST=WAREHOUSE - MED/BLK_FL=STORY 2_SCH=A,1875.00,18.8,99.896,1.001E-002,6.400,1.000,0.000,0.000,0.000,0.000,7.400,No
 Zone Internal Gains Nominal, WET_ST=WASHROOM-SCH-A_FL=STORY 3_SCHA,1875.00,62.6,29.969,3.337E-002,9.450,1.000,0.000,0.000,0.000,0.000,10.450,No
 Zone Internal Gains Nominal, WET_ST=WASHROOM-SCH-B_FL=STORY 2_SCHA,1875.00,62.6,29.969,3.337E-002,9.450,1.000,0.000,0.000,0.000,0.000,10.450,No
 Zone Internal Gains Nominal, WILD_ST=STAIRWAY-SCH-F_FL=STORY 4_SCH=A,2500.00,12.4,201.963,4.951E-003,7.400,0.000,0.000,0.000,0.000,0.000,7.400,No
 Zone Internal Gains Nominal, WILD_ST=STAIRWAY-SCH-G_FL=STORY 4_SCH=A,1875.00,9.3,201.963,4.951E-003,7.400,0.000,0.000,0.000,0.000,0.000,7.400,No
 Zone Internal Gains Nominal, WILD_ST=STAIRWAY-SCH-H_FL=STORY 4_SCH=A,1875.00,9.3,201.963,4.951E-003,7.400,0.000,0.000,0.000,0.000,0.000,7.400,No
 Zone Internal Gains Nominal, WILD_ST=STAIRWAY-SCH-I_FL=STORY 3_SCH=A,2500.00,12.4,201.963,4.951E-003,7.400,0.000,0.000,0.000,0.000,0.000,7.400,No
! <People Internal Gains Nominal>,Name,Schedule Name,Zone Name,Zone Floor Area {m2},# Zone Occupants,Number of People {},People/Floor Area {person/m2},Floor Area per person {m2/person},Fraction Radiant,Fraction Convected,Sensible Fraction Calculation,Activity level,ASHRAE 55 Warnings,Carbon Dioxide Generation Rate,Nominal Minimum Number of People,Nominal Maximum Number of People
 People Internal Gains Nominal, WILD_ST=STAIRWAY-SCH-F_FL=STORY 4_SCH=A SPACE FUNCTION STAIRWAY-SCH-A PEOPLE,NECB-A-OCCUPANCY,WILD_ST=STAIRWAY-SCH-F_FL=STORY 4_SCH=A,2500.00,12.4,12.4,4.951E-003,201.963,0.300,0.700,AutoCalculate,NECB-ACTIVITY,No,3.8200E-008,0,11
 People Internal Gains Nominal, WILD_ST=STAIRWAY-SCH-G_FL=STORY 4_SCH=A SPACE FUNCTION STAIRWAY-SCH-A PEOPLE,NECB-A-OCCUPANCY,WILD_ST=STAIRWAY-SCH-G_FL=STORY 4_SCH=A,1875.00,9.3,9.3,4.951E-003,201.963,0.300,0.700,AutoCalculate,NECB-ACTIVITY,No,3.8200E-008,0,8
 People Internal Gains Nominal, WILD_ST=STAIRWAY-SCH-H_FL=STORY 4_SCH=A SPACE FUNCTION STAIRWAY-SCH-A PEOPLE,NECB-A-OCCUPANCY,WILD_ST=STAIRWAY-SCH-H_FL=STORY 4_SCH=A,1875.00,9.3,9.3,4.951E-003,201.963,0.300,0.700,AutoCalculate,NECB-ACTIVITY,No,3.8200E-008,0,8
 People Internal Gains Nominal, WILD_ST=STAIRWAY-SCH-I_FL=STORY 3_SCH=A SPACE FUNCTION STAIRWAY-SCH-A PEOPLE,NECB-A-OCCUPANCY,WILD_ST=STAIRWAY-SCH-I_FL=STORY 3_SCH=A,2500.00,12.4,12.4,4.951E-003,201.963,0.300,0.700,AutoCalculate,NECB-ACTIVITY,No,3.8200E-008,0,11
 People Internal Gains Nominal, ALL_ST=STORAGE AREA_FL=STORY 3_SCH=E SPACE FUNCTION STORAGE AREA PEOPLE,NECB-E-OCCUPANCY,ALL_ST=STORAGE AREA_FL=STORY 3_SCH=E,1875.00,18.8,18.8,1.001E-002,99.896,0.300,0.700,AutoCalculate,NECB-ACTIVITY,No,3.8200E-008,0,17
 People Internal Gains Nominal, ALL_ST=STORAGE AREA - OCCSENS_FL=STORY 3_SCH=E SPACE FUNCTION STORAGE AREA - OCCSENS PEOPLE,NECB-E-OCCUPANCY,ALL_ST=STORAGE AREA - OCCSENS_FL=STORY 3_SCH=E,1875.00,18.8,18.8,1.001E-002,99.896,0.300,0.700,AutoCalculate,NECB-ACTIVITY,No,3.8200E-008,0,17
 People Internal Gains Nominal, ALL_ST=STORAGE AREA - REFRIGERATED_FL=STORY 1_SCH=E SPACE FUNCTION STORAGE AREA - REFRIGERATED PEOPLE,NECB-E-OCCUPANCY,ALL_ST=STORAGE AREA - REFRIGERATED_FL=STORY 1_SCH=E,1875.00,18.8,18.8,1.001E-002,99.896,0.300,0.700,AutoCalculate,NECB-ACTIVITY,No,3.8200E-008,0,17
 People Internal Gains Nominal, ALL_ST=STORAGE AREA - REFRIGERATED - OCCSENS_FL=STORY 1_SCH=E SPACE FUNCTION STORAGE AREA - REFRIGERATED - OCCSENS PEOPLE,NECB-E-OCCUPANCY,ALL_ST=STORAGE AREA - REFRIGERATED - OCCSENS_FL=STORY 1_SCH=E,1875.00,18.8,18.8,1.001E-002,99.896,0.300,0.700,AutoCalculate,NECB-ACTIVITY,No,3.8200E-008,0,17
 People Internal Gains Nominal, ALL_ST=TRANSP. BAGGAGE_FL=STORY 4_SCH=H SPACE FUNCTION TRANSP. BAGGAGE PEOPLE,NECB-H-OCCUPANCY,ALL_ST=TRANSP. BAGGAGE_FL=STORY 4_SCH=H,1875.00,93.8,93.8,5.005E-002,19.979,0.300,0.700,AutoCalculate,NECB-ACTIVITY,No,3.8200E-008,84,84
 People Internal Gains Nominal, ALL_ST=TRANSP. CONCOURSE_FL=STORY 2_SCH=H SPACE FUNCTION TRANSP. CONCOURSE PEOPLE,NECB-H-OCCUPANCY,ALL_ST=TRANSP. CONCOURSE_FL=STORY 2_SCH=H,1875.00,93.8,93.8,5.005E-002,19.979,0.300,0.700,AutoCalculate,NECB-ACTIVITY,No,3.8200E-008,84,84
 People Internal Gains Nominal, ALL_ST=TRANSP. COUNTER_FL=STORY 2_SCH=H SPACE FUNCTION TRANSP. COUNTER PEOPLE,NECB-H-OCCUPANCY,ALL_ST=TRANSP. COUNTER_FL=STORY 2_SCH=H,2500.00,250.0,250.0,10.000E-002,10.000,0.300,0.700,AutoCalculate,NECB-ACTIVITY,No,3.8200E-008,225,225
 People Internal Gains Nominal, ALL_ST=TRANSP. SEATING_FL=STORY 1_SCH=H SPACE FUNCTION TRANSP. SEATING PEOPLE,NECB-H-OCCUPANCY,ALL_ST=TRANSP. SEATING_FL=STORY 1_SCH=H,1875.00,187.5,187.5,10.000E-002,10.000,0.300,0.700,AutoCalculate,NECB-ACTIVITY,No,3.8200E-008,169,169
 People Internal Gains Nominal, ALL_ST=WAREHOUSE - FINE_FL=STORY 1_SCH=A SPACE FUNCTION WAREHOUSE - FINE PEOPLE,NECB-A-OCCUPANCY,ALL_ST=WAREHOUSE - FINE_FL=STORY 1_SCH=A,1875.00,37.5,37.5,2.002E-002,49.948,0.300,0.700,AutoCalculate,NECB-ACTIVITY,No,3.8200E-008,0,34
 People Internal Gains Nominal, ALL_ST=WAREHOUSE - FINE - REFRIGERATED_FL=STORY 4_SCH=A SPACE FUNCTION WAREHOUSE - FINE - REFRIGERATED PEOPLE,NECB-A-OCCUPANCY,ALL_ST=WAREHOUSE - FINE - REFRIGERATED_FL=STORY 4_SCH=A,1875.00,37.5,37.5,2.002E-002,49.948,0.300,0.700,AutoCalculate,NECB-ACTIVITY,No,3.8200E-008,0,34
 People Internal Gains Nominal, ALL_ST=WAREHOUSE - MED/BLK_FL=STORY 2_SCH=A SPACE FUNCTION WAREHOUSE - MED/BLK PEOPLE,NECB-A-OCCUPANCY,ALL_ST=WAREHOUSE - MED/BLK_FL=STORY 2_SCH=A,1875.00,18.8,18.8,1.001E-002,99.896,0.300,0.700,AutoCalculate,NECB-ACTIVITY,No,3.8200E-008,0,17
 People Internal Gains Nominal, ALL_ST=WAREHOUSE - MED/BLK - REFRIGERATED_FL=STORY 3_SCH=A SPACE FUNCTION WAREHOUSE - MED/BLK - REFRIGERATED PEOPLE,NECB-A-OCCUPANCY,ALL_ST=WAREHOUSE - MED/BLK - REFRIGERATED_FL=STORY 3_SCH=A,1875.00,18.8,18.8,1.001E-002,99.896,0.300,0.700,AutoCalculate,NECB-ACTIVITY,No,3.8200E-008,0,17
 People Internal Gains Nominal, ALL_ST=WAREHOUSE - MED/BLK2_FL=STORY 1_SCH=A SPACE FUNCTION WAREHOUSE - MED/BLK2 PEOPLE,NECB-A-OCCUPANCY,ALL_ST=WAREHOUSE - MED/BLK2_FL=STORY 1_SCH=A,2500.00,25.0,25.0,1.001E-002,99.896,0.300,0.700,AutoCalculate,NECB-ACTIVITY,No,3.8200E-008,0,23
 People Internal Gains Nominal, ALL_ST=WAREHOUSE - MED/BLK2 - REFRIGERATED_FL=STORY 2_SCH=A SPACE FUNCTION WAREHOUSE - MED/BLK2 - REFRIGERATED PEOPLE,NECB-A-OCCUPANCY,ALL_ST=WAREHOUSE - MED/BLK2 - REFRIGERATED_FL=STORY 2_SCH=A,1875.00,18.8,18.8,1.001E-002,99.896,0.300,0.700,AutoCalculate,NECB-ACTIVITY,No,3.8200E-008,0,17
 People Internal Gains Nominal, WET_ST=WASHROOM-SCH-A_FL=STORY 3_SCHA SPACE FUNCTION WASHROOM-SCH-A PEOPLE,NECB-A-OCCUPANCY,WET_ST=WASHROOM-SCH-A_FL=STORY 3_SCHA,1875.00,62.6,62.6,3.337E-002,29.969,0.300,0.700,AutoCalculate,NECB-ACTIVITY,No,3.8200E-008,0,56
 People Internal Gains Nominal, WET_ST=WASHROOM-SCH-B_FL=STORY 2_SCHA SPACE FUNCTION WASHROOM-SCH-A PEOPLE,NECB-A-OCCUPANCY,WET_ST=WASHROOM-SCH-B_FL=STORY 2_SCHA,1875.00,62.6,62.6,3.337E-002,29.969,0.300,0.700,AutoCalculate,NECB-ACTIVITY,No,3.8200E-008,0,56
! <Lights Internal Gains Nominal>,Name,Schedule Name,Zone Name,Zone Floor Area {m2},# Zone Occupants,Lighting Level {W},Lights/Floor Area {W/m2},Lights per person {W/person},Fraction Return Air,Fraction Radiant,Fraction Short Wave,Fraction Convected,Fraction Replaceable,End-Use Category,Nominal Minimum Lighting Level {W},Nominal Maximum Lighting Level {W}
 Lights Internal Gains Nominal, WILD_ST=STAIRWAY-SCH-F_FL=STORY 4_SCH=A SPACE FUNCTION STAIRWAY-SCH-A LIGHTS,NECB-A-LIGHTING,WILD_ST=STAIRWAY-SCH-F_FL=STORY 4_SCH=A,2500.00,12.4,18499.846,7.400,1494.515,0.000,0.500,0.200,0.300,1.000,General,924.992,16649.861
 Lights Internal Gains Nominal, WILD_ST=STAIRWAY-SCH-G_FL=STORY 4_SCH=A SPACE FUNCTION STAIRWAY-SCH-A LIGHTS,NECB-A-LIGHTING,WILD_ST=STAIRWAY-SCH-G_FL=STORY 4_SCH=A,1875.00,9.3,13874.885,7.400,1494.515,0.000,0.500,0.200,0.300,1.000,General,693.744,12487.396
 Lights Internal Gains Nominal, WILD_ST=STAIRWAY-SCH-H_FL=STORY 4_SCH=A SPACE FUNCTION STAIRWAY-SCH-A LIGHTS,NECB-A-LIGHTING,WILD_ST=STAIRWAY-SCH-H_FL=STORY 4_SCH=A,1875.00,9.3,13874.885,7.400,1494.515,0.000,0.500,0.200,0.300,1.000,General,693.744,12487.396
 Lights Internal Gains Nominal, WILD_ST=STAIRWAY-SCH-I_FL=STORY 3_SCH=A SPACE FUNCTION STAIRWAY-SCH-A LIGHTS,NECB-A-LIGHTING,WILD_ST=STAIRWAY-SCH-I_FL=STORY 3_SCH=A,2500.00,12.4,18499.846,7.400,1494.515,0.000,0.500,0.200,0.300,1.000,General,924.992,16649.861
 Lights Internal Gains Nominal, ALL_ST=STORAGE AREA_FL=STORY 3_SCH=E SPACE FUNCTION STORAGE AREA LIGHTS,NECB-E-LIGHTING,ALL_ST=STORAGE AREA_FL=STORY 3_SCH=E,1875.00,18.8,12749.894,6.800,679.285,0.000,0.500,0.200,0.300,1.000,General,637.495,11474.904
 Lights Internal Gains Nominal, ALL_ST=STORAGE AREA - OCCSENS_FL=STORY 3_SCH=E SPACE FUNCTION STORAGE AREA - OCCSENS LIGHTS,NECB-E-LIGHTING,ALL_ST=STORAGE AREA - OCCSENS_FL=STORY 3_SCH=E,1875.00,18.8,11474.905,6.120,611.357,0.000,0.500,0.200,0.300,1.000,General,573.745,10327.414
 Lights Internal Gains Nominal, ALL_ST=STORAGE AREA - REFRIGERATED_FL=STORY 1_SCH=E SPACE FUNCTION STORAGE AREA - REFRIGERATED LIGHTS,NECB-E-LIGHTING,ALL_ST=STORAGE AREA - REFRIGERATED_FL=STORY 1_SCH=E,1875.00,18.8,12749.894,6.800,679.285,0.000,0.500,0.200,0.300,1.000,General,637.495,11474.904
 Lights Internal Gains Nominal, ALL_ST=STORAGE AREA - REFRIGERATED - OCCSENS_FL=STORY 1_SCH=E SPACE FUNCTION STORAGE AREA - REFRIGERATED - OCCSENS LIGHTS,NECB-E-LIGHTING,ALL_ST=STORAGE AREA - REFRIGERATED - OCCSENS_FL=STORY 1_SCH=E,1875.00,18.8,11474.905,6.120,611.357,0.000,0.500,0.200,0.300,1.000,General,573.745,10327.414
 Lights Internal Gains Nominal, ALL_ST=TRANSP. BAGGAGE_FL=STORY 4_SCH=H SPACE FUNCTION TRANSP. BAGGAGE LIGHTS,NECB-H-LIGHTING,ALL_ST=TRANSP. BAGGAGE_FL=STORY 4_SCH=H,1875.00,93.8,15374.872,8.200,163.828,0.000,0.500,0.200,0.300,1.000,General,13837.385,13837.385
 Lights Internal Gains Nominal, ALL_ST=TRANSP. CONCOURSE_FL=STORY 2_SCH=H SPACE FUNCTION TRANSP. CONCOURSE LIGHTS,NECB-H-LIGHTING,ALL_ST=TRANSP. CONCOURSE_FL=STORY 2_SCH=H,1875.00,93.8,7312.439,3.900,77.918,0.000,0.500,0.200,0.300,1.000,General,6581.195,6581.195
 Lights Internal Gains Nominal, ALL_ST=TRANSP. COUNTER_FL=STORY 2_SCH=H SPACE FUNCTION TRANSP. COUNTER LIGHTS,NECB-H-LIGHTING,ALL_ST=TRANSP. COUNTER_FL=STORY 2_SCH=H,2500.00,250.0,28999.759,11.600,116.003,0.000,0.500,0.200,0.300,1.000,General,26099.783,26099.783
 Lights Internal Gains Nominal, ALL_ST=TRANSP. SEATING_FL=STORY 1_SCH=H SPACE FUNCTION TRANSP. SEATING LIGHTS,NECB-H-LIGHTING,ALL_ST=TRANSP. SEATING_FL=STORY 1_SCH=H,1875.00,187.5,10874.910,5.800,58.001,0.000,0.500,0.200,0.300,1.000,General,9787.419,9787.419
 Lights Internal Gains Nominal, ALL_ST=WAREHOUSE - FINE_FL=STORY 1_SCH=A SPACE FUNCTION WAREHOUSE - FINE LIGHTS,NECB-A-LIGHTING,ALL_ST=WAREHOUSE - FINE_FL=STORY 1_SCH=A,1875.00,37.5,19124.841,10.200,509.464,0.000,0.500,0.200,0.300,1.000,General,956.242,17212.357
 Lights Internal Gains Nominal, ALL_ST=WAREHOUSE - FINE - REFRIGERATED_FL=STORY 4_SCH=A SPACE FUNCTION WAREHOUSE - FINE - REFRIGERATED LIGHTS,NECB-A-LIGHTING,ALL_ST=WAREHOUSE - FINE - REFRIGERATED_FL=STORY 4_SCH=A,1875.00,37.5,19124.841,10.200,509.464,0.000,0.500,0.200,0.300,1.000,General,956.242,17212.357
 Lights Internal Gains Nominal, ALL_ST=WAREHOUSE - MED/BLK_FL=STORY 2_SCH=A SPACE FUNCTION WAREHOUSE - MED/BLK LIGHTS,NECB-A-LIGHTING,ALL_ST=WAREHOUSE - MED/BLK_FL=STORY 2_SCH=A,1875.00,18.8,11999.900,6.400,639.327,0.000,0.500,0.200,0.300,1.000,General,599.995,10799.910
 Lights Internal Gains Nominal, ALL_ST=WAREHOUSE - MED/BLK - REFRIGERATED_FL=STORY 3_SCH=A SPACE FUNCTION WAREHOUSE - MED/BLK - REFRIGERATED LIGHTS,NECB-A-LIGHTING,ALL_ST=WAREHOUSE - MED/BLK - REFRIGERATED_FL=STORY 3_SCH=A,1875.00,18.8,11999.900,6.400,639.327,0.000,0.500,0.200,0.300,1.000,General,599.995,10799.910
 Lights Internal Gains Nominal, ALL_ST=WAREHOUSE - MED/BLK2_FL=STORY 1_SCH=A SPACE FUNCTION WAREHOUSE - MED/BLK2 LIGHTS,NECB-A-LIGHTING,ALL_ST=WAREHOUSE - MED/BLK2_FL=STORY 1_SCH=A,2500.00,25.0,25499.788,10.200,1018.928,0.000,0.500,0.200,0.300,1.000,General,1274.989,22949.809
 Lights Internal Gains Nominal, ALL_ST=WAREHOUSE - MED/BLK2 - REFRIGERATED_FL=STORY 2_SCH=A SPACE FUNCTION WAREHOUSE - MED/BLK2 - REFRIGERATED LIGHTS,NECB-A-LIGHTING,ALL_ST=WAREHOUSE - MED/BLK2 - REFRIGERATED_FL=STORY 2_SCH=A,1875.00,18.8,19124.841,10.200,1018.928,0.000,0.500,0.200,0.300,1.000,General,956.242,17212.357
 Lights Internal Gains Nominal, WET_ST=WASHROOM-SCH-A_FL=STORY 3_SCHA SPACE FUNCTION WASHROOM-SCH-A LIGHTS,NECB-A-LIGHTING,WET_ST=WASHROOM-SCH-A_FL=STORY 3_SCHA,1875.00,62.6,17718.603,9.450,283.202,0.000,0.500,0.200,0.300,1.000,General,885.930,15946.742
 Lights Internal Gains Nominal, WET_ST=WASHROOM-SCH-B_FL=STORY 2_SCHA SPACE FUNCTION WASHROOM-SCH-A LIGHTS,NECB-A-LIGHTING,WET_ST=WASHROOM-SCH-B_FL=STORY 2_SCHA,1875.00,62.6,17718.603,9.450,283.202,0.000,0.500,0.200,0.300,1.000,General,885.930,15946.742
! <ElectricEquipment Internal Gains Nominal>,Name,Schedule Name,Zone Name,Zone Floor Area {m2},# Zone Occupants,Equipment Level {W},Equipment/Floor Area {W/m2},Equipment per person {W/person},Fraction Latent,Fraction Radiant,Fraction Lost,Fraction Convected,End-Use SubCategory,Nominal Minimum Equipment Level {W},Nominal Maximum Equipment Level {W}
 ElectricEquipment Internal Gains Nominal, ALL_ST=STORAGE AREA_FL=STORY 3_SCH=E SPACE FUNCTION STORAGE AREA ELEC EQUIP,NECB-E-ELECTRIC-EQUIPMENT,ALL_ST=STORAGE AREA_FL=STORY 3_SCH=E,1875.00,18.8,1874.984,1.000,99.895,0.000,0.500,0.000,0.500,General,93.749,1687.486
 ElectricEquipment Internal Gains Nominal, ALL_ST=STORAGE AREA - OCCSENS_FL=STORY 3_SCH=E SPACE FUNCTION STORAGE AREA - OCCSENS ELEC EQUIP,NECB-E-ELECTRIC-EQUIPMENT,ALL_ST=STORAGE AREA - OCCSENS_FL=STORY 3_SCH=E,1875.00,18.8,1874.984,1.000,99.895,0.000,0.500,0.000,0.500,General,93.749,1687.486
 ElectricEquipment Internal Gains Nominal, ALL_ST=STORAGE AREA - REFRIGERATED_FL=STORY 1_SCH=E SPACE FUNCTION STORAGE AREA - REFRIGERATED ELEC EQUIP,NECB-E-ELECTRIC-EQUIPMENT,ALL_ST=STORAGE AREA - REFRIGERATED_FL=STORY 1_SCH=E,1875.00,18.8,1874.984,1.000,99.895,0.000,0.500,0.000,0.500,General,93.749,1687.486
 ElectricEquipment Internal Gains Nominal, ALL_ST=STORAGE AREA - REFRIGERATED - OCCSENS_FL=STORY 1_SCH=E SPACE FUNCTION STORAGE AREA - REFRIGERATED - OCCSENS ELEC EQUIP,NECB-E-ELECTRIC-EQUIPMENT,ALL_ST=STORAGE AREA - REFRIGERATED - OCCSENS_FL=STORY 1_SCH=E,1875.00,18.8,1874.984,1.000,99.895,0.000,0.500,0.000,0.500,General,93.749,1687.486
 ElectricEquipment Internal Gains Nominal, ALL_ST=TRANSP. BAGGAGE_FL=STORY 4_SCH=H SPACE FUNCTION TRANSP. BAGGAGE ELEC EQUIP,NECB-H-ELECTRIC-EQUIPMENT,ALL_ST=TRANSP. BAGGAGE_FL=STORY 4_SCH=H,1875.00,93.8,4687.461,2.500,49.947,0.000,0.500,0.000,0.500,General,4218.715,4218.715
 ElectricEquipment Internal Gains Nominal, ALL_ST=TRANSP. COUNTER_FL=STORY 2_SCH=H SPACE FUNCTION TRANSP. COUNTER ELEC EQUIP,NECB-H-ELECTRIC-EQUIPMENT,ALL_ST=TRANSP. COUNTER_FL=STORY 2_SCH=H,2500.00,250.0,6249.948,2.500,25.001,0.000,0.500,0.000,0.500,General,5624.953,5624.953
 ElectricEquipment Internal Gains Nominal, ALL_ST=WAREHOUSE - FINE_FL=STORY 1_SCH=A SPACE FUNCTION WAREHOUSE - FINE ELEC EQUIP,NECB-A-ELECTRIC-EQUIPMENT,ALL_ST=WAREHOUSE - FINE_FL=STORY 1_SCH=A,1875.00,37.5,1874.984,1.000,49.947,0.000,0.500,0.000,0.500,General,374.997,1687.486
 ElectricEquipment Internal Gains Nominal, ALL_ST=WAREHOUSE - FINE - REFRIGERATED_FL=STORY 4_SCH=A SPACE FUNCTION WAREHOUSE - FINE - REFRIGERATED ELEC EQUIP,NECB-A-ELECTRIC-EQUIPMENT,ALL_ST=WAREHOUSE - FINE - REFRIGERATED_FL=STORY 4_SCH=A,1875.00,37.5,1874.984,1.000,49.947,0.000,0.500,0.000,0.500,General,374.997,1687.486
 ElectricEquipment Internal Gains Nominal, ALL_ST=WAREHOUSE - MED/BLK_FL=STORY 2_SCH=A SPACE FUNCTION WAREHOUSE - MED/BLK ELEC EQUIP,NECB-A-ELECTRIC-EQUIPMENT,ALL_ST=WAREHOUSE - MED/BLK_FL=STORY 2_SCH=A,1875.00,18.8,1874.984,1.000,99.895,0.000,0.500,0.000,0.500,General,374.997,1687.486
 ElectricEquipment Internal Gains Nominal, ALL_ST=WAREHOUSE - MED/BLK - REFRIGERATED_FL=STORY 3_SCH=A SPACE FUNCTION WAREHOUSE - MED/BLK - REFRIGERATED ELEC EQUIP,NECB-A-ELECTRIC-EQUIPMENT,ALL_ST=WAREHOUSE - MED/BLK - REFRIGERATED_FL=STORY 3_SCH=A,1875.00,18.8,1874.984,1.000,99.895,0.000,0.500,0.000,0.500,General,374.997,1687.486
 ElectricEquipment Internal Gains Nominal, ALL_ST=WAREHOUSE - MED/BLK2_FL=STORY 1_SCH=A SPACE FUNCTION WAREHOUSE - MED/BLK2 ELEC EQUIP,NECB-A-ELECTRIC-EQUIPMENT,ALL_ST=WAREHOUSE - MED/BLK2_FL=STORY 1_SCH=A,2500.00,25.0,2499.979,1.000,99.895,0.000,0.500,0.000,0.500,General,499.996,2249.981
 ElectricEquipment Internal Gains Nominal, ALL_ST=WAREHOUSE - MED/BLK2 - REFRIGERATED_FL=STORY 2_SCH=A SPACE FUNCTION WAREHOUSE - MED/BLK2 - REFRIGERATED ELEC EQUIP,NECB-A-ELECTRIC-EQUIPMENT,ALL_ST=WAREHOUSE - MED/BLK2 - REFRIGERATED_FL=STORY 2_SCH=A,1875.00,18.8,1874.984,1.000,99.895,0.000,0.500,0.000,0.500,General,374.997,1687.486
 ElectricEquipment Internal Gains Nominal, WET_ST=WASHROOM-SCH-A_FL=STORY 3_SCHA SPACE FUNCTION WASHROOM-SCH-A ELEC EQUIP,NECB-A-ELECTRIC-EQUIPMENT,WET_ST=WASHROOM-SCH-A_FL=STORY 3_SCHA,1875.00,62.6,1874.984,1.000,29.968,0.000,0.500,0.000,0.500,General,374.997,1687.486
 ElectricEquipment Internal Gains Nominal, WET_ST=WASHROOM-SCH-B_FL=STORY 2_SCHA SPACE FUNCTION WASHROOM-SCH-A ELEC EQUIP,NECB-A-ELECTRIC-EQUIPMENT,WET_ST=WASHROOM-SCH-B_FL=STORY 2_SCHA,1875.00,62.6,1874.984,1.000,29.968,0.000,0.500,0.000,0.500,General,374.997,1687.486
! <Shadowing/Sun Position Calculations Annual Simulations>, Calculation Method, Value {days}, Allowable Number Figures in Shadow Overlap {}, Polygon Clipping Algorithm, Sky Diffuse Modeling Algorithm, External Shading Calculation Method, Output External Shading Calculation Results, Disable Self-Shading Within Shading Zone Groups, Disable Self-Shading From Shading Zone Groups to Other Zones
Shadowing/Sun Position Calculations Annual Simulations,AverageOverDaysInFrequency,20,15000,SutherlandHodgman,SimpleSkyDiffuseModeling,InternalCalculation,No,No,No
! <Water Heater Information>,Type,Name,Volume {m3},Maximum Capacity {W},Standard Rated Recovery Efficiency, Standard Rated Energy Factor
! <ZoneInfiltration Airflow Stats Nominal>,Name,Schedule Name,Zone Name, Zone Floor Area {m2}, # Zone Occupants,Design Volume Flow Rate {m3/s},Volume Flow Rate/Floor Area {m3/s/m2},Volume Flow Rate/Exterior Surface Area {m3/s/m2},ACH - Air Changes per Hour,Equation A - Constant Term Coefficient {},Equation B - Temperature Term Coefficient {1/C},Equation C - Velocity Term Coefficient {s/m}, Equation D - Velocity Squared Term Coefficient {s2/m2}
 ZoneInfiltration Airflow Stats Nominal, STORAGE AREA - OCCSENS-SPACE FUNCTION INFILTRATION,ALWAYS ON DISCRETE,ALL_ST=STORAGE AREA - OCCSENS_FL=STORY 3_SCH=E,1875.00,18.8,9.500E-002,5.067E-005,2.500E-004,4.800E-002,0.000,0.000,0.224,0.000
 ZoneInfiltration Airflow Stats Nominal, STORAGE AREA-SPACE FUNCTION INFILTRATION,ALWAYS ON DISCRETE,ALL_ST=STORAGE AREA_FL=STORY 3_SCH=E,1875.00,18.8,9.500E-002,5.067E-005,2.500E-004,4.800E-002,0.000,0.000,0.224,0.000
 ZoneInfiltration Airflow Stats Nominal, TRANSP. BAGGAGE-SPACE FUNCTION INFILTRATION,ALWAYS ON DISCRETE,ALL_ST=TRANSP. BAGGAGE_FL=STORY 4_SCH=H,1875.00,93.8,0.564,3.007E-004,2.500E-004,0.285,0.000,0.000,0.224,0.000
 ZoneInfiltration Airflow Stats Nominal, TRANSP. CONCOURSE-SPACE FUNCTION INFILTRATION,ALWAYS ON DISCRETE,ALL_ST=TRANSP. CONCOURSE_FL=STORY 2_SCH=H,1875.00,93.8,9.500E-002,5.067E-005,2.500E-004,4.800E-002,0.000,0.000,0.224,0.000
 ZoneInfiltration Airflow Stats Nominal, WAREHOUSE - FINE - REFRIGERATED-SPACE FUNCTION INFILTRATION,ALWAYS ON DISCRETE,ALL_ST=WAREHOUSE - FINE - REFRIGERATED_FL=STORY 4_SCH=A,1875.00,37.5,0.564,3.007E-004,2.500E-004,0.285,0.000,0.000,0.224,0.000
 ZoneInfiltration Airflow Stats Nominal, WAREHOUSE - MED/BLK - REFRIGERATED-SPACE FUNCTION INFILTRATION,ALWAYS ON DISCRETE,ALL_ST=WAREHOUSE - MED/BLK - REFRIGERATED_FL=STORY 3_SCH=A,1875.00,18.8,9.500E-002,5.067E-005,2.500E-004,4.800E-002,0.000,0.000,0.224,0.000
 ZoneInfiltration Airflow Stats Nominal, WAREHOUSE - MED/BLK2 - REFRIGERATED-SPACE FUNCTION INFILTRATION,ALWAYS ON DISCRETE,ALL_ST=WAREHOUSE - MED/BLK2 - REFRIGERATED_FL=STORY 2_SCH=A,1875.00,18.8,9.500E-002,5.067E-005,2.500E-004,4.800E-002,0.000,0.000,0.224,0.000
 ZoneInfiltration Airflow Stats Nominal, WAREHOUSE - MED/BLK-SPACE FUNCTION INFILTRATION,ALWAYS ON DISCRETE,ALL_ST=WAREHOUSE - MED/BLK_FL=STORY 2_SCH=A,1875.00,18.8,9.500E-002,5.067E-005,2.500E-004,4.800E-002,0.000,0.000,0.224,0.000
 ZoneInfiltration Airflow Stats Nominal, WASHROOM-SCH-A-SPACE FUNCTION INFILTRATION,ALWAYS ON DISCRETE,WET_ST=WASHROOM-SCH-A_FL=STORY 3_SCHA,1875.00,62.6,9.500E-002,5.067E-005,2.500E-004,4.800E-002,0.000,0.000,0.224,0.000
 ZoneInfiltration Airflow Stats Nominal, WASHROOM-SCH-B-SPACE FUNCTION INFILTRATION,ALWAYS ON DISCRETE,WET_ST=WASHROOM-SCH-B_FL=STORY 2_SCHA,1875.00,62.6,9.500E-002,5.067E-005,2.500E-004,4.800E-002,0.000,0.000,0.224,0.000
 ZoneInfiltration Airflow Stats Nominal, STAIRWAY-SCH-F-SPACE FUNCTION INFILTRATION,ALWAYS ON DISCRETE,WILD_ST=STAIRWAY-SCH-F_FL=STORY 4_SCH=A,2500.00,12.4,0.625,2.500E-004,2.500E-004,0.237,0.000,0.000,0.224,0.000
 ZoneInfiltration Airflow Stats Nominal, STAIRWAY-SCH-G-SPACE FUNCTION INFILTRATION,ALWAYS ON DISCRETE,WILD_ST=STAIRWAY-SCH-G_FL=STORY 4_SCH=A,1875.00,9.3,0.564,3.007E-004,2.500E-004,0.285,0.000,0.000,0.224,0.000
 ZoneInfiltration Airflow Stats Nominal, STAIRWAY-SCH-H-SPACE FUNCTION INFILTRATION,ALWAYS ON DISCRETE,WILD_ST=STAIRWAY-SCH-H_FL=STORY 4_SCH=A,1875.00,9.3,0.564,3.007E-004,2.500E-004,0.285,0.000,0.000,0.224,0.000
 ZoneInfiltration Airflow Stats Nominal, WILD_ST=STAIRWAY-SCH-F_FL=STORY 4_SCH=A SPACE FUNCTION STAIRWAY-SCH-A INFILTRATION,ALWAYS ON,WILD_ST=STAIRWAY-SCH-F_FL=STORY 4_SCH=A,2500.00,12.4,0.625,2.501E-004,2.501E-004,0.237,1.000,0.000,0.000,0.000
 ZoneInfiltration Airflow Stats Nominal, WILD_ST=STAIRWAY-SCH-G_FL=STORY 4_SCH=A SPACE FUNCTION STAIRWAY-SCH-A INFILTRATION,ALWAYS ON,WILD_ST=STAIRWAY-SCH-G_FL=STORY 4_SCH=A,1875.00,9.3,0.564,3.007E-004,2.501E-004,0.285,1.000,0.000,0.000,0.000
 ZoneInfiltration Airflow Stats Nominal, WILD_ST=STAIRWAY-SCH-H_FL=STORY 4_SCH=A SPACE FUNCTION STAIRWAY-SCH-A INFILTRATION,ALWAYS ON,WILD_ST=STAIRWAY-SCH-H_FL=STORY 4_SCH=A,1875.00,9.3,0.564,3.007E-004,2.501E-004,0.285,1.000,0.000,0.000,0.000
 ZoneInfiltration Airflow Stats Nominal, WILD_ST=STAIRWAY-SCH-I_FL=STORY 3_SCH=A SPACE FUNCTION STAIRWAY-SCH-A INFILTRATION,ALWAYS ON,WILD_ST=STAIRWAY-SCH-I_FL=STORY 3_SCH=A,2500.00,12.4,0.000,0.000,N/A,0.000,1.000,0.000,0.000,0.000
! <AirFlow Model>, Simple
 AirFlow Model, Simple
! <RoomAir Model>, Zone Name, Mixing/Mundt/UCSDDV/UCSDCV/UCSDUFI/UCSDUFE/User Defined
RoomAir Model,ALL_ST=STORAGE AREA - OCCSENS_FL=STORY 3_SCH=E,Mixing/Well-Stirred
RoomAir Model,ALL_ST=STORAGE AREA - REFRIGERATED - OCCSENS_FL=STORY 1_SCH=E,Mixing/Well-Stirred
RoomAir Model,ALL_ST=STORAGE AREA - REFRIGERATED_FL=STORY 1_SCH=E,Mixing/Well-Stirred
RoomAir Model,ALL_ST=STORAGE AREA_FL=STORY 3_SCH=E,Mixing/Well-Stirred
RoomAir Model,ALL_ST=TRANSP. BAGGAGE_FL=STORY 4_SCH=H,Mixing/Well-Stirred
RoomAir Model,ALL_ST=TRANSP. CONCOURSE_FL=STORY 2_SCH=H,Mixing/Well-Stirred
RoomAir Model,ALL_ST=TRANSP. COUNTER_FL=STORY 2_SCH=H,Mixing/Well-Stirred
RoomAir Model,ALL_ST=TRANSP. SEATING_FL=STORY 1_SCH=H,Mixing/Well-Stirred
RoomAir Model,ALL_ST=WAREHOUSE - FINE - REFRIGERATED_FL=STORY 4_SCH=A,Mixing/Well-Stirred
RoomAir Model,ALL_ST=WAREHOUSE - FINE_FL=STORY 1_SCH=A,Mixing/Well-Stirred
RoomAir Model,ALL_ST=WAREHOUSE - MED/BLK - REFRIGERATED_FL=STORY 3_SCH=A,Mixing/Well-Stirred
RoomAir Model,ALL_ST=WAREHOUSE - MED/BLK2 - REFRIGERATED_FL=STORY 2_SCH=A,Mixing/Well-Stirred
RoomAir Model,ALL_ST=WAREHOUSE - MED/BLK2_FL=STORY 1_SCH=A,Mixing/Well-Stirred
RoomAir Model,ALL_ST=WAREHOUSE - MED/BLK_FL=STORY 2_SCH=A,Mixing/Well-Stirred
RoomAir Model,WET_ST=WASHROOM-SCH-A_FL=STORY 3_SCHA,Mixing/Well-Stirred
RoomAir Model,WET_ST=WASHROOM-SCH-B_FL=STORY 2_SCHA,Mixing/Well-Stirred
RoomAir Model,WILD_ST=STAIRWAY-SCH-F_FL=STORY 4_SCH=A,Mixing/Well-Stirred
RoomAir Model,WILD_ST=STAIRWAY-SCH-G_FL=STORY 4_SCH=A,Mixing/Well-Stirred
RoomAir Model,WILD_ST=STAIRWAY-SCH-H_FL=STORY 4_SCH=A,Mixing/Well-Stirred
RoomAir Model,WILD_ST=STAIRWAY-SCH-I_FL=STORY 3_SCH=A,Mixing/Well-Stirred
! <AirflowNetwork Model:Control>, No Multizone or Distribution/Multizone with Distribution/Multizone without Distribution/Multizone with Distribution only during Fan Operation
AirflowNetwork Model:Control,NoMultizoneOrDistribution
! <Zone Volume Capacitance Multiplier>, Sensible Heat Capacity Multiplier, Moisture Capacity Multiplier, Carbon Dioxide Capacity Multiplier, Generic Contaminant Capacity Multiplier
Zone Volume Capacitance Multiplier,   1.000 ,   1.000,   1.000,   1.000
! <Load Timesteps in Zone Design Calculation Averaging Window>, Value
 Load Timesteps in Zone Design Calculation Averaging Window,    6
! <Heating Sizing Factor Information>, Sizing Factor ID, Value
 Heating Sizing Factor Information, Global,   1.3000    
 Heating Sizing Factor Information, Zone ALL_ST=STORAGE AREA - OCCSENS_FL=STORY 3_SCH=E,   1.3000    
 Heating Sizing Factor Information, Zone ALL_ST=STORAGE AREA - REFRIGERATED - OCCSENS_FL=STORY 1_SCH=E,   1.3000    
 Heating Sizing Factor Information, Zone ALL_ST=STORAGE AREA - REFRIGERATED_FL=STORY 1_SCH=E,   1.3000    
 Heating Sizing Factor Information, Zone ALL_ST=STORAGE AREA_FL=STORY 3_SCH=E,   1.3000    
 Heating Sizing Factor Information, Zone ALL_ST=TRANSP. BAGGAGE_FL=STORY 4_SCH=H,   1.3000    
 Heating Sizing Factor Information, Zone ALL_ST=TRANSP. CONCOURSE_FL=STORY 2_SCH=H,   1.3000    
 Heating Sizing Factor Information, Zone ALL_ST=TRANSP. COUNTER_FL=STORY 2_SCH=H,   1.3000    
 Heating Sizing Factor Information, Zone ALL_ST=TRANSP. SEATING_FL=STORY 1_SCH=H,   1.3000    
 Heating Sizing Factor Information, Zone ALL_ST=WAREHOUSE - FINE - REFRIGERATED_FL=STORY 4_SCH=A,   1.3000    
 Heating Sizing Factor Information, Zone ALL_ST=WAREHOUSE - FINE_FL=STORY 1_SCH=A,   1.3000    
 Heating Sizing Factor Information, Zone ALL_ST=WAREHOUSE - MED/BLK - REFRIGERATED_FL=STORY 3_SCH=A,   1.3000    
 Heating Sizing Factor Information, Zone ALL_ST=WAREHOUSE - MED/BLK2 - REFRIGERATED_FL=STORY 2_SCH=A,   1.3000    
 Heating Sizing Factor Information, Zone ALL_ST=WAREHOUSE - MED/BLK2_FL=STORY 1_SCH=A,   1.3000    
 Heating Sizing Factor Information, Zone ALL_ST=WAREHOUSE - MED/BLK_FL=STORY 2_SCH=A,   1.3000    
 Heating Sizing Factor Information, Zone WET_ST=WASHROOM-SCH-A_FL=STORY 3_SCHA,   1.3000    
 Heating Sizing Factor Information, Zone WET_ST=WASHROOM-SCH-B_FL=STORY 2_SCHA,   1.3000    
 Heating Sizing Factor Information, Zone WILD_ST=STAIRWAY-SCH-F_FL=STORY 4_SCH=A,   1.3000    
 Heating Sizing Factor Information, Zone WILD_ST=STAIRWAY-SCH-G_FL=STORY 4_SCH=A,   1.3000    
 Heating Sizing Factor Information, Zone WILD_ST=STAIRWAY-SCH-H_FL=STORY 4_SCH=A,   1.3000    
 Heating Sizing Factor Information, Zone WILD_ST=STAIRWAY-SCH-I_FL=STORY 3_SCH=A,   1.3000    
! <Cooling Sizing Factor Information>, Sizing Factor ID, Value
 Cooling Sizing Factor Information, Global,   1.1000    
 Cooling Sizing Factor Information, Zone ALL_ST=STORAGE AREA - OCCSENS_FL=STORY 3_SCH=E,   1.1000    
 Cooling Sizing Factor Information, Zone ALL_ST=STORAGE AREA - REFRIGERATED - OCCSENS_FL=STORY 1_SCH=E,   1.1000    
 Cooling Sizing Factor Information, Zone ALL_ST=STORAGE AREA - REFRIGERATED_FL=STORY 1_SCH=E,   1.1000    
 Cooling Sizing Factor Information, Zone ALL_ST=STORAGE AREA_FL=STORY 3_SCH=E,   1.1000    
 Cooling Sizing Factor Information, Zone ALL_ST=TRANSP. BAGGAGE_FL=STORY 4_SCH=H,   1.1000    
 Cooling Sizing Factor Information, Zone ALL_ST=TRANSP. CONCOURSE_FL=STORY 2_SCH=H,   1.1000    
 Cooling Sizing Factor Information, Zone ALL_ST=TRANSP. COUNTER_FL=STORY 2_SCH=H,   1.1000    
 Cooling Sizing Factor Information, Zone ALL_ST=TRANSP. SEATING_FL=STORY 1_SCH=H,   1.1000    
 Cooling Sizing Factor Information, Zone ALL_ST=WAREHOUSE - FINE - REFRIGERATED_FL=STORY 4_SCH=A,   1.1000    
 Cooling Sizing Factor Information, Zone ALL_ST=WAREHOUSE - FINE_FL=STORY 1_SCH=A,   1.1000    
 Cooling Sizing Factor Information, Zone ALL_ST=WAREHOUSE - MED/BLK - REFRIGERATED_FL=STORY 3_SCH=A,   1.1000    
 Cooling Sizing Factor Information, Zone ALL_ST=WAREHOUSE - MED/BLK2 - REFRIGERATED_FL=STORY 2_SCH=A,   1.1000    
 Cooling Sizing Factor Information, Zone ALL_ST=WAREHOUSE - MED/BLK2_FL=STORY 1_SCH=A,   1.1000    
 Cooling Sizing Factor Information, Zone ALL_ST=WAREHOUSE - MED/BLK_FL=STORY 2_SCH=A,   1.1000    
 Cooling Sizing Factor Information, Zone WET_ST=WASHROOM-SCH-A_FL=STORY 3_SCHA,   1.1000    
 Cooling Sizing Factor Information, Zone WET_ST=WASHROOM-SCH-B_FL=STORY 2_SCHA,   1.1000    
 Cooling Sizing Factor Information, Zone WILD_ST=STAIRWAY-SCH-F_FL=STORY 4_SCH=A,   1.1000    
 Cooling Sizing Factor Information, Zone WILD_ST=STAIRWAY-SCH-G_FL=STORY 4_SCH=A,   1.1000    
 Cooling Sizing Factor Information, Zone WILD_ST=STAIRWAY-SCH-H_FL=STORY 4_SCH=A,   1.1000    
 Cooling Sizing Factor Information, Zone WILD_ST=STAIRWAY-SCH-I_FL=STORY 3_SCH=A,   1.1000    
! <Zone Sizing Information>, Zone Name, Load Type, Calc Des Load {W}, User Des Load {W}, Calc Des Air Flow Rate {m3/s}, User Des Air Flow Rate {m3/s}, Design Day Name, Date/Time of Peak, Temperature at Peak {C}, Humidity Ratio at Peak {kgWater/kgDryAir}, Floor Area {m2}, # Occupants, Calc Outdoor Air Flow Rate {m3/s}, Calc DOAS Heat Addition Rate {W}
 Zone Sizing Information, ALL_ST=STORAGE AREA - OCCSENS_FL=STORY 3_SCH=E, Cooling, 39226.82383, 43149.50622, 3.03161, 3.33477, FORT MCMURRAY AP ANN CLG .4% CONDNS DB=>MWB, 7/21 18:00:00, 25.92400, 8.76969E-003, 1875.00000, 18.76957, 0.66675, 0.00000
 Zone Sizing Information, ALL_ST=STORAGE AREA - OCCSENS_FL=STORY 3_SCH=E, Heating, 31978.44240, 41571.97511, 1.26629, 1.64618, FORT MCMURRAY AP ANN HTG 99.6% CONDNS DB, 1/21 09:00:00, -36.20000, 1.25811E-004, 1875.00000, 18.76957, 0.66675, 0.00000
 Zone Sizing Information, ALL_ST=STORAGE AREA - REFRIGERATED - OCCSENS_FL=STORY 1_SCH=E, Cooling, 11181.67226, 12299.83949, 0.86417, 0.95058, FORT MCMURRAY AP ANN CLG .4% CONDNS DB=>MWB, 7/21 18:00:00, 25.92400, 8.76969E-003, 1875.00000, 18.76957, 0.66675, 0.00000
 Zone Sizing Information, ALL_ST=STORAGE AREA - REFRIGERATED - OCCSENS_FL=STORY 1_SCH=E, Heating, 4123.67154, 5360.77300, 0.16420, 0.66675, FORT MCMURRAY AP ANN HTG 99.6% CONDNS DB, 1/21 09:00:00, -36.20000, 1.25811E-004, 1875.00000, 18.76957, 0.66675, 0.00000
 Zone Sizing Information, ALL_ST=STORAGE AREA - REFRIGERATED_FL=STORY 1_SCH=E, Cooling, 13230.87624, 14553.96387, 1.02254, 1.12479, FORT MCMURRAY AP ANN CLG .4% CONDNS DB=>MWB, 7/21 18:00:00, 25.92400, 8.76969E-003, 1875.00000, 18.76957, 0.66675, 0.00000
 Zone Sizing Information, ALL_ST=STORAGE AREA - REFRIGERATED_FL=STORY 1_SCH=E, Heating, 1551.29747, 2016.68671, 6.19087E-002, 0.66675, FORT MCMURRAY AP ANN HTG 99.6% CONDNS DB, 1/21 08:40:00, -36.20000, 1.25811E-004, 1875.00000, 18.76957, 0.66675, 0.00000
 Zone Sizing Information, ALL_ST=STORAGE AREA_FL=STORY 3_SCH=E, Cooling, 23170.43328, 25487.47661, 1.79071, 1.96978, FORT MCMURRAY AP ANN CLG .4% CONDNS DB=>MWB, 7/21 17:10:00, 26.95733, 8.76969E-003, 1875.00000, 18.76957, 0.66675, 0.00000
 Zone Sizing Information, ALL_ST=STORAGE AREA_FL=STORY 3_SCH=E, Heating, 33392.07122, 43409.69259, 1.32350, 1.72055, FORT MCMURRAY AP ANN HTG 99.6% CONDNS DB, 1/21 09:00:00, -36.20000, 1.25811E-004, 1875.00000, 18.76957, 0.66675, 0.00000
 Zone Sizing Information, ALL_ST=TRANSP. BAGGAGE_FL=STORY 4_SCH=H, Cooling, 70124.18180, 77136.59999, 5.41995, 5.96195, FORT MCMURRAY AP ANN CLG .4% CONDNS DB=>MWB, 7/21 10:20:00, 24.80800, 8.76969E-003, 1875.00000, 93.84784, 1.64783, 0.00000
 Zone Sizing Information, ALL_ST=TRANSP. BAGGAGE_FL=STORY 4_SCH=H, Heating, 36542.11151, 47504.74497, 1.45021, 1.88527, FORT MCMURRAY AP ANN HTG 99.6% CONDNS DB, 1/21 09:00:00, -36.20000, 1.25811E-004, 1875.00000, 93.84784, 1.64783, 0.00000
 Zone Sizing Information, ALL_ST=TRANSP. CONCOURSE_FL=STORY 2_SCH=H, Cooling, 32260.42237, 35486.46461, 2.49346, 7.71525, FORT MCMURRAY AP ANN CLG .4% CONDNS DB=>MWB, 7/21 18:20:00, 25.30400, 8.76968E-003, 1875.00000, 93.84784, 7.71525, 0.00000
 Zone Sizing Information, ALL_ST=TRANSP. CONCOURSE_FL=STORY 2_SCH=H, Heating, 8923.14998, 11600.09498, 0.35598, 7.71525, FORT MCMURRAY AP ANN HTG 99.6% CONDNS DB, 1/21 09:00:00, -36.20000, 1.25811E-004, 1875.00000, 93.84784, 7.71525, 0.00000
 Zone Sizing Information, ALL_ST=TRANSP. COUNTER_FL=STORY 2_SCH=H, Cooling, 41536.00656, 45689.60722, 3.21075, 3.53183, FORT MCMURRAY AP ANN CLG .4% CONDNS DB=>MWB, 7/21 18:30:00, 24.99400, 8.76969E-003, 2500.00000, 249.99182, 2.19710, 0.00000
 Zone Sizing Information, ALL_ST=TRANSP. COUNTER_FL=STORY 2_SCH=H, Heating, 0.00000, 0.00000, 0.00000, 2.19710, FORT MCMURRAY AP ANN HTG 99.6% CONDNS DB, , -36.20000, 1.25811E-004, 2500.00000, 249.99182, 2.19710, 0.00000
 Zone Sizing Information, ALL_ST=TRANSP. SEATING_FL=STORY 1_SCH=H, Cooling, 21628.12391, 23790.93630, 1.67187, 7.71525, FORT MCMURRAY AP ANN CLG .4% CONDNS DB=>MWB, 7/21 12:00:00, 27.28800, 8.76969E-003, 1875.00000, 187.49386, 7.71525, 0.00000
 Zone Sizing Information, ALL_ST=TRANSP. SEATING_FL=STORY 1_SCH=H, Heating, 0.00000, 0.00000, 0.00000, 7.71525, FORT MCMURRAY AP ANN HTG 99.6% CONDNS DB, , -36.20000, 1.25811E-004, 1875.00000, 187.49386, 7.71525, 0.00000
 Zone Sizing Information, ALL_ST=WAREHOUSE - FINE - REFRIGERATED_FL=STORY 4_SCH=A, Cooling, 76098.62958, 83708.49254, 5.88127, 6.46940, FORT MCMURRAY AP ANN CLG .4% CONDNS DB=>MWB, 7/21 13:30:00, 28.59000, 8.76969E-003, 1875.00000, 37.53914, 0.57150, 0.00000
 Zone Sizing Information, ALL_ST=WAREHOUSE - FINE - REFRIGERATED_FL=STORY 4_SCH=A, Heating, 54982.39026, 71477.10734, 2.19471, 2.85313, FORT MCMURRAY AP ANN HTG 99.6% CONDNS DB, 1/21 08:00:00, -36.20000, 1.25811E-004, 1875.00000, 37.53914, 0.57150, 0.00000
 Zone Sizing Information, ALL_ST=WAREHOUSE - FINE_FL=STORY 1_SCH=A, Cooling, 18818.91513, 20700.80664, 1.45444, 1.59988, FORT MCMURRAY AP ANN CLG .4% CONDNS DB=>MWB, 7/21 17:00:00, 27.16400, 8.76969E-003, 1875.00000, 37.53914, 0.57150, 0.00000
 Zone Sizing Information, ALL_ST=WAREHOUSE - FINE_FL=STORY 1_SCH=A, Heating, 0.00000, 0.00000, 0.00000, 0.57150, FORT MCMURRAY AP ANN HTG 99.6% CONDNS DB, , -36.20000, 1.25811E-004, 1875.00000, 37.53914, 0.57150, 0.00000
 Zone Sizing Information, ALL_ST=WAREHOUSE - MED/BLK - REFRIGERATED_FL=STORY 3_SCH=A, Cooling, 38251.95129, 42077.14642, 2.74066, 3.01473, FORT MCMURRAY AP ANN CLG .4% CONDNS DB=>MWB, 7/21 07:00:00, 17.61600, 8.76969E-003, 1875.00000, 18.76957, 0.57150, 0.00000
 Zone Sizing Information, ALL_ST=WAREHOUSE - MED/BLK - REFRIGERATED_FL=STORY 3_SCH=A, Heating, 28487.87942, 37034.24325, 1.12408, 1.46130, FORT MCMURRAY AP ANN HTG 99.6% CONDNS DB, 1/21 08:00:00, -36.20000, 1.25811E-004, 1875.00000, 18.76957, 0.57150, 0.00000
 Zone Sizing Information, ALL_ST=WAREHOUSE - MED/BLK2 - REFRIGERATED_FL=STORY 2_SCH=A, Cooling, 20262.34139, 22288.57553, 1.56596, 1.72255, FORT MCMURRAY AP ANN CLG .4% CONDNS DB=>MWB, 7/21 16:30:00, 27.66000, 8.76969E-003, 1875.00000, 18.76957, 0.57150, 0.00000
 Zone Sizing Information, ALL_ST=WAREHOUSE - MED/BLK2 - REFRIGERATED_FL=STORY 2_SCH=A, Heating, 23552.05039, 30617.66550, 0.92382, 1.20096, FORT MCMURRAY AP ANN HTG 99.6% CONDNS DB, 1/21 08:00:00, -36.20000, 1.25811E-004, 1875.00000, 18.76957, 0.57150, 0.00000
 Zone Sizing Information, ALL_ST=WAREHOUSE - MED/BLK2_FL=STORY 1_SCH=A, Cooling, 21423.25423, 23565.57965, 1.65568, 1.82125, FORT MCMURRAY AP ANN CLG .4% CONDNS DB=>MWB, 7/21 17:00:00, 27.16400, 8.76969E-003, 2500.00000, 25.02609, 0.76200, 0.00000
 Zone Sizing Information, ALL_ST=WAREHOUSE - MED/BLK2_FL=STORY 1_SCH=A, Heating, 0.00000, 0.00000, 0.00000, 0.76200, FORT MCMURRAY AP ANN HTG 99.6% CONDNS DB, , -36.20000, 1.25811E-004, 2500.00000, 25.02609, 0.76200, 0.00000
 Zone Sizing Information, ALL_ST=WAREHOUSE - MED/BLK_FL=STORY 2_SCH=A, Cooling, 34832.45956, 38315.70552, 2.50760, 2.75836, FORT MCMURRAY AP ANN CLG .4% CONDNS DB=>MWB, 7/21 07:00:00, 17.61600, 8.76969E-003, 1875.00000, 18.76957, 0.57150, 0.00000
 Zone Sizing Information, ALL_ST=WAREHOUSE - MED/BLK_FL=STORY 2_SCH=A, Heating, 18296.85542, 23785.91205, 0.71580, 0.93055, FORT MCMURRAY AP ANN HTG 99.6% CONDNS DB, 1/21 08:00:00, -36.20000, 1.25811E-004, 1875.00000, 18.76957, 0.57150, 0.00000
 Zone Sizing Information, WET_ST=WASHROOM-SCH-A_FL=STORY 3_SCHA, Cooling, 39067.65099, 42974.41608, 3.01940, 3.32134, FORT MCMURRAY AP ANN CLG .4% CONDNS DB=>MWB, 7/21 15:00:00, 28.90000, 8.76969E-003, 1875.00000, 62.56523, 0.57150, 0.00000
 Zone Sizing Information, WET_ST=WASHROOM-SCH-A_FL=STORY 3_SCHA, Heating, 30714.27948, 39928.56333, 1.21442, 1.57875, FORT MCMURRAY AP ANN HTG 99.6% CONDNS DB, 1/21 08:00:00, -36.20000, 1.25811E-004, 1875.00000, 62.56523, 0.57150, 0.00000
 Zone Sizing Information, WET_ST=WASHROOM-SCH-B_FL=STORY 2_SCHA, Cooling, 32227.88715, 35450.67586, 2.49077, 2.73985, FORT MCMURRAY AP ANN CLG .4% CONDNS DB=>MWB, 7/21 14:40:00, 28.90000, 8.76969E-003, 1875.00000, 62.56523, 0.57150, 0.00000
 Zone Sizing Information, WET_ST=WASHROOM-SCH-B_FL=STORY 2_SCHA, Heating, 20076.51462, 26099.46901, 0.78308, 1.01800, FORT MCMURRAY AP ANN HTG 99.6% CONDNS DB, 1/21 08:00:00, -36.20000, 1.25811E-004, 1875.00000, 62.56523, 0.57150, 0.00000
 Zone Sizing Information, WILD_ST=STAIRWAY-SCH-F_FL=STORY 4_SCH=A, Cooling, 66954.52345, 73649.97579, 5.17450, 5.69195, FORT MCMURRAY AP ANN CLG .4% CONDNS DB=>MWB, 7/21 13:50:00, 28.79667, 8.76969E-003, 2500.00000, 12.37850, 0.76200, 0.00000
 Zone Sizing Information, WILD_ST=STAIRWAY-SCH-F_FL=STORY 4_SCH=A, Heating, 101874.43433, 132436.76463, 4.08170, 5.30621, FORT MCMURRAY AP ANN HTG 99.6% CONDNS DB, 1/21 08:00:00, -36.20000, 1.25811E-004, 2500.00000, 12.37850, 0.76200, 0.00000
 Zone Sizing Information, WILD_ST=STAIRWAY-SCH-G_FL=STORY 4_SCH=A, Cooling, 54696.97615, 60166.67377, 4.22719, 4.64991, FORT MCMURRAY AP ANN CLG .4% CONDNS DB=>MWB, 7/21 14:00:00, 28.90000, 8.76969E-003, 1875.00000, 9.28387, 0.57150, 0.00000
 Zone Sizing Information, WILD_ST=STAIRWAY-SCH-G_FL=STORY 4_SCH=A, Heating, 105631.57047, 137321.04161, 4.24156, 5.51402, FORT MCMURRAY AP ANN HTG 99.6% CONDNS DB, 1/21 08:00:00, -36.20000, 1.25811E-004, 1875.00000, 9.28387, 0.57150, 0.00000
 Zone Sizing Information, WILD_ST=STAIRWAY-SCH-H_FL=STORY 4_SCH=A, Cooling, 67976.80404, 74774.48445, 5.25353, 5.77888, FORT MCMURRAY AP ANN CLG .4% CONDNS DB=>MWB, 7/21 16:10:00, 27.99067, 8.76969E-003, 1875.00000, 9.28387, 0.57150, 0.00000
 Zone Sizing Information, WILD_ST=STAIRWAY-SCH-H_FL=STORY 4_SCH=A, Heating, 105155.55998, 136702.22798, 4.22230, 5.48899, FORT MCMURRAY AP ANN HTG 99.6% CONDNS DB, 1/21 08:00:00, -36.20000, 1.25811E-004, 1875.00000, 9.28387, 0.57150, 0.00000
 Zone Sizing Information, WILD_ST=STAIRWAY-SCH-I_FL=STORY 3_SCH=A, Cooling, 27480.88177, 30228.96994, 1.98238, 2.18062, FORT MCMURRAY AP ANN CLG .4% CONDNS DB=>MWB, 7/21 07:00:00, 17.61600, 8.76969E-003, 2500.00000, 12.37850, 0.76200, 0.00000
 Zone Sizing Information, WILD_ST=STAIRWAY-SCH-I_FL=STORY 3_SCH=A, Heating, 1294.17569, 1682.42839, 5.21249E-002, 0.76200, FORT MCMURRAY AP ANN HTG 99.6% CONDNS DB, 1/21 07:40:00, -36.20000, 1.25811E-004, 2500.00000, 12.37850, 0.76200, 0.00000
! <System Sizing Information>, System Name, Load Type, Peak Load Kind, User Design Capacity, Calc Des Air Flow Rate [m3/s], User Des Air Flow Rate [m3/s], Design Day Name, Date/Time of Peak
 System Sizing Information, SYS_2_MAKE-UP AIR UNIT, Cooling, Sensible, 85452.30, 6.46940, 6.46940, FORT MCMURRAY AP ANN CLG .4% CONDNS DB=>MWB, 7/21 00:00:00
 System Sizing Information, SYS_2_MAKE-UP AIR UNIT, Heating, Sensible, 9596.57, 2.85313, 2.85313, FORT MCMURRAY AP ANN HTG 99.6% CONDNS DB, 1/21 21:50:00
 System Sizing Information, SYS_2_MAKE-UP AIR UNIT 1, Cooling, Sensible, 33956.60, 3.01473, 3.01473, FORT MCMURRAY AP ANN CLG .4% CONDNS DB=>MWB, 7/21 00:00:00
 System Sizing Information, SYS_2_MAKE-UP AIR UNIT 1, Heating, Sensible, 23766.79, 1.46130, 1.46130, FORT MCMURRAY AP ANN HTG 99.6% CONDNS DB, 1/21 00:10:00
 System Sizing Information, SYS_2_MAKE-UP AIR UNIT 2, Cooling, Sensible, 24366.53, 1.72255, 1.72255, FORT MCMURRAY AP ANN CLG .4% CONDNS DB=>MWB, 7/21 00:00:00
 System Sizing Information, SYS_2_MAKE-UP AIR UNIT 2, Heating, Sensible, 26464.91, 1.20096, 1.20096, FORT MCMURRAY AP ANN HTG 99.6% CONDNS DB, 1/21 00:10:00
 System Sizing Information, SYS_4_PSZ_ALL_ST=STORAGE AREA_FL=STORY 3_SCH=E, Cooling, Sensible, 100809.54, 7.37992, 7.37992, FORT MCMURRAY AP ANN CLG .4% CONDNS DB=>MWB, 7/21 05:00:00
 System Sizing Information, SYS_4_PSZ_ALL_ST=STORAGE AREA_FL=STORY 3_SCH=E, Heating, Sensible, 294609.07, 4.70023, 4.70023, FORT MCMURRAY AP ANN HTG 99.6% CONDNS DB, 1/21 09:00:00
 System Sizing Information, SYS_4_PSZ_ALL_ST=WAREHOUSE - FINE_FL=STORY 1_SCH=A, Cooling, Sensible, 22475.19, 1.59988, 1.59988, FORT MCMURRAY AP ANN CLG .4% CONDNS DB=>MWB, 7/21 05:00:00
 System Sizing Information, SYS_4_PSZ_ALL_ST=WAREHOUSE - FINE_FL=STORY 1_SCH=A, Heating, Sensible, 52420.30, 0.57150, 0.57150, FORT MCMURRAY AP ANN HTG 99.6% CONDNS DB, 1/21 00:10:00
 System Sizing Information, SYS_4_PSZ_ALL_ST=WAREHOUSE - MED/BLK2_FL=STORY 1_SCH=A, Cooling, Sensible, 25993.61, 1.82125, 1.82125, FORT MCMURRAY AP ANN CLG .4% CONDNS DB=>MWB, 7/21 05:00:00
 System Sizing Information, SYS_4_PSZ_ALL_ST=WAREHOUSE - MED/BLK2_FL=STORY 1_SCH=A, Heating, Sensible, 69893.74, 0.76200, 0.76200, FORT MCMURRAY AP ANN HTG 99.6% CONDNS DB, 1/21 00:10:00
 System Sizing Information, SYS_4_PSZ_ALL_ST=WAREHOUSE - MED/BLK_FL=STORY 2_SCH=A, Cooling, Sensible, 30694.20, 2.75836, 2.75836, FORT MCMURRAY AP ANN CLG .4% CONDNS DB=>MWB, 7/21 05:00:00
 System Sizing Information, SYS_4_PSZ_ALL_ST=WAREHOUSE - MED/BLK_FL=STORY 2_SCH=A, Heating, Sensible, 61319.50, 0.93055, 0.93055, FORT MCMURRAY AP ANN HTG 99.6% CONDNS DB, 1/21 08:00:00
 System Sizing Information, SYS_4_PSZ_WET_ST=WASHROOM-SCH-A_FL=STORY 3_SCHA, Cooling, Sensible, 83699.45, 6.06119, 6.06119, FORT MCMURRAY AP ANN CLG .4% CONDNS DB=>MWB, 7/21 05:00:00
 System Sizing Information, SYS_4_PSZ_WET_ST=WASHROOM-SCH-A_FL=STORY 3_SCHA, Heating, Sensible, 140796.22, 2.59675, 2.59675, FORT MCMURRAY AP ANN HTG 99.6% CONDNS DB, 1/21 08:00:00
 System Sizing Information, SYS_4_PSZ_WILD_ST=STAIRWAY-SCH-F_FL=STORY 4_SCH=A, Cooling, Sensible, 242883.11, 18.30136, 18.30136, FORT MCMURRAY AP ANN CLG .4% CONDNS DB=>MWB, 7/21 05:00:00
 System Sizing Information, SYS_4_PSZ_WILD_ST=STAIRWAY-SCH-F_FL=STORY 4_SCH=A, Heating, Sensible, 596670.22, 17.07122, 17.07122, FORT MCMURRAY AP ANN HTG 99.6% CONDNS DB, 1/21 08:00:00
 System Sizing Information, SYS_6_VAV WITH REHEAT, Cooling, Sensible, 127667.27, 7.71525, 7.71525, FORT MCMURRAY AP ANN CLG .4% CONDNS DB=>MWB, 7/21 00:00:00
 System Sizing Information, SYS_6_VAV WITH REHEAT, Heating, Sensible, 440509.26, 7.71525, 7.71525, FORT MCMURRAY AP ANN HTG 99.6% CONDNS DB, 1/21 00:10:00
 System Sizing Information, SYS_6_VAV WITH REHEAT 1, Cooling, Sensible, 157131.17, 11.24708, 11.24708, FORT MCMURRAY AP ANN CLG .4% CONDNS DB=>MWB, 7/21 00:00:00
 System Sizing Information, SYS_6_VAV WITH REHEAT 1, Heating, Sensible, 565954.69, 9.91235, 9.91235, FORT MCMURRAY AP ANN HTG 99.6% CONDNS DB, 1/21 00:10:00
 System Sizing Information, SYS_6_VAV WITH REHEAT 2, Cooling, Sensible, 77488.04, 5.96195, 5.96195, FORT MCMURRAY AP ANN CLG .4% CONDNS DB=>MWB, 7/21 00:00:00
 System Sizing Information, SYS_6_VAV WITH REHEAT 2, Heating, Sensible, 91694.81, 1.88527, 1.88527, FORT MCMURRAY AP ANN HTG 99.6% CONDNS DB, 1/21 00:10:00
! <Component Sizing Information>, Component Type, Component Name, Input Field Description, Value
 Component Sizing Information, AirTerminal:SingleDuct:Uncontrolled, AIR TERMINAL SINGLE DUCT UNCONTROLLED 4, Design Size Maximum Air Flow Rate [m3/s], 3.33477
 Component Sizing Information, ZoneHVAC:Baseboard:Convective:Water, ZONE HVAC BASEBOARD CONVECTIVE WATER 4, Design Size Maximum Water Flow Rate [m3/s], 6.20911E-004
 Component Sizing Information, ZoneHVAC:Baseboard:Convective:Water, ZONE HVAC BASEBOARD CONVECTIVE WATER 4, Design Size U-Factor Times Area Value [W/K], 1267.07325
 Component Sizing Information, AirTerminal:SingleDuct:Uncontrolled, AIR TERMINAL SINGLE DUCT UNCONTROLLED 6, Design Size Maximum Air Flow Rate [m3/s], 0.95058
 Component Sizing Information, ZoneHVAC:Baseboard:Convective:Water, ZONE HVAC BASEBOARD CONVECTIVE WATER 6, Design Size Maximum Water Flow Rate [m3/s], 8.00675E-005
 Component Sizing Information, ZoneHVAC:Baseboard:Convective:Water, ZONE HVAC BASEBOARD CONVECTIVE WATER 6, Design Size U-Factor Times Area Value [W/K], 162.39485
 Component Sizing Information, AirTerminal:SingleDuct:Uncontrolled, AIR TERMINAL SINGLE DUCT UNCONTROLLED 5, Design Size Maximum Air Flow Rate [m3/s], 1.12479
 Component Sizing Information, ZoneHVAC:Baseboard:Convective:Water, ZONE HVAC BASEBOARD CONVECTIVE WATER 5, Design Size Maximum Water Flow Rate [m3/s], 3.01209E-005
 Component Sizing Information, ZoneHVAC:Baseboard:Convective:Water, ZONE HVAC BASEBOARD CONVECTIVE WATER 5, Design Size U-Factor Times Area Value [W/K], 61.01977
 Component Sizing Information, AirTerminal:SingleDuct:Uncontrolled, AIR TERMINAL SINGLE DUCT UNCONTROLLED 3, Design Size Maximum Air Flow Rate [m3/s], 1.96978
 Component Sizing Information, ZoneHVAC:Baseboard:Convective:Water, ZONE HVAC BASEBOARD CONVECTIVE WATER 3, Design Size Maximum Water Flow Rate [m3/s], 6.48359E-004
 Component Sizing Information, ZoneHVAC:Baseboard:Convective:Water, ZONE HVAC BASEBOARD CONVECTIVE WATER 3, Design Size U-Factor Times Area Value [W/K], 1323.05218
 Component Sizing Information, AirTerminal:SingleDuct:VAV:Reheat, AIR TERMINAL SINGLE DUCT VAV REHEAT 4, Design Size Maximum Air Flow Rate [m3/s], 5.96195
 Component Sizing Information, AirTerminal:SingleDuct:VAV:Reheat, AIR TERMINAL SINGLE DUCT VAV REHEAT 4, Design Size Constant Minimum Air Flow Fraction, 0.23964
 Component Sizing Information, AirTerminal:SingleDuct:VAV:Reheat, AIR TERMINAL SINGLE DUCT VAV REHEAT 4, User-Specified Constant Minimum Air Flow Fraction, 0.30000
 Component Sizing Information, AirTerminal:SingleDuct:VAV:Reheat, AIR TERMINAL SINGLE DUCT VAV REHEAT 4, Design Size Minimum Air Flow Rate [m3/s], 1.78858
 Component Sizing Information, AirTerminal:SingleDuct:VAV:Reheat, AIR TERMINAL SINGLE DUCT VAV REHEAT 4, Design Size Maximum Flow per Zone Floor Area during Reheat [m3/s-m2], 9.53911E-004
 Component Sizing Information, AirTerminal:SingleDuct:VAV:Reheat, AIR TERMINAL SINGLE DUCT VAV REHEAT 4, Design Size Maximum Flow Fraction during Reheat [], 0.30000
 Component Sizing Information, AirTerminal:SingleDuct:VAV:Reheat, AIR TERMINAL SINGLE DUCT VAV REHEAT 4, Design Size Maximum Reheat Water Flow Rate [m3/s], 1.02125E-003
 Component Sizing Information, AirTerminal:SingleDuct:VAV:Reheat, AIR TERMINAL SINGLE DUCT VAV REHEAT 4, Design Size Reheat Coil Sizing Air Volume Flow Rate [m3/s], 1.88527
 Component Sizing Information, AirTerminal:SingleDuct:VAV:Reheat, AIR TERMINAL SINGLE DUCT VAV REHEAT 4, Design Size Reheat Coil Sizing Inlet Air Temperature [C], 13.10000
 Component Sizing Information, AirTerminal:SingleDuct:VAV:Reheat, AIR TERMINAL SINGLE DUCT VAV REHEAT 4, Design Size Reheat Coil Sizing Inlet Air Humidity Ratio [kgWater/kgDryAir], 8.00000E-003
 Component Sizing Information, Coil:Heating:Water, COIL HEATING WATER 7, Design Size Rated Capacity [W], 68376.18227
 Component Sizing Information, Coil:Heating:Water, COIL HEATING WATER 7, Design Size Maximum Water Flow Rate [m3/s], 1.02125E-003
 Component Sizing Information, Coil:Heating:Water, COIL HEATING WATER 7, Design Size U-Factor Times Area Value [W/K], 1560.55765
! <Water Heating Coil Capacity Information>,Component Type,Name,Nominal Total Capacity {W}
Water Heating Coil Capacity Information,Coil:Heating:Water,COIL HEATING WATER 7,63304.97
 Component Sizing Information, ZoneHVAC:Baseboard:Convective:Water, ZONE HVAC BASEBOARD CONVECTIVE WATER 14, Design Size Maximum Water Flow Rate [m3/s], 7.09522E-004
 Component Sizing Information, ZoneHVAC:Baseboard:Convective:Water, ZONE HVAC BASEBOARD CONVECTIVE WATER 14, Design Size U-Factor Times Area Value [W/K], 1446.95554
 Component Sizing Information, AirTerminal:SingleDuct:VAV:Reheat, AIR TERMINAL SINGLE DUCT VAV REHEAT 2, Design Size Maximum Air Flow Rate [m3/s], 7.71525
 Component Sizing Information, AirTerminal:SingleDuct:VAV:Reheat, AIR TERMINAL SINGLE DUCT VAV REHEAT 2, Design Size Constant Minimum Air Flow Fraction, 0.18519
 Component Sizing Information, AirTerminal:SingleDuct:VAV:Reheat, AIR TERMINAL SINGLE DUCT VAV REHEAT 2, User-Specified Constant Minimum Air Flow Fraction, 0.30000
 Component Sizing Information, AirTerminal:SingleDuct:VAV:Reheat, AIR TERMINAL SINGLE DUCT VAV REHEAT 2, Design Size Minimum Air Flow Rate [m3/s], 2.31458
 Component Sizing Information, AirTerminal:SingleDuct:VAV:Reheat, AIR TERMINAL SINGLE DUCT VAV REHEAT 2, Design Size Maximum Flow per Zone Floor Area during Reheat [m3/s-m2], 1.23444E-003
 Component Sizing Information, AirTerminal:SingleDuct:VAV:Reheat, AIR TERMINAL SINGLE DUCT VAV REHEAT 2, Design Size Maximum Flow Fraction during Reheat [], 0.30000
 Component Sizing Information, AirTerminal:SingleDuct:VAV:Reheat, AIR TERMINAL SINGLE DUCT VAV REHEAT 2, Design Size Maximum Reheat Water Flow Rate [m3/s], 5.49407E-004
 Component Sizing Information, AirTerminal:SingleDuct:VAV:Reheat, AIR TERMINAL SINGLE DUCT VAV REHEAT 2, Design Size Reheat Coil Sizing Air Volume Flow Rate [m3/s], 2.31458
 Component Sizing Information, AirTerminal:SingleDuct:VAV:Reheat, AIR TERMINAL SINGLE DUCT VAV REHEAT 2, Design Size Reheat Coil Sizing Inlet Air Temperature [C], 13.10000
 Component Sizing Information, AirTerminal:SingleDuct:VAV:Reheat, AIR TERMINAL SINGLE DUCT VAV REHEAT 2, Design Size Reheat Coil Sizing Inlet Air Humidity Ratio [kgWater/kgDryAir], 8.00000E-003
 Component Sizing Information, Coil:Heating:Water, COIL HEATING WATER 4, Design Size Rated Capacity [W], 36784.55007
 Component Sizing Information, Coil:Heating:Water, COIL HEATING WATER 4, Design Size Maximum Water Flow Rate [m3/s], 5.49407E-004
 Component Sizing Information, Coil:Heating:Water, COIL HEATING WATER 4, Design Size U-Factor Times Area Value [W/K], 702.41126
Water Heating Coil Capacity Information,Coil:Heating:Water,COIL HEATING WATER 4,34478.00
 Component Sizing Information, ZoneHVAC:Baseboard:Convective:Water, ZONE HVAC BASEBOARD CONVECTIVE WATER 12, Design Size Maximum Water Flow Rate [m3/s], 1.73257E-004
 Component Sizing Information, ZoneHVAC:Baseboard:Convective:Water, ZONE HVAC BASEBOARD CONVECTIVE WATER 12, Design Size U-Factor Times Area Value [W/K], 350.54644
 Component Sizing Information, AirTerminal:SingleDuct:VAV:Reheat, AIR TERMINAL SINGLE DUCT VAV REHEAT 3, Design Size Maximum Air Flow Rate [m3/s], 3.53183
 Component Sizing Information, AirTerminal:SingleDuct:VAV:Reheat, AIR TERMINAL SINGLE DUCT VAV REHEAT 3, Design Size Constant Minimum Air Flow Fraction, 0.53938
 Component Sizing Information, AirTerminal:SingleDuct:VAV:Reheat, AIR TERMINAL SINGLE DUCT VAV REHEAT 3, User-Specified Constant Minimum Air Flow Fraction, 0.30000
 Component Sizing Information, AirTerminal:SingleDuct:VAV:Reheat, AIR TERMINAL SINGLE DUCT VAV REHEAT 3, Design Size Minimum Air Flow Rate [m3/s], 1.05955
 Component Sizing Information, AirTerminal:SingleDuct:VAV:Reheat, AIR TERMINAL SINGLE DUCT VAV REHEAT 3, Design Size Maximum Flow per Zone Floor Area during Reheat [m3/s-m2], 4.23819E-004
 Component Sizing Information, AirTerminal:SingleDuct:VAV:Reheat, AIR TERMINAL SINGLE DUCT VAV REHEAT 3, Design Size Maximum Flow Fraction during Reheat [], 0.30000
 Component Sizing Information, AirTerminal:SingleDuct:VAV:Reheat, AIR TERMINAL SINGLE DUCT VAV REHEAT 3, Design Size Maximum Reheat Water Flow Rate [m3/s], 1.68339E-004
 Component Sizing Information, AirTerminal:SingleDuct:VAV:Reheat, AIR TERMINAL SINGLE DUCT VAV REHEAT 3, Design Size Reheat Coil Sizing Air Volume Flow Rate [m3/s], 1.05955
 Component Sizing Information, AirTerminal:SingleDuct:VAV:Reheat, AIR TERMINAL SINGLE DUCT VAV REHEAT 3, Design Size Reheat Coil Sizing Inlet Air Temperature [C], 13.10000
 Component Sizing Information, AirTerminal:SingleDuct:VAV:Reheat, AIR TERMINAL SINGLE DUCT VAV REHEAT 3, Design Size Reheat Coil Sizing Inlet Air Humidity Ratio [kgWater/kgDryAir], 8.00000E-003
 Component Sizing Information, Coil:Heating:Water, COIL HEATING WATER 5, Design Size Rated Capacity [W], 11270.80561
 Component Sizing Information, Coil:Heating:Water, COIL HEATING WATER 5, Design Size Maximum Water Flow Rate [m3/s], 1.68339E-004
 Component Sizing Information, Coil:Heating:Water, COIL HEATING WATER 5, Design Size U-Factor Times Area Value [W/K], 203.21637
Water Heating Coil Capacity Information,Coil:Heating:Water,COIL HEATING WATER 5,10567.94
 Component Sizing Information, ZoneHVAC:Baseboard:Convective:Water, ZONE HVAC BASEBOARD CONVECTIVE WATER 13, Design Size Maximum Water Flow Rate [m3/s], 0.00000
 Component Sizing Information, ZoneHVAC:Baseboard:Convective:Water, ZONE HVAC BASEBOARD CONVECTIVE WATER 13, Design Size U-Factor Times Area Value [W/K], 0.00000
 Component Sizing Information, AirTerminal:SingleDuct:VAV:Reheat, AIR TERMINAL SINGLE DUCT VAV REHEAT 1, Design Size Maximum Air Flow Rate [m3/s], 7.71525
 Component Sizing Information, AirTerminal:SingleDuct:VAV:Reheat, AIR TERMINAL SINGLE DUCT VAV REHEAT 1, Design Size Constant Minimum Air Flow Fraction, 0.18519
 Component Sizing Information, AirTerminal:SingleDuct:VAV:Reheat, AIR TERMINAL SINGLE DUCT VAV REHEAT 1, User-Specified Constant Minimum Air Flow Fraction, 0.30000
 Component Sizing Information, AirTerminal:SingleDuct:VAV:Reheat, AIR TERMINAL SINGLE DUCT VAV REHEAT 1, Design Size Minimum Air Flow Rate [m3/s], 2.31458
 Component Sizing Information, AirTerminal:SingleDuct:VAV:Reheat, AIR TERMINAL SINGLE DUCT VAV REHEAT 1, Design Size Maximum Flow per Zone Floor Area during Reheat [m3/s-m2], 1.23444E-003
 Component Sizing Information, AirTerminal:SingleDuct:VAV:Reheat, AIR TERMINAL SINGLE DUCT VAV REHEAT 1, Design Size Maximum Flow Fraction during Reheat [], 0.30000
 Component Sizing Information, AirTerminal:SingleDuct:VAV:Reheat, AIR TERMINAL SINGLE DUCT VAV REHEAT 1, Design Size Maximum Reheat Water Flow Rate [m3/s], 3.67735E-004
 Component Sizing Information, AirTerminal:SingleDuct:VAV:Reheat, AIR TERMINAL SINGLE DUCT VAV REHEAT 1, Design Size Reheat Coil Sizing Air Volume Flow Rate [m3/s], 2.31458
 Component Sizing Information, AirTerminal:SingleDuct:VAV:Reheat, AIR TERMINAL SINGLE DUCT VAV REHEAT 1, Design Size Reheat Coil Sizing Inlet Air Temperature [C], 13.10000
 Component Sizing Information, AirTerminal:SingleDuct:VAV:Reheat, AIR TERMINAL SINGLE DUCT VAV REHEAT 1, Design Size Reheat Coil Sizing Inlet Air Humidity Ratio [kgWater/kgDryAir], 8.00000E-003
 Component Sizing Information, Coil:Heating:Water, COIL HEATING WATER 2, Design Size Rated Capacity [W], 24620.99634
 Component Sizing Information, Coil:Heating:Water, COIL HEATING WATER 2, Design Size Maximum Water Flow Rate [m3/s], 3.67735E-004
 Component Sizing Information, Coil:Heating:Water, COIL HEATING WATER 2, Design Size U-Factor Times Area Value [W/K], 443.92475
Water Heating Coil Capacity Information,Coil:Heating:Water,COIL HEATING WATER 2,23085.60
 Component Sizing Information, ZoneHVAC:Baseboard:Convective:Water, ZONE HVAC BASEBOARD CONVECTIVE WATER 11, Design Size Maximum Water Flow Rate [m3/s], 0.00000
 Component Sizing Information, ZoneHVAC:Baseboard:Convective:Water, ZONE HVAC BASEBOARD CONVECTIVE WATER 11, Design Size U-Factor Times Area Value [W/K], 0.00000
 Component Sizing Information, ZoneHVAC:FourPipeFanCoil, ZONE HVAC FOUR PIPE FAN COIL 1, Design Size Maximum Supply Air Flow Rate [m3/s], 6.46940
 Component Sizing Information, Fan:ConstantVolume, FAN CONSTANT VOLUME 8, Design Size Maximum Flow Rate [m3/s], 6.46940
 Component Sizing Information, ZoneHVAC:FourPipeFanCoil, ZONE HVAC FOUR PIPE FAN COIL 1, Design Size Maximum Outdoor Air Flow Rate [m3/s], 0.57150
 Component Sizing Information, ZoneHVAC:FourPipeFanCoil, ZONE HVAC FOUR PIPE FAN COIL 1, Design Size Maximum Hot Water Flow [m3/s], 1.58482E-003
 Component Sizing Information, ZoneHVAC:FourPipeFanCoil, ZONE HVAC FOUR PIPE FAN COIL 1, Design Size Maximum Cold Water Flow [m3/s], 3.49894E-003
 Component Sizing Information, Coil:Cooling:Water, COIL COOLING WATER 4, Design Size Design Water Flow Rate [m3/s], 3.49894E-003
 Component Sizing Information, Coil:Cooling:Water, COIL COOLING WATER 4, Design Size Design Air Flow Rate [m3/s], 6.46940
 Component Sizing Information, Coil:Cooling:Water, COIL COOLING WATER 4, User-Specified Design Air Flow Rate [m3/s], 6.46940
 Component Sizing Information, Coil:Cooling:Water, COIL COOLING WATER 4, Design Size Design Inlet Air Temperature [C], 24.40520
 Component Sizing Information, Coil:Cooling:Water, COIL COOLING WATER 4, Design Size Design Inlet Water Temperature [C], 7.00000
 Component Sizing Information, Coil:Cooling:Water, COIL COOLING WATER 4, Design Size Design Inlet Air Humidity Ratio, 8.59371E-003
 Component Sizing Information, Coil:Cooling:Water, COIL COOLING WATER 4, Design Size Design Outlet Air Temperature [C], 13.00000
 Component Sizing Information, Coil:Cooling:Water, COIL COOLING WATER 4, Design Size Design Outlet Air Humidity Ratio, 8.50000E-003
! <Water Cooling Coil Capacity Information>,Component Type,Name,Nominal Total Capacity {W},Nominal Sensible Capacity {W},Nominal Latent Capacity {W},Nominal Sensible Heat Ratio, Nominal Coil UA Value {W/C}, Nominal Coil Surface Area {m2}
Water Cooling Coil Capacity Information,Coil:Cooling:Water,COIL COOLING WATER 4,126440.22,93087.03,33353.20,0.74,13496.62,136.89
 Component Sizing Information, Coil:Heating:Water, COIL HEATING WATER 8, Design Size Rated Capacity [W], 106108.57650
 Component Sizing Information, Coil:Heating:Water, COIL HEATING WATER 8, Design Size Maximum Water Flow Rate [m3/s], 1.58482E-003
 Component Sizing Information, Coil:Heating:Water, COIL HEATING WATER 8, Design Size U-Factor Times Area Value [W/K], 2300.25837
Water Heating Coil Capacity Information,Coil:Heating:Water,COIL HEATING WATER 8,95736.44
 Component Sizing Information, AirTerminal:SingleDuct:Uncontrolled, AIR TERMINAL SINGLE DUCT UNCONTROLLED 14, Design Size Maximum Air Flow Rate [m3/s], 6.46940
 Component Sizing Information, AirTerminal:SingleDuct:Uncontrolled, AIR TERMINAL SINGLE DUCT UNCONTROLLED 11, Design Size Maximum Air Flow Rate [m3/s], 1.59988
 Component Sizing Information, ZoneHVAC:Baseboard:Convective:Water, ZONE HVAC BASEBOARD CONVECTIVE WATER 15, Design Size Maximum Water Flow Rate [m3/s], 0.00000
 Component Sizing Information, ZoneHVAC:Baseboard:Convective:Water, ZONE HVAC BASEBOARD CONVECTIVE WATER 15, Design Size U-Factor Times Area Value [W/K], 0.00000
 Component Sizing Information, ZoneHVAC:FourPipeFanCoil, ZONE HVAC FOUR PIPE FAN COIL 2, Design Size Maximum Supply Air Flow Rate [m3/s], 3.01473
 Component Sizing Information, Fan:ConstantVolume, FAN CONSTANT VOLUME 10, Design Size Maximum Flow Rate [m3/s], 3.01473
 Component Sizing Information, ZoneHVAC:FourPipeFanCoil, ZONE HVAC FOUR PIPE FAN COIL 2, Design Size Maximum Outdoor Air Flow Rate [m3/s], 0.57150
 Component Sizing Information, ZoneHVAC:FourPipeFanCoil, ZONE HVAC FOUR PIPE FAN COIL 2, Design Size Maximum Hot Water Flow [m3/s], 1.06300E-003
 Component Sizing Information, ZoneHVAC:FourPipeFanCoil, ZONE HVAC FOUR PIPE FAN COIL 2, Design Size Maximum Cold Water Flow [m3/s], 1.43509E-003
 Component Sizing Information, Coil:Cooling:Water, COIL COOLING WATER 5, Design Size Design Water Flow Rate [m3/s], 1.43509E-003
 Component Sizing Information, Coil:Cooling:Water, COIL COOLING WATER 5, Design Size Design Air Flow Rate [m3/s], 3.01473
 Component Sizing Information, Coil:Cooling:Water, COIL COOLING WATER 5, User-Specified Design Air Flow Rate [m3/s], 3.01473
 Component Sizing Information, Coil:Cooling:Water, COIL COOLING WATER 5, Design Size Design Inlet Air Temperature [C], 22.78971
 Component Sizing Information, Coil:Cooling:Water, COIL COOLING WATER 5, Design Size Design Inlet Water Temperature [C], 7.00000
 Component Sizing Information, Coil:Cooling:Water, COIL COOLING WATER 5, Design Size Design Inlet Air Humidity Ratio, 8.60231E-003
 Component Sizing Information, Coil:Cooling:Water, COIL COOLING WATER 5, Design Size Design Outlet Air Temperature [C], 13.00000
 Component Sizing Information, Coil:Cooling:Water, COIL COOLING WATER 5, Design Size Design Outlet Air Humidity Ratio, 8.50000E-003
Water Cooling Coil Capacity Information,Coil:Cooling:Water,COIL COOLING WATER 5,54555.90,41262.56,13293.35,0.76,5804.86,58.88
 Component Sizing Information, Coil:Heating:Water, COIL HEATING WATER 9, Design Size Rated Capacity [W], 71171.37363
 Component Sizing Information, Coil:Heating:Water, COIL HEATING WATER 9, Design Size Maximum Water Flow Rate [m3/s], 1.06300E-003
 Component Sizing Information, Coil:Heating:Water, COIL HEATING WATER 9, Design Size U-Factor Times Area Value [W/K], 1369.04698
Water Heating Coil Capacity Information,Coil:Heating:Water,COIL HEATING WATER 9,55615.71
 Component Sizing Information, AirTerminal:SingleDuct:Uncontrolled, AIR TERMINAL SINGLE DUCT UNCONTROLLED 15, Design Size Maximum Air Flow Rate [m3/s], 3.01473
 Component Sizing Information, ZoneHVAC:FourPipeFanCoil, ZONE HVAC FOUR PIPE FAN COIL 3, Design Size Maximum Supply Air Flow Rate [m3/s], 1.72255
 Component Sizing Information, Fan:ConstantVolume, FAN CONSTANT VOLUME 12, Design Size Maximum Flow Rate [m3/s], 1.72255
 Component Sizing Information, ZoneHVAC:FourPipeFanCoil, ZONE HVAC FOUR PIPE FAN COIL 3, Design Size Maximum Outdoor Air Flow Rate [m3/s], 0.57150
 Component Sizing Information, ZoneHVAC:FourPipeFanCoil, ZONE HVAC FOUR PIPE FAN COIL 3, Design Size Maximum Hot Water Flow [m3/s], 9.65401E-004
 Component Sizing Information, ZoneHVAC:FourPipeFanCoil, ZONE HVAC FOUR PIPE FAN COIL 3, Design Size Maximum Cold Water Flow [m3/s], 1.01520E-003
 Component Sizing Information, Coil:Cooling:Water, COIL COOLING WATER 6, Design Size Design Water Flow Rate [m3/s], 1.01520E-003
 Component Sizing Information, Coil:Cooling:Water, COIL COOLING WATER 6, Design Size Design Air Flow Rate [m3/s], 1.72255
 Component Sizing Information, Coil:Cooling:Water, COIL COOLING WATER 6, User-Specified Design Air Flow Rate [m3/s], 1.72255
 Component Sizing Information, Coil:Cooling:Water, COIL COOLING WATER 6, Design Size Design Inlet Air Temperature [C], 25.21413
 Component Sizing Information, Coil:Cooling:Water, COIL COOLING WATER 6, Design Size Design Inlet Water Temperature [C], 7.00000
 Component Sizing Information, Coil:Cooling:Water, COIL COOLING WATER 6, Design Size Design Inlet Air Humidity Ratio, 8.72902E-003
 Component Sizing Information, Coil:Cooling:Water, COIL COOLING WATER 6, Design Size Design Outlet Air Temperature [C], 13.00000
 Component Sizing Information, Coil:Cooling:Water, COIL COOLING WATER 6, Design Size Design Outlet Air Humidity Ratio, 8.50000E-003
Water Cooling Coil Capacity Information,Coil:Cooling:Water,COIL COOLING WATER 6,35338.51,25582.33,9756.18,0.72,3784.97,38.39
 Component Sizing Information, Coil:Heating:Water, COIL HEATING WATER 10, Design Size Rated Capacity [W], 64636.68936
 Component Sizing Information, Coil:Heating:Water, COIL HEATING WATER 10, Design Size Maximum Water Flow Rate [m3/s], 9.65401E-004
 Component Sizing Information, Coil:Heating:Water, COIL HEATING WATER 10, Design Size U-Factor Times Area Value [W/K], 1185.87892
Water Heating Coil Capacity Information,Coil:Heating:Water,COIL HEATING WATER 10,47677.83
 Component Sizing Information, AirTerminal:SingleDuct:Uncontrolled, AIR TERMINAL SINGLE DUCT UNCONTROLLED 16, Design Size Maximum Air Flow Rate [m3/s], 1.72255
 Component Sizing Information, AirTerminal:SingleDuct:Uncontrolled, AIR TERMINAL SINGLE DUCT UNCONTROLLED 13, Design Size Maximum Air Flow Rate [m3/s], 1.82125
 Component Sizing Information, ZoneHVAC:Baseboard:Convective:Water, ZONE HVAC BASEBOARD CONVECTIVE WATER 17, Design Size Maximum Water Flow Rate [m3/s], 0.00000
 Component Sizing Information, ZoneHVAC:Baseboard:Convective:Water, ZONE HVAC BASEBOARD CONVECTIVE WATER 17, Design Size U-Factor Times Area Value [W/K], 0.00000
 Component Sizing Information, AirTerminal:SingleDuct:Uncontrolled, AIR TERMINAL SINGLE DUCT UNCONTROLLED 12, Design Size Maximum Air Flow Rate [m3/s], 2.75836
 Component Sizing Information, ZoneHVAC:Baseboard:Convective:Water, ZONE HVAC BASEBOARD CONVECTIVE WATER 16, Design Size Maximum Water Flow Rate [m3/s], 3.55262E-004
 Component Sizing Information, ZoneHVAC:Baseboard:Convective:Water, ZONE HVAC BASEBOARD CONVECTIVE WATER 16, Design Size U-Factor Times Area Value [W/K], 724.98319
 Component Sizing Information, AirTerminal:SingleDuct:Uncontrolled, AIR TERMINAL SINGLE DUCT UNCONTROLLED 1, Design Size Maximum Air Flow Rate [m3/s], 3.32134
 Component Sizing Information, ZoneHVAC:Baseboard:Convective:Water, ZONE HVAC BASEBOARD CONVECTIVE WATER 1, Design Size Maximum Water Flow Rate [m3/s], 5.96366E-004
 Component Sizing Information, ZoneHVAC:Baseboard:Convective:Water, ZONE HVAC BASEBOARD CONVECTIVE WATER 1, Design Size U-Factor Times Area Value [W/K], 1216.19148
 Component Sizing Information, AirTerminal:SingleDuct:Uncontrolled, AIR TERMINAL SINGLE DUCT UNCONTROLLED 2, Design Size Maximum Air Flow Rate [m3/s], 2.73985
 Component Sizing Information, ZoneHVAC:Baseboard:Convective:Water, ZONE HVAC BASEBOARD CONVECTIVE WATER 2, Design Size Maximum Water Flow Rate [m3/s], 3.89817E-004
 Component Sizing Information, ZoneHVAC:Baseboard:Convective:Water, ZONE HVAC BASEBOARD CONVECTIVE WATER 2, Design Size U-Factor Times Area Value [W/K], 792.66993
 Component Sizing Information, AirTerminal:SingleDuct:Uncontrolled, AIR TERMINAL SINGLE DUCT UNCONTROLLED 7, Design Size Maximum Air Flow Rate [m3/s], 5.69195
 Component Sizing Information, ZoneHVAC:Baseboard:Convective:Water, ZONE HVAC BASEBOARD CONVECTIVE WATER 7, Design Size Maximum Water Flow Rate [m3/s], 1.97805E-003
 Component Sizing Information, ZoneHVAC:Baseboard:Convective:Water, ZONE HVAC BASEBOARD CONVECTIVE WATER 7, Design Size U-Factor Times Area Value [W/K], 4041.14365
 Component Sizing Information, AirTerminal:SingleDuct:Uncontrolled, AIR TERMINAL SINGLE DUCT UNCONTROLLED 8, Design Size Maximum Air Flow Rate [m3/s], 5.51402
[...]
 Chiller Standard Rating Information, Chiller:Electric:EIR, PRIMARY CHILLER WATERCOOLED SCROLL 2, 7.88, 26.88
 Component Sizing Information, Chiller:Electric:EIR, SECONDARY CHILLER WATERCOOLED SCROLL 2, Design Size Reference Chilled Water Flow Rate [m3/s], 1.43509E-003
 Component Sizing Information, Chiller:Electric:EIR, SECONDARY CHILLER WATERCOOLED SCROLL 2, Design Size Reference Capacity [W], 36142.85041
 Component Sizing Information, Chiller:Electric:EIR, SECONDARY CHILLER WATERCOOLED SCROLL 2, Design Size Reference Condenser Fluid Flow Rate [m3/s], 1.70334E-003
 Chiller Standard Rating Information, Chiller:Electric:EIR, SECONDARY CHILLER WATERCOOLED SCROLL 2, 7.88, 26.88
 Component Sizing Information, PlantLoop, CHILLED WATER LOOP 3, Maximum Loop Flow Rate [m3/s], 1.01520E-003
 Component Sizing Information, PlantLoop, CHILLED WATER LOOP 3, Plant Loop Volume [m3], 0.12182
 Component Sizing Information, Pump:ConstantSpeed, PUMP CONSTANT SPEED 7, Design Flow Rate [m3/s], 1.01520E-003
 Component Sizing Information, Pump:ConstantSpeed, PUMP CONSTANT SPEED 7, Design Power Consumption [W], 259.37076
 Component Sizing Information, Chiller:Electric:EIR, PRIMARY CHILLER WATERCOOLED SCROLL 3, Design Size Reference Chilled Water Flow Rate [m3/s], 1.01520E-003
 Component Sizing Information, Chiller:Electric:EIR, PRIMARY CHILLER WATERCOOLED SCROLL 3, Design Size Reference Capacity [W], 25567.84023
 Component Sizing Information, Chiller:Electric:EIR, PRIMARY CHILLER WATERCOOLED SCROLL 3, Design Size Reference Condenser Fluid Flow Rate [m3/s], 1.20496E-003
 Chiller Standard Rating Information, Chiller:Electric:EIR, PRIMARY CHILLER WATERCOOLED SCROLL 3, 7.88, 26.88
 Component Sizing Information, Chiller:Electric:EIR, SECONDARY CHILLER WATERCOOLED SCROLL 3, Design Size Reference Chilled Water Flow Rate [m3/s], 1.01520E-003
 Component Sizing Information, Chiller:Electric:EIR, SECONDARY CHILLER WATERCOOLED SCROLL 3, Design Size Reference Capacity [W], 25567.84023
 Component Sizing Information, Chiller:Electric:EIR, SECONDARY CHILLER WATERCOOLED SCROLL 3, Design Size Reference Condenser Fluid Flow Rate [m3/s], 1.20496E-003
 Chiller Standard Rating Information, Chiller:Electric:EIR, SECONDARY CHILLER WATERCOOLED SCROLL 3, 7.88, 26.88
 Component Sizing Information, PlantLoop, CONDENSER WATER LOOP, Maximum Loop Flow Rate [m3/s], 4.16862E-002
 Component Sizing Information, PlantLoop, CONDENSER WATER LOOP, Plant Loop Volume [m3], 5.00235
 Component Sizing Information, Pump:ConstantSpeed, PUMP CONSTANT SPEED 2, Design Flow Rate [m3/s], 4.16862E-002
 Component Sizing Information, Pump:ConstantSpeed, PUMP CONSTANT SPEED 2, Design Power Consumption [W], 10650.29276
 Component Sizing Information, CoolingTower:SingleSpeed, COOLING TOWER SINGLE SPEED 1, Design Water Flow Rate [m3/s], 4.16862E-002
 Component Sizing Information, CoolingTower:SingleSpeed, COOLING TOWER SINGLE SPEED 1, Fan Power at Design Air Flow Rate [W], 9146.66849
 Component Sizing Information, CoolingTower:SingleSpeed, COOLING TOWER SINGLE SPEED 1, Design Air Flow Rate [m3/s], 25.15151
 Component Sizing Information, CoolingTower:SingleSpeed, COOLING TOWER SINGLE SPEED 1, U-Factor Times Area Value at Design Air Flow Rate [W/C], 44913.87539
 Component Sizing Information, CoolingTower:SingleSpeed, COOLING TOWER SINGLE SPEED 1, Free Convection Regime Air Flow Rate [m3/s], 2.51515
 Component Sizing Information, CoolingTower:SingleSpeed, COOLING TOWER SINGLE SPEED 1, Free Convection U-Factor Times Area Value [W/K], 4491.38754
 Component Sizing Information, PlantLoop, CONDENSER WATER LOOP 1, Maximum Loop Flow Rate [m3/s], 8.30594E-003
 Component Sizing Information, PlantLoop, CONDENSER WATER LOOP 1, Plant Loop Volume [m3], 0.99671
 Component Sizing Information, Pump:ConstantSpeed, PUMP CONSTANT SPEED 4, Design Flow Rate [m3/s], 8.30594E-003
 Component Sizing Information, Pump:ConstantSpeed, PUMP CONSTANT SPEED 4, Design Power Consumption [W], 2122.06191
 Component Sizing Information, CoolingTower:SingleSpeed, COOLING TOWER SINGLE SPEED 2, Design Water Flow Rate [m3/s], 8.30594E-003
 Component Sizing Information, CoolingTower:SingleSpeed, COOLING TOWER SINGLE SPEED 2, Fan Power at Design Air Flow Rate [W], 1822.46603
 Component Sizing Information, CoolingTower:SingleSpeed, COOLING TOWER SINGLE SPEED 2, Design Air Flow Rate [m3/s], 5.01142
 Component Sizing Information, CoolingTower:SingleSpeed, COOLING TOWER SINGLE SPEED 2, U-Factor Times Area Value at Design Air Flow Rate [W/C], 8949.05203
 Component Sizing Information, CoolingTower:SingleSpeed, COOLING TOWER SINGLE SPEED 2, Free Convection Regime Air Flow Rate [m3/s], 0.50114
 Component Sizing Information, CoolingTower:SingleSpeed, COOLING TOWER SINGLE SPEED 2, Free Convection U-Factor Times Area Value [W/K], 894.90520
 Component Sizing Information, PlantLoop, CONDENSER WATER LOOP 2, Maximum Loop Flow Rate [m3/s], 3.40669E-003
 Component Sizing Information, PlantLoop, CONDENSER WATER LOOP 2, Plant Loop Volume [m3], 0.40880
 Component Sizing Information, Pump:ConstantSpeed, PUMP CONSTANT SPEED 6, Design Flow Rate [m3/s], 3.40669E-003
 Component Sizing Information, Pump:ConstantSpeed, PUMP CONSTANT SPEED 6, Design Power Consumption [W], 870.36499
 Component Sizing Information, CoolingTower:SingleSpeed, COOLING TOWER SINGLE SPEED 3, Design Water Flow Rate [m3/s], 3.40669E-003
 Component Sizing Information, CoolingTower:SingleSpeed, COOLING TOWER SINGLE SPEED 3, Fan Power at Design Air Flow Rate [W], 747.48555
 Component Sizing Information, CoolingTower:SingleSpeed, COOLING TOWER SINGLE SPEED 3, Design Air Flow Rate [m3/s], 2.05544
 Component Sizing Information, CoolingTower:SingleSpeed, COOLING TOWER SINGLE SPEED 3, U-Factor Times Area Value at Design Air Flow Rate [W/C], 3670.45915
 Component Sizing Information, CoolingTower:SingleSpeed, COOLING TOWER SINGLE SPEED 3, Free Convection Regime Air Flow Rate [m3/s], 0.20554
 Component Sizing Information, CoolingTower:SingleSpeed, COOLING TOWER SINGLE SPEED 3, Free Convection U-Factor Times Area Value [W/K], 367.04591
 Component Sizing Information, PlantLoop, CONDENSER WATER LOOP 3, Maximum Loop Flow Rate [m3/s], 2.40993E-003
 Component Sizing Information, PlantLoop, CONDENSER WATER LOOP 3, Plant Loop Volume [m3], 0.28919
 Component Sizing Information, Pump:ConstantSpeed, PUMP CONSTANT SPEED 8, Design Flow Rate [m3/s], 2.40993E-003
 Component Sizing Information, Pump:ConstantSpeed, PUMP CONSTANT SPEED 8, Design Power Consumption [W], 615.70553
 Component Sizing Information, CoolingTower:SingleSpeed, COOLING TOWER SINGLE SPEED 4, Design Water Flow Rate [m3/s], 2.40993E-003
 Component Sizing Information, CoolingTower:SingleSpeed, COOLING TOWER SINGLE SPEED 4, Fan Power at Design Air Flow Rate [W], 528.77930
 Component Sizing Information, CoolingTower:SingleSpeed, COOLING TOWER SINGLE SPEED 4, Design Air Flow Rate [m3/s], 1.45404
 Component Sizing Information, CoolingTower:SingleSpeed, COOLING TOWER SINGLE SPEED 4, U-Factor Times Area Value at Design Air Flow Rate [W/C], 2596.52219
 Component Sizing Information, CoolingTower:SingleSpeed, COOLING TOWER SINGLE SPEED 4, Free Convection Regime Air Flow Rate [m3/s], 0.14540
 Component Sizing Information, CoolingTower:SingleSpeed, COOLING TOWER SINGLE SPEED 4, Free Convection U-Factor Times Area Value [W/K], 259.65222
 Component Sizing Information, PlantLoop, HOT WATER LOOP, Maximum Loop Flow Rate [m3/s], 2.16548E-002
 Component Sizing Information, PlantLoop, HOT WATER LOOP, Plant Loop Volume [m3], 2.59858
 Component Sizing Information, Pump:VariableSpeed, PUMP VARIABLE SPEED 1, Design Flow Rate [m3/s], 2.16548E-002
 Component Sizing Information, Pump:VariableSpeed, PUMP VARIABLE SPEED 1, Design Power Consumption [W], 5532.52820
 Component Sizing Information, Boiler:HotWater, PRIMARY BOILER, Design Size Nominal Capacity [W], 1455471.02432
 Component Sizing Information, Boiler:HotWater, PRIMARY BOILER, Design Size Design Water Flow Rate [m3/s], 2.16548E-002
 Component Sizing Information, Boiler:HotWater, SECONDARY BOILER, Design Size Nominal Capacity [W], 1455471.02432
 Component Sizing Information, Boiler:HotWater, SECONDARY BOILER, Design Size Design Water Flow Rate [m3/s], 2.16548E-002
 Component Sizing Information, PlantLoop, MAIN SERVICE WATER LOOP, Maximum Loop Flow Rate [m3/s], 3.94457E-004
 Component Sizing Information, PlantLoop, MAIN SERVICE WATER LOOP, Plant Loop Volume [m3], 4.73349E-002
 Component Sizing Information, Pump:ConstantSpeed, SERVICE WATER LOOP PUMP, Design Flow Rate [m3/s], 3.94457E-004
 Component Sizing Information, Pump:ConstantSpeed, SERVICE WATER LOOP PUMP, Design Power Consumption [W], 119.57644
 Component Sizing Information, WaterHeater:Mixed, 533GAL NATURALGAS WATER HEATER - 360KBTU/HR, Use Side Design Flow Rate [m3/s], 3.94457E-004
! <Environment>,Environment Name,Environment Type, Start Date, End Date, Start DayOfWeek, Duration {#days}, Source:Start DayOfWeek,  Use Daylight Saving, Use Holidays, Apply Weekend Holiday Rule,  Use Rain Values, Use Snow Values
! <Environment:Special Days>, Special Day Name, Special Day Type, Source, Start Date, Duration {#days}
! <Environment:Daylight Saving>, Daylight Saving Indicator, Source, Start Date, End Date
! <Environment:WarmupDays>, NumberofWarmupDays
Environment,FORT MCMURRAY AP ANN CLG .4% CONDNS DB=>MWB,SizingPeriod:DesignDay,07/21,07/21,SummerDesignDay,1,N/A,N/A,N/A,N/A,N/A,N/A
Environment:Daylight Saving,No,SizingPeriod:DesignDay
! <Environment:Design Day Data>, Max Dry-Bulb Temp {C}, Temp Range {dC}, Temp Range Ind Type, Hum Ind Value at Max Temp, Hum Ind Type,Pressure {Pa}, Wind Direction {deg CW from N}, Wind Speed {m/s}, Clearness, Rain, Snow
! <Environment:Design Day Misc>,DayOfYear,ASHRAE A Coeff,ASHRAE B Coeff,ASHRAE C Coeff,Solar Constant-Annual Variation,Eq of Time {minutes}, Solar Declination Angle {deg}, Solar Model
Environment:Design Day Data,28.90,12.40,DefaultMultipliers,96969,250,3.7,0.00,No,No
Environment:Design Day Misc,202,1084.4,0.2082,0.1365,1.0,-6.23,20.6,ASHRAETau
Environment:WarmupDays,  7
! <Tabular Report>,Style,Unit Conversion
Tabular Report,HTML,None
! <Warmup Convergence Information>,Zone Name,Environment Type/Name,Average Warmup Temperature Difference {deltaC},Std Dev Warmup Temperature Difference {deltaC},Max Temperature Pass/Fail Convergence,Min Temperature Pass/Fail Convergence,Average Warmup Load Difference {W},Std Dev Warmup Load Difference {W},Heating Load Pass/Fail Convergence,Cooling Load Pass/Fail Convergence
 Warmup Convergence Information,ALL_ST=STORAGE AREA - OCCSENS_FL=STORY 3_SCH=E,SizingPeriod: FORT MCMURRAY AP ANN CLG .4% CONDNS DB=>MWB,5.7666308550E-002,0.1117748864,Pass,Pass,9.8641998390E-002,0.8358378795,Pass,Pass
 Warmup Convergence Information,ALL_ST=STORAGE AREA - REFRIGERATED - OCCSENS_FL=STORY 1_SCH=E,SizingPeriod: FORT MCMURRAY AP ANN CLG .4% CONDNS DB=>MWB,2.3051382292E-002,4.1058407793E-002,Pass,Pass,1.4584613948,16.7683010453,Pass,Pass
 Warmup Convergence Information,ALL_ST=STORAGE AREA - REFRIGERATED_FL=STORY 1_SCH=E,SizingPeriod: FORT MCMURRAY AP ANN CLG .4% CONDNS DB=>MWB,2.6934589467E-002,4.8863292735E-002,Pass,Pass,0.2123952592,1.2998128170,Pass,Pass
 Warmup Convergence Information,ALL_ST=STORAGE AREA_FL=STORY 3_SCH=E,SizingPeriod: FORT MCMURRAY AP ANN CLG .4% CONDNS DB=>MWB,3.0787681940E-002,7.9178469168E-002,Pass,Pass,0.1171353214,1.0981606568,Pass,Pass
 Warmup Convergence Information,ALL_ST=TRANSP. BAGGAGE_FL=STORY 4_SCH=H,SizingPeriod: FORT MCMURRAY AP ANN CLG .4% CONDNS DB=>MWB,4.8584121696E-003,1.6109793812E-002,Pass,Pass,1.6849048726E-002,1.6744241601E-002,Pass,Pass
 Warmup Convergence Information,ALL_ST=TRANSP. CONCOURSE_FL=STORY 2_SCH=H,SizingPeriod: FORT MCMURRAY AP ANN CLG .4% CONDNS DB=>MWB,1.9439347587E-002,2.2828685663E-002,Pass,Pass,1.9300246554E-003,2.2233419085E-003,Pass,Pass
 Warmup Convergence Information,ALL_ST=TRANSP. COUNTER_FL=STORY 2_SCH=H,SizingPeriod: FORT MCMURRAY AP ANN CLG .4% CONDNS DB=>MWB,9.8145898483E-005,2.9406537670E-004,Pass,Pass,7.4247592684E-004,4.4119164566E-004,Pass,Pass
 Warmup Convergence Information,ALL_ST=TRANSP. SEATING_FL=STORY 1_SCH=H,SizingPeriod: FORT MCMURRAY AP ANN CLG .4% CONDNS DB=>MWB,2.7601981154E-003,2.1152578172E-003,Pass,Pass,2.7903799422E-004,2.1165201730E-004,Pass,Pass
 Warmup Convergence Information,ALL_ST=WAREHOUSE - FINE - REFRIGERATED_FL=STORY 4_SCH=A,SizingPeriod: FORT MCMURRAY AP ANN CLG .4% CONDNS DB=>MWB,0.1828324965,0.1323268124,Pass,Pass,4.4336378031E-002,6.5653523898E-002,Pass,Pass
 Warmup Convergence Information,ALL_ST=WAREHOUSE - FINE_FL=STORY 1_SCH=A,SizingPeriod: FORT MCMURRAY AP ANN CLG .4% CONDNS DB=>MWB,1.2073719899E-002,3.2273274994E-002,Pass,Pass,6.1663056760E-002,0.3964902892,Pass,Pass
 Warmup Convergence Information,ALL_ST=WAREHOUSE - MED/BLK - REFRIGERATED_FL=STORY 3_SCH=A,SizingPeriod: FORT MCMURRAY AP ANN CLG .4% CONDNS DB=>MWB,6.7306260091E-002,4.5141496794E-002,Pass,Pass,1.8146758181,18.2654118373,Pass,Pass
 Warmup Convergence Information,ALL_ST=WAREHOUSE - MED/BLK2 - REFRIGERATED_FL=STORY 2_SCH=A,SizingPeriod: FORT MCMURRAY AP ANN CLG .4% CONDNS DB=>MWB,5.7631106782E-002,4.9221694303E-002,Pass,Pass,0.1618858257,0.5372829122,Pass,Pass
 Warmup Convergence Information,ALL_ST=WAREHOUSE - MED/BLK2_FL=STORY 1_SCH=A,SizingPeriod: FORT MCMURRAY AP ANN CLG .4% CONDNS DB=>MWB,1.1325243761E-002,2.9528274884E-002,Pass,Pass,5.2952534527E-002,0.3528851515,Pass,Pass
 Warmup Convergence Information,ALL_ST=WAREHOUSE - MED/BLK_FL=STORY 2_SCH=A,SizingPeriod: FORT MCMURRAY AP ANN CLG .4% CONDNS DB=>MWB,3.5928446691E-002,0.1135817338,Pass,Pass,7.2018945107E-002,0.5474997674,Pass,Pass
 Warmup Convergence Information,WET_ST=WASHROOM-SCH-A_FL=STORY 3_SCHA,SizingPeriod: FORT MCMURRAY AP ANN CLG .4% CONDNS DB=>MWB,5.3251269536E-002,0.1494045006,Pass,Pass,5.9889170942E-002,0.4238494822,Pass,Pass
 Warmup Convergence Information,WET_ST=WASHROOM-SCH-B_FL=STORY 2_SCHA,SizingPeriod: FORT MCMURRAY AP ANN CLG .4% CONDNS DB=>MWB,4.9582369447E-002,0.1321471077,Pass,Pass,0.5447685677,5.8769641806,Pass,Pass
 Warmup Convergence Information,WILD_ST=STAIRWAY-SCH-F_FL=STORY 4_SCH=A,SizingPeriod: FORT MCMURRAY AP ANN CLG .4% CONDNS DB=>MWB,2.4310312878E-002,3.8433469462E-002,Pass,Pass,0.2008439644,1.7165182314,Pass,Pass
 Warmup Convergence Information,WILD_ST=STAIRWAY-SCH-G_FL=STORY 4_SCH=A,SizingPeriod: FORT MCMURRAY AP ANN CLG .4% CONDNS DB=>MWB,3.8680642335E-002,3.3899944216E-002,Pass,Pass,0.1895815775,0.8213946171,Pass,Pass
 Warmup Convergence Information,WILD_ST=STAIRWAY-SCH-H_FL=STORY 4_SCH=A,SizingPeriod: FORT MCMURRAY AP ANN CLG .4% CONDNS DB=>MWB,5.4048313475E-002,3.8271862124E-002,Pass,Pass,0.1172231030,0.8061034934,Pass,Pass
 Warmup Convergence Information,WILD_ST=STAIRWAY-SCH-I_FL=STORY 3_SCH=A,SizingPeriod: FORT MCMURRAY AP ANN CLG .4% CONDNS DB=>MWB,3.1144817286E-002,1.9411152809E-002,Pass,Pass,3.6049328802E-002,0.1029675726,Pass,Pass
Environment,FORT MCMURRAY AP ANN HTG 99.6% CONDNS DB,SizingPeriod:DesignDay,01/21,01/21,WinterDesignDay,1,N/A,N/A,N/A,N/A,N/A,N/A
Environment:Daylight Saving,No,SizingPeriod:DesignDay
Environment:Design Day Data,-36.20,0.00,DefaultMultipliers,96969,90,1.0,0.00,No,No
Environment:Design Day Misc, 21,1229.0,0.1415,5.7310E-002,1.0,-11.15,-20.1,ASHRAEClearSky
Environment:WarmupDays,  6
 Warmup Convergence Information,ALL_ST=STORAGE AREA - OCCSENS_FL=STORY 3_SCH=E,SizingPeriod: FORT MCMURRAY AP ANN HTG 99.6% CONDNS DB,8.8458666105E-002,0.2984550333,Pass,Pass,6.6369283895E-002,0.2102434480,Pass,Pass
 Warmup Convergence Information,ALL_ST=STORAGE AREA - REFRIGERATED - OCCSENS_FL=STORY 1_SCH=E,SizingPeriod: FORT MCMURRAY AP ANN HTG 99.6% CONDNS DB,5.1033240448E-002,0.1294892955,Pass,Pass,6.2445780287E-002,0.2378051370,Pass,Pass
 Warmup Convergence Information,ALL_ST=STORAGE AREA - REFRIGERATED_FL=STORY 1_SCH=E,SizingPeriod: FORT MCMURRAY AP ANN HTG 99.6% CONDNS DB,4.4547573789E-002,0.1338938876,Pass,Pass,6.5411817742E-002,0.2267340572,Pass,Pass
 Warmup Convergence Information,ALL_ST=STORAGE AREA_FL=STORY 3_SCH=E,SizingPeriod: FORT MCMURRAY AP ANN HTG 99.6% CONDNS DB,5.5571447223E-002,0.2531935661,Pass,Pass,6.2931030513E-002,0.2069710198,Pass,Pass
 Warmup Convergence Information,ALL_ST=TRANSP. BAGGAGE_FL=STORY 4_SCH=H,SizingPeriod: FORT MCMURRAY AP ANN HTG 99.6% CONDNS DB,5.5716277540E-002,0.2889386528,Pass,Pass,4.2007218497E-002,0.2268730161,Pass,Pass
 Warmup Convergence Information,ALL_ST=TRANSP. CONCOURSE_FL=STORY 2_SCH=H,SizingPeriod: FORT MCMURRAY AP ANN HTG 99.6% CONDNS DB,6.5002682688E-003,1.9977093060E-003,Pass,Pass,1.0325012856E-003,3.1395282497E-004,Pass,Pass
 Warmup Convergence Information,ALL_ST=TRANSP. COUNTER_FL=STORY 2_SCH=H,SizingPeriod: FORT MCMURRAY AP ANN HTG 99.6% CONDNS DB,6.7597822346E-003,2.3418829539E-003,Pass,Pass,3.7820111702E-004,1.2641374147E-004,Pass,Pass
 Warmup Convergence Information,ALL_ST=TRANSP. SEATING_FL=STORY 1_SCH=H,SizingPeriod: FORT MCMURRAY AP ANN HTG 99.6% CONDNS DB,4.1089505592E-003,1.9534361307E-003,Pass,Pass,4.4158425593E-004,2.0707657997E-004,Pass,Pass
 Warmup Convergence Information,ALL_ST=WAREHOUSE - FINE - REFRIGERATED_FL=STORY 4_SCH=A,SizingPeriod: FORT MCMURRAY AP ANN HTG 99.6% CONDNS DB,5.4015666073E-002,4.7465537217E-002,Pass,Pass,2.7699492422E-003,5.6082500465E-003,Pass,Pass
 Warmup Convergence Information,ALL_ST=WAREHOUSE - FINE_FL=STORY 1_SCH=A,SizingPeriod: FORT MCMURRAY AP ANN HTG 99.6% CONDNS DB,5.5564356001E-002,0.1869815320,Pass,Pass,1.0289160670,7.2251807355,Pass,Pass
 Warmup Convergence Information,ALL_ST=WAREHOUSE - MED/BLK - REFRIGERATED_FL=STORY 3_SCH=A,SizingPeriod: FORT MCMURRAY AP ANN HTG 99.6% CONDNS DB,2.1954331790E-002,1.6662297661E-002,Pass,Pass,8.1699795329E-004,1.1810783215E-003,Pass,Pass
 Warmup Convergence Information,ALL_ST=WAREHOUSE - MED/BLK2 - REFRIGERATED_FL=STORY 2_SCH=A,SizingPeriod: FORT MCMURRAY AP ANN HTG 99.6% CONDNS DB,2.5239988472E-002,2.1919846198E-002,Pass,Pass,9.8100521804E-004,1.3090927205E-003,Pass,Pass
 Warmup Convergence Information,ALL_ST=WAREHOUSE - MED/BLK2_FL=STORY 1_SCH=A,SizingPeriod: FORT MCMURRAY AP ANN HTG 99.6% CONDNS DB,5.5587408104E-002,0.1814511928,Pass,Pass,0.1585521081,0.6255427324,Pass,Pass
 Warmup Convergence Information,ALL_ST=WAREHOUSE - MED/BLK_FL=STORY 2_SCH=A,SizingPeriod: FORT MCMURRAY AP ANN HTG 99.6% CONDNS DB,5.5572064585E-002,0.2755853673,Pass,Pass,4.4904498593E-002,0.2441756448,Pass,Pass
 Warmup Convergence Information,WET_ST=WASHROOM-SCH-A_FL=STORY 3_SCHA,SizingPeriod: FORT MCMURRAY AP ANN HTG 99.6% CONDNS DB,5.5571681572E-002,0.2892945668,Pass,Pass,5.0882047255E-002,0.2686451299,Pass,Pass
 Warmup Convergence Information,WET_ST=WASHROOM-SCH-B_FL=STORY 2_SCHA,SizingPeriod: FORT MCMURRAY AP ANN HTG 99.6% CONDNS DB,5.8056085457E-002,0.2198065333,Pass,Pass,0.1028552530,0.5313519824,Pass,Pass
 Warmup Convergence Information,WILD_ST=STAIRWAY-SCH-F_FL=STORY 4_SCH=A,SizingPeriod: FORT MCMURRAY AP ANN HTG 99.6% CONDNS DB,5.5556703795E-002,0.3243523351,Pass,Pass,1.4514380152E-002,6.3670949414E-002,Pass,Pass
 Warmup Convergence Information,WILD_ST=STAIRWAY-SCH-G_FL=STORY 4_SCH=A,SizingPeriod: FORT MCMURRAY AP ANN HTG 99.6% CONDNS DB,5.5840313982E-002,0.3380605601,Pass,Pass,1.4273907610E-002,7.0197830900E-002,Pass,Pass
 Warmup Convergence Information,WILD_ST=STAIRWAY-SCH-H_FL=STORY 4_SCH=A,SizingPeriod: FORT MCMURRAY AP ANN HTG 99.6% CONDNS DB,5.7609197647E-002,0.3395707179,Pass,Pass,1.4077834685E-002,6.5469996691E-002,Pass,Pass
 Warmup Convergence Information,WILD_ST=STAIRWAY-SCH-I_FL=STORY 3_SCH=A,SizingPeriod: FORT MCMURRAY AP ANN HTG 99.6% CONDNS DB,3.2786214282E-002,0.1094462582,Pass,Pass,3.0507729918E-002,0.1633996141,Pass,Pass
! <Program Control Information:Threads/Parallel Sims>, Threading Supported,Maximum Number of Threads, Env Set Threads (OMP_NUM_THREADS), EP Env Set Threads (EP_OMP_NUM_THREADS), IDF Set Threads, Number of Threads Used (Interior Radiant Exchange), Number Nominal Surfaces, Number Parallel Sims
Program Control:Threads/Parallel Sims, No,1, N/A, N/A, N/A, N/A, N/A, N/A
End of Data
