Program Version,EnergyPlus, Version 8.9.0-eba93e8e1b, YMD=2019.03.28 13:14
! <Version>, Version ID
 Version, 8.9
! <Timesteps per Hour>, #TimeSteps, Minutes per TimeStep {minutes}
 Timesteps per Hour,  6, 10
! <System Convergence Limits>, Minimum System TimeStep {minutes}, Max HVAC Iterations, Minimum Plant Iterations, Maximum Plant Iterations
 System Convergence Limits, 1, 20, 2, 8
! <Simulation Control>, Do Zone Sizing, Do System Sizing, Do Plant Sizing, Do Design Days, Do Weather Simulation, Do HVAC Sizing Simulation
 Simulation Control, Yes, No, No, Yes, No, No
! <Output Reporting Tolerances>, Tolerance for Time Heating Setpoint Not Met, Tolerance for Zone Cooling Setpoint Not Met Time
 Output Reporting Tolerances, 0.200, 0.200, 
! <Site:GroundTemperature:BuildingSurface>,Jan{C},Feb{C},Mar{C},Apr{C},May{C},Jun{C},Jul{C},Aug{C},Sep{C},Oct{C},Nov{C},Dec{C}
 Site:GroundTemperature:BuildingSurface,  19.53,  19.50,  19.54,  19.60,  20.00,  21.64,  22.23,  22.38,  21.45,  20.12,  19.80,  19.63
! <Site:GroundTemperature:FCfactorMethod>,Jan{C},Feb{C},Mar{C},Apr{C},May{C},Jun{C},Jul{C},Aug{C},Sep{C},Oct{C},Nov{C},Dec{C}
 Site:GroundTemperature:FCfactorMethod, -12.27, -13.66, -11.19,  -7.33,   2.77,  10.57,  15.83,  17.43,  14.70,   8.65,   0.56,  -6.95
! <Site:GroundTemperature:Shallow>,Jan{C},Feb{C},Mar{C},Apr{C},May{C},Jun{C},Jul{C},Aug{C},Sep{C},Oct{C},Nov{C},Dec{C}
 Site:GroundTemperature:Shallow,  13.00,  13.00,  13.00,  13.00,  13.00,  13.00,  13.00,  13.00,  13.00,  13.00,  13.00,  13.00
! <Site:GroundTemperature:Deep>,Jan{C},Feb{C},Mar{C},Apr{C},May{C},Jun{C},Jul{C},Aug{C},Sep{C},Oct{C},Nov{C},Dec{C}
 Site:GroundTemperature:Deep,  16.00,  16.00,  16.00,  16.00,  16.00,  16.00,  16.00,  16.00,  16.00,  16.00,  16.00,  16.00
! <Site:GroundReflectance>,Jan{dimensionless},Feb{dimensionless},Mar{dimensionless},Apr{dimensionless},May{dimensionless},Jun{dimensionless},Jul{dimensionless},Aug{dimensionless},Sep{dimensionless},Oct{dimensionless},Nov{dimensionless},Dec{dimensionless}
 Site:GroundReflectance,  0.20,  0.20,  0.20,  0.20,  0.20,  0.20,  0.20,  0.20,  0.20,  0.20,  0.20,  0.20
! <Site:GroundReflectance:SnowModifier>, Normal, Daylighting {dimensionless}
 Site:GroundReflectance:SnowModifier,   1.000,   1.000
! <Site:GroundReflectance:Snow>,Jan{dimensionless},Feb{dimensionless},Mar{dimensionless},Apr{dimensionless},May{dimensionless},Jun{dimensionless},Jul{dimensionless},Aug{dimensionless},Sep{dimensionless},Oct{dimensionless},Nov{dimensionless},Dec{dimensionless}
 Site:GroundReflectance:Snow,  0.20,  0.20,  0.20,  0.20,  0.20,  0.20,  0.20,  0.20,  0.20,  0.20,  0.20,  0.20
! <Site:GroundReflectance:Snow:Daylighting>,Jan{dimensionless},Feb{dimensionless},Mar{dimensionless},Apr{dimensionless},May{dimensionless},Jun{dimensionless},Jul{dimensionless},Aug{dimensionless},Sep{dimensionless},Oct{dimensionless},Nov{dimensionless},Dec{dimensionless}
 Site:GroundReflectance:Snow:Daylighting,  0.20,  0.20,  0.20,  0.20,  0.20,  0.20,  0.20,  0.20,  0.20,  0.20,  0.20,  0.20
! <Environment:Weather Station>,Wind Sensor Height Above Ground {m},Wind Speed Profile Exponent {},Wind Speed Profile Boundary Layer Thickness {m},Air Temperature Sensor Height Above Ground {m},Wind Speed Modifier Coefficient-Internal,Temperature Modifier Coefficient-Internal
Environment:Weather Station,10.000,0.140,270.000,1.500,1.586,9.750E-003
! <Site:Location>, Location Name, Latitude {N+/S- Deg}, Longitude {E+/W- Deg},  Time Zone Number {GMT+/-}, Elevation {m},  Standard Pressure at Elevation {Pa}, Standard RhoAir at Elevation
Site:Location,Fort McMurray AP AB CAN CWEC2016 WMO#=716890,56.65,-111.22,-7.00,369.10,96969,1.1525
! <Building Information>, Building Name,North Axis {deg},Terrain,  Loads Convergence Tolerance Value,Temperature Convergence Tolerance Value,  Solar Distribution,Maximum Number of Warmup Days,Minimum Number of Warmup Days
 Building Information,Building 1,0.000,Suburbs,4.00000E-002,0.40000,FullExterior,25,6
! <Inside Convection Algorithm>, Algorithm {Simple | TARP | CeilingDiffuser | AdaptiveConvectionAlgorithm}
Inside Convection Algorithm,TARP
! <Outside Convection Algorithm>, Algorithm {SimpleCombined | TARP | MoWitt | DOE-2 | AdaptiveConvectionAlgorithm}
Outside Convection Algorithm,TARP
! <Sky Radiance Distribution>, Value {Anisotropic}
Sky Radiance Distribution,Anisotropic
! <Zone Air Solution Algorithm>, Value {ThirdOrderBackwardDifference | AnalyticalSolution | EulerMethod}
 Zone Air Solution Algorithm, ThirdOrderBackwardDifference
! <Zone Air Carbon Dioxide Balance Simulation>, Simulation {Yes/No}, Carbon Dioxide Concentration
 Zone Air Carbon Dioxide Balance Simulation, No,N/A
! <Zone Air Generic Contaminant Balance Simulation>, Simulation {Yes/No}, Generic Contaminant Concentration
 Zone Air Generic Contaminant Balance Simulation, No,N/A
! <Zone Air Mass Flow Balance Simulation>, Enforce Mass Balance, Adjust Zone Mixing, Adjust Zone Infiltration {AddInfiltration | AdjustInfiltration | None}, Infiltration Zones {MixingSourceZonesOnly | AllZones}
 Zone Air Mass Flow Balance Simulation, No,N/A,N/A,N/A
! <HVACSystemRootFindingAlgorithm>, Value {RegulaFalsi | Bisection | BisectionThenRegulaFalsi | RegulaFalsiThenBisection}
 HVACSystemRootFindingAlgorithm, RegulaFalsi
! <Environment:Site Atmospheric Variation>,Wind Speed Profile Exponent {},Wind Speed Profile Boundary Layer Thickness {m},Air Temperature Gradient Coefficient {K/m}
Environment:Site Atmospheric Variation,0.220,370.000,6.500000E-003
! <Surface Geometry>,Starting Corner,Vertex Input Direction,Coordinate System,Daylight Reference Point Coordinate System,Rectangular (Simple) Surface Coordinate System
 Surface Geometry,UpperLeftCorner,Counterclockwise,RelativeCoordinateSystem,RelativeCoordinateSystem,RelativeToZoneOrigin
! <Surface Heat Transfer Algorithm>, Value {CTF - ConductionTransferFunction | EMPD - MoisturePenetrationDepthConductionTransferFunction | CondFD - ConductionFiniteDifference | HAMT - CombinedHeatAndMoistureFiniteElement} - Description,Inside Surface Max Temperature Limit{C}, Surface Convection Coefficient Lower Limit {W/m2-K}, Surface Convection Coefficient Upper Limit {W/m2-K}
Surface Heat Transfer Algorithm, CTF - ConductionTransferFunction,200,0.10,1000.0
! <Shading Summary>, Number of Fixed Detached Shades, Number of Building Detached Shades, Number of Attached Shades
 Shading Summary,0,0,0
! <Zone Summary>, Number of Zones, Number of Zone Surfaces, Number of SubSurfaces
 Zone Summary,20,137,17
! <Zone Information>,Zone Name,North Axis {deg},Origin X-Coordinate {m},Origin Y-Coordinate {m},Origin Z-Coordinate {m},Centroid X-Coordinate {m},Centroid Y-Coordinate {m},Centroid Z-Coordinate {m},Type,Zone Multiplier,Zone List Multiplier,Minimum X {m},Maximum X {m},Minimum Y {m},Maximum Y {m},Minimum Z {m},Maximum Z {m},Ceiling Height {m},Volume {m3},Zone Inside Convection Algorithm {Simple-Detailed-CeilingDiffuser-TrombeWall},Zone Outside Convection Algorithm {Simple-Detailed-Tarp-MoWitt-DOE-2-BLAST}, Floor Area {m2},Exterior Gross Wall Area {m2},Exterior Net Wall Area {m2},Exterior Window Area {m2}, Number of Surfaces, Number of SubSurfaces, Number of Shading SubSurfaces,  Part of Total Building Area
 Zone Information, HOSPITAL - MEDICAL SUPPLY - OCCSENS-SPACE FUNCTION ZN,0.0,25.00,25.00,11.40,50.00,50.00,13.30,1,1,1,25.00,75.00,25.00,75.00,11.40,15.20,3.80,9500.00,TARP,TARP,2500.00,0.00,0.00,125.00,6,1,0,Yes
 Zone Information, HOSPITAL - NURSERY-SPACE FUNCTION ZN,0.0,0.00,0.00,11.40,50.00,10.85,13.30,1,1,1,0.00,100.00,0.00,25.00,11.40,15.20,3.80,7125.00,TARP,TARP,1875.00,380.00,285.00,188.75,6,2,0,Yes
 Zone Information, HOSPITAL - NURSES STATION-SPACE FUNCTION ZN,0.0,25.00,75.00,11.40,50.00,89.15,13.30,1,1,1,0.00,100.00,75.00,100.00,11.40,15.20,3.80,7125.00,TARP,TARP,1875.00,380.00,285.00,188.75,6,2,0,Yes
 Zone Information, HOSPITAL - OPERATING ROOM-SPACE FUNCTION ZN,0.0,0.00,0.00,11.40,10.85,50.00,13.30,1,1,1,0.00,25.00,0.00,100.00,11.40,15.20,3.80,7125.00,TARP,TARP,1875.00,380.00,285.00,188.75,6,2,0,Yes
 Zone Information, HOSPITAL - PATIENT ROOM-SPACE FUNCTION ZN,0.0,25.00,25.00,7.60,50.00,50.00,9.50,1,1,1,25.00,75.00,25.00,75.00,7.60,11.40,3.80,9500.00,TARP,TARP,2500.00,0.00,0.00,0.00,6,0,0,Yes
 Zone Information, HOSPITAL - PHARMACY-SPACE FUNCTION ZN,0.0,75.00,25.00,11.40,89.15,50.00,13.30,1,1,1,75.00,100.00,0.00,100.00,11.40,15.20,3.80,7125.00,TARP,TARP,1875.00,380.00,285.00,188.75,6,2,0,Yes
 Zone Information, HOSPITAL - PHYSICAL THERAPY-SPACE FUNCTION ZN,0.0,75.00,25.00,7.60,89.15,50.00,9.50,1,1,1,75.00,100.00,0.00,100.00,7.60,11.40,3.80,7125.00,TARP,TARP,1875.00,380.00,285.00,95.00,6,1,0,Yes
 Zone Information, HOSPITAL - RADIOLOGY/IMAGING-SPACE FUNCTION ZN,0.0,25.00,75.00,7.60,50.00,89.15,9.50,1,1,1,0.00,100.00,75.00,100.00,7.60,11.40,3.80,7125.00,TARP,TARP,1875.00,380.00,285.00,95.00,6,1,0,Yes
 Zone Information, HOSPITAL - RECOVERY-SPACE FUNCTION ZN,0.0,0.00,0.00,0.00,10.85,50.00,1.90,1,1,1,0.00,25.00,0.00,100.00,0.00,3.80,3.80,7125.00,TARP,TARP,1875.00,0.00,0.00,0.00,6,0,0,Yes
 Zone Information, HOTEL/MOTEL - DINING-SPACE FUNCTION ZN,0.0,75.00,25.00,0.00,89.15,50.00,1.90,1,1,1,75.00,100.00,0.00,100.00,0.00,3.80,3.80,7125.00,TARP,TARP,1875.00,0.00,0.00,0.00,6,0,0,Yes
 Zone Information, HOTEL/MOTEL - LOBBY-SPACE FUNCTION ZN,0.0,0.00,0.00,7.60,10.85,50.00,9.50,1,1,1,0.00,25.00,0.00,100.00,7.60,11.40,3.80,7125.00,TARP,TARP,1875.00,380.00,285.00,95.00,6,1,0,Yes
 Zone Information, HOTEL/MOTEL - ROOMS-SPACE FUNCTION ZN,0.0,25.00,25.00,3.80,50.00,50.00,5.70,1,1,1,25.00,75.00,25.00,75.00,3.80,7.60,3.80,9500.00,TARP,TARP,2500.00,0.00,0.00,0.00,6,0,0,Yes
 Zone Information, HWAY LODGING - DINING-SPACE FUNCTION ZN,0.0,25.00,75.00,0.00,50.00,89.15,1.90,1,1,1,0.00,100.00,75.00,100.00,0.00,3.80,3.80,7125.00,TARP,TARP,1875.00,0.00,0.00,0.00,6,0,0,Yes
 Zone Information, HWAY LODGING - ROOMS-SPACE FUNCTION ZN,0.0,0.00,0.00,7.60,50.00,10.85,9.50,1,1,1,0.00,100.00,0.00,25.00,7.60,11.40,3.80,7125.00,TARP,TARP,1875.00,380.00,285.00,95.00,6,1,0,Yes
 Zone Information, LAB - CLASSROOMS-SPACE FUNCTION ZN,0.0,25.00,25.00,0.00,50.00,50.00,1.90,1,1,1,25.00,75.00,25.00,75.00,0.00,3.80,3.80,9500.00,TARP,TARP,2500.00,0.00,0.00,0.00,6,0,0,Yes
 Zone Information, LAB - RESEARCH-SPACE FUNCTION ZN,0.0,0.00,0.00,0.00,50.00,10.85,1.90,1,1,1,0.00,100.00,0.00,25.00,0.00,3.80,3.80,7125.00,TARP,TARP,1875.00,0.00,0.00,0.00,6,0,0,Yes
 Zone Information, LIBRARY - CATALOGING-SPACE FUNCTION ZN,0.0,25.00,75.00,3.80,50.00,89.15,5.70,1,1,1,0.00,100.00,75.00,100.00,3.80,7.60,3.80,7125.00,TARP,TARP,1875.00,380.00,285.00,95.00,6,1,0,Yes
 Zone Information, LIBRARY - READING-SPACE FUNCTION ZN,0.0,0.00,0.00,3.80,10.85,50.00,5.70,1,1,1,0.00,25.00,0.00,100.00,3.80,7.60,3.80,7125.00,TARP,TARP,1875.00,380.00,285.00,95.00,6,1,0,Yes
 Zone Information, LIBRARY - STACKS-SPACE FUNCTION ZN,0.0,75.00,25.00,3.80,89.15,50.00,5.70,1,1,1,75.00,100.00,0.00,100.00,3.80,7.60,3.80,7125.00,TARP,TARP,1875.00,380.00,285.00,95.00,6,1,0,Yes
 Zone Information, LOBBY - ELEVATOR-SPACE FUNCTION ZN,0.0,0.00,0.00,3.80,50.00,10.85,5.70,1,1,1,0.00,100.00,0.00,25.00,3.80,7.60,3.80,7125.00,TARP,TARP,1875.00,380.00,285.00,95.00,6,1,0,Yes
! <Zone Internal Gains Nominal>,Zone Name, Floor Area {m2},# Occupants,Area per Occupant {m2/person},Occupant per Area {person/m2},Interior Lighting {W/m2},Electric Load {W/m2},Gas Load {W/m2},Other Load {W/m2},Hot Water Eq {W/m2},Steam Equipment {W/m2},Sum Loads per Area {W/m2},Outdoor Controlled Baseboard Heat
 Zone Internal Gains Nominal, HOSPITAL - MEDICAL SUPPLY - OCCSENS-SPACE FUNCTION ZN,2500.00,125.1,19.979,5.005E-002,12.330,1.000,0.000,0.000,0.000,0.000,13.330,No
 Zone Internal Gains Nominal, HOSPITAL - NURSERY-SPACE FUNCTION ZN,1875.00,93.8,19.979,5.005E-002,9.500,10.000,0.000,0.000,0.000,0.000,19.500,No
 Zone Internal Gains Nominal, HOSPITAL - NURSES STATION-SPACE FUNCTION ZN,1875.00,93.8,19.979,5.005E-002,9.400,2.500,0.000,0.000,0.000,0.000,11.900,No
 Zone Internal Gains Nominal, HOSPITAL - OPERATING ROOM-SPACE FUNCTION ZN,1875.00,93.8,19.979,5.005E-002,20.300,10.000,0.000,0.000,0.000,0.000,30.300,No
 Zone Internal Gains Nominal, HOSPITAL - PATIENT ROOM-SPACE FUNCTION ZN,2500.00,125.1,19.979,5.005E-002,6.700,10.000,0.000,0.000,0.000,0.000,16.700,No
 Zone Internal Gains Nominal, HOSPITAL - PHARMACY-SPACE FUNCTION ZN,1875.00,93.8,19.979,5.005E-002,12.300,2.500,0.000,0.000,0.000,0.000,14.800,No
 Zone Internal Gains Nominal, HOSPITAL - PHYSICAL THERAPY-SPACE FUNCTION ZN,1875.00,93.8,19.979,5.005E-002,9.800,10.000,0.000,0.000,0.000,0.000,19.800,No
 Zone Internal Gains Nominal, HOSPITAL - RADIOLOGY/IMAGING-SPACE FUNCTION ZN,1875.00,93.8,19.979,5.005E-002,14.200,10.000,0.000,0.000,0.000,0.000,24.200,No
 Zone Internal Gains Nominal, HOSPITAL - RECOVERY-SPACE FUNCTION ZN,1875.00,93.8,19.979,5.005E-002,12.400,10.000,0.000,0.000,0.000,0.000,22.400,No
 Zone Internal Gains Nominal, HOTEL/MOTEL - DINING-SPACE FUNCTION ZN,1875.00,187.5,10.000,10.000E-002,8.800,1.000,0.000,0.000,0.000,0.000,9.800,No
 Zone Internal Gains Nominal, HOTEL/MOTEL - LOBBY-SPACE FUNCTION ZN,1875.00,187.5,10.000,10.000E-002,11.400,2.500,0.000,0.000,0.000,0.000,13.900,No
 Zone Internal Gains Nominal, HOTEL/MOTEL - ROOMS-SPACE FUNCTION ZN,2500.00,100.1,24.974,4.004E-002,11.900,2.500,0.000,0.000,0.000,0.000,14.400,No
 Zone Internal Gains Nominal, HWAY LODGING - DINING-SPACE FUNCTION ZN,1875.00,187.5,10.000,10.000E-002,9.500,1.000,0.000,0.000,0.000,0.000,10.500,No
 Zone Internal Gains Nominal, HWAY LODGING - ROOMS-SPACE FUNCTION ZN,1875.00,75.1,24.974,4.004E-002,8.100,2.500,0.000,0.000,0.000,0.000,10.600,No
 Zone Internal Gains Nominal, LAB - CLASSROOMS-SPACE FUNCTION ZN,2500.00,125.1,19.979,5.005E-002,17.200,10.000,0.000,0.000,0.000,0.000,27.200,No
 Zone Internal Gains Nominal, LAB - RESEARCH-SPACE FUNCTION ZN,1875.00,93.8,19.979,5.005E-002,23.600,10.000,0.000,0.000,0.000,0.000,33.600,No
 Zone Internal Gains Nominal, LIBRARY - CATALOGING-SPACE FUNCTION ZN,1875.00,93.8,19.979,5.005E-002,7.800,2.500,0.000,0.000,0.000,0.000,10.300,No
 Zone Internal Gains Nominal, LIBRARY - READING-SPACE FUNCTION ZN,1875.00,93.8,19.979,5.005E-002,10.000,1.000,0.000,0.000,0.000,0.000,11.000,No
 Zone Internal Gains Nominal, LIBRARY - STACKS-SPACE FUNCTION ZN,1875.00,93.8,19.979,5.005E-002,22.900,0.000,0.000,0.000,0.000,0.000,22.900,No
 Zone Internal Gains Nominal, LOBBY - ELEVATOR-SPACE FUNCTION ZN,1875.00,187.5,10.000,10.000E-002,6.900,1.000,0.000,0.000,0.000,0.000,7.900,No
! <People Internal Gains Nominal>,Name,Schedule Name,Zone Name,Zone Floor Area {m2},# Zone Occupants,Number of People {},People/Floor Area {person/m2},Floor Area per person {m2/person},Fraction Radiant,Fraction Convected,Sensible Fraction Calculation,Activity level,ASHRAE 55 Warnings,Carbon Dioxide Generation Rate,Nominal Minimum Number of People,Nominal Maximum Number of People
 People Internal Gains Nominal, HOSPITAL - MEDICAL SUPPLY - OCCSENS-SPACE FUNCTION ZN SPACE FUNCTION HOSPITAL - MEDICAL SUPPLY - OCCSENS PEOPLE,NECB-H-OCCUPANCY,HOSPITAL - MEDICAL SUPPLY - OCCSENS-SPACE FUNCTION ZN,2500.00,125.1,125.1,5.005E-002,19.979,0.300,0.700,AutoCalculate,NECB-ACTIVITY,No,3.8200E-008,113,113
 People Internal Gains Nominal, HOSPITAL - NURSERY-SPACE FUNCTION ZN SPACE FUNCTION HOSPITAL - NURSERY PEOPLE,NECB-H-OCCUPANCY,HOSPITAL - NURSERY-SPACE FUNCTION ZN,1875.00,93.8,93.8,5.005E-002,19.979,0.300,0.700,AutoCalculate,NECB-ACTIVITY,No,3.8200E-008,84,84
 People Internal Gains Nominal, HOSPITAL - NURSES STATION-SPACE FUNCTION ZN SPACE FUNCTION HOSPITAL - NURSES STATION PEOPLE,NECB-H-OCCUPANCY,HOSPITAL - NURSES STATION-SPACE FUNCTION ZN,1875.00,93.8,93.8,5.005E-002,19.979,0.300,0.700,AutoCalculate,NECB-ACTIVITY,No,3.8200E-008,84,84
 People Internal Gains Nominal, HOSPITAL - OPERATING ROOM-SPACE FUNCTION ZN SPACE FUNCTION HOSPITAL - OPERATING ROOM PEOPLE,NECB-H-OCCUPANCY,HOSPITAL - OPERATING ROOM-SPACE FUNCTION ZN,1875.00,93.8,93.8,5.005E-002,19.979,0.300,0.700,AutoCalculate,NECB-ACTIVITY,No,3.8200E-008,84,84
 People Internal Gains Nominal, HOSPITAL - PATIENT ROOM-SPACE FUNCTION ZN SPACE FUNCTION HOSPITAL - PATIENT ROOM PEOPLE,NECB-H-OCCUPANCY,HOSPITAL - PATIENT ROOM-SPACE FUNCTION ZN,2500.00,125.1,125.1,5.005E-002,19.979,0.300,0.700,AutoCalculate,NECB-ACTIVITY,No,3.8200E-008,113,113
 People Internal Gains Nominal, HOSPITAL - PHARMACY-SPACE FUNCTION ZN SPACE FUNCTION HOSPITAL - PHARMACY PEOPLE,NECB-C-OCCUPANCY,HOSPITAL - PHARMACY-SPACE FUNCTION ZN,1875.00,93.8,93.8,5.005E-002,19.979,0.300,0.700,AutoCalculate,NECB-ACTIVITY,No,3.8200E-008,0,84
 People Internal Gains Nominal, HOSPITAL - PHYSICAL THERAPY-SPACE FUNCTION ZN SPACE FUNCTION HOSPITAL - PHYSICAL THERAPY PEOPLE,NECB-C-OCCUPANCY,HOSPITAL - PHYSICAL THERAPY-SPACE FUNCTION ZN,1875.00,93.8,93.8,5.005E-002,19.979,0.300,0.700,AutoCalculate,NECB-ACTIVITY,No,3.8200E-008,0,84
 People Internal Gains Nominal, HOSPITAL - RADIOLOGY/IMAGING-SPACE FUNCTION ZN SPACE FUNCTION HOSPITAL - RADIOLOGY/IMAGING PEOPLE,NECB-H-OCCUPANCY,HOSPITAL - RADIOLOGY/IMAGING-SPACE FUNCTION ZN,1875.00,93.8,93.8,5.005E-002,19.979,0.300,0.700,AutoCalculate,NECB-ACTIVITY,No,3.8200E-008,84,84
 People Internal Gains Nominal, HOSPITAL - RECOVERY-SPACE FUNCTION ZN SPACE FUNCTION HOSPITAL - RECOVERY PEOPLE,NECB-H-OCCUPANCY,HOSPITAL - RECOVERY-SPACE FUNCTION ZN,1875.00,93.8,93.8,5.005E-002,19.979,0.300,0.700,AutoCalculate,NECB-ACTIVITY,No,3.8200E-008,84,84
 People Internal Gains Nominal, HOTEL/MOTEL - DINING-SPACE FUNCTION ZN SPACE FUNCTION HOTEL/MOTEL - DINING PEOPLE,NECB-B-OCCUPANCY,HOTEL/MOTEL - DINING-SPACE FUNCTION ZN,1875.00,187.5,187.5,10.000E-002,10.000,0.300,0.700,AutoCalculate,NECB-ACTIVITY,No,3.8200E-008,0,169
 People Internal Gains Nominal, HOTEL/MOTEL - LOBBY-SPACE FUNCTION ZN SPACE FUNCTION HOTEL/MOTEL - LOBBY PEOPLE,NECB-H-OCCUPANCY,HOTEL/MOTEL - LOBBY-SPACE FUNCTION ZN,1875.00,187.5,187.5,10.000E-002,10.000,0.300,0.700,AutoCalculate,NECB-ACTIVITY,No,3.8200E-008,169,169
 People Internal Gains Nominal, HOTEL/MOTEL - ROOMS-SPACE FUNCTION ZN SPACE FUNCTION HOTEL/MOTEL - ROOMS PEOPLE,NECB-F-OCCUPANCY,HOTEL/MOTEL - ROOMS-SPACE FUNCTION ZN,2500.00,100.1,100.1,4.004E-002,24.974,0.300,0.700,AutoCalculate,NECB-ACTIVITY,No,3.8200E-008,20,90
 People Internal Gains Nominal, HWAY LODGING - DINING-SPACE FUNCTION ZN SPACE FUNCTION HWAY LODGING - DINING PEOPLE,NECB-B-OCCUPANCY,HWAY LODGING - DINING-SPACE FUNCTION ZN,1875.00,187.5,187.5,10.000E-002,10.000,0.300,0.700,AutoCalculate,NECB-ACTIVITY,No,3.8200E-008,0,169
 People Internal Gains Nominal, HWAY LODGING - ROOMS-SPACE FUNCTION ZN SPACE FUNCTION HWAY LODGING - ROOMS PEOPLE,NECB-F-OCCUPANCY,HWAY LODGING - ROOMS-SPACE FUNCTION ZN,1875.00,75.1,75.1,4.004E-002,24.974,0.300,0.700,AutoCalculate,NECB-ACTIVITY,No,3.8200E-008,15,68
 People Internal Gains Nominal, LAB - CLASSROOMS-SPACE FUNCTION ZN SPACE FUNCTION LAB - CLASSROOMS PEOPLE,NECB-D-OCCUPANCY,LAB - CLASSROOMS-SPACE FUNCTION ZN,2500.00,125.1,125.1,5.005E-002,19.979,0.300,0.700,AutoCalculate,NECB-ACTIVITY,No,3.8200E-008,0,113
 People Internal Gains Nominal, LAB - RESEARCH-SPACE FUNCTION ZN SPACE FUNCTION LAB - RESEARCH PEOPLE,NECB-A-OCCUPANCY,LAB - RESEARCH-SPACE FUNCTION ZN,1875.00,93.8,93.8,5.005E-002,19.979,0.300,0.700,AutoCalculate,NECB-ACTIVITY,No,3.8200E-008,0,84
 People Internal Gains Nominal, LIBRARY - CATALOGING-SPACE FUNCTION ZN SPACE FUNCTION LIBRARY - CATALOGING PEOPLE,NECB-C-OCCUPANCY,LIBRARY - CATALOGING-SPACE FUNCTION ZN,1875.00,93.8,93.8,5.005E-002,19.979,0.300,0.700,AutoCalculate,NECB-ACTIVITY,No,3.8200E-008,0,84
 People Internal Gains Nominal, LIBRARY - READING-SPACE FUNCTION ZN SPACE FUNCTION LIBRARY - READING PEOPLE,NECB-C-OCCUPANCY,LIBRARY - READING-SPACE FUNCTION ZN,1875.00,93.8,93.8,5.005E-002,19.979,0.300,0.700,AutoCalculate,NECB-ACTIVITY,No,3.8200E-008,0,84
 People Internal Gains Nominal, LIBRARY - STACKS-SPACE FUNCTION ZN SPACE FUNCTION LIBRARY - STACKS PEOPLE,NECB-C-OCCUPANCY,LIBRARY - STACKS-SPACE FUNCTION ZN,1875.00,93.8,93.8,5.005E-002,19.979,0.300,0.700,AutoCalculate,NECB-ACTIVITY,No,3.8200E-008,0,84
 People Internal Gains Nominal, LOBBY - ELEVATOR-SPACE FUNCTION ZN SPACE FUNCTION LOBBY - ELEVATOR PEOPLE,NECB-C-OCCUPANCY,LOBBY - ELEVATOR-SPACE FUNCTION ZN,1875.00,187.5,187.5,10.000E-002,10.000,0.300,0.700,AutoCalculate,NECB-ACTIVITY,No,3.8200E-008,0,169
! <Lights Internal Gains Nominal>,Name,Schedule Name,Zone Name,Zone Floor Area {m2},# Zone Occupants,Lighting Level {W},Lights/Floor Area {W/m2},Lights per person {W/person},Fraction Return Air,Fraction Radiant,Fraction Short Wave,Fraction Convected,Fraction Replaceable,End-Use Category,Nominal Minimum Lighting Level {W},Nominal Maximum Lighting Level {W}
 Lights Internal Gains Nominal, HOSPITAL - MEDICAL SUPPLY - OCCSENS-SPACE FUNCTION ZN SPACE FUNCTION HOSPITAL - MEDICAL SUPPLY - OCCSENS LIGHTS,NECB-H-LIGHTING,HOSPITAL - MEDICAL SUPPLY - OCCSENS-SPACE FUNCTION ZN,2500.00,125.1,30824.743,12.330,246.341,0.000,0.500,0.200,0.300,1.000,General,27742.269,27742.269
 Lights Internal Gains Nominal, HOSPITAL - NURSERY-SPACE FUNCTION ZN SPACE FUNCTION HOSPITAL - NURSERY LIGHTS,NECB-H-LIGHTING,HOSPITAL - NURSERY-SPACE FUNCTION ZN,1875.00,93.8,17812.352,9.500,189.800,0.000,0.500,0.200,0.300,1.000,General,16031.117,16031.117
 Lights Internal Gains Nominal, HOSPITAL - NURSES STATION-SPACE FUNCTION ZN SPACE FUNCTION HOSPITAL - NURSES STATION LIGHTS,NECB-H-LIGHTING,HOSPITAL - NURSES STATION-SPACE FUNCTION ZN,1875.00,93.8,17624.853,9.400,187.802,0.000,0.500,0.200,0.300,1.000,General,15862.368,15862.368
 Lights Internal Gains Nominal, HOSPITAL - OPERATING ROOM-SPACE FUNCTION ZN SPACE FUNCTION HOSPITAL - OPERATING ROOM LIGHTS,NECB-H-LIGHTING,HOSPITAL - OPERATING ROOM-SPACE FUNCTION ZN,1875.00,93.8,38062.183,20.300,405.573,0.000,0.500,0.200,0.300,1.000,General,34255.965,34255.965
 Lights Internal Gains Nominal, HOSPITAL - PATIENT ROOM-SPACE FUNCTION ZN SPACE FUNCTION HOSPITAL - PATIENT ROOM LIGHTS,NECB-H-LIGHTING,HOSPITAL - PATIENT ROOM-SPACE FUNCTION ZN,2500.00,125.1,16749.861,6.700,133.859,0.000,0.500,0.200,0.300,1.000,General,15074.875,15074.875
 Lights Internal Gains Nominal, HOSPITAL - PHARMACY-SPACE FUNCTION ZN SPACE FUNCTION HOSPITAL - PHARMACY LIGHTS,NECB-C-LIGHTING,HOSPITAL - PHARMACY-SPACE FUNCTION ZN,1875.00,93.8,23062.308,12.300,245.741,0.000,0.500,0.200,0.300,1.000,General,1153.115,20756.077
 Lights Internal Gains Nominal, HOSPITAL - PHYSICAL THERAPY-SPACE FUNCTION ZN SPACE FUNCTION HOSPITAL - PHYSICAL THERAPY LIGHTS,NECB-C-LIGHTING,HOSPITAL - PHYSICAL THERAPY-SPACE FUNCTION ZN,1875.00,93.8,18374.847,9.800,195.794,0.000,0.500,0.200,0.300,1.000,General,918.742,16537.362
 Lights Internal Gains Nominal, HOSPITAL - RADIOLOGY/IMAGING-SPACE FUNCTION ZN SPACE FUNCTION HOSPITAL - RADIOLOGY/IMAGING LIGHTS,NECB-H-LIGHTING,HOSPITAL - RADIOLOGY/IMAGING-SPACE FUNCTION ZN,1875.00,93.8,26624.778,14.200,283.702,0.000,0.500,0.200,0.300,1.000,General,23962.301,23962.301
 Lights Internal Gains Nominal, HOSPITAL - RECOVERY-SPACE FUNCTION ZN SPACE FUNCTION HOSPITAL - RECOVERY LIGHTS,NECB-H-LIGHTING,HOSPITAL - RECOVERY-SPACE FUNCTION ZN,1875.00,93.8,23249.807,12.400,247.739,0.000,0.500,0.200,0.300,1.000,General,20924.826,20924.826
 Lights Internal Gains Nominal, HOTEL/MOTEL - DINING-SPACE FUNCTION ZN SPACE FUNCTION HOTEL/MOTEL - DINING LIGHTS,NECB-B-LIGHTING,HOTEL/MOTEL - DINING-SPACE FUNCTION ZN,1875.00,187.5,16499.863,8.800,88.002,0.000,0.500,0.200,0.300,1.000,General,1649.986,14849.876
 Lights Internal Gains Nominal, HOTEL/MOTEL - LOBBY-SPACE FUNCTION ZN SPACE FUNCTION HOTEL/MOTEL - LOBBY LIGHTS,NECB-H-LIGHTING,HOTEL/MOTEL - LOBBY-SPACE FUNCTION ZN,1875.00,187.5,21374.822,11.400,114.003,0.000,0.500,0.200,0.300,1.000,General,19237.340,19237.340
 Lights Internal Gains Nominal, HOTEL/MOTEL - ROOMS-SPACE FUNCTION ZN SPACE FUNCTION HOTEL/MOTEL - ROOMS LIGHTS,NECB-F-LIGHTING,HOTEL/MOTEL - ROOMS-SPACE FUNCTION ZN,2500.00,100.1,29749.752,11.900,297.187,0.000,0.500,0.200,0.300,1.000,General,2974.975,26774.777
 Lights Internal Gains Nominal, HWAY LODGING - DINING-SPACE FUNCTION ZN SPACE FUNCTION HWAY LODGING - DINING LIGHTS,NECB-B-LIGHTING,HWAY LODGING - DINING-SPACE FUNCTION ZN,1875.00,187.5,17812.352,9.500,95.002,0.000,0.500,0.200,0.300,1.000,General,1781.235,16031.117
 Lights Internal Gains Nominal, HWAY LODGING - ROOMS-SPACE FUNCTION ZN SPACE FUNCTION HWAY LODGING - ROOMS LIGHTS,NECB-F-LIGHTING,HWAY LODGING - ROOMS-SPACE FUNCTION ZN,1875.00,75.1,15187.374,8.100,202.287,0.000,0.500,0.200,0.300,1.000,General,1518.737,13668.636
 Lights Internal Gains Nominal, LAB - CLASSROOMS-SPACE FUNCTION ZN SPACE FUNCTION LAB - CLASSROOMS LIGHTS,NECB-D-LIGHTING,LAB - CLASSROOMS-SPACE FUNCTION ZN,2500.00,125.1,42999.642,17.200,343.638,0.000,0.500,0.200,0.300,1.000,General,2149.982,38699.678
 Lights Internal Gains Nominal, LAB - RESEARCH-SPACE FUNCTION ZN SPACE FUNCTION LAB - RESEARCH LIGHTS,NECB-A-LIGHTING,LAB - RESEARCH-SPACE FUNCTION ZN,1875.00,93.8,44249.632,23.600,471.504,0.000,0.500,0.200,0.300,1.000,General,2212.482,39824.669
 Lights Internal Gains Nominal, LIBRARY - CATALOGING-SPACE FUNCTION ZN SPACE FUNCTION LIBRARY - CATALOGING LIGHTS,NECB-C-LIGHTING,LIBRARY - CATALOGING-SPACE FUNCTION ZN,1875.00,93.8,14624.878,7.800,155.836,0.000,0.500,0.200,0.300,1.000,General,731.244,13162.390
 Lights Internal Gains Nominal, LIBRARY - READING-SPACE FUNCTION ZN SPACE FUNCTION LIBRARY - READING LIGHTS,NECB-C-LIGHTING,LIBRARY - READING-SPACE FUNCTION ZN,1875.00,93.8,18749.844,10.000,199.790,0.000,0.500,0.200,0.300,1.000,General,937.492,16874.860
 Lights Internal Gains Nominal, LIBRARY - STACKS-SPACE FUNCTION ZN SPACE FUNCTION LIBRARY - STACKS LIGHTS,NECB-C-LIGHTING,LIBRARY - STACKS-SPACE FUNCTION ZN,1875.00,93.8,42937.143,22.900,457.519,0.000,0.500,0.200,0.300,1.000,General,2146.857,38643.428
 Lights Internal Gains Nominal, LOBBY - ELEVATOR-SPACE FUNCTION ZN SPACE FUNCTION LOBBY - ELEVATOR LIGHTS,NECB-C-LIGHTING,LOBBY - ELEVATOR-SPACE FUNCTION ZN,1875.00,187.5,12937.392,6.900,69.002,0.000,0.500,0.200,0.300,1.000,General,646.870,11643.653
! <ElectricEquipment Internal Gains Nominal>,Name,Schedule Name,Zone Name,Zone Floor Area {m2},# Zone Occupants,Equipment Level {W},Equipment/Floor Area {W/m2},Equipment per person {W/person},Fraction Latent,Fraction Radiant,Fraction Lost,Fraction Convected,End-Use SubCategory,Nominal Minimum Equipment Level {W},Nominal Maximum Equipment Level {W}
 ElectricEquipment Internal Gains Nominal, HOSPITAL - MEDICAL SUPPLY - OCCSENS-SPACE FUNCTION ZN SPACE FUNCTION HOSPITAL - MEDICAL SUPPLY - OCCSENS ELEC EQUIP,NECB-H-ELECTRIC-EQUIPMENT,HOSPITAL - MEDICAL SUPPLY - OCCSENS-SPACE FUNCTION ZN,2500.00,125.1,2499.979,1.000,19.979,0.000,0.500,0.000,0.500,General,2249.981,2249.981
 ElectricEquipment Internal Gains Nominal, HOSPITAL - NURSERY-SPACE FUNCTION ZN SPACE FUNCTION HOSPITAL - NURSERY ELEC EQUIP,NECB-H-ELECTRIC-EQUIPMENT,HOSPITAL - NURSERY-SPACE FUNCTION ZN,1875.00,93.8,18749.844,10.000,199.790,0.000,0.500,0.000,0.500,General,16874.860,16874.860
 ElectricEquipment Internal Gains Nominal, HOSPITAL - NURSES STATION-SPACE FUNCTION ZN SPACE FUNCTION HOSPITAL - NURSES STATION ELEC EQUIP,NECB-H-ELECTRIC-EQUIPMENT,HOSPITAL - NURSES STATION-SPACE FUNCTION ZN,1875.00,93.8,4687.461,2.500,49.947,0.000,0.500,0.000,0.500,General,4218.715,4218.715
 ElectricEquipment Internal Gains Nominal, HOSPITAL - OPERATING ROOM-SPACE FUNCTION ZN SPACE FUNCTION HOSPITAL - OPERATING ROOM ELEC EQUIP,NECB-H-ELECTRIC-EQUIPMENT,HOSPITAL - OPERATING ROOM-SPACE FUNCTION ZN,1875.00,93.8,18749.844,10.000,199.790,0.000,0.500,0.000,0.500,General,16874.860,16874.860
 ElectricEquipment Internal Gains Nominal, HOSPITAL - PATIENT ROOM-SPACE FUNCTION ZN SPACE FUNCTION HOSPITAL - PATIENT ROOM ELEC EQUIP,NECB-H-ELECTRIC-EQUIPMENT,HOSPITAL - PATIENT ROOM-SPACE FUNCTION ZN,2500.00,125.1,24999.792,10.000,199.790,0.000,0.500,0.000,0.500,General,22499.813,22499.813
 ElectricEquipment Internal Gains Nominal, HOSPITAL - PHARMACY-SPACE FUNCTION ZN SPACE FUNCTION HOSPITAL - PHARMACY ELEC EQUIP,NECB-C-ELECTRIC-EQUIPMENT,HOSPITAL - PHARMACY-SPACE FUNCTION ZN,1875.00,93.8,4687.461,2.500,49.947,0.000,0.500,0.000,0.500,General,234.373,4218.715
 ElectricEquipment Internal Gains Nominal, HOSPITAL - PHYSICAL THERAPY-SPACE FUNCTION ZN SPACE FUNCTION HOSPITAL - PHYSICAL THERAPY ELEC EQUIP,NECB-C-ELECTRIC-EQUIPMENT,HOSPITAL - PHYSICAL THERAPY-SPACE FUNCTION ZN,1875.00,93.8,18749.844,10.000,199.790,0.000,0.500,0.000,0.500,General,937.492,16874.860
 ElectricEquipment Internal Gains Nominal, HOSPITAL - RADIOLOGY/IMAGING-SPACE FUNCTION ZN SPACE FUNCTION HOSPITAL - RADIOLOGY/IMAGING ELEC EQUIP,NECB-H-ELECTRIC-EQUIPMENT,HOSPITAL - RADIOLOGY/IMAGING-SPACE FUNCTION ZN,1875.00,93.8,18749.844,10.000,199.790,0.000,0.500,0.000,0.500,General,16874.860,16874.860
 ElectricEquipment Internal Gains Nominal, HOSPITAL - RECOVERY-SPACE FUNCTION ZN SPACE FUNCTION HOSPITAL - RECOVERY ELEC EQUIP,NECB-H-ELECTRIC-EQUIPMENT,HOSPITAL - RECOVERY-SPACE FUNCTION ZN,1875.00,93.8,18749.844,10.000,199.790,0.000,0.500,0.000,0.500,General,16874.860,16874.860
 ElectricEquipment Internal Gains Nominal, HOTEL/MOTEL - DINING-SPACE FUNCTION ZN SPACE FUNCTION HOTEL/MOTEL - DINING ELEC EQUIP,NECB-B-ELECTRIC-EQUIPMENT,HOTEL/MOTEL - DINING-SPACE FUNCTION ZN,1875.00,187.5,1874.984,1.000,10.000,0.000,0.500,0.000,0.500,General,187.498,1687.486
 ElectricEquipment Internal Gains Nominal, HOTEL/MOTEL - LOBBY-SPACE FUNCTION ZN SPACE FUNCTION HOTEL/MOTEL - LOBBY ELEC EQUIP,NECB-H-ELECTRIC-EQUIPMENT,HOTEL/MOTEL - LOBBY-SPACE FUNCTION ZN,1875.00,187.5,4687.461,2.500,25.001,0.000,0.500,0.000,0.500,General,4218.715,4218.715
 ElectricEquipment Internal Gains Nominal, HOTEL/MOTEL - ROOMS-SPACE FUNCTION ZN SPACE FUNCTION HOTEL/MOTEL - ROOMS ELEC EQUIP,NECB-F-ELECTRIC-EQUIPMENT,HOTEL/MOTEL - ROOMS-SPACE FUNCTION ZN,2500.00,100.1,6249.948,2.500,62.434,0.000,0.500,0.000,0.500,General,624.995,5624.953
 ElectricEquipment Internal Gains Nominal, HWAY LODGING - DINING-SPACE FUNCTION ZN SPACE FUNCTION HWAY LODGING - DINING ELEC EQUIP,NECB-B-ELECTRIC-EQUIPMENT,HWAY LODGING - DINING-SPACE FUNCTION ZN,1875.00,187.5,1874.984,1.000,10.000,0.000,0.500,0.000,0.500,General,187.498,1687.486
 ElectricEquipment Internal Gains Nominal, HWAY LODGING - ROOMS-SPACE FUNCTION ZN SPACE FUNCTION HWAY LODGING - ROOMS ELEC EQUIP,NECB-F-ELECTRIC-EQUIPMENT,HWAY LODGING - ROOMS-SPACE FUNCTION ZN,1875.00,75.1,4687.461,2.500,62.434,0.000,0.500,0.000,0.500,General,468.746,4218.715
 ElectricEquipment Internal Gains Nominal, LAB - CLASSROOMS-SPACE FUNCTION ZN SPACE FUNCTION LAB - CLASSROOMS ELEC EQUIP,NECB-D-ELECTRIC-EQUIPMENT,LAB - CLASSROOMS-SPACE FUNCTION ZN,2500.00,125.1,24999.792,10.000,199.790,0.000,0.500,0.000,0.500,General,1249.990,22499.813
 ElectricEquipment Internal Gains Nominal, LAB - RESEARCH-SPACE FUNCTION ZN SPACE FUNCTION LAB - RESEARCH ELEC EQUIP,NECB-A-ELECTRIC-EQUIPMENT,LAB - RESEARCH-SPACE FUNCTION ZN,1875.00,93.8,18749.844,10.000,199.790,0.000,0.500,0.000,0.500,General,3749.969,16874.860
 ElectricEquipment Internal Gains Nominal, LIBRARY - CATALOGING-SPACE FUNCTION ZN SPACE FUNCTION LIBRARY - CATALOGING ELEC EQUIP,NECB-C-ELECTRIC-EQUIPMENT,LIBRARY - CATALOGING-SPACE FUNCTION ZN,1875.00,93.8,4687.461,2.500,49.947,0.000,0.500,0.000,0.500,General,234.373,4218.715
 ElectricEquipment Internal Gains Nominal, LIBRARY - READING-SPACE FUNCTION ZN SPACE FUNCTION LIBRARY - READING ELEC EQUIP,NECB-C-ELECTRIC-EQUIPMENT,LIBRARY - READING-SPACE FUNCTION ZN,1875.00,93.8,1874.984,1.000,19.979,0.000,0.500,0.000,0.500,General,93.749,1687.486
 ElectricEquipment Internal Gains Nominal, LOBBY - ELEVATOR-SPACE FUNCTION ZN SPACE FUNCTION LOBBY - ELEVATOR ELEC EQUIP,NECB-C-ELECTRIC-EQUIPMENT,LOBBY - ELEVATOR-SPACE FUNCTION ZN,1875.00,187.5,1874.984,1.000,10.000,0.000,0.500,0.000,0.500,General,93.749,1687.486
! <Shadowing/Sun Position Calculations Annual Simulations>, Calculation Method, Value {days}, Allowable Number Figures in Shadow Overlap {}, Polygon Clipping Algorithm, Sky Diffuse Modeling Algorithm, External Shading Calculation Method, Output External Shading Calculation Results, Disable Self-Shading Within Shading Zone Groups, Disable Self-Shading From Shading Zone Groups to Other Zones
Shadowing/Sun Position Calculations Annual Simulations,AverageOverDaysInFrequency,20,15000,SutherlandHodgman,SimpleSkyDiffuseModeling,InternalCalculation,No,No,No
! <ZoneInfiltration Airflow Stats Nominal>,Name,Schedule Name,Zone Name, Zone Floor Area {m2}, # Zone Occupants,Design Volume Flow Rate {m3/s},Volume Flow Rate/Floor Area {m3/s/m2},Volume Flow Rate/Exterior Surface Area {m3/s/m2},ACH - Air Changes per Hour,Equation A - Constant Term Coefficient {},Equation B - Temperature Term Coefficient {1/C},Equation C - Velocity Term Coefficient {s/m}, Equation D - Velocity Squared Term Coefficient {s2/m2}
 ZoneInfiltration Airflow Stats Nominal, HOSPITAL - MEDICAL SUPPLY - OCCSENS-SPACE FUNCTION INFILTRATION,ALWAYS ON DISCRETE,HOSPITAL - MEDICAL SUPPLY - OCCSENS-SPACE FUNCTION ZN,2500.00,125.1,0.625,2.500E-004,2.500E-004,0.237,0.000,0.000,0.224,0.000
 ZoneInfiltration Airflow Stats Nominal, HOSPITAL - NURSERY-SPACE FUNCTION INFILTRATION,ALWAYS ON DISCRETE,HOSPITAL - NURSERY-SPACE FUNCTION ZN,1875.00,93.8,0.564,3.007E-004,2.500E-004,0.285,0.000,0.000,0.224,0.000
 ZoneInfiltration Airflow Stats Nominal, HOSPITAL - NURSES STATION-SPACE FUNCTION INFILTRATION,ALWAYS ON DISCRETE,HOSPITAL - NURSES STATION-SPACE FUNCTION ZN,1875.00,93.8,0.564,3.007E-004,2.500E-004,0.285,0.000,0.000,0.224,0.000
 ZoneInfiltration Airflow Stats Nominal, HOSPITAL - OPERATING ROOM-SPACE FUNCTION INFILTRATION,ALWAYS ON DISCRETE,HOSPITAL - OPERATING ROOM-SPACE FUNCTION ZN,1875.00,93.8,0.564,3.007E-004,2.500E-004,0.285,0.000,0.000,0.224,0.000
 ZoneInfiltration Airflow Stats Nominal, HOSPITAL - PHARMACY-SPACE FUNCTION INFILTRATION,ALWAYS ON DISCRETE,HOSPITAL - PHARMACY-SPACE FUNCTION ZN,1875.00,93.8,0.564,3.007E-004,2.500E-004,0.285,0.000,0.000,0.224,0.000
 ZoneInfiltration Airflow Stats Nominal, HOSPITAL - PHYSICAL THERAPY-SPACE FUNCTION INFILTRATION,ALWAYS ON DISCRETE,HOSPITAL - PHYSICAL THERAPY-SPACE FUNCTION ZN,1875.00,93.8,9.500E-002,5.067E-005,2.500E-004,4.800E-002,0.000,0.000,0.224,0.000
 ZoneInfiltration Airflow Stats Nominal, HOSPITAL - RADIOLOGY/IMAGING-SPACE FUNCTION INFILTRATION,ALWAYS ON DISCRETE,HOSPITAL - RADIOLOGY/IMAGING-SPACE FUNCTION ZN,1875.00,93.8,9.500E-002,5.067E-005,2.500E-004,4.800E-002,0.000,0.000,0.224,0.000
 ZoneInfiltration Airflow Stats Nominal, HOTEL/MOTEL - LOBBY-SPACE FUNCTION INFILTRATION,ALWAYS ON DISCRETE,HOTEL/MOTEL - LOBBY-SPACE FUNCTION ZN,1875.00,187.5,9.500E-002,5.067E-005,2.500E-004,4.800E-002,0.000,0.000,0.224,0.000
 ZoneInfiltration Airflow Stats Nominal, HWAY LODGING - ROOMS-SPACE FUNCTION INFILTRATION,ALWAYS ON DISCRETE,HWAY LODGING - ROOMS-SPACE FUNCTION ZN,1875.00,75.1,9.500E-002,5.067E-005,2.500E-004,4.800E-002,0.000,0.000,0.224,0.000
 ZoneInfiltration Airflow Stats Nominal, LIBRARY - CATALOGING-SPACE FUNCTION INFILTRATION,ALWAYS ON DISCRETE,LIBRARY - CATALOGING-SPACE FUNCTION ZN,1875.00,93.8,9.500E-002,5.067E-005,2.500E-004,4.800E-002,0.000,0.000,0.224,0.000
 ZoneInfiltration Airflow Stats Nominal, LIBRARY - READING-SPACE FUNCTION INFILTRATION,ALWAYS ON DISCRETE,LIBRARY - READING-SPACE FUNCTION ZN,1875.00,93.8,9.500E-002,5.067E-005,2.500E-004,4.800E-002,0.000,0.000,0.224,0.000
 ZoneInfiltration Airflow Stats Nominal, LIBRARY - STACKS-SPACE FUNCTION INFILTRATION,ALWAYS ON DISCRETE,LIBRARY - STACKS-SPACE FUNCTION ZN,1875.00,93.8,9.500E-002,5.067E-005,2.500E-004,4.800E-002,0.000,0.000,0.224,0.000
 ZoneInfiltration Airflow Stats Nominal, LOBBY - ELEVATOR-SPACE FUNCTION INFILTRATION,ALWAYS ON DISCRETE,LOBBY - ELEVATOR-SPACE FUNCTION ZN,1875.00,187.5,9.500E-002,5.067E-005,2.500E-004,4.800E-002,0.000,0.000,0.224,0.000
! <AirFlow Model>, Simple
 AirFlow Model, Simple
! <RoomAir Model>, Zone Name, Mixing/Mundt/UCSDDV/UCSDCV/UCSDUFI/UCSDUFE/User Defined
RoomAir Model,HOSPITAL - MEDICAL SUPPLY - OCCSENS-SPACE FUNCTION ZN,Mixing/Well-Stirred
RoomAir Model,HOSPITAL - NURSERY-SPACE FUNCTION ZN,Mixing/Well-Stirred
RoomAir Model,HOSPITAL - NURSES STATION-SPACE FUNCTION ZN,Mixing/Well-Stirred
RoomAir Model,HOSPITAL - OPERATING ROOM-SPACE FUNCTION ZN,Mixing/Well-Stirred
RoomAir Model,HOSPITAL - PATIENT ROOM-SPACE FUNCTION ZN,Mixing/Well-Stirred
RoomAir Model,HOSPITAL - PHARMACY-SPACE FUNCTION ZN,Mixing/Well-Stirred
RoomAir Model,HOSPITAL - PHYSICAL THERAPY-SPACE FUNCTION ZN,Mixing/Well-Stirred
RoomAir Model,HOSPITAL - RADIOLOGY/IMAGING-SPACE FUNCTION ZN,Mixing/Well-Stirred
RoomAir Model,HOSPITAL - RECOVERY-SPACE FUNCTION ZN,Mixing/Well-Stirred
RoomAir Model,HOTEL/MOTEL - DINING-SPACE FUNCTION ZN,Mixing/Well-Stirred
RoomAir Model,HOTEL/MOTEL - LOBBY-SPACE FUNCTION ZN,Mixing/Well-Stirred
RoomAir Model,HOTEL/MOTEL - ROOMS-SPACE FUNCTION ZN,Mixing/Well-Stirred
RoomAir Model,HWAY LODGING - DINING-SPACE FUNCTION ZN,Mixing/Well-Stirred
RoomAir Model,HWAY LODGING - ROOMS-SPACE FUNCTION ZN,Mixing/Well-Stirred
RoomAir Model,LAB - CLASSROOMS-SPACE FUNCTION ZN,Mixing/Well-Stirred
RoomAir Model,LAB - RESEARCH-SPACE FUNCTION ZN,Mixing/Well-Stirred
RoomAir Model,LIBRARY - CATALOGING-SPACE FUNCTION ZN,Mixing/Well-Stirred
RoomAir Model,LIBRARY - READING-SPACE FUNCTION ZN,Mixing/Well-Stirred
RoomAir Model,LIBRARY - STACKS-SPACE FUNCTION ZN,Mixing/Well-Stirred
RoomAir Model,LOBBY - ELEVATOR-SPACE FUNCTION ZN,Mixing/Well-Stirred
! <AirflowNetwork Model:Control>, No Multizone or Distribution/Multizone with Distribution/Multizone without Distribution/Multizone with Distribution only during Fan Operation
AirflowNetwork Model:Control,NoMultizoneOrDistribution
! <Zone Volume Capacitance Multiplier>, Sensible Heat Capacity Multiplier, Moisture Capacity Multiplier, Carbon Dioxide Capacity Multiplier, Generic Contaminant Capacity Multiplier
Zone Volume Capacitance Multiplier,   1.000 ,   1.000,   1.000,   1.000
! <Load Timesteps in Zone Design Calculation Averaging Window>, Value
 Load Timesteps in Zone Design Calculation Averaging Window,    6
! <Heating Sizing Factor Information>, Sizing Factor ID, Value
 Heating Sizing Factor Information, Global,   1.2500    
 Heating Sizing Factor Information, Zone HOSPITAL - MEDICAL SUPPLY - OCCSENS-SPACE FUNCTION ZN,   1.2500    
 Heating Sizing Factor Information, Zone HOSPITAL - NURSERY-SPACE FUNCTION ZN,   1.2500    
 Heating Sizing Factor Information, Zone HOSPITAL - NURSES STATION-SPACE FUNCTION ZN,   1.2500    
 Heating Sizing Factor Information, Zone HOSPITAL - OPERATING ROOM-SPACE FUNCTION ZN,   1.2500    
 Heating Sizing Factor Information, Zone HOSPITAL - PATIENT ROOM-SPACE FUNCTION ZN,   1.2500    
 Heating Sizing Factor Information, Zone HOSPITAL - PHARMACY-SPACE FUNCTION ZN,   1.2500    
 Heating Sizing Factor Information, Zone HOSPITAL - PHYSICAL THERAPY-SPACE FUNCTION ZN,   1.2500    
 Heating Sizing Factor Information, Zone HOSPITAL - RADIOLOGY/IMAGING-SPACE FUNCTION ZN,   1.2500    
 Heating Sizing Factor Information, Zone HOSPITAL - RECOVERY-SPACE FUNCTION ZN,   1.2500    
 Heating Sizing Factor Information, Zone HOTEL/MOTEL - DINING-SPACE FUNCTION ZN,   1.2500    
 Heating Sizing Factor Information, Zone HOTEL/MOTEL - LOBBY-SPACE FUNCTION ZN,   1.2500    
 Heating Sizing Factor Information, Zone HOTEL/MOTEL - ROOMS-SPACE FUNCTION ZN,   1.2500    
 Heating Sizing Factor Information, Zone HWAY LODGING - DINING-SPACE FUNCTION ZN,   1.2500    
 Heating Sizing Factor Information, Zone HWAY LODGING - ROOMS-SPACE FUNCTION ZN,   1.2500    
 Heating Sizing Factor Information, Zone LAB - CLASSROOMS-SPACE FUNCTION ZN,   1.2500    
 Heating Sizing Factor Information, Zone LAB - RESEARCH-SPACE FUNCTION ZN,   1.2500    
 Heating Sizing Factor Information, Zone LIBRARY - CATALOGING-SPACE FUNCTION ZN,   1.2500    
 Heating Sizing Factor Information, Zone LIBRARY - READING-SPACE FUNCTION ZN,   1.2500    
 Heating Sizing Factor Information, Zone LIBRARY - STACKS-SPACE FUNCTION ZN,   1.2500    
 Heating Sizing Factor Information, Zone LOBBY - ELEVATOR-SPACE FUNCTION ZN,   1.2500    
! <Cooling Sizing Factor Information>, Sizing Factor ID, Value
 Cooling Sizing Factor Information, Global,   1.1500    
 Cooling Sizing Factor Information, Zone HOSPITAL - MEDICAL SUPPLY - OCCSENS-SPACE FUNCTION ZN,   1.1500    
 Cooling Sizing Factor Information, Zone HOSPITAL - NURSERY-SPACE FUNCTION ZN,   1.1500    
 Cooling Sizing Factor Information, Zone HOSPITAL - NURSES STATION-SPACE FUNCTION ZN,   1.1500    
 Cooling Sizing Factor Information, Zone HOSPITAL - OPERATING ROOM-SPACE FUNCTION ZN,   1.1500    
 Cooling Sizing Factor Information, Zone HOSPITAL - PATIENT ROOM-SPACE FUNCTION ZN,   1.1500    
 Cooling Sizing Factor Information, Zone HOSPITAL - PHARMACY-SPACE FUNCTION ZN,   1.1500    
 Cooling Sizing Factor Information, Zone HOSPITAL - PHYSICAL THERAPY-SPACE FUNCTION ZN,   1.1500    
 Cooling Sizing Factor Information, Zone HOSPITAL - RADIOLOGY/IMAGING-SPACE FUNCTION ZN,   1.1500    
 Cooling Sizing Factor Information, Zone HOSPITAL - RECOVERY-SPACE FUNCTION ZN,   1.1500    
 Cooling Sizing Factor Information, Zone HOTEL/MOTEL - DINING-SPACE FUNCTION ZN,   1.1500    
 Cooling Sizing Factor Information, Zone HOTEL/MOTEL - LOBBY-SPACE FUNCTION ZN,   1.1500    
 Cooling Sizing Factor Information, Zone HOTEL/MOTEL - ROOMS-SPACE FUNCTION ZN,   1.1500    
 Cooling Sizing Factor Information, Zone HWAY LODGING - DINING-SPACE FUNCTION ZN,   1.1500    
 Cooling Sizing Factor Information, Zone HWAY LODGING - ROOMS-SPACE FUNCTION ZN,   1.1500    
 Cooling Sizing Factor Information, Zone LAB - CLASSROOMS-SPACE FUNCTION ZN,   1.1500    
 Cooling Sizing Factor Information, Zone LAB - RESEARCH-SPACE FUNCTION ZN,   1.1500    
 Cooling Sizing Factor Information, Zone LIBRARY - CATALOGING-SPACE FUNCTION ZN,   1.1500    
 Cooling Sizing Factor Information, Zone LIBRARY - READING-SPACE FUNCTION ZN,   1.1500    
 Cooling Sizing Factor Information, Zone LIBRARY - STACKS-SPACE FUNCTION ZN,   1.1500    
 Cooling Sizing Factor Information, Zone LOBBY - ELEVATOR-SPACE FUNCTION ZN,   1.1500    
! <Zone Sizing Information>, Zone Name, Load Type, Calc Des Load {W}, User Des Load {W}, Calc Des Air Flow Rate {m3/s}, User Des Air Flow Rate {m3/s}, Design Day Name, Date/Time of Peak, Temperature at Peak {C}, Humidity Ratio at Peak {kgWater/kgDryAir}, Floor Area {m2}, # Occupants, Calc Outdoor Air Flow Rate {m3/s}, Calc DOAS Heat Addition Rate {W}
 Zone Sizing Information, HOSPITAL - MEDICAL SUPPLY - OCCSENS-SPACE FUNCTION ZN, Cooling, 85699.64476, 98554.59147, 7.28617, 8.37910, FORT MCMURRAY AP ANN CLG .4% CONDNS DB=>MWB, 7/21 13:40:00, 28.69333, 8.76969E-003, 2500.00000, 125.13046, 3.81000, 0.00000
 Zone Sizing Information, HOSPITAL - MEDICAL SUPPLY - OCCSENS-SPACE FUNCTION ZN, Heating, 0.00000, 0.00000, 0.00000, 3.81000, FORT MCMURRAY AP ANN HTG 99.6% CONDNS DB, , -36.20000, 1.25811E-004, 2500.00000, 125.13046, 3.81000, 0.00000
 Zone Sizing Information, HOSPITAL - NURSERY-SPACE FUNCTION ZN, Cooling, 92678.99869, 106580.84850, 7.87954, 9.06147, FORT MCMURRAY AP ANN CLG .4% CONDNS DB=>MWB, 7/21 13:30:00, 28.59000, 8.76969E-003, 1875.00000, 93.84784, 2.85750, 0.00000
 Zone Sizing Information, HOSPITAL - NURSERY-SPACE FUNCTION ZN, Heating, 18824.82517, 23531.03147, 0.84930, 2.85750, FORT MCMURRAY AP ANN HTG 99.6% CONDNS DB, 1/21 09:00:00, -36.20000, 1.25811E-004, 1875.00000, 93.84784, 2.85750, 0.00000
 Zone Sizing Information, HOSPITAL - NURSES STATION-SPACE FUNCTION ZN, Cooling, 68945.11831, 79286.88606, 5.86169, 6.74095, FORT MCMURRAY AP ANN CLG .4% CONDNS DB=>MWB, 7/21 13:40:00, 28.69333, 8.76969E-003, 1875.00000, 93.84784, 2.85750, 0.00000
 Zone Sizing Information, HOSPITAL - NURSES STATION-SPACE FUNCTION ZN, Heating, 22708.56572, 28385.70715, 1.03176, 2.85750, FORT MCMURRAY AP ANN HTG 99.6% CONDNS DB, 1/21 09:00:00, -36.20000, 1.25811E-004, 1875.00000, 93.84784, 2.85750, 0.00000
 Zone Sizing Information, HOSPITAL - OPERATING ROOM-SPACE FUNCTION ZN, Cooling, 105244.35119, 121031.00387, 8.94784, 10.29001, FORT MCMURRAY AP ANN CLG .4% CONDNS DB=>MWB, 7/21 16:10:00, 27.99067, 8.76969E-003, 1875.00000, 93.84784, 8.57250, 0.00000
 Zone Sizing Information, HOSPITAL - OPERATING ROOM-SPACE FUNCTION ZN, Heating, 0.00000, 0.00000, 0.00000, 8.57250, FORT MCMURRAY AP ANN HTG 99.6% CONDNS DB, , -36.20000, 1.25811E-004, 1875.00000, 93.84784, 8.57250, 0.00000
 Zone Sizing Information, HOSPITAL - PATIENT ROOM-SPACE FUNCTION ZN, Cooling, 50728.16499, 58337.38974, 4.31293, 4.95987, FORT MCMURRAY AP ANN CLG .4% CONDNS DB=>MWB, 7/21 17:30:00, 26.54400, 8.76969E-003, 2500.00000, 125.13046, 3.81000, 0.00000
 Zone Sizing Information, HOSPITAL - PATIENT ROOM-SPACE FUNCTION ZN, Heating, 0.00000, 0.00000, 0.00000, 3.81000, FORT MCMURRAY AP ANN HTG 99.6% CONDNS DB, , -36.20000, 1.25811E-004, 2500.00000, 125.13046, 3.81000, 0.00000
 Zone Sizing Information, HOSPITAL - PHARMACY-SPACE FUNCTION ZN, Cooling, 75550.05842, 86882.56718, 6.42276, 7.38618, FORT MCMURRAY AP ANN CLG .4% CONDNS DB=>MWB, 7/21 10:40:00, 25.42800, 8.76969E-003, 1875.00000, 93.84784, 4.28625, 0.00000
 Zone Sizing Information, HOSPITAL - PHARMACY-SPACE FUNCTION ZN, Heating, 42227.11564, 52783.89455, 1.92823, 4.28625, FORT MCMURRAY AP ANN HTG 99.6% CONDNS DB, 1/21 08:50:00, -36.20000, 1.25811E-004, 1875.00000, 93.84784, 4.28625, 0.00000
 Zone Sizing Information, HOSPITAL - PHYSICAL THERAPY-SPACE FUNCTION ZN, Cooling, 55183.95262, 63461.54551, 4.21176, 4.84352, FORT MCMURRAY AP ANN CLG .4% CONDNS DB=>MWB, 7/21 08:00:00, 19.72400, 8.76969E-003, 1875.00000, 93.84784, 4.28625, 0.00000
 Zone Sizing Information, HOSPITAL - PHYSICAL THERAPY-SPACE FUNCTION ZN, Heating, 13888.65590, 17360.81987, 0.61724, 4.28625, FORT MCMURRAY AP ANN HTG 99.6% CONDNS DB, 1/21 09:00:00, -36.20000, 1.25811E-004, 1875.00000, 93.84784, 4.28625, 0.00000
 Zone Sizing Information, HOSPITAL - RADIOLOGY/IMAGING-SPACE FUNCTION ZN, Cooling, 50223.56458, 57757.09927, 4.27001, 4.91051, FORT MCMURRAY AP ANN CLG .4% CONDNS DB=>MWB, 7/21 16:50:00, 27.32933, 8.76969E-003, 1875.00000, 93.84784, 4.28625, 0.00000
 Zone Sizing Information, HOSPITAL - RADIOLOGY/IMAGING-SPACE FUNCTION ZN, Heating, 0.00000, 0.00000, 0.00000, 4.28625, FORT MCMURRAY AP ANN HTG 99.6% CONDNS DB, , -36.20000, 1.25811E-004, 1875.00000, 93.84784, 4.28625, 0.00000
 Zone Sizing Information, HOSPITAL - RECOVERY-SPACE FUNCTION ZN, Cooling, 39400.61242, 45310.70428, 3.34985, 8.57250, FORT MCMURRAY AP ANN CLG .4% CONDNS DB=>MWB, 7/21 20:40:00, 21.95600, 8.76969E-003, 1875.00000, 93.84784, 8.57250, 0.00000
 Zone Sizing Information, HOSPITAL - RECOVERY-SPACE FUNCTION ZN, Heating, 0.00000, 0.00000, 0.00000, 8.57250, FORT MCMURRAY AP ANN HTG 99.6% CONDNS DB, , -36.20000, 1.25811E-004, 1875.00000, 93.84784, 8.57250, 0.00000
 Zone Sizing Information, HOTEL/MOTEL - DINING-SPACE FUNCTION ZN, Cooling, 28758.86664, 33072.69664, 2.44515, 6.71513, FORT MCMURRAY AP ANN CLG .4% CONDNS DB=>MWB, 7/21 13:00:00, 28.28000, 8.76969E-003, 1875.00000, 187.49386, 6.71513, 0.00000
 Zone Sizing Information, HOTEL/MOTEL - DINING-SPACE FUNCTION ZN, Heating, 0.00000, 0.00000, 0.00000, 6.71513, FORT MCMURRAY AP ANN HTG 99.6% CONDNS DB, , -36.20000, 1.25811E-004, 1875.00000, 187.49386, 6.71513, 0.00000
 Zone Sizing Information, HOTEL/MOTEL - LOBBY-SPACE FUNCTION ZN, Cooling, 63530.12720, 73059.64628, 5.40190, 6.21219, FORT MCMURRAY AP ANN CLG .4% CONDNS DB=>MWB, 7/21 18:20:00, 25.30400, 8.76968E-003, 1875.00000, 187.49386, 2.71463, 0.00000
 Zone Sizing Information, HOTEL/MOTEL - LOBBY-SPACE FUNCTION ZN, Heating, 0.00000, 0.00000, 0.00000, 2.71463, FORT MCMURRAY AP ANN HTG 99.6% CONDNS DB, , -36.20000, 1.25811E-004, 1875.00000, 187.49386, 2.71463, 0.00000
 Zone Sizing Information, HOTEL/MOTEL - ROOMS-SPACE FUNCTION ZN, Cooling, 34426.19433, 39590.12348, 2.92670, 3.36571, FORT MCMURRAY AP ANN CLG .4% CONDNS DB=>MWB, 7/21 22:00:00, 20.46800, 8.76969E-003, 2500.00000, 100.10437, 1.39700, 0.00000
 Zone Sizing Information, HOTEL/MOTEL - ROOMS-SPACE FUNCTION ZN, Heating, 0.00000, 0.00000, 0.00000, 1.39700, FORT MCMURRAY AP ANN HTG 99.6% CONDNS DB, , -36.20000, 1.25811E-004, 2500.00000, 100.10437, 1.39700, 0.00000
 Zone Sizing Information, HWAY LODGING - DINING-SPACE FUNCTION ZN, Cooling, 25676.21274, 29527.64465, 2.18307, 6.71513, FORT MCMURRAY AP ANN CLG .4% CONDNS DB=>MWB, 7/21 21:40:00, 20.84000, 8.76969E-003, 1875.00000, 187.49386, 6.71513, 0.00000
 Zone Sizing Information, HWAY LODGING - DINING-SPACE FUNCTION ZN, Heating, 0.00000, 0.00000, 0.00000, 6.71513, FORT MCMURRAY AP ANN HTG 99.6% CONDNS DB, , -36.20000, 1.25811E-004, 1875.00000, 187.49386, 6.71513, 0.00000
 Zone Sizing Information, HWAY LODGING - ROOMS-SPACE FUNCTION ZN, Cooling, 32249.96019, 37087.45422, 2.74165, 3.15290, FORT MCMURRAY AP ANN CLG .4% CONDNS DB=>MWB, 7/21 14:10:00, 28.90000, 8.76969E-003, 1875.00000, 75.07828, 1.04775, 0.00000
 Zone Sizing Information, HWAY LODGING - ROOMS-SPACE FUNCTION ZN, Heating, 4755.59569, 5944.49462, 0.22483, 1.04775, FORT MCMURRAY AP ANN HTG 99.6% CONDNS DB, 1/21 13:00:00, -36.20000, 1.25811E-004, 1875.00000, 75.07828, 1.04775, 0.00000
 Zone Sizing Information, LAB - CLASSROOMS-SPACE FUNCTION ZN, Cooling, 49193.72933, 56572.78873, 4.18243, 5.46100, FORT MCMURRAY AP ANN CLG .4% CONDNS DB=>MWB, 7/21 16:00:00, 28.15600, 8.76969E-003, 2500.00000, 125.13046, 5.46100, 0.00000
 Zone Sizing Information, LAB - CLASSROOMS-SPACE FUNCTION ZN, Heating, 0.00000, 0.00000, 0.00000, 5.46100, FORT MCMURRAY AP ANN HTG 99.6% CONDNS DB, , -36.20000, 1.25811E-004, 2500.00000, 125.13046, 5.46100, 0.00000
 Zone Sizing Information, LAB - RESEARCH-SPACE FUNCTION ZN, Cooling, 49042.48276, 56398.85517, 4.16960, 4.79504, FORT MCMURRAY AP ANN CLG .4% CONDNS DB=>MWB, 7/21 17:00:00, 27.16400, 8.76969E-003, 1875.00000, 93.84784, 4.09575, 0.00000
 Zone Sizing Information, LAB - RESEARCH-SPACE FUNCTION ZN, Heating, 0.00000, 0.00000, 0.00000, 4.09575, FORT MCMURRAY AP ANN HTG 99.6% CONDNS DB, , -36.20000, 1.25811E-004, 1875.00000, 93.84784, 4.09575, 0.00000
 Zone Sizing Information, LIBRARY - CATALOGING-SPACE FUNCTION ZN, Cooling, 27873.16060, 32054.13469, 2.36973, 2.72519, FORT MCMURRAY AP ANN CLG .4% CONDNS DB=>MWB, 7/21 17:00:00, 27.16400, 8.76969E-003, 1875.00000, 93.84784, 1.61925, 0.00000
 Zone Sizing Information, LIBRARY - CATALOGING-SPACE FUNCTION ZN, Heating, 0.00000, 0.00000, 0.00000, 1.61925, FORT MCMURRAY AP ANN HTG 99.6% CONDNS DB, , -36.20000, 1.25811E-004, 1875.00000, 93.84784, 1.61925, 0.00000
 Zone Sizing Information, LIBRARY - READING-SPACE FUNCTION ZN, Cooling, 45354.12061, 52157.23871, 3.85595, 4.43434, FORT MCMURRAY AP ANN CLG .4% CONDNS DB=>MWB, 7/21 18:00:00, 25.92400, 8.76969E-003, 1875.00000, 93.84784, 1.61925, 0.00000
 Zone Sizing Information, LIBRARY - READING-SPACE FUNCTION ZN, Heating, 0.00000, 0.00000, 0.00000, 1.61925, FORT MCMURRAY AP ANN HTG 99.6% CONDNS DB, , -36.20000, 1.25811E-004, 1875.00000, 93.84784, 1.61925, 0.00000
 Zone Sizing Information, LIBRARY - STACKS-SPACE FUNCTION ZN, Cooling, 50766.46297, 58381.43241, 3.87418, 4.45530, FORT MCMURRAY AP ANN CLG .4% CONDNS DB=>MWB, 7/21 08:00:00, 19.72400, 8.76969E-003, 1875.00000, 93.84784, 1.61925, 0.00000
 Zone Sizing Information, LIBRARY - STACKS-SPACE FUNCTION ZN, Heating, 1154.12297, 1442.65371, 5.36375E-002, 1.61925, FORT MCMURRAY AP ANN HTG 99.6% CONDNS DB, 1/21 08:10:00, -36.20000, 1.25811E-004, 1875.00000, 93.84784, 1.61925, 0.00000
 Zone Sizing Information, LOBBY - ELEVATOR-SPACE FUNCTION ZN, Cooling, 38790.19530, 44608.72460, 3.29812, 7.71525, FORT MCMURRAY AP ANN CLG .4% CONDNS DB=>MWB, 7/21 13:50:00, 28.79667, 8.76969E-003, 1875.00000, 187.49386, 7.71525, 0.00000
 Zone Sizing Information, LOBBY - ELEVATOR-SPACE FUNCTION ZN, Heating, 1483.67303, 1854.59128, 6.87485E-002, 7.71525, FORT MCMURRAY AP ANN HTG 99.6% CONDNS DB, 1/21 08:10:00, -36.20000, 1.25811E-004, 1875.00000, 187.49386, 7.71525, 0.00000
! <Component Sizing Information>, Component Type, Component Name, Input Field Description, Value
 Component Sizing Information, ZoneHVAC:IdealLoadsAirSystem, ZONE HVAC IDEAL LOADS AIR SYSTEM 1, User-Specified Maximum Heating Air Flow Rate [m3/s], 0.00000
 Component Sizing Information, ZoneHVAC:IdealLoadsAirSystem, ZONE HVAC IDEAL LOADS AIR SYSTEM 1, User-Specified Maximum Cooling Air Flow Rate [m3/s], 0.00000
 Component Sizing Information, ZoneHVAC:IdealLoadsAirSystem, ZONE HVAC IDEAL LOADS AIR SYSTEM 2, User-Specified Maximum Heating Air Flow Rate [m3/s], 0.00000
 Component Sizing Information, ZoneHVAC:IdealLoadsAirSystem, ZONE HVAC IDEAL LOADS AIR SYSTEM 2, User-Specified Maximum Cooling Air Flow Rate [m3/s], 0.00000
 Component Sizing Information, ZoneHVAC:IdealLoadsAirSystem, ZONE HVAC IDEAL LOADS AIR SYSTEM 3, User-Specified Maximum Heating Air Flow Rate [m3/s], 0.00000
 Component Sizing Information, ZoneHVAC:IdealLoadsAirSystem, ZONE HVAC IDEAL LOADS AIR SYSTEM 3, User-Specified Maximum Cooling Air Flow Rate [m3/s], 0.00000
 Component Sizing Information, ZoneHVAC:IdealLoadsAirSystem, ZONE HVAC IDEAL LOADS AIR SYSTEM 4, User-Specified Maximum Heating Air Flow Rate [m3/s], 0.00000
 Component Sizing Information, ZoneHVAC:IdealLoadsAirSystem, ZONE HVAC IDEAL LOADS AIR SYSTEM 4, User-Specified Maximum Cooling Air Flow Rate [m3/s], 0.00000
 Component Sizing Information, ZoneHVAC:IdealLoadsAirSystem, ZONE HVAC IDEAL LOADS AIR SYSTEM 5, User-Specified Maximum Heating Air Flow Rate [m3/s], 0.00000
 Component Sizing Information, ZoneHVAC:IdealLoadsAirSystem, ZONE HVAC IDEAL LOADS AIR SYSTEM 5, User-Specified Maximum Cooling Air Flow Rate [m3/s], 0.00000
 Component Sizing Information, ZoneHVAC:IdealLoadsAirSystem, ZONE HVAC IDEAL LOADS AIR SYSTEM 6, User-Specified Maximum Heating Air Flow Rate [m3/s], 0.00000
 Component Sizing Information, ZoneHVAC:IdealLoadsAirSystem, ZONE HVAC IDEAL LOADS AIR SYSTEM 6, User-Specified Maximum Cooling Air Flow Rate [m3/s], 0.00000
 Component Sizing Information, ZoneHVAC:IdealLoadsAirSystem, ZONE HVAC IDEAL LOADS AIR SYSTEM 7, User-Specified Maximum Heating Air Flow Rate [m3/s], 0.00000
 Component Sizing Information, ZoneHVAC:IdealLoadsAirSystem, ZONE HVAC IDEAL LOADS AIR SYSTEM 7, User-Specified Maximum Cooling Air Flow Rate [m3/s], 0.00000
 Component Sizing Information, ZoneHVAC:IdealLoadsAirSystem, ZONE HVAC IDEAL LOADS AIR SYSTEM 8, User-Specified Maximum Heating Air Flow Rate [m3/s], 0.00000
 Component Sizing Information, ZoneHVAC:IdealLoadsAirSystem, ZONE HVAC IDEAL LOADS AIR SYSTEM 8, User-Specified Maximum Cooling Air Flow Rate [m3/s], 0.00000
 Component Sizing Information, ZoneHVAC:IdealLoadsAirSystem, ZONE HVAC IDEAL LOADS AIR SYSTEM 9, User-Specified Maximum Heating Air Flow Rate [m3/s], 0.00000
 Component Sizing Information, ZoneHVAC:IdealLoadsAirSystem, ZONE HVAC IDEAL LOADS AIR SYSTEM 9, User-Specified Maximum Cooling Air Flow Rate [m3/s], 0.00000
 Component Sizing Information, ZoneHVAC:IdealLoadsAirSystem, ZONE HVAC IDEAL LOADS AIR SYSTEM 10, User-Specified Maximum Heating Air Flow Rate [m3/s], 0.00000
 Component Sizing Information, ZoneHVAC:IdealLoadsAirSystem, ZONE HVAC IDEAL LOADS AIR SYSTEM 10, User-Specified Maximum Cooling Air Flow Rate [m3/s], 0.00000
 Component Sizing Information, ZoneHVAC:IdealLoadsAirSystem, ZONE HVAC IDEAL LOADS AIR SYSTEM 11, User-Specified Maximum Heating Air Flow Rate [m3/s], 0.00000
 Component Sizing Information, ZoneHVAC:IdealLoadsAirSystem, ZONE HVAC IDEAL LOADS AIR SYSTEM 11, User-Specified Maximum Cooling Air Flow Rate [m3/s], 0.00000
 Component Sizing Information, ZoneHVAC:IdealLoadsAirSystem, ZONE HVAC IDEAL LOADS AIR SYSTEM 12, User-Specified Maximum Heating Air Flow Rate [m3/s], 0.00000
 Component Sizing Information, ZoneHVAC:IdealLoadsAirSystem, ZONE HVAC IDEAL LOADS AIR SYSTEM 12, User-Specified Maximum Cooling Air Flow Rate [m3/s], 0.00000
 Component Sizing Information, ZoneHVAC:IdealLoadsAirSystem, ZONE HVAC IDEAL LOADS AIR SYSTEM 13, User-Specified Maximum Heating Air Flow Rate [m3/s], 0.00000
 Component Sizing Information, ZoneHVAC:IdealLoadsAirSystem, ZONE HVAC IDEAL LOADS AIR SYSTEM 13, User-Specified Maximum Cooling Air Flow Rate [m3/s], 0.00000
 Component Sizing Information, ZoneHVAC:IdealLoadsAirSystem, ZONE HVAC IDEAL LOADS AIR SYSTEM 14, User-Specified Maximum Heating Air Flow Rate [m3/s], 0.00000
 Component Sizing Information, ZoneHVAC:IdealLoadsAirSystem, ZONE HVAC IDEAL LOADS AIR SYSTEM 14, User-Specified Maximum Cooling Air Flow Rate [m3/s], 0.00000
 Component Sizing Information, ZoneHVAC:IdealLoadsAirSystem, ZONE HVAC IDEAL LOADS AIR SYSTEM 15, User-Specified Maximum Heating Air Flow Rate [m3/s], 0.00000
 Component Sizing Information, ZoneHVAC:IdealLoadsAirSystem, ZONE HVAC IDEAL LOADS AIR SYSTEM 15, User-Specified Maximum Cooling Air Flow Rate [m3/s], 0.00000
 Component Sizing Information, ZoneHVAC:IdealLoadsAirSystem, ZONE HVAC IDEAL LOADS AIR SYSTEM 16, User-Specified Maximum Heating Air Flow Rate [m3/s], 0.00000
 Component Sizing Information, ZoneHVAC:IdealLoadsAirSystem, ZONE HVAC IDEAL LOADS AIR SYSTEM 16, User-Specified Maximum Cooling Air Flow Rate [m3/s], 0.00000
 Component Sizing Information, ZoneHVAC:IdealLoadsAirSystem, ZONE HVAC IDEAL LOADS AIR SYSTEM 17, User-Specified Maximum Heating Air Flow Rate [m3/s], 0.00000
 Component Sizing Information, ZoneHVAC:IdealLoadsAirSystem, ZONE HVAC IDEAL LOADS AIR SYSTEM 17, User-Specified Maximum Cooling Air Flow Rate [m3/s], 0.00000
 Component Sizing Information, ZoneHVAC:IdealLoadsAirSystem, ZONE HVAC IDEAL LOADS AIR SYSTEM 18, User-Specified Maximum Heating Air Flow Rate [m3/s], 0.00000
 Component Sizing Information, ZoneHVAC:IdealLoadsAirSystem, ZONE HVAC IDEAL LOADS AIR SYSTEM 18, User-Specified Maximum Cooling Air Flow Rate [m3/s], 0.00000
 Component Sizing Information, ZoneHVAC:IdealLoadsAirSystem, ZONE HVAC IDEAL LOADS AIR SYSTEM 19, User-Specified Maximum Heating Air Flow Rate [m3/s], 0.00000
 Component Sizing Information, ZoneHVAC:IdealLoadsAirSystem, ZONE HVAC IDEAL LOADS AIR SYSTEM 19, User-Specified Maximum Cooling Air Flow Rate [m3/s], 0.00000
 Component Sizing Information, ZoneHVAC:IdealLoadsAirSystem, ZONE HVAC IDEAL LOADS AIR SYSTEM 20, User-Specified Maximum Heating Air Flow Rate [m3/s], 0.00000
 Component Sizing Information, ZoneHVAC:IdealLoadsAirSystem, ZONE HVAC IDEAL LOADS AIR SYSTEM 20, User-Specified Maximum Cooling Air Flow Rate [m3/s], 0.00000
! <Environment>,Environment Name,Environment Type, Start Date, End Date, Start DayOfWeek, Duration {#days}, Source:Start DayOfWeek,  Use Daylight Saving, Use Holidays, Apply Weekend Holiday Rule,  Use Rain Values, Use Snow Values
! <Environment:Special Days>, Special Day Name, Special Day Type, Source, Start Date, Duration {#days}
! <Environment:Daylight Saving>, Daylight Saving Indicator, Source, Start Date, End Date
! <Environment:WarmupDays>, NumberofWarmupDays
Environment,FORT MCMURRAY AP ANN CLG .4% CONDNS DB=>MWB,SizingPeriod:DesignDay,07/21,07/21,SummerDesignDay,1,N/A,N/A,N/A,N/A,N/A,N/A
Environment:Daylight Saving,No,SizingPeriod:DesignDay
! <Environment:Design Day Data>, Max Dry-Bulb Temp {C}, Temp Range {dC}, Temp Range Ind Type, Hum Ind Value at Max Temp, Hum Ind Type,Pressure {Pa}, Wind Direction {deg CW from N}, Wind Speed {m/s}, Clearness, Rain, Snow
! <Environment:Design Day Misc>,DayOfYear,ASHRAE A Coeff,ASHRAE B Coeff,ASHRAE C Coeff,Solar Constant-Annual Variation,Eq of Time {minutes}, Solar Declination Angle {deg}, Solar Model
Environment:Design Day Data,28.90,12.40,DefaultMultipliers,96969,250,3.7,0.00,No,No
Environment:Design Day Misc,202,1084.4,0.2082,0.1365,1.0,-6.23,20.6,ASHRAETau
Environment:WarmupDays,  6
! <Tabular Report>,Style,Unit Conversion
Tabular Report,HTML,None
! <Warmup Convergence Information>,Zone Name,Environment Type/Name,Average Warmup Temperature Difference {deltaC},Std Dev Warmup Temperature Difference {deltaC},Max Temperature Pass/Fail Convergence,Min Temperature Pass/Fail Convergence,Average Warmup Load Difference {W},Std Dev Warmup Load Difference {W},Heating Load Pass/Fail Convergence,Cooling Load Pass/Fail Convergence
 Warmup Convergence Information,HOSPITAL - MEDICAL SUPPLY - OCCSENS-SPACE FUNCTION ZN,SizingPeriod: FORT MCMURRAY AP ANN CLG .4% CONDNS DB=>MWB,5.0639080753E-003,1.3557926647E-002,Pass,Pass,1.4679244539E-002,1.2727065009E-002,Pass,Pass
 Warmup Convergence Information,HOSPITAL - NURSERY-SPACE FUNCTION ZN,SizingPeriod: FORT MCMURRAY AP ANN CLG .4% CONDNS DB=>MWB,7.0782885726E-014,5.9062313896E-014,Pass,Pass,1.6793413011E-002,1.0192782135E-002,Pass,Pass
 Warmup Convergence Information,HOSPITAL - NURSES STATION-SPACE FUNCTION ZN,SizingPeriod: FORT MCMURRAY AP ANN CLG .4% CONDNS DB=>MWB,6.4329502006E-003,1.6258257487E-002,Pass,Pass,1.5869765725E-002,1.1669220807E-002,Pass,Pass
 Warmup Convergence Information,HOSPITAL - OPERATING ROOM-SPACE FUNCTION ZN,SizingPeriod: FORT MCMURRAY AP ANN CLG .4% CONDNS DB=>MWB,2.5321644593E-002,4.9026099256E-002,Pass,Pass,1.1294120820E-002,1.0955535650E-002,Pass,Pass
 Warmup Convergence Information,HOSPITAL - PATIENT ROOM-SPACE FUNCTION ZN,SizingPeriod: FORT MCMURRAY AP ANN CLG .4% CONDNS DB=>MWB,5.8595104077E-014,4.1268177019E-014,Pass,Pass,2.0557308368E-003,8.7968517254E-004,Pass,Pass
 Warmup Convergence Information,HOSPITAL - PHARMACY-SPACE FUNCTION ZN,SizingPeriod: FORT MCMURRAY AP ANN CLG .4% CONDNS DB=>MWB,5.2772610437E-002,7.4345123380E-002,Pass,Pass,2.5428872143E-002,5.3509418578E-002,Pass,Pass
 Warmup Convergence Information,HOSPITAL - PHYSICAL THERAPY-SPACE FUNCTION ZN,SizingPeriod: FORT MCMURRAY AP ANN CLG .4% CONDNS DB=>MWB,3.8022290316E-002,5.2897816549E-002,Pass,Pass,2.3711795675E-002,9.1281983690E-002,Pass,Pass
 Warmup Convergence Information,HOSPITAL - RADIOLOGY/IMAGING-SPACE FUNCTION ZN,SizingPeriod: FORT MCMURRAY AP ANN CLG .4% CONDNS DB=>MWB,5.8989850042E-014,4.8335222600E-014,Pass,Pass,3.2666091250E-003,2.0199459372E-003,Pass,Pass
 Warmup Convergence Information,HOSPITAL - RECOVERY-SPACE FUNCTION ZN,SizingPeriod: FORT MCMURRAY AP ANN CLG .4% CONDNS DB=>MWB,3.4246300896E-002,5.4218162122E-002,Pass,Pass,1.0107007671E-002,2.1134320646E-002,Pass,Pass
 Warmup Convergence Information,HOTEL/MOTEL - DINING-SPACE FUNCTION ZN,SizingPeriod: FORT MCMURRAY AP ANN CLG .4% CONDNS DB=>MWB,5.5529618921E-002,9.3430861219E-002,Pass,Pass,4.3395046638E-002,8.2219204808E-002,Pass,Pass
 Warmup Convergence Information,HOTEL/MOTEL - LOBBY-SPACE FUNCTION ZN,SizingPeriod: FORT MCMURRAY AP ANN CLG .4% CONDNS DB=>MWB,7.1671064145E-014,5.6332781695E-014,Pass,Pass,6.7506841700E-003,5.2037252880E-003,Pass,Pass
 Warmup Convergence Information,HOTEL/MOTEL - ROOMS-SPACE FUNCTION ZN,SizingPeriod: FORT MCMURRAY AP ANN CLG .4% CONDNS DB=>MWB,2.7829590484E-014,2.3754967920E-014,Pass,Pass,1.4020198090E-002,3.1776916046E-002,Pass,Pass
 Warmup Convergence Information,HWAY LODGING - DINING-SPACE FUNCTION ZN,SizingPeriod: FORT MCMURRAY AP ANN CLG .4% CONDNS DB=>MWB,5.6264426675E-002,9.5931499698E-002,Pass,Pass,5.0184722077E-002,9.5196542567E-002,Pass,Pass
 Warmup Convergence Information,HWAY LODGING - ROOMS-SPACE FUNCTION ZN,SizingPeriod: FORT MCMURRAY AP ANN CLG .4% CONDNS DB=>MWB,3.6686703058E-014,2.7728083295E-014,Pass,Pass,1.4956718424E-002,1.8473778113E-002,Pass,Pass
 Warmup Convergence Information,LAB - CLASSROOMS-SPACE FUNCTION ZN,SizingPeriod: FORT MCMURRAY AP ANN CLG .4% CONDNS DB=>MWB,4.2111911467E-002,7.5618182813E-002,Pass,Pass,3.1549336063E-002,0.1034263209,Pass,Pass
 Warmup Convergence Information,LAB - RESEARCH-SPACE FUNCTION ZN,SizingPeriod: FORT MCMURRAY AP ANN CLG .4% CONDNS DB=>MWB,4.4263847655E-002,0.1186000915,Pass,Pass,3.2241837321E-002,7.9447126240E-002,Pass,Pass
 Warmup Convergence Information,LIBRARY - CATALOGING-SPACE FUNCTION ZN,SizingPeriod: FORT MCMURRAY AP ANN CLG .4% CONDNS DB=>MWB,1.8685819845E-002,3.6430069740E-002,Pass,Pass,3.5501643376E-002,0.1580352005,Pass,Pass
 Warmup Convergence Information,LIBRARY - READING-SPACE FUNCTION ZN,SizingPeriod: FORT MCMURRAY AP ANN CLG .4% CONDNS DB=>MWB,2.1100580180E-002,6.6605047439E-002,Pass,Pass,3.7955018652E-002,0.2248529240,Pass,Pass
 Warmup Convergence Information,LIBRARY - STACKS-SPACE FUNCTION ZN,SizingPeriod: FORT MCMURRAY AP ANN CLG .4% CONDNS DB=>MWB,2.7298841491E-002,5.6815720003E-002,Pass,Pass,3.7134835529E-002,0.2349156462,Pass,Pass
 Warmup Convergence Information,LOBBY - ELEVATOR-SPACE FUNCTION ZN,SizingPeriod: FORT MCMURRAY AP ANN CLG .4% CONDNS DB=>MWB,5.4185738184E-002,8.8675847073E-002,Pass,Pass,3.1039101118E-002,5.2033160604E-002,Pass,Pass
Environment,FORT MCMURRAY AP ANN HTG 99.6% CONDNS DB,SizingPeriod:DesignDay,01/21,01/21,WinterDesignDay,1,N/A,N/A,N/A,N/A,N/A,N/A
Environment:Daylight Saving,No,SizingPeriod:DesignDay
Environment:Design Day Data,-36.20,0.00,DefaultMultipliers,96969,90,1.0,0.00,No,No
Environment:Design Day Misc, 21,1229.0,0.1415,5.7310E-002,1.0,-11.15,-20.1,ASHRAEClearSky
Environment:WarmupDays,  6
 Warmup Convergence Information,HOSPITAL - MEDICAL SUPPLY - OCCSENS-SPACE FUNCTION ZN,SizingPeriod: FORT MCMURRAY AP ANN HTG 99.6% CONDNS DB,5.5555555556E-002,0.3665395084,Pass,Pass,0.3316770499,2.3275822922,Pass,Pass
 Warmup Convergence Information,HOSPITAL - NURSERY-SPACE FUNCTION ZN,SizingPeriod: FORT MCMURRAY AP ANN HTG 99.6% CONDNS DB,5.5555555556E-002,0.3669422100,Pass,Pass,6.4746086647E-002,0.1883327102,Pass,Pass
 Warmup Convergence Information,HOSPITAL - NURSES STATION-SPACE FUNCTION ZN,SizingPeriod: FORT MCMURRAY AP ANN HTG 99.6% CONDNS DB,5.5555555556E-002,0.3679980753,Pass,Pass,0.1613972698,0.5918066743,Pass,Pass
 Warmup Convergence Information,HOSPITAL - OPERATING ROOM-SPACE FUNCTION ZN,SizingPeriod: FORT MCMURRAY AP ANN HTG 99.6% CONDNS DB,5.5555555556E-002,0.3904691219,Pass,Pass,4.0042847175,42.5751718302,Pass,Pass
 Warmup Convergence Information,HOSPITAL - PATIENT ROOM-SPACE FUNCTION ZN,SizingPeriod: FORT MCMURRAY AP ANN HTG 99.6% CONDNS DB,5.5719584858E-002,0.3631412217,Pass,Pass,9.5940534614E-002,0.5110935216,Pass,Pass
 Warmup Convergence Information,HOSPITAL - PHARMACY-SPACE FUNCTION ZN,SizingPeriod: FORT MCMURRAY AP ANN HTG 99.6% CONDNS DB,5.5555555556E-002,0.3798036482,Pass,Pass,7.4790922229E-002,0.2341131818,Pass,Pass
 Warmup Convergence Information,HOSPITAL - PHYSICAL THERAPY-SPACE FUNCTION ZN,SizingPeriod: FORT MCMURRAY AP ANN HTG 99.6% CONDNS DB,5.5555555556E-002,0.3779932191,Pass,Pass,0.2940400169,0.9795643292,Pass,Pass
 Warmup Convergence Information,HOSPITAL - RADIOLOGY/IMAGING-SPACE FUNCTION ZN,SizingPeriod: FORT MCMURRAY AP ANN HTG 99.6% CONDNS DB,5.5555555556E-002,0.3762843734,Pass,Pass,0.6117708432,6.2906384048,Pass,Pass
 Warmup Convergence Information,HOSPITAL - RECOVERY-SPACE FUNCTION ZN,SizingPeriod: FORT MCMURRAY AP ANN HTG 99.6% CONDNS DB,5.5555555556E-002,0.3900271476,Pass,Pass,6.5599622745E-002,0.3102393670,Pass,Pass
 Warmup Convergence Information,HOTEL/MOTEL - DINING-SPACE FUNCTION ZN,SizingPeriod: FORT MCMURRAY AP ANN HTG 99.6% CONDNS DB,5.5555555556E-002,0.3877480758,Pass,Pass,0.3314876151,1.3849022021,Pass,Pass
 Warmup Convergence Information,HOTEL/MOTEL - LOBBY-SPACE FUNCTION ZN,SizingPeriod: FORT MCMURRAY AP ANN HTG 99.6% CONDNS DB,5.5722757467E-002,0.3633619849,Pass,Pass,0.2382716081,1.7418987124,Pass,Pass
 Warmup Convergence Information,HOTEL/MOTEL - ROOMS-SPACE FUNCTION ZN,SizingPeriod: FORT MCMURRAY AP ANN HTG 99.6% CONDNS DB,6.0116468658E-002,0.3192700289,Pass,Pass,0.4620469953,3.4842239588,Pass,Pass
 Warmup Convergence Information,HWAY LODGING - DINING-SPACE FUNCTION ZN,SizingPeriod: FORT MCMURRAY AP ANN HTG 99.6% CONDNS DB,5.5555555556E-002,0.3877300206,Pass,Pass,0.3005790001,1.3452006368,Pass,Pass
 Warmup Convergence Information,HWAY LODGING - ROOMS-SPACE FUNCTION ZN,SizingPeriod: FORT MCMURRAY AP ANN HTG 99.6% CONDNS DB,5.8786034232E-002,0.3312350704,Pass,Pass,0.4368326338,3.3969667794,Pass,Pass
 Warmup Convergence Information,LAB - CLASSROOMS-SPACE FUNCTION ZN,SizingPeriod: FORT MCMURRAY AP ANN HTG 99.6% CONDNS DB,5.5555555556E-002,0.3757970554,Pass,Pass,0.2475271551,1.1893090820,Pass,Pass
 Warmup Convergence Information,LAB - RESEARCH-SPACE FUNCTION ZN,SizingPeriod: FORT MCMURRAY AP ANN HTG 99.6% CONDNS DB,5.5555555556E-002,0.3756339029,Pass,Pass,0.4424752284,2.8722469999,Pass,Pass
 Warmup Convergence Information,LIBRARY - CATALOGING-SPACE FUNCTION ZN,SizingPeriod: FORT MCMURRAY AP ANN HTG 99.6% CONDNS DB,5.6728901726E-002,0.3491023452,Pass,Pass,0.3142500834,1.7861419979,Pass,Pass
 Warmup Convergence Information,LIBRARY - READING-SPACE FUNCTION ZN,SizingPeriod: FORT MCMURRAY AP ANN HTG 99.6% CONDNS DB,5.6759154282E-002,0.3484069817,Pass,Pass,0.2837420321,0.9063668285,Pass,Pass
 Warmup Convergence Information,LIBRARY - STACKS-SPACE FUNCTION ZN,SizingPeriod: FORT MCMURRAY AP ANN HTG 99.6% CONDNS DB,5.6734387566E-002,0.3484827638,Pass,Pass,0.1337024131,0.3719304764,Pass,Pass
 Warmup Convergence Information,LOBBY - ELEVATOR-SPACE FUNCTION ZN,SizingPeriod: FORT MCMURRAY AP ANN HTG 99.6% CONDNS DB,5.5555555556E-002,0.3894690991,Pass,Pass,0.1951794585,0.5601099188,Pass,Pass
! <Program Control Information:Threads/Parallel Sims>, Threading Supported,Maximum Number of Threads, Env Set Threads (OMP_NUM_THREADS), EP Env Set Threads (EP_OMP_NUM_THREADS), IDF Set Threads, Number of Threads Used (Interior Radiant Exchange), Number Nominal Surfaces, Number Parallel Sims
Program Control:Threads/Parallel Sims, No,1, N/A, N/A, N/A, N/A, N/A, N/A
End of Data
