Program Version,EnergyPlus, Version 8.9.0-eba93e8e1b, YMD=2019.03.19 18:36
! <Version>, Version ID
 Version, 8.9
! <Timesteps per Hour>, #TimeSteps, Minutes per TimeStep {minutes}
 Timesteps per Hour,  6, 10
! <System Convergence Limits>, Minimum System TimeStep {minutes}, Max HVAC Iterations, Minimum Plant Iterations, Maximum Plant Iterations
 System Convergence Limits, 1, 20, 2, 8
! <Simulation Control>, Do Zone Sizing, Do System Sizing, Do Plant Sizing, Do Design Days, Do Weather Simulation, Do HVAC Sizing Simulation
 Simulation Control, Yes, Yes, Yes, No, Yes, No
! <Output Reporting Tolerances>, Tolerance for Time Heating Setpoint Not Met, Tolerance for Zone Cooling Setpoint Not Met Time
 Output Reporting Tolerances, 1.000, 1.000, 
! <Site:GroundTemperature:BuildingSurface>,Jan{C},Feb{C},Mar{C},Apr{C},May{C},Jun{C},Jul{C},Aug{C},Sep{C},Oct{C},Nov{C},Dec{C}
 Site:GroundTemperature:BuildingSurface,  19.53,  19.50,  19.54,  19.60,  20.00,  21.64,  22.23,  22.38,  21.45,  20.12,  19.80,  19.63
! <Site:GroundTemperature:FCfactorMethod>,Jan{C},Feb{C},Mar{C},Apr{C},May{C},Jun{C},Jul{C},Aug{C},Sep{C},Oct{C},Nov{C},Dec{C}
 Site:GroundTemperature:FCfactorMethod, -12.27, -13.66, -11.19,  -7.33,   2.77,  10.57,  15.83,  17.43,  14.70,   8.65,   0.56,  -6.95
! <Site:GroundTemperature:Shallow>,Jan{C},Feb{C},Mar{C},Apr{C},May{C},Jun{C},Jul{C},Aug{C},Sep{C},Oct{C},Nov{C},Dec{C}
 Site:GroundTemperature:Shallow,  13.00,  13.00,  13.00,  13.00,  13.00,  13.00,  13.00,  13.00,  13.00,  13.00,  13.00,  13.00
! <Site:GroundTemperature:Deep>,Jan{C},Feb{C},Mar{C},Apr{C},May{C},Jun{C},Jul{C},Aug{C},Sep{C},Oct{C},Nov{C},Dec{C}
 Site:GroundTemperature:Deep,  16.00,  16.00,  16.00,  16.00,  16.00,  16.00,  16.00,  16.00,  16.00,  16.00,  16.00,  16.00
! <Site:GroundReflectance>,Jan{dimensionless},Feb{dimensionless},Mar{dimensionless},Apr{dimensionless},May{dimensionless},Jun{dimensionless},Jul{dimensionless},Aug{dimensionless},Sep{dimensionless},Oct{dimensionless},Nov{dimensionless},Dec{dimensionless}
 Site:GroundReflectance,  0.20,  0.20,  0.20,  0.20,  0.20,  0.20,  0.20,  0.20,  0.20,  0.20,  0.20,  0.20
! <Site:GroundReflectance:SnowModifier>, Normal, Daylighting {dimensionless}
 Site:GroundReflectance:SnowModifier,   1.000,   1.000
! <Site:GroundReflectance:Snow>,Jan{dimensionless},Feb{dimensionless},Mar{dimensionless},Apr{dimensionless},May{dimensionless},Jun{dimensionless},Jul{dimensionless},Aug{dimensionless},Sep{dimensionless},Oct{dimensionless},Nov{dimensionless},Dec{dimensionless}
 Site:GroundReflectance:Snow,  0.20,  0.20,  0.20,  0.20,  0.20,  0.20,  0.20,  0.20,  0.20,  0.20,  0.20,  0.20
! <Site:GroundReflectance:Snow:Daylighting>,Jan{dimensionless},Feb{dimensionless},Mar{dimensionless},Apr{dimensionless},May{dimensionless},Jun{dimensionless},Jul{dimensionless},Aug{dimensionless},Sep{dimensionless},Oct{dimensionless},Nov{dimensionless},Dec{dimensionless}
 Site:GroundReflectance:Snow:Daylighting,  0.20,  0.20,  0.20,  0.20,  0.20,  0.20,  0.20,  0.20,  0.20,  0.20,  0.20,  0.20
! <Environment:Weather Station>,Wind Sensor Height Above Ground {m},Wind Speed Profile Exponent {},Wind Speed Profile Boundary Layer Thickness {m},Air Temperature Sensor Height Above Ground {m},Wind Speed Modifier Coefficient-Internal,Temperature Modifier Coefficient-Internal
Environment:Weather Station,10.000,0.140,270.000,1.500,1.586,9.750E-003
! <Site:Location>, Location Name, Latitude {N+/S- Deg}, Longitude {E+/W- Deg},  Time Zone Number {GMT+/-}, Elevation {m},  Standard Pressure at Elevation {Pa}, Standard RhoAir at Elevation
Site:Location,Fort McMurray AP AB CAN CWEC2016 WMO#=716890,56.65,-111.22,-7.00,369.10,96969,1.1525
! <Building Information>, Building Name,North Axis {deg},Terrain,  Loads Convergence Tolerance Value,Temperature Convergence Tolerance Value,  Solar Distribution,Maximum Number of Warmup Days,Minimum Number of Warmup Days
 Building Information,Building 1,0.000,Suburbs,4.00000E-002,0.40000,FullExterior,25,6
! <Inside Convection Algorithm>, Algorithm {Simple | TARP | CeilingDiffuser | AdaptiveConvectionAlgorithm}
Inside Convection Algorithm,TARP
! <Outside Convection Algorithm>, Algorithm {SimpleCombined | TARP | MoWitt | DOE-2 | AdaptiveConvectionAlgorithm}
Outside Convection Algorithm,TARP
! <Sky Radiance Distribution>, Value {Anisotropic}
Sky Radiance Distribution,Anisotropic
! <Zone Air Solution Algorithm>, Value {ThirdOrderBackwardDifference | AnalyticalSolution | EulerMethod}
 Zone Air Solution Algorithm, ThirdOrderBackwardDifference
! <Zone Air Carbon Dioxide Balance Simulation>, Simulation {Yes/No}, Carbon Dioxide Concentration
 Zone Air Carbon Dioxide Balance Simulation, No,N/A
! <Zone Air Generic Contaminant Balance Simulation>, Simulation {Yes/No}, Generic Contaminant Concentration
 Zone Air Generic Contaminant Balance Simulation, No,N/A
! <Zone Air Mass Flow Balance Simulation>, Enforce Mass Balance, Adjust Zone Mixing, Adjust Zone Infiltration {AddInfiltration | AdjustInfiltration | None}, Infiltration Zones {MixingSourceZonesOnly | AllZones}
 Zone Air Mass Flow Balance Simulation, No,N/A,N/A,N/A
! <HVACSystemRootFindingAlgorithm>, Value {RegulaFalsi | Bisection | BisectionThenRegulaFalsi | RegulaFalsiThenBisection}
 HVACSystemRootFindingAlgorithm, RegulaFalsi
! <Environment:Site Atmospheric Variation>,Wind Speed Profile Exponent {},Wind Speed Profile Boundary Layer Thickness {m},Air Temperature Gradient Coefficient {K/m}
Environment:Site Atmospheric Variation,0.220,370.000,6.500000E-003
! <Surface Geometry>,Starting Corner,Vertex Input Direction,Coordinate System,Daylight Reference Point Coordinate System,Rectangular (Simple) Surface Coordinate System
 Surface Geometry,UpperLeftCorner,Counterclockwise,RelativeCoordinateSystem,RelativeCoordinateSystem,RelativeToZoneOrigin
! <Surface Heat Transfer Algorithm>, Value {CTF - ConductionTransferFunction | EMPD - MoisturePenetrationDepthConductionTransferFunction | CondFD - ConductionFiniteDifference | HAMT - CombinedHeatAndMoistureFiniteElement} - Description,Inside Surface Max Temperature Limit{C}, Surface Convection Coefficient Lower Limit {W/m2-K}, Surface Convection Coefficient Upper Limit {W/m2-K}
Surface Heat Transfer Algorithm, CTF - ConductionTransferFunction,200,0.10,1000.0
! <Shading Summary>, Number of Fixed Detached Shades, Number of Building Detached Shades, Number of Attached Shades
 Shading Summary,0,0,0
! <Zone Summary>, Number of Zones, Number of Zone Surfaces, Number of SubSurfaces
 Zone Summary,20,137,17
! <Zone Information>,Zone Name,North Axis {deg},Origin X-Coordinate {m},Origin Y-Coordinate {m},Origin Z-Coordinate {m},Centroid X-Coordinate {m},Centroid Y-Coordinate {m},Centroid Z-Coordinate {m},Type,Zone Multiplier,Zone List Multiplier,Minimum X {m},Maximum X {m},Minimum Y {m},Maximum Y {m},Minimum Z {m},Maximum Z {m},Ceiling Height {m},Volume {m3},Zone Inside Convection Algorithm {Simple-Detailed-CeilingDiffuser-TrombeWall},Zone Outside Convection Algorithm {Simple-Detailed-Tarp-MoWitt-DOE-2-BLAST}, Floor Area {m2},Exterior Gross Wall Area {m2},Exterior Net Wall Area {m2},Exterior Window Area {m2}, Number of Surfaces, Number of SubSurfaces, Number of Shading SubSurfaces,  Part of Total Building Area
 Zone Information, ALL_ST=WHOLEBUILDING_FL=STORY 1_SCH=A,0.0,25.00,25.00,0.00,50.00,50.00,1.90,1,1,1,25.00,75.00,25.00,75.00,0.00,3.80,3.80,9500.00,TARP,TARP,2500.00,0.00,0.00,0.00,6,0,0,Yes
 Zone Information, ALL_ST=WHOLEBUILDING_FL=STORY 1_SCH=A 1,0.0,0.00,0.00,0.00,50.00,10.85,1.90,1,1,1,0.00,100.00,0.00,25.00,0.00,3.80,3.80,7125.00,TARP,TARP,1875.00,0.00,0.00,0.00,6,0,0,Yes
 Zone Information, ALL_ST=WHOLEBUILDING_FL=STORY 1_SCH=B,0.0,25.00,75.00,0.00,50.00,89.15,1.90,1,1,1,0.00,100.00,75.00,100.00,0.00,3.80,3.80,7125.00,TARP,TARP,1875.00,0.00,0.00,0.00,6,0,0,Yes
 Zone Information, ALL_ST=WHOLEBUILDING_FL=STORY 2_SCH=A,0.0,0.00,0.00,3.80,50.00,10.85,5.70,1,1,1,0.00,100.00,0.00,25.00,3.80,7.60,3.80,7125.00,TARP,TARP,1875.00,380.00,285.00,95.00,6,1,0,Yes
 Zone Information, ALL_ST=WHOLEBUILDING_FL=STORY 2_SCH=C,0.0,25.00,25.00,3.80,50.00,50.00,5.70,1,1,1,25.00,75.00,25.00,75.00,3.80,7.60,3.80,9500.00,TARP,TARP,2500.00,0.00,0.00,0.00,6,0,0,Yes
 Zone Information, ALL_ST=WHOLEBUILDING_FL=STORY 2_SCH=C 1,0.0,0.00,0.00,3.80,10.85,50.00,5.70,1,1,1,0.00,25.00,0.00,100.00,3.80,7.60,3.80,7125.00,TARP,TARP,1875.00,380.00,285.00,95.00,6,1,0,Yes
 Zone Information, ALL_ST=WHOLEBUILDING_FL=STORY 2_SCH=C 2,0.0,25.00,75.00,3.80,50.00,89.15,5.70,1,1,1,0.00,100.00,75.00,100.00,3.80,7.60,3.80,7125.00,TARP,TARP,1875.00,380.00,285.00,95.00,6,1,0,Yes
 Zone Information, ALL_ST=WHOLEBUILDING_FL=STORY 2_SCH=H,0.0,75.00,25.00,3.80,89.15,50.00,5.70,1,1,1,75.00,100.00,0.00,100.00,3.80,7.60,3.80,7125.00,TARP,TARP,1875.00,380.00,285.00,95.00,6,1,0,Yes
 Zone Information, ALL_ST=WHOLEBUILDING_FL=STORY 3_SCH=B,0.0,0.00,0.00,7.60,50.00,10.85,9.50,1,1,1,0.00,100.00,0.00,25.00,7.60,11.40,3.80,7125.00,TARP,TARP,1875.00,380.00,285.00,95.00,6,1,0,Yes
 Zone Information, ALL_ST=WHOLEBUILDING_FL=STORY 3_SCH=B 1,0.0,75.00,25.00,7.60,89.15,50.00,9.50,1,1,1,75.00,100.00,0.00,100.00,7.60,11.40,3.80,7125.00,TARP,TARP,1875.00,380.00,285.00,95.00,6,1,0,Yes
 Zone Information, ALL_ST=WHOLEBUILDING_FL=STORY 3_SCH=B 2,0.0,25.00,75.00,7.60,50.00,89.15,9.50,1,1,1,0.00,100.00,75.00,100.00,7.60,11.40,3.80,7125.00,TARP,TARP,1875.00,380.00,285.00,95.00,6,1,0,Yes
 Zone Information, ALL_ST=WHOLEBUILDING_FL=STORY 3_SCH=C,0.0,25.00,25.00,7.60,50.00,50.00,9.50,1,1,1,25.00,75.00,25.00,75.00,7.60,11.40,3.80,9500.00,TARP,TARP,2500.00,0.00,0.00,0.00,6,0,0,Yes
 Zone Information, ALL_ST=WHOLEBUILDING_FL=STORY 4_SCH=A,0.0,0.00,0.00,11.40,10.85,50.00,13.30,1,1,1,0.00,25.00,0.00,100.00,11.40,15.20,3.80,7125.00,TARP,TARP,1875.00,380.00,285.00,188.75,6,2,0,Yes
 Zone Information, ALL_ST=WHOLEBUILDING_FL=STORY 4_SCH=B,0.0,75.00,25.00,11.40,89.15,50.00,13.30,1,1,1,75.00,100.00,0.00,100.00,11.40,15.20,3.80,7125.00,TARP,TARP,1875.00,380.00,285.00,188.75,6,2,0,Yes
 Zone Information, ALL_ST=WHOLEBUILDING_FL=STORY 4_SCH=E,0.0,25.00,25.00,11.40,50.00,50.00,13.30,1,1,1,25.00,75.00,25.00,75.00,11.40,15.20,3.80,9500.00,TARP,TARP,2500.00,0.00,0.00,125.00,6,1,0,Yes
 Zone Information, ALL_ST=WHOLEBUILDING_FL=STORY 4_SCH=F,0.0,25.00,75.00,11.40,50.00,89.15,13.30,1,1,1,0.00,100.00,75.00,100.00,11.40,15.20,3.80,7125.00,TARP,TARP,1875.00,380.00,285.00,188.75,6,2,0,Yes
 Zone Information, DU_BT=DORMITORY_ST=WHOLEBUILDING_FL=STORY 1_SCHG,0.0,0.00,0.00,0.00,10.85,50.00,1.90,1,1,1,0.00,25.00,0.00,100.00,0.00,3.80,3.80,7125.00,TARP,TARP,1875.00,0.00,0.00,0.00,6,0,0,Yes
 Zone Information, DU_BT=HOTEL_ST=WHOLEBUILDING_FL=STORY 1_SCHF,0.0,75.00,25.00,0.00,89.15,50.00,1.90,1,1,1,75.00,100.00,0.00,100.00,0.00,3.80,3.80,7125.00,TARP,TARP,1875.00,0.00,0.00,0.00,6,0,0,Yes
 Zone Information, DU_BT=MOTEL_ST=WHOLEBUILDING_FL=STORY 4_SCHF,0.0,0.00,0.00,11.40,50.00,10.85,13.30,1,1,1,0.00,100.00,0.00,25.00,11.40,15.20,3.80,7125.00,TARP,TARP,1875.00,380.00,285.00,188.75,6,2,0,Yes
 Zone Information, DU_BT=MULTI-UNIT RESIDENTIAL_ST=WHOLEBUILDING_FL=STORY 3_SCHG,0.0,0.00,0.00,7.60,10.85,50.00,9.50,1,1,1,0.00,25.00,0.00,100.00,7.60,11.40,3.80,7125.00,TARP,TARP,1875.00,380.00,285.00,95.00,6,1,0,Yes
! <Zone Internal Gains Nominal>,Zone Name, Floor Area {m2},# Occupants,Area per Occupant {m2/person},Occupant per Area {person/m2},Interior Lighting {W/m2},Electric Load {W/m2},Gas Load {W/m2},Other Load {W/m2},Hot Water Eq {W/m2},Steam Equipment {W/m2},Sum Loads per Area {W/m2},Outdoor Controlled Baseboard Heat
 Zone Internal Gains Nominal, ALL_ST=WHOLEBUILDING_FL=STORY 1_SCH=A,2500.00,125.1,19.979,5.005E-002,9.400,7.500,0.000,0.000,0.000,0.000,16.900,No
 Zone Internal Gains Nominal, ALL_ST=WHOLEBUILDING_FL=STORY 1_SCH=A 1,1875.00,62.6,29.969,3.337E-002,11.900,10.000,0.000,0.000,0.000,0.000,21.900,No
 Zone Internal Gains Nominal, ALL_ST=WHOLEBUILDING_FL=STORY 1_SCH=B,1875.00,187.5,10.000,10.000E-002,10.800,1.000,0.000,0.000,0.000,0.000,11.800,No
 Zone Internal Gains Nominal, ALL_ST=WHOLEBUILDING_FL=STORY 2_SCH=A,1875.00,75.1,24.974,4.004E-002,9.700,7.500,0.000,0.000,0.000,0.000,17.200,No
 Zone Internal Gains Nominal, ALL_ST=WHOLEBUILDING_FL=STORY 2_SCH=C,2500.00,125.1,19.979,5.005E-002,12.700,2.500,0.000,0.000,0.000,0.000,15.200,No
 Zone Internal Gains Nominal, ALL_ST=WHOLEBUILDING_FL=STORY 2_SCH=C 1,1875.00,234.3,8.002,0.125,8.900,1.000,0.000,0.000,0.000,0.000,9.900,No
 Zone Internal Gains Nominal, ALL_ST=WHOLEBUILDING_FL=STORY 2_SCH=C 2,1875.00,93.8,19.979,5.005E-002,11.400,2.500,0.000,0.000,0.000,0.000,13.900,No
 Zone Internal Gains Nominal, ALL_ST=WHOLEBUILDING_FL=STORY 2_SCH=H,1875.00,93.8,19.979,5.005E-002,13.000,7.500,0.000,0.000,0.000,0.000,20.500,No
 Zone Internal Gains Nominal, ALL_ST=WHOLEBUILDING_FL=STORY 3_SCH=B,1875.00,187.5,10.000,10.000E-002,10.700,1.000,0.000,0.000,0.000,0.000,11.700,No
 Zone Internal Gains Nominal, ALL_ST=WHOLEBUILDING_FL=STORY 3_SCH=B 1,1875.00,187.5,10.000,10.000E-002,9.700,1.000,0.000,0.000,0.000,0.000,10.700,No
 Zone Internal Gains Nominal, ALL_ST=WHOLEBUILDING_FL=STORY 3_SCH=B 2,1875.00,187.5,10.000,10.000E-002,9.600,1.000,0.000,0.000,0.000,0.000,10.600,No
 Zone Internal Gains Nominal, ALL_ST=WHOLEBUILDING_FL=STORY 3_SCH=C,2500.00,312.4,8.002,0.125,11.600,2.500,0.000,0.000,0.000,0.000,14.100,No
 Zone Internal Gains Nominal, ALL_ST=WHOLEBUILDING_FL=STORY 4_SCH=A,1875.00,124.9,15.009,6.663E-002,11.300,5.000,0.000,0.000,0.000,0.000,16.300,No
 Zone Internal Gains Nominal, ALL_ST=WHOLEBUILDING_FL=STORY 4_SCH=B,1875.00,187.5,10.000,10.000E-002,9.500,1.000,0.000,0.000,0.000,0.000,10.500,No
 Zone Internal Gains Nominal, ALL_ST=WHOLEBUILDING_FL=STORY 4_SCH=E,2500.00,125.1,19.979,5.005E-002,8.800,5.000,0.000,0.000,0.000,0.000,13.800,No
 Zone Internal Gains Nominal, ALL_ST=WHOLEBUILDING_FL=STORY 4_SCH=F,1875.00,75.1,24.974,4.004E-002,7.600,2.500,0.000,0.000,0.000,0.000,10.100,No
 Zone Internal Gains Nominal, DU_BT=DORMITORY_ST=WHOLEBUILDING_FL=STORY 1_SCHG,1875.00,62.6,29.969,3.337E-002,6.600,2.500,0.000,0.000,0.000,0.000,9.100,No
 Zone Internal Gains Nominal, DU_BT=HOTEL_ST=WHOLEBUILDING_FL=STORY 1_SCHF,1875.00,75.1,24.974,4.004E-002,10.800,2.500,0.000,0.000,0.000,0.000,13.300,No
 Zone Internal Gains Nominal, DU_BT=MOTEL_ST=WHOLEBUILDING_FL=STORY 4_SCHF,1875.00,75.1,24.974,4.004E-002,9.500,2.500,0.000,0.000,0.000,0.000,12.000,No
 Zone Internal Gains Nominal, DU_BT=MULTI-UNIT RESIDENTIAL_ST=WHOLEBUILDING_FL=STORY 3_SCHG,1875.00,31.3,59.937,1.668E-002,6.500,5.000,0.000,0.000,0.000,0.000,11.500,No
! <People Internal Gains Nominal>,Name,Schedule Name,Zone Name,Zone Floor Area {m2},# Zone Occupants,Number of People {},People/Floor Area {person/m2},Floor Area per person {m2/person},Fraction Radiant,Fraction Convected,Sensible Fraction Calculation,Activity level,ASHRAE 55 Warnings,Carbon Dioxide Generation Rate,Nominal Minimum Number of People,Nominal Maximum Number of People
 People Internal Gains Nominal, ALL_ST=WHOLEBUILDING_FL=STORY 4_SCH=E AUTOMOTIVE FACILITY WHOLEBUILDING PEOPLE,NECB-E-OCCUPANCY,ALL_ST=WHOLEBUILDING_FL=STORY 4_SCH=E,2500.00,125.1,125.1,5.005E-002,19.979,0.300,0.700,AutoCalculate,NECB-ACTIVITY,No,3.8200E-008,0,113
 People Internal Gains Nominal, ALL_ST=WHOLEBUILDING_FL=STORY 3_SCH=C CONVENTION CENTRE WHOLEBUILDING PEOPLE,NECB-C-OCCUPANCY,ALL_ST=WHOLEBUILDING_FL=STORY 3_SCH=C,2500.00,312.4,312.4,0.125,8.002,0.300,0.700,AutoCalculate,NECB-ACTIVITY,No,3.8200E-008,0,281
 People Internal Gains Nominal, ALL_ST=WHOLEBUILDING_FL=STORY 4_SCH=A COURTHOUSE WHOLEBUILDING PEOPLE,NECB-A-OCCUPANCY,ALL_ST=WHOLEBUILDING_FL=STORY 4_SCH=A,1875.00,124.9,124.9,6.663E-002,15.009,0.300,0.700,AutoCalculate,NECB-ACTIVITY,No,3.8200E-008,0,112
 People Internal Gains Nominal, ALL_ST=WHOLEBUILDING_FL=STORY 3_SCH=B DINING - BAR/LOUNGE WHOLEBUILDING PEOPLE,NECB-B-OCCUPANCY,ALL_ST=WHOLEBUILDING_FL=STORY 3_SCH=B,1875.00,187.5,187.5,10.000E-002,10.000,0.300,0.700,AutoCalculate,NECB-ACTIVITY,No,3.8200E-008,0,169
 People Internal Gains Nominal, ALL_ST=WHOLEBUILDING_FL=STORY 3_SCH=B 1 DINING - CAFETERIA WHOLEBUILDING PEOPLE,NECB-B-OCCUPANCY,ALL_ST=WHOLEBUILDING_FL=STORY 3_SCH=B 1,1875.00,187.5,187.5,10.000E-002,10.000,0.300,0.700,AutoCalculate,NECB-ACTIVITY,No,3.8200E-008,0,169
 People Internal Gains Nominal, ALL_ST=WHOLEBUILDING_FL=STORY 3_SCH=B 2 DINING - FAMILY WHOLEBUILDING PEOPLE,NECB-B-OCCUPANCY,ALL_ST=WHOLEBUILDING_FL=STORY 3_SCH=B 2,1875.00,187.5,187.5,10.000E-002,10.000,0.300,0.700,AutoCalculate,NECB-ACTIVITY,No,3.8200E-008,0,169
 People Internal Gains Nominal, DU_BT=DORMITORY_ST=WHOLEBUILDING_FL=STORY 1_SCHG DORMITORY WHOLEBUILDING PEOPLE,NECB-G-OCCUPANCY,DU_BT=DORMITORY_ST=WHOLEBUILDING_FL=STORY 1_SCHG,1875.00,62.6,62.6,3.337E-002,29.969,0.300,0.700,AutoCalculate,NECB-ACTIVITY,No,3.8200E-008,19,56
 People Internal Gains Nominal, ALL_ST=WHOLEBUILDING_FL=STORY 4_SCH=B EXERCISE CENTRE WHOLEBUILDING PEOPLE,NECB-B-OCCUPANCY,ALL_ST=WHOLEBUILDING_FL=STORY 4_SCH=B,1875.00,187.5,187.5,10.000E-002,10.000,0.300,0.700,AutoCalculate,NECB-ACTIVITY,No,3.8200E-008,0,169
 People Internal Gains Nominal, ALL_ST=WHOLEBUILDING_FL=STORY 4_SCH=F FIRE STATION WHOLEBUILDING PEOPLE,NECB-F-OCCUPANCY,ALL_ST=WHOLEBUILDING_FL=STORY 4_SCH=F,1875.00,75.1,75.1,4.004E-002,24.974,0.300,0.700,AutoCalculate,NECB-ACTIVITY,No,3.8200E-008,15,68
 People Internal Gains Nominal, ALL_ST=WHOLEBUILDING_FL=STORY 1_SCH=B GYMNASIUM WHOLEBUILDING PEOPLE,NECB-B-OCCUPANCY,ALL_ST=WHOLEBUILDING_FL=STORY 1_SCH=B,1875.00,187.5,187.5,10.000E-002,10.000,0.300,0.700,AutoCalculate,NECB-ACTIVITY,No,3.8200E-008,0,169
 People Internal Gains Nominal, ALL_ST=WHOLEBUILDING_FL=STORY 1_SCH=A HEALTH-CARE CLINIC WHOLEBUILDING PEOPLE,NECB-A-OCCUPANCY,ALL_ST=WHOLEBUILDING_FL=STORY 1_SCH=A,2500.00,125.1,125.1,5.005E-002,19.979,0.300,0.700,AutoCalculate,NECB-ACTIVITY,No,3.8200E-008,0,113
 People Internal Gains Nominal, ALL_ST=WHOLEBUILDING_FL=STORY 2_SCH=H HOSPITAL WHOLEBUILDING PEOPLE,NECB-H-OCCUPANCY,ALL_ST=WHOLEBUILDING_FL=STORY 2_SCH=H,1875.00,93.8,93.8,5.005E-002,19.979,0.300,0.700,AutoCalculate,NECB-ACTIVITY,No,3.8200E-008,84,84
 People Internal Gains Nominal, DU_BT=HOTEL_ST=WHOLEBUILDING_FL=STORY 1_SCHF HOTEL WHOLEBUILDING PEOPLE,NECB-F-OCCUPANCY,DU_BT=HOTEL_ST=WHOLEBUILDING_FL=STORY 1_SCHF,1875.00,75.1,75.1,4.004E-002,24.974,0.300,0.700,AutoCalculate,NECB-ACTIVITY,No,3.8200E-008,15,68
 People Internal Gains Nominal, ALL_ST=WHOLEBUILDING_FL=STORY 2_SCH=C LIBRARY WHOLEBUILDING PEOPLE,NECB-C-OCCUPANCY,ALL_ST=WHOLEBUILDING_FL=STORY 2_SCH=C,2500.00,125.1,125.1,5.005E-002,19.979,0.300,0.700,AutoCalculate,NECB-ACTIVITY,No,3.8200E-008,0,113
 People Internal Gains Nominal, ALL_ST=WHOLEBUILDING_FL=STORY 1_SCH=A 1 MANUFACTURING FACILITY WHOLEBUILDING PEOPLE,NECB-A-OCCUPANCY,ALL_ST=WHOLEBUILDING_FL=STORY 1_SCH=A 1,1875.00,62.6,62.6,3.337E-002,29.969,0.300,0.700,AutoCalculate,NECB-ACTIVITY,No,3.8200E-008,0,56
 People Internal Gains Nominal, DU_BT=MOTEL_ST=WHOLEBUILDING_FL=STORY 4_SCHF MOTEL WHOLEBUILDING PEOPLE,NECB-F-OCCUPANCY,DU_BT=MOTEL_ST=WHOLEBUILDING_FL=STORY 4_SCHF,1875.00,75.1,75.1,4.004E-002,24.974,0.300,0.700,AutoCalculate,NECB-ACTIVITY,No,3.8200E-008,15,68
 People Internal Gains Nominal, ALL_ST=WHOLEBUILDING_FL=STORY 2_SCH=C 1 MOTION PICTURE THEATRE WHOLEBUILDING PEOPLE,NECB-C-OCCUPANCY,ALL_ST=WHOLEBUILDING_FL=STORY 2_SCH=C 1,1875.00,234.3,234.3,0.125,8.002,0.300,0.700,AutoCalculate,NECB-ACTIVITY,No,3.8200E-008,0,211
 People Internal Gains Nominal, DU_BT=MULTI-UNIT RESIDENTIAL_ST=WHOLEBUILDING_FL=STORY 3_SCHG MULTI-UNIT RESIDENTIAL WHOLEBUILDING PEOPLE,NECB-G-OCCUPANCY,DU_BT=MULTI-UNIT RESIDENTIAL_ST=WHOLEBUILDING_FL=STORY 3_SCHG,1875.00,31.3,31.3,1.668E-002,59.937,0.300,0.700,AutoCalculate,NECB-ACTIVITY,No,3.8200E-008,9,28
 People Internal Gains Nominal, ALL_ST=WHOLEBUILDING_FL=STORY 2_SCH=C 2 MUSEUM WHOLEBUILDING PEOPLE,NECB-C-OCCUPANCY,ALL_ST=WHOLEBUILDING_FL=STORY 2_SCH=C 2,1875.00,93.8,93.8,5.005E-002,19.979,0.300,0.700,AutoCalculate,NECB-ACTIVITY,No,3.8200E-008,0,84
 People Internal Gains Nominal, ALL_ST=WHOLEBUILDING_FL=STORY 2_SCH=A OFFICE WHOLEBUILDING PEOPLE,NECB-A-OCCUPANCY,ALL_ST=WHOLEBUILDING_FL=STORY 2_SCH=A,1875.00,75.1,75.1,4.004E-002,24.974,0.300,0.700,AutoCalculate,NECB-ACTIVITY,No,3.8200E-008,0,68
! <Lights Internal Gains Nominal>,Name,Schedule Name,Zone Name,Zone Floor Area {m2},# Zone Occupants,Lighting Level {W},Lights/Floor Area {W/m2},Lights per person {W/person},Fraction Return Air,Fraction Radiant,Fraction Short Wave,Fraction Convected,Fraction Replaceable,End-Use Category,Nominal Minimum Lighting Level {W},Nominal Maximum Lighting Level {W}
 Lights Internal Gains Nominal, ALL_ST=WHOLEBUILDING_FL=STORY 4_SCH=E AUTOMOTIVE FACILITY WHOLEBUILDING LIGHTS,NECB-E-LIGHTING,ALL_ST=WHOLEBUILDING_FL=STORY 4_SCH=E,2500.00,125.1,21999.817,8.800,175.815,0.000,0.500,0.200,0.300,1.000,General,1099.991,19799.835
 Lights Internal Gains Nominal, ALL_ST=WHOLEBUILDING_FL=STORY 3_SCH=C CONVENTION CENTRE WHOLEBUILDING LIGHTS,NECB-C-LIGHTING,ALL_ST=WHOLEBUILDING_FL=STORY 3_SCH=C,2500.00,312.4,28999.759,11.600,92.822,0.000,0.500,0.200,0.300,1.000,General,1449.988,26099.783
 Lights Internal Gains Nominal, ALL_ST=WHOLEBUILDING_FL=STORY 4_SCH=A COURTHOUSE WHOLEBUILDING LIGHTS,NECB-A-LIGHTING,ALL_ST=WHOLEBUILDING_FL=STORY 4_SCH=A,1875.00,124.9,21187.324,11.300,169.595,0.000,0.500,0.200,0.300,1.000,General,1059.366,19068.591
 Lights Internal Gains Nominal, ALL_ST=WHOLEBUILDING_FL=STORY 3_SCH=B DINING - BAR/LOUNGE WHOLEBUILDING LIGHTS,NECB-B-LIGHTING,ALL_ST=WHOLEBUILDING_FL=STORY 3_SCH=B,1875.00,187.5,20062.333,10.700,107.003,0.000,0.500,0.200,0.300,1.000,General,2006.233,18056.100
 Lights Internal Gains Nominal, ALL_ST=WHOLEBUILDING_FL=STORY 3_SCH=B 1 DINING - CAFETERIA WHOLEBUILDING LIGHTS,NECB-B-LIGHTING,ALL_ST=WHOLEBUILDING_FL=STORY 3_SCH=B 1,1875.00,187.5,18187.349,9.700,97.002,0.000,0.500,0.200,0.300,1.000,General,1818.735,16368.614
 Lights Internal Gains Nominal, ALL_ST=WHOLEBUILDING_FL=STORY 3_SCH=B 2 DINING - FAMILY WHOLEBUILDING LIGHTS,NECB-B-LIGHTING,ALL_ST=WHOLEBUILDING_FL=STORY 3_SCH=B 2,1875.00,187.5,17999.850,9.600,96.002,0.000,0.500,0.200,0.300,1.000,General,1799.985,16199.865
 Lights Internal Gains Nominal, DU_BT=DORMITORY_ST=WHOLEBUILDING_FL=STORY 1_SCHG DORMITORY WHOLEBUILDING LIGHTS,NECB-G-LIGHTING,DU_BT=DORMITORY_ST=WHOLEBUILDING_FL=STORY 1_SCHG,1875.00,62.6,12374.897,6.600,197.792,0.000,0.500,0.200,0.300,1.000,General,0.000,11137.407
 Lights Internal Gains Nominal, ALL_ST=WHOLEBUILDING_FL=STORY 4_SCH=B EXERCISE CENTRE WHOLEBUILDING LIGHTS,NECB-B-LIGHTING,ALL_ST=WHOLEBUILDING_FL=STORY 4_SCH=B,1875.00,187.5,17812.352,9.500,95.002,0.000,0.500,0.200,0.300,1.000,General,1781.235,16031.117
 Lights Internal Gains Nominal, ALL_ST=WHOLEBUILDING_FL=STORY 4_SCH=F FIRE STATION WHOLEBUILDING LIGHTS,NECB-F-LIGHTING,ALL_ST=WHOLEBUILDING_FL=STORY 4_SCH=F,1875.00,75.1,14249.881,7.600,189.800,0.000,0.500,0.200,0.300,1.000,General,1424.988,12824.893
 Lights Internal Gains Nominal, ALL_ST=WHOLEBUILDING_FL=STORY 1_SCH=B GYMNASIUM WHOLEBUILDING LIGHTS,NECB-B-LIGHTING,ALL_ST=WHOLEBUILDING_FL=STORY 1_SCH=B,1875.00,187.5,20249.831,10.800,108.003,0.000,0.500,0.200,0.300,1.000,General,2024.983,18224.848
 Lights Internal Gains Nominal, ALL_ST=WHOLEBUILDING_FL=STORY 1_SCH=A HEALTH-CARE CLINIC WHOLEBUILDING LIGHTS,NECB-A-LIGHTING,ALL_ST=WHOLEBUILDING_FL=STORY 1_SCH=A,2500.00,125.1,23499.804,9.400,187.802,0.000,0.500,0.200,0.300,1.000,General,1174.990,21149.824
 Lights Internal Gains Nominal, ALL_ST=WHOLEBUILDING_FL=STORY 2_SCH=H HOSPITAL WHOLEBUILDING LIGHTS,NECB-H-LIGHTING,ALL_ST=WHOLEBUILDING_FL=STORY 2_SCH=H,1875.00,93.8,24374.797,13.000,259.727,0.000,0.500,0.200,0.300,1.000,General,21937.317,21937.317
 Lights Internal Gains Nominal, DU_BT=HOTEL_ST=WHOLEBUILDING_FL=STORY 1_SCHF HOTEL WHOLEBUILDING LIGHTS,NECB-F-LIGHTING,DU_BT=HOTEL_ST=WHOLEBUILDING_FL=STORY 1_SCHF,1875.00,75.1,20249.831,10.800,269.716,0.000,0.500,0.200,0.300,1.000,General,2024.983,18224.848
 Lights Internal Gains Nominal, ALL_ST=WHOLEBUILDING_FL=STORY 2_SCH=C LIBRARY WHOLEBUILDING LIGHTS,NECB-C-LIGHTING,ALL_ST=WHOLEBUILDING_FL=STORY 2_SCH=C,2500.00,125.1,31749.736,12.700,253.733,0.000,0.500,0.200,0.300,1.000,General,1587.487,28574.762
 Lights Internal Gains Nominal, ALL_ST=WHOLEBUILDING_FL=STORY 1_SCH=A 1 MANUFACTURING FACILITY WHOLEBUILDING LIGHTS,NECB-A-LIGHTING,ALL_ST=WHOLEBUILDING_FL=STORY 1_SCH=A 1,1875.00,62.6,22312.314,11.900,356.625,0.000,0.500,0.200,0.300,1.000,General,1115.616,20081.083
 Lights Internal Gains Nominal, DU_BT=MOTEL_ST=WHOLEBUILDING_FL=STORY 4_SCHF MOTEL WHOLEBUILDING LIGHTS,NECB-F-LIGHTING,DU_BT=MOTEL_ST=WHOLEBUILDING_FL=STORY 4_SCHF,1875.00,75.1,17812.352,9.500,237.250,0.000,0.500,0.200,0.300,1.000,General,1781.235,16031.117
 Lights Internal Gains Nominal, ALL_ST=WHOLEBUILDING_FL=STORY 2_SCH=C 1 MOTION PICTURE THEATRE WHOLEBUILDING LIGHTS,NECB-C-LIGHTING,ALL_ST=WHOLEBUILDING_FL=STORY 2_SCH=C 1,1875.00,234.3,16687.361,8.900,71.217,0.000,0.500,0.200,0.300,1.000,General,834.368,15018.625
 Lights Internal Gains Nominal, DU_BT=MULTI-UNIT RESIDENTIAL_ST=WHOLEBUILDING_FL=STORY 3_SCHG MULTI-UNIT RESIDENTIAL WHOLEBUILDING LIGHTS,NECB-G-LIGHTING,DU_BT=MULTI-UNIT RESIDENTIAL_ST=WHOLEBUILDING_FL=STORY 3_SCHG,1875.00,31.3,12187.399,6.500,389.590,0.000,0.500,0.200,0.300,1.000,General,0.000,10968.659
 Lights Internal Gains Nominal, ALL_ST=WHOLEBUILDING_FL=STORY 2_SCH=C 2 MUSEUM WHOLEBUILDING LIGHTS,NECB-C-LIGHTING,ALL_ST=WHOLEBUILDING_FL=STORY 2_SCH=C 2,1875.00,93.8,21374.822,11.400,227.760,0.000,0.500,0.200,0.300,1.000,General,1068.741,19237.340
 Lights Internal Gains Nominal, ALL_ST=WHOLEBUILDING_FL=STORY 2_SCH=A OFFICE WHOLEBUILDING LIGHTS,NECB-A-LIGHTING,ALL_ST=WHOLEBUILDING_FL=STORY 2_SCH=A,1875.00,75.1,18187.349,9.700,242.245,0.000,0.500,0.200,0.300,1.000,General,909.367,16368.614
! <ElectricEquipment Internal Gains Nominal>,Name,Schedule Name,Zone Name,Zone Floor Area {m2},# Zone Occupants,Equipment Level {W},Equipment/Floor Area {W/m2},Equipment per person {W/person},Fraction Latent,Fraction Radiant,Fraction Lost,Fraction Convected,End-Use SubCategory,Nominal Minimum Equipment Level {W},Nominal Maximum Equipment Level {W}
 ElectricEquipment Internal Gains Nominal, ALL_ST=WHOLEBUILDING_FL=STORY 4_SCH=E AUTOMOTIVE FACILITY WHOLEBUILDING ELEC EQUIP,NECB-E-ELECTRIC-EQUIPMENT,ALL_ST=WHOLEBUILDING_FL=STORY 4_SCH=E,2500.00,125.1,12499.896,5.000,99.895,0.000,0.500,0.000,0.500,General,624.995,11249.906
 ElectricEquipment Internal Gains Nominal, ALL_ST=WHOLEBUILDING_FL=STORY 3_SCH=C CONVENTION CENTRE WHOLEBUILDING ELEC EQUIP,NECB-C-ELECTRIC-EQUIPMENT,ALL_ST=WHOLEBUILDING_FL=STORY 3_SCH=C,2500.00,312.4,6249.948,2.500,20.005,0.000,0.500,0.000,0.500,General,312.497,5624.953
 ElectricEquipment Internal Gains Nominal, ALL_ST=WHOLEBUILDING_FL=STORY 4_SCH=A COURTHOUSE WHOLEBUILDING ELEC EQUIP,NECB-A-ELECTRIC-EQUIPMENT,ALL_ST=WHOLEBUILDING_FL=STORY 4_SCH=A,1875.00,124.9,9374.922,5.000,75.042,0.000,0.500,0.000,0.500,General,1874.984,8437.430
 ElectricEquipment Internal Gains Nominal, ALL_ST=WHOLEBUILDING_FL=STORY 3_SCH=B DINING - BAR/LOUNGE WHOLEBUILDING ELEC EQUIP,NECB-B-ELECTRIC-EQUIPMENT,ALL_ST=WHOLEBUILDING_FL=STORY 3_SCH=B,1875.00,187.5,1874.984,1.000,10.000,0.000,0.500,0.000,0.500,General,187.498,1687.486
 ElectricEquipment Internal Gains Nominal, ALL_ST=WHOLEBUILDING_FL=STORY 3_SCH=B 1 DINING - CAFETERIA WHOLEBUILDING ELEC EQUIP,NECB-B-ELECTRIC-EQUIPMENT,ALL_ST=WHOLEBUILDING_FL=STORY 3_SCH=B 1,1875.00,187.5,1874.984,1.000,10.000,0.000,0.500,0.000,0.500,General,187.498,1687.486
 ElectricEquipment Internal Gains Nominal, ALL_ST=WHOLEBUILDING_FL=STORY 3_SCH=B 2 DINING - FAMILY WHOLEBUILDING ELEC EQUIP,NECB-B-ELECTRIC-EQUIPMENT,ALL_ST=WHOLEBUILDING_FL=STORY 3_SCH=B 2,1875.00,187.5,1874.984,1.000,10.000,0.000,0.500,0.000,0.500,General,187.498,1687.486
 ElectricEquipment Internal Gains Nominal, DU_BT=DORMITORY_ST=WHOLEBUILDING_FL=STORY 1_SCHG DORMITORY WHOLEBUILDING ELEC EQUIP,NECB-G-ELECTRIC-EQUIPMENT,DU_BT=DORMITORY_ST=WHOLEBUILDING_FL=STORY 1_SCHG,1875.00,62.6,4687.461,2.500,74.921,0.000,0.500,0.000,0.500,General,937.492,4218.715
 ElectricEquipment Internal Gains Nominal, ALL_ST=WHOLEBUILDING_FL=STORY 4_SCH=B EXERCISE CENTRE WHOLEBUILDING ELEC EQUIP,NECB-B-ELECTRIC-EQUIPMENT,ALL_ST=WHOLEBUILDING_FL=STORY 4_SCH=B,1875.00,187.5,1874.984,1.000,10.000,0.000,0.500,0.000,0.500,General,187.498,1687.486
 ElectricEquipment Internal Gains Nominal, ALL_ST=WHOLEBUILDING_FL=STORY 4_SCH=F FIRE STATION WHOLEBUILDING ELEC EQUIP,NECB-F-ELECTRIC-EQUIPMENT,ALL_ST=WHOLEBUILDING_FL=STORY 4_SCH=F,1875.00,75.1,4687.461,2.500,62.434,0.000,0.500,0.000,0.500,General,468.746,4218.715
 ElectricEquipment Internal Gains Nominal, ALL_ST=WHOLEBUILDING_FL=STORY 1_SCH=B GYMNASIUM WHOLEBUILDING ELEC EQUIP,NECB-B-ELECTRIC-EQUIPMENT,ALL_ST=WHOLEBUILDING_FL=STORY 1_SCH=B,1875.00,187.5,1874.984,1.000,10.000,0.000,0.500,0.000,0.500,General,187.498,1687.486
 ElectricEquipment Internal Gains Nominal, ALL_ST=WHOLEBUILDING_FL=STORY 1_SCH=A HEALTH-CARE CLINIC WHOLEBUILDING ELEC EQUIP,NECB-A-ELECTRIC-EQUIPMENT,ALL_ST=WHOLEBUILDING_FL=STORY 1_SCH=A,2500.00,125.1,18749.844,7.500,149.842,0.000,0.500,0.000,0.500,General,3749.969,16874.860
 ElectricEquipment Internal Gains Nominal, ALL_ST=WHOLEBUILDING_FL=STORY 2_SCH=H HOSPITAL WHOLEBUILDING ELEC EQUIP,NECB-H-ELECTRIC-EQUIPMENT,ALL_ST=WHOLEBUILDING_FL=STORY 2_SCH=H,1875.00,93.8,14062.383,7.500,149.842,0.000,0.500,0.000,0.500,General,12656.145,12656.145
 ElectricEquipment Internal Gains Nominal, DU_BT=HOTEL_ST=WHOLEBUILDING_FL=STORY 1_SCHF HOTEL WHOLEBUILDING ELEC EQUIP,NECB-F-ELECTRIC-EQUIPMENT,DU_BT=HOTEL_ST=WHOLEBUILDING_FL=STORY 1_SCHF,1875.00,75.1,4687.461,2.500,62.434,0.000,0.500,0.000,0.500,General,468.746,4218.715
 ElectricEquipment Internal Gains Nominal, ALL_ST=WHOLEBUILDING_FL=STORY 2_SCH=C LIBRARY WHOLEBUILDING ELEC EQUIP,NECB-C-ELECTRIC-EQUIPMENT,ALL_ST=WHOLEBUILDING_FL=STORY 2_SCH=C,2500.00,125.1,6249.948,2.500,49.947,0.000,0.500,0.000,0.500,General,312.497,5624.953
 ElectricEquipment Internal Gains Nominal, ALL_ST=WHOLEBUILDING_FL=STORY 1_SCH=A 1 MANUFACTURING FACILITY WHOLEBUILDING ELEC EQUIP,NECB-A-ELECTRIC-EQUIPMENT,ALL_ST=WHOLEBUILDING_FL=STORY 1_SCH=A 1,1875.00,62.6,18749.844,10.000,299.685,0.000,0.500,0.000,0.500,General,3749.969,16874.860
 ElectricEquipment Internal Gains Nominal, DU_BT=MOTEL_ST=WHOLEBUILDING_FL=STORY 4_SCHF MOTEL WHOLEBUILDING ELEC EQUIP,NECB-F-ELECTRIC-EQUIPMENT,DU_BT=MOTEL_ST=WHOLEBUILDING_FL=STORY 4_SCHF,1875.00,75.1,4687.461,2.500,62.434,0.000,0.500,0.000,0.500,General,468.746,4218.715
 ElectricEquipment Internal Gains Nominal, ALL_ST=WHOLEBUILDING_FL=STORY 2_SCH=C 1 MOTION PICTURE THEATRE WHOLEBUILDING ELEC EQUIP,NECB-C-ELECTRIC-EQUIPMENT,ALL_ST=WHOLEBUILDING_FL=STORY 2_SCH=C 1,1875.00,234.3,1874.984,1.000,8.002,0.000,0.500,0.000,0.500,General,93.749,1687.486
 ElectricEquipment Internal Gains Nominal, DU_BT=MULTI-UNIT RESIDENTIAL_ST=WHOLEBUILDING_FL=STORY 3_SCHG MULTI-UNIT RESIDENTIAL WHOLEBUILDING ELEC EQUIP,NECB-G-ELECTRIC-EQUIPMENT,DU_BT=MULTI-UNIT RESIDENTIAL_ST=WHOLEBUILDING_FL=STORY 3_SCHG,1875.00,31.3,9374.922,5.000,299.685,0.000,0.500,0.000,0.500,General,1874.984,8437.430
 ElectricEquipment Internal Gains Nominal, ALL_ST=WHOLEBUILDING_FL=STORY 2_SCH=C 2 MUSEUM WHOLEBUILDING ELEC EQUIP,NECB-C-ELECTRIC-EQUIPMENT,ALL_ST=WHOLEBUILDING_FL=STORY 2_SCH=C 2,1875.00,93.8,4687.461,2.500,49.947,0.000,0.500,0.000,0.500,General,234.373,4218.715
 ElectricEquipment Internal Gains Nominal, ALL_ST=WHOLEBUILDING_FL=STORY 2_SCH=A OFFICE WHOLEBUILDING ELEC EQUIP,NECB-A-ELECTRIC-EQUIPMENT,ALL_ST=WHOLEBUILDING_FL=STORY 2_SCH=A,1875.00,75.1,14062.383,7.500,187.303,0.000,0.500,0.000,0.500,General,2812.477,12656.145
! <Shadowing/Sun Position Calculations Annual Simulations>, Calculation Method, Value {days}, Allowable Number Figures in Shadow Overlap {}, Polygon Clipping Algorithm, Sky Diffuse Modeling Algorithm, External Shading Calculation Method, Output External Shading Calculation Results, Disable Self-Shading Within Shading Zone Groups, Disable Self-Shading From Shading Zone Groups to Other Zones
Shadowing/Sun Position Calculations Annual Simulations,AverageOverDaysInFrequency,20,15000,SutherlandHodgman,SimpleSkyDiffuseModeling,InternalCalculation,No,No,No
! <Water Heater Information>,Type,Name,Volume {m3},Maximum Capacity {W},Standard Rated Recovery Efficiency, Standard Rated Energy Factor
! <ZoneInfiltration Airflow Stats Nominal>,Name,Schedule Name,Zone Name, Zone Floor Area {m2}, # Zone Occupants,Design Volume Flow Rate {m3/s},Volume Flow Rate/Floor Area {m3/s/m2},Volume Flow Rate/Exterior Surface Area {m3/s/m2},ACH - Air Changes per Hour,Equation A - Constant Term Coefficient {},Equation B - Temperature Term Coefficient {1/C},Equation C - Velocity Term Coefficient {s/m}, Equation D - Velocity Squared Term Coefficient {s2/m2}
 ZoneInfiltration Airflow Stats Nominal, WHOLEBUILDING-OFFICE INFILTRATION,ALWAYS ON DISCRETE,ALL_ST=WHOLEBUILDING_FL=STORY 2_SCH=A,1875.00,75.1,9.500E-002,5.067E-005,2.500E-004,4.800E-002,0.000,0.000,0.224,0.000
 ZoneInfiltration Airflow Stats Nominal, WHOLEBUILDING-MOTION PICTURE THEATRE INFILTRATION,ALWAYS ON DISCRETE,ALL_ST=WHOLEBUILDING_FL=STORY 2_SCH=C 1,1875.00,234.3,9.500E-002,5.067E-005,2.500E-004,4.800E-002,0.000,0.000,0.224,0.000
 ZoneInfiltration Airflow Stats Nominal, WHOLEBUILDING-MUSEUM INFILTRATION,ALWAYS ON DISCRETE,ALL_ST=WHOLEBUILDING_FL=STORY 2_SCH=C 2,1875.00,93.8,9.500E-002,5.067E-005,2.500E-004,4.800E-002,0.000,0.000,0.224,0.000
 ZoneInfiltration Airflow Stats Nominal, WHOLEBUILDING-HOSPITAL INFILTRATION,ALWAYS ON DISCRETE,ALL_ST=WHOLEBUILDING_FL=STORY 2_SCH=H,1875.00,93.8,9.500E-002,5.067E-005,2.500E-004,4.800E-002,0.000,0.000,0.224,0.000
 ZoneInfiltration Airflow Stats Nominal, WHOLEBUILDING-DINING - BAR/LOUNGE INFILTRATION,ALWAYS ON DISCRETE,ALL_ST=WHOLEBUILDING_FL=STORY 3_SCH=B,1875.00,187.5,9.500E-002,5.067E-005,2.500E-004,4.800E-002,0.000,0.000,0.224,0.000
 ZoneInfiltration Airflow Stats Nominal, WHOLEBUILDING-DINING - CAFETERIA INFILTRATION,ALWAYS ON DISCRETE,ALL_ST=WHOLEBUILDING_FL=STORY 3_SCH=B 1,1875.00,187.5,9.500E-002,5.067E-005,2.500E-004,4.800E-002,0.000,0.000,0.224,0.000
 ZoneInfiltration Airflow Stats Nominal, WHOLEBUILDING-DINING - FAMILY INFILTRATION,ALWAYS ON DISCRETE,ALL_ST=WHOLEBUILDING_FL=STORY 3_SCH=B 2,1875.00,187.5,9.500E-002,5.067E-005,2.500E-004,4.800E-002,0.000,0.000,0.224,0.000
 ZoneInfiltration Airflow Stats Nominal, WHOLEBUILDING-COURTHOUSE INFILTRATION,ALWAYS ON DISCRETE,ALL_ST=WHOLEBUILDING_FL=STORY 4_SCH=A,1875.00,124.9,0.564,3.007E-004,2.500E-004,0.285,0.000,0.000,0.224,0.000
 ZoneInfiltration Airflow Stats Nominal, WHOLEBUILDING-EXERCISE CENTRE INFILTRATION,ALWAYS ON DISCRETE,ALL_ST=WHOLEBUILDING_FL=STORY 4_SCH=B,1875.00,187.5,0.564,3.007E-004,2.500E-004,0.285,0.000,0.000,0.224,0.000
 ZoneInfiltration Airflow Stats Nominal, WHOLEBUILDING-AUTOMOTIVE FACILITY INFILTRATION,ALWAYS ON DISCRETE,ALL_ST=WHOLEBUILDING_FL=STORY 4_SCH=E,2500.00,125.1,0.625,2.500E-004,2.500E-004,0.237,0.000,0.000,0.224,0.000
 ZoneInfiltration Airflow Stats Nominal, WHOLEBUILDING-FIRE STATION INFILTRATION,ALWAYS ON DISCRETE,ALL_ST=WHOLEBUILDING_FL=STORY 4_SCH=F,1875.00,75.1,0.564,3.007E-004,2.500E-004,0.285,0.000,0.000,0.224,0.000
 ZoneInfiltration Airflow Stats Nominal, WHOLEBUILDING-MOTEL INFILTRATION,ALWAYS ON DISCRETE,DU_BT=MOTEL_ST=WHOLEBUILDING_FL=STORY 4_SCHF,1875.00,75.1,0.564,3.007E-004,2.500E-004,0.285,0.000,0.000,0.224,0.000
 ZoneInfiltration Airflow Stats Nominal, WHOLEBUILDING-MULTI-UNIT RESIDENTIAL INFILTRATION,ALWAYS ON DISCRETE,DU_BT=MULTI-UNIT RESIDENTIAL_ST=WHOLEBUILDING_FL=STORY 3_SCHG,1875.00,31.3,9.500E-002,5.067E-005,2.500E-004,4.800E-002,0.000,0.000,0.224,0.000
! <AirFlow Model>, Simple
 AirFlow Model, Simple
! <RoomAir Model>, Zone Name, Mixing/Mundt/UCSDDV/UCSDCV/UCSDUFI/UCSDUFE/User Defined
RoomAir Model,ALL_ST=WHOLEBUILDING_FL=STORY 1_SCH=A,Mixing/Well-Stirred
RoomAir Model,ALL_ST=WHOLEBUILDING_FL=STORY 1_SCH=A 1,Mixing/Well-Stirred
RoomAir Model,ALL_ST=WHOLEBUILDING_FL=STORY 1_SCH=B,Mixing/Well-Stirred
RoomAir Model,ALL_ST=WHOLEBUILDING_FL=STORY 2_SCH=A,Mixing/Well-Stirred
RoomAir Model,ALL_ST=WHOLEBUILDING_FL=STORY 2_SCH=C,Mixing/Well-Stirred
RoomAir Model,ALL_ST=WHOLEBUILDING_FL=STORY 2_SCH=C 1,Mixing/Well-Stirred
RoomAir Model,ALL_ST=WHOLEBUILDING_FL=STORY 2_SCH=C 2,Mixing/Well-Stirred
RoomAir Model,ALL_ST=WHOLEBUILDING_FL=STORY 2_SCH=H,Mixing/Well-Stirred
RoomAir Model,ALL_ST=WHOLEBUILDING_FL=STORY 3_SCH=B,Mixing/Well-Stirred
RoomAir Model,ALL_ST=WHOLEBUILDING_FL=STORY 3_SCH=B 1,Mixing/Well-Stirred
RoomAir Model,ALL_ST=WHOLEBUILDING_FL=STORY 3_SCH=B 2,Mixing/Well-Stirred
RoomAir Model,ALL_ST=WHOLEBUILDING_FL=STORY 3_SCH=C,Mixing/Well-Stirred
RoomAir Model,ALL_ST=WHOLEBUILDING_FL=STORY 4_SCH=A,Mixing/Well-Stirred
RoomAir Model,ALL_ST=WHOLEBUILDING_FL=STORY 4_SCH=B,Mixing/Well-Stirred
RoomAir Model,ALL_ST=WHOLEBUILDING_FL=STORY 4_SCH=E,Mixing/Well-Stirred
RoomAir Model,ALL_ST=WHOLEBUILDING_FL=STORY 4_SCH=F,Mixing/Well-Stirred
RoomAir Model,DU_BT=DORMITORY_ST=WHOLEBUILDING_FL=STORY 1_SCHG,Mixing/Well-Stirred
RoomAir Model,DU_BT=HOTEL_ST=WHOLEBUILDING_FL=STORY 1_SCHF,Mixing/Well-Stirred
RoomAir Model,DU_BT=MOTEL_ST=WHOLEBUILDING_FL=STORY 4_SCHF,Mixing/Well-Stirred
RoomAir Model,DU_BT=MULTI-UNIT RESIDENTIAL_ST=WHOLEBUILDING_FL=STORY 3_SCHG,Mixing/Well-Stirred
! <AirflowNetwork Model:Control>, No Multizone or Distribution/Multizone with Distribution/Multizone without Distribution/Multizone with Distribution only during Fan Operation
AirflowNetwork Model:Control,NoMultizoneOrDistribution
! <Zone Volume Capacitance Multiplier>, Sensible Heat Capacity Multiplier, Moisture Capacity Multiplier, Carbon Dioxide Capacity Multiplier, Generic Contaminant Capacity Multiplier
Zone Volume Capacitance Multiplier,   1.000 ,   1.000,   1.000,   1.000
! <Load Timesteps in Zone Design Calculation Averaging Window>, Value
 Load Timesteps in Zone Design Calculation Averaging Window,    6
! <Heating Sizing Factor Information>, Sizing Factor ID, Value
 Heating Sizing Factor Information, Global,   1.3000    
 Heating Sizing Factor Information, Zone ALL_ST=WHOLEBUILDING_FL=STORY 1_SCH=A,   1.3000    
 Heating Sizing Factor Information, Zone ALL_ST=WHOLEBUILDING_FL=STORY 1_SCH=A 1,   1.3000    
 Heating Sizing Factor Information, Zone ALL_ST=WHOLEBUILDING_FL=STORY 1_SCH=B,   1.3000    
 Heating Sizing Factor Information, Zone ALL_ST=WHOLEBUILDING_FL=STORY 2_SCH=A,   1.3000    
 Heating Sizing Factor Information, Zone ALL_ST=WHOLEBUILDING_FL=STORY 2_SCH=C,   1.3000    
 Heating Sizing Factor Information, Zone ALL_ST=WHOLEBUILDING_FL=STORY 2_SCH=C 1,   1.3000    
 Heating Sizing Factor Information, Zone ALL_ST=WHOLEBUILDING_FL=STORY 2_SCH=C 2,   1.3000    
 Heating Sizing Factor Information, Zone ALL_ST=WHOLEBUILDING_FL=STORY 2_SCH=H,   1.3000    
 Heating Sizing Factor Information, Zone ALL_ST=WHOLEBUILDING_FL=STORY 3_SCH=B,   1.3000    
 Heating Sizing Factor Information, Zone ALL_ST=WHOLEBUILDING_FL=STORY 3_SCH=B 1,   1.3000    
 Heating Sizing Factor Information, Zone ALL_ST=WHOLEBUILDING_FL=STORY 3_SCH=B 2,   1.3000    
 Heating Sizing Factor Information, Zone ALL_ST=WHOLEBUILDING_FL=STORY 3_SCH=C,   1.3000    
 Heating Sizing Factor Information, Zone ALL_ST=WHOLEBUILDING_FL=STORY 4_SCH=A,   1.3000    
 Heating Sizing Factor Information, Zone ALL_ST=WHOLEBUILDING_FL=STORY 4_SCH=B,   1.3000    
 Heating Sizing Factor Information, Zone ALL_ST=WHOLEBUILDING_FL=STORY 4_SCH=E,   1.3000    
 Heating Sizing Factor Information, Zone ALL_ST=WHOLEBUILDING_FL=STORY 4_SCH=F,   1.3000    
 Heating Sizing Factor Information, Zone DU_BT=DORMITORY_ST=WHOLEBUILDING_FL=STORY 1_SCHG,   1.3000    
 Heating Sizing Factor Information, Zone DU_BT=HOTEL_ST=WHOLEBUILDING_FL=STORY 1_SCHF,   1.3000    
 Heating Sizing Factor Information, Zone DU_BT=MOTEL_ST=WHOLEBUILDING_FL=STORY 4_SCHF,   1.3000    
 Heating Sizing Factor Information, Zone DU_BT=MULTI-UNIT RESIDENTIAL_ST=WHOLEBUILDING_FL=STORY 3_SCHG,   1.3000    
! <Cooling Sizing Factor Information>, Sizing Factor ID, Value
 Cooling Sizing Factor Information, Global,   1.1000    
 Cooling Sizing Factor Information, Zone ALL_ST=WHOLEBUILDING_FL=STORY 1_SCH=A,   1.1000    
 Cooling Sizing Factor Information, Zone ALL_ST=WHOLEBUILDING_FL=STORY 1_SCH=A 1,   1.1000    
 Cooling Sizing Factor Information, Zone ALL_ST=WHOLEBUILDING_FL=STORY 1_SCH=B,   1.1000    
 Cooling Sizing Factor Information, Zone ALL_ST=WHOLEBUILDING_FL=STORY 2_SCH=A,   1.1000    
 Cooling Sizing Factor Information, Zone ALL_ST=WHOLEBUILDING_FL=STORY 2_SCH=C,   1.1000    
 Cooling Sizing Factor Information, Zone ALL_ST=WHOLEBUILDING_FL=STORY 2_SCH=C 1,   1.1000    
 Cooling Sizing Factor Information, Zone ALL_ST=WHOLEBUILDING_FL=STORY 2_SCH=C 2,   1.1000    
 Cooling Sizing Factor Information, Zone ALL_ST=WHOLEBUILDING_FL=STORY 2_SCH=H,   1.1000    
 Cooling Sizing Factor Information, Zone ALL_ST=WHOLEBUILDING_FL=STORY 3_SCH=B,   1.1000    
 Cooling Sizing Factor Information, Zone ALL_ST=WHOLEBUILDING_FL=STORY 3_SCH=B 1,   1.1000    
 Cooling Sizing Factor Information, Zone ALL_ST=WHOLEBUILDING_FL=STORY 3_SCH=B 2,   1.1000    
 Cooling Sizing Factor Information, Zone ALL_ST=WHOLEBUILDING_FL=STORY 3_SCH=C,   1.1000    
 Cooling Sizing Factor Information, Zone ALL_ST=WHOLEBUILDING_FL=STORY 4_SCH=A,   1.1000    
 Cooling Sizing Factor Information, Zone ALL_ST=WHOLEBUILDING_FL=STORY 4_SCH=B,   1.1000    
 Cooling Sizing Factor Information, Zone ALL_ST=WHOLEBUILDING_FL=STORY 4_SCH=E,   1.1000    
 Cooling Sizing Factor Information, Zone ALL_ST=WHOLEBUILDING_FL=STORY 4_SCH=F,   1.1000    
 Cooling Sizing Factor Information, Zone DU_BT=DORMITORY_ST=WHOLEBUILDING_FL=STORY 1_SCHG,   1.1000    
 Cooling Sizing Factor Information, Zone DU_BT=HOTEL_ST=WHOLEBUILDING_FL=STORY 1_SCHF,   1.1000    
 Cooling Sizing Factor Information, Zone DU_BT=MOTEL_ST=WHOLEBUILDING_FL=STORY 4_SCHF,   1.1000    
 Cooling Sizing Factor Information, Zone DU_BT=MULTI-UNIT RESIDENTIAL_ST=WHOLEBUILDING_FL=STORY 3_SCHG,   1.1000    
! <Zone Sizing Information>, Zone Name, Load Type, Calc Des Load {W}, User Des Load {W}, Calc Des Air Flow Rate {m3/s}, User Des Air Flow Rate {m3/s}, Design Day Name, Date/Time of Peak, Temperature at Peak {C}, Humidity Ratio at Peak {kgWater/kgDryAir}, Floor Area {m2}, # Occupants, Calc Outdoor Air Flow Rate {m3/s}, Calc DOAS Heat Addition Rate {W}
 Zone Sizing Information, ALL_ST=WHOLEBUILDING_FL=STORY 1_SCH=A, Cooling, 36658.63174, 40324.49491, 2.83339, 5.71500, FORT MCMURRAY AP ANN CLG .4% CONDNS DB=>MWB, 7/21 17:00:00, 27.16400, 8.76969E-003, 2500.00000, 125.13046, 5.71500, 0.00000
 Zone Sizing Information, ALL_ST=WHOLEBUILDING_FL=STORY 1_SCH=A, Heating, 0.00000, 0.00000, 0.00000, 5.71500, FORT MCMURRAY AP ANN HTG 99.6% CONDNS DB, , -36.20000, 1.25811E-004, 2500.00000, 125.13046, 5.71500, 0.00000
 Zone Sizing Information, ALL_ST=WHOLEBUILDING_FL=STORY 1_SCH=A 1, Cooling, 34712.58271, 38183.84098, 2.68287, 2.95116, FORT MCMURRAY AP ANN CLG .4% CONDNS DB=>MWB, 7/21 17:00:00, 27.16400, 8.76969E-003, 1875.00000, 62.56523, 2.00978, 0.00000
 Zone Sizing Information, ALL_ST=WHOLEBUILDING_FL=STORY 1_SCH=A 1, Heating, 0.00000, 0.00000, 0.00000, 2.00978, FORT MCMURRAY AP ANN HTG 99.6% CONDNS DB, , -36.20000, 1.25811E-004, 1875.00000, 62.56523, 2.00978, 0.00000
 Zone Sizing Information, ALL_ST=WHOLEBUILDING_FL=STORY 1_SCH=B, Cooling, 26355.43159, 28990.97475, 2.03707, 2.34315, FORT MCMURRAY AP ANN CLG .4% CONDNS DB=>MWB, 7/21 22:00:00, 20.46800, 8.76969E-003, 1875.00000, 187.49386, 2.34315, 0.00000
 Zone Sizing Information, ALL_ST=WHOLEBUILDING_FL=STORY 1_SCH=B, Heating, 0.00000, 0.00000, 0.00000, 2.34315, FORT MCMURRAY AP ANN HTG 99.6% CONDNS DB, , -36.20000, 1.25811E-004, 1875.00000, 187.49386, 2.34315, 0.00000
 Zone Sizing Information, ALL_ST=WHOLEBUILDING_FL=STORY 2_SCH=A, Cooling, 43782.32605, 48160.55866, 3.38380, 3.72218, FORT MCMURRAY AP ANN CLG .4% CONDNS DB=>MWB, 7/21 14:50:00, 28.90000, 8.76969E-003, 1875.00000, 75.07828, 0.75248, 0.00000
 Zone Sizing Information, ALL_ST=WHOLEBUILDING_FL=STORY 2_SCH=A, Heating, 818.57856, 1064.15213, 3.28462E-002, 0.75248, FORT MCMURRAY AP ANN HTG 99.6% CONDNS DB, 1/21 07:10:00, -36.20000, 1.25811E-004, 1875.00000, 75.07828, 0.75248, 0.00000
 Zone Sizing Information, ALL_ST=WHOLEBUILDING_FL=STORY 2_SCH=C, Cooling, 38428.27453, 42271.10198, 2.97011, 3.26712, FORT MCMURRAY AP ANN CLG .4% CONDNS DB=>MWB, 7/21 17:00:00, 27.16400, 8.76969E-003, 2500.00000, 125.13046, 1.81610, 0.00000
 Zone Sizing Information, ALL_ST=WHOLEBUILDING_FL=STORY 2_SCH=C, Heating, 0.00000, 0.00000, 0.00000, 1.81610, FORT MCMURRAY AP ANN HTG 99.6% CONDNS DB, , -36.20000, 1.25811E-004, 2500.00000, 125.13046, 1.81610, 0.00000
 Zone Sizing Information, ALL_ST=WHOLEBUILDING_FL=STORY 2_SCH=C 1, Cooling, 42084.93783, 46293.43161, 3.25322, 3.57854, FORT MCMURRAY AP ANN CLG .4% CONDNS DB=>MWB, 7/21 17:40:00, 26.33733, 8.76969E-003, 1875.00000, 234.31687, 1.12395, 0.00000
 Zone Sizing Information, ALL_ST=WHOLEBUILDING_FL=STORY 2_SCH=C 1, Heating, 10782.77539, 14017.60800, 0.41529, 1.12395, FORT MCMURRAY AP ANN HTG 99.6% CONDNS DB, 1/21 09:00:00, -36.20000, 1.25811E-004, 1875.00000, 234.31687, 1.12395, 0.00000
 Zone Sizing Information, ALL_ST=WHOLEBUILDING_FL=STORY 2_SCH=C 2, Cooling, 29251.07084, 32176.17792, 2.26080, 2.48688, FORT MCMURRAY AP ANN CLG .4% CONDNS DB=>MWB, 7/21 17:00:00, 27.16400, 8.76969E-003, 1875.00000, 93.84784, 0.90488, 0.00000
 Zone Sizing Information, ALL_ST=WHOLEBUILDING_FL=STORY 2_SCH=C 2, Heating, 3661.16535, 4759.51495, 0.14242, 0.90488, FORT MCMURRAY AP ANN HTG 99.6% CONDNS DB, 1/21 08:10:00, -36.20000, 1.25811E-004, 1875.00000, 93.84784, 0.90488, 0.00000
 Zone Sizing Information, ALL_ST=WHOLEBUILDING_FL=STORY 2_SCH=H, Cooling, 52305.41699, 57535.95869, 4.04268, 4.44695, FORT MCMURRAY AP ANN CLG .4% CONDNS DB=>MWB, 7/21 09:20:00, 22.78267, 8.76969E-003, 1875.00000, 93.84784, 4.28625, 0.00000
 Zone Sizing Information, ALL_ST=WHOLEBUILDING_FL=STORY 2_SCH=H, Heating, 0.00000, 0.00000, 0.00000, 4.28625, FORT MCMURRAY AP ANN HTG 99.6% CONDNS DB, , -36.20000, 1.25811E-004, 1875.00000, 93.84784, 4.28625, 0.00000
 Zone Sizing Information, ALL_ST=WHOLEBUILDING_FL=STORY 3_SCH=B, Cooling, 47566.36157, 52322.99772, 3.67677, 4.04445, FORT MCMURRAY AP ANN CLG .4% CONDNS DB=>MWB, 7/21 13:50:00, 28.79667, 8.76969E-003, 1875.00000, 187.49386, 2.38125, 0.00000
 Zone Sizing Information, ALL_ST=WHOLEBUILDING_FL=STORY 3_SCH=B, Heating, 18041.76561, 23454.29530, 0.70080, 2.38125, FORT MCMURRAY AP ANN HTG 99.6% CONDNS DB, 1/21 10:00:00, -36.20000, 1.25811E-004, 1875.00000, 187.49386, 2.38125, 0.00000
 Zone Sizing Information, ALL_ST=WHOLEBUILDING_FL=STORY 3_SCH=B 1, Cooling, 57819.59902, 63601.55892, 4.00887, 4.40976, FORT MCMURRAY AP ANN CLG .4% CONDNS DB=>MWB, 7/21 09:00:00, 22.08000, 8.76969E-003, 1875.00000, 187.49386, 2.38125, 0.00000
 Zone Sizing Information, ALL_ST=WHOLEBUILDING_FL=STORY 3_SCH=B 1, Heating, 11119.42263, 14455.24942, 0.43578, 2.38125, FORT MCMURRAY AP ANN HTG 99.6% CONDNS DB, 1/21 10:00:00, -36.20000, 1.25811E-004, 1875.00000, 187.49386, 2.38125, 0.00000
 Zone Sizing Information, ALL_ST=WHOLEBUILDING_FL=STORY 3_SCH=B 2, Cooling, 35974.46961, 39571.91657, 2.78048, 3.05853, FORT MCMURRAY AP ANN CLG .4% CONDNS DB=>MWB, 7/21 20:10:00, 22.51400, 8.76969E-003, 1875.00000, 187.49386, 2.38125, 0.00000
 Zone Sizing Information, ALL_ST=WHOLEBUILDING_FL=STORY 3_SCH=B 2, Heating, 20085.97416, 26111.76641, 0.78374, 2.38125, FORT MCMURRAY AP ANN HTG 99.6% CONDNS DB, 1/21 10:00:00, -36.20000, 1.25811E-004, 1875.00000, 187.49386, 2.38125, 0.00000
 Zone Sizing Information, ALL_ST=WHOLEBUILDING_FL=STORY 3_SCH=C, Cooling, 52293.13928, 57522.45321, 4.04229, 4.44652, FORT MCMURRAY AP ANN CLG .4% CONDNS DB=>MWB, 7/21 17:00:00, 27.16400, 8.76969E-003, 2500.00000, 312.42250, 1.86690, 0.00000
 Zone Sizing Information, ALL_ST=WHOLEBUILDING_FL=STORY 3_SCH=C, Heating, 0.00000, 0.00000, 0.00000, 1.86690, FORT MCMURRAY AP ANN HTG 99.6% CONDNS DB, , -36.20000, 1.25811E-004, 2500.00000, 312.42250, 1.86690, 0.00000
 Zone Sizing Information, ALL_ST=WHOLEBUILDING_FL=STORY 4_SCH=A, Cooling, 82884.31273, 91172.74401, 6.40639, 7.04703, FORT MCMURRAY AP ANN CLG .4% CONDNS DB=>MWB, 7/21 16:10:00, 27.99067, 8.76969E-003, 1875.00000, 124.92864, 0.86678, 0.00000
 Zone Sizing Information, ALL_ST=WHOLEBUILDING_FL=STORY 4_SCH=A, Heating, 49185.33780, 63940.93914, 1.96125, 2.54962, FORT MCMURRAY AP ANN HTG 99.6% CONDNS DB, 1/21 08:00:00, -36.20000, 1.25811E-004, 1875.00000, 124.92864, 0.86678, 0.00000
 Zone Sizing Information, ALL_ST=WHOLEBUILDING_FL=STORY 4_SCH=B, Cooling, 86419.54722, 95061.50194, 5.83183, 6.41501, FORT MCMURRAY AP ANN CLG .4% CONDNS DB=>MWB, 7/21 09:00:00, 22.08000, 8.76969E-003, 1875.00000, 187.49386, 2.34315, 0.00000
 Zone Sizing Information, ALL_ST=WHOLEBUILDING_FL=STORY 4_SCH=B, Heating, 43290.80078, 56278.04101, 1.72227, 2.34315, FORT MCMURRAY AP ANN HTG 99.6% CONDNS DB, 1/21 10:00:00, -36.20000, 1.25811E-004, 1875.00000, 187.49386, 2.34315, 0.00000
 Zone Sizing Information, ALL_ST=WHOLEBUILDING_FL=STORY 4_SCH=E, Cooling, 84512.41923, 92963.66116, 6.53203, 7.18523, FORT MCMURRAY AP ANN CLG .4% CONDNS DB=>MWB, 7/21 13:40:00, 28.69333, 8.76969E-003, 2500.00000, 125.13046, 2.87020, 0.00000
 Zone Sizing Information, ALL_ST=WHOLEBUILDING_FL=STORY 4_SCH=E, Heating, 39627.44030, 51515.67239, 1.48874, 2.87020, FORT MCMURRAY AP ANN HTG 99.6% CONDNS DB, 1/21 08:20:00, -36.20000, 1.25811E-004, 2500.00000, 125.13046, 2.87020, 0.00000
 Zone Sizing Information, ALL_ST=WHOLEBUILDING_FL=STORY 4_SCH=F, Cooling, 48450.42290, 53295.46519, 3.74446, 4.11890, FORT MCMURRAY AP ANN CLG .4% CONDNS DB=>MWB, 7/21 13:40:00, 28.69333, 8.76969E-003, 1875.00000, 75.07828, 1.40970, 0.00000
 Zone Sizing Information, ALL_ST=WHOLEBUILDING_FL=STORY 4_SCH=F, Heating, 44144.93736, 57388.41857, 1.75691, 2.28398, FORT MCMURRAY AP ANN HTG 99.6% CONDNS DB, 1/21 09:00:00, -36.20000, 1.25811E-004, 1875.00000, 75.07828, 1.40970, 0.00000
 Zone Sizing Information, DU_BT=DORMITORY_ST=WHOLEBUILDING_FL=STORY 1_SCHG, Cooling, 16860.55505, 18546.61056, 1.30309, 1.43340, FORT MCMURRAY AP ANN CLG .4% CONDNS DB=>MWB, 7/21 20:10:00, 22.51400, 8.76969E-003, 1875.00000, 62.56523, 0.71438, 0.00000
 Zone Sizing Information, DU_BT=DORMITORY_ST=WHOLEBUILDING_FL=STORY 1_SCHG, Heating, 0.00000, 0.00000, 0.00000, 0.71438, FORT MCMURRAY AP ANN HTG 99.6% CONDNS DB, , -36.20000, 1.25811E-004, 1875.00000, 62.56523, 0.71438, 0.00000
 Zone Sizing Information, DU_BT=HOTEL_ST=WHOLEBUILDING_FL=STORY 1_SCHF, Cooling, 21867.96257, 24054.75883, 1.69008, 1.85909, FORT MCMURRAY AP ANN CLG .4% CONDNS DB=>MWB, 7/21 22:00:00, 20.46800, 8.76969E-003, 1875.00000, 75.07828, 0.75248, 0.00000
 Zone Sizing Information, DU_BT=HOTEL_ST=WHOLEBUILDING_FL=STORY 1_SCHF, Heating, 0.00000, 0.00000, 0.00000, 0.75248, FORT MCMURRAY AP ANN HTG 99.6% CONDNS DB, , -36.20000, 1.25811E-004, 1875.00000, 75.07828, 0.75248, 0.00000
 Zone Sizing Information, DU_BT=MOTEL_ST=WHOLEBUILDING_FL=STORY 4_SCHF, Cooling, 66625.05089, 73287.55598, 5.14907, 5.66398, FORT MCMURRAY AP ANN CLG .4% CONDNS DB=>MWB, 7/21 13:30:00, 28.59000, 8.76969E-003, 1875.00000, 75.07828, 0.75248, 0.00000
 Zone Sizing Information, DU_BT=MOTEL_ST=WHOLEBUILDING_FL=STORY 4_SCHF, Heating, 41954.30931, 54540.60211, 1.66823, 2.16870, FORT MCMURRAY AP ANN HTG 99.6% CONDNS DB, 1/21 09:00:00, -36.20000, 1.25811E-004, 1875.00000, 75.07828, 0.75248, 0.00000
 Zone Sizing Information, DU_BT=MULTI-UNIT RESIDENTIAL_ST=WHOLEBUILDING_FL=STORY 3_SCHG, Cooling, 41116.26157, 45227.88773, 3.17763, 3.49539, FORT MCMURRAY AP ANN CLG .4% CONDNS DB=>MWB, 7/21 20:00:00, 22.70000, 8.76969E-003, 1875.00000, 31.28261, 0.64770, 0.00000
 Zone Sizing Information, DU_BT=MULTI-UNIT RESIDENTIAL_ST=WHOLEBUILDING_FL=STORY 3_SCHG, Heating, 18687.26016, 24293.43820, 0.73018, 0.94923, FORT MCMURRAY AP ANN HTG 99.6% CONDNS DB, 1/21 09:00:00, -36.20000, 1.25811E-004, 1875.00000, 31.28261, 0.64770, 0.00000
! <System Sizing Information>, System Name, Load Type, Peak Load Kind, User Design Capacity, Calc Des Air Flow Rate [m3/s], User Des Air Flow Rate [m3/s], Design Day Name, Date/Time of Peak
 System Sizing Information, SYS_1_MAKE-UP AIR UNIT, Cooling, Sensible, 6508.10, 1.85909, 0.75248, FORT MCMURRAY AP ANN CLG .4% CONDNS DB=>MWB, 7/21 05:00:00
 System Sizing Information, SYS_1_MAKE-UP AIR UNIT, Heating, Sensible, 69020.07, 0.75248, 0.75248, FORT MCMURRAY AP ANN HTG 99.6% CONDNS DB, 1/21 00:10:00
 System Sizing Information, SYS_1_MAKE-UP AIR UNIT 1, Cooling, Sensible, 13586.15, 5.66398, 0.75248, FORT MCMURRAY AP ANN CLG .4% CONDNS DB=>MWB, 7/21 05:00:00
 System Sizing Information, SYS_1_MAKE-UP AIR UNIT 1, Heating, Sensible, 69020.07, 2.16870, 0.75248, FORT MCMURRAY AP ANN HTG 99.6% CONDNS DB, 1/21 09:00:00
 System Sizing Information, SYS_1_MAKE-UP AIR UNIT 2, Cooling, Sensible, 7276.19, 3.49539, 0.64770, FORT MCMURRAY AP ANN CLG .4% CONDNS DB=>MWB, 7/21 05:00:00
 System Sizing Information, SYS_1_MAKE-UP AIR UNIT 2, Heating, Sensible, 59409.68, 0.94923, 0.64770, FORT MCMURRAY AP ANN HTG 99.6% CONDNS DB, 1/21 09:00:00
 System Sizing Information, SYS_2_MAKE-UP AIR UNIT, Cooling, Sensible, 48274.41, 3.26712, 3.26712, FORT MCMURRAY AP ANN CLG .4% CONDNS DB=>MWB, 7/21 00:00:00
 System Sizing Information, SYS_2_MAKE-UP AIR UNIT, Heating, Sensible, 103691.89, 1.81610, 1.81610, FORT MCMURRAY AP ANN HTG 99.6% CONDNS DB, 1/21 00:10:00
 System Sizing Information, SYS_2_MAKE-UP AIR UNIT 1, Cooling, Sensible, 34995.43, 2.48688, 2.48688, FORT MCMURRAY AP ANN CLG .4% CONDNS DB=>MWB, 7/21 00:00:00
 System Sizing Information, SYS_2_MAKE-UP AIR UNIT 1, Heating, Sensible, 51664.67, 0.90488, 0.90488, FORT MCMURRAY AP ANN HTG 99.6% CONDNS DB, 1/21 00:10:00
 System Sizing Information, SYS_3_PSZ ALL_ST=WHOLEBUILDING_FL=STORY 1_SCH=A 1, Cooling, Sensible, 44959.78, 2.95116, 2.95116, FORT MCMURRAY AP ANN CLG .4% CONDNS DB=>MWB, 7/21 05:00:00
 System Sizing Information, SYS_3_PSZ ALL_ST=WHOLEBUILDING_FL=STORY 1_SCH=A 1, Heating, Sensible, 184344.74, 2.00978, 2.00978, FORT MCMURRAY AP ANN HTG 99.6% CONDNS DB, 1/21 00:10:00
 System Sizing Information, SYS_3_PSZ ALL_ST=WHOLEBUILDING_FL=STORY 2_SCH=C 1, Cooling, Sensible, 48623.52, 3.57854, 3.57854, FORT MCMURRAY AP ANN CLG .4% CONDNS DB=>MWB, 7/21 05:00:00
 System Sizing Information, SYS_3_PSZ ALL_ST=WHOLEBUILDING_FL=STORY 2_SCH=C 1, Heating, Sensible, 103093.26, 1.12395, 1.12395, FORT MCMURRAY AP ANN HTG 99.6% CONDNS DB, 1/21 00:10:00
 System Sizing Information, SYS_3_PSZ ALL_ST=WHOLEBUILDING_FL=STORY 2_SCH=H, Cooling, Sensible, 50608.57, 4.44695, 4.44695, FORT MCMURRAY AP ANN CLG .4% CONDNS DB=>MWB, 7/21 05:00:00
 System Sizing Information, SYS_3_PSZ ALL_ST=WHOLEBUILDING_FL=STORY 2_SCH=H, Heating, Sensible, 393152.28, 4.28625, 4.28625, FORT MCMURRAY AP ANN HTG 99.6% CONDNS DB, 1/21 00:10:00
 System Sizing Information, SYS_3_PSZ ALL_ST=WHOLEBUILDING_FL=STORY 3_SCH=B, Cooling, Sensible, 64748.17, 4.04445, 4.04445, FORT MCMURRAY AP ANN CLG .4% CONDNS DB=>MWB, 7/21 05:00:00
 System Sizing Information, SYS_3_PSZ ALL_ST=WHOLEBUILDING_FL=STORY 3_SCH=B, Heating, Sensible, 218417.93, 2.38125, 2.38125, FORT MCMURRAY AP ANN HTG 99.6% CONDNS DB, 1/21 00:10:00
 System Sizing Information, SYS_3_PSZ ALL_ST=WHOLEBUILDING_FL=STORY 3_SCH=B 1, Cooling, Sensible, 50808.86, 4.40976, 4.40976, FORT MCMURRAY AP ANN CLG .4% CONDNS DB=>MWB, 7/21 05:00:00
 System Sizing Information, SYS_3_PSZ ALL_ST=WHOLEBUILDING_FL=STORY 3_SCH=B 1, Heating, Sensible, 218417.93, 2.38125, 2.38125, FORT MCMURRAY AP ANN HTG 99.6% CONDNS DB, 1/21 00:10:00
 System Sizing Information, SYS_3_PSZ ALL_ST=WHOLEBUILDING_FL=STORY 3_SCH=B 2, Cooling, Sensible, 34865.00, 3.05853, 3.05853, FORT MCMURRAY AP ANN CLG .4% CONDNS DB=>MWB, 7/21 05:00:00
 System Sizing Information, SYS_3_PSZ ALL_ST=WHOLEBUILDING_FL=STORY 3_SCH=B 2, Heating, Sensible, 218417.93, 2.38125, 2.38125, FORT MCMURRAY AP ANN HTG 99.6% CONDNS DB, 1/21 00:10:00
 System Sizing Information, SYS_3_PSZ ALL_ST=WHOLEBUILDING_FL=STORY 3_SCH=C, Cooling, Sensible, 63479.48, 4.44652, 4.44652, FORT MCMURRAY AP ANN CLG .4% CONDNS DB=>MWB, 7/21 05:00:00
 System Sizing Information, SYS_3_PSZ ALL_ST=WHOLEBUILDING_FL=STORY 3_SCH=C, Heating, Sensible, 171239.66, 1.86690, 1.86690, FORT MCMURRAY AP ANN HTG 99.6% CONDNS DB, 1/21 00:10:00
 System Sizing Information, SYS_3_PSZ ALL_ST=WHOLEBUILDING_FL=STORY 4_SCH=A, Cooling, Sensible, 93770.42, 7.04703, 7.04703, FORT MCMURRAY AP ANN CLG .4% CONDNS DB=>MWB, 7/21 05:00:00
 System Sizing Information, SYS_3_PSZ ALL_ST=WHOLEBUILDING_FL=STORY 4_SCH=A, Heating, Sensible, 120769.30, 2.54962, 2.54962, FORT MCMURRAY AP ANN HTG 99.6% CONDNS DB, 1/21 08:00:00
 System Sizing Information, SYS_3_PSZ DU_BT=DORMITORY_ST=WHOLEBUILDING_FL=STORY 1_SCHG, Cooling, Sensible, 17030.84, 1.43340, 1.43340, FORT MCMURRAY AP ANN CLG .4% CONDNS DB=>MWB, 7/21 05:00:00
 System Sizing Information, SYS_3_PSZ DU_BT=DORMITORY_ST=WHOLEBUILDING_FL=STORY 1_SCHG, Heating, Sensible, 65525.38, 0.71438, 0.71438, FORT MCMURRAY AP ANN HTG 99.6% CONDNS DB, 1/21 00:10:00
 System Sizing Information, SYS_4_PSZ_ALL_ST=WHOLEBUILDING_FL=STORY 4_SCH=E, Cooling, Sensible, 107131.02, 7.18523, 7.18523, FORT MCMURRAY AP ANN CLG .4% CONDNS DB=>MWB, 7/21 05:00:00
 System Sizing Information, SYS_4_PSZ_ALL_ST=WHOLEBUILDING_FL=STORY 4_SCH=E, Heating, Sensible, 263266.42, 2.87020, 2.87020, FORT MCMURRAY AP ANN HTG 99.6% CONDNS DB, 1/21 00:10:00
 System Sizing Information, SYS_4_PSZ_ALL_ST=WHOLEBUILDING_FL=STORY 4_SCH=F, Cooling, Sensible, 60134.18, 4.11890, 4.11890, FORT MCMURRAY AP ANN CLG .4% CONDNS DB=>MWB, 7/21 05:00:00
 System Sizing Information, SYS_4_PSZ_ALL_ST=WHOLEBUILDING_FL=STORY 4_SCH=F, Heating, Sensible, 150743.55, 2.28398, 2.28398, FORT MCMURRAY AP ANN HTG 99.6% CONDNS DB, 1/21 09:00:00
 System Sizing Information, SYS_6_VAV WITH REHEAT, Cooling, Sensible, 114013.37, 8.05815, 8.05815, FORT MCMURRAY AP ANN CLG .4% CONDNS DB=>MWB, 7/21 00:00:00
 System Sizing Information, SYS_6_VAV WITH REHEAT, Heating, Sensible, 460087.45, 8.05815, 8.05815, FORT MCMURRAY AP ANN HTG 99.6% CONDNS DB, 1/21 00:10:00
 System Sizing Information, SYS_6_VAV WITH REHEAT 1, Cooling, Sensible, 51686.56, 3.72218, 3.72218, FORT MCMURRAY AP ANN CLG .4% CONDNS DB=>MWB, 7/21 00:00:00
 System Sizing Information, SYS_6_VAV WITH REHEAT 1, Heating, Sensible, 42963.25, 0.75248, 0.75248, FORT MCMURRAY AP ANN HTG 99.6% CONDNS DB, 1/21 00:10:00
 System Sizing Information, SYS_6_VAV WITH REHEAT 2, Cooling, Sensible, 76752.69, 6.41501, 6.41501, FORT MCMURRAY AP ANN CLG .4% CONDNS DB=>MWB, 7/21 00:00:00
 System Sizing Information, SYS_6_VAV WITH REHEAT 2, Heating, Sensible, 133784.29, 2.34315, 2.34315, FORT MCMURRAY AP ANN HTG 99.6% CONDNS DB, 1/21 00:10:00
! <Component Sizing Information>, Component Type, Component Name, Input Field Description, Value
 Component Sizing Information, AirTerminal:SingleDuct:VAV:Reheat, AIR TERMINAL SINGLE DUCT VAV REHEAT 2, Design Size Maximum Air Flow Rate [m3/s], 5.71500
 Component Sizing Information, AirTerminal:SingleDuct:VAV:Reheat, AIR TERMINAL SINGLE DUCT VAV REHEAT 2, Design Size Constant Minimum Air Flow Fraction, 0.33333
 Component Sizing Information, AirTerminal:SingleDuct:VAV:Reheat, AIR TERMINAL SINGLE DUCT VAV REHEAT 2, User-Specified Constant Minimum Air Flow Fraction, 0.30000
 Component Sizing Information, AirTerminal:SingleDuct:VAV:Reheat, AIR TERMINAL SINGLE DUCT VAV REHEAT 2, Design Size Minimum Air Flow Rate [m3/s], 1.71450
 Component Sizing Information, AirTerminal:SingleDuct:VAV:Reheat, AIR TERMINAL SINGLE DUCT VAV REHEAT 2, Design Size Maximum Flow per Zone Floor Area during Reheat [m3/s-m2], 6.85800E-004
 Component Sizing Information, AirTerminal:SingleDuct:VAV:Reheat, AIR TERMINAL SINGLE DUCT VAV REHEAT 2, Design Size Maximum Flow Fraction during Reheat [], 0.30000
 Component Sizing Information, AirTerminal:SingleDuct:VAV:Reheat, AIR TERMINAL SINGLE DUCT VAV REHEAT 2, Design Size Maximum Reheat Water Flow Rate [m3/s], 2.72396E-004
 Component Sizing Information, AirTerminal:SingleDuct:VAV:Reheat, AIR TERMINAL SINGLE DUCT VAV REHEAT 2, Design Size Reheat Coil Sizing Air Volume Flow Rate [m3/s], 1.71450
 Component Sizing Information, AirTerminal:SingleDuct:VAV:Reheat, AIR TERMINAL SINGLE DUCT VAV REHEAT 2, Design Size Reheat Coil Sizing Inlet Air Temperature [C], 13.10000
 Component Sizing Information, AirTerminal:SingleDuct:VAV:Reheat, AIR TERMINAL SINGLE DUCT VAV REHEAT 2, Design Size Reheat Coil Sizing Inlet Air Humidity Ratio [kgWater/kgDryAir], 8.00000E-003
 Component Sizing Information, Coil:Heating:Water, COIL HEATING WATER 6, Design Size Rated Capacity [W], 18237.77507
 Component Sizing Information, Coil:Heating:Water, COIL HEATING WATER 6, Design Size Maximum Water Flow Rate [m3/s], 2.72396E-004
 Component Sizing Information, Coil:Heating:Water, COIL HEATING WATER 6, Design Size U-Factor Times Area Value [W/K], 328.83315
! <Water Heating Coil Capacity Information>,Component Type,Name,Nominal Total Capacity {W}
Water Heating Coil Capacity Information,Coil:Heating:Water,COIL HEATING WATER 6,17100.44
 Component Sizing Information, ZoneHVAC:Baseboard:Convective:Water, ZONE HVAC BASEBOARD CONVECTIVE WATER 16, Design Size Maximum Water Flow Rate [m3/s], 0.00000
 Component Sizing Information, ZoneHVAC:Baseboard:Convective:Water, ZONE HVAC BASEBOARD CONVECTIVE WATER 16, Design Size U-Factor Times Area Value [W/K], 0.00000
 Component Sizing Information, AirTerminal:SingleDuct:Uncontrolled, AIR TERMINAL SINGLE DUCT UNCONTROLLED 13, Design Size Maximum Air Flow Rate [m3/s], 2.95116
 Component Sizing Information, ZoneHVAC:Baseboard:Convective:Water, ZONE HVAC BASEBOARD CONVECTIVE WATER 13, Design Size Maximum Water Flow Rate [m3/s], 0.00000
 Component Sizing Information, ZoneHVAC:Baseboard:Convective:Water, ZONE HVAC BASEBOARD CONVECTIVE WATER 13, Design Size U-Factor Times Area Value [W/K], 0.00000
 Component Sizing Information, AirTerminal:SingleDuct:VAV:Reheat, AIR TERMINAL SINGLE DUCT VAV REHEAT 1, Design Size Maximum Air Flow Rate [m3/s], 2.34315
 Component Sizing Information, AirTerminal:SingleDuct:VAV:Reheat, AIR TERMINAL SINGLE DUCT VAV REHEAT 1, Design Size Constant Minimum Air Flow Fraction, 0.60976
 Component Sizing Information, AirTerminal:SingleDuct:VAV:Reheat, AIR TERMINAL SINGLE DUCT VAV REHEAT 1, User-Specified Constant Minimum Air Flow Fraction, 0.30000
 Component Sizing Information, AirTerminal:SingleDuct:VAV:Reheat, AIR TERMINAL SINGLE DUCT VAV REHEAT 1, Design Size Minimum Air Flow Rate [m3/s], 0.70295
 Component Sizing Information, AirTerminal:SingleDuct:VAV:Reheat, AIR TERMINAL SINGLE DUCT VAV REHEAT 1, Design Size Maximum Flow per Zone Floor Area during Reheat [m3/s-m2], 3.74904E-004
 Component Sizing Information, AirTerminal:SingleDuct:VAV:Reheat, AIR TERMINAL SINGLE DUCT VAV REHEAT 1, Design Size Maximum Flow Fraction during Reheat [], 0.30000
 Component Sizing Information, AirTerminal:SingleDuct:VAV:Reheat, AIR TERMINAL SINGLE DUCT VAV REHEAT 1, Design Size Maximum Reheat Water Flow Rate [m3/s], 1.11682E-004
 Component Sizing Information, AirTerminal:SingleDuct:VAV:Reheat, AIR TERMINAL SINGLE DUCT VAV REHEAT 1, Design Size Reheat Coil Sizing Air Volume Flow Rate [m3/s], 0.70295
 Component Sizing Information, AirTerminal:SingleDuct:VAV:Reheat, AIR TERMINAL SINGLE DUCT VAV REHEAT 1, Design Size Reheat Coil Sizing Inlet Air Temperature [C], 13.10000
 Component Sizing Information, AirTerminal:SingleDuct:VAV:Reheat, AIR TERMINAL SINGLE DUCT VAV REHEAT 1, Design Size Reheat Coil Sizing Inlet Air Humidity Ratio [kgWater/kgDryAir], 8.00000E-003
 Component Sizing Information, Coil:Heating:Water, COIL HEATING WATER 5, Design Size Rated Capacity [W], 7477.48778
 Component Sizing Information, Coil:Heating:Water, COIL HEATING WATER 5, Design Size Maximum Water Flow Rate [m3/s], 1.11682E-004
 Component Sizing Information, Coil:Heating:Water, COIL HEATING WATER 5, Design Size U-Factor Times Area Value [W/K], 134.82159
Water Heating Coil Capacity Information,Coil:Heating:Water,COIL HEATING WATER 5,7011.18
 Component Sizing Information, ZoneHVAC:Baseboard:Convective:Water, ZONE HVAC BASEBOARD CONVECTIVE WATER 15, Design Size Maximum Water Flow Rate [m3/s], 0.00000
 Component Sizing Information, ZoneHVAC:Baseboard:Convective:Water, ZONE HVAC BASEBOARD CONVECTIVE WATER 15, Design Size U-Factor Times Area Value [W/K], 0.00000
 Component Sizing Information, AirTerminal:SingleDuct:VAV:Reheat, AIR TERMINAL SINGLE DUCT VAV REHEAT 3, Design Size Maximum Air Flow Rate [m3/s], 3.72218
 Component Sizing Information, AirTerminal:SingleDuct:VAV:Reheat, AIR TERMINAL SINGLE DUCT VAV REHEAT 3, Design Size Constant Minimum Air Flow Fraction, 0.38385
 Component Sizing Information, AirTerminal:SingleDuct:VAV:Reheat, AIR TERMINAL SINGLE DUCT VAV REHEAT 3, User-Specified Constant Minimum Air Flow Fraction, 0.30000
 Component Sizing Information, AirTerminal:SingleDuct:VAV:Reheat, AIR TERMINAL SINGLE DUCT VAV REHEAT 3, Design Size Minimum Air Flow Rate [m3/s], 1.11665
 Component Sizing Information, AirTerminal:SingleDuct:VAV:Reheat, AIR TERMINAL SINGLE DUCT VAV REHEAT 3, Design Size Maximum Flow per Zone Floor Area during Reheat [m3/s-m2], 5.95549E-004
 Component Sizing Information, AirTerminal:SingleDuct:VAV:Reheat, AIR TERMINAL SINGLE DUCT VAV REHEAT 3, Design Size Maximum Flow Fraction during Reheat [], 0.30000
 Component Sizing Information, AirTerminal:SingleDuct:VAV:Reheat, AIR TERMINAL SINGLE DUCT VAV REHEAT 3, Design Size Maximum Reheat Water Flow Rate [m3/s], 0.00000
 Component Sizing Information, AirTerminal:SingleDuct:VAV:Reheat, AIR TERMINAL SINGLE DUCT VAV REHEAT 3, Design Size Reheat Coil Sizing Air Volume Flow Rate [m3/s], 1.11665
 Component Sizing Information, AirTerminal:SingleDuct:VAV:Reheat, AIR TERMINAL SINGLE DUCT VAV REHEAT 3, Design Size Reheat Coil Sizing Inlet Air Temperature [C], 13.10000
 Component Sizing Information, AirTerminal:SingleDuct:VAV:Reheat, AIR TERMINAL SINGLE DUCT VAV REHEAT 3, Design Size Reheat Coil Sizing Inlet Air Humidity Ratio [kgWater/kgDryAir], 8.00000E-003
 Component Sizing Information, Coil:Heating:Water, COIL HEATING WATER 8, User-Specified Rated Capacity [W], 6699.92294
 Component Sizing Information, Coil:Heating:Water, COIL HEATING WATER 8, Design Size Maximum Water Flow Rate [m3/s], 1.46693E-004
 Component Sizing Information, Coil:Heating:Water, COIL HEATING WATER 8, Design Size U-Factor Times Area Value [W/K], 133.89788
Water Heating Coil Capacity Information,Coil:Heating:Water,COIL HEATING WATER 8,6713.46
 Component Sizing Information, ZoneHVAC:Baseboard:Convective:Water, ZONE HVAC BASEBOARD CONVECTIVE WATER 17, Design Size Maximum Water Flow Rate [m3/s], 1.58940E-005
 Component Sizing Information, ZoneHVAC:Baseboard:Convective:Water, ZONE HVAC BASEBOARD CONVECTIVE WATER 17, Design Size U-Factor Times Area Value [W/K], 20.66850
 Component Sizing Information, ZoneHVAC:FourPipeFanCoil, ZONE HVAC FOUR PIPE FAN COIL 1, Design Size Maximum Supply Air Flow Rate [m3/s], 3.26712
 Component Sizing Information, Fan:ConstantVolume, FAN CONSTANT VOLUME 19, Design Size Maximum Flow Rate [m3/s], 3.26712
 Component Sizing Information, ZoneHVAC:FourPipeFanCoil, ZONE HVAC FOUR PIPE FAN COIL 1, Design Size Maximum Outdoor Air Flow Rate [m3/s], 1.81610
 Component Sizing Information, ZoneHVAC:FourPipeFanCoil, ZONE HVAC FOUR PIPE FAN COIL 1, Design Size Maximum Hot Water Flow [m3/s], 2.31795E-003
 Component Sizing Information, ZoneHVAC:FourPipeFanCoil, ZONE HVAC FOUR PIPE FAN COIL 1, Design Size Maximum Cold Water Flow [m3/s], 2.08933E-003
 Component Sizing Information, Coil:Cooling:Water, COIL COOLING WATER 4, Design Size Design Water Flow Rate [m3/s], 2.08933E-003
 Component Sizing Information, Coil:Cooling:Water, COIL COOLING WATER 4, Design Size Design Air Flow Rate [m3/s], 3.26712
 Component Sizing Information, Coil:Cooling:Water, COIL COOLING WATER 4, User-Specified Design Air Flow Rate [m3/s], 3.26712
 Component Sizing Information, Coil:Cooling:Water, COIL COOLING WATER 4, Design Size Design Inlet Air Temperature [C], 25.75830
 Component Sizing Information, Coil:Cooling:Water, COIL COOLING WATER 4, Design Size Design Inlet Water Temperature [C], 7.00000
 Component Sizing Information, Coil:Cooling:Water, COIL COOLING WATER 4, Design Size Design Inlet Air Humidity Ratio, 8.93912E-003
 Component Sizing Information, Coil:Cooling:Water, COIL COOLING WATER 4, Design Size Design Outlet Air Temperature [C], 13.00000
 Component Sizing Information, Coil:Cooling:Water, COIL COOLING WATER 4, Design Size Design Outlet Air Humidity Ratio, 8.50000E-003
! <Water Cooling Coil Capacity Information>,Component Type,Name,Nominal Total Capacity {W},Nominal Sensible Capacity {W},Nominal Latent Capacity {W},Nominal Sensible Heat Ratio, Nominal Coil UA Value {W/C}, Nominal Coil Surface Area {m2}
Water Cooling Coil Capacity Information,Coil:Cooling:Water,COIL COOLING WATER 4,69831.13,49824.01,20007.12,0.71,7478.79,75.85
 Component Sizing Information, Coil:Heating:Water, COIL HEATING WATER 11, Design Size Rated Capacity [W], 155194.00098
 Component Sizing Information, Coil:Heating:Water, COIL HEATING WATER 11, Design Size Maximum Water Flow Rate [m3/s], 2.31795E-003
 Component Sizing Information, Coil:Heating:Water, COIL HEATING WATER 11, Design Size U-Factor Times Area Value [W/K], 2240.89465
Water Heating Coil Capacity Information,Coil:Heating:Water,COIL HEATING WATER 11,85152.32
 Component Sizing Information, AirTerminal:SingleDuct:Uncontrolled, AIR TERMINAL SINGLE DUCT UNCONTROLLED 15, Design Size Maximum Air Flow Rate [m3/s], 3.26712
 Component Sizing Information, AirTerminal:SingleDuct:Uncontrolled, AIR TERMINAL SINGLE DUCT UNCONTROLLED 14, Design Size Maximum Air Flow Rate [m3/s], 3.57854
 Component Sizing Information, ZoneHVAC:Baseboard:Convective:Water, ZONE HVAC BASEBOARD CONVECTIVE WATER 14, Design Size Maximum Water Flow Rate [m3/s], 2.09364E-004
 Component Sizing Information, ZoneHVAC:Baseboard:Convective:Water, ZONE HVAC BASEBOARD CONVECTIVE WATER 14, Design Size U-Factor Times Area Value [W/K], 424.24003
 Component Sizing Information, ZoneHVAC:FourPipeFanCoil, ZONE HVAC FOUR PIPE FAN COIL 2, Design Size Maximum Supply Air Flow Rate [m3/s], 2.48688
 Component Sizing Information, Fan:ConstantVolume, FAN CONSTANT VOLUME 21, Design Size Maximum Flow Rate [m3/s], 2.48688
 Component Sizing Information, ZoneHVAC:FourPipeFanCoil, ZONE HVAC FOUR PIPE FAN COIL 2, Design Size Maximum Outdoor Air Flow Rate [m3/s], 0.90488
 Component Sizing Information, ZoneHVAC:FourPipeFanCoil, ZONE HVAC FOUR PIPE FAN COIL 2, Design Size Maximum Hot Water Flow [m3/s], 1.19550E-003
 Component Sizing Information, ZoneHVAC:FourPipeFanCoil, ZONE HVAC FOUR PIPE FAN COIL 2, Design Size Maximum Cold Water Flow [m3/s], 1.54374E-003
 Component Sizing Information, Coil:Cooling:Water, COIL COOLING WATER 5, Design Size Design Water Flow Rate [m3/s], 1.54374E-003
 Component Sizing Information, Coil:Cooling:Water, COIL COOLING WATER 5, Design Size Design Air Flow Rate [m3/s], 2.48688
 Component Sizing Information, Coil:Cooling:Water, COIL COOLING WATER 5, User-Specified Design Air Flow Rate [m3/s], 2.48688
 Component Sizing Information, Coil:Cooling:Water, COIL COOLING WATER 5, Design Size Design Inlet Air Temperature [C], 25.15059
 Component Sizing Information, Coil:Cooling:Water, COIL COOLING WATER 5, Design Size Design Inlet Water Temperature [C], 7.00000
 Component Sizing Information, Coil:Cooling:Water, COIL COOLING WATER 5, Design Size Design Inlet Air Humidity Ratio, 9.00034E-003
 Component Sizing Information, Coil:Cooling:Water, COIL COOLING WATER 5, Design Size Design Outlet Air Temperature [C], 13.00000
 Component Sizing Information, Coil:Cooling:Water, COIL COOLING WATER 5, Design Size Design Outlet Air Humidity Ratio, 8.50000E-003
Water Cooling Coil Capacity Information,Coil:Cooling:Water,COIL COOLING WATER 5,52378.20,37565.19,14813.01,0.72,5608.50,56.88
 Component Sizing Information, Coil:Heating:Water, COIL HEATING WATER 12, Design Size Rated Capacity [W], 80042.63816
 Component Sizing Information, Coil:Heating:Water, COIL HEATING WATER 12, Design Size Maximum Water Flow Rate [m3/s], 1.19550E-003
 Component Sizing Information, Coil:Heating:Water, COIL HEATING WATER 12, Design Size U-Factor Times Area Value [W/K], 1185.58144
Water Heating Coil Capacity Information,Coil:Heating:Water,COIL HEATING WATER 12,43926.63
 Component Sizing Information, AirTerminal:SingleDuct:Uncontrolled, AIR TERMINAL SINGLE DUCT UNCONTROLLED 16, Design Size Maximum Air Flow Rate [m3/s], 2.48688
 Component Sizing Information, AirTerminal:SingleDuct:Uncontrolled, AIR TERMINAL SINGLE DUCT UNCONTROLLED 12, Design Size Maximum Air Flow Rate [m3/s], 4.44695
 Component Sizing Information, ZoneHVAC:Baseboard:Convective:Water, ZONE HVAC BASEBOARD CONVECTIVE WATER 12, Design Size Maximum Water Flow Rate [m3/s], 0.00000
 Component Sizing Information, ZoneHVAC:Baseboard:Convective:Water, ZONE HVAC BASEBOARD CONVECTIVE WATER 12, Design Size U-Factor Times Area Value [W/K], 0.00000
 Component Sizing Information, AirTerminal:SingleDuct:Uncontrolled, AIR TERMINAL SINGLE DUCT UNCONTROLLED 9, Design Size Maximum Air Flow Rate [m3/s], 4.04445
 Component Sizing Information, ZoneHVAC:Baseboard:Convective:Water, ZONE HVAC BASEBOARD CONVECTIVE WATER 9, Design Size Maximum Water Flow Rate [m3/s], 3.50309E-004
 Component Sizing Information, ZoneHVAC:Baseboard:Convective:Water, ZONE HVAC BASEBOARD CONVECTIVE WATER 9, Design Size U-Factor Times Area Value [W/K], 710.43039
 Component Sizing Information, AirTerminal:SingleDuct:Uncontrolled, AIR TERMINAL SINGLE DUCT UNCONTROLLED 10, Design Size Maximum Air Flow Rate [m3/s], 4.40976
 Component Sizing Information, ZoneHVAC:Baseboard:Convective:Water, ZONE HVAC BASEBOARD CONVECTIVE WATER 10, Design Size Maximum Water Flow Rate [m3/s], 2.15901E-004
 Component Sizing Information, ZoneHVAC:Baseboard:Convective:Water, ZONE HVAC BASEBOARD CONVECTIVE WATER 10, Design Size U-Factor Times Area Value [W/K], 437.24951
 Component Sizing Information, AirTerminal:SingleDuct:Uncontrolled, AIR TERMINAL SINGLE DUCT UNCONTROLLED 11, Design Size Maximum Air Flow Rate [m3/s], 3.05853
 Component Sizing Information, ZoneHVAC:Baseboard:Convective:Water, ZONE HVAC BASEBOARD CONVECTIVE WATER 11, Design Size Maximum Water Flow Rate [m3/s], 3.90000E-004
 Component Sizing Information, ZoneHVAC:Baseboard:Convective:Water, ZONE HVAC BASEBOARD CONVECTIVE WATER 11, Design Size U-Factor Times Area Value [W/K], 791.39214
 Component Sizing Information, AirTerminal:SingleDuct:Uncontrolled, AIR TERMINAL SINGLE DUCT UNCONTROLLED 7, Design Size Maximum Air Flow Rate [m3/s], 4.44652
 Component Sizing Information, ZoneHVAC:Baseboard:Convective:Water, ZONE HVAC BASEBOARD CONVECTIVE WATER 7, Design Size Maximum Water Flow Rate [m3/s], 0.00000
 Component Sizing Information, ZoneHVAC:Baseboard:Convective:Water, ZONE HVAC BASEBOARD CONVECTIVE WATER 7, Design Size U-Factor Times Area Value [W/K], 0.00000
 Component Sizing Information, AirTerminal:SingleDuct:Uncontrolled, AIR TERMINAL SINGLE DUCT UNCONTROLLED 8, Design Size Maximum Air Flow Rate [m3/s], 7.04703
 Component Sizing Information, ZoneHVAC:Baseboard:Convective:Water, ZONE HVAC BASEBOARD CONVECTIVE WATER 8, Design Size Maximum Water Flow Rate [m3/s], 9.55010E-004
 Component Sizing Information, ZoneHVAC:Baseboard:Convective:Water, ZONE HVAC BASEBOARD CONVECTIVE WATER 8, Design Size U-Factor Times Area Value [W/K], 1949.20526
 Component Sizing Information, AirTerminal:SingleDuct:VAV:Reheat, AIR TERMINAL SINGLE DUCT VAV REHEAT 4, Design Size Maximum Air Flow Rate [m3/s], 6.41501
 Component Sizing Information, AirTerminal:SingleDuct:VAV:Reheat, AIR TERMINAL SINGLE DUCT VAV REHEAT 4, Design Size Constant Minimum Air Flow Fraction, 0.22272
 Component Sizing Information, AirTerminal:SingleDuct:VAV:Reheat, AIR TERMINAL SINGLE DUCT VAV REHEAT 4, User-Specified Constant Minimum Air Flow Fraction, 0.30000
 Component Sizing Information, AirTerminal:SingleDuct:VAV:Reheat, AIR TERMINAL SINGLE DUCT VAV REHEAT 4, Design Size Minimum Air Flow Rate [m3/s], 1.92450
 Component Sizing Information, AirTerminal:SingleDuct:VAV:Reheat, AIR TERMINAL SINGLE DUCT VAV REHEAT 4, Design Size Maximum Flow per Zone Floor Area during Reheat [m3/s-m2], 1.02640E-003
 Component Sizing Information, AirTerminal:SingleDuct:VAV:Reheat, AIR TERMINAL SINGLE DUCT VAV REHEAT 4, Design Size Maximum Flow Fraction during Reheat [], 0.30000
 Component Sizing Information, AirTerminal:SingleDuct:VAV:Reheat, AIR TERMINAL SINGLE DUCT VAV REHEAT 4, Design Size Maximum Reheat Water Flow Rate [m3/s], 1.21011E-003
 Component Sizing Information, AirTerminal:SingleDuct:VAV:Reheat, AIR TERMINAL SINGLE DUCT VAV REHEAT 4, Design Size Reheat Coil Sizing Air Volume Flow Rate [m3/s], 2.23895
 Component Sizing Information, AirTerminal:SingleDuct:VAV:Reheat, AIR TERMINAL SINGLE DUCT VAV REHEAT 4, Design Size Reheat Coil Sizing Inlet Air Temperature [C], 13.10000
 Component Sizing Information, AirTerminal:SingleDuct:VAV:Reheat, AIR TERMINAL SINGLE DUCT VAV REHEAT 4, Design Size Reheat Coil Sizing Inlet Air Humidity Ratio [kgWater/kgDryAir], 8.00000E-003
 Component Sizing Information, Coil:Heating:Water, COIL HEATING WATER 10, Design Size Rated Capacity [W], 81020.52987
 Component Sizing Information, Coil:Heating:Water, COIL HEATING WATER 10, Design Size Maximum Water Flow Rate [m3/s], 1.21011E-003
 Component Sizing Information, Coil:Heating:Water, COIL HEATING WATER 10, Design Size U-Factor Times Area Value [W/K], 1847.60340
Water Heating Coil Capacity Information,Coil:Heating:Water,COIL HEATING WATER 10,73105.63
 Component Sizing Information, ZoneHVAC:Baseboard:Convective:Water, ZONE HVAC BASEBOARD CONVECTIVE WATER 18, Design Size Maximum Water Flow Rate [m3/s], 8.40558E-004
 Component Sizing Information, ZoneHVAC:Baseboard:Convective:Water, ZONE HVAC BASEBOARD CONVECTIVE WATER 18, Design Size U-Factor Times Area Value [W/K], 1715.68208
 Component Sizing Information, AirTerminal:SingleDuct:Uncontrolled, AIR TERMINAL SINGLE DUCT UNCONTROLLED 5, Design Size Maximum Air Flow Rate [m3/s], 7.18523
 Component Sizing Information, ZoneHVAC:Baseboard:Convective:Water, ZONE HVAC BASEBOARD CONVECTIVE WATER 5, Design Size Maximum Water Flow Rate [m3/s], 7.69428E-004
 Component Sizing Information, ZoneHVAC:Baseboard:Convective:Water, ZONE HVAC BASEBOARD CONVECTIVE WATER 5, Design Size U-Factor Times Area Value [W/K], 1576.01187
 Component Sizing Information, AirTerminal:SingleDuct:Uncontrolled, AIR TERMINAL SINGLE DUCT UNCONTROLLED 6, Design Size Maximum Air Flow Rate [m3/s], 4.11890
 Component Sizing Information, ZoneHVAC:Baseboard:Convective:Water, ZONE HVAC BASEBOARD CONVECTIVE WATER 6, Design Size Maximum Water Flow Rate [m3/s], 8.57143E-004
 Component Sizing Information, ZoneHVAC:Baseboard:Convective:Water, ZONE HVAC BASEBOARD CONVECTIVE WATER 6, Design Size U-Factor Times Area Value [W/K], 1748.78834
 Component Sizing Information, AirTerminal:SingleDuct:Uncontrolled, AIR TERMINAL SINGLE DUCT UNCONTROLLED 1, Design Size Maximum Air Flow Rate [m3/s], 1.43340
 Component Sizing Information, ZoneHVAC:Baseboard:Convective:Water, ZONE HVAC BASEBOARD CONVECTIVE WATER 1, Design Size Maximum Water Flow Rate [m3/s], 0.00000
 Component Sizing Information, ZoneHVAC:Baseboard:Convective:Water, ZONE HVAC BASEBOARD CONVECTIVE WATER 1, Design Size U-Factor Times Area Value [W/K], 0.00000
 Component Sizing Information, ZoneHVAC:PackagedTerminalAirConditioner, DU_BT=HOTEL_ST=WHOLEBUILDING_FL=STORY 1_SCHF PTAC, Design Size Cooling Supply Air Flow Rate [m3/s], 1.85909
 Component Sizing Information, ZoneHVAC:PackagedTerminalAirConditioner, DU_BT=HOTEL_ST=WHOLEBUILDING_FL=STORY 1_SCHF PTAC, Design Size Heating Supply Air Flow Rate [m3/s], 1.85909
 Component Sizing Information, ZoneHVAC:PackagedTerminalAirConditioner, DU_BT=HOTEL_ST=WHOLEBUILDING_FL=STORY 1_SCHF PTAC, Design Size No Load Supply Air Flow Rate [m3/s], 1.85909
 Component Sizing Information, ZoneHVAC:PackagedTerminalAirConditioner, DU_BT=HOTEL_ST=WHOLEBUILDING_FL=STORY 1_SCHF PTAC, Design Size Outdoor Air Flow Rate During Cooling Operation [m3/s], 0.75248
[...]
 Component Sizing Information, Controller:WaterCoil, CONTROLLER WATER COIL 9, Maximum Actuated Flow [m3/s], 2.59316E-003
 Component Sizing Information, Controller:WaterCoil, CONTROLLER WATER COIL 9, Controller Convergence Tolerance, 1.83633E-004
 Component Sizing Information, Controller:WaterCoil, CONTROLLER WATER COIL 8, Maximum Actuated Flow [m3/s], 5.86921E-004
 Component Sizing Information, Fan:VariableVolume, SYS6 RETURN FAN 2, Design Size Maximum Flow Rate [m3/s], 6.41501
 Component Sizing Information, Controller:OutdoorAir, CONTROLLER OUTDOOR AIR 17, Maximum Outdoor Air Flow Rate [m3/s], 6.41501
 Component Sizing Information, Controller:OutdoorAir, CONTROLLER OUTDOOR AIR 17, Minimum Outdoor Air Flow Rate [m3/s], 2.34315
 Component Sizing Information, HeatExchanger:AirToAir:SensibleAndLatent, SYS_6_VAV WITH REHEAT 2 ERV, Design Size Nominal Supply Air Flow Rate [m3/s], 2.34315
 Component Sizing Information, Coil:Cooling:Water, COIL COOLING WATER 3, Design Size Design Coil Load [W], 96082.14943
 Component Sizing Information, Coil:Cooling:Water, COIL COOLING WATER 3, Design Size Design Water Flow Rate [m3/s], 3.81499E-003
 Component Sizing Information, Coil:Cooling:Water, COIL COOLING WATER 3, Design Size Design Air Flow Rate [m3/s], 6.41501
 Component Sizing Information, Coil:Cooling:Water, COIL COOLING WATER 3, Design Size Design Inlet Air Temperature [C], 23.33090
 Component Sizing Information, Coil:Cooling:Water, COIL COOLING WATER 3, Design Size Design Inlet Water Temperature [C], 7.00000
 Component Sizing Information, Coil:Cooling:Water, COIL COOLING WATER 3, Design Size Design Outlet Air Temperature [C], 13.00000
 Component Sizing Information, Coil:Cooling:Water, COIL COOLING WATER 3, Design Size Design Inlet Air Humidity Ratio, 8.66299E-003
 Component Sizing Information, Coil:Cooling:Water, COIL COOLING WATER 3, Design Size Design Outlet Air Humidity Ratio, 8.66299E-003
Water Cooling Coil Capacity Information,Coil:Cooling:Water,COIL COOLING WATER 3,138736.01,99372.88,39363.13,0.72,16244.35,164.76
 Component Sizing Information, Coil:Heating:Water, COIL HEATING WATER 9, Design Size Rated Capacity [W], 109881.26392
 Component Sizing Information, Coil:Heating:Water, COIL HEATING WATER 9, Design Size Maximum Water Flow Rate [m3/s], 1.64117E-003
 Component Sizing Information, Coil:Heating:Water, COIL HEATING WATER 9, Design Size U-Factor Times Area Value [W/K], 1340.87361
Water Heating Coil Capacity Information,Coil:Heating:Water,COIL HEATING WATER 9,61220.86
 Component Sizing Information, Fan:VariableVolume, SYS6 SUPPLY FAN 2, Design Size Maximum Flow Rate [m3/s], 6.41501
 Component Sizing Information, Controller:WaterCoil, CONTROLLER WATER COIL 12, Maximum Actuated Flow [m3/s], 3.81499E-003
 Component Sizing Information, Controller:WaterCoil, CONTROLLER WATER COIL 12, Controller Convergence Tolerance, 1.24821E-004
 Component Sizing Information, Controller:WaterCoil, CONTROLLER WATER COIL 11, Maximum Actuated Flow [m3/s], 1.64117E-003
Water Heater Information,WaterHeater:Mixed,1023GAL NATURALGAS WATER HEATER - 1720KBTU/HR 0.803 THERM EFF,3.8732,504104.0,0.182,0.2282
 Component Sizing Information, PlantLoop, CHILLED WATER LOOP, Maximum Loop Flow Rate [m3/s], 1.18414E-002
 Component Sizing Information, PlantLoop, CHILLED WATER LOOP, Plant Loop Volume [m3], 1.42096
 Component Sizing Information, Pump:ConstantSpeed, PUMP CONSTANT SPEED 1, Design Flow Rate [m3/s], 1.18414E-002
 Component Sizing Information, Pump:ConstantSpeed, PUMP CONSTANT SPEED 1, Design Power Consumption [W], 3042.21473
 Component Sizing Information, Chiller:Electric:EIR, PRIMARY CHILLER WATERCOOLED SCROLL 86TONS 0.8KW/TON, Design Size Reference Chilled Water Flow Rate [m3/s], 1.18414E-002
 Component Sizing Information, Chiller:Electric:EIR, PRIMARY CHILLER WATERCOOLED SCROLL 86TONS 0.8KW/TON, Design Size Reference Capacity [W], 298224.57009
 Component Sizing Information, Chiller:Electric:EIR, PRIMARY CHILLER WATERCOOLED SCROLL 86TONS 0.8KW/TON, User-Specified Reference Capacity [W], 301754.34253
 Component Sizing Information, Chiller:Electric:EIR, PRIMARY CHILLER WATERCOOLED SCROLL 86TONS 0.8KW/TON, Design Size Reference Condenser Fluid Flow Rate [m3/s], 1.46814E-002
! <Chiller Standard Rating Information>, Component Type, Component Name, IPLV in SI Units {W/W}, IPLV in IP Units {Btu/W-h}
 Chiller Standard Rating Information, Chiller:Electric:EIR, PRIMARY CHILLER WATERCOOLED SCROLL 86TONS 0.8KW/TON, 5.66, 19.31
 Component Sizing Information, Chiller:Electric:EIR, SECONDARY CHILLER WATERCOOLED SCROLL 0TONS 0.8KW/TON, Design Size Reference Chilled Water Flow Rate [m3/s], 1.18414E-002
 Component Sizing Information, Chiller:Electric:EIR, SECONDARY CHILLER WATERCOOLED SCROLL 0TONS 0.8KW/TON, Design Size Reference Capacity [W], 298224.57009
 Component Sizing Information, Chiller:Electric:EIR, SECONDARY CHILLER WATERCOOLED SCROLL 0TONS 0.8KW/TON, User-Specified Reference Capacity [W], 1.00000E-003
 Component Sizing Information, Chiller:Electric:EIR, SECONDARY CHILLER WATERCOOLED SCROLL 0TONS 0.8KW/TON, Design Size Reference Condenser Fluid Flow Rate [m3/s], 4.87330E-011
 Chiller Standard Rating Information, Chiller:Electric:EIR, SECONDARY CHILLER WATERCOOLED SCROLL 0TONS 0.8KW/TON, 5.61, 19.14
 Component Sizing Information, PlantLoop, CHILLED WATER LOOP 1, Maximum Loop Flow Rate [m3/s], 2.08933E-003
 Component Sizing Information, PlantLoop, CHILLED WATER LOOP 1, Plant Loop Volume [m3], 0.25072
 Component Sizing Information, Pump:ConstantSpeed, PUMP CONSTANT SPEED 3, Design Flow Rate [m3/s], 2.08933E-003
 Component Sizing Information, Pump:ConstantSpeed, PUMP CONSTANT SPEED 3, Design Power Consumption [W], 561.89100
 Component Sizing Information, Chiller:Electric:EIR, PRIMARY CHILLER WATERCOOLED SCROLL 1 15TONS 0.8KW/TON, Design Size Reference Chilled Water Flow Rate [m3/s], 2.08933E-003
 Component Sizing Information, Chiller:Electric:EIR, PRIMARY CHILLER WATERCOOLED SCROLL 1 15TONS 0.8KW/TON, Design Size Reference Capacity [W], 52619.74171
 Component Sizing Information, Chiller:Electric:EIR, PRIMARY CHILLER WATERCOOLED SCROLL 1 15TONS 0.8KW/TON, User-Specified Reference Capacity [W], 52619.74171
 Component Sizing Information, Chiller:Electric:EIR, PRIMARY CHILLER WATERCOOLED SCROLL 1 15TONS 0.8KW/TON, Design Size Reference Condenser Fluid Flow Rate [m3/s], 2.56432E-003
 Chiller Standard Rating Information, Chiller:Electric:EIR, PRIMARY CHILLER WATERCOOLED SCROLL 1 15TONS 0.8KW/TON, 5.61, 19.14
 Component Sizing Information, Chiller:Electric:EIR, SECONDARY CHILLER WATERCOOLED SCROLL 1 0TONS 0.8KW/TON, Design Size Reference Chilled Water Flow Rate [m3/s], 2.08933E-003
 Component Sizing Information, Chiller:Electric:EIR, SECONDARY CHILLER WATERCOOLED SCROLL 1 0TONS 0.8KW/TON, Design Size Reference Capacity [W], 52619.74171
 Component Sizing Information, Chiller:Electric:EIR, SECONDARY CHILLER WATERCOOLED SCROLL 1 0TONS 0.8KW/TON, User-Specified Reference Capacity [W], 1.00000E-003
 Component Sizing Information, Chiller:Electric:EIR, SECONDARY CHILLER WATERCOOLED SCROLL 1 0TONS 0.8KW/TON, Design Size Reference Condenser Fluid Flow Rate [m3/s], 4.87330E-011
 Chiller Standard Rating Information, Chiller:Electric:EIR, SECONDARY CHILLER WATERCOOLED SCROLL 1 0TONS 0.8KW/TON, 5.61, 19.14
 Component Sizing Information, PlantLoop, CHILLED WATER LOOP 2, Maximum Loop Flow Rate [m3/s], 1.54374E-003
 Component Sizing Information, PlantLoop, CHILLED WATER LOOP 2, Plant Loop Volume [m3], 0.18525
 Component Sizing Information, Pump:ConstantSpeed, PUMP CONSTANT SPEED 5, Design Flow Rate [m3/s], 1.54374E-003
 Component Sizing Information, Pump:ConstantSpeed, PUMP CONSTANT SPEED 5, Design Power Consumption [W], 415.16352
 Component Sizing Information, Chiller:Electric:EIR, PRIMARY CHILLER WATERCOOLED SCROLL 2 11TONS 0.8KW/TON, Design Size Reference Chilled Water Flow Rate [m3/s], 1.54374E-003
 Component Sizing Information, Chiller:Electric:EIR, PRIMARY CHILLER WATERCOOLED SCROLL 2 11TONS 0.8KW/TON, Design Size Reference Capacity [W], 38879.06593
 Component Sizing Information, Chiller:Electric:EIR, PRIMARY CHILLER WATERCOOLED SCROLL 2 11TONS 0.8KW/TON, User-Specified Reference Capacity [W], 38879.06593
 Component Sizing Information, Chiller:Electric:EIR, PRIMARY CHILLER WATERCOOLED SCROLL 2 11TONS 0.8KW/TON, Design Size Reference Condenser Fluid Flow Rate [m3/s], 1.89469E-003
 Chiller Standard Rating Information, Chiller:Electric:EIR, PRIMARY CHILLER WATERCOOLED SCROLL 2 11TONS 0.8KW/TON, 5.61, 19.14
 Component Sizing Information, Chiller:Electric:EIR, SECONDARY CHILLER WATERCOOLED SCROLL 2 0TONS 0.8KW/TON, Design Size Reference Chilled Water Flow Rate [m3/s], 1.54374E-003
 Component Sizing Information, Chiller:Electric:EIR, SECONDARY CHILLER WATERCOOLED SCROLL 2 0TONS 0.8KW/TON, Design Size Reference Capacity [W], 38879.06593
 Component Sizing Information, Chiller:Electric:EIR, SECONDARY CHILLER WATERCOOLED SCROLL 2 0TONS 0.8KW/TON, User-Specified Reference Capacity [W], 1.00000E-003
 Component Sizing Information, Chiller:Electric:EIR, SECONDARY CHILLER WATERCOOLED SCROLL 2 0TONS 0.8KW/TON, Design Size Reference Condenser Fluid Flow Rate [m3/s], 4.87330E-011
 Chiller Standard Rating Information, Chiller:Electric:EIR, SECONDARY CHILLER WATERCOOLED SCROLL 2 0TONS 0.8KW/TON, 5.61, 19.14
 Component Sizing Information, PlantLoop, CONDENSER WATER LOOP, Maximum Loop Flow Rate [m3/s], 1.46814E-002
 Component Sizing Information, PlantLoop, CONDENSER WATER LOOP, Plant Loop Volume [m3], 1.76177
 Component Sizing Information, Pump:ConstantSpeed, PUMP CONSTANT SPEED 2, Design Flow Rate [m3/s], 1.46814E-002
 Component Sizing Information, Pump:ConstantSpeed, PUMP CONSTANT SPEED 2, Design Power Consumption [W], 3681.38466
 Component Sizing Information, CoolingTower:SingleSpeed, COOLING TOWER SINGLE SPEED 1, Design Water Flow Rate [m3/s], 1.46814E-002
 Component Sizing Information, CoolingTower:SingleSpeed, COOLING TOWER SINGLE SPEED 1, Fan Power at Design Air Flow Rate [W], 3221.36115
 Component Sizing Information, CoolingTower:SingleSpeed, COOLING TOWER SINGLE SPEED 1, Design Air Flow Rate [m3/s], 8.85810
 Component Sizing Information, CoolingTower:SingleSpeed, COOLING TOWER SINGLE SPEED 1, U-Factor Times Area Value at Design Air Flow Rate [W/C], 15818.19802
 Component Sizing Information, CoolingTower:SingleSpeed, COOLING TOWER SINGLE SPEED 1, Free Convection Regime Air Flow Rate [m3/s], 0.88581
 Component Sizing Information, CoolingTower:SingleSpeed, COOLING TOWER SINGLE SPEED 1, Free Convection U-Factor Times Area Value [W/K], 1581.81980
 Component Sizing Information, PlantLoop, CONDENSER WATER LOOP 1, Maximum Loop Flow Rate [m3/s], 2.56432E-003
 Component Sizing Information, PlantLoop, CONDENSER WATER LOOP 1, Plant Loop Volume [m3], 0.30772
 Component Sizing Information, Pump:ConstantSpeed, PUMP CONSTANT SPEED 4, Design Flow Rate [m3/s], 2.56432E-003
 Component Sizing Information, Pump:ConstantSpeed, PUMP CONSTANT SPEED 4, Design Power Consumption [W], 681.65953
 Component Sizing Information, CoolingTower:SingleSpeed, COOLING TOWER SINGLE SPEED 2, Design Water Flow Rate [m3/s], 2.56432E-003
 Component Sizing Information, CoolingTower:SingleSpeed, COOLING TOWER SINGLE SPEED 2, Fan Power at Design Air Flow Rate [W], 562.65542
 Component Sizing Information, CoolingTower:SingleSpeed, COOLING TOWER SINGLE SPEED 2, Design Air Flow Rate [m3/s], 1.54719
 Component Sizing Information, CoolingTower:SingleSpeed, COOLING TOWER SINGLE SPEED 2, U-Factor Times Area Value at Design Air Flow Rate [W/C], 2762.86773
 Component Sizing Information, CoolingTower:SingleSpeed, COOLING TOWER SINGLE SPEED 2, Free Convection Regime Air Flow Rate [m3/s], 0.15472
 Component Sizing Information, CoolingTower:SingleSpeed, COOLING TOWER SINGLE SPEED 2, Free Convection U-Factor Times Area Value [W/K], 276.28677
 Component Sizing Information, PlantLoop, CONDENSER WATER LOOP 2, Maximum Loop Flow Rate [m3/s], 1.89469E-003
 Component Sizing Information, PlantLoop, CONDENSER WATER LOOP 2, Plant Loop Volume [m3], 0.22736
 Component Sizing Information, Pump:ConstantSpeed, PUMP CONSTANT SPEED 6, Design Flow Rate [m3/s], 1.89469E-003
 Component Sizing Information, Pump:ConstantSpeed, PUMP CONSTANT SPEED 6, Design Power Consumption [W], 503.65671
 Component Sizing Information, CoolingTower:SingleSpeed, COOLING TOWER SINGLE SPEED 3, Design Water Flow Rate [m3/s], 1.89469E-003
 Component Sizing Information, CoolingTower:SingleSpeed, COOLING TOWER SINGLE SPEED 3, Design Air Flow Rate [m3/s], 1.95976
 Component Sizing Information, CoolingTower:SingleSpeed, COOLING TOWER SINGLE SPEED 3, U-Factor Times Area Value at Design Air Flow Rate [W/C], 1657.81281
 Component Sizing Information, CoolingTower:SingleSpeed, COOLING TOWER SINGLE SPEED 3, Free Convection Regime Air Flow Rate [m3/s], 0.19598
 Component Sizing Information, CoolingTower:SingleSpeed, COOLING TOWER SINGLE SPEED 3, Free Convection U-Factor Times Area Value [W/K], 165.78128
 Component Sizing Information, PlantLoop, HOT WATER LOOP, Maximum Loop Flow Rate [m3/s], 1.82741E-002
 Component Sizing Information, PlantLoop, HOT WATER LOOP, Plant Loop Volume [m3], 2.19289
 Component Sizing Information, Pump:VariableSpeed, PUMP VARIABLE SPEED 1, Design Flow Rate [m3/s], 1.82741E-002
 Component Sizing Information, Pump:VariableSpeed, PUMP VARIABLE SPEED 1, Design Power Consumption [W], 4582.24010
 Component Sizing Information, Boiler:HotWater, PRIMARY BOILER 4157KBTU/HR 0.833 COMBUSTION EFF, Design Size Nominal Capacity [W], 1228243.84196
 Component Sizing Information, Boiler:HotWater, PRIMARY BOILER 4157KBTU/HR 0.833 COMBUSTION EFF, User-Specified Nominal Capacity [W], 1218384.25922
 Component Sizing Information, Boiler:HotWater, PRIMARY BOILER 4157KBTU/HR 0.833 COMBUSTION EFF, Design Size Design Water Flow Rate [m3/s], 1.82741E-002
 Component Sizing Information, Boiler:HotWater, SECONDARY BOILER 0KBTU/HR 0.85 AFUE, Design Size Nominal Capacity [W], 1228243.84196
 Component Sizing Information, Boiler:HotWater, SECONDARY BOILER 0KBTU/HR 0.85 AFUE, User-Specified Nominal Capacity [W], 1.00000E-003
 Component Sizing Information, Boiler:HotWater, SECONDARY BOILER 0KBTU/HR 0.85 AFUE, Design Size Design Water Flow Rate [m3/s], 1.82741E-002
 Component Sizing Information, PlantLoop, MAIN SERVICE WATER LOOP, Maximum Loop Flow Rate [m3/s], 1.79754E-003
 Component Sizing Information, PlantLoop, MAIN SERVICE WATER LOOP, Plant Loop Volume [m3], 0.21571
 Component Sizing Information, Pump:ConstantSpeed, SERVICE WATER LOOP PUMP, Design Flow Rate [m3/s], 1.79754E-003
 Component Sizing Information, Pump:ConstantSpeed, SERVICE WATER LOOP PUMP, Design Power Consumption [W], 332.90148
 Component Sizing Information, WaterHeater:Mixed, 1023GAL NATURALGAS WATER HEATER - 1720KBTU/HR 0.803 THERM EFF, Use Side Design Flow Rate [m3/s], 1.79754E-003
! <Environment>,Environment Name,Environment Type, Start Date, End Date, Start DayOfWeek, Duration {#days}, Source:Start DayOfWeek,  Use Daylight Saving, Use Holidays, Apply Weekend Holiday Rule,  Use Rain Values, Use Snow Values
! <Environment:Special Days>, Special Day Name, Special Day Type, Source, Start Date, Duration {#days}
! <Environment:Daylight Saving>, Daylight Saving Indicator, Source, Start Date, End Date
! <Environment:WarmupDays>, NumberofWarmupDays
Environment,RUN PERIOD 1,WeatherFileRunPeriod,01/01,12/31,Sunday,365,Use RunPeriod Specified Day,No,No,No,Yes,Yes
Environment:Daylight Saving,No,RunPeriod Object
Environment:WarmupDays, 25
! <Tabular Report>,Style,Unit Conversion
Tabular Report,HTML,None
! <Warmup Convergence Information>,Zone Name,Environment Type/Name,Average Warmup Temperature Difference {deltaC},Std Dev Warmup Temperature Difference {deltaC},Max Temperature Pass/Fail Convergence,Min Temperature Pass/Fail Convergence,Average Warmup Load Difference {W},Std Dev Warmup Load Difference {W},Heating Load Pass/Fail Convergence,Cooling Load Pass/Fail Convergence
 Warmup Convergence Information,ALL_ST=WHOLEBUILDING_FL=STORY 1_SCH=A,RunPeriod: RUN PERIOD 1,0.1259545971,0.1923033579,Pass,Pass,3.1186680833E-002,0.1539636110,Pass,Pass
 Warmup Convergence Information,ALL_ST=WHOLEBUILDING_FL=STORY 1_SCH=A 1,RunPeriod: RUN PERIOD 1,6.3458369727E-003,4.7365312145E-003,Pass,Pass,0.0000000000,0.0000000000,Pass,Pass
 Warmup Convergence Information,ALL_ST=WHOLEBUILDING_FL=STORY 1_SCH=B,RunPeriod: RUN PERIOD 1,6.3577580375E-002,0.1064037566,Pass,Pass,4.1353226404E-002,0.1870173348,Pass,Pass
 Warmup Convergence Information,ALL_ST=WHOLEBUILDING_FL=STORY 2_SCH=A,RunPeriod: RUN PERIOD 1,3.3398536569E-002,4.0665335988E-002,Pass,Pass,0.0000000000,0.0000000000,Pass,Pass
 Warmup Convergence Information,ALL_ST=WHOLEBUILDING_FL=STORY 2_SCH=C,RunPeriod: RUN PERIOD 1,6.5187187277E-002,0.2565403041,Pass,Pass,0.2985992198,1.4968318630,Fail,Pass
 Warmup Convergence Information,ALL_ST=WHOLEBUILDING_FL=STORY 2_SCH=C 1,RunPeriod: RUN PERIOD 1,2.8954505750E-002,0.1490465094,Pass,Pass,4.3964552696E-002,0.1683518344,Fail,Pass
 Warmup Convergence Information,ALL_ST=WHOLEBUILDING_FL=STORY 2_SCH=C 2,RunPeriod: RUN PERIOD 1,6.3722914082E-002,0.2092193369,Pass,Pass,0.5351513317,3.8731657706,Fail,Pass
 Warmup Convergence Information,ALL_ST=WHOLEBUILDING_FL=STORY 2_SCH=H,RunPeriod: RUN PERIOD 1,2.5521672681E-002,0.1540585986,Pass,Pass,1.4438166903E-002,6.1208378337E-002,Pass,Fail
 Warmup Convergence Information,ALL_ST=WHOLEBUILDING_FL=STORY 3_SCH=B,RunPeriod: RUN PERIOD 1,6.9090441615E-002,0.1408301084,Pass,Pass,3.0984823693E-002,0.1318923537,Fail,Fail
 Warmup Convergence Information,ALL_ST=WHOLEBUILDING_FL=STORY 3_SCH=B 1,RunPeriod: RUN PERIOD 1,3.3826230087E-002,9.5997029738E-002,Pass,Pass,2.6847557050E-002,9.9517432864E-002,Pass,Pass
 Warmup Convergence Information,ALL_ST=WHOLEBUILDING_FL=STORY 3_SCH=B 2,RunPeriod: RUN PERIOD 1,3.4783570948E-002,0.1457474265,Pass,Pass,7.4043044900E-002,0.2349183758,Fail,Pass
 Warmup Convergence Information,ALL_ST=WHOLEBUILDING_FL=STORY 3_SCH=C,RunPeriod: RUN PERIOD 1,2.9119561750E-002,0.1473176942,Pass,Pass,4.8127654156E-002,0.2449404820,Fail,Pass
 Warmup Convergence Information,ALL_ST=WHOLEBUILDING_FL=STORY 4_SCH=A,RunPeriod: RUN PERIOD 1,1.8114337790E-002,4.5176931464E-002,Pass,Pass,9.2574784337E-002,0.3594615657,Pass,Pass
 Warmup Convergence Information,ALL_ST=WHOLEBUILDING_FL=STORY 4_SCH=B,RunPeriod: RUN PERIOD 1,9.2856667267E-002,0.2900822356,Pass,Pass,0.3716379692,1.1793499299,Fail,Fail
 Warmup Convergence Information,ALL_ST=WHOLEBUILDING_FL=STORY 4_SCH=E,RunPeriod: RUN PERIOD 1,2.0633441099E-002,3.0296617098E-002,Pass,Pass,8.4470747120E-002,0.5341677374,Pass,Pass
 Warmup Convergence Information,ALL_ST=WHOLEBUILDING_FL=STORY 4_SCH=F,RunPeriod: RUN PERIOD 1,5.5606658781E-002,0.2778168903,Pass,Pass,0.2872655959,1.1178276186,Fail,Pass
 Warmup Convergence Information,DU_BT=DORMITORY_ST=WHOLEBUILDING_FL=STORY 1_SCHG,RunPeriod: RUN PERIOD 1,3.1905842371E-002,0.1297479981,Pass,Pass,0.1338964294,0.5825275976,Fail,Pass
 Warmup Convergence Information,DU_BT=HOTEL_ST=WHOLEBUILDING_FL=STORY 1_SCHF,RunPeriod: RUN PERIOD 1,1.6332454570E-002,2.5000622853E-002,Pass,Pass,8.8412202985E-002,0.1484980771,Pass,Pass
 Warmup Convergence Information,DU_BT=MOTEL_ST=WHOLEBUILDING_FL=STORY 4_SCHF,RunPeriod: RUN PERIOD 1,7.4948625745E-002,0.1365883389,Pass,Pass,0.5134837084,1.5632271913,Fail,Fail
 Warmup Convergence Information,DU_BT=MULTI-UNIT RESIDENTIAL_ST=WHOLEBUILDING_FL=STORY 3_SCHG,RunPeriod: RUN PERIOD 1,2.7973315043E-002,7.0994895683E-002,Pass,Pass,0.2181725294,0.7229064597,Fail,Pass
! <Program Control Information:Threads/Parallel Sims>, Threading Supported,Maximum Number of Threads, Env Set Threads (OMP_NUM_THREADS), EP Env Set Threads (EP_OMP_NUM_THREADS), IDF Set Threads, Number of Threads Used (Interior Radiant Exchange), Number Nominal Surfaces, Number Parallel Sims
Program Control:Threads/Parallel Sims, No,1, N/A, N/A, N/A, N/A, N/A, N/A
End of Data
