{
   "completed_at" : "20190404T180000Z",
   "completed_status" : "Success",
   "created_at" : "20190404T175957Z",
   "current_step" : 0,
   "eplusout_err" : "Program Version,EnergyPlus, Version 8.9.0-eba93e8e1b, YMD=2019.04.04 17:59,\n   ************* Beginning Zone Sizing Calculations\n   ** Warning ** ProcessScheduleInput: Schedule:Day:Interval=\"SCHEDULE DAY 1\", Blank Schedule Type Limits Name input -- will not be validated.\n   ** Warning ** ProcessScheduleInput: Schedule:Day:Interval=\"SCHEDULE DAY 2\", Blank Schedule Type Limits Name input -- will not be validated.\n   ** Warning ** ProcessScheduleInput: Schedule:Constant=\"ALWAYS ON DISCRETE\", Blank Schedule Type Limits Name input -- will not be validated.\n   ** Warning ** ProcessScheduleInput: Schedule:Constant=\"ALWAYS OFF DISCRETE\", Blank Schedule Type Limits Name input -- will not be validated.\n   ** Warning ** ProcessScheduleInput: Schedule:Constant=\"ALWAYS ON CONTINUOUS\", Blank Schedule Type Limits Name input -- will not be validated.\n   ** Warning ** CheckUsedConstructions: There are 32 nominally unused constructions in input.\n   **   ~~~   ** For explicit details on each unused construction, use Output:Diagnostics,DisplayExtraWarnings;\n   ** Warning ** GetInternalHeatGains: People Combination of ZoneList and Object Name generate a name too long.\n   **   ~~~   ** Object Name=\"SPACE FUNCTION DINING AREA - BAR LOUNGE/LEISURE DINING PEOPLE\".\n   **   ~~~   ** ZoneList/Zone Name=\"DINING AREA - BAR LOUNGE/LEISURE DINING-SPACE FUNCTION ZN\".\n   **   ~~~   ** Item length=[118] > Maximum Length=[100]. You may need to shorten the names.\n   **   ~~~   ** Shortening the Object Name by [19] characters will assure uniqueness for this ZoneList.\n   **   ~~~   ** name that will be used (may be needed in reporting)=\"DINING AREA - BAR LOUNGE/LEISURE DINING-SPACE FUNCTION ZN SPACE FUNCTION DINING AREA - BAR LOUNGE/LEISURE DINING PEOPLE\".\n   ** Warning ** GetInternalHeatGains: People Combination of ZoneList and Object Name generate a name too long.\n   **   ~~~   ** Object Name=\"SPACE FUNCTION DINING AREA - CAFETERIA/FAST FOOD DINING PEOPLE\".\n   **   ~~~   ** ZoneList/Zone Name=\"DINING AREA - CAFETERIA/FAST FOOD DINING-SPACE FUNCTION ZN\".\n   **   ~~~   ** Item length=[120] > Maximum Length=[100]. You may need to shorten the names.\n   **   ~~~   ** Shortening the Object Name by [21] characters will assure uniqueness for this ZoneList.\n   **   ~~~   ** name that will be used (may be needed in reporting)=\"DINING AREA - CAFETERIA/FAST FOOD DINING-SPACE FUNCTION ZN SPACE FUNCTION DINING AREA - CAFETERIA/FAST FOOD DINING PEOPLE\".\n   ** Warning ** GetInternalHeatGains: Lights Combination of ZoneList and Object Name generate a name too long.\n   **   ~~~   ** Object Name=\"SPACE FUNCTION DINING AREA - BAR LOUNGE/LEISURE DINING LIGHTS\".\n   **   ~~~   ** ZoneList/Zone Name=\"DINING AREA - BAR LOUNGE/LEISURE DINING-SPACE FUNCTION ZN\".\n   **   ~~~   ** Item length=[118] > Maximum Length=[100]. You may need to shorten the names.\n   **   ~~~   ** Shortening the Object Name by [19] characters will assure uniqueness for this ZoneList.\n   **   ~~~   ** name that will be used (may be needed in reporting)=\"DINING AREA - BAR LOUNGE/LEISURE DINING-SPACE FUNCTION ZN SPACE FUNCTION DINING AREA - BAR LOUNGE/LEISURE DINING LIGHTS\".\n   ** Warning ** GetInternalHeatGains: Lights Combination of ZoneList and Object Name generate a name too long.\n   **   ~~~   ** Object Name=\"SPACE FUNCTION DINING AREA - CAFETERIA/FAST FOOD DINING LIGHTS\".\n   **   ~~~   ** ZoneList/Zone Name=\"DINING AREA - CAFETERIA/FAST FOOD DINING-SPACE FUNCTION ZN\".\n   **   ~~~   ** Item length=[120] > Maximum Length=[100]. You may need to shorten the names.\n   **   ~~~   ** Shortening the Object Name by [21] characters will assure uniqueness for this ZoneList.\n   **   ~~~   ** name that will be used (may be needed in reporting)=\"DINING AREA - CAFETERIA/FAST FOOD DINING-SPACE FUNCTION ZN SPACE FUNCTION DINING AREA - CAFETERIA/FAST FOOD DINING LIGHTS\".\n   ** Warning ** GetInternalHeatGains: ElectricEquipment Combination of ZoneList and Object Name generate a name too long.\n   **   ~~~   ** Object Name=\"SPACE FUNCTION DINING AREA - BAR LOUNGE/LEISURE DINING ELEC EQUIP\".\n   **   ~~~   ** ZoneList/Zone Name=\"DINING AREA - BAR LOUNGE/LEISURE DINING-SPACE FUNCTION ZN\".\n   **   ~~~   ** Item length=[122] > Maximum Length=[100]. You may need to shorten the names.\n   **   ~~~   ** Shortening the Object Name by [23] characters will assure uniqueness for this ZoneList.\n   **   ~~~   ** name that will be used (may be needed in reporting)=\"DINING AREA - BAR LOUNGE/LEISURE DINING-SPACE FUNCTION ZN SPACE FUNCTION DINING AREA - BAR LOUNGE/LEISURE DINING ELEC EQUIP\".\n   ** Warning ** GetInternalHeatGains: ElectricEquipment Combination of ZoneList and Object Name generate a name too long.\n   **   ~~~   ** Object Name=\"SPACE FUNCTION DINING AREA - CAFETERIA/FAST FOOD DINING ELEC EQUIP\".\n   **   ~~~   ** ZoneList/Zone Name=\"DINING AREA - CAFETERIA/FAST FOOD DINING-SPACE FUNCTION ZN\".\n   **   ~~~   ** Item length=[124] > Maximum Length=[100]. You may need to shorten the names.\n   **   ~~~   ** Shortening the Object Name by [25] characters will assure uniqueness for this ZoneList.\n   **   ~~~   ** name that will be used (may be needed in reporting)=\"DINING AREA - CAFETERIA/FAST FOOD DINING-SPACE FUNCTION ZN SPACE FUNCTION DINING AREA - CAFETERIA/FAST FOOD DINING ELEC EQUIP\".\n   ** Warning ** Output:Meter: invalid Key Name=\"GAS:FACILITY\" - not found.\n   ** Warning ** Output:Meter:MeterFileOnly: invalid Key Name=\"GAS:FACILITY\" - not found.\n   ** Warning ** Output:Meter:MeterFileOnly requested for \"Electricity:Facility\" (TimeStep), already on \"Output:Meter\". Will report to both eplusout.eso and eplusout.mtr\n   ************* Testing Individual Branch Integrity\n   ************* All Branches passed integrity testing\n   ************* Testing Individual Supply Air Path Integrity\n   ************* All Supply Air Paths passed integrity testing\n   ************* Testing Individual Return Air Path Integrity\n   ************* All Return Air Paths passed integrity testing\n   ************* No node connection errors were found.\n   ************* Beginning Simulation\n   ** Warning ** Output:Table:Monthly requested with SimulationControl Run Simulation for Weather File Run Periods set to No so Output:Table:Monthly will not be generated\n   ************* Simulation Error Summary *************\n   ************* There are 8 unused objects in input.\n   ************* Use Output:Diagnostics,DisplayUnusedObjects; to see them.\n   ************* There are 7 unused schedules in input.\n   ************* There are 7 unused week schedules in input.\n   ************* There are 10 unused day schedules in input.\n   ************* Use Output:Diagnostics,DisplayUnusedSchedules; to see them.\n   *************\n   ************* ===== Final Error Summary =====\n   ************* The following error categories occurred.  Consider correcting or noting.\n   ************* Nominally Unused Constructions\n   ************* ..The nominally unused constructions warning is provided to alert you to potential conditions that can cause\n   ************* ..extra time during simulation. Each construction is calculated by the algorithm indicated in the HeatBalanceAlgorithm\n   ************* ..object. You may remove the constructions indicated (when you use the DisplayExtraWarnings option).\n   *************\n   ************* EnergyPlus Warmup Error Summary. During Warmup: 0 Warning; 0 Severe Errors.\n   ************* EnergyPlus Sizing Error Summary. During Sizing: 12 Warning; 0 Severe Errors.\n   ************* EnergyPlus Completed Successfully-- 16 Warning; 0 Severe Errors; Elapsed Time=00hr 00min  1.12sec\n",
   "hash" : "D2ACF760",
   "seed_file" : "in.osm",
   "started_at" : "20190404T175959Z",
   "steps" : [],
   "updated_at" : "20190404T180000Z",
   "weather_file" : "in.epw"
}
