Program Version,EnergyPlus, Version 8.9.0-eba93e8e1b, YMD=2019.03.20 18:00
! <Version>, Version ID
 Version, 8.9
! <Timesteps per Hour>, #TimeSteps, Minutes per TimeStep {minutes}
 Timesteps per Hour,  6, 10
! <System Convergence Limits>, Minimum System TimeStep {minutes}, Max HVAC Iterations, Minimum Plant Iterations, Maximum Plant Iterations
 System Convergence Limits, 1, 20, 2, 8
! <Simulation Control>, Do Zone Sizing, Do System Sizing, Do Plant Sizing, Do Design Days, Do Weather Simulation, Do HVAC Sizing Simulation
 Simulation Control, Yes, No, No, Yes, No, No
! <Output Reporting Tolerances>, Tolerance for Time Heating Setpoint Not Met, Tolerance for Zone Cooling Setpoint Not Met Time
 Output Reporting Tolerances, 0.200, 0.200, 
! <Site:GroundTemperature:BuildingSurface>,Jan{C},Feb{C},Mar{C},Apr{C},May{C},Jun{C},Jul{C},Aug{C},Sep{C},Oct{C},Nov{C},Dec{C}
 Site:GroundTemperature:BuildingSurface,  19.53,  19.50,  19.54,  19.60,  20.00,  21.64,  22.23,  22.38,  21.45,  20.12,  19.80,  19.63
! <Site:GroundTemperature:FCfactorMethod>,Jan{C},Feb{C},Mar{C},Apr{C},May{C},Jun{C},Jul{C},Aug{C},Sep{C},Oct{C},Nov{C},Dec{C}
 Site:GroundTemperature:FCfactorMethod, -12.27, -13.66, -11.19,  -7.33,   2.77,  10.57,  15.83,  17.43,  14.70,   8.65,   0.56,  -6.95
! <Site:GroundTemperature:Shallow>,Jan{C},Feb{C},Mar{C},Apr{C},May{C},Jun{C},Jul{C},Aug{C},Sep{C},Oct{C},Nov{C},Dec{C}
 Site:GroundTemperature:Shallow,  13.00,  13.00,  13.00,  13.00,  13.00,  13.00,  13.00,  13.00,  13.00,  13.00,  13.00,  13.00
! <Site:GroundTemperature:Deep>,Jan{C},Feb{C},Mar{C},Apr{C},May{C},Jun{C},Jul{C},Aug{C},Sep{C},Oct{C},Nov{C},Dec{C}
 Site:GroundTemperature:Deep,  16.00,  16.00,  16.00,  16.00,  16.00,  16.00,  16.00,  16.00,  16.00,  16.00,  16.00,  16.00
! <Site:GroundReflectance>,Jan{dimensionless},Feb{dimensionless},Mar{dimensionless},Apr{dimensionless},May{dimensionless},Jun{dimensionless},Jul{dimensionless},Aug{dimensionless},Sep{dimensionless},Oct{dimensionless},Nov{dimensionless},Dec{dimensionless}
 Site:GroundReflectance,  0.20,  0.20,  0.20,  0.20,  0.20,  0.20,  0.20,  0.20,  0.20,  0.20,  0.20,  0.20
! <Site:GroundReflectance:SnowModifier>, Normal, Daylighting {dimensionless}
 Site:GroundReflectance:SnowModifier,   1.000,   1.000
! <Site:GroundReflectance:Snow>,Jan{dimensionless},Feb{dimensionless},Mar{dimensionless},Apr{dimensionless},May{dimensionless},Jun{dimensionless},Jul{dimensionless},Aug{dimensionless},Sep{dimensionless},Oct{dimensionless},Nov{dimensionless},Dec{dimensionless}
 Site:GroundReflectance:Snow,  0.20,  0.20,  0.20,  0.20,  0.20,  0.20,  0.20,  0.20,  0.20,  0.20,  0.20,  0.20
! <Site:GroundReflectance:Snow:Daylighting>,Jan{dimensionless},Feb{dimensionless},Mar{dimensionless},Apr{dimensionless},May{dimensionless},Jun{dimensionless},Jul{dimensionless},Aug{dimensionless},Sep{dimensionless},Oct{dimensionless},Nov{dimensionless},Dec{dimensionless}
 Site:GroundReflectance:Snow:Daylighting,  0.20,  0.20,  0.20,  0.20,  0.20,  0.20,  0.20,  0.20,  0.20,  0.20,  0.20,  0.20
! <Environment:Weather Station>,Wind Sensor Height Above Ground {m},Wind Speed Profile Exponent {},Wind Speed Profile Boundary Layer Thickness {m},Air Temperature Sensor Height Above Ground {m},Wind Speed Modifier Coefficient-Internal,Temperature Modifier Coefficient-Internal
Environment:Weather Station,10.000,0.140,270.000,1.500,1.586,9.750E-003
! <Site:Location>, Location Name, Latitude {N+/S- Deg}, Longitude {E+/W- Deg},  Time Zone Number {GMT+/-}, Elevation {m},  Standard Pressure at Elevation {Pa}, Standard RhoAir at Elevation
Site:Location,Fort McMurray AP AB CAN CWEC2016 WMO#=716890,56.65,-111.22,-7.00,369.10,96969,1.1525
! <Building Information>, Building Name,North Axis {deg},Terrain,  Loads Convergence Tolerance Value,Temperature Convergence Tolerance Value,  Solar Distribution,Maximum Number of Warmup Days,Minimum Number of Warmup Days
 Building Information,Building 1,0.000,Suburbs,4.00000E-002,0.40000,FullExterior,25,6
! <Inside Convection Algorithm>, Algorithm {Simple | TARP | CeilingDiffuser | AdaptiveConvectionAlgorithm}
Inside Convection Algorithm,TARP
! <Outside Convection Algorithm>, Algorithm {SimpleCombined | TARP | MoWitt | DOE-2 | AdaptiveConvectionAlgorithm}
Outside Convection Algorithm,TARP
! <Sky Radiance Distribution>, Value {Anisotropic}
Sky Radiance Distribution,Anisotropic
! <Zone Air Solution Algorithm>, Value {ThirdOrderBackwardDifference | AnalyticalSolution | EulerMethod}
 Zone Air Solution Algorithm, ThirdOrderBackwardDifference
! <Zone Air Carbon Dioxide Balance Simulation>, Simulation {Yes/No}, Carbon Dioxide Concentration
 Zone Air Carbon Dioxide Balance Simulation, No,N/A
! <Zone Air Generic Contaminant Balance Simulation>, Simulation {Yes/No}, Generic Contaminant Concentration
 Zone Air Generic Contaminant Balance Simulation, No,N/A
! <Zone Air Mass Flow Balance Simulation>, Enforce Mass Balance, Adjust Zone Mixing, Adjust Zone Infiltration {AddInfiltration | AdjustInfiltration | None}, Infiltration Zones {MixingSourceZonesOnly | AllZones}
 Zone Air Mass Flow Balance Simulation, No,N/A,N/A,N/A
! <HVACSystemRootFindingAlgorithm>, Value {RegulaFalsi | Bisection | BisectionThenRegulaFalsi | RegulaFalsiThenBisection}
 HVACSystemRootFindingAlgorithm, RegulaFalsi
! <Environment:Site Atmospheric Variation>,Wind Speed Profile Exponent {},Wind Speed Profile Boundary Layer Thickness {m},Air Temperature Gradient Coefficient {K/m}
Environment:Site Atmospheric Variation,0.220,370.000,6.500000E-003
! <Surface Geometry>,Starting Corner,Vertex Input Direction,Coordinate System,Daylight Reference Point Coordinate System,Rectangular (Simple) Surface Coordinate System
 Surface Geometry,UpperLeftCorner,Counterclockwise,RelativeCoordinateSystem,RelativeCoordinateSystem,RelativeToZoneOrigin
! <Surface Heat Transfer Algorithm>, Value {CTF - ConductionTransferFunction | EMPD - MoisturePenetrationDepthConductionTransferFunction | CondFD - ConductionFiniteDifference | HAMT - CombinedHeatAndMoistureFiniteElement} - Description,Inside Surface Max Temperature Limit{C}, Surface Convection Coefficient Lower Limit {W/m2-K}, Surface Convection Coefficient Upper Limit {W/m2-K}
Surface Heat Transfer Algorithm, CTF - ConductionTransferFunction,200,0.10,1000.0
! <Shading Summary>, Number of Fixed Detached Shades, Number of Building Detached Shades, Number of Attached Shades
 Shading Summary,0,0,0
! <Zone Summary>, Number of Zones, Number of Zone Surfaces, Number of SubSurfaces
 Zone Summary,20,137,17
! <Zone Information>,Zone Name,North Axis {deg},Origin X-Coordinate {m},Origin Y-Coordinate {m},Origin Z-Coordinate {m},Centroid X-Coordinate {m},Centroid Y-Coordinate {m},Centroid Z-Coordinate {m},Type,Zone Multiplier,Zone List Multiplier,Minimum X {m},Maximum X {m},Minimum Y {m},Maximum Y {m},Minimum Z {m},Maximum Z {m},Ceiling Height {m},Volume {m3},Zone Inside Convection Algorithm {Simple-Detailed-CeilingDiffuser-TrombeWall},Zone Outside Convection Algorithm {Simple-Detailed-Tarp-MoWitt-DOE-2-BLAST}, Floor Area {m2},Exterior Gross Wall Area {m2},Exterior Net Wall Area {m2},Exterior Window Area {m2}, Number of Surfaces, Number of SubSurfaces, Number of Shading SubSurfaces,  Part of Total Building Area
 Zone Information, MFG - CORR. < 2.4M-SCH-I-SPACE FUNCTION ZN,0.0,25.00,25.00,11.40,50.00,50.00,13.30,1,1,1,25.00,75.00,25.00,75.00,11.40,15.20,3.80,9500.00,TARP,TARP,2500.00,0.00,0.00,125.00,6,1,0,Yes
 Zone Information, MFG - CORR. >= 2.4M-SCH-A-SPACE FUNCTION ZN,0.0,0.00,0.00,11.40,10.85,50.00,13.30,1,1,1,0.00,25.00,0.00,100.00,11.40,15.20,3.80,7125.00,TARP,TARP,1875.00,380.00,285.00,188.75,6,2,0,Yes
 Zone Information, MFG - CORR. >= 2.4M-SCH-B-SPACE FUNCTION ZN,0.0,25.00,25.00,7.60,50.00,50.00,9.50,1,1,1,25.00,75.00,25.00,75.00,7.60,11.40,3.80,9500.00,TARP,TARP,2500.00,0.00,0.00,0.00,6,0,0,Yes
 Zone Information, MFG - CORR. >= 2.4M-SCH-C-SPACE FUNCTION ZN,0.0,0.00,0.00,7.60,50.00,10.85,9.50,1,1,1,0.00,100.00,0.00,25.00,7.60,11.40,3.80,7125.00,TARP,TARP,1875.00,380.00,285.00,95.00,6,1,0,Yes
 Zone Information, MFG - CORR. >= 2.4M-SCH-D-SPACE FUNCTION ZN,0.0,75.00,25.00,11.40,89.15,50.00,13.30,1,1,1,75.00,100.00,0.00,100.00,11.40,15.20,3.80,7125.00,TARP,TARP,1875.00,380.00,285.00,188.75,6,2,0,Yes
 Zone Information, MFG - CORR. >= 2.4M-SCH-E-SPACE FUNCTION ZN,0.0,75.00,25.00,7.60,89.15,50.00,9.50,1,1,1,75.00,100.00,0.00,100.00,7.60,11.40,3.80,7125.00,TARP,TARP,1875.00,380.00,285.00,95.00,6,1,0,Yes
 Zone Information, MFG - CORR. >= 2.4M-SCH-F-SPACE FUNCTION ZN,0.0,25.00,75.00,7.60,50.00,89.15,9.50,1,1,1,0.00,100.00,75.00,100.00,7.60,11.40,3.80,7125.00,TARP,TARP,1875.00,380.00,285.00,95.00,6,1,0,Yes
 Zone Information, MFG - CORR. >= 2.4M-SCH-G-SPACE FUNCTION ZN,0.0,0.00,0.00,7.60,10.85,50.00,9.50,1,1,1,0.00,25.00,0.00,100.00,7.60,11.40,3.80,7125.00,TARP,TARP,1875.00,380.00,285.00,95.00,6,1,0,Yes
 Zone Information, MFG - CORR. >= 2.4M-SCH-H-SPACE FUNCTION ZN,0.0,0.00,0.00,0.00,10.85,50.00,1.90,1,1,1,0.00,25.00,0.00,100.00,0.00,3.80,3.80,7125.00,TARP,TARP,1875.00,0.00,0.00,0.00,6,0,0,Yes
 Zone Information, MFG - CORR. >= 2.4M-SCH-I-SPACE FUNCTION ZN,0.0,25.00,75.00,11.40,50.00,89.15,13.30,1,1,1,0.00,100.00,75.00,100.00,11.40,15.20,3.80,7125.00,TARP,TARP,1875.00,380.00,285.00,188.75,6,2,0,Yes
 Zone Information, MFG - DETAILED-SPACE FUNCTION ZN,0.0,0.00,0.00,0.00,50.00,10.85,1.90,1,1,1,0.00,100.00,0.00,25.00,0.00,3.80,3.80,7125.00,TARP,TARP,1875.00,0.00,0.00,0.00,6,0,0,Yes
 Zone Information, MFG - EQUIPMENT-SPACE FUNCTION ZN,0.0,0.00,0.00,11.40,50.00,10.85,13.30,1,1,1,0.00,100.00,0.00,25.00,11.40,15.20,3.80,7125.00,TARP,TARP,1875.00,380.00,285.00,188.75,6,2,0,Yes
 Zone Information, MUSEUM - EXHIBITION-SPACE FUNCTION ZN,0.0,75.00,25.00,0.00,89.15,50.00,1.90,1,1,1,75.00,100.00,0.00,100.00,0.00,3.80,3.80,7125.00,TARP,TARP,1875.00,0.00,0.00,0.00,6,0,0,Yes
 Zone Information, MUSEUM - RESTORATION-SPACE FUNCTION ZN,0.0,25.00,25.00,3.80,50.00,50.00,5.70,1,1,1,25.00,75.00,25.00,75.00,3.80,7.60,3.80,9500.00,TARP,TARP,2500.00,0.00,0.00,0.00,6,0,0,Yes
 Zone Information, OFFICE - ENCLOSED - OCCSENS-SPACE FUNCTION ZN,0.0,0.00,0.00,3.80,10.85,50.00,5.70,1,1,1,0.00,25.00,0.00,100.00,3.80,7.60,3.80,7125.00,TARP,TARP,1875.00,380.00,285.00,95.00,6,1,0,Yes
 Zone Information, OFFICE - ENCLOSED-SPACE FUNCTION ZN,0.0,25.00,25.00,0.00,50.00,50.00,1.90,1,1,1,25.00,75.00,25.00,75.00,0.00,3.80,3.80,9500.00,TARP,TARP,2500.00,0.00,0.00,0.00,6,0,0,Yes
 Zone Information, OFFICE - OPEN PLAN-SPACE FUNCTION ZN,0.0,25.00,75.00,0.00,50.00,89.15,1.90,1,1,1,0.00,100.00,75.00,100.00,0.00,3.80,3.80,7125.00,TARP,TARP,1875.00,0.00,0.00,0.00,6,0,0,Yes
 Zone Information, PARKING GARAGE SPACE-SPACE FUNCTION ZN,0.0,25.00,75.00,3.80,50.00,89.15,5.70,1,1,1,0.00,100.00,75.00,100.00,3.80,7.60,3.80,7125.00,TARP,TARP,1875.00,380.00,285.00,95.00,6,1,0,Yes
 Zone Information, PENITENTIARY - AUDIENCE-SPACE FUNCTION ZN,0.0,75.00,25.00,3.80,89.15,50.00,5.70,1,1,1,75.00,100.00,0.00,100.00,3.80,7.60,3.80,7125.00,TARP,TARP,1875.00,380.00,285.00,95.00,6,1,0,Yes
 Zone Information, PENITENTIARY - CLASSROOM-SPACE FUNCTION ZN,0.0,0.00,0.00,3.80,50.00,10.85,5.70,1,1,1,0.00,100.00,0.00,25.00,3.80,7.60,3.80,7125.00,TARP,TARP,1875.00,380.00,285.00,95.00,6,1,0,Yes
! <Zone Internal Gains Nominal>,Zone Name, Floor Area {m2},# Occupants,Area per Occupant {m2/person},Occupant per Area {person/m2},Interior Lighting {W/m2},Electric Load {W/m2},Gas Load {W/m2},Other Load {W/m2},Hot Water Eq {W/m2},Steam Equipment {W/m2},Sum Loads per Area {W/m2},Outdoor Controlled Baseboard Heat
 Zone Internal Gains Nominal, MFG - CORR. < 2.4M-SCH-I-SPACE FUNCTION ZN,2500.00,25.0,99.896,1.001E-002,5.500,0.000,0.000,0.000,0.000,0.000,5.500,No
 Zone Internal Gains Nominal, MFG - CORR. >= 2.4M-SCH-A-SPACE FUNCTION ZN,1875.00,18.8,99.896,1.001E-002,4.400,0.000,0.000,0.000,0.000,0.000,4.400,No
 Zone Internal Gains Nominal, MFG - CORR. >= 2.4M-SCH-B-SPACE FUNCTION ZN,2500.00,25.0,99.896,1.001E-002,4.400,0.000,0.000,0.000,0.000,0.000,4.400,No
 Zone Internal Gains Nominal, MFG - CORR. >= 2.4M-SCH-C-SPACE FUNCTION ZN,1875.00,18.8,99.896,1.001E-002,4.400,0.000,0.000,0.000,0.000,0.000,4.400,No
 Zone Internal Gains Nominal, MFG - CORR. >= 2.4M-SCH-D-SPACE FUNCTION ZN,1875.00,18.8,99.896,1.001E-002,4.400,0.000,0.000,0.000,0.000,0.000,4.400,No
 Zone Internal Gains Nominal, MFG - CORR. >= 2.4M-SCH-E-SPACE FUNCTION ZN,1875.00,18.8,99.896,1.001E-002,4.400,0.000,0.000,0.000,0.000,0.000,4.400,No
 Zone Internal Gains Nominal, MFG - CORR. >= 2.4M-SCH-F-SPACE FUNCTION ZN,1875.00,18.8,99.896,1.001E-002,4.400,0.000,0.000,0.000,0.000,0.000,4.400,No
 Zone Internal Gains Nominal, MFG - CORR. >= 2.4M-SCH-G-SPACE FUNCTION ZN,1875.00,18.8,99.896,1.001E-002,4.400,0.000,0.000,0.000,0.000,0.000,4.400,No
 Zone Internal Gains Nominal, MFG - CORR. >= 2.4M-SCH-H-SPACE FUNCTION ZN,1875.00,18.8,99.896,1.001E-002,4.400,0.000,0.000,0.000,0.000,0.000,4.400,No
 Zone Internal Gains Nominal, MFG - CORR. >= 2.4M-SCH-I-SPACE FUNCTION ZN,1875.00,18.8,99.896,1.001E-002,4.400,0.000,0.000,0.000,0.000,0.000,4.400,No
 Zone Internal Gains Nominal, MFG - DETAILED-SPACE FUNCTION ZN,1875.00,62.6,29.969,3.337E-002,13.900,0.000,0.000,0.000,0.000,0.000,13.900,No
 Zone Internal Gains Nominal, MFG - EQUIPMENT-SPACE FUNCTION ZN,1875.00,62.6,29.969,3.337E-002,13.300,10.000,0.000,0.000,0.000,0.000,23.300,No
 Zone Internal Gains Nominal, MUSEUM - EXHIBITION-SPACE FUNCTION ZN,1875.00,375.0,5.000,0.200,11.300,2.500,0.000,0.000,0.000,0.000,13.800,No
 Zone Internal Gains Nominal, MUSEUM - RESTORATION-SPACE FUNCTION ZN,2500.00,125.1,19.979,5.005E-002,11.000,5.000,0.000,0.000,0.000,0.000,16.000,No
 Zone Internal Gains Nominal, OFFICE - ENCLOSED - OCCSENS-SPACE FUNCTION ZN,1875.00,93.8,19.979,5.005E-002,10.710,7.500,0.000,0.000,0.000,0.000,18.210,No
 Zone Internal Gains Nominal, OFFICE - ENCLOSED-SPACE FUNCTION ZN,2500.00,125.1,19.979,5.005E-002,11.900,7.500,0.000,0.000,0.000,0.000,19.400,No
 Zone Internal Gains Nominal, OFFICE - OPEN PLAN-SPACE FUNCTION ZN,1875.00,93.8,19.979,5.005E-002,11.000,7.500,0.000,0.000,0.000,0.000,18.500,No
 Zone Internal Gains Nominal, PARKING GARAGE SPACE-SPACE FUNCTION ZN,1875.00,1.8,1032.256,9.688E-004,2.000,0.000,0.000,0.000,0.000,0.000,2.000,No
 Zone Internal Gains Nominal, PENITENTIARY - AUDIENCE-SPACE FUNCTION ZN,1875.00,375.0,5.000,0.200,4.600,2.500,0.000,0.000,0.000,0.000,7.100,No
 Zone Internal Gains Nominal, PENITENTIARY - CLASSROOM-SPACE FUNCTION ZN,1875.00,250.1,7.498,0.133,14.400,5.000,0.000,0.000,0.000,0.000,19.400,No
! <People Internal Gains Nominal>,Name,Schedule Name,Zone Name,Zone Floor Area {m2},# Zone Occupants,Number of People {},People/Floor Area {person/m2},Floor Area per person {m2/person},Fraction Radiant,Fraction Convected,Sensible Fraction Calculation,Activity level,ASHRAE 55 Warnings,Carbon Dioxide Generation Rate,Nominal Minimum Number of People,Nominal Maximum Number of People
 People Internal Gains Nominal, MFG - CORR. < 2.4M-SCH-I-SPACE FUNCTION ZN SPACE FUNCTION MFG - CORR. < 2.4M-SCH-I PEOPLE,NECB-I-OCCUPANCY,MFG - CORR. < 2.4M-SCH-I-SPACE FUNCTION ZN,2500.00,25.0,25.0,1.001E-002,99.896,0.300,0.700,AutoCalculate,NECB-ACTIVITY,No,3.8200E-008,0,20
 People Internal Gains Nominal, MFG - CORR. >= 2.4M-SCH-A-SPACE FUNCTION ZN SPACE FUNCTION MFG - CORR. >= 2.4M-SCH-A PEOPLE,NECB-A-OCCUPANCY,MFG - CORR. >= 2.4M-SCH-A-SPACE FUNCTION ZN,1875.00,18.8,18.8,1.001E-002,99.896,0.300,0.700,AutoCalculate,NECB-ACTIVITY,No,3.8200E-008,0,17
 People Internal Gains Nominal, MFG - CORR. >= 2.4M-SCH-B-SPACE FUNCTION ZN SPACE FUNCTION MFG - CORR. >= 2.4M-SCH-B PEOPLE,NECB-B-OCCUPANCY,MFG - CORR. >= 2.4M-SCH-B-SPACE FUNCTION ZN,2500.00,25.0,25.0,1.001E-002,99.896,0.300,0.700,AutoCalculate,NECB-ACTIVITY,No,3.8200E-008,0,23
 People Internal Gains Nominal, MFG - CORR. >= 2.4M-SCH-C-SPACE FUNCTION ZN SPACE FUNCTION MFG - CORR. >= 2.4M-SCH-C PEOPLE,NECB-C-OCCUPANCY,MFG - CORR. >= 2.4M-SCH-C-SPACE FUNCTION ZN,1875.00,18.8,18.8,1.001E-002,99.896,0.300,0.700,AutoCalculate,NECB-ACTIVITY,No,3.8200E-008,0,17
 People Internal Gains Nominal, MFG - CORR. >= 2.4M-SCH-D-SPACE FUNCTION ZN SPACE FUNCTION MFG - CORR. >= 2.4M-SCH-D PEOPLE,NECB-D-OCCUPANCY,MFG - CORR. >= 2.4M-SCH-D-SPACE FUNCTION ZN,1875.00,18.8,18.8,1.001E-002,99.896,0.300,0.700,AutoCalculate,NECB-ACTIVITY,No,3.8200E-008,0,17
 People Internal Gains Nominal, MFG - CORR. >= 2.4M-SCH-E-SPACE FUNCTION ZN SPACE FUNCTION MFG - CORR. >= 2.4M-SCH-E PEOPLE,NECB-E-OCCUPANCY,MFG - CORR. >= 2.4M-SCH-E-SPACE FUNCTION ZN,1875.00,18.8,18.8,1.001E-002,99.896,0.300,0.700,AutoCalculate,NECB-ACTIVITY,No,3.8200E-008,0,17
 People Internal Gains Nominal, MFG - CORR. >= 2.4M-SCH-F-SPACE FUNCTION ZN SPACE FUNCTION MFG - CORR. >= 2.4M-SCH-F PEOPLE,NECB-F-OCCUPANCY,MFG - CORR. >= 2.4M-SCH-F-SPACE FUNCTION ZN,1875.00,18.8,18.8,1.001E-002,99.896,0.300,0.700,AutoCalculate,NECB-ACTIVITY,No,3.8200E-008,4,17
 People Internal Gains Nominal, MFG - CORR. >= 2.4M-SCH-G-SPACE FUNCTION ZN SPACE FUNCTION MFG - CORR. >= 2.4M-SCH-G PEOPLE,NECB-G-OCCUPANCY,MFG - CORR. >= 2.4M-SCH-G-SPACE FUNCTION ZN,1875.00,18.8,18.8,1.001E-002,99.896,0.300,0.700,AutoCalculate,NECB-ACTIVITY,No,3.8200E-008,6,17
 People Internal Gains Nominal, MFG - CORR. >= 2.4M-SCH-H-SPACE FUNCTION ZN SPACE FUNCTION MFG - CORR. >= 2.4M-SCH-H PEOPLE,NECB-H-OCCUPANCY,MFG - CORR. >= 2.4M-SCH-H-SPACE FUNCTION ZN,1875.00,18.8,18.8,1.001E-002,99.896,0.300,0.700,AutoCalculate,NECB-ACTIVITY,No,3.8200E-008,17,17
 People Internal Gains Nominal, MFG - CORR. >= 2.4M-SCH-I-SPACE FUNCTION ZN SPACE FUNCTION MFG - CORR. >= 2.4M-SCH-I PEOPLE,NECB-I-OCCUPANCY,MFG - CORR. >= 2.4M-SCH-I-SPACE FUNCTION ZN,1875.00,18.8,18.8,1.001E-002,99.896,0.300,0.700,AutoCalculate,NECB-ACTIVITY,No,3.8200E-008,0,15
 People Internal Gains Nominal, MFG - DETAILED-SPACE FUNCTION ZN SPACE FUNCTION MFG - DETAILED PEOPLE,NECB-A-OCCUPANCY,MFG - DETAILED-SPACE FUNCTION ZN,1875.00,62.6,62.6,3.337E-002,29.969,0.300,0.700,AutoCalculate,NECB-ACTIVITY,No,3.8200E-008,0,56
 People Internal Gains Nominal, MFG - EQUIPMENT-SPACE FUNCTION ZN SPACE FUNCTION MFG - EQUIPMENT PEOPLE,NECB-A-OCCUPANCY,MFG - EQUIPMENT-SPACE FUNCTION ZN,1875.00,62.6,62.6,3.337E-002,29.969,0.300,0.700,AutoCalculate,NECB-ACTIVITY,No,3.8200E-008,0,56
 People Internal Gains Nominal, MUSEUM - EXHIBITION-SPACE FUNCTION ZN SPACE FUNCTION MUSEUM - EXHIBITION PEOPLE,NECB-C-OCCUPANCY,MUSEUM - EXHIBITION-SPACE FUNCTION ZN,1875.00,375.0,375.0,0.200,5.000,0.300,0.700,AutoCalculate,NECB-ACTIVITY,No,3.8200E-008,0,337
 People Internal Gains Nominal, MUSEUM - RESTORATION-SPACE FUNCTION ZN SPACE FUNCTION MUSEUM - RESTORATION PEOPLE,NECB-A-OCCUPANCY,MUSEUM - RESTORATION-SPACE FUNCTION ZN,2500.00,125.1,125.1,5.005E-002,19.979,0.300,0.700,AutoCalculate,NECB-ACTIVITY,No,3.8200E-008,0,113
 People Internal Gains Nominal, OFFICE - ENCLOSED-SPACE FUNCTION ZN SPACE FUNCTION OFFICE - ENCLOSED PEOPLE,NECB-A-OCCUPANCY,OFFICE - ENCLOSED-SPACE FUNCTION ZN,2500.00,125.1,125.1,5.005E-002,19.979,0.300,0.700,AutoCalculate,NECB-ACTIVITY,No,3.8200E-008,0,113
 People Internal Gains Nominal, OFFICE - ENCLOSED - OCCSENS-SPACE FUNCTION ZN SPACE FUNCTION OFFICE - ENCLOSED - OCCSENS PEOPLE,NECB-A-OCCUPANCY,OFFICE - ENCLOSED - OCCSENS-SPACE FUNCTION ZN,1875.00,93.8,93.8,5.005E-002,19.979,0.300,0.700,AutoCalculate,NECB-ACTIVITY,No,3.8200E-008,0,84
 People Internal Gains Nominal, OFFICE - OPEN PLAN-SPACE FUNCTION ZN SPACE FUNCTION OFFICE - OPEN PLAN PEOPLE,NECB-A-OCCUPANCY,OFFICE - OPEN PLAN-SPACE FUNCTION ZN,1875.00,93.8,93.8,5.005E-002,19.979,0.300,0.700,AutoCalculate,NECB-ACTIVITY,No,3.8200E-008,0,84
 People Internal Gains Nominal, PARKING GARAGE SPACE-SPACE FUNCTION ZN SPACE FUNCTION PARKING GARAGE SPACE PEOPLE,NECB-H-OCCUPANCY,PARKING GARAGE SPACE-SPACE FUNCTION ZN,1875.00,1.8,1.8,9.688E-004,1032.256,0.300,0.700,AutoCalculate,NECB-ACTIVITY,No,3.8200E-008,2,2
 People Internal Gains Nominal, PENITENTIARY - AUDIENCE-SPACE FUNCTION ZN SPACE FUNCTION PENITENTIARY - AUDIENCE PEOPLE,NECB-C-OCCUPANCY,PENITENTIARY - AUDIENCE-SPACE FUNCTION ZN,1875.00,375.0,375.0,0.200,5.000,0.300,0.700,AutoCalculate,NECB-ACTIVITY,No,3.8200E-008,0,337
 People Internal Gains Nominal, PENITENTIARY - CLASSROOM-SPACE FUNCTION ZN SPACE FUNCTION PENITENTIARY - CLASSROOM PEOPLE,NECB-D-OCCUPANCY,PENITENTIARY - CLASSROOM-SPACE FUNCTION ZN,1875.00,250.1,250.1,0.133,7.498,0.300,0.700,AutoCalculate,NECB-ACTIVITY,No,3.8200E-008,0,225
! <Lights Internal Gains Nominal>,Name,Schedule Name,Zone Name,Zone Floor Area {m2},# Zone Occupants,Lighting Level {W},Lights/Floor Area {W/m2},Lights per person {W/person},Fraction Return Air,Fraction Radiant,Fraction Short Wave,Fraction Convected,Fraction Replaceable,End-Use Category,Nominal Minimum Lighting Level {W},Nominal Maximum Lighting Level {W}
 Lights Internal Gains Nominal, MFG - CORR. < 2.4M-SCH-I-SPACE FUNCTION ZN SPACE FUNCTION MFG - CORR. < 2.4M-SCH-I LIGHTS,NECB-I-LIGHTING,MFG - CORR. < 2.4M-SCH-I-SPACE FUNCTION ZN,2500.00,25.0,13749.886,5.500,549.422,0.000,0.500,0.200,0.300,1.000,General,687.494,12374.897
 Lights Internal Gains Nominal, MFG - CORR. >= 2.4M-SCH-A-SPACE FUNCTION ZN SPACE FUNCTION MFG - CORR. >= 2.4M-SCH-A LIGHTS,NECB-A-LIGHTING,MFG - CORR. >= 2.4M-SCH-A-SPACE FUNCTION ZN,1875.00,18.8,8249.931,4.400,439.538,0.000,0.500,0.200,0.300,1.000,General,412.497,7424.938
 Lights Internal Gains Nominal, MFG - CORR. >= 2.4M-SCH-B-SPACE FUNCTION ZN SPACE FUNCTION MFG - CORR. >= 2.4M-SCH-B LIGHTS,NECB-B-LIGHTING,MFG - CORR. >= 2.4M-SCH-B-SPACE FUNCTION ZN,2500.00,25.0,10999.908,4.400,439.538,0.000,0.500,0.200,0.300,1.000,General,1099.991,9899.918
 Lights Internal Gains Nominal, MFG - CORR. >= 2.4M-SCH-C-SPACE FUNCTION ZN SPACE FUNCTION MFG - CORR. >= 2.4M-SCH-C LIGHTS,NECB-C-LIGHTING,MFG - CORR. >= 2.4M-SCH-C-SPACE FUNCTION ZN,1875.00,18.8,8249.931,4.400,439.538,0.000,0.500,0.200,0.300,1.000,General,412.497,7424.938
 Lights Internal Gains Nominal, MFG - CORR. >= 2.4M-SCH-D-SPACE FUNCTION ZN SPACE FUNCTION MFG - CORR. >= 2.4M-SCH-D LIGHTS,NECB-D-LIGHTING,MFG - CORR. >= 2.4M-SCH-D-SPACE FUNCTION ZN,1875.00,18.8,8249.931,4.400,439.538,0.000,0.500,0.200,0.300,1.000,General,412.497,7424.938
 Lights Internal Gains Nominal, MFG - CORR. >= 2.4M-SCH-E-SPACE FUNCTION ZN SPACE FUNCTION MFG - CORR. >= 2.4M-SCH-E LIGHTS,NECB-E-LIGHTING,MFG - CORR. >= 2.4M-SCH-E-SPACE FUNCTION ZN,1875.00,18.8,8249.931,4.400,439.538,0.000,0.500,0.200,0.300,1.000,General,412.497,7424.938
 Lights Internal Gains Nominal, MFG - CORR. >= 2.4M-SCH-F-SPACE FUNCTION ZN SPACE FUNCTION MFG - CORR. >= 2.4M-SCH-F LIGHTS,NECB-F-LIGHTING,MFG - CORR. >= 2.4M-SCH-F-SPACE FUNCTION ZN,1875.00,18.8,8249.931,4.400,439.538,0.000,0.500,0.200,0.300,1.000,General,824.993,7424.938
 Lights Internal Gains Nominal, MFG - CORR. >= 2.4M-SCH-G-SPACE FUNCTION ZN SPACE FUNCTION MFG - CORR. >= 2.4M-SCH-G LIGHTS,NECB-G-LIGHTING,MFG - CORR. >= 2.4M-SCH-G-SPACE FUNCTION ZN,1875.00,18.8,8249.931,4.400,439.538,0.000,0.500,0.200,0.300,1.000,General,0.000,7424.938
 Lights Internal Gains Nominal, MFG - CORR. >= 2.4M-SCH-H-SPACE FUNCTION ZN SPACE FUNCTION MFG - CORR. >= 2.4M-SCH-H LIGHTS,NECB-H-LIGHTING,MFG - CORR. >= 2.4M-SCH-H-SPACE FUNCTION ZN,1875.00,18.8,8249.931,4.400,439.538,0.000,0.500,0.200,0.300,1.000,General,7424.938,7424.938
 Lights Internal Gains Nominal, MFG - CORR. >= 2.4M-SCH-I-SPACE FUNCTION ZN SPACE FUNCTION MFG - CORR. >= 2.4M-SCH-I LIGHTS,NECB-I-LIGHTING,MFG - CORR. >= 2.4M-SCH-I-SPACE FUNCTION ZN,1875.00,18.8,8249.931,4.400,439.538,0.000,0.500,0.200,0.300,1.000,General,412.497,7424.938
 Lights Internal Gains Nominal, MFG - DETAILED-SPACE FUNCTION ZN SPACE FUNCTION MFG - DETAILED LIGHTS,NECB-A-LIGHTING,MFG - DETAILED-SPACE FUNCTION ZN,1875.00,62.6,26062.283,13.900,416.562,0.000,0.500,0.200,0.300,1.000,General,1303.114,23456.055
 Lights Internal Gains Nominal, MFG - EQUIPMENT-SPACE FUNCTION ZN SPACE FUNCTION MFG - EQUIPMENT LIGHTS,NECB-A-LIGHTING,MFG - EQUIPMENT-SPACE FUNCTION ZN,1875.00,62.6,24937.292,13.300,398.581,0.000,0.500,0.200,0.300,1.000,General,1246.865,22443.563
 Lights Internal Gains Nominal, MUSEUM - EXHIBITION-SPACE FUNCTION ZN SPACE FUNCTION MUSEUM - EXHIBITION LIGHTS,NECB-C-LIGHTING,MUSEUM - EXHIBITION-SPACE FUNCTION ZN,1875.00,375.0,21187.324,11.300,56.501,0.000,0.500,0.200,0.300,1.000,General,1059.366,19068.591
 Lights Internal Gains Nominal, MUSEUM - RESTORATION-SPACE FUNCTION ZN SPACE FUNCTION MUSEUM - RESTORATION LIGHTS,NECB-A-LIGHTING,MUSEUM - RESTORATION-SPACE FUNCTION ZN,2500.00,125.1,27499.771,11.000,219.769,0.000,0.500,0.200,0.300,1.000,General,1374.989,24749.794
 Lights Internal Gains Nominal, OFFICE - ENCLOSED-SPACE FUNCTION ZN SPACE FUNCTION OFFICE - ENCLOSED LIGHTS,NECB-A-LIGHTING,OFFICE - ENCLOSED-SPACE FUNCTION ZN,2500.00,125.1,29749.752,11.900,237.750,0.000,0.500,0.200,0.300,1.000,General,1487.488,26774.777
 Lights Internal Gains Nominal, OFFICE - ENCLOSED - OCCSENS-SPACE FUNCTION ZN SPACE FUNCTION OFFICE - ENCLOSED - OCCSENS LIGHTS,NECB-A-LIGHTING,OFFICE - ENCLOSED - OCCSENS-SPACE FUNCTION ZN,1875.00,93.8,20081.083,10.710,213.975,0.000,0.500,0.200,0.300,1.000,General,1004.054,18072.975
 Lights Internal Gains Nominal, OFFICE - OPEN PLAN-SPACE FUNCTION ZN SPACE FUNCTION OFFICE - OPEN PLAN LIGHTS,NECB-A-LIGHTING,OFFICE - OPEN PLAN-SPACE FUNCTION ZN,1875.00,93.8,20624.828,11.000,219.769,0.000,0.500,0.200,0.300,1.000,General,1031.241,18562.346
 Lights Internal Gains Nominal, PARKING GARAGE SPACE-SPACE FUNCTION ZN SPACE FUNCTION PARKING GARAGE SPACE LIGHTS,NECB-H-LIGHTING,PARKING GARAGE SPACE-SPACE FUNCTION ZN,1875.00,1.8,3749.969,2.000,2064.495,0.000,0.500,0.200,0.300,1.000,General,3374.972,3374.972
 Lights Internal Gains Nominal, PENITENTIARY - AUDIENCE-SPACE FUNCTION ZN SPACE FUNCTION PENITENTIARY - AUDIENCE LIGHTS,NECB-C-LIGHTING,PENITENTIARY - AUDIENCE-SPACE FUNCTION ZN,1875.00,375.0,8624.928,4.600,23.001,0.000,0.500,0.200,0.300,1.000,General,431.246,7762.435
 Lights Internal Gains Nominal, PENITENTIARY - CLASSROOM-SPACE FUNCTION ZN SPACE FUNCTION PENITENTIARY - CLASSROOM LIGHTS,NECB-D-LIGHTING,PENITENTIARY - CLASSROOM-SPACE FUNCTION ZN,1875.00,250.1,26999.775,14.400,107.974,0.000,0.500,0.200,0.300,1.000,General,1349.989,24299.798
! <ElectricEquipment Internal Gains Nominal>,Name,Schedule Name,Zone Name,Zone Floor Area {m2},# Zone Occupants,Equipment Level {W},Equipment/Floor Area {W/m2},Equipment per person {W/person},Fraction Latent,Fraction Radiant,Fraction Lost,Fraction Convected,End-Use SubCategory,Nominal Minimum Equipment Level {W},Nominal Maximum Equipment Level {W}
 ElectricEquipment Internal Gains Nominal, MFG - EQUIPMENT-SPACE FUNCTION ZN SPACE FUNCTION MFG - EQUIPMENT ELEC EQUIP,NECB-A-ELECTRIC-EQUIPMENT,MFG - EQUIPMENT-SPACE FUNCTION ZN,1875.00,62.6,18749.844,10.000,299.685,0.000,0.500,0.000,0.500,General,3749.969,16874.860
 ElectricEquipment Internal Gains Nominal, MUSEUM - EXHIBITION-SPACE FUNCTION ZN SPACE FUNCTION MUSEUM - EXHIBITION ELEC EQUIP,NECB-C-ELECTRIC-EQUIPMENT,MUSEUM - EXHIBITION-SPACE FUNCTION ZN,1875.00,375.0,4687.461,2.500,12.500,0.000,0.500,0.000,0.500,General,234.373,4218.715
 ElectricEquipment Internal Gains Nominal, MUSEUM - RESTORATION-SPACE FUNCTION ZN SPACE FUNCTION MUSEUM - RESTORATION ELEC EQUIP,NECB-A-ELECTRIC-EQUIPMENT,MUSEUM - RESTORATION-SPACE FUNCTION ZN,2500.00,125.1,12499.896,5.000,99.895,0.000,0.500,0.000,0.500,General,2499.979,11249.906
 ElectricEquipment Internal Gains Nominal, OFFICE - ENCLOSED-SPACE FUNCTION ZN SPACE FUNCTION OFFICE - ENCLOSED ELEC EQUIP,NECB-A-ELECTRIC-EQUIPMENT,OFFICE - ENCLOSED-SPACE FUNCTION ZN,2500.00,125.1,18749.844,7.500,149.842,0.000,0.500,0.000,0.500,General,3749.969,16874.860
 ElectricEquipment Internal Gains Nominal, OFFICE - ENCLOSED - OCCSENS-SPACE FUNCTION ZN SPACE FUNCTION OFFICE - ENCLOSED - OCCSENS ELEC EQUIP,NECB-A-ELECTRIC-EQUIPMENT,OFFICE - ENCLOSED - OCCSENS-SPACE FUNCTION ZN,1875.00,93.8,14062.383,7.500,149.842,0.000,0.500,0.000,0.500,General,2812.477,12656.145
 ElectricEquipment Internal Gains Nominal, OFFICE - OPEN PLAN-SPACE FUNCTION ZN SPACE FUNCTION OFFICE - OPEN PLAN ELEC EQUIP,NECB-A-ELECTRIC-EQUIPMENT,OFFICE - OPEN PLAN-SPACE FUNCTION ZN,1875.00,93.8,14062.383,7.500,149.842,0.000,0.500,0.000,0.500,General,2812.477,12656.145
 ElectricEquipment Internal Gains Nominal, PENITENTIARY - AUDIENCE-SPACE FUNCTION ZN SPACE FUNCTION PENITENTIARY - AUDIENCE ELEC EQUIP,NECB-C-ELECTRIC-EQUIPMENT,PENITENTIARY - AUDIENCE-SPACE FUNCTION ZN,1875.00,375.0,4687.461,2.500,12.500,0.000,0.500,0.000,0.500,General,234.373,4218.715
 ElectricEquipment Internal Gains Nominal, PENITENTIARY - CLASSROOM-SPACE FUNCTION ZN SPACE FUNCTION PENITENTIARY - CLASSROOM ELEC EQUIP,NECB-D-ELECTRIC-EQUIPMENT,PENITENTIARY - CLASSROOM-SPACE FUNCTION ZN,1875.00,250.1,9374.922,5.000,37.491,0.000,0.500,0.000,0.500,General,468.746,8437.430
! <Shadowing/Sun Position Calculations Annual Simulations>, Calculation Method, Value {days}, Allowable Number Figures in Shadow Overlap {}, Polygon Clipping Algorithm, Sky Diffuse Modeling Algorithm, External Shading Calculation Method, Output External Shading Calculation Results, Disable Self-Shading Within Shading Zone Groups, Disable Self-Shading From Shading Zone Groups to Other Zones
Shadowing/Sun Position Calculations Annual Simulations,AverageOverDaysInFrequency,20,15000,SutherlandHodgman,SimpleSkyDiffuseModeling,InternalCalculation,No,No,No
! <ZoneInfiltration Airflow Stats Nominal>,Name,Schedule Name,Zone Name, Zone Floor Area {m2}, # Zone Occupants,Design Volume Flow Rate {m3/s},Volume Flow Rate/Floor Area {m3/s/m2},Volume Flow Rate/Exterior Surface Area {m3/s/m2},ACH - Air Changes per Hour,Equation A - Constant Term Coefficient {},Equation B - Temperature Term Coefficient {1/C},Equation C - Velocity Term Coefficient {s/m}, Equation D - Velocity Squared Term Coefficient {s2/m2}
 ZoneInfiltration Airflow Stats Nominal, MFG - CORR. < 2.4M-SCH-I-SPACE FUNCTION INFILTRATION,ALWAYS ON DISCRETE,MFG - CORR. < 2.4M-SCH-I-SPACE FUNCTION ZN,2500.00,25.0,0.625,2.500E-004,2.500E-004,0.237,0.000,0.000,0.224,0.000
 ZoneInfiltration Airflow Stats Nominal, MFG - CORR. >= 2.4M-SCH-A-SPACE FUNCTION INFILTRATION,ALWAYS ON DISCRETE,MFG - CORR. >= 2.4M-SCH-A-SPACE FUNCTION ZN,1875.00,18.8,0.564,3.007E-004,2.500E-004,0.285,0.000,0.000,0.224,0.000
 ZoneInfiltration Airflow Stats Nominal, MFG - CORR. >= 2.4M-SCH-C-SPACE FUNCTION INFILTRATION,ALWAYS ON DISCRETE,MFG - CORR. >= 2.4M-SCH-C-SPACE FUNCTION ZN,1875.00,18.8,9.500E-002,5.067E-005,2.500E-004,4.800E-002,0.000,0.000,0.224,0.000
 ZoneInfiltration Airflow Stats Nominal, MFG - CORR. >= 2.4M-SCH-D-SPACE FUNCTION INFILTRATION,ALWAYS ON DISCRETE,MFG - CORR. >= 2.4M-SCH-D-SPACE FUNCTION ZN,1875.00,18.8,0.564,3.007E-004,2.500E-004,0.285,0.000,0.000,0.224,0.000
 ZoneInfiltration Airflow Stats Nominal, MFG - CORR. >= 2.4M-SCH-E-SPACE FUNCTION INFILTRATION,ALWAYS ON DISCRETE,MFG - CORR. >= 2.4M-SCH-E-SPACE FUNCTION ZN,1875.00,18.8,9.500E-002,5.067E-005,2.500E-004,4.800E-002,0.000,0.000,0.224,0.000
 ZoneInfiltration Airflow Stats Nominal, MFG - CORR. >= 2.4M-SCH-F-SPACE FUNCTION INFILTRATION,ALWAYS ON DISCRETE,MFG - CORR. >= 2.4M-SCH-F-SPACE FUNCTION ZN,1875.00,18.8,9.500E-002,5.067E-005,2.500E-004,4.800E-002,0.000,0.000,0.224,0.000
 ZoneInfiltration Airflow Stats Nominal, MFG - CORR. >= 2.4M-SCH-G-SPACE FUNCTION INFILTRATION,ALWAYS ON DISCRETE,MFG - CORR. >= 2.4M-SCH-G-SPACE FUNCTION ZN,1875.00,18.8,9.500E-002,5.067E-005,2.500E-004,4.800E-002,0.000,0.000,0.224,0.000
 ZoneInfiltration Airflow Stats Nominal, MFG - CORR. >= 2.4M-SCH-I-SPACE FUNCTION INFILTRATION,ALWAYS ON DISCRETE,MFG - CORR. >= 2.4M-SCH-I-SPACE FUNCTION ZN,1875.00,18.8,0.564,3.007E-004,2.500E-004,0.285,0.000,0.000,0.224,0.000
 ZoneInfiltration Airflow Stats Nominal, MFG - EQUIPMENT-SPACE FUNCTION INFILTRATION,ALWAYS ON DISCRETE,MFG - EQUIPMENT-SPACE FUNCTION ZN,1875.00,62.6,0.564,3.007E-004,2.500E-004,0.285,0.000,0.000,0.224,0.000
 ZoneInfiltration Airflow Stats Nominal, OFFICE - ENCLOSED - OCCSENS-SPACE FUNCTION INFILTRATION,ALWAYS ON DISCRETE,OFFICE - ENCLOSED - OCCSENS-SPACE FUNCTION ZN,1875.00,93.8,9.500E-002,5.067E-005,2.500E-004,4.800E-002,0.000,0.000,0.224,0.000
 ZoneInfiltration Airflow Stats Nominal, PARKING GARAGE SPACE-SPACE FUNCTION INFILTRATION,ALWAYS ON DISCRETE,PARKING GARAGE SPACE-SPACE FUNCTION ZN,1875.00,1.8,9.500E-002,5.067E-005,2.500E-004,4.800E-002,0.000,0.000,0.224,0.000
 ZoneInfiltration Airflow Stats Nominal, PENITENTIARY - AUDIENCE-SPACE FUNCTION INFILTRATION,ALWAYS ON DISCRETE,PENITENTIARY - AUDIENCE-SPACE FUNCTION ZN,1875.00,375.0,9.500E-002,5.067E-005,2.500E-004,4.800E-002,0.000,0.000,0.224,0.000
 ZoneInfiltration Airflow Stats Nominal, PENITENTIARY - CLASSROOM-SPACE FUNCTION INFILTRATION,ALWAYS ON DISCRETE,PENITENTIARY - CLASSROOM-SPACE FUNCTION ZN,1875.00,250.1,9.500E-002,5.067E-005,2.500E-004,4.800E-002,0.000,0.000,0.224,0.000
! <AirFlow Model>, Simple
 AirFlow Model, Simple
! <RoomAir Model>, Zone Name, Mixing/Mundt/UCSDDV/UCSDCV/UCSDUFI/UCSDUFE/User Defined
RoomAir Model,MFG - CORR. < 2.4M-SCH-I-SPACE FUNCTION ZN,Mixing/Well-Stirred
RoomAir Model,MFG - CORR. >= 2.4M-SCH-A-SPACE FUNCTION ZN,Mixing/Well-Stirred
RoomAir Model,MFG - CORR. >= 2.4M-SCH-B-SPACE FUNCTION ZN,Mixing/Well-Stirred
RoomAir Model,MFG - CORR. >= 2.4M-SCH-C-SPACE FUNCTION ZN,Mixing/Well-Stirred
RoomAir Model,MFG - CORR. >= 2.4M-SCH-D-SPACE FUNCTION ZN,Mixing/Well-Stirred
RoomAir Model,MFG - CORR. >= 2.4M-SCH-E-SPACE FUNCTION ZN,Mixing/Well-Stirred
RoomAir Model,MFG - CORR. >= 2.4M-SCH-F-SPACE FUNCTION ZN,Mixing/Well-Stirred
RoomAir Model,MFG - CORR. >= 2.4M-SCH-G-SPACE FUNCTION ZN,Mixing/Well-Stirred
RoomAir Model,MFG - CORR. >= 2.4M-SCH-H-SPACE FUNCTION ZN,Mixing/Well-Stirred
RoomAir Model,MFG - CORR. >= 2.4M-SCH-I-SPACE FUNCTION ZN,Mixing/Well-Stirred
RoomAir Model,MFG - DETAILED-SPACE FUNCTION ZN,Mixing/Well-Stirred
RoomAir Model,MFG - EQUIPMENT-SPACE FUNCTION ZN,Mixing/Well-Stirred
RoomAir Model,MUSEUM - EXHIBITION-SPACE FUNCTION ZN,Mixing/Well-Stirred
RoomAir Model,MUSEUM - RESTORATION-SPACE FUNCTION ZN,Mixing/Well-Stirred
RoomAir Model,OFFICE - ENCLOSED - OCCSENS-SPACE FUNCTION ZN,Mixing/Well-Stirred
RoomAir Model,OFFICE - ENCLOSED-SPACE FUNCTION ZN,Mixing/Well-Stirred
RoomAir Model,OFFICE - OPEN PLAN-SPACE FUNCTION ZN,Mixing/Well-Stirred
RoomAir Model,PARKING GARAGE SPACE-SPACE FUNCTION ZN,Mixing/Well-Stirred
RoomAir Model,PENITENTIARY - AUDIENCE-SPACE FUNCTION ZN,Mixing/Well-Stirred
RoomAir Model,PENITENTIARY - CLASSROOM-SPACE FUNCTION ZN,Mixing/Well-Stirred
! <AirflowNetwork Model:Control>, No Multizone or Distribution/Multizone with Distribution/Multizone without Distribution/Multizone with Distribution only during Fan Operation
AirflowNetwork Model:Control,NoMultizoneOrDistribution
! <Zone Volume Capacitance Multiplier>, Sensible Heat Capacity Multiplier, Moisture Capacity Multiplier, Carbon Dioxide Capacity Multiplier, Generic Contaminant Capacity Multiplier
Zone Volume Capacitance Multiplier,   1.000 ,   1.000,   1.000,   1.000
! <Load Timesteps in Zone Design Calculation Averaging Window>, Value
 Load Timesteps in Zone Design Calculation Averaging Window,    6
! <Heating Sizing Factor Information>, Sizing Factor ID, Value
 Heating Sizing Factor Information, Global,   1.2500    
 Heating Sizing Factor Information, Zone MFG - CORR. < 2.4M-SCH-I-SPACE FUNCTION ZN,   1.2500    
 Heating Sizing Factor Information, Zone MFG - CORR. >= 2.4M-SCH-A-SPACE FUNCTION ZN,   1.2500    
 Heating Sizing Factor Information, Zone MFG - CORR. >= 2.4M-SCH-B-SPACE FUNCTION ZN,   1.2500    
 Heating Sizing Factor Information, Zone MFG - CORR. >= 2.4M-SCH-C-SPACE FUNCTION ZN,   1.2500    
 Heating Sizing Factor Information, Zone MFG - CORR. >= 2.4M-SCH-D-SPACE FUNCTION ZN,   1.2500    
 Heating Sizing Factor Information, Zone MFG - CORR. >= 2.4M-SCH-E-SPACE FUNCTION ZN,   1.2500    
 Heating Sizing Factor Information, Zone MFG - CORR. >= 2.4M-SCH-F-SPACE FUNCTION ZN,   1.2500    
 Heating Sizing Factor Information, Zone MFG - CORR. >= 2.4M-SCH-G-SPACE FUNCTION ZN,   1.2500    
 Heating Sizing Factor Information, Zone MFG - CORR. >= 2.4M-SCH-H-SPACE FUNCTION ZN,   1.2500    
 Heating Sizing Factor Information, Zone MFG - CORR. >= 2.4M-SCH-I-SPACE FUNCTION ZN,   1.2500    
 Heating Sizing Factor Information, Zone MFG - DETAILED-SPACE FUNCTION ZN,   1.2500    
 Heating Sizing Factor Information, Zone MFG - EQUIPMENT-SPACE FUNCTION ZN,   1.2500    
 Heating Sizing Factor Information, Zone MUSEUM - EXHIBITION-SPACE FUNCTION ZN,   1.2500    
 Heating Sizing Factor Information, Zone MUSEUM - RESTORATION-SPACE FUNCTION ZN,   1.2500    
 Heating Sizing Factor Information, Zone OFFICE - ENCLOSED - OCCSENS-SPACE FUNCTION ZN,   1.2500    
 Heating Sizing Factor Information, Zone OFFICE - ENCLOSED-SPACE FUNCTION ZN,   1.2500    
 Heating Sizing Factor Information, Zone OFFICE - OPEN PLAN-SPACE FUNCTION ZN,   1.2500    
 Heating Sizing Factor Information, Zone PARKING GARAGE SPACE-SPACE FUNCTION ZN,   1.2500    
 Heating Sizing Factor Information, Zone PENITENTIARY - AUDIENCE-SPACE FUNCTION ZN,   1.2500    
 Heating Sizing Factor Information, Zone PENITENTIARY - CLASSROOM-SPACE FUNCTION ZN,   1.2500    
! <Cooling Sizing Factor Information>, Sizing Factor ID, Value
 Cooling Sizing Factor Information, Global,   1.1500    
 Cooling Sizing Factor Information, Zone MFG - CORR. < 2.4M-SCH-I-SPACE FUNCTION ZN,   1.1500    
 Cooling Sizing Factor Information, Zone MFG - CORR. >= 2.4M-SCH-A-SPACE FUNCTION ZN,   1.1500    
 Cooling Sizing Factor Information, Zone MFG - CORR. >= 2.4M-SCH-B-SPACE FUNCTION ZN,   1.1500    
 Cooling Sizing Factor Information, Zone MFG - CORR. >= 2.4M-SCH-C-SPACE FUNCTION ZN,   1.1500    
 Cooling Sizing Factor Information, Zone MFG - CORR. >= 2.4M-SCH-D-SPACE FUNCTION ZN,   1.1500    
 Cooling Sizing Factor Information, Zone MFG - CORR. >= 2.4M-SCH-E-SPACE FUNCTION ZN,   1.1500    
 Cooling Sizing Factor Information, Zone MFG - CORR. >= 2.4M-SCH-F-SPACE FUNCTION ZN,   1.1500    
 Cooling Sizing Factor Information, Zone MFG - CORR. >= 2.4M-SCH-G-SPACE FUNCTION ZN,   1.1500    
 Cooling Sizing Factor Information, Zone MFG - CORR. >= 2.4M-SCH-H-SPACE FUNCTION ZN,   1.1500    
 Cooling Sizing Factor Information, Zone MFG - CORR. >= 2.4M-SCH-I-SPACE FUNCTION ZN,   1.1500    
 Cooling Sizing Factor Information, Zone MFG - DETAILED-SPACE FUNCTION ZN,   1.1500    
 Cooling Sizing Factor Information, Zone MFG - EQUIPMENT-SPACE FUNCTION ZN,   1.1500    
 Cooling Sizing Factor Information, Zone MUSEUM - EXHIBITION-SPACE FUNCTION ZN,   1.1500    
 Cooling Sizing Factor Information, Zone MUSEUM - RESTORATION-SPACE FUNCTION ZN,   1.1500    
 Cooling Sizing Factor Information, Zone OFFICE - ENCLOSED - OCCSENS-SPACE FUNCTION ZN,   1.1500    
 Cooling Sizing Factor Information, Zone OFFICE - ENCLOSED-SPACE FUNCTION ZN,   1.1500    
 Cooling Sizing Factor Information, Zone OFFICE - OPEN PLAN-SPACE FUNCTION ZN,   1.1500    
 Cooling Sizing Factor Information, Zone PARKING GARAGE SPACE-SPACE FUNCTION ZN,   1.1500    
 Cooling Sizing Factor Information, Zone PENITENTIARY - AUDIENCE-SPACE FUNCTION ZN,   1.1500    
 Cooling Sizing Factor Information, Zone PENITENTIARY - CLASSROOM-SPACE FUNCTION ZN,   1.1500    
! <Zone Sizing Information>, Zone Name, Load Type, Calc Des Load {W}, User Des Load {W}, Calc Des Air Flow Rate {m3/s}, User Des Air Flow Rate {m3/s}, Design Day Name, Date/Time of Peak, Temperature at Peak {C}, Humidity Ratio at Peak {kgWater/kgDryAir}, Floor Area {m2}, # Occupants, Calc Outdoor Air Flow Rate {m3/s}, Calc DOAS Heat Addition Rate {W}
 Zone Sizing Information, MFG - CORR. < 2.4M-SCH-I-SPACE FUNCTION ZN, Cooling, 109733.43349, 126193.44851, 7.43745, 8.55307, FORT MCMURRAY AP ANN CLG .4% CONDNS DB=>MWB, 7/21 15:00:00, 28.90000, 8.76969E-003, 2500.00000, 25.02609, 3.17500, 0.00000
 Zone Sizing Information, MFG - CORR. < 2.4M-SCH-I-SPACE FUNCTION ZN, Heating, 42067.82912, 52584.78639, 1.80501, 3.17500, FORT MCMURRAY AP ANN HTG 99.6% CONDNS DB, 1/21 15:10:00, -36.20000, 1.25811E-004, 2500.00000, 25.02609, 3.17500, 0.00000
 Zone Sizing Information, MFG - CORR. >= 2.4M-SCH-A-SPACE FUNCTION ZN, Cooling, 60729.57407, 69839.01018, 5.16279, 5.93721, FORT MCMURRAY AP ANN CLG .4% CONDNS DB=>MWB, 7/21 16:00:00, 28.15600, 8.76969E-003, 1875.00000, 18.76957, 2.38125, 0.00000
 Zone Sizing Information, MFG - CORR. >= 2.4M-SCH-A-SPACE FUNCTION ZN, Heating, 57502.57906, 71878.22383, 2.67393, 3.34242, FORT MCMURRAY AP ANN HTG 99.6% CONDNS DB, 1/21 08:00:00, -36.20000, 1.25811E-004, 1875.00000, 18.76957, 2.38125, 0.00000
 Zone Sizing Information, MFG - CORR. >= 2.4M-SCH-B-SPACE FUNCTION ZN, Cooling, 28456.48729, 32724.96038, 2.24472, 3.17500, FORT MCMURRAY AP ANN CLG .4% CONDNS DB=>MWB, 7/21 09:00:00, 22.08000, 8.76969E-003, 2500.00000, 25.02609, 3.17500, 0.00000
 Zone Sizing Information, MFG - CORR. >= 2.4M-SCH-B-SPACE FUNCTION ZN, Heating, 6894.14392, 8617.67990, 0.31918, 3.17500, FORT MCMURRAY AP ANN HTG 99.6% CONDNS DB, 1/21 10:00:00, -36.20000, 1.25811E-004, 2500.00000, 25.02609, 3.17500, 0.00000
 Zone Sizing Information, MFG - CORR. >= 2.4M-SCH-C-SPACE FUNCTION ZN, Cooling, 34015.61120, 39117.95287, 2.89173, 3.32549, FORT MCMURRAY AP ANN CLG .4% CONDNS DB=>MWB, 7/21 14:20:00, 28.90000, 8.76969E-003, 1875.00000, 18.76957, 2.38125, 0.00000
 Zone Sizing Information, MFG - CORR. >= 2.4M-SCH-C-SPACE FUNCTION ZN, Heating, 28555.93896, 35694.92370, 1.30833, 2.38125, FORT MCMURRAY AP ANN HTG 99.6% CONDNS DB, 1/21 09:00:00, -36.20000, 1.25811E-004, 1875.00000, 18.76957, 2.38125, 0.00000
 Zone Sizing Information, MFG - CORR. >= 2.4M-SCH-D-SPACE FUNCTION ZN, Cooling, 58953.36541, 67796.37022, 5.01177, 5.76353, FORT MCMURRAY AP ANN CLG .4% CONDNS DB=>MWB, 7/21 10:30:00, 25.11800, 8.76969E-003, 1875.00000, 18.76957, 2.38125, 0.00000
 Zone Sizing Information, MFG - CORR. >= 2.4M-SCH-D-SPACE FUNCTION ZN, Heating, 59021.14289, 73776.42861, 2.74533, 3.43166, FORT MCMURRAY AP ANN HTG 99.6% CONDNS DB, 1/21 09:00:00, -36.20000, 1.25811E-004, 1875.00000, 18.76957, 2.38125, 0.00000
 Zone Sizing Information, MFG - CORR. >= 2.4M-SCH-E-SPACE FUNCTION ZN, Cooling, 42923.33126, 49361.83094, 3.33113, 3.83079, FORT MCMURRAY AP ANN CLG .4% CONDNS DB=>MWB, 7/21 08:00:00, 19.72400, 8.76969E-003, 1875.00000, 18.76957, 2.38125, 0.00000
 Zone Sizing Information, MFG - CORR. >= 2.4M-SCH-E-SPACE FUNCTION ZN, Heating, 33819.31783, 42274.14729, 1.55744, 2.38125, FORT MCMURRAY AP ANN HTG 99.6% CONDNS DB, 1/21 09:00:00, -36.20000, 1.25811E-004, 1875.00000, 18.76957, 2.38125, 0.00000
 Zone Sizing Information, MFG - CORR. >= 2.4M-SCH-F-SPACE FUNCTION ZN, Cooling, 18223.39096, 20956.89960, 1.54920, 2.38125, FORT MCMURRAY AP ANN CLG .4% CONDNS DB=>MWB, 7/21 20:30:00, 22.14200, 8.76969E-003, 1875.00000, 18.76957, 2.38125, 0.00000
 Zone Sizing Information, MFG - CORR. >= 2.4M-SCH-F-SPACE FUNCTION ZN, Heating, 31387.81864, 39234.77330, 1.44242, 2.38125, FORT MCMURRAY AP ANN HTG 99.6% CONDNS DB, 1/21 09:00:00, -36.20000, 1.25811E-004, 1875.00000, 18.76957, 2.38125, 0.00000
 Zone Sizing Information, MFG - CORR. >= 2.4M-SCH-G-SPACE FUNCTION ZN, Cooling, 32034.59545, 36839.78476, 2.72332, 3.13181, FORT MCMURRAY AP ANN CLG .4% CONDNS DB=>MWB, 7/21 18:30:00, 24.99400, 8.76969E-003, 1875.00000, 18.76957, 2.38125, 0.00000
 Zone Sizing Information, MFG - CORR. >= 2.4M-SCH-G-SPACE FUNCTION ZN, Heating, 28860.18520, 36075.23150, 1.32274, 2.38125, FORT MCMURRAY AP ANN HTG 99.6% CONDNS DB, 1/21 09:00:00, -36.20000, 1.25811E-004, 1875.00000, 18.76957, 2.38125, 0.00000
 Zone Sizing Information, MFG - CORR. >= 2.4M-SCH-H-SPACE FUNCTION ZN, Cooling, 11717.13717, 13474.70775, 0.99610, 2.38125, FORT MCMURRAY AP ANN CLG .4% CONDNS DB=>MWB, 7/21 20:10:00, 22.51400, 8.76969E-003, 1875.00000, 18.76957, 2.38125, 0.00000
 Zone Sizing Information, MFG - CORR. >= 2.4M-SCH-H-SPACE FUNCTION ZN, Heating, 0.00000, 0.00000, 0.00000, 2.38125, FORT MCMURRAY AP ANN HTG 99.6% CONDNS DB, , -36.20000, 1.25811E-004, 1875.00000, 18.76957, 2.38125, 0.00000
 Zone Sizing Information, MFG - CORR. >= 2.4M-SCH-I-SPACE FUNCTION ZN, Cooling, 88113.58938, 101330.62778, 6.02375, 6.92731, FORT MCMURRAY AP ANN CLG .4% CONDNS DB=>MWB, 7/21 15:00:00, 28.90000, 8.76969E-003, 1875.00000, 18.76957, 2.38125, 0.00000
 Zone Sizing Information, MFG - CORR. >= 2.4M-SCH-I-SPACE FUNCTION ZN, Heating, 48802.08414, 61002.60518, 2.10013, 2.62516, FORT MCMURRAY AP ANN HTG 99.6% CONDNS DB, 1/21 15:10:00, -36.20000, 1.25811E-004, 1875.00000, 18.76957, 2.38125, 0.00000
 Zone Sizing Information, MFG - DETAILED-SPACE FUNCTION ZN, Cooling, 24345.04929, 27996.80668, 2.06974, 2.38125, FORT MCMURRAY AP ANN CLG .4% CONDNS DB=>MWB, 7/21 17:00:00, 27.16400, 8.76969E-003, 1875.00000, 62.56523, 2.38125, 0.00000
 Zone Sizing Information, MFG - DETAILED-SPACE FUNCTION ZN, Heating, 0.00000, 0.00000, 0.00000, 2.38125, FORT MCMURRAY AP ANN HTG 99.6% CONDNS DB, , -36.20000, 1.25811E-004, 1875.00000, 62.56523, 2.38125, 0.00000
 Zone Sizing Information, MFG - EQUIPMENT-SPACE FUNCTION ZN, Cooling, 94907.45370, 109143.57176, 8.06853, 9.27881, FORT MCMURRAY AP ANN CLG .4% CONDNS DB=>MWB, 7/21 13:30:00, 28.59000, 8.76969E-003, 1875.00000, 62.56523, 2.38125, 0.00000
 Zone Sizing Information, MFG - EQUIPMENT-SPACE FUNCTION ZN, Heating, 49500.91788, 61876.14735, 2.29683, 2.87104, FORT MCMURRAY AP ANN HTG 99.6% CONDNS DB, 1/21 08:00:00, -36.20000, 1.25811E-004, 1875.00000, 62.56523, 2.38125, 0.00000
 Zone Sizing Information, MUSEUM - EXHIBITION-SPACE FUNCTION ZN, Cooling, 37965.20141, 43659.98162, 3.22868, 3.71298, FORT MCMURRAY AP ANN CLG .4% CONDNS DB=>MWB, 7/21 17:00:00, 27.16400, 8.76969E-003, 1875.00000, 374.98773, 3.42900, 0.00000
 Zone Sizing Information, MUSEUM - EXHIBITION-SPACE FUNCTION ZN, Heating, 0.00000, 0.00000, 0.00000, 3.42900, FORT MCMURRAY AP ANN HTG 99.6% CONDNS DB, , -36.20000, 1.25811E-004, 1875.00000, 374.98773, 3.42900, 0.00000
 Zone Sizing Information, MUSEUM - RESTORATION-SPACE FUNCTION ZN, Cooling, 39394.45228, 45303.62012, 3.34933, 3.85173, FORT MCMURRAY AP ANN CLG .4% CONDNS DB=>MWB, 7/21 17:00:00, 27.16400, 8.76969E-003, 2500.00000, 125.13046, 2.15900, 0.00000
 Zone Sizing Information, MUSEUM - RESTORATION-SPACE FUNCTION ZN, Heating, 0.00000, 0.00000, 0.00000, 2.15900, FORT MCMURRAY AP ANN HTG 99.6% CONDNS DB, , -36.20000, 1.25811E-004, 2500.00000, 125.13046, 2.15900, 0.00000
 Zone Sizing Information, OFFICE - ENCLOSED - OCCSENS-SPACE FUNCTION ZN, Cooling, 45364.70828, 52169.41452, 3.85693, 4.43546, FORT MCMURRAY AP ANN CLG .4% CONDNS DB=>MWB, 7/21 17:20:00, 26.75067, 8.76969E-003, 1875.00000, 93.84784, 0.80963, 0.00000
 Zone Sizing Information, OFFICE - ENCLOSED - OCCSENS-SPACE FUNCTION ZN, Heating, 10012.21673, 12515.27092, 0.45662, 0.80963, FORT MCMURRAY AP ANN HTG 99.6% CONDNS DB, 1/21 08:00:00, -36.20000, 1.25811E-004, 1875.00000, 93.84784, 0.80963, 0.00000
 Zone Sizing Information, OFFICE - ENCLOSED-SPACE FUNCTION ZN, Cooling, 39798.31849, 45768.06626, 3.38367, 3.89122, FORT MCMURRAY AP ANN CLG .4% CONDNS DB=>MWB, 7/21 17:00:00, 27.16400, 8.76969E-003, 2500.00000, 125.13046, 1.07950, 0.00000
 Zone Sizing Information, OFFICE - ENCLOSED-SPACE FUNCTION ZN, Heating, 0.00000, 0.00000, 0.00000, 1.07950, FORT MCMURRAY AP ANN HTG 99.6% CONDNS DB, , -36.20000, 1.25811E-004, 2500.00000, 125.13046, 1.07950, 0.00000
 Zone Sizing Information, OFFICE - OPEN PLAN-SPACE FUNCTION ZN, Cooling, 27179.37938, 31256.28629, 2.31080, 2.65742, FORT MCMURRAY AP ANN CLG .4% CONDNS DB=>MWB, 7/21 17:00:00, 27.16400, 8.76969E-003, 1875.00000, 93.84784, 0.80963, 0.00000
 Zone Sizing Information, OFFICE - OPEN PLAN-SPACE FUNCTION ZN, Heating, 0.00000, 0.00000, 0.00000, 0.80963, FORT MCMURRAY AP ANN HTG 99.6% CONDNS DB, , -36.20000, 1.25811E-004, 1875.00000, 93.84784, 0.80963, 0.00000
 Zone Sizing Information, PARKING GARAGE SPACE-SPACE FUNCTION ZN, Cooling, 11664.78864, 13414.50694, 0.99163, 4.76250, FORT MCMURRAY AP ANN CLG .4% CONDNS DB=>MWB, 7/21 20:10:00, 22.51400, 8.76969E-003, 1875.00000, 1.81641, 4.76250, 0.00000
 Zone Sizing Information, PARKING GARAGE SPACE-SPACE FUNCTION ZN, Heating, 19929.58893, 24911.98616, 0.90401, 4.76250, FORT MCMURRAY AP ANN HTG 99.6% CONDNS DB, 1/21 09:00:00, -36.20000, 1.25811E-004, 1875.00000, 1.81641, 4.76250, 0.00000
 Zone Sizing Information, PENITENTIARY - AUDIENCE-SPACE FUNCTION ZN, Cooling, 41503.19340, 47728.67241, 3.20902, 3.90525, FORT MCMURRAY AP ANN CLG .4% CONDNS DB=>MWB, 7/21 08:00:00, 19.72400, 8.76969E-003, 1875.00000, 374.98773, 3.90525, 0.00000
 Zone Sizing Information, PENITENTIARY - AUDIENCE-SPACE FUNCTION ZN, Heating, 17299.44995, 21624.31243, 0.77728, 3.90525, FORT MCMURRAY AP ANN HTG 99.6% CONDNS DB, 1/21 09:00:00, -36.20000, 1.25811E-004, 1875.00000, 374.98773, 3.90525, 0.00000
 Zone Sizing Information, PENITENTIARY - CLASSROOM-SPACE FUNCTION ZN, Cooling, 51774.94294, 59541.18438, 4.40259, 5.21970, FORT MCMURRAY AP ANN CLG .4% CONDNS DB=>MWB, 7/21 13:50:00, 28.79667, 8.76969E-003, 1875.00000, 250.05909, 5.21970, 0.00000
 Zone Sizing Information, PENITENTIARY - CLASSROOM-SPACE FUNCTION ZN, Heating, 9274.26348, 11592.82935, 0.41900, 5.21970, FORT MCMURRAY AP ANN HTG 99.6% CONDNS DB, 1/21 09:00:00, -36.20000, 1.25811E-004, 1875.00000, 250.05909, 5.21970, 0.00000
! <Component Sizing Information>, Component Type, Component Name, Input Field Description, Value
 Component Sizing Information, ZoneHVAC:IdealLoadsAirSystem, ZONE HVAC IDEAL LOADS AIR SYSTEM 1, User-Specified Maximum Heating Air Flow Rate [m3/s], 0.00000
 Component Sizing Information, ZoneHVAC:IdealLoadsAirSystem, ZONE HVAC IDEAL LOADS AIR SYSTEM 1, User-Specified Maximum Cooling Air Flow Rate [m3/s], 0.00000
 Component Sizing Information, ZoneHVAC:IdealLoadsAirSystem, ZONE HVAC IDEAL LOADS AIR SYSTEM 2, User-Specified Maximum Heating Air Flow Rate [m3/s], 0.00000
 Component Sizing Information, ZoneHVAC:IdealLoadsAirSystem, ZONE HVAC IDEAL LOADS AIR SYSTEM 2, User-Specified Maximum Cooling Air Flow Rate [m3/s], 0.00000
 Component Sizing Information, ZoneHVAC:IdealLoadsAirSystem, ZONE HVAC IDEAL LOADS AIR SYSTEM 3, User-Specified Maximum Heating Air Flow Rate [m3/s], 0.00000
 Component Sizing Information, ZoneHVAC:IdealLoadsAirSystem, ZONE HVAC IDEAL LOADS AIR SYSTEM 3, User-Specified Maximum Cooling Air Flow Rate [m3/s], 0.00000
 Component Sizing Information, ZoneHVAC:IdealLoadsAirSystem, ZONE HVAC IDEAL LOADS AIR SYSTEM 4, User-Specified Maximum Heating Air Flow Rate [m3/s], 0.00000
 Component Sizing Information, ZoneHVAC:IdealLoadsAirSystem, ZONE HVAC IDEAL LOADS AIR SYSTEM 4, User-Specified Maximum Cooling Air Flow Rate [m3/s], 0.00000
 Component Sizing Information, ZoneHVAC:IdealLoadsAirSystem, ZONE HVAC IDEAL LOADS AIR SYSTEM 5, User-Specified Maximum Heating Air Flow Rate [m3/s], 0.00000
 Component Sizing Information, ZoneHVAC:IdealLoadsAirSystem, ZONE HVAC IDEAL LOADS AIR SYSTEM 5, User-Specified Maximum Cooling Air Flow Rate [m3/s], 0.00000
 Component Sizing Information, ZoneHVAC:IdealLoadsAirSystem, ZONE HVAC IDEAL LOADS AIR SYSTEM 6, User-Specified Maximum Heating Air Flow Rate [m3/s], 0.00000
 Component Sizing Information, ZoneHVAC:IdealLoadsAirSystem, ZONE HVAC IDEAL LOADS AIR SYSTEM 6, User-Specified Maximum Cooling Air Flow Rate [m3/s], 0.00000
 Component Sizing Information, ZoneHVAC:IdealLoadsAirSystem, ZONE HVAC IDEAL LOADS AIR SYSTEM 7, User-Specified Maximum Heating Air Flow Rate [m3/s], 0.00000
 Component Sizing Information, ZoneHVAC:IdealLoadsAirSystem, ZONE HVAC IDEAL LOADS AIR SYSTEM 7, User-Specified Maximum Cooling Air Flow Rate [m3/s], 0.00000
 Component Sizing Information, ZoneHVAC:IdealLoadsAirSystem, ZONE HVAC IDEAL LOADS AIR SYSTEM 8, User-Specified Maximum Heating Air Flow Rate [m3/s], 0.00000
 Component Sizing Information, ZoneHVAC:IdealLoadsAirSystem, ZONE HVAC IDEAL LOADS AIR SYSTEM 8, User-Specified Maximum Cooling Air Flow Rate [m3/s], 0.00000
 Component Sizing Information, ZoneHVAC:IdealLoadsAirSystem, ZONE HVAC IDEAL LOADS AIR SYSTEM 9, User-Specified Maximum Heating Air Flow Rate [m3/s], 0.00000
 Component Sizing Information, ZoneHVAC:IdealLoadsAirSystem, ZONE HVAC IDEAL LOADS AIR SYSTEM 9, User-Specified Maximum Cooling Air Flow Rate [m3/s], 0.00000
 Component Sizing Information, ZoneHVAC:IdealLoadsAirSystem, ZONE HVAC IDEAL LOADS AIR SYSTEM 10, User-Specified Maximum Heating Air Flow Rate [m3/s], 0.00000
 Component Sizing Information, ZoneHVAC:IdealLoadsAirSystem, ZONE HVAC IDEAL LOADS AIR SYSTEM 10, User-Specified Maximum Cooling Air Flow Rate [m3/s], 0.00000
 Component Sizing Information, ZoneHVAC:IdealLoadsAirSystem, ZONE HVAC IDEAL LOADS AIR SYSTEM 11, User-Specified Maximum Heating Air Flow Rate [m3/s], 0.00000
 Component Sizing Information, ZoneHVAC:IdealLoadsAirSystem, ZONE HVAC IDEAL LOADS AIR SYSTEM 11, User-Specified Maximum Cooling Air Flow Rate [m3/s], 0.00000
 Component Sizing Information, ZoneHVAC:IdealLoadsAirSystem, ZONE HVAC IDEAL LOADS AIR SYSTEM 12, User-Specified Maximum Heating Air Flow Rate [m3/s], 0.00000
 Component Sizing Information, ZoneHVAC:IdealLoadsAirSystem, ZONE HVAC IDEAL LOADS AIR SYSTEM 12, User-Specified Maximum Cooling Air Flow Rate [m3/s], 0.00000
 Component Sizing Information, ZoneHVAC:IdealLoadsAirSystem, ZONE HVAC IDEAL LOADS AIR SYSTEM 13, User-Specified Maximum Heating Air Flow Rate [m3/s], 0.00000
 Component Sizing Information, ZoneHVAC:IdealLoadsAirSystem, ZONE HVAC IDEAL LOADS AIR SYSTEM 13, User-Specified Maximum Cooling Air Flow Rate [m3/s], 0.00000
 Component Sizing Information, ZoneHVAC:IdealLoadsAirSystem, ZONE HVAC IDEAL LOADS AIR SYSTEM 14, User-Specified Maximum Heating Air Flow Rate [m3/s], 0.00000
 Component Sizing Information, ZoneHVAC:IdealLoadsAirSystem, ZONE HVAC IDEAL LOADS AIR SYSTEM 14, User-Specified Maximum Cooling Air Flow Rate [m3/s], 0.00000
 Component Sizing Information, ZoneHVAC:IdealLoadsAirSystem, ZONE HVAC IDEAL LOADS AIR SYSTEM 15, User-Specified Maximum Heating Air Flow Rate [m3/s], 0.00000
 Component Sizing Information, ZoneHVAC:IdealLoadsAirSystem, ZONE HVAC IDEAL LOADS AIR SYSTEM 15, User-Specified Maximum Cooling Air Flow Rate [m3/s], 0.00000
 Component Sizing Information, ZoneHVAC:IdealLoadsAirSystem, ZONE HVAC IDEAL LOADS AIR SYSTEM 16, User-Specified Maximum Heating Air Flow Rate [m3/s], 0.00000
 Component Sizing Information, ZoneHVAC:IdealLoadsAirSystem, ZONE HVAC IDEAL LOADS AIR SYSTEM 16, User-Specified Maximum Cooling Air Flow Rate [m3/s], 0.00000
 Component Sizing Information, ZoneHVAC:IdealLoadsAirSystem, ZONE HVAC IDEAL LOADS AIR SYSTEM 17, User-Specified Maximum Heating Air Flow Rate [m3/s], 0.00000
 Component Sizing Information, ZoneHVAC:IdealLoadsAirSystem, ZONE HVAC IDEAL LOADS AIR SYSTEM 17, User-Specified Maximum Cooling Air Flow Rate [m3/s], 0.00000
 Component Sizing Information, ZoneHVAC:IdealLoadsAirSystem, ZONE HVAC IDEAL LOADS AIR SYSTEM 18, User-Specified Maximum Heating Air Flow Rate [m3/s], 0.00000
 Component Sizing Information, ZoneHVAC:IdealLoadsAirSystem, ZONE HVAC IDEAL LOADS AIR SYSTEM 18, User-Specified Maximum Cooling Air Flow Rate [m3/s], 0.00000
 Component Sizing Information, ZoneHVAC:IdealLoadsAirSystem, ZONE HVAC IDEAL LOADS AIR SYSTEM 19, User-Specified Maximum Heating Air Flow Rate [m3/s], 0.00000
 Component Sizing Information, ZoneHVAC:IdealLoadsAirSystem, ZONE HVAC IDEAL LOADS AIR SYSTEM 19, User-Specified Maximum Cooling Air Flow Rate [m3/s], 0.00000
 Component Sizing Information, ZoneHVAC:IdealLoadsAirSystem, ZONE HVAC IDEAL LOADS AIR SYSTEM 20, User-Specified Maximum Heating Air Flow Rate [m3/s], 0.00000
 Component Sizing Information, ZoneHVAC:IdealLoadsAirSystem, ZONE HVAC IDEAL LOADS AIR SYSTEM 20, User-Specified Maximum Cooling Air Flow Rate [m3/s], 0.00000
! <Environment>,Environment Name,Environment Type, Start Date, End Date, Start DayOfWeek, Duration {#days}, Source:Start DayOfWeek,  Use Daylight Saving, Use Holidays, Apply Weekend Holiday Rule,  Use Rain Values, Use Snow Values
! <Environment:Special Days>, Special Day Name, Special Day Type, Source, Start Date, Duration {#days}
! <Environment:Daylight Saving>, Daylight Saving Indicator, Source, Start Date, End Date
! <Environment:WarmupDays>, NumberofWarmupDays
Environment,FORT MCMURRAY AP ANN CLG .4% CONDNS DB=>MWB,SizingPeriod:DesignDay,07/21,07/21,SummerDesignDay,1,N/A,N/A,N/A,N/A,N/A,N/A
Environment:Daylight Saving,No,SizingPeriod:DesignDay
! <Environment:Design Day Data>, Max Dry-Bulb Temp {C}, Temp Range {dC}, Temp Range Ind Type, Hum Ind Value at Max Temp, Hum Ind Type,Pressure {Pa}, Wind Direction {deg CW from N}, Wind Speed {m/s}, Clearness, Rain, Snow
! <Environment:Design Day Misc>,DayOfYear,ASHRAE A Coeff,ASHRAE B Coeff,ASHRAE C Coeff,Solar Constant-Annual Variation,Eq of Time {minutes}, Solar Declination Angle {deg}, Solar Model
Environment:Design Day Data,28.90,12.40,DefaultMultipliers,96969,250,3.7,0.00,No,No
Environment:Design Day Misc,202,1084.4,0.2082,0.1365,1.0,-6.23,20.6,ASHRAETau
Environment:WarmupDays,  6
! <Tabular Report>,Style,Unit Conversion
Tabular Report,HTML,None
! <Warmup Convergence Information>,Zone Name,Environment Type/Name,Average Warmup Temperature Difference {deltaC},Std Dev Warmup Temperature Difference {deltaC},Max Temperature Pass/Fail Convergence,Min Temperature Pass/Fail Convergence,Average Warmup Load Difference {W},Std Dev Warmup Load Difference {W},Heating Load Pass/Fail Convergence,Cooling Load Pass/Fail Convergence
 Warmup Convergence Information,MFG - CORR. < 2.4M-SCH-I-SPACE FUNCTION ZN,SizingPeriod: FORT MCMURRAY AP ANN CLG .4% CONDNS DB=>MWB,0.1413873321,0.5579386005,Pass,Pass,4.0868351736E-002,0.1216783056,Pass,Pass
 Warmup Convergence Information,MFG - CORR. >= 2.4M-SCH-A-SPACE FUNCTION ZN,SizingPeriod: FORT MCMURRAY AP ANN CLG .4% CONDNS DB=>MWB,4.5501378843E-002,7.7840130142E-002,Pass,Pass,3.3432856483E-002,4.8331039896E-002,Pass,Pass
 Warmup Convergence Information,MFG - CORR. >= 2.4M-SCH-B-SPACE FUNCTION ZN,SizingPeriod: FORT MCMURRAY AP ANN CLG .4% CONDNS DB=>MWB,2.7226539071E-002,4.1513434574E-002,Pass,Pass,3.3367874657E-002,6.4991785360E-002,Pass,Pass
 Warmup Convergence Information,MFG - CORR. >= 2.4M-SCH-C-SPACE FUNCTION ZN,SizingPeriod: FORT MCMURRAY AP ANN CLG .4% CONDNS DB=>MWB,3.3747227437E-002,4.9251484688E-002,Pass,Pass,3.4604290473E-002,9.0704064414E-002,Pass,Pass
 Warmup Convergence Information,MFG - CORR. >= 2.4M-SCH-D-SPACE FUNCTION ZN,SizingPeriod: FORT MCMURRAY AP ANN CLG .4% CONDNS DB=>MWB,4.8239826029E-002,7.0457275590E-002,Pass,Pass,2.7583925413E-002,3.6863940223E-002,Pass,Pass
 Warmup Convergence Information,MFG - CORR. >= 2.4M-SCH-E-SPACE FUNCTION ZN,SizingPeriod: FORT MCMURRAY AP ANN CLG .4% CONDNS DB=>MWB,4.2581756722E-002,6.4065453973E-002,Pass,Pass,4.8271323547E-002,0.2984740161,Pass,Pass
 Warmup Convergence Information,MFG - CORR. >= 2.4M-SCH-F-SPACE FUNCTION ZN,SizingPeriod: FORT MCMURRAY AP ANN CLG .4% CONDNS DB=>MWB,2.7878822712E-002,4.0007718154E-002,Pass,Pass,4.0200883642E-002,7.2062653059E-002,Pass,Pass
 Warmup Convergence Information,MFG - CORR. >= 2.4M-SCH-G-SPACE FUNCTION ZN,SizingPeriod: FORT MCMURRAY AP ANN CLG .4% CONDNS DB=>MWB,2.0758896476E-002,3.3977762785E-002,Pass,Pass,2.7447840336E-002,2.7006952910E-002,Pass,Pass
 Warmup Convergence Information,MFG - CORR. >= 2.4M-SCH-H-SPACE FUNCTION ZN,SizingPeriod: FORT MCMURRAY AP ANN CLG .4% CONDNS DB=>MWB,2.1100854262E-002,3.2763793119E-002,Pass,Pass,1.8918031278E-002,3.8587531321E-002,Pass,Pass
 Warmup Convergence Information,MFG - CORR. >= 2.4M-SCH-I-SPACE FUNCTION ZN,SizingPeriod: FORT MCMURRAY AP ANN CLG .4% CONDNS DB=>MWB,0.1457801458,0.5739137662,Pass,Pass,4.1060312608E-002,0.1116979569,Pass,Pass
 Warmup Convergence Information,MFG - DETAILED-SPACE FUNCTION ZN,SizingPeriod: FORT MCMURRAY AP ANN CLG .4% CONDNS DB=>MWB,3.3029544252E-002,6.5522117287E-002,Pass,Pass,2.4810843029E-002,5.0234825303E-002,Pass,Pass
 Warmup Convergence Information,MFG - EQUIPMENT-SPACE FUNCTION ZN,SizingPeriod: FORT MCMURRAY AP ANN CLG .4% CONDNS DB=>MWB,4.3568304654E-002,7.4848557424E-002,Pass,Pass,3.4544751698E-002,9.3948695429E-002,Pass,Pass
 Warmup Convergence Information,MUSEUM - EXHIBITION-SPACE FUNCTION ZN,SizingPeriod: FORT MCMURRAY AP ANN CLG .4% CONDNS DB=>MWB,4.2652622517E-002,7.1788208254E-002,Pass,Pass,3.2119825909E-002,8.8395669728E-002,Pass,Pass
 Warmup Convergence Information,MUSEUM - RESTORATION-SPACE FUNCTION ZN,SizingPeriod: FORT MCMURRAY AP ANN CLG .4% CONDNS DB=>MWB,2.2062780127E-002,3.9410812977E-002,Pass,Pass,3.2357231275E-002,0.1184471453,Pass,Pass
 Warmup Convergence Information,OFFICE - ENCLOSED - OCCSENS-SPACE FUNCTION ZN,SizingPeriod: FORT MCMURRAY AP ANN CLG .4% CONDNS DB=>MWB,2.3321479576E-002,7.0955002148E-002,Pass,Pass,7.3974411214E-002,0.3884389679,Pass,Pass
 Warmup Convergence Information,OFFICE - ENCLOSED-SPACE FUNCTION ZN,SizingPeriod: FORT MCMURRAY AP ANN CLG .4% CONDNS DB=>MWB,1.7413805303E-002,3.9496584636E-002,Pass,Pass,4.3915461362E-002,0.2373437484,Pass,Pass
 Warmup Convergence Information,OFFICE - OPEN PLAN-SPACE FUNCTION ZN,SizingPeriod: FORT MCMURRAY AP ANN CLG .4% CONDNS DB=>MWB,1.8580902170E-002,3.5191862810E-002,Pass,Pass,4.1170428495E-002,0.2010169894,Pass,Pass
 Warmup Convergence Information,PARKING GARAGE SPACE-SPACE FUNCTION ZN,SizingPeriod: FORT MCMURRAY AP ANN CLG .4% CONDNS DB=>MWB,4.3482653641E-002,5.7568638760E-002,Pass,Pass,6.7750361487E-002,0.2548594671,Pass,Pass
 Warmup Convergence Information,PENITENTIARY - AUDIENCE-SPACE FUNCTION ZN,SizingPeriod: FORT MCMURRAY AP ANN CLG .4% CONDNS DB=>MWB,3.7816786610E-002,5.4302387810E-002,Pass,Pass,2.3147186214E-002,5.9297951750E-002,Pass,Pass
 Warmup Convergence Information,PENITENTIARY - CLASSROOM-SPACE FUNCTION ZN,SizingPeriod: FORT MCMURRAY AP ANN CLG .4% CONDNS DB=>MWB,4.4295909202E-002,7.7835283638E-002,Pass,Pass,3.0554253989E-002,9.6000552451E-002,Pass,Pass
Environment,FORT MCMURRAY AP ANN HTG 99.6% CONDNS DB,SizingPeriod:DesignDay,01/21,01/21,WinterDesignDay,1,N/A,N/A,N/A,N/A,N/A,N/A
Environment:Daylight Saving,No,SizingPeriod:DesignDay
Environment:Design Day Data,-36.20,0.00,DefaultMultipliers,96969,90,1.0,0.00,No,No
Environment:Design Day Misc, 21,1229.0,0.1415,5.7310E-002,1.0,-11.15,-20.1,ASHRAEClearSky
Environment:WarmupDays,  6
 Warmup Convergence Information,MFG - CORR. < 2.4M-SCH-I-SPACE FUNCTION ZN,SizingPeriod: FORT MCMURRAY AP ANN HTG 99.6% CONDNS DB,5.5555555556E-002,0.3647030692,Pass,Pass,0.1322408409,0.5430461569,Pass,Pass
 Warmup Convergence Information,MFG - CORR. >= 2.4M-SCH-A-SPACE FUNCTION ZN,SizingPeriod: FORT MCMURRAY AP ANN HTG 99.6% CONDNS DB,5.5555555556E-002,0.3666348611,Pass,Pass,5.6022426119E-002,0.2163672053,Pass,Pass
 Warmup Convergence Information,MFG - CORR. >= 2.4M-SCH-B-SPACE FUNCTION ZN,SizingPeriod: FORT MCMURRAY AP ANN HTG 99.6% CONDNS DB,5.5691478631E-002,0.3624235679,Pass,Pass,0.1928057310,1.0754461116,Pass,Pass
 Warmup Convergence Information,MFG - CORR. >= 2.4M-SCH-C-SPACE FUNCTION ZN,SizingPeriod: FORT MCMURRAY AP ANN HTG 99.6% CONDNS DB,5.5572099642E-002,0.3631985487,Pass,Pass,0.2434934617,1.5865284764,Pass,Pass
 Warmup Convergence Information,MFG - CORR. >= 2.4M-SCH-D-SPACE FUNCTION ZN,SizingPeriod: FORT MCMURRAY AP ANN HTG 99.6% CONDNS DB,5.5555555556E-002,0.3668748471,Pass,Pass,8.2114449290E-002,0.3650289030,Pass,Pass
 Warmup Convergence Information,MFG - CORR. >= 2.4M-SCH-E-SPACE FUNCTION ZN,SizingPeriod: FORT MCMURRAY AP ANN HTG 99.6% CONDNS DB,5.5565971443E-002,0.3639988704,Pass,Pass,0.4014879491,2.9595697027,Pass,Pass
 Warmup Convergence Information,MFG - CORR. >= 2.4M-SCH-F-SPACE FUNCTION ZN,SizingPeriod: FORT MCMURRAY AP ANN HTG 99.6% CONDNS DB,5.5596252410E-002,0.3638681480,Pass,Pass,0.3727453978,2.2053897954,Pass,Pass
 Warmup Convergence Information,MFG - CORR. >= 2.4M-SCH-G-SPACE FUNCTION ZN,SizingPeriod: FORT MCMURRAY AP ANN HTG 99.6% CONDNS DB,5.5600889669E-002,0.3640386765,Pass,Pass,0.1946882695,0.6546038227,Pass,Pass
 Warmup Convergence Information,MFG - CORR. >= 2.4M-SCH-H-SPACE FUNCTION ZN,SizingPeriod: FORT MCMURRAY AP ANN HTG 99.6% CONDNS DB,5.5783049262E-002,0.3612992029,Pass,Pass,0.3232425530,1.2489582707,Pass,Pass
 Warmup Convergence Information,MFG - CORR. >= 2.4M-SCH-I-SPACE FUNCTION ZN,SizingPeriod: FORT MCMURRAY AP ANN HTG 99.6% CONDNS DB,5.5555555556E-002,0.3664611790,Pass,Pass,8.9207601958E-002,0.5170876422,Pass,Pass
 Warmup Convergence Information,MFG - DETAILED-SPACE FUNCTION ZN,SizingPeriod: FORT MCMURRAY AP ANN HTG 99.6% CONDNS DB,5.5755219476E-002,0.3615356655,Pass,Pass,0.6428376470,4.6070648455,Pass,Pass
 Warmup Convergence Information,MFG - EQUIPMENT-SPACE FUNCTION ZN,SizingPeriod: FORT MCMURRAY AP ANN HTG 99.6% CONDNS DB,5.5555555556E-002,0.3657111725,Pass,Pass,7.9444410900E-002,0.2543545917,Pass,Pass
 Warmup Convergence Information,MUSEUM - EXHIBITION-SPACE FUNCTION ZN,SizingPeriod: FORT MCMURRAY AP ANN HTG 99.6% CONDNS DB,5.5555555556E-002,0.3724299095,Pass,Pass,1.0218547124,7.8401419251,Pass,Pass
 Warmup Convergence Information,MUSEUM - RESTORATION-SPACE FUNCTION ZN,SizingPeriod: FORT MCMURRAY AP ANN HTG 99.6% CONDNS DB,5.6900002616E-002,0.3460396212,Pass,Pass,0.2090207810,0.9942512124,Pass,Pass
 Warmup Convergence Information,OFFICE - ENCLOSED - OCCSENS-SPACE FUNCTION ZN,SizingPeriod: FORT MCMURRAY AP ANN HTG 99.6% CONDNS DB,5.9795304079E-002,0.3205606820,Pass,Pass,0.6690642246,5.6351941646,Pass,Pass
 Warmup Convergence Information,OFFICE - ENCLOSED-SPACE FUNCTION ZN,SizingPeriod: FORT MCMURRAY AP ANN HTG 99.6% CONDNS DB,6.1023337453E-002,0.3116074097,Pass,Pass,0.3143123786,1.5106701238,Pass,Pass
 Warmup Convergence Information,OFFICE - OPEN PLAN-SPACE FUNCTION ZN,SizingPeriod: FORT MCMURRAY AP ANN HTG 99.6% CONDNS DB,6.1017765273E-002,0.3163301528,Pass,Pass,0.2828661478,1.2199108375,Pass,Pass
 Warmup Convergence Information,PARKING GARAGE SPACE-SPACE FUNCTION ZN,SizingPeriod: FORT MCMURRAY AP ANN HTG 99.6% CONDNS DB,5.5555555556E-002,0.3806933072,Pass,Pass,7.7430031748E-002,0.2439518807,Pass,Pass
 Warmup Convergence Information,PENITENTIARY - AUDIENCE-SPACE FUNCTION ZN,SizingPeriod: FORT MCMURRAY AP ANN HTG 99.6% CONDNS DB,5.5555555556E-002,0.3761389708,Pass,Pass,0.1299026048,0.2467905888,Pass,Pass
 Warmup Convergence Information,PENITENTIARY - CLASSROOM-SPACE FUNCTION ZN,SizingPeriod: FORT MCMURRAY AP ANN HTG 99.6% CONDNS DB,5.5555555555E-002,0.3829817396,Pass,Pass,0.4109099328,3.4984046421,Pass,Pass
! <Program Control Information:Threads/Parallel Sims>, Threading Supported,Maximum Number of Threads, Env Set Threads (OMP_NUM_THREADS), EP Env Set Threads (EP_OMP_NUM_THREADS), IDF Set Threads, Number of Threads Used (Interior Radiant Exchange), Number Nominal Surfaces, Number Parallel Sims
Program Control:Threads/Parallel Sims, No,1, N/A, N/A, N/A, N/A, N/A, N/A
End of Data
