Program Version,EnergyPlus, Version 8.9.0-eba93e8e1b, YMD=2019.03.19 18:46
! <Version>, Version ID
 Version, 8.9
! <Timesteps per Hour>, #TimeSteps, Minutes per TimeStep {minutes}
 Timesteps per Hour,  6, 10
! <System Convergence Limits>, Minimum System TimeStep {minutes}, Max HVAC Iterations, Minimum Plant Iterations, Maximum Plant Iterations
 System Convergence Limits, 1, 20, 2, 8
! <Simulation Control>, Do Zone Sizing, Do System Sizing, Do Plant Sizing, Do Design Days, Do Weather Simulation, Do HVAC Sizing Simulation
 Simulation Control, Yes, Yes, Yes, No, Yes, No
! <Output Reporting Tolerances>, Tolerance for Time Heating Setpoint Not Met, Tolerance for Zone Cooling Setpoint Not Met Time
 Output Reporting Tolerances, 1.000, 1.000, 
! <Site:GroundTemperature:BuildingSurface>,Jan{C},Feb{C},Mar{C},Apr{C},May{C},Jun{C},Jul{C},Aug{C},Sep{C},Oct{C},Nov{C},Dec{C}
 Site:GroundTemperature:BuildingSurface,  19.53,  19.50,  19.54,  19.60,  20.00,  21.64,  22.23,  22.38,  21.45,  20.12,  19.80,  19.63
! <Site:GroundTemperature:FCfactorMethod>,Jan{C},Feb{C},Mar{C},Apr{C},May{C},Jun{C},Jul{C},Aug{C},Sep{C},Oct{C},Nov{C},Dec{C}
 Site:GroundTemperature:FCfactorMethod, -12.27, -13.66, -11.19,  -7.33,   2.77,  10.57,  15.83,  17.43,  14.70,   8.65,   0.56,  -6.95
! <Site:GroundTemperature:Shallow>,Jan{C},Feb{C},Mar{C},Apr{C},May{C},Jun{C},Jul{C},Aug{C},Sep{C},Oct{C},Nov{C},Dec{C}
 Site:GroundTemperature:Shallow,  13.00,  13.00,  13.00,  13.00,  13.00,  13.00,  13.00,  13.00,  13.00,  13.00,  13.00,  13.00
! <Site:GroundTemperature:Deep>,Jan{C},Feb{C},Mar{C},Apr{C},May{C},Jun{C},Jul{C},Aug{C},Sep{C},Oct{C},Nov{C},Dec{C}
 Site:GroundTemperature:Deep,  16.00,  16.00,  16.00,  16.00,  16.00,  16.00,  16.00,  16.00,  16.00,  16.00,  16.00,  16.00
! <Site:GroundReflectance>,Jan{dimensionless},Feb{dimensionless},Mar{dimensionless},Apr{dimensionless},May{dimensionless},Jun{dimensionless},Jul{dimensionless},Aug{dimensionless},Sep{dimensionless},Oct{dimensionless},Nov{dimensionless},Dec{dimensionless}
 Site:GroundReflectance,  0.20,  0.20,  0.20,  0.20,  0.20,  0.20,  0.20,  0.20,  0.20,  0.20,  0.20,  0.20
! <Site:GroundReflectance:SnowModifier>, Normal, Daylighting {dimensionless}
 Site:GroundReflectance:SnowModifier,   1.000,   1.000
! <Site:GroundReflectance:Snow>,Jan{dimensionless},Feb{dimensionless},Mar{dimensionless},Apr{dimensionless},May{dimensionless},Jun{dimensionless},Jul{dimensionless},Aug{dimensionless},Sep{dimensionless},Oct{dimensionless},Nov{dimensionless},Dec{dimensionless}
 Site:GroundReflectance:Snow,  0.20,  0.20,  0.20,  0.20,  0.20,  0.20,  0.20,  0.20,  0.20,  0.20,  0.20,  0.20
! <Site:GroundReflectance:Snow:Daylighting>,Jan{dimensionless},Feb{dimensionless},Mar{dimensionless},Apr{dimensionless},May{dimensionless},Jun{dimensionless},Jul{dimensionless},Aug{dimensionless},Sep{dimensionless},Oct{dimensionless},Nov{dimensionless},Dec{dimensionless}
 Site:GroundReflectance:Snow:Daylighting,  0.20,  0.20,  0.20,  0.20,  0.20,  0.20,  0.20,  0.20,  0.20,  0.20,  0.20,  0.20
! <Environment:Weather Station>,Wind Sensor Height Above Ground {m},Wind Speed Profile Exponent {},Wind Speed Profile Boundary Layer Thickness {m},Air Temperature Sensor Height Above Ground {m},Wind Speed Modifier Coefficient-Internal,Temperature Modifier Coefficient-Internal
Environment:Weather Station,10.000,0.140,270.000,1.500,1.586,9.750E-003
! <Site:Location>, Location Name, Latitude {N+/S- Deg}, Longitude {E+/W- Deg},  Time Zone Number {GMT+/-}, Elevation {m},  Standard Pressure at Elevation {Pa}, Standard RhoAir at Elevation
Site:Location,Fort McMurray AP AB CAN CWEC2016 WMO#=716890,56.65,-111.22,-7.00,369.10,96969,1.1525
! <Building Information>, Building Name,North Axis {deg},Terrain,  Loads Convergence Tolerance Value,Temperature Convergence Tolerance Value,  Solar Distribution,Maximum Number of Warmup Days,Minimum Number of Warmup Days
 Building Information,Building 1,0.000,Suburbs,4.00000E-002,0.40000,FullExterior,25,6
! <Inside Convection Algorithm>, Algorithm {Simple | TARP | CeilingDiffuser | AdaptiveConvectionAlgorithm}
Inside Convection Algorithm,TARP
! <Outside Convection Algorithm>, Algorithm {SimpleCombined | TARP | MoWitt | DOE-2 | AdaptiveConvectionAlgorithm}
Outside Convection Algorithm,TARP
! <Sky Radiance Distribution>, Value {Anisotropic}
Sky Radiance Distribution,Anisotropic
! <Zone Air Solution Algorithm>, Value {ThirdOrderBackwardDifference | AnalyticalSolution | EulerMethod}
 Zone Air Solution Algorithm, ThirdOrderBackwardDifference
! <Zone Air Carbon Dioxide Balance Simulation>, Simulation {Yes/No}, Carbon Dioxide Concentration
 Zone Air Carbon Dioxide Balance Simulation, No,N/A
! <Zone Air Generic Contaminant Balance Simulation>, Simulation {Yes/No}, Generic Contaminant Concentration
 Zone Air Generic Contaminant Balance Simulation, No,N/A
! <Zone Air Mass Flow Balance Simulation>, Enforce Mass Balance, Adjust Zone Mixing, Adjust Zone Infiltration {AddInfiltration | AdjustInfiltration | None}, Infiltration Zones {MixingSourceZonesOnly | AllZones}
 Zone Air Mass Flow Balance Simulation, No,N/A,N/A,N/A
! <HVACSystemRootFindingAlgorithm>, Value {RegulaFalsi | Bisection | BisectionThenRegulaFalsi | RegulaFalsiThenBisection}
 HVACSystemRootFindingAlgorithm, RegulaFalsi
! <Environment:Site Atmospheric Variation>,Wind Speed Profile Exponent {},Wind Speed Profile Boundary Layer Thickness {m},Air Temperature Gradient Coefficient {K/m}
Environment:Site Atmospheric Variation,0.220,370.000,6.500000E-003
! <Surface Geometry>,Starting Corner,Vertex Input Direction,Coordinate System,Daylight Reference Point Coordinate System,Rectangular (Simple) Surface Coordinate System
 Surface Geometry,UpperLeftCorner,Counterclockwise,RelativeCoordinateSystem,RelativeCoordinateSystem,RelativeToZoneOrigin
! <Surface Heat Transfer Algorithm>, Value {CTF - ConductionTransferFunction | EMPD - MoisturePenetrationDepthConductionTransferFunction | CondFD - ConductionFiniteDifference | HAMT - CombinedHeatAndMoistureFiniteElement} - Description,Inside Surface Max Temperature Limit{C}, Surface Convection Coefficient Lower Limit {W/m2-K}, Surface Convection Coefficient Upper Limit {W/m2-K}
Surface Heat Transfer Algorithm, CTF - ConductionTransferFunction,200,0.10,1000.0
! <Shading Summary>, Number of Fixed Detached Shades, Number of Building Detached Shades, Number of Attached Shades
 Shading Summary,0,0,0
! <Zone Summary>, Number of Zones, Number of Zone Surfaces, Number of SubSurfaces
 Zone Summary,20,137,17
! <Zone Information>,Zone Name,North Axis {deg},Origin X-Coordinate {m},Origin Y-Coordinate {m},Origin Z-Coordinate {m},Centroid X-Coordinate {m},Centroid Y-Coordinate {m},Centroid Z-Coordinate {m},Type,Zone Multiplier,Zone List Multiplier,Minimum X {m},Maximum X {m},Minimum Y {m},Maximum Y {m},Minimum Z {m},Maximum Z {m},Ceiling Height {m},Volume {m3},Zone Inside Convection Algorithm {Simple-Detailed-CeilingDiffuser-TrombeWall},Zone Outside Convection Algorithm {Simple-Detailed-Tarp-MoWitt-DOE-2-BLAST}, Floor Area {m2},Exterior Gross Wall Area {m2},Exterior Net Wall Area {m2},Exterior Window Area {m2}, Number of Surfaces, Number of SubSurfaces, Number of Shading SubSurfaces,  Part of Total Building Area
 Zone Information, ALL_ST=WHOLEBUILDING_FL=STORY 1_SCH=A,0.0,75.00,25.00,0.00,89.15,50.00,1.90,1,1,1,75.00,100.00,0.00,100.00,0.00,3.80,3.80,7125.00,TARP,TARP,1875.00,0.00,0.00,0.00,6,0,0,Yes
 Zone Information, ALL_ST=WHOLEBUILDING_FL=STORY 1_SCH=D,0.0,0.00,0.00,0.00,10.85,50.00,1.90,1,1,1,0.00,25.00,0.00,100.00,0.00,3.80,3.80,7125.00,TARP,TARP,1875.00,0.00,0.00,0.00,6,0,0,Yes
 Zone Information, ALL_ST=WHOLEBUILDING_FL=STORY 1_SCH=E,0.0,25.00,25.00,0.00,50.00,50.00,1.90,1,1,1,25.00,75.00,25.00,75.00,0.00,3.80,3.80,9500.00,TARP,TARP,2500.00,0.00,0.00,0.00,6,0,0,Yes
 Zone Information, ALL_ST=WHOLEBUILDING_FL=STORY 1_SCH=E 1,0.0,0.00,0.00,0.00,50.00,10.85,1.90,1,1,1,0.00,100.00,0.00,25.00,0.00,3.80,3.80,7125.00,TARP,TARP,1875.00,0.00,0.00,0.00,6,0,0,Yes
 Zone Information, ALL_ST=WHOLEBUILDING_FL=STORY 1_SCH=H,0.0,25.00,75.00,0.00,50.00,89.15,1.90,1,1,1,0.00,100.00,75.00,100.00,0.00,3.80,3.80,7125.00,TARP,TARP,1875.00,0.00,0.00,0.00,6,0,0,Yes
 Zone Information, ALL_ST=WHOLEBUILDING_FL=STORY 2_SCH=A,0.0,0.00,0.00,3.80,50.00,10.85,5.70,1,1,1,0.00,100.00,0.00,25.00,3.80,7.60,3.80,7125.00,TARP,TARP,1875.00,380.00,285.00,95.00,6,1,0,Yes
 Zone Information, ALL_ST=WHOLEBUILDING_FL=STORY 2_SCH=E,0.0,0.00,0.00,3.80,10.85,50.00,5.70,1,1,1,0.00,25.00,0.00,100.00,3.80,7.60,3.80,7125.00,TARP,TARP,1875.00,380.00,285.00,95.00,6,1,0,Yes
 Zone Information, ALL_ST=WHOLEBUILDING_FL=STORY 2_SCH=E 1,0.0,75.00,25.00,3.80,89.15,50.00,5.70,1,1,1,75.00,100.00,0.00,100.00,3.80,7.60,3.80,7125.00,TARP,TARP,1875.00,380.00,285.00,95.00,6,1,0,Yes
 Zone Information, ALL_ST=WHOLEBUILDING_FL=STORY 2_SCH=E 2,0.0,25.00,75.00,3.80,50.00,89.15,5.70,1,1,1,0.00,100.00,75.00,100.00,3.80,7.60,3.80,7125.00,TARP,TARP,1875.00,380.00,285.00,95.00,6,1,0,Yes
 Zone Information, ALL_ST=WHOLEBUILDING_FL=STORY 2_SCH=E 3,0.0,25.00,25.00,3.80,50.00,50.00,5.70,1,1,1,25.00,75.00,25.00,75.00,3.80,7.60,3.80,9500.00,TARP,TARP,2500.00,0.00,0.00,0.00,6,0,0,Yes
 Zone Information, ALL_ST=WHOLEBUILDING_FL=STORY 3_SCH=B,0.0,25.00,75.00,7.60,50.00,89.15,9.50,1,1,1,0.00,100.00,75.00,100.00,7.60,11.40,3.80,7125.00,TARP,TARP,1875.00,380.00,285.00,95.00,6,1,0,Yes
 Zone Information, ALL_ST=WHOLEBUILDING_FL=STORY 4_SCH=A,0.0,25.00,25.00,11.40,50.00,50.00,13.30,1,1,1,25.00,75.00,25.00,75.00,11.40,15.20,3.80,9500.00,TARP,TARP,2500.00,0.00,0.00,125.00,6,1,0,Yes
 Zone Information, ALL_ST=WORKSHOP SPACE_FL=STORY 3_SCH=A,0.0,0.00,0.00,7.60,10.85,50.00,9.50,1,1,1,0.00,25.00,0.00,100.00,7.60,11.40,3.80,7125.00,TARP,TARP,1875.00,380.00,285.00,95.00,6,1,0,Yes
 Zone Information, WET_ST=WASHROOM-SCH-C_FL=STORY 4_SCHE,0.0,0.00,0.00,11.40,50.00,10.85,13.30,1,1,1,0.00,100.00,0.00,25.00,11.40,15.20,3.80,7125.00,TARP,TARP,1875.00,380.00,285.00,188.75,6,2,0,Yes
 Zone Information, WET_ST=WASHROOM-SCH-D_FL=STORY 4_SCHE,0.0,75.00,25.00,11.40,89.15,50.00,13.30,1,1,1,75.00,100.00,0.00,100.00,11.40,15.20,3.80,7125.00,TARP,TARP,1875.00,380.00,285.00,188.75,6,2,0,Yes
 Zone Information, WET_ST=WASHROOM-SCH-E_FL=STORY 4_SCHE,0.0,0.00,0.00,11.40,10.85,50.00,13.30,1,1,1,0.00,25.00,0.00,100.00,11.40,15.20,3.80,7125.00,TARP,TARP,1875.00,380.00,285.00,188.75,6,2,0,Yes
 Zone Information, WET_ST=WASHROOM-SCH-F_FL=STORY 3_SCHE,0.0,25.00,25.00,7.60,50.00,50.00,9.50,1,1,1,25.00,75.00,25.00,75.00,7.60,11.40,3.80,9500.00,TARP,TARP,2500.00,0.00,0.00,0.00,6,0,0,Yes
 Zone Information, WET_ST=WASHROOM-SCH-G_FL=STORY 3_SCHE,0.0,0.00,0.00,7.60,50.00,10.85,9.50,1,1,1,0.00,100.00,0.00,25.00,7.60,11.40,3.80,7125.00,TARP,TARP,1875.00,380.00,285.00,95.00,6,1,0,Yes
 Zone Information, WET_ST=WASHROOM-SCH-H_FL=STORY 4_SCHE,0.0,25.00,75.00,11.40,50.00,89.15,13.30,1,1,1,0.00,100.00,75.00,100.00,11.40,15.20,3.80,7125.00,TARP,TARP,1875.00,380.00,285.00,188.75,6,2,0,Yes
 Zone Information, WET_ST=WASHROOM-SCH-I_FL=STORY 3_SCHE,0.0,75.00,25.00,7.60,89.15,50.00,9.50,1,1,1,75.00,100.00,0.00,100.00,7.60,11.40,3.80,7125.00,TARP,TARP,1875.00,380.00,285.00,95.00,6,1,0,Yes
! <Zone Internal Gains Nominal>,Zone Name, Floor Area {m2},# Occupants,Area per Occupant {m2/person},Occupant per Area {person/m2},Interior Lighting {W/m2},Electric Load {W/m2},Gas Load {W/m2},Other Load {W/m2},Hot Water Eq {W/m2},Steam Equipment {W/m2},Sum Loads per Area {W/m2},Outdoor Controlled Baseboard Heat
 Zone Internal Gains Nominal, ALL_ST=WHOLEBUILDING_FL=STORY 1_SCH=A,1875.00,62.6,29.969,3.337E-002,12.900,10.000,0.000,0.000,0.000,0.000,22.900,No
 Zone Internal Gains Nominal, ALL_ST=WHOLEBUILDING_FL=STORY 1_SCH=D,1875.00,75.1,24.974,4.004E-002,9.900,7.500,0.000,0.000,0.000,0.000,17.400,No
 Zone Internal Gains Nominal, ALL_ST=WHOLEBUILDING_FL=STORY 1_SCH=E,2500.00,125.1,19.979,5.005E-002,8.800,5.000,0.000,0.000,0.000,0.000,13.800,No
 Zone Internal Gains Nominal, ALL_ST=WHOLEBUILDING_FL=STORY 1_SCH=E 1,1875.00,93.8,19.979,5.005E-002,8.800,5.000,0.000,0.000,0.000,0.000,13.800,No
 Zone Internal Gains Nominal, ALL_ST=WHOLEBUILDING_FL=STORY 1_SCH=H,1875.00,124.9,15.009,6.663E-002,8.300,1.000,0.000,0.000,0.000,0.000,9.300,No
 Zone Internal Gains Nominal, ALL_ST=WHOLEBUILDING_FL=STORY 2_SCH=A,1875.00,1.2,1548.384,6.458E-004,7.100,1.000,0.000,0.000,0.000,0.000,8.100,No
 Zone Internal Gains Nominal, ALL_ST=WHOLEBUILDING_FL=STORY 2_SCH=E,1875.00,93.8,19.979,5.005E-002,8.800,5.000,0.000,0.000,0.000,0.000,13.800,No
 Zone Internal Gains Nominal, ALL_ST=WHOLEBUILDING_FL=STORY 2_SCH=E 1,1875.00,93.8,19.979,5.005E-002,8.800,5.000,0.000,0.000,0.000,0.000,13.800,No
 Zone Internal Gains Nominal, ALL_ST=WHOLEBUILDING_FL=STORY 2_SCH=E 2,1875.00,93.8,19.979,5.005E-002,8.800,5.000,0.000,0.000,0.000,0.000,13.800,No
 Zone Internal Gains Nominal, ALL_ST=WHOLEBUILDING_FL=STORY 2_SCH=E 3,2500.00,125.1,19.979,5.005E-002,8.800,5.000,0.000,0.000,0.000,0.000,13.800,No
 Zone Internal Gains Nominal, ALL_ST=WHOLEBUILDING_FL=STORY 3_SCH=B,1875.00,187.5,10.000,10.000E-002,8.400,1.000,0.000,0.000,0.000,0.000,9.400,No
 Zone Internal Gains Nominal, ALL_ST=WHOLEBUILDING_FL=STORY 4_SCH=A,2500.00,1.6,1548.384,6.458E-004,7.100,1.000,0.000,0.000,0.000,0.000,8.100,No
 Zone Internal Gains Nominal, ALL_ST=WORKSHOP SPACE_FL=STORY 3_SCH=A,1875.00,62.6,29.969,3.337E-002,17.100,10.000,0.000,0.000,0.000,0.000,27.100,No
 Zone Internal Gains Nominal, WET_ST=WASHROOM-SCH-C_FL=STORY 4_SCHE,1875.00,62.6,29.969,3.337E-002,9.450,1.000,0.000,0.000,0.000,0.000,10.450,No
 Zone Internal Gains Nominal, WET_ST=WASHROOM-SCH-D_FL=STORY 4_SCHE,1875.00,62.6,29.969,3.337E-002,9.450,1.000,0.000,0.000,0.000,0.000,10.450,No
 Zone Internal Gains Nominal, WET_ST=WASHROOM-SCH-E_FL=STORY 4_SCHE,1875.00,62.6,29.969,3.337E-002,9.450,1.000,0.000,0.000,0.000,0.000,10.450,No
 Zone Internal Gains Nominal, WET_ST=WASHROOM-SCH-F_FL=STORY 3_SCHE,2500.00,83.4,29.969,3.337E-002,9.450,1.000,0.000,0.000,0.000,0.000,10.450,No
 Zone Internal Gains Nominal, WET_ST=WASHROOM-SCH-G_FL=STORY 3_SCHE,1875.00,62.6,29.969,3.337E-002,9.450,1.000,0.000,0.000,0.000,0.000,10.450,No
 Zone Internal Gains Nominal, WET_ST=WASHROOM-SCH-H_FL=STORY 4_SCHE,1875.00,62.6,29.969,3.337E-002,9.450,1.000,0.000,0.000,0.000,0.000,10.450,No
 Zone Internal Gains Nominal, WET_ST=WASHROOM-SCH-I_FL=STORY 3_SCHE,1875.00,62.6,29.969,3.337E-002,9.450,1.000,0.000,0.000,0.000,0.000,10.450,No
! <People Internal Gains Nominal>,Name,Schedule Name,Zone Name,Zone Floor Area {m2},# Zone Occupants,Number of People {},People/Floor Area {person/m2},Floor Area per person {m2/person},Fraction Radiant,Fraction Convected,Sensible Fraction Calculation,Activity level,ASHRAE 55 Warnings,Carbon Dioxide Generation Rate,Nominal Minimum Number of People,Nominal Maximum Number of People
 People Internal Gains Nominal, ALL_ST=WHOLEBUILDING_FL=STORY 1_SCH=E AUTOMOTIVE FACILITY WHOLEBUILDING PEOPLE,NECB-E-OCCUPANCY,ALL_ST=WHOLEBUILDING_FL=STORY 1_SCH=E,2500.00,125.1,125.1,5.005E-002,19.979,0.300,0.700,AutoCalculate,NECB-ACTIVITY,No,3.8200E-008,0,113
 People Internal Gains Nominal, ALL_ST=WHOLEBUILDING_FL=STORY 1_SCH=E 1 AUTOMOTIVE FACILITY WHOLEBUILDING 1 PEOPLE,NECB-E-OCCUPANCY,ALL_ST=WHOLEBUILDING_FL=STORY 1_SCH=E 1,1875.00,93.8,93.8,5.005E-002,19.979,0.300,0.700,AutoCalculate,NECB-ACTIVITY,No,3.8200E-008,0,84
 People Internal Gains Nominal, ALL_ST=WHOLEBUILDING_FL=STORY 2_SCH=E AUTOMOTIVE FACILITY WHOLEBUILDING 2 PEOPLE,NECB-E-OCCUPANCY,ALL_ST=WHOLEBUILDING_FL=STORY 2_SCH=E,1875.00,93.8,93.8,5.005E-002,19.979,0.300,0.700,AutoCalculate,NECB-ACTIVITY,No,3.8200E-008,0,84
 People Internal Gains Nominal, ALL_ST=WHOLEBUILDING_FL=STORY 2_SCH=E 1 AUTOMOTIVE FACILITY WHOLEBUILDING 3 PEOPLE,NECB-E-OCCUPANCY,ALL_ST=WHOLEBUILDING_FL=STORY 2_SCH=E 1,1875.00,93.8,93.8,5.005E-002,19.979,0.300,0.700,AutoCalculate,NECB-ACTIVITY,No,3.8200E-008,0,84
 People Internal Gains Nominal, ALL_ST=WHOLEBUILDING_FL=STORY 2_SCH=E 2 AUTOMOTIVE FACILITY WHOLEBUILDING 4 PEOPLE,NECB-E-OCCUPANCY,ALL_ST=WHOLEBUILDING_FL=STORY 2_SCH=E 2,1875.00,93.8,93.8,5.005E-002,19.979,0.300,0.700,AutoCalculate,NECB-ACTIVITY,No,3.8200E-008,0,84
 People Internal Gains Nominal, ALL_ST=WHOLEBUILDING_FL=STORY 2_SCH=E 3 AUTOMOTIVE FACILITY WHOLEBUILDING 5 PEOPLE,NECB-E-OCCUPANCY,ALL_ST=WHOLEBUILDING_FL=STORY 2_SCH=E 3,2500.00,125.1,125.1,5.005E-002,19.979,0.300,0.700,AutoCalculate,NECB-ACTIVITY,No,3.8200E-008,0,113
 People Internal Gains Nominal, WET_ST=WASHROOM-SCH-C_FL=STORY 4_SCHE SPACE FUNCTION WASHROOM-SCH-E PEOPLE,NECB-E-OCCUPANCY,WET_ST=WASHROOM-SCH-C_FL=STORY 4_SCHE,1875.00,62.6,62.6,3.337E-002,29.969,0.300,0.700,AutoCalculate,NECB-ACTIVITY,No,3.8200E-008,0,56
 People Internal Gains Nominal, WET_ST=WASHROOM-SCH-D_FL=STORY 4_SCHE SPACE FUNCTION WASHROOM-SCH-E PEOPLE,NECB-E-OCCUPANCY,WET_ST=WASHROOM-SCH-D_FL=STORY 4_SCHE,1875.00,62.6,62.6,3.337E-002,29.969,0.300,0.700,AutoCalculate,NECB-ACTIVITY,No,3.8200E-008,0,56
 People Internal Gains Nominal, WET_ST=WASHROOM-SCH-E_FL=STORY 4_SCHE SPACE FUNCTION WASHROOM-SCH-E PEOPLE,NECB-E-OCCUPANCY,WET_ST=WASHROOM-SCH-E_FL=STORY 4_SCHE,1875.00,62.6,62.6,3.337E-002,29.969,0.300,0.700,AutoCalculate,NECB-ACTIVITY,No,3.8200E-008,0,56
 People Internal Gains Nominal, WET_ST=WASHROOM-SCH-F_FL=STORY 3_SCHE SPACE FUNCTION WASHROOM-SCH-E PEOPLE,NECB-E-OCCUPANCY,WET_ST=WASHROOM-SCH-F_FL=STORY 3_SCHE,2500.00,83.4,83.4,3.337E-002,29.969,0.300,0.700,AutoCalculate,NECB-ACTIVITY,No,3.8200E-008,0,75
 People Internal Gains Nominal, WET_ST=WASHROOM-SCH-G_FL=STORY 3_SCHE SPACE FUNCTION WASHROOM-SCH-E PEOPLE,NECB-E-OCCUPANCY,WET_ST=WASHROOM-SCH-G_FL=STORY 3_SCHE,1875.00,62.6,62.6,3.337E-002,29.969,0.300,0.700,AutoCalculate,NECB-ACTIVITY,No,3.8200E-008,0,56
 People Internal Gains Nominal, WET_ST=WASHROOM-SCH-H_FL=STORY 4_SCHE SPACE FUNCTION WASHROOM-SCH-E PEOPLE,NECB-E-OCCUPANCY,WET_ST=WASHROOM-SCH-H_FL=STORY 4_SCHE,1875.00,62.6,62.6,3.337E-002,29.969,0.300,0.700,AutoCalculate,NECB-ACTIVITY,No,3.8200E-008,0,56
 People Internal Gains Nominal, WET_ST=WASHROOM-SCH-I_FL=STORY 3_SCHE SPACE FUNCTION WASHROOM-SCH-E PEOPLE,NECB-E-OCCUPANCY,WET_ST=WASHROOM-SCH-I_FL=STORY 3_SCHE,1875.00,62.6,62.6,3.337E-002,29.969,0.300,0.700,AutoCalculate,NECB-ACTIVITY,No,3.8200E-008,0,56
 People Internal Gains Nominal, ALL_ST=WORKSHOP SPACE_FL=STORY 3_SCH=A SPACE FUNCTION WORKSHOP SPACE PEOPLE,NECB-A-OCCUPANCY,ALL_ST=WORKSHOP SPACE_FL=STORY 3_SCH=A,1875.00,62.6,62.6,3.337E-002,29.969,0.300,0.700,AutoCalculate,NECB-ACTIVITY,No,3.8200E-008,0,56
 People Internal Gains Nominal, ALL_ST=WHOLEBUILDING_FL=STORY 3_SCH=B SPORTS ARENA WHOLEBUILDING PEOPLE,NECB-B-OCCUPANCY,ALL_ST=WHOLEBUILDING_FL=STORY 3_SCH=B,1875.00,187.5,187.5,10.000E-002,10.000,0.300,0.700,AutoCalculate,NECB-ACTIVITY,No,3.8200E-008,0,169
 People Internal Gains Nominal, ALL_ST=WHOLEBUILDING_FL=STORY 1_SCH=D TOWN HALL WHOLEBUILDING PEOPLE,NECB-D-OCCUPANCY,ALL_ST=WHOLEBUILDING_FL=STORY 1_SCH=D,1875.00,75.1,75.1,4.004E-002,24.974,0.300,0.700,AutoCalculate,NECB-ACTIVITY,No,3.8200E-008,0,68
 People Internal Gains Nominal, ALL_ST=WHOLEBUILDING_FL=STORY 1_SCH=H TRANSPORTATION WHOLEBUILDING PEOPLE,NECB-H-OCCUPANCY,ALL_ST=WHOLEBUILDING_FL=STORY 1_SCH=H,1875.00,124.9,124.9,6.663E-002,15.009,0.300,0.700,AutoCalculate,NECB-ACTIVITY,No,3.8200E-008,112,112
 People Internal Gains Nominal, ALL_ST=WHOLEBUILDING_FL=STORY 4_SCH=A WAREHOUSE - REFRIGERATED WHOLEBUILDING PEOPLE,NECB-A-OCCUPANCY,ALL_ST=WHOLEBUILDING_FL=STORY 4_SCH=A,2500.00,1.6,1.6,6.458E-004,1548.384,0.300,0.700,AutoCalculate,NECB-ACTIVITY,No,3.8200E-008,0,1
 People Internal Gains Nominal, ALL_ST=WHOLEBUILDING_FL=STORY 2_SCH=A WAREHOUSE WHOLEBUILDING PEOPLE,NECB-A-OCCUPANCY,ALL_ST=WHOLEBUILDING_FL=STORY 2_SCH=A,1875.00,1.2,1.2,6.458E-004,1548.384,0.300,0.700,AutoCalculate,NECB-ACTIVITY,No,3.8200E-008,0,1
 People Internal Gains Nominal, ALL_ST=WHOLEBUILDING_FL=STORY 1_SCH=A WORKSHOP WHOLEBUILDING PEOPLE,NECB-A-OCCUPANCY,ALL_ST=WHOLEBUILDING_FL=STORY 1_SCH=A,1875.00,62.6,62.6,3.337E-002,29.969,0.300,0.700,AutoCalculate,NECB-ACTIVITY,No,3.8200E-008,0,56
! <Lights Internal Gains Nominal>,Name,Schedule Name,Zone Name,Zone Floor Area {m2},# Zone Occupants,Lighting Level {W},Lights/Floor Area {W/m2},Lights per person {W/person},Fraction Return Air,Fraction Radiant,Fraction Short Wave,Fraction Convected,Fraction Replaceable,End-Use Category,Nominal Minimum Lighting Level {W},Nominal Maximum Lighting Level {W}
 Lights Internal Gains Nominal, ALL_ST=WHOLEBUILDING_FL=STORY 1_SCH=E AUTOMOTIVE FACILITY WHOLEBUILDING LIGHTS,NECB-E-LIGHTING,ALL_ST=WHOLEBUILDING_FL=STORY 1_SCH=E,2500.00,125.1,21999.817,8.800,175.815,0.000,0.500,0.200,0.300,1.000,General,1099.991,19799.835
 Lights Internal Gains Nominal, ALL_ST=WHOLEBUILDING_FL=STORY 1_SCH=E 1 AUTOMOTIVE FACILITY WHOLEBUILDING 1 LIGHTS,NECB-E-LIGHTING,ALL_ST=WHOLEBUILDING_FL=STORY 1_SCH=E 1,1875.00,93.8,16499.863,8.800,175.815,0.000,0.500,0.200,0.300,1.000,General,824.993,14849.876
 Lights Internal Gains Nominal, ALL_ST=WHOLEBUILDING_FL=STORY 2_SCH=E AUTOMOTIVE FACILITY WHOLEBUILDING 2 LIGHTS,NECB-E-LIGHTING,ALL_ST=WHOLEBUILDING_FL=STORY 2_SCH=E,1875.00,93.8,16499.863,8.800,175.815,0.000,0.500,0.200,0.300,1.000,General,824.993,14849.876
 Lights Internal Gains Nominal, ALL_ST=WHOLEBUILDING_FL=STORY 2_SCH=E 1 AUTOMOTIVE FACILITY WHOLEBUILDING 3 LIGHTS,NECB-E-LIGHTING,ALL_ST=WHOLEBUILDING_FL=STORY 2_SCH=E 1,1875.00,93.8,16499.863,8.800,175.815,0.000,0.500,0.200,0.300,1.000,General,824.993,14849.876
 Lights Internal Gains Nominal, ALL_ST=WHOLEBUILDING_FL=STORY 2_SCH=E 2 AUTOMOTIVE FACILITY WHOLEBUILDING 4 LIGHTS,NECB-E-LIGHTING,ALL_ST=WHOLEBUILDING_FL=STORY 2_SCH=E 2,1875.00,93.8,16499.863,8.800,175.815,0.000,0.500,0.200,0.300,1.000,General,824.993,14849.876
 Lights Internal Gains Nominal, ALL_ST=WHOLEBUILDING_FL=STORY 2_SCH=E 3 AUTOMOTIVE FACILITY WHOLEBUILDING 5 LIGHTS,NECB-E-LIGHTING,ALL_ST=WHOLEBUILDING_FL=STORY 2_SCH=E 3,2500.00,125.1,21999.817,8.800,175.815,0.000,0.500,0.200,0.300,1.000,General,1099.991,19799.835
 Lights Internal Gains Nominal, WET_ST=WASHROOM-SCH-C_FL=STORY 4_SCHE SPACE FUNCTION WASHROOM-SCH-E LIGHTS,NECB-E-LIGHTING,WET_ST=WASHROOM-SCH-C_FL=STORY 4_SCHE,1875.00,62.6,17718.603,9.450,283.202,0.000,0.500,0.200,0.300,1.000,General,885.930,15946.742
 Lights Internal Gains Nominal, WET_ST=WASHROOM-SCH-D_FL=STORY 4_SCHE SPACE FUNCTION WASHROOM-SCH-E LIGHTS,NECB-E-LIGHTING,WET_ST=WASHROOM-SCH-D_FL=STORY 4_SCHE,1875.00,62.6,17718.603,9.450,283.202,0.000,0.500,0.200,0.300,1.000,General,885.930,15946.742
 Lights Internal Gains Nominal, WET_ST=WASHROOM-SCH-E_FL=STORY 4_SCHE SPACE FUNCTION WASHROOM-SCH-E LIGHTS,NECB-E-LIGHTING,WET_ST=WASHROOM-SCH-E_FL=STORY 4_SCHE,1875.00,62.6,17718.603,9.450,283.202,0.000,0.500,0.200,0.300,1.000,General,885.930,15946.742
 Lights Internal Gains Nominal, WET_ST=WASHROOM-SCH-F_FL=STORY 3_SCHE SPACE FUNCTION WASHROOM-SCH-E LIGHTS,NECB-E-LIGHTING,WET_ST=WASHROOM-SCH-F_FL=STORY 3_SCHE,2500.00,83.4,23624.803,9.450,283.202,0.000,0.500,0.200,0.300,1.000,General,1181.240,21262.323
 Lights Internal Gains Nominal, WET_ST=WASHROOM-SCH-G_FL=STORY 3_SCHE SPACE FUNCTION WASHROOM-SCH-E LIGHTS,NECB-E-LIGHTING,WET_ST=WASHROOM-SCH-G_FL=STORY 3_SCHE,1875.00,62.6,17718.603,9.450,283.202,0.000,0.500,0.200,0.300,1.000,General,885.930,15946.742
 Lights Internal Gains Nominal, WET_ST=WASHROOM-SCH-H_FL=STORY 4_SCHE SPACE FUNCTION WASHROOM-SCH-E LIGHTS,NECB-E-LIGHTING,WET_ST=WASHROOM-SCH-H_FL=STORY 4_SCHE,1875.00,62.6,17718.603,9.450,283.202,0.000,0.500,0.200,0.300,1.000,General,885.930,15946.742
 Lights Internal Gains Nominal, WET_ST=WASHROOM-SCH-I_FL=STORY 3_SCHE SPACE FUNCTION WASHROOM-SCH-E LIGHTS,NECB-E-LIGHTING,WET_ST=WASHROOM-SCH-I_FL=STORY 3_SCHE,1875.00,62.6,17718.603,9.450,283.202,0.000,0.500,0.200,0.300,1.000,General,885.930,15946.742
 Lights Internal Gains Nominal, ALL_ST=WORKSHOP SPACE_FL=STORY 3_SCH=A SPACE FUNCTION WORKSHOP SPACE LIGHTS,NECB-A-LIGHTING,ALL_ST=WORKSHOP SPACE_FL=STORY 3_SCH=A,1875.00,62.6,32062.233,17.100,512.461,0.000,0.500,0.200,0.300,1.000,General,1603.112,28856.010
 Lights Internal Gains Nominal, ALL_ST=WHOLEBUILDING_FL=STORY 3_SCH=B SPORTS ARENA WHOLEBUILDING LIGHTS,NECB-B-LIGHTING,ALL_ST=WHOLEBUILDING_FL=STORY 3_SCH=B,1875.00,187.5,15749.869,8.400,84.002,0.000,0.500,0.200,0.300,1.000,General,1574.987,14174.882
 Lights Internal Gains Nominal, ALL_ST=WHOLEBUILDING_FL=STORY 1_SCH=D TOWN HALL WHOLEBUILDING LIGHTS,NECB-D-LIGHTING,ALL_ST=WHOLEBUILDING_FL=STORY 1_SCH=D,1875.00,75.1,18562.346,9.900,247.240,0.000,0.500,0.200,0.300,1.000,General,928.117,16706.111
 Lights Internal Gains Nominal, ALL_ST=WHOLEBUILDING_FL=STORY 1_SCH=H TRANSPORTATION WHOLEBUILDING LIGHTS,NECB-H-LIGHTING,ALL_ST=WHOLEBUILDING_FL=STORY 1_SCH=H,1875.00,124.9,15562.370,8.300,124.570,0.000,0.500,0.200,0.300,1.000,General,14006.133,14006.133
 Lights Internal Gains Nominal, ALL_ST=WHOLEBUILDING_FL=STORY 4_SCH=A WAREHOUSE - REFRIGERATED WHOLEBUILDING LIGHTS,NECB-A-LIGHTING,ALL_ST=WHOLEBUILDING_FL=STORY 4_SCH=A,2500.00,1.6,17749.852,7.100,10993.435,0.000,0.500,0.200,0.300,1.000,General,887.493,15974.867
 Lights Internal Gains Nominal, ALL_ST=WHOLEBUILDING_FL=STORY 2_SCH=A WAREHOUSE WHOLEBUILDING LIGHTS,NECB-A-LIGHTING,ALL_ST=WHOLEBUILDING_FL=STORY 2_SCH=A,1875.00,1.2,13312.389,7.100,10993.435,0.000,0.500,0.200,0.300,1.000,General,665.619,11981.150
 Lights Internal Gains Nominal, ALL_ST=WHOLEBUILDING_FL=STORY 1_SCH=A WORKSHOP WHOLEBUILDING LIGHTS,NECB-A-LIGHTING,ALL_ST=WHOLEBUILDING_FL=STORY 1_SCH=A,1875.00,62.6,24187.299,12.900,386.593,0.000,0.500,0.200,0.300,1.000,General,1209.365,21768.569
! <ElectricEquipment Internal Gains Nominal>,Name,Schedule Name,Zone Name,Zone Floor Area {m2},# Zone Occupants,Equipment Level {W},Equipment/Floor Area {W/m2},Equipment per person {W/person},Fraction Latent,Fraction Radiant,Fraction Lost,Fraction Convected,End-Use SubCategory,Nominal Minimum Equipment Level {W},Nominal Maximum Equipment Level {W}
 ElectricEquipment Internal Gains Nominal, ALL_ST=WHOLEBUILDING_FL=STORY 1_SCH=E AUTOMOTIVE FACILITY WHOLEBUILDING ELEC EQUIP,NECB-E-ELECTRIC-EQUIPMENT,ALL_ST=WHOLEBUILDING_FL=STORY 1_SCH=E,2500.00,125.1,12499.896,5.000,99.895,0.000,0.500,0.000,0.500,General,624.995,11249.906
 ElectricEquipment Internal Gains Nominal, ALL_ST=WHOLEBUILDING_FL=STORY 1_SCH=E 1 AUTOMOTIVE FACILITY WHOLEBUILDING 1 ELEC EQUIP,NECB-E-ELECTRIC-EQUIPMENT,ALL_ST=WHOLEBUILDING_FL=STORY 1_SCH=E 1,1875.00,93.8,9374.922,5.000,99.895,0.000,0.500,0.000,0.500,General,468.746,8437.430
 ElectricEquipment Internal Gains Nominal, ALL_ST=WHOLEBUILDING_FL=STORY 2_SCH=E AUTOMOTIVE FACILITY WHOLEBUILDING 2 ELEC EQUIP,NECB-E-ELECTRIC-EQUIPMENT,ALL_ST=WHOLEBUILDING_FL=STORY 2_SCH=E,1875.00,93.8,9374.922,5.000,99.895,0.000,0.500,0.000,0.500,General,468.746,8437.430
 ElectricEquipment Internal Gains Nominal, ALL_ST=WHOLEBUILDING_FL=STORY 2_SCH=E 1 AUTOMOTIVE FACILITY WHOLEBUILDING 3 ELEC EQUIP,NECB-E-ELECTRIC-EQUIPMENT,ALL_ST=WHOLEBUILDING_FL=STORY 2_SCH=E 1,1875.00,93.8,9374.922,5.000,99.895,0.000,0.500,0.000,0.500,General,468.746,8437.430
 ElectricEquipment Internal Gains Nominal, ALL_ST=WHOLEBUILDING_FL=STORY 2_SCH=E 2 AUTOMOTIVE FACILITY WHOLEBUILDING 4 ELEC EQUIP,NECB-E-ELECTRIC-EQUIPMENT,ALL_ST=WHOLEBUILDING_FL=STORY 2_SCH=E 2,1875.00,93.8,9374.922,5.000,99.895,0.000,0.500,0.000,0.500,General,468.746,8437.430
 ElectricEquipment Internal Gains Nominal, ALL_ST=WHOLEBUILDING_FL=STORY 2_SCH=E 3 AUTOMOTIVE FACILITY WHOLEBUILDING 5 ELEC EQUIP,NECB-E-ELECTRIC-EQUIPMENT,ALL_ST=WHOLEBUILDING_FL=STORY 2_SCH=E 3,2500.00,125.1,12499.896,5.000,99.895,0.000,0.500,0.000,0.500,General,624.995,11249.906
 ElectricEquipment Internal Gains Nominal, WET_ST=WASHROOM-SCH-C_FL=STORY 4_SCHE SPACE FUNCTION WASHROOM-SCH-E ELEC EQUIP,NECB-E-ELECTRIC-EQUIPMENT,WET_ST=WASHROOM-SCH-C_FL=STORY 4_SCHE,1875.00,62.6,1874.984,1.000,29.968,0.000,0.500,0.000,0.500,General,93.749,1687.486
 ElectricEquipment Internal Gains Nominal, WET_ST=WASHROOM-SCH-D_FL=STORY 4_SCHE SPACE FUNCTION WASHROOM-SCH-E ELEC EQUIP,NECB-E-ELECTRIC-EQUIPMENT,WET_ST=WASHROOM-SCH-D_FL=STORY 4_SCHE,1875.00,62.6,1874.984,1.000,29.968,0.000,0.500,0.000,0.500,General,93.749,1687.486
 ElectricEquipment Internal Gains Nominal, WET_ST=WASHROOM-SCH-E_FL=STORY 4_SCHE SPACE FUNCTION WASHROOM-SCH-E ELEC EQUIP,NECB-E-ELECTRIC-EQUIPMENT,WET_ST=WASHROOM-SCH-E_FL=STORY 4_SCHE,1875.00,62.6,1874.984,1.000,29.968,0.000,0.500,0.000,0.500,General,93.749,1687.486
 ElectricEquipment Internal Gains Nominal, WET_ST=WASHROOM-SCH-F_FL=STORY 3_SCHE SPACE FUNCTION WASHROOM-SCH-E ELEC EQUIP,NECB-E-ELECTRIC-EQUIPMENT,WET_ST=WASHROOM-SCH-F_FL=STORY 3_SCHE,2500.00,83.4,2499.979,1.000,29.968,0.000,0.500,0.000,0.500,General,124.999,2249.981
 ElectricEquipment Internal Gains Nominal, WET_ST=WASHROOM-SCH-G_FL=STORY 3_SCHE SPACE FUNCTION WASHROOM-SCH-E ELEC EQUIP,NECB-E-ELECTRIC-EQUIPMENT,WET_ST=WASHROOM-SCH-G_FL=STORY 3_SCHE,1875.00,62.6,1874.984,1.000,29.968,0.000,0.500,0.000,0.500,General,93.749,1687.486
 ElectricEquipment Internal Gains Nominal, WET_ST=WASHROOM-SCH-H_FL=STORY 4_SCHE SPACE FUNCTION WASHROOM-SCH-E ELEC EQUIP,NECB-E-ELECTRIC-EQUIPMENT,WET_ST=WASHROOM-SCH-H_FL=STORY 4_SCHE,1875.00,62.6,1874.984,1.000,29.968,0.000,0.500,0.000,0.500,General,93.749,1687.486
 ElectricEquipment Internal Gains Nominal, WET_ST=WASHROOM-SCH-I_FL=STORY 3_SCHE SPACE FUNCTION WASHROOM-SCH-E ELEC EQUIP,NECB-E-ELECTRIC-EQUIPMENT,WET_ST=WASHROOM-SCH-I_FL=STORY 3_SCHE,1875.00,62.6,1874.984,1.000,29.968,0.000,0.500,0.000,0.500,General,93.749,1687.486
 ElectricEquipment Internal Gains Nominal, ALL_ST=WORKSHOP SPACE_FL=STORY 3_SCH=A SPACE FUNCTION WORKSHOP SPACE ELEC EQUIP,NECB-A-ELECTRIC-EQUIPMENT,ALL_ST=WORKSHOP SPACE_FL=STORY 3_SCH=A,1875.00,62.6,18749.844,10.000,299.685,0.000,0.500,0.000,0.500,General,3749.969,16874.860
 ElectricEquipment Internal Gains Nominal, ALL_ST=WHOLEBUILDING_FL=STORY 3_SCH=B SPORTS ARENA WHOLEBUILDING ELEC EQUIP,NECB-B-ELECTRIC-EQUIPMENT,ALL_ST=WHOLEBUILDING_FL=STORY 3_SCH=B,1875.00,187.5,1874.984,1.000,10.000,0.000,0.500,0.000,0.500,General,187.498,1687.486
 ElectricEquipment Internal Gains Nominal, ALL_ST=WHOLEBUILDING_FL=STORY 1_SCH=D TOWN HALL WHOLEBUILDING ELEC EQUIP,NECB-D-ELECTRIC-EQUIPMENT,ALL_ST=WHOLEBUILDING_FL=STORY 1_SCH=D,1875.00,75.1,14062.383,7.500,187.303,0.000,0.500,0.000,0.500,General,703.119,12656.145
 ElectricEquipment Internal Gains Nominal, ALL_ST=WHOLEBUILDING_FL=STORY 1_SCH=H TRANSPORTATION WHOLEBUILDING ELEC EQUIP,NECB-H-ELECTRIC-EQUIPMENT,ALL_ST=WHOLEBUILDING_FL=STORY 1_SCH=H,1875.00,124.9,1874.984,1.000,15.008,0.000,0.500,0.000,0.500,General,1687.486,1687.486
 ElectricEquipment Internal Gains Nominal, ALL_ST=WHOLEBUILDING_FL=STORY 4_SCH=A WAREHOUSE - REFRIGERATED WHOLEBUILDING ELEC EQUIP,NECB-A-ELECTRIC-EQUIPMENT,ALL_ST=WHOLEBUILDING_FL=STORY 4_SCH=A,2500.00,1.6,2499.979,1.000,1548.371,0.000,0.500,0.000,0.500,General,499.996,2249.981
 ElectricEquipment Internal Gains Nominal, ALL_ST=WHOLEBUILDING_FL=STORY 2_SCH=A WAREHOUSE WHOLEBUILDING ELEC EQUIP,NECB-A-ELECTRIC-EQUIPMENT,ALL_ST=WHOLEBUILDING_FL=STORY 2_SCH=A,1875.00,1.2,1874.984,1.000,1548.371,0.000,0.500,0.000,0.500,General,374.997,1687.486
 ElectricEquipment Internal Gains Nominal, ALL_ST=WHOLEBUILDING_FL=STORY 1_SCH=A WORKSHOP WHOLEBUILDING ELEC EQUIP,NECB-A-ELECTRIC-EQUIPMENT,ALL_ST=WHOLEBUILDING_FL=STORY 1_SCH=A,1875.00,62.6,18749.844,10.000,299.685,0.000,0.500,0.000,0.500,General,3749.969,16874.860
! <Shadowing/Sun Position Calculations Annual Simulations>, Calculation Method, Value {days}, Allowable Number Figures in Shadow Overlap {}, Polygon Clipping Algorithm, Sky Diffuse Modeling Algorithm, External Shading Calculation Method, Output External Shading Calculation Results, Disable Self-Shading Within Shading Zone Groups, Disable Self-Shading From Shading Zone Groups to Other Zones
Shadowing/Sun Position Calculations Annual Simulations,AverageOverDaysInFrequency,20,15000,SutherlandHodgman,SimpleSkyDiffuseModeling,InternalCalculation,No,No,No
! <Water Heater Information>,Type,Name,Volume {m3},Maximum Capacity {W},Standard Rated Recovery Efficiency, Standard Rated Energy Factor
! <ZoneInfiltration Airflow Stats Nominal>,Name,Schedule Name,Zone Name, Zone Floor Area {m2}, # Zone Occupants,Design Volume Flow Rate {m3/s},Volume Flow Rate/Floor Area {m3/s/m2},Volume Flow Rate/Exterior Surface Area {m3/s/m2},ACH - Air Changes per Hour,Equation A - Constant Term Coefficient {},Equation B - Temperature Term Coefficient {1/C},Equation C - Velocity Term Coefficient {s/m}, Equation D - Velocity Squared Term Coefficient {s2/m2}
 ZoneInfiltration Airflow Stats Nominal, WHOLEBUILDING-WAREHOUSE INFILTRATION,ALWAYS ON DISCRETE,ALL_ST=WHOLEBUILDING_FL=STORY 2_SCH=A,1875.00,1.2,9.500E-002,5.067E-005,2.500E-004,4.800E-002,0.000,0.000,0.224,0.000
 ZoneInfiltration Airflow Stats Nominal, WHOLEBUILDING-AUTOMOTIVE FACILITY 2 INFILTRATION,ALWAYS ON DISCRETE,ALL_ST=WHOLEBUILDING_FL=STORY 2_SCH=E,1875.00,93.8,9.500E-002,5.067E-005,2.500E-004,4.800E-002,0.000,0.000,0.224,0.000
 ZoneInfiltration Airflow Stats Nominal, WHOLEBUILDING-AUTOMOTIVE FACILITY 3 INFILTRATION,ALWAYS ON DISCRETE,ALL_ST=WHOLEBUILDING_FL=STORY 2_SCH=E 1,1875.00,93.8,9.500E-002,5.067E-005,2.500E-004,4.800E-002,0.000,0.000,0.224,0.000
 ZoneInfiltration Airflow Stats Nominal, WHOLEBUILDING-AUTOMOTIVE FACILITY 4 INFILTRATION,ALWAYS ON DISCRETE,ALL_ST=WHOLEBUILDING_FL=STORY 2_SCH=E 2,1875.00,93.8,9.500E-002,5.067E-005,2.500E-004,4.800E-002,0.000,0.000,0.224,0.000
 ZoneInfiltration Airflow Stats Nominal, WHOLEBUILDING-SPORTS ARENA INFILTRATION,ALWAYS ON DISCRETE,ALL_ST=WHOLEBUILDING_FL=STORY 3_SCH=B,1875.00,187.5,9.500E-002,5.067E-005,2.500E-004,4.800E-002,0.000,0.000,0.224,0.000
 ZoneInfiltration Airflow Stats Nominal, WHOLEBUILDING-WAREHOUSE - REFRIGERATED INFILTRATION,ALWAYS ON DISCRETE,ALL_ST=WHOLEBUILDING_FL=STORY 4_SCH=A,2500.00,1.6,0.625,2.500E-004,2.500E-004,0.237,0.000,0.000,0.224,0.000
 ZoneInfiltration Airflow Stats Nominal, WORKSHOP SPACE-SPACE FUNCTION INFILTRATION,ALWAYS ON DISCRETE,ALL_ST=WORKSHOP SPACE_FL=STORY 3_SCH=A,1875.00,62.6,9.500E-002,5.067E-005,2.500E-004,4.800E-002,0.000,0.000,0.224,0.000
 ZoneInfiltration Airflow Stats Nominal, WASHROOM-SCH-C-SPACE FUNCTION INFILTRATION,ALWAYS ON DISCRETE,WET_ST=WASHROOM-SCH-C_FL=STORY 4_SCHE,1875.00,62.6,0.564,3.007E-004,2.500E-004,0.285,0.000,0.000,0.224,0.000
 ZoneInfiltration Airflow Stats Nominal, WASHROOM-SCH-D-SPACE FUNCTION INFILTRATION,ALWAYS ON DISCRETE,WET_ST=WASHROOM-SCH-D_FL=STORY 4_SCHE,1875.00,62.6,0.564,3.007E-004,2.500E-004,0.285,0.000,0.000,0.224,0.000
 ZoneInfiltration Airflow Stats Nominal, WASHROOM-SCH-E-SPACE FUNCTION INFILTRATION,ALWAYS ON DISCRETE,WET_ST=WASHROOM-SCH-E_FL=STORY 4_SCHE,1875.00,62.6,0.564,3.007E-004,2.500E-004,0.285,0.000,0.000,0.224,0.000
 ZoneInfiltration Airflow Stats Nominal, WASHROOM-SCH-G-SPACE FUNCTION INFILTRATION,ALWAYS ON DISCRETE,WET_ST=WASHROOM-SCH-G_FL=STORY 3_SCHE,1875.00,62.6,9.500E-002,5.067E-005,2.500E-004,4.800E-002,0.000,0.000,0.224,0.000
 ZoneInfiltration Airflow Stats Nominal, WASHROOM-SCH-H-SPACE FUNCTION INFILTRATION,ALWAYS ON DISCRETE,WET_ST=WASHROOM-SCH-H_FL=STORY 4_SCHE,1875.00,62.6,0.564,3.007E-004,2.500E-004,0.285,0.000,0.000,0.224,0.000
 ZoneInfiltration Airflow Stats Nominal, WASHROOM-SCH-I-SPACE FUNCTION INFILTRATION,ALWAYS ON DISCRETE,WET_ST=WASHROOM-SCH-I_FL=STORY 3_SCHE,1875.00,62.6,9.500E-002,5.067E-005,2.500E-004,4.800E-002,0.000,0.000,0.224,0.000
! <AirFlow Model>, Simple
 AirFlow Model, Simple
! <RoomAir Model>, Zone Name, Mixing/Mundt/UCSDDV/UCSDCV/UCSDUFI/UCSDUFE/User Defined
RoomAir Model,ALL_ST=WHOLEBUILDING_FL=STORY 1_SCH=A,Mixing/Well-Stirred
RoomAir Model,ALL_ST=WHOLEBUILDING_FL=STORY 1_SCH=D,Mixing/Well-Stirred
RoomAir Model,ALL_ST=WHOLEBUILDING_FL=STORY 1_SCH=E,Mixing/Well-Stirred
RoomAir Model,ALL_ST=WHOLEBUILDING_FL=STORY 1_SCH=E 1,Mixing/Well-Stirred
RoomAir Model,ALL_ST=WHOLEBUILDING_FL=STORY 1_SCH=H,Mixing/Well-Stirred
RoomAir Model,ALL_ST=WHOLEBUILDING_FL=STORY 2_SCH=A,Mixing/Well-Stirred
RoomAir Model,ALL_ST=WHOLEBUILDING_FL=STORY 2_SCH=E,Mixing/Well-Stirred
RoomAir Model,ALL_ST=WHOLEBUILDING_FL=STORY 2_SCH=E 1,Mixing/Well-Stirred
RoomAir Model,ALL_ST=WHOLEBUILDING_FL=STORY 2_SCH=E 2,Mixing/Well-Stirred
RoomAir Model,ALL_ST=WHOLEBUILDING_FL=STORY 2_SCH=E 3,Mixing/Well-Stirred
RoomAir Model,ALL_ST=WHOLEBUILDING_FL=STORY 3_SCH=B,Mixing/Well-Stirred
RoomAir Model,ALL_ST=WHOLEBUILDING_FL=STORY 4_SCH=A,Mixing/Well-Stirred
RoomAir Model,ALL_ST=WORKSHOP SPACE_FL=STORY 3_SCH=A,Mixing/Well-Stirred
RoomAir Model,WET_ST=WASHROOM-SCH-C_FL=STORY 4_SCHE,Mixing/Well-Stirred
RoomAir Model,WET_ST=WASHROOM-SCH-D_FL=STORY 4_SCHE,Mixing/Well-Stirred
RoomAir Model,WET_ST=WASHROOM-SCH-E_FL=STORY 4_SCHE,Mixing/Well-Stirred
RoomAir Model,WET_ST=WASHROOM-SCH-F_FL=STORY 3_SCHE,Mixing/Well-Stirred
RoomAir Model,WET_ST=WASHROOM-SCH-G_FL=STORY 3_SCHE,Mixing/Well-Stirred
RoomAir Model,WET_ST=WASHROOM-SCH-H_FL=STORY 4_SCHE,Mixing/Well-Stirred
RoomAir Model,WET_ST=WASHROOM-SCH-I_FL=STORY 3_SCHE,Mixing/Well-Stirred
! <AirflowNetwork Model:Control>, No Multizone or Distribution/Multizone with Distribution/Multizone without Distribution/Multizone with Distribution only during Fan Operation
AirflowNetwork Model:Control,NoMultizoneOrDistribution
! <Zone Volume Capacitance Multiplier>, Sensible Heat Capacity Multiplier, Moisture Capacity Multiplier, Carbon Dioxide Capacity Multiplier, Generic Contaminant Capacity Multiplier
Zone Volume Capacitance Multiplier,   1.000 ,   1.000,   1.000,   1.000
! <Load Timesteps in Zone Design Calculation Averaging Window>, Value
 Load Timesteps in Zone Design Calculation Averaging Window,    6
! <Heating Sizing Factor Information>, Sizing Factor ID, Value
 Heating Sizing Factor Information, Global,   1.3000    
 Heating Sizing Factor Information, Zone ALL_ST=WHOLEBUILDING_FL=STORY 1_SCH=A,   1.3000    
 Heating Sizing Factor Information, Zone ALL_ST=WHOLEBUILDING_FL=STORY 1_SCH=D,   1.3000    
 Heating Sizing Factor Information, Zone ALL_ST=WHOLEBUILDING_FL=STORY 1_SCH=E,   1.3000    
 Heating Sizing Factor Information, Zone ALL_ST=WHOLEBUILDING_FL=STORY 1_SCH=E 1,   1.3000    
 Heating Sizing Factor Information, Zone ALL_ST=WHOLEBUILDING_FL=STORY 1_SCH=H,   1.3000    
 Heating Sizing Factor Information, Zone ALL_ST=WHOLEBUILDING_FL=STORY 2_SCH=A,   1.3000    
 Heating Sizing Factor Information, Zone ALL_ST=WHOLEBUILDING_FL=STORY 2_SCH=E,   1.3000    
 Heating Sizing Factor Information, Zone ALL_ST=WHOLEBUILDING_FL=STORY 2_SCH=E 1,   1.3000    
 Heating Sizing Factor Information, Zone ALL_ST=WHOLEBUILDING_FL=STORY 2_SCH=E 2,   1.3000    
 Heating Sizing Factor Information, Zone ALL_ST=WHOLEBUILDING_FL=STORY 2_SCH=E 3,   1.3000    
 Heating Sizing Factor Information, Zone ALL_ST=WHOLEBUILDING_FL=STORY 3_SCH=B,   1.3000    
 Heating Sizing Factor Information, Zone ALL_ST=WHOLEBUILDING_FL=STORY 4_SCH=A,   1.3000    
 Heating Sizing Factor Information, Zone ALL_ST=WORKSHOP SPACE_FL=STORY 3_SCH=A,   1.3000    
 Heating Sizing Factor Information, Zone WET_ST=WASHROOM-SCH-C_FL=STORY 4_SCHE,   1.3000    
 Heating Sizing Factor Information, Zone WET_ST=WASHROOM-SCH-D_FL=STORY 4_SCHE,   1.3000    
 Heating Sizing Factor Information, Zone WET_ST=WASHROOM-SCH-E_FL=STORY 4_SCHE,   1.3000    
 Heating Sizing Factor Information, Zone WET_ST=WASHROOM-SCH-F_FL=STORY 3_SCHE,   1.3000    
 Heating Sizing Factor Information, Zone WET_ST=WASHROOM-SCH-G_FL=STORY 3_SCHE,   1.3000    
 Heating Sizing Factor Information, Zone WET_ST=WASHROOM-SCH-H_FL=STORY 4_SCHE,   1.3000    
 Heating Sizing Factor Information, Zone WET_ST=WASHROOM-SCH-I_FL=STORY 3_SCHE,   1.3000    
! <Cooling Sizing Factor Information>, Sizing Factor ID, Value
 Cooling Sizing Factor Information, Global,   1.1000    
 Cooling Sizing Factor Information, Zone ALL_ST=WHOLEBUILDING_FL=STORY 1_SCH=A,   1.1000    
 Cooling Sizing Factor Information, Zone ALL_ST=WHOLEBUILDING_FL=STORY 1_SCH=D,   1.1000    
 Cooling Sizing Factor Information, Zone ALL_ST=WHOLEBUILDING_FL=STORY 1_SCH=E,   1.1000    
 Cooling Sizing Factor Information, Zone ALL_ST=WHOLEBUILDING_FL=STORY 1_SCH=E 1,   1.1000    
 Cooling Sizing Factor Information, Zone ALL_ST=WHOLEBUILDING_FL=STORY 1_SCH=H,   1.1000    
 Cooling Sizing Factor Information, Zone ALL_ST=WHOLEBUILDING_FL=STORY 2_SCH=A,   1.1000    
 Cooling Sizing Factor Information, Zone ALL_ST=WHOLEBUILDING_FL=STORY 2_SCH=E,   1.1000    
 Cooling Sizing Factor Information, Zone ALL_ST=WHOLEBUILDING_FL=STORY 2_SCH=E 1,   1.1000    
 Cooling Sizing Factor Information, Zone ALL_ST=WHOLEBUILDING_FL=STORY 2_SCH=E 2,   1.1000    
 Cooling Sizing Factor Information, Zone ALL_ST=WHOLEBUILDING_FL=STORY 2_SCH=E 3,   1.1000    
 Cooling Sizing Factor Information, Zone ALL_ST=WHOLEBUILDING_FL=STORY 3_SCH=B,   1.1000    
 Cooling Sizing Factor Information, Zone ALL_ST=WHOLEBUILDING_FL=STORY 4_SCH=A,   1.1000    
 Cooling Sizing Factor Information, Zone ALL_ST=WORKSHOP SPACE_FL=STORY 3_SCH=A,   1.1000    
 Cooling Sizing Factor Information, Zone WET_ST=WASHROOM-SCH-C_FL=STORY 4_SCHE,   1.1000    
 Cooling Sizing Factor Information, Zone WET_ST=WASHROOM-SCH-D_FL=STORY 4_SCHE,   1.1000    
 Cooling Sizing Factor Information, Zone WET_ST=WASHROOM-SCH-E_FL=STORY 4_SCHE,   1.1000    
 Cooling Sizing Factor Information, Zone WET_ST=WASHROOM-SCH-F_FL=STORY 3_SCHE,   1.1000    
 Cooling Sizing Factor Information, Zone WET_ST=WASHROOM-SCH-G_FL=STORY 3_SCHE,   1.1000    
 Cooling Sizing Factor Information, Zone WET_ST=WASHROOM-SCH-H_FL=STORY 4_SCHE,   1.1000    
 Cooling Sizing Factor Information, Zone WET_ST=WASHROOM-SCH-I_FL=STORY 3_SCHE,   1.1000    
! <Zone Sizing Information>, Zone Name, Load Type, Calc Des Load {W}, User Des Load {W}, Calc Des Air Flow Rate {m3/s}, User Des Air Flow Rate {m3/s}, Design Day Name, Date/Time of Peak, Temperature at Peak {C}, Humidity Ratio at Peak {kgWater/kgDryAir}, Floor Area {m2}, # Occupants, Calc Outdoor Air Flow Rate {m3/s}, Calc DOAS Heat Addition Rate {W}
 Zone Sizing Information, ALL_ST=WHOLEBUILDING_FL=STORY 1_SCH=A, Cooling, 36156.42775, 39772.07053, 2.79446, 3.07391, FORT MCMURRAY AP ANN CLG .4% CONDNS DB=>MWB, 7/21 16:20:00, 27.82533, 8.76969E-003, 1875.00000, 62.56523, 2.00978, 0.00000
 Zone Sizing Information, ALL_ST=WHOLEBUILDING_FL=STORY 1_SCH=A, Heating, 0.00000, 0.00000, 0.00000, 2.00978, FORT MCMURRAY AP ANN HTG 99.6% CONDNS DB, , -36.20000, 1.25811E-004, 1875.00000, 62.56523, 2.00978, 0.00000
 Zone Sizing Information, ALL_ST=WHOLEBUILDING_FL=STORY 1_SCH=D, Cooling, 29070.95495, 31978.05044, 2.24686, 2.47155, FORT MCMURRAY AP ANN CLG .4% CONDNS DB=>MWB, 7/21 16:00:00, 28.15600, 8.76969E-003, 1875.00000, 75.07828, 0.75248, 0.00000
 Zone Sizing Information, ALL_ST=WHOLEBUILDING_FL=STORY 1_SCH=D, Heating, 0.00000, 0.00000, 0.00000, 0.75248, FORT MCMURRAY AP ANN HTG 99.6% CONDNS DB, , -36.20000, 1.25811E-004, 1875.00000, 75.07828, 0.75248, 0.00000
 Zone Sizing Information, ALL_ST=WHOLEBUILDING_FL=STORY 1_SCH=E, Cooling, 30994.65093, 34094.11603, 2.39557, 2.87020, FORT MCMURRAY AP ANN CLG .4% CONDNS DB=>MWB, 7/21 16:00:00, 28.15600, 8.76969E-003, 2500.00000, 125.13046, 2.87020, 0.00000
 Zone Sizing Information, ALL_ST=WHOLEBUILDING_FL=STORY 1_SCH=E, Heating, 0.00000, 0.00000, 0.00000, 2.87020, FORT MCMURRAY AP ANN HTG 99.6% CONDNS DB, , -36.20000, 1.25811E-004, 2500.00000, 125.13046, 2.87020, 0.00000
 Zone Sizing Information, ALL_ST=WHOLEBUILDING_FL=STORY 1_SCH=E 1, Cooling, 25433.46681, 27976.81349, 1.96575, 2.16232, FORT MCMURRAY AP ANN CLG .4% CONDNS DB=>MWB, 7/21 16:00:00, 28.15600, 8.76969E-003, 1875.00000, 93.84784, 2.15265, 0.00000
 Zone Sizing Information, ALL_ST=WHOLEBUILDING_FL=STORY 1_SCH=E 1, Heating, 495.74406, 644.46728, 1.99504E-002, 2.15265, FORT MCMURRAY AP ANN HTG 99.6% CONDNS DB, 1/21 08:10:00, -36.20000, 1.25811E-004, 1875.00000, 93.84784, 2.15265, 0.00000
 Zone Sizing Information, ALL_ST=WHOLEBUILDING_FL=STORY 1_SCH=H, Cooling, 21181.49069, 23299.63976, 1.63721, 1.80093, FORT MCMURRAY AP ANN CLG .4% CONDNS DB=>MWB, 7/21 17:20:00, 26.75067, 8.76969E-003, 1875.00000, 124.92864, 1.00965, 0.00000
 Zone Sizing Information, ALL_ST=WHOLEBUILDING_FL=STORY 1_SCH=H, Heating, 0.00000, 0.00000, 0.00000, 1.00965, FORT MCMURRAY AP ANN HTG 99.6% CONDNS DB, , -36.20000, 1.25811E-004, 1875.00000, 124.92864, 1.00965, 0.00000
 Zone Sizing Information, ALL_ST=WHOLEBUILDING_FL=STORY 2_SCH=A, Cooling, 29264.64441, 32191.10885, 2.26165, 2.48781, FORT MCMURRAY AP ANN CLG .4% CONDNS DB=>MWB, 7/21 13:40:00, 28.69333, 8.76969E-003, 1875.00000, 1.21094, 0.58103, 0.00000
 Zone Sizing Information, ALL_ST=WHOLEBUILDING_FL=STORY 2_SCH=A, Heating, 23040.95811, 29953.24555, 0.90305, 1.17396, FORT MCMURRAY AP ANN HTG 99.6% CONDNS DB, 1/21 08:00:00, -36.20000, 1.25811E-004, 1875.00000, 1.21094, 0.58103, 0.00000
 Zone Sizing Information, ALL_ST=WHOLEBUILDING_FL=STORY 2_SCH=E, Cooling, 48545.05420, 53399.55962, 3.75206, 4.12726, FORT MCMURRAY AP ANN CLG .4% CONDNS DB=>MWB, 7/21 18:00:00, 25.92400, 8.76969E-003, 1875.00000, 93.84784, 2.15265, 0.00000
 Zone Sizing Information, ALL_ST=WHOLEBUILDING_FL=STORY 2_SCH=E, Heating, 9211.83423, 11975.38449, 0.35887, 2.15265, FORT MCMURRAY AP ANN HTG 99.6% CONDNS DB, 1/21 09:00:00, -36.20000, 1.25811E-004, 1875.00000, 93.84784, 2.15265, 0.00000
 Zone Sizing Information, ALL_ST=WHOLEBUILDING_FL=STORY 2_SCH=E 1, Cooling, 48125.98700, 52938.58570, 3.37179, 3.70897, FORT MCMURRAY AP ANN CLG .4% CONDNS DB=>MWB, 7/21 08:00:00, 19.72400, 8.76969E-003, 1875.00000, 93.84784, 2.15265, 0.00000
 Zone Sizing Information, ALL_ST=WHOLEBUILDING_FL=STORY 2_SCH=E 1, Heating, 16004.37622, 20805.68909, 0.61870, 2.15265, FORT MCMURRAY AP ANN HTG 99.6% CONDNS DB, 1/21 09:00:00, -36.20000, 1.25811E-004, 1875.00000, 93.84784, 2.15265, 0.00000
 Zone Sizing Information, ALL_ST=WHOLEBUILDING_FL=STORY 2_SCH=E 2, Cooling, 30320.00200, 33352.00220, 2.34341, 2.57775, FORT MCMURRAY AP ANN CLG .4% CONDNS DB=>MWB, 7/21 16:00:00, 28.15600, 8.76969E-003, 1875.00000, 93.84784, 2.15265, 0.00000
 Zone Sizing Information, ALL_ST=WHOLEBUILDING_FL=STORY 2_SCH=E 2, Heating, 9222.99258, 11989.89035, 0.36026, 2.15265, FORT MCMURRAY AP ANN HTG 99.6% CONDNS DB, 1/21 09:00:00, -36.20000, 1.25811E-004, 1875.00000, 93.84784, 2.15265, 0.00000
 Zone Sizing Information, ALL_ST=WHOLEBUILDING_FL=STORY 2_SCH=E 3, Cooling, 35888.80525, 39477.68578, 2.77383, 3.05122, FORT MCMURRAY AP ANN CLG .4% CONDNS DB=>MWB, 7/21 16:00:00, 28.15600, 8.76969E-003, 2500.00000, 125.13046, 2.87020, 0.00000
 Zone Sizing Information, ALL_ST=WHOLEBUILDING_FL=STORY 2_SCH=E 3, Heating, 0.00000, 0.00000, 0.00000, 2.87020, FORT MCMURRAY AP ANN HTG 99.6% CONDNS DB, , -36.20000, 1.25811E-004, 2500.00000, 125.13046, 2.87020, 0.00000
 Zone Sizing Information, ALL_ST=WHOLEBUILDING_FL=STORY 3_SCH=B, Cooling, 35548.10751, 39102.91826, 2.74746, 3.02221, FORT MCMURRAY AP ANN CLG .4% CONDNS DB=>MWB, 7/21 20:10:00, 22.51400, 8.76969E-003, 1875.00000, 187.49386, 1.23825, 0.00000
 Zone Sizing Information, ALL_ST=WHOLEBUILDING_FL=STORY 3_SCH=B, Heating, 24395.68039, 31714.38451, 0.95881, 1.24645, FORT MCMURRAY AP ANN HTG 99.6% CONDNS DB, 1/21 10:00:00, -36.20000, 1.25811E-004, 1875.00000, 187.49386, 1.23825, 0.00000
 Zone Sizing Information, ALL_ST=WHOLEBUILDING_FL=STORY 4_SCH=A, Cooling, 66601.84157, 73262.02573, 5.14718, 5.66190, FORT MCMURRAY AP ANN CLG .4% CONDNS DB=>MWB, 7/21 13:40:00, 28.69333, 8.76969E-003, 2500.00000, 1.61459, 0.77470, 0.00000
 Zone Sizing Information, ALL_ST=WHOLEBUILDING_FL=STORY 4_SCH=A, Heating, 51740.66263, 67262.86142, 2.05480, 2.67123, FORT MCMURRAY AP ANN HTG 99.6% CONDNS DB, 1/21 08:00:00, -36.20000, 1.25811E-004, 2500.00000, 1.61459, 0.77470, 0.00000
 Zone Sizing Information, ALL_ST=WORKSHOP SPACE_FL=STORY 3_SCH=A, Cooling, 67215.82165, 73937.40382, 5.19498, 5.71448, FORT MCMURRAY AP ANN CLG .4% CONDNS DB=>MWB, 7/21 17:30:00, 26.54400, 8.76969E-003, 1875.00000, 62.56523, 3.61950, 0.00000
 Zone Sizing Information, ALL_ST=WORKSHOP SPACE_FL=STORY 3_SCH=A, Heating, 21517.79885, 27973.13851, 0.84155, 3.61950, FORT MCMURRAY AP ANN HTG 99.6% CONDNS DB, 1/21 08:00:00, -36.20000, 1.25811E-004, 1875.00000, 62.56523, 3.61950, 0.00000
 Zone Sizing Information, WET_ST=WASHROOM-SCH-C_FL=STORY 4_SCHE, Cooling, 78321.49538, 86153.64492, 6.05331, 6.65864, FORT MCMURRAY AP ANN CLG .4% CONDNS DB=>MWB, 7/21 13:30:00, 28.59000, 8.76969E-003, 1875.00000, 62.56523, 0.57150, 0.00000
 Zone Sizing Information, WET_ST=WASHROOM-SCH-C_FL=STORY 4_SCHE, Heating, 54630.33843, 71019.43996, 2.18010, 2.83413, FORT MCMURRAY AP ANN HTG 99.6% CONDNS DB, 1/21 09:00:00, -36.20000, 1.25811E-004, 1875.00000, 62.56523, 0.57150, 0.00000
 Zone Sizing Information, WET_ST=WASHROOM-SCH-D_FL=STORY 4_SCHE, Cooling, 68315.19961, 75146.71957, 5.27989, 5.80788, FORT MCMURRAY AP ANN CLG .4% CONDNS DB=>MWB, 7/21 11:00:00, 26.04800, 8.76969E-003, 1875.00000, 62.56523, 0.57150, 0.00000
 Zone Sizing Information, WET_ST=WASHROOM-SCH-D_FL=STORY 4_SCHE, Heating, 53994.33834, 70192.63984, 2.15447, 2.80081, FORT MCMURRAY AP ANN HTG 99.6% CONDNS DB, 1/21 09:00:00, -36.20000, 1.25811E-004, 1875.00000, 62.56523, 0.57150, 0.00000
 Zone Sizing Information, WET_ST=WASHROOM-SCH-E_FL=STORY 4_SCHE, Cooling, 77238.07840, 84961.88624, 5.96950, 6.56645, FORT MCMURRAY AP ANN CLG .4% CONDNS DB=>MWB, 7/21 16:10:00, 27.99067, 8.76969E-003, 1875.00000, 62.56523, 0.57150, 0.00000
 Zone Sizing Information, WET_ST=WASHROOM-SCH-E_FL=STORY 4_SCHE, Heating, 49677.59802, 64580.87742, 1.98040, 2.57452, FORT MCMURRAY AP ANN HTG 99.6% CONDNS DB, 1/21 09:00:00, -36.20000, 1.25811E-004, 1875.00000, 62.56523, 0.57150, 0.00000
 Zone Sizing Information, WET_ST=WASHROOM-SCH-F_FL=STORY 3_SCHE, Cooling, 35581.18346, 39139.30181, 2.74999, 3.02499, FORT MCMURRAY AP ANN CLG .4% CONDNS DB=>MWB, 7/21 17:50:00, 26.13067, 8.76969E-003, 2500.00000, 83.42031, 0.76200, 0.00000
 Zone Sizing Information, WET_ST=WASHROOM-SCH-F_FL=STORY 3_SCHE, Heating, 4211.08412, 5474.40935, 0.16731, 0.76200, FORT MCMURRAY AP ANN HTG 99.6% CONDNS DB, 1/21 08:40:00, -36.20000, 1.25811E-004, 2500.00000, 83.42031, 0.76200, 0.00000
 Zone Sizing Information, WET_ST=WASHROOM-SCH-G_FL=STORY 3_SCHE, Cooling, 40649.63659, 44714.60025, 3.14174, 3.45592, FORT MCMURRAY AP ANN CLG .4% CONDNS DB=>MWB, 7/21 14:00:00, 28.90000, 8.76969E-003, 1875.00000, 62.56523, 0.57150, 0.00000
 Zone Sizing Information, WET_ST=WASHROOM-SCH-G_FL=STORY 3_SCHE, Heating, 33104.49490, 43035.84337, 1.31057, 1.70374, FORT MCMURRAY AP ANN HTG 99.6% CONDNS DB, 1/21 09:00:00, -36.20000, 1.25811E-004, 1875.00000, 62.56523, 0.57150, 0.00000
 Zone Sizing Information, WET_ST=WASHROOM-SCH-H_FL=STORY 4_SCHE, Cooling, 60913.95583, 67005.35141, 4.70792, 5.17871, FORT MCMURRAY AP ANN CLG .4% CONDNS DB=>MWB, 7/21 13:50:00, 28.79667, 8.76969E-003, 1875.00000, 62.56523, 0.57150, 0.00000
 Zone Sizing Information, WET_ST=WASHROOM-SCH-H_FL=STORY 4_SCHE, Heating, 51254.87630, 66631.33919, 2.04408, 2.65731, FORT MCMURRAY AP ANN HTG 99.6% CONDNS DB, 1/21 09:00:00, -36.20000, 1.25811E-004, 1875.00000, 62.56523, 0.57150, 0.00000
 Zone Sizing Information, WET_ST=WASHROOM-SCH-I_FL=STORY 3_SCHE, Cooling, 50491.42979, 55540.57277, 3.54713, 3.90184, FORT MCMURRAY AP ANN CLG .4% CONDNS DB=>MWB, 7/21 08:00:00, 19.72400, 8.76969E-003, 1875.00000, 62.56523, 0.57150, 0.00000
 Zone Sizing Information, WET_ST=WASHROOM-SCH-I_FL=STORY 3_SCHE, Heating, 31295.61771, 40684.30302, 1.23718, 1.60833, FORT MCMURRAY AP ANN HTG 99.6% CONDNS DB, 1/21 09:00:00, -36.20000, 1.25811E-004, 1875.00000, 62.56523, 0.57150, 0.00000
! <System Sizing Information>, System Name, Load Type, Peak Load Kind, User Design Capacity, Calc Des Air Flow Rate [m3/s], User Des Air Flow Rate [m3/s], Design Day Name, Date/Time of Peak
 System Sizing Information, SYS_2_MAKE-UP AIR UNIT, Cooling, Sensible, 76340.09, 5.66190, 5.66190, FORT MCMURRAY AP ANN CLG .4% CONDNS DB=>MWB, 7/21 00:00:00
 System Sizing Information, SYS_2_MAKE-UP AIR UNIT, Heating, Sensible, 25173.76, 2.67123, 2.67123, FORT MCMURRAY AP ANN HTG 99.6% CONDNS DB, 1/21 00:10:00
 System Sizing Information, SYS_3_PSZ ALL_ST=WHOLEBUILDING_FL=STORY 1_SCH=A, Cooling, Sensible, 48062.69, 3.07391, 3.07391, FORT MCMURRAY AP ANN CLG .4% CONDNS DB=>MWB, 7/21 05:00:00
 System Sizing Information, SYS_3_PSZ ALL_ST=WHOLEBUILDING_FL=STORY 1_SCH=A, Heating, Sensible, 184344.74, 2.00978, 2.00978, FORT MCMURRAY AP ANN HTG 99.6% CONDNS DB, 1/21 00:10:00
 System Sizing Information, SYS_3_PSZ ALL_ST=WHOLEBUILDING_FL=STORY 1_SCH=D, Cooling, Sensible, 35106.17, 2.47155, 2.47155, FORT MCMURRAY AP ANN CLG .4% CONDNS DB=>MWB, 7/21 05:00:00
 System Sizing Information, SYS_3_PSZ ALL_ST=WHOLEBUILDING_FL=STORY 1_SCH=D, Heating, Sensible, 69020.07, 0.75248, 0.75248, FORT MCMURRAY AP ANN HTG 99.6% CONDNS DB, 1/21 00:10:00
 System Sizing Information, SYS_3_PSZ ALL_ST=WORKSHOP SPACE_FL=STORY 3_SCH=A, Cooling, Sensible, 83461.51, 5.71448, 5.71448, FORT MCMURRAY AP ANN CLG .4% CONDNS DB=>MWB, 7/21 05:00:00
 System Sizing Information, SYS_3_PSZ ALL_ST=WORKSHOP SPACE_FL=STORY 3_SCH=A, Heating, Sensible, 331995.26, 3.61950, 3.61950, FORT MCMURRAY AP ANN HTG 99.6% CONDNS DB, 1/21 00:10:00
 System Sizing Information, SYS_4_PSZ_ALL_ST=WHOLEBUILDING_FL=STORY 1_SCH=E, Cooling, Sensible, 50379.62, 2.87020, 2.87020, FORT MCMURRAY AP ANN CLG .4% CONDNS DB=>MWB, 7/21 05:00:00
 System Sizing Information, SYS_4_PSZ_ALL_ST=WHOLEBUILDING_FL=STORY 1_SCH=E, Heating, Sensible, 263266.42, 2.87020, 2.87020, FORT MCMURRAY AP ANN HTG 99.6% CONDNS DB, 1/21 00:10:00
 System Sizing Information, SYS_4_PSZ_ALL_ST=WHOLEBUILDING_FL=STORY 1_SCH=E 1, Cooling, Sensible, 37907.91, 2.16232, 2.16232, FORT MCMURRAY AP ANN CLG .4% CONDNS DB=>MWB, 7/21 05:00:00
 System Sizing Information, SYS_4_PSZ_ALL_ST=WHOLEBUILDING_FL=STORY 1_SCH=E 1, Heating, Sensible, 197449.81, 2.15265, 2.15265, FORT MCMURRAY AP ANN HTG 99.6% CONDNS DB, 1/21 00:10:00
 System Sizing Information, SYS_4_PSZ_ALL_ST=WHOLEBUILDING_FL=STORY 2_SCH=A, Cooling, Sensible, 34851.50, 2.48781, 2.48781, FORT MCMURRAY AP ANN CLG .4% CONDNS DB=>MWB, 7/21 05:00:00
 System Sizing Information, SYS_4_PSZ_ALL_ST=WHOLEBUILDING_FL=STORY 2_SCH=A, Heating, Sensible, 68019.20, 1.17396, 1.17396, FORT MCMURRAY AP ANN HTG 99.6% CONDNS DB, 1/21 08:00:00
 System Sizing Information, SYS_4_PSZ_ALL_ST=WHOLEBUILDING_FL=STORY 2_SCH=E, Cooling, Sensible, 57373.19, 4.12726, 4.12726, FORT MCMURRAY AP ANN CLG .4% CONDNS DB=>MWB, 7/21 05:00:00
 System Sizing Information, SYS_4_PSZ_ALL_ST=WHOLEBUILDING_FL=STORY 2_SCH=E, Heating, Sensible, 197449.81, 2.15265, 2.15265, FORT MCMURRAY AP ANN HTG 99.6% CONDNS DB, 1/21 00:10:00
 System Sizing Information, SYS_4_PSZ_ALL_ST=WHOLEBUILDING_FL=STORY 2_SCH=E 1, Cooling, Sensible, 36479.77, 3.70897, 3.70897, FORT MCMURRAY AP ANN CLG .4% CONDNS DB=>MWB, 7/21 05:00:00
 System Sizing Information, SYS_4_PSZ_ALL_ST=WHOLEBUILDING_FL=STORY 2_SCH=E 1, Heating, Sensible, 197449.81, 2.15265, 2.15265, FORT MCMURRAY AP ANN HTG 99.6% CONDNS DB, 1/21 00:10:00
 System Sizing Information, SYS_4_PSZ_ALL_ST=WHOLEBUILDING_FL=STORY 2_SCH=E 2, Cooling, Sensible, 43199.81, 2.57775, 2.57775, FORT MCMURRAY AP ANN CLG .4% CONDNS DB=>MWB, 7/21 05:00:00
 System Sizing Information, SYS_4_PSZ_ALL_ST=WHOLEBUILDING_FL=STORY 2_SCH=E 2, Heating, Sensible, 197449.81, 2.15265, 2.15265, FORT MCMURRAY AP ANN HTG 99.6% CONDNS DB, 1/21 00:10:00
 System Sizing Information, SYS_4_PSZ_ALL_ST=WHOLEBUILDING_FL=STORY 2_SCH=E 3, Cooling, Sensible, 52685.46, 3.05122, 3.05122, FORT MCMURRAY AP ANN CLG .4% CONDNS DB=>MWB, 7/21 05:00:00
 System Sizing Information, SYS_4_PSZ_ALL_ST=WHOLEBUILDING_FL=STORY 2_SCH=E 3, Heating, Sensible, 263266.42, 2.87020, 2.87020, FORT MCMURRAY AP ANN HTG 99.6% CONDNS DB, 1/21 00:10:00
 System Sizing Information, SYS_4_PSZ_WET_ST=WASHROOM-SCH-C_FL=STORY 4_SCHE, Cooling, Sensible, 454549.38, 34.59443, 34.59443, FORT MCMURRAY AP ANN CLG .4% CONDNS DB=>MWB, 7/21 05:00:00
 System Sizing Information, SYS_4_PSZ_WET_ST=WASHROOM-SCH-C_FL=STORY 4_SCHE, Heating, Sensible, 648276.95, 14.94084, 14.94084, FORT MCMURRAY AP ANN HTG 99.6% CONDNS DB, 1/21 09:00:00
 System Sizing Information, SYS_6_VAV WITH REHEAT, Cooling, Sensible, 26157.73, 1.80093, 1.80093, FORT MCMURRAY AP ANN CLG .4% CONDNS DB=>MWB, 7/21 00:00:00
 System Sizing Information, SYS_6_VAV WITH REHEAT, Heating, Sensible, 57646.89, 1.00965, 1.00965, FORT MCMURRAY AP ANN HTG 99.6% CONDNS DB, 1/21 00:10:00
 System Sizing Information, SYS_6_VAV WITH REHEAT 1, Cooling, Sensible, 36368.50, 3.02221, 3.02221, FORT MCMURRAY AP ANN CLG .4% CONDNS DB=>MWB, 7/21 00:00:00
 System Sizing Information, SYS_6_VAV WITH REHEAT 1, Heating, Sensible, 70617.08, 1.24645, 1.24645, FORT MCMURRAY AP ANN HTG 99.6% CONDNS DB, 1/21 00:10:00
! <Component Sizing Information>, Component Type, Component Name, Input Field Description, Value
 Component Sizing Information, AirTerminal:SingleDuct:Uncontrolled, AIR TERMINAL SINGLE DUCT UNCONTROLLED 10, Design Size Maximum Air Flow Rate [m3/s], 3.07391
 Component Sizing Information, ZoneHVAC:Baseboard:Convective:Water, ZONE HVAC BASEBOARD CONVECTIVE WATER 10, Design Size Maximum Water Flow Rate [m3/s], 0.00000
 Component Sizing Information, ZoneHVAC:Baseboard:Convective:Water, ZONE HVAC BASEBOARD CONVECTIVE WATER 10, Design Size U-Factor Times Area Value [W/K], 0.00000
 Component Sizing Information, AirTerminal:SingleDuct:Uncontrolled, AIR TERMINAL SINGLE DUCT UNCONTROLLED 9, Design Size Maximum Air Flow Rate [m3/s], 2.47155
 Component Sizing Information, ZoneHVAC:Baseboard:Convective:Water, ZONE HVAC BASEBOARD CONVECTIVE WATER 9, Design Size Maximum Water Flow Rate [m3/s], 0.00000
 Component Sizing Information, ZoneHVAC:Baseboard:Convective:Water, ZONE HVAC BASEBOARD CONVECTIVE WATER 9, Design Size U-Factor Times Area Value [W/K], 0.00000
 Component Sizing Information, AirTerminal:SingleDuct:Uncontrolled, AIR TERMINAL SINGLE DUCT UNCONTROLLED 12, Design Size Maximum Air Flow Rate [m3/s], 2.87020
 Component Sizing Information, ZoneHVAC:Baseboard:Convective:Water, ZONE HVAC BASEBOARD CONVECTIVE WATER 14, Design Size Maximum Water Flow Rate [m3/s], 0.00000
 Component Sizing Information, ZoneHVAC:Baseboard:Convective:Water, ZONE HVAC BASEBOARD CONVECTIVE WATER 14, Design Size U-Factor Times Area Value [W/K], 0.00000
 Component Sizing Information, AirTerminal:SingleDuct:Uncontrolled, AIR TERMINAL SINGLE DUCT UNCONTROLLED 13, Design Size Maximum Air Flow Rate [m3/s], 2.16232
 Component Sizing Information, ZoneHVAC:Baseboard:Convective:Water, ZONE HVAC BASEBOARD CONVECTIVE WATER 15, Design Size Maximum Water Flow Rate [m3/s], 9.62564E-006
 Component Sizing Information, ZoneHVAC:Baseboard:Convective:Water, ZONE HVAC BASEBOARD CONVECTIVE WATER 15, Design Size U-Factor Times Area Value [W/K], 12.51780
 Component Sizing Information, AirTerminal:SingleDuct:VAV:Reheat, AIR TERMINAL SINGLE DUCT VAV REHEAT 1, Design Size Maximum Air Flow Rate [m3/s], 1.80093
 Component Sizing Information, AirTerminal:SingleDuct:VAV:Reheat, AIR TERMINAL SINGLE DUCT VAV REHEAT 1, Design Size Constant Minimum Air Flow Fraction, 0.79334
 Component Sizing Information, AirTerminal:SingleDuct:VAV:Reheat, AIR TERMINAL SINGLE DUCT VAV REHEAT 1, User-Specified Constant Minimum Air Flow Fraction, 0.30000
 Component Sizing Information, AirTerminal:SingleDuct:VAV:Reheat, AIR TERMINAL SINGLE DUCT VAV REHEAT 1, Design Size Minimum Air Flow Rate [m3/s], 0.54028
 Component Sizing Information, AirTerminal:SingleDuct:VAV:Reheat, AIR TERMINAL SINGLE DUCT VAV REHEAT 1, Design Size Maximum Flow per Zone Floor Area during Reheat [m3/s-m2], 2.88150E-004
 Component Sizing Information, AirTerminal:SingleDuct:VAV:Reheat, AIR TERMINAL SINGLE DUCT VAV REHEAT 1, Design Size Maximum Flow Fraction during Reheat [], 0.30000
 Component Sizing Information, AirTerminal:SingleDuct:VAV:Reheat, AIR TERMINAL SINGLE DUCT VAV REHEAT 1, Design Size Maximum Reheat Water Flow Rate [m3/s], 8.58386E-005
 Component Sizing Information, AirTerminal:SingleDuct:VAV:Reheat, AIR TERMINAL SINGLE DUCT VAV REHEAT 1, Design Size Reheat Coil Sizing Air Volume Flow Rate [m3/s], 0.54028
 Component Sizing Information, AirTerminal:SingleDuct:VAV:Reheat, AIR TERMINAL SINGLE DUCT VAV REHEAT 1, Design Size Reheat Coil Sizing Inlet Air Temperature [C], 13.10000
 Component Sizing Information, AirTerminal:SingleDuct:VAV:Reheat, AIR TERMINAL SINGLE DUCT VAV REHEAT 1, Design Size Reheat Coil Sizing Inlet Air Humidity Ratio [kgWater/kgDryAir], 8.00000E-003
 Component Sizing Information, Coil:Heating:Water, COIL HEATING WATER 2, Design Size Rated Capacity [W], 5747.16340
 Component Sizing Information, Coil:Heating:Water, COIL HEATING WATER 2, Design Size Maximum Water Flow Rate [m3/s], 8.58386E-005
 Component Sizing Information, Coil:Heating:Water, COIL HEATING WATER 2, Design Size U-Factor Times Area Value [W/K], 103.62327
! <Water Heating Coil Capacity Information>,Component Type,Name,Nominal Total Capacity {W}
Water Heating Coil Capacity Information,Coil:Heating:Water,COIL HEATING WATER 2,5388.76
 Component Sizing Information, ZoneHVAC:Baseboard:Convective:Water, ZONE HVAC BASEBOARD CONVECTIVE WATER 11, Design Size Maximum Water Flow Rate [m3/s], 0.00000
 Component Sizing Information, ZoneHVAC:Baseboard:Convective:Water, ZONE HVAC BASEBOARD CONVECTIVE WATER 11, Design Size U-Factor Times Area Value [W/K], 0.00000
 Component Sizing Information, AirTerminal:SingleDuct:Uncontrolled, AIR TERMINAL SINGLE DUCT UNCONTROLLED 11, Design Size Maximum Air Flow Rate [m3/s], 2.48781
 Component Sizing Information, ZoneHVAC:Baseboard:Convective:Water, ZONE HVAC BASEBOARD CONVECTIVE WATER 13, Design Size Maximum Water Flow Rate [m3/s], 4.47376E-004
 Component Sizing Information, ZoneHVAC:Baseboard:Convective:Water, ZONE HVAC BASEBOARD CONVECTIVE WATER 13, Design Size U-Factor Times Area Value [W/K], 913.37175
 Component Sizing Information, AirTerminal:SingleDuct:Uncontrolled, AIR TERMINAL SINGLE DUCT UNCONTROLLED 14, Design Size Maximum Air Flow Rate [m3/s], 4.12726
 Component Sizing Information, ZoneHVAC:Baseboard:Convective:Water, ZONE HVAC BASEBOARD CONVECTIVE WATER 16, Design Size Maximum Water Flow Rate [m3/s], 1.78862E-004
 Component Sizing Information, ZoneHVAC:Baseboard:Convective:Water, ZONE HVAC BASEBOARD CONVECTIVE WATER 16, Design Size U-Factor Times Area Value [W/K], 362.21978
 Component Sizing Information, AirTerminal:SingleDuct:Uncontrolled, AIR TERMINAL SINGLE DUCT UNCONTROLLED 15, Design Size Maximum Air Flow Rate [m3/s], 3.70897
 Component Sizing Information, ZoneHVAC:Baseboard:Convective:Water, ZONE HVAC BASEBOARD CONVECTIVE WATER 17, Design Size Maximum Water Flow Rate [m3/s], 3.10750E-004
 Component Sizing Information, ZoneHVAC:Baseboard:Convective:Water, ZONE HVAC BASEBOARD CONVECTIVE WATER 17, Design Size U-Factor Times Area Value [W/K], 629.98168
 Component Sizing Information, AirTerminal:SingleDuct:Uncontrolled, AIR TERMINAL SINGLE DUCT UNCONTROLLED 16, Design Size Maximum Air Flow Rate [m3/s], 2.57775
 Component Sizing Information, ZoneHVAC:Baseboard:Convective:Water, ZONE HVAC BASEBOARD CONVECTIVE WATER 18, Design Size Maximum Water Flow Rate [m3/s], 1.79079E-004
 Component Sizing Information, ZoneHVAC:Baseboard:Convective:Water, ZONE HVAC BASEBOARD CONVECTIVE WATER 18, Design Size U-Factor Times Area Value [W/K], 362.77180
 Component Sizing Information, AirTerminal:SingleDuct:Uncontrolled, AIR TERMINAL SINGLE DUCT UNCONTROLLED 17, Design Size Maximum Air Flow Rate [m3/s], 3.05122
 Component Sizing Information, ZoneHVAC:Baseboard:Convective:Water, ZONE HVAC BASEBOARD CONVECTIVE WATER 19, Design Size Maximum Water Flow Rate [m3/s], 0.00000
 Component Sizing Information, ZoneHVAC:Baseboard:Convective:Water, ZONE HVAC BASEBOARD CONVECTIVE WATER 19, Design Size U-Factor Times Area Value [W/K], 0.00000
 Component Sizing Information, AirTerminal:SingleDuct:VAV:Reheat, AIR TERMINAL SINGLE DUCT VAV REHEAT 2, Design Size Maximum Air Flow Rate [m3/s], 3.02221
 Component Sizing Information, AirTerminal:SingleDuct:VAV:Reheat, AIR TERMINAL SINGLE DUCT VAV REHEAT 2, Design Size Constant Minimum Air Flow Fraction, 0.47275
 Component Sizing Information, AirTerminal:SingleDuct:VAV:Reheat, AIR TERMINAL SINGLE DUCT VAV REHEAT 2, User-Specified Constant Minimum Air Flow Fraction, 0.30000
 Component Sizing Information, AirTerminal:SingleDuct:VAV:Reheat, AIR TERMINAL SINGLE DUCT VAV REHEAT 2, Design Size Minimum Air Flow Rate [m3/s], 0.90666
 Component Sizing Information, AirTerminal:SingleDuct:VAV:Reheat, AIR TERMINAL SINGLE DUCT VAV REHEAT 2, Design Size Maximum Flow per Zone Floor Area during Reheat [m3/s-m2], 4.83554E-004
 Component Sizing Information, AirTerminal:SingleDuct:VAV:Reheat, AIR TERMINAL SINGLE DUCT VAV REHEAT 2, Design Size Maximum Flow Fraction during Reheat [], 0.30000
 Component Sizing Information, AirTerminal:SingleDuct:VAV:Reheat, AIR TERMINAL SINGLE DUCT VAV REHEAT 2, Design Size Maximum Reheat Water Flow Rate [m3/s], 6.81247E-004
 Component Sizing Information, AirTerminal:SingleDuct:VAV:Reheat, AIR TERMINAL SINGLE DUCT VAV REHEAT 2, Design Size Reheat Coil Sizing Air Volume Flow Rate [m3/s], 1.24645
 Component Sizing Information, AirTerminal:SingleDuct:VAV:Reheat, AIR TERMINAL SINGLE DUCT VAV REHEAT 2, Design Size Reheat Coil Sizing Inlet Air Temperature [C], 13.10000
 Component Sizing Information, AirTerminal:SingleDuct:VAV:Reheat, AIR TERMINAL SINGLE DUCT VAV REHEAT 2, Design Size Reheat Coil Sizing Inlet Air Humidity Ratio [kgWater/kgDryAir], 8.00000E-003
 Component Sizing Information, Coil:Heating:Water, COIL HEATING WATER 4, Design Size Rated Capacity [W], 45611.65668
 Component Sizing Information, Coil:Heating:Water, COIL HEATING WATER 4, Design Size Maximum Water Flow Rate [m3/s], 6.81247E-004
 Component Sizing Information, Coil:Heating:Water, COIL HEATING WATER 4, Design Size U-Factor Times Area Value [W/K], 1044.46010
Water Heating Coil Capacity Information,Coil:Heating:Water,COIL HEATING WATER 4,39088.88
 Component Sizing Information, ZoneHVAC:Baseboard:Convective:Water, ZONE HVAC BASEBOARD CONVECTIVE WATER 12, Design Size Maximum Water Flow Rate [m3/s], 4.73680E-004
 Component Sizing Information, ZoneHVAC:Baseboard:Convective:Water, ZONE HVAC BASEBOARD CONVECTIVE WATER 12, Design Size U-Factor Times Area Value [W/K], 962.44622
 Component Sizing Information, ZoneHVAC:FourPipeFanCoil, ZONE HVAC FOUR PIPE FAN COIL 1, Design Size Maximum Supply Air Flow Rate [m3/s], 5.66190
 Component Sizing Information, Fan:ConstantVolume, FAN CONSTANT VOLUME 13, Design Size Maximum Flow Rate [m3/s], 5.66190
 Component Sizing Information, ZoneHVAC:FourPipeFanCoil, ZONE HVAC FOUR PIPE FAN COIL 1, Design Size Maximum Outdoor Air Flow Rate [m3/s], 0.77470
 Component Sizing Information, ZoneHVAC:FourPipeFanCoil, ZONE HVAC FOUR PIPE FAN COIL 1, Design Size Maximum Hot Water Flow [m3/s], 1.69980E-003
 Component Sizing Information, ZoneHVAC:FourPipeFanCoil, ZONE HVAC FOUR PIPE FAN COIL 1, Design Size Maximum Cold Water Flow [m3/s], 3.08997E-003
 Component Sizing Information, Coil:Cooling:Water, COIL COOLING WATER 3, Design Size Design Water Flow Rate [m3/s], 3.08997E-003
 Component Sizing Information, Coil:Cooling:Water, COIL COOLING WATER 3, Design Size Design Air Flow Rate [m3/s], 5.66190
 Component Sizing Information, Coil:Cooling:Water, COIL COOLING WATER 3, User-Specified Design Air Flow Rate [m3/s], 5.66190
 Component Sizing Information, Coil:Cooling:Water, COIL COOLING WATER 3, Design Size Design Inlet Air Temperature [C], 24.64212
 Component Sizing Information, Coil:Cooling:Water, COIL COOLING WATER 3, Design Size Design Inlet Water Temperature [C], 7.00000
 Component Sizing Information, Coil:Cooling:Water, COIL COOLING WATER 3, Design Size Design Inlet Air Humidity Ratio, 8.55560E-003
 Component Sizing Information, Coil:Cooling:Water, COIL COOLING WATER 3, Design Size Design Outlet Air Temperature [C], 13.00000
 Component Sizing Information, Coil:Cooling:Water, COIL COOLING WATER 3, Design Size Design Outlet Air Humidity Ratio, 8.50000E-003
! <Water Cooling Coil Capacity Information>,Component Type,Name,Nominal Total Capacity {W},Nominal Sensible Capacity {W},Nominal Latent Capacity {W},Nominal Sensible Heat Ratio, Nominal Coil UA Value {W/C}, Nominal Coil Surface Area {m2}
Water Cooling Coil Capacity Information,Coil:Cooling:Water,COIL COOLING WATER 3,111267.91,81764.81,29503.10,0.73,11886.42,120.56
 Component Sizing Information, Coil:Heating:Water, COIL HEATING WATER 5, Design Size Rated Capacity [W], 113807.13113
 Component Sizing Information, Coil:Heating:Water, COIL HEATING WATER 5, Design Size Maximum Water Flow Rate [m3/s], 1.69980E-003
 Component Sizing Information, Coil:Heating:Water, COIL HEATING WATER 5, Design Size U-Factor Times Area Value [W/K], 2326.98448
Water Heating Coil Capacity Information,Coil:Heating:Water,COIL HEATING WATER 5,95733.33
 Component Sizing Information, AirTerminal:SingleDuct:Uncontrolled, AIR TERMINAL SINGLE DUCT UNCONTROLLED 18, Design Size Maximum Air Flow Rate [m3/s], 5.66190
 Component Sizing Information, AirTerminal:SingleDuct:Uncontrolled, AIR TERMINAL SINGLE DUCT UNCONTROLLED 8, Design Size Maximum Air Flow Rate [m3/s], 5.71448
 Component Sizing Information, ZoneHVAC:Baseboard:Convective:Water, ZONE HVAC BASEBOARD CONVECTIVE WATER 8, Design Size Maximum Water Flow Rate [m3/s], 4.17802E-004
 Component Sizing Information, ZoneHVAC:Baseboard:Convective:Water, ZONE HVAC BASEBOARD CONVECTIVE WATER 8, Design Size U-Factor Times Area Value [W/K], 850.05447
 Component Sizing Information, AirTerminal:SingleDuct:Uncontrolled, AIR TERMINAL SINGLE DUCT UNCONTROLLED 1, Design Size Maximum Air Flow Rate [m3/s], 6.65864
 Component Sizing Information, ZoneHVAC:Baseboard:Convective:Water, ZONE HVAC BASEBOARD CONVECTIVE WATER 1, Design Size Maximum Water Flow Rate [m3/s], 1.06073E-003
 Component Sizing Information, ZoneHVAC:Baseboard:Convective:Water, ZONE HVAC BASEBOARD CONVECTIVE WATER 1, Design Size U-Factor Times Area Value [W/K], 2164.79593
 Component Sizing Information, AirTerminal:SingleDuct:Uncontrolled, AIR TERMINAL SINGLE DUCT UNCONTROLLED 2, Design Size Maximum Air Flow Rate [m3/s], 5.80788
 Component Sizing Information, ZoneHVAC:Baseboard:Convective:Water, ZONE HVAC BASEBOARD CONVECTIVE WATER 2, Design Size Maximum Water Flow Rate [m3/s], 1.04838E-003
 Component Sizing Information, ZoneHVAC:Baseboard:Convective:Water, ZONE HVAC BASEBOARD CONVECTIVE WATER 2, Design Size U-Factor Times Area Value [W/K], 2139.61318
 Component Sizing Information, AirTerminal:SingleDuct:Uncontrolled, AIR TERMINAL SINGLE DUCT UNCONTROLLED 3, Design Size Maximum Air Flow Rate [m3/s], 6.56645
 Component Sizing Information, ZoneHVAC:Baseboard:Convective:Water, ZONE HVAC BASEBOARD CONVECTIVE WATER 3, Design Size Maximum Water Flow Rate [m3/s], 9.64568E-004
 Component Sizing Information, ZoneHVAC:Baseboard:Convective:Water, ZONE HVAC BASEBOARD CONVECTIVE WATER 3, Design Size U-Factor Times Area Value [W/K], 1968.69052
 Component Sizing Information, AirTerminal:SingleDuct:Uncontrolled, AIR TERMINAL SINGLE DUCT UNCONTROLLED 4, Design Size Maximum Air Flow Rate [m3/s], 3.02499
 Component Sizing Information, ZoneHVAC:Baseboard:Convective:Water, ZONE HVAC BASEBOARD CONVECTIVE WATER 4, Design Size Maximum Water Flow Rate [m3/s], 8.17648E-005
 Component Sizing Information, ZoneHVAC:Baseboard:Convective:Water, ZONE HVAC BASEBOARD CONVECTIVE WATER 4, Design Size U-Factor Times Area Value [W/K], 165.33662
 Component Sizing Information, AirTerminal:SingleDuct:Uncontrolled, AIR TERMINAL SINGLE DUCT UNCONTROLLED 5, Design Size Maximum Air Flow Rate [m3/s], 3.45592
 Component Sizing Information, ZoneHVAC:Baseboard:Convective:Water, ZONE HVAC BASEBOARD CONVECTIVE WATER 5, Design Size Maximum Water Flow Rate [m3/s], 6.42775E-004
 Component Sizing Information, ZoneHVAC:Baseboard:Convective:Water, ZONE HVAC BASEBOARD CONVECTIVE WATER 5, Design Size U-Factor Times Area Value [W/K], 1310.86783
 Component Sizing Information, AirTerminal:SingleDuct:Uncontrolled, AIR TERMINAL SINGLE DUCT UNCONTROLLED 6, Design Size Maximum Air Flow Rate [m3/s], 5.17871
 Component Sizing Information, ZoneHVAC:Baseboard:Convective:Water, ZONE HVAC BASEBOARD CONVECTIVE WATER 6, Design Size Maximum Water Flow Rate [m3/s], 9.95193E-004
 Component Sizing Information, ZoneHVAC:Baseboard:Convective:Water, ZONE HVAC BASEBOARD CONVECTIVE WATER 6, Design Size U-Factor Times Area Value [W/K], 2031.15333
 Component Sizing Information, AirTerminal:SingleDuct:Uncontrolled, AIR TERMINAL SINGLE DUCT UNCONTROLLED 7, Design Size Maximum Air Flow Rate [m3/s], 3.90184
 Component Sizing Information, ZoneHVAC:Baseboard:Convective:Water, ZONE HVAC BASEBOARD CONVECTIVE WATER 7, Design Size Maximum Water Flow Rate [m3/s], 6.07653E-004
 Component Sizing Information, ZoneHVAC:Baseboard:Convective:Water, ZONE HVAC BASEBOARD CONVECTIVE WATER 7, Design Size U-Factor Times Area Value [W/K], 1239.10578
 Component Sizing Information, AirLoopHVAC, SYS_2_MAKE-UP AIR UNIT, Sum of Air Terminal Maximum Heating Flow Rates [m3/s], 5.66190
 Component Sizing Information, AirLoopHVAC, SYS_2_MAKE-UP AIR UNIT, Sum of Air Terminal Minimum Heating Flow Rates [m3/s], 5.66190
 Component Sizing Information, AirLoopHVAC, SYS_2_MAKE-UP AIR UNIT, Sum of Air Terminal Maximum Flow Rates [m3/s], 5.66190
 Component Sizing Information, AirLoopHVAC, SYS_2_MAKE-UP AIR UNIT, Adjusted Heating Design Air Flow Rate [m3/s], 5.66190
 Component Sizing Information, AirLoopHVAC, SYS_2_MAKE-UP AIR UNIT, Adjusted Cooling Design Air Flow Rate [m3/s], 5.66190
 Component Sizing Information, AirLoopHVAC, SYS_2_MAKE-UP AIR UNIT, Adjusted Main Design Air Flow Rate [m3/s], 5.66190
 Component Sizing Information, AirLoopHVAC, SYS_2_MAKE-UP AIR UNIT, User Heating Air Flow Ratio [], 1.00000
 Component Sizing Information, AirLoopHVAC, SYS_2_MAKE-UP AIR UNIT, Calculated Heating Air Flow Ratio [], 1.00000
 Component Sizing Information, AirLoopHVAC, SYS_3_PSZ ALL_ST=WHOLEBUILDING_FL=STORY 1_SCH=A, Sum of Air Terminal Maximum Heating Flow Rates [m3/s], 3.07391
 Component Sizing Information, AirLoopHVAC, SYS_3_PSZ ALL_ST=WHOLEBUILDING_FL=STORY 1_SCH=A, Sum of Air Terminal Minimum Heating Flow Rates [m3/s], 3.07391
 Component Sizing Information, AirLoopHVAC, SYS_3_PSZ ALL_ST=WHOLEBUILDING_FL=STORY 1_SCH=A, Sum of Air Terminal Maximum Flow Rates [m3/s], 3.07391
 Component Sizing Information, AirLoopHVAC, SYS_3_PSZ ALL_ST=WHOLEBUILDING_FL=STORY 1_SCH=A, Adjusted Heating Design Air Flow Rate [m3/s], 3.07391
 Component Sizing Information, AirLoopHVAC, SYS_3_PSZ ALL_ST=WHOLEBUILDING_FL=STORY 1_SCH=A, Adjusted Cooling Design Air Flow Rate [m3/s], 3.07391
 Component Sizing Information, AirLoopHVAC, SYS_3_PSZ ALL_ST=WHOLEBUILDING_FL=STORY 1_SCH=A, Adjusted Main Design Air Flow Rate [m3/s], 3.07391
 Component Sizing Information, AirLoopHVAC, SYS_3_PSZ ALL_ST=WHOLEBUILDING_FL=STORY 1_SCH=A, User Heating Air Flow Ratio [], 1.00000
 Component Sizing Information, AirLoopHVAC, SYS_3_PSZ ALL_ST=WHOLEBUILDING_FL=STORY 1_SCH=A, Calculated Heating Air Flow Ratio [], 1.00000
 Component Sizing Information, AirLoopHVAC, SYS_3_PSZ ALL_ST=WHOLEBUILDING_FL=STORY 1_SCH=D, Sum of Air Terminal Maximum Heating Flow Rates [m3/s], 2.47155
 Component Sizing Information, AirLoopHVAC, SYS_3_PSZ ALL_ST=WHOLEBUILDING_FL=STORY 1_SCH=D, Sum of Air Terminal Minimum Heating Flow Rates [m3/s], 2.47155
 Component Sizing Information, AirLoopHVAC, SYS_3_PSZ ALL_ST=WHOLEBUILDING_FL=STORY 1_SCH=D, Sum of Air Terminal Maximum Flow Rates [m3/s], 2.47155
 Component Sizing Information, AirLoopHVAC, SYS_3_PSZ ALL_ST=WHOLEBUILDING_FL=STORY 1_SCH=D, Adjusted Heating Design Air Flow Rate [m3/s], 2.47155
 Component Sizing Information, AirLoopHVAC, SYS_3_PSZ ALL_ST=WHOLEBUILDING_FL=STORY 1_SCH=D, Adjusted Cooling Design Air Flow Rate [m3/s], 2.47155
 Component Sizing Information, AirLoopHVAC, SYS_3_PSZ ALL_ST=WHOLEBUILDING_FL=STORY 1_SCH=D, Adjusted Main Design Air Flow Rate [m3/s], 2.47155
 Component Sizing Information, AirLoopHVAC, SYS_3_PSZ ALL_ST=WHOLEBUILDING_FL=STORY 1_SCH=D, User Heating Air Flow Ratio [], 1.00000
 Component Sizing Information, AirLoopHVAC, SYS_3_PSZ ALL_ST=WHOLEBUILDING_FL=STORY 1_SCH=D, Calculated Heating Air Flow Ratio [], 1.00000
 Component Sizing Information, AirLoopHVAC, SYS_3_PSZ ALL_ST=WORKSHOP SPACE_FL=STORY 3_SCH=A, Sum of Air Terminal Maximum Heating Flow Rates [m3/s], 5.71448
 Component Sizing Information, AirLoopHVAC, SYS_3_PSZ ALL_ST=WORKSHOP SPACE_FL=STORY 3_SCH=A, Sum of Air Terminal Minimum Heating Flow Rates [m3/s], 5.71448
 Component Sizing Information, AirLoopHVAC, SYS_3_PSZ ALL_ST=WORKSHOP SPACE_FL=STORY 3_SCH=A, Sum of Air Terminal Maximum Flow Rates [m3/s], 5.71448
 Component Sizing Information, AirLoopHVAC, SYS_3_PSZ ALL_ST=WORKSHOP SPACE_FL=STORY 3_SCH=A, Adjusted Heating Design Air Flow Rate [m3/s], 5.71448
 Component Sizing Information, AirLoopHVAC, SYS_3_PSZ ALL_ST=WORKSHOP SPACE_FL=STORY 3_SCH=A, Adjusted Cooling Design Air Flow Rate [m3/s], 5.71448
 Component Sizing Information, AirLoopHVAC, SYS_3_PSZ ALL_ST=WORKSHOP SPACE_FL=STORY 3_SCH=A, Adjusted Main Design Air Flow Rate [m3/s], 5.71448
 Component Sizing Information, AirLoopHVAC, SYS_3_PSZ ALL_ST=WORKSHOP SPACE_FL=STORY 3_SCH=A, User Heating Air Flow Ratio [], 1.00000
 Component Sizing Information, AirLoopHVAC, SYS_3_PSZ ALL_ST=WORKSHOP SPACE_FL=STORY 3_SCH=A, Calculated Heating Air Flow Ratio [], 1.00000
 Component Sizing Information, AirLoopHVAC, SYS_4_PSZ_ALL_ST=WHOLEBUILDING_FL=STORY 1_SCH=E, Sum of Air Terminal Maximum Heating Flow Rates [m3/s], 2.87020
 Component Sizing Information, AirLoopHVAC, SYS_4_PSZ_ALL_ST=WHOLEBUILDING_FL=STORY 1_SCH=E, Sum of Air Terminal Minimum Heating Flow Rates [m3/s], 2.87020
 Component Sizing Information, AirLoopHVAC, SYS_4_PSZ_ALL_ST=WHOLEBUILDING_FL=STORY 1_SCH=E, Sum of Air Terminal Maximum Flow Rates [m3/s], 2.87020
 Component Sizing Information, AirLoopHVAC, SYS_4_PSZ_ALL_ST=WHOLEBUILDING_FL=STORY 1_SCH=E, Adjusted Heating Design Air Flow Rate [m3/s], 2.87020
 Component Sizing Information, AirLoopHVAC, SYS_4_PSZ_ALL_ST=WHOLEBUILDING_FL=STORY 1_SCH=E, Adjusted Cooling Design Air Flow Rate [m3/s], 2.87020
 Component Sizing Information, AirLoopHVAC, SYS_4_PSZ_ALL_ST=WHOLEBUILDING_FL=STORY 1_SCH=E, Adjusted Main Design Air Flow Rate [m3/s], 2.87020
 Component Sizing Information, AirLoopHVAC, SYS_4_PSZ_ALL_ST=WHOLEBUILDING_FL=STORY 1_SCH=E, User Heating Air Flow Ratio [], 1.00000
 Component Sizing Information, AirLoopHVAC, SYS_4_PSZ_ALL_ST=WHOLEBUILDING_FL=STORY 1_SCH=E, Calculated Heating Air Flow Ratio [], 1.00000
 Component Sizing Information, AirLoopHVAC, SYS_4_PSZ_ALL_ST=WHOLEBUILDING_FL=STORY 1_SCH=E 1, Sum of Air Terminal Maximum Heating Flow Rates [m3/s], 2.16232
 Component Sizing Information, AirLoopHVAC, SYS_4_PSZ_ALL_ST=WHOLEBUILDING_FL=STORY 1_SCH=E 1, Sum of Air Terminal Minimum Heating Flow Rates [m3/s], 2.16232
 Component Sizing Information, AirLoopHVAC, SYS_4_PSZ_ALL_ST=WHOLEBUILDING_FL=STORY 1_SCH=E 1, Sum of Air Terminal Maximum Flow Rates [m3/s], 2.16232
 Component Sizing Information, AirLoopHVAC, SYS_4_PSZ_ALL_ST=WHOLEBUILDING_FL=STORY 1_SCH=E 1, Adjusted Heating Design Air Flow Rate [m3/s], 2.16232
 Component Sizing Information, AirLoopHVAC, SYS_4_PSZ_ALL_ST=WHOLEBUILDING_FL=STORY 1_SCH=E 1, Adjusted Cooling Design Air Flow Rate [m3/s], 2.16232
 Component Sizing Information, AirLoopHVAC, SYS_4_PSZ_ALL_ST=WHOLEBUILDING_FL=STORY 1_SCH=E 1, Adjusted Main Design Air Flow Rate [m3/s], 2.16232
 Component Sizing Information, AirLoopHVAC, SYS_4_PSZ_ALL_ST=WHOLEBUILDING_FL=STORY 1_SCH=E 1, User Heating Air Flow Ratio [], 1.00000
 Component Sizing Information, AirLoopHVAC, SYS_4_PSZ_ALL_ST=WHOLEBUILDING_FL=STORY 1_SCH=E 1, Calculated Heating Air Flow Ratio [], 1.00000
 Component Sizing Information, AirLoopHVAC, SYS_4_PSZ_ALL_ST=WHOLEBUILDING_FL=STORY 2_SCH=A, Sum of Air Terminal Maximum Heating Flow Rates [m3/s], 2.48781
 Component Sizing Information, AirLoopHVAC, SYS_4_PSZ_ALL_ST=WHOLEBUILDING_FL=STORY 2_SCH=A, Sum of Air Terminal Minimum Heating Flow Rates [m3/s], 2.48781
 Component Sizing Information, AirLoopHVAC, SYS_4_PSZ_ALL_ST=WHOLEBUILDING_FL=STORY 2_SCH=A, Sum of Air Terminal Maximum Flow Rates [m3/s], 2.48781
[...]
 Component Sizing Information, Controller:OutdoorAir, CONTROLLER OUTDOOR AIR 1, Maximum Outdoor Air Flow Rate [m3/s], 34.59443
 Component Sizing Information, Controller:OutdoorAir, CONTROLLER OUTDOOR AIR 1, Minimum Outdoor Air Flow Rate [m3/s], 4.19100
 Component Sizing Information, HeatExchanger:AirToAir:SensibleAndLatent, SYS_4_PSZ_WET_ST=WASHROOM-SCH-C_FL=STORY 4_SCHE ERV, Design Size Nominal Supply Air Flow Rate [m3/s], 4.19100
 Component Sizing Information, Coil:Cooling:DX:SingleSpeed, COIL COOLING DX SINGLE SPEED 1 1954KBTU/HR 7.94EER, Design Size Rated Air Flow Rate [m3/s], 34.59443
 Component Sizing Information, Coil:Cooling:DX:SingleSpeed, COIL COOLING DX SINGLE SPEED 1 1954KBTU/HR 7.94EER, Design Size Gross Rated Total Cooling Capacity [W], 572660.60829
 Component Sizing Information, Coil:Cooling:DX:SingleSpeed, COIL COOLING DX SINGLE SPEED 1 1954KBTU/HR 7.94EER, Design Size Gross Rated Sensible Heat Ratio, 0.80066
 DX Cooling Coil Standard Rating Information, Coil:Cooling:DX:SingleSpeed, COIL COOLING DX SINGLE SPEED 1 1954KBTU/HR 7.94EER, 545769.7, 3.14, 10.73, 11.31, 10.55
 Component Sizing Information, Coil:Heating:Fuel, COIL HEATING GAS 1, Design Size Nominal Capacity [W], 1130685.96083
 Component Sizing Information, Fan:ConstantVolume, FAN CONSTANT VOLUME 1, Design Size Maximum Flow Rate [m3/s], 34.59443
 Component Sizing Information, Fan:VariableVolume, SYS6 RETURN FAN, Design Size Maximum Flow Rate [m3/s], 1.80093
 Component Sizing Information, Controller:OutdoorAir, CONTROLLER OUTDOOR AIR 5, Maximum Outdoor Air Flow Rate [m3/s], 1.80093
 Component Sizing Information, Controller:OutdoorAir, CONTROLLER OUTDOOR AIR 5, Minimum Outdoor Air Flow Rate [m3/s], 1.00965
 Component Sizing Information, Coil:Cooling:Water, COIL COOLING WATER 1, Design Size Design Coil Load [W], 34525.99082
 Component Sizing Information, Coil:Cooling:Water, COIL COOLING WATER 1, Design Size Design Water Flow Rate [m3/s], 1.37087E-003
 Component Sizing Information, Coil:Cooling:Water, COIL COOLING WATER 1, Design Size Design Air Flow Rate [m3/s], 1.80093
 Component Sizing Information, Coil:Cooling:Water, COIL COOLING WATER 1, Design Size Design Inlet Air Temperature [C], 25.54134
 Component Sizing Information, Coil:Cooling:Water, COIL COOLING WATER 1, Design Size Design Inlet Water Temperature [C], 7.00000
 Component Sizing Information, Coil:Cooling:Water, COIL COOLING WATER 1, Design Size Design Outlet Air Temperature [C], 13.00000
 Component Sizing Information, Coil:Cooling:Water, COIL COOLING WATER 1, Design Size Design Inlet Air Humidity Ratio, 9.26061E-003
 Component Sizing Information, Coil:Cooling:Water, COIL COOLING WATER 1, Design Size Design Outlet Air Humidity Ratio, 8.76847E-003
Water Cooling Coil Capacity Information,Coil:Cooling:Water,COIL COOLING WATER 1,42583.51,29386.74,13196.76,0.69,4669.93,47.36
 Component Sizing Information, Coil:Heating:Water, COIL HEATING WATER 1, Design Size Rated Capacity [W], 30847.80149
 Component Sizing Information, Coil:Heating:Water, COIL HEATING WATER 1, Design Size Maximum Water Flow Rate [m3/s], 4.60737E-004
 Component Sizing Information, Coil:Heating:Water, COIL HEATING WATER 1, Design Size U-Factor Times Area Value [W/K], 376.43363
Water Heating Coil Capacity Information,Coil:Heating:Water,COIL HEATING WATER 1,17187.00
 Component Sizing Information, Fan:VariableVolume, SYS6 SUPPLY FAN, Design Size Maximum Flow Rate [m3/s], 1.80093
 Component Sizing Information, Controller:WaterCoil, CONTROLLER WATER COIL 2, Maximum Actuated Flow [m3/s], 1.37087E-003
 Component Sizing Information, Controller:WaterCoil, CONTROLLER WATER COIL 2, Controller Convergence Tolerance, 3.47363E-004
 Component Sizing Information, Controller:WaterCoil, CONTROLLER WATER COIL 1, Maximum Actuated Flow [m3/s], 4.60737E-004
 Component Sizing Information, Fan:VariableVolume, SYS6 RETURN FAN 1, Design Size Maximum Flow Rate [m3/s], 3.02221
 Component Sizing Information, Controller:OutdoorAir, CONTROLLER OUTDOOR AIR 6, Maximum Outdoor Air Flow Rate [m3/s], 3.02221
 Component Sizing Information, Controller:OutdoorAir, CONTROLLER OUTDOOR AIR 6, Minimum Outdoor Air Flow Rate [m3/s], 1.23825
 Component Sizing Information, Coil:Cooling:Water, COIL COOLING WATER 2, Design Size Design Coil Load [W], 50446.75527
 Component Sizing Information, Coil:Cooling:Water, COIL COOLING WATER 2, Design Size Design Water Flow Rate [m3/s], 2.00301E-003
 Component Sizing Information, Coil:Cooling:Water, COIL COOLING WATER 2, Design Size Design Air Flow Rate [m3/s], 3.02221
 Component Sizing Information, Coil:Cooling:Water, COIL COOLING WATER 2, Design Size Design Inlet Air Temperature [C], 23.39065
 Component Sizing Information, Coil:Cooling:Water, COIL COOLING WATER 2, Design Size Design Inlet Water Temperature [C], 7.00000
 Component Sizing Information, Coil:Cooling:Water, COIL COOLING WATER 2, Design Size Design Outlet Air Temperature [C], 13.00000
 Component Sizing Information, Coil:Cooling:Water, COIL COOLING WATER 2, Design Size Design Inlet Air Humidity Ratio, 9.23623E-003
 Component Sizing Information, Coil:Cooling:Water, COIL COOLING WATER 2, Design Size Design Outlet Air Humidity Ratio, 8.76847E-003
Water Cooling Coil Capacity Information,Coil:Cooling:Water,COIL COOLING WATER 2,67709.92,47733.82,19976.10,0.70,7646.49,77.55
 Component Sizing Information, Coil:Heating:Water, COIL HEATING WATER 3, Design Size Rated Capacity [W], 51766.76735
 Component Sizing Information, Coil:Heating:Water, COIL HEATING WATER 3, Design Size Maximum Water Flow Rate [m3/s], 7.73179E-004
 Component Sizing Information, Coil:Heating:Water, COIL HEATING WATER 3, Design Size U-Factor Times Area Value [W/K], 631.70635
Water Heating Coil Capacity Information,Coil:Heating:Water,COIL HEATING WATER 3,28842.10
 Component Sizing Information, Fan:VariableVolume, SYS6 SUPPLY FAN 1, Design Size Maximum Flow Rate [m3/s], 3.02221
 Component Sizing Information, Controller:WaterCoil, CONTROLLER WATER COIL 5, Maximum Actuated Flow [m3/s], 2.00301E-003
 Component Sizing Information, Controller:WaterCoil, CONTROLLER WATER COIL 5, Controller Convergence Tolerance, 2.37737E-004
 Component Sizing Information, Controller:WaterCoil, CONTROLLER WATER COIL 4, Maximum Actuated Flow [m3/s], 7.73179E-004
Water Heater Information,WaterHeater:Mixed,333GAL NATURALGAS WATER HEATER - 225KBTU/HR 0.808 THERM EFF,1.2614,65908.2,0.460,0.3932
 Component Sizing Information, PlantLoop, CHILLED WATER LOOP, Maximum Loop Flow Rate [m3/s], 3.37388E-003
 Component Sizing Information, PlantLoop, CHILLED WATER LOOP, Plant Loop Volume [m3], 0.40487
 Component Sizing Information, Pump:ConstantSpeed, PUMP CONSTANT SPEED 1, Design Flow Rate [m3/s], 3.37388E-003
 Component Sizing Information, Pump:ConstantSpeed, PUMP CONSTANT SPEED 1, Design Power Consumption [W], 896.86233
 Component Sizing Information, Chiller:Electric:EIR, PRIMARY CHILLER WATERCOOLED SCROLL 25TONS 0.8KW/TON, Design Size Reference Chilled Water Flow Rate [m3/s], 3.37388E-003
 Component Sizing Information, Chiller:Electric:EIR, PRIMARY CHILLER WATERCOOLED SCROLL 25TONS 0.8KW/TON, Design Size Reference Capacity [W], 84971.32920
 Component Sizing Information, Chiller:Electric:EIR, PRIMARY CHILLER WATERCOOLED SCROLL 25TONS 0.8KW/TON, User-Specified Reference Capacity [W], 86509.33937
 Component Sizing Information, Chiller:Electric:EIR, PRIMARY CHILLER WATERCOOLED SCROLL 25TONS 0.8KW/TON, Design Size Reference Condenser Fluid Flow Rate [m3/s], 4.21586E-003
! <Chiller Standard Rating Information>, Component Type, Component Name, IPLV in SI Units {W/W}, IPLV in IP Units {Btu/W-h}
 Chiller Standard Rating Information, Chiller:Electric:EIR, PRIMARY CHILLER WATERCOOLED SCROLL 25TONS 0.8KW/TON, 5.61, 19.14
 Component Sizing Information, Chiller:Electric:EIR, SECONDARY CHILLER WATERCOOLED SCROLL 0TONS 0.8KW/TON, Design Size Reference Chilled Water Flow Rate [m3/s], 3.37388E-003
 Component Sizing Information, Chiller:Electric:EIR, SECONDARY CHILLER WATERCOOLED SCROLL 0TONS 0.8KW/TON, Design Size Reference Capacity [W], 84971.32920
 Component Sizing Information, Chiller:Electric:EIR, SECONDARY CHILLER WATERCOOLED SCROLL 0TONS 0.8KW/TON, User-Specified Reference Capacity [W], 1.00000E-003
 Component Sizing Information, Chiller:Electric:EIR, SECONDARY CHILLER WATERCOOLED SCROLL 0TONS 0.8KW/TON, Design Size Reference Condenser Fluid Flow Rate [m3/s], 4.87330E-011
 Chiller Standard Rating Information, Chiller:Electric:EIR, SECONDARY CHILLER WATERCOOLED SCROLL 0TONS 0.8KW/TON, 5.61, 19.14
 Component Sizing Information, PlantLoop, CHILLED WATER LOOP 1, Maximum Loop Flow Rate [m3/s], 3.08997E-003
 Component Sizing Information, PlantLoop, CHILLED WATER LOOP 1, Plant Loop Volume [m3], 0.37080
 Component Sizing Information, Pump:ConstantSpeed, PUMP CONSTANT SPEED 3, Design Flow Rate [m3/s], 3.08997E-003
 Component Sizing Information, Pump:ConstantSpeed, PUMP CONSTANT SPEED 3, Design Power Consumption [W], 830.99730
 Component Sizing Information, Chiller:Electric:EIR, PRIMARY CHILLER WATERCOOLED SCROLL 1 22TONS 0.8KW/TON, Design Size Reference Chilled Water Flow Rate [m3/s], 3.08997E-003
 Component Sizing Information, Chiller:Electric:EIR, PRIMARY CHILLER WATERCOOLED SCROLL 1 22TONS 0.8KW/TON, Design Size Reference Capacity [W], 77820.89980
 Component Sizing Information, Chiller:Electric:EIR, PRIMARY CHILLER WATERCOOLED SCROLL 1 22TONS 0.8KW/TON, User-Specified Reference Capacity [W], 77820.89980
 Component Sizing Information, Chiller:Electric:EIR, PRIMARY CHILLER WATERCOOLED SCROLL 1 22TONS 0.8KW/TON, Design Size Reference Condenser Fluid Flow Rate [m3/s], 3.79245E-003
 Chiller Standard Rating Information, Chiller:Electric:EIR, PRIMARY CHILLER WATERCOOLED SCROLL 1 22TONS 0.8KW/TON, 5.61, 19.14
 Component Sizing Information, Chiller:Electric:EIR, SECONDARY CHILLER WATERCOOLED SCROLL 1 0TONS 0.8KW/TON, Design Size Reference Chilled Water Flow Rate [m3/s], 3.08997E-003
 Component Sizing Information, Chiller:Electric:EIR, SECONDARY CHILLER WATERCOOLED SCROLL 1 0TONS 0.8KW/TON, Design Size Reference Capacity [W], 77820.89980
 Component Sizing Information, Chiller:Electric:EIR, SECONDARY CHILLER WATERCOOLED SCROLL 1 0TONS 0.8KW/TON, User-Specified Reference Capacity [W], 1.00000E-003
 Component Sizing Information, Chiller:Electric:EIR, SECONDARY CHILLER WATERCOOLED SCROLL 1 0TONS 0.8KW/TON, Design Size Reference Condenser Fluid Flow Rate [m3/s], 4.87330E-011
 Chiller Standard Rating Information, Chiller:Electric:EIR, SECONDARY CHILLER WATERCOOLED SCROLL 1 0TONS 0.8KW/TON, 5.61, 19.14
 Component Sizing Information, PlantLoop, CONDENSER WATER LOOP, Maximum Loop Flow Rate [m3/s], 4.21586E-003
 Component Sizing Information, PlantLoop, CONDENSER WATER LOOP, Plant Loop Volume [m3], 0.50590
 Component Sizing Information, Pump:ConstantSpeed, PUMP CONSTANT SPEED 2, Design Flow Rate [m3/s], 4.21586E-003
 Component Sizing Information, Pump:ConstantSpeed, PUMP CONSTANT SPEED 2, Design Power Consumption [W], 1083.11574
 Component Sizing Information, CoolingTower:SingleSpeed, COOLING TOWER SINGLE SPEED 1, Design Water Flow Rate [m3/s], 4.21586E-003
 Component Sizing Information, CoolingTower:SingleSpeed, COOLING TOWER SINGLE SPEED 1, Fan Power at Design Air Flow Rate [W], 925.03206
 Component Sizing Information, CoolingTower:SingleSpeed, COOLING TOWER SINGLE SPEED 1, Design Air Flow Rate [m3/s], 2.54365
 Component Sizing Information, CoolingTower:SingleSpeed, COOLING TOWER SINGLE SPEED 1, U-Factor Times Area Value at Design Air Flow Rate [W/C], 4542.28495
 Component Sizing Information, CoolingTower:SingleSpeed, COOLING TOWER SINGLE SPEED 1, Free Convection Regime Air Flow Rate [m3/s], 0.25437
 Component Sizing Information, CoolingTower:SingleSpeed, COOLING TOWER SINGLE SPEED 1, Free Convection U-Factor Times Area Value [W/K], 454.22849
 Component Sizing Information, PlantLoop, CONDENSER WATER LOOP 1, Maximum Loop Flow Rate [m3/s], 3.79245E-003
 Component Sizing Information, PlantLoop, CONDENSER WATER LOOP 1, Plant Loop Volume [m3], 0.45509
 Component Sizing Information, Pump:ConstantSpeed, PUMP CONSTANT SPEED 4, Design Flow Rate [m3/s], 3.79245E-003
 Component Sizing Information, Pump:ConstantSpeed, PUMP CONSTANT SPEED 4, Design Power Consumption [W], 974.33458
 Component Sizing Information, CoolingTower:SingleSpeed, COOLING TOWER SINGLE SPEED 2, Design Water Flow Rate [m3/s], 3.79245E-003
 Component Sizing Information, CoolingTower:SingleSpeed, COOLING TOWER SINGLE SPEED 2, Design Air Flow Rate [m3/s], 3.92268
 Component Sizing Information, CoolingTower:SingleSpeed, COOLING TOWER SINGLE SPEED 2, U-Factor Times Area Value at Design Air Flow Rate [W/C], 3318.30208
 Component Sizing Information, CoolingTower:SingleSpeed, COOLING TOWER SINGLE SPEED 2, Free Convection Regime Air Flow Rate [m3/s], 0.39227
 Component Sizing Information, CoolingTower:SingleSpeed, COOLING TOWER SINGLE SPEED 2, Free Convection U-Factor Times Area Value [W/K], 331.83021
 Component Sizing Information, PlantLoop, HOT WATER LOOP, Maximum Loop Flow Rate [m3/s], 1.11190E-002
 Component Sizing Information, PlantLoop, HOT WATER LOOP, Plant Loop Volume [m3], 1.33429
 Component Sizing Information, Pump:VariableSpeed, PUMP VARIABLE SPEED 1, Design Flow Rate [m3/s], 1.11190E-002
 Component Sizing Information, Pump:VariableSpeed, PUMP VARIABLE SPEED 1, Design Power Consumption [W], 2856.64469
 Component Sizing Information, Boiler:HotWater, PRIMARY BOILER 2550KBTU/HR 0.833 COMBUSTION EFF, Design Size Nominal Capacity [W], 747337.33548
 Component Sizing Information, Boiler:HotWater, PRIMARY BOILER 2550KBTU/HR 0.833 COMBUSTION EFF, User-Specified Nominal Capacity [W], 747337.33548
 Component Sizing Information, Boiler:HotWater, PRIMARY BOILER 2550KBTU/HR 0.833 COMBUSTION EFF, Design Size Design Water Flow Rate [m3/s], 1.11190E-002
 Component Sizing Information, Boiler:HotWater, SECONDARY BOILER 0KBTU/HR 0.85 AFUE, Design Size Nominal Capacity [W], 747337.33548
 Component Sizing Information, Boiler:HotWater, SECONDARY BOILER 0KBTU/HR 0.85 AFUE, User-Specified Nominal Capacity [W], 1.00000E-003
 Component Sizing Information, Boiler:HotWater, SECONDARY BOILER 0KBTU/HR 0.85 AFUE, Design Size Design Water Flow Rate [m3/s], 1.11190E-002
 Component Sizing Information, PlantLoop, MAIN SERVICE WATER LOOP, Maximum Loop Flow Rate [m3/s], 2.96337E-004
 Component Sizing Information, PlantLoop, MAIN SERVICE WATER LOOP, Plant Loop Volume [m3], 3.55605E-002
 Component Sizing Information, Pump:ConstantSpeed, SERVICE WATER LOOP PUMP, Design Flow Rate [m3/s], 2.96337E-004
 Component Sizing Information, Pump:ConstantSpeed, SERVICE WATER LOOP PUMP, Design Power Consumption [W], 0.48152
 Component Sizing Information, WaterHeater:Mixed, 333GAL NATURALGAS WATER HEATER - 225KBTU/HR 0.808 THERM EFF, Use Side Design Flow Rate [m3/s], 2.96337E-004
! <Environment>,Environment Name,Environment Type, Start Date, End Date, Start DayOfWeek, Duration {#days}, Source:Start DayOfWeek,  Use Daylight Saving, Use Holidays, Apply Weekend Holiday Rule,  Use Rain Values, Use Snow Values
! <Environment:Special Days>, Special Day Name, Special Day Type, Source, Start Date, Duration {#days}
! <Environment:Daylight Saving>, Daylight Saving Indicator, Source, Start Date, End Date
! <Environment:WarmupDays>, NumberofWarmupDays
Environment,RUN PERIOD 1,WeatherFileRunPeriod,01/01,12/31,Sunday,365,Use RunPeriod Specified Day,No,No,No,Yes,Yes
Environment:Daylight Saving,No,RunPeriod Object
Environment:WarmupDays, 17
! <Tabular Report>,Style,Unit Conversion
Tabular Report,HTML,None
! <Warmup Convergence Information>,Zone Name,Environment Type/Name,Average Warmup Temperature Difference {deltaC},Std Dev Warmup Temperature Difference {deltaC},Max Temperature Pass/Fail Convergence,Min Temperature Pass/Fail Convergence,Average Warmup Load Difference {W},Std Dev Warmup Load Difference {W},Heating Load Pass/Fail Convergence,Cooling Load Pass/Fail Convergence
 Warmup Convergence Information,ALL_ST=WHOLEBUILDING_FL=STORY 1_SCH=A,RunPeriod: RUN PERIOD 1,1.0117554155E-003,8.6363701321E-004,Pass,Pass,0.0000000000,0.0000000000,Pass,Pass
 Warmup Convergence Information,ALL_ST=WHOLEBUILDING_FL=STORY 1_SCH=D,RunPeriod: RUN PERIOD 1,1.2718320580E-003,1.3902511808E-003,Pass,Pass,0.0000000000,0.0000000000,Pass,Pass
 Warmup Convergence Information,ALL_ST=WHOLEBUILDING_FL=STORY 1_SCH=E,RunPeriod: RUN PERIOD 1,2.5128850291E-004,1.5260999480E-004,Pass,Pass,0.0000000000,0.0000000000,Pass,Pass
 Warmup Convergence Information,ALL_ST=WHOLEBUILDING_FL=STORY 1_SCH=E 1,RunPeriod: RUN PERIOD 1,6.4345980671E-003,4.5920843332E-003,Pass,Pass,0.0000000000,0.0000000000,Pass,Pass
 Warmup Convergence Information,ALL_ST=WHOLEBUILDING_FL=STORY 1_SCH=H,RunPeriod: RUN PERIOD 1,4.3749703321E-003,1.8870883779E-002,Pass,Pass,1.1157334355E-002,5.6242801642E-002,Pass,Pass
 Warmup Convergence Information,ALL_ST=WHOLEBUILDING_FL=STORY 2_SCH=A,RunPeriod: RUN PERIOD 1,3.3306143247E-002,4.3527149543E-002,Pass,Pass,0.0000000000,0.0000000000,Pass,Pass
 Warmup Convergence Information,ALL_ST=WHOLEBUILDING_FL=STORY 2_SCH=E,RunPeriod: RUN PERIOD 1,1.1336585057E-002,2.0035381307E-002,Pass,Pass,8.1504852355E-002,0.2735088509,Pass,Pass
 Warmup Convergence Information,ALL_ST=WHOLEBUILDING_FL=STORY 2_SCH=E 1,RunPeriod: RUN PERIOD 1,8.5200943041E-003,1.2671410536E-002,Pass,Pass,4.8412320367E-002,0.2901138932,Pass,Pass
 Warmup Convergence Information,ALL_ST=WHOLEBUILDING_FL=STORY 2_SCH=E 2,RunPeriod: RUN PERIOD 1,7.2650593263E-003,6.5094465623E-003,Pass,Pass,0.0000000000,0.0000000000,Pass,Pass
 Warmup Convergence Information,ALL_ST=WHOLEBUILDING_FL=STORY 2_SCH=E 3,RunPeriod: RUN PERIOD 1,9.1665883690E-004,7.3100701610E-004,Pass,Pass,0.0000000000,0.0000000000,Pass,Pass
 Warmup Convergence Information,ALL_ST=WHOLEBUILDING_FL=STORY 3_SCH=B,RunPeriod: RUN PERIOD 1,6.8477121564E-002,0.2021161030,Pass,Pass,0.3841653334,1.7952099423,Pass,Pass
 Warmup Convergence Information,ALL_ST=WHOLEBUILDING_FL=STORY 4_SCH=A,RunPeriod: RUN PERIOD 1,6.3085415249E-005,5.4718343387E-005,Pass,Pass,3.5695284954E-002,3.6625645614E-002,Pass,Pass
 Warmup Convergence Information,ALL_ST=WORKSHOP SPACE_FL=STORY 3_SCH=A,RunPeriod: RUN PERIOD 1,7.3601049138E-003,1.6779296295E-002,Pass,Pass,9.0946729944E-002,0.2819619226,Pass,Pass
 Warmup Convergence Information,WET_ST=WASHROOM-SCH-C_FL=STORY 4_SCHE,RunPeriod: RUN PERIOD 1,4.2719969788E-002,0.1031256766,Pass,Pass,4.8667313135E-002,0.1699146525,Pass,Pass
 Warmup Convergence Information,WET_ST=WASHROOM-SCH-D_FL=STORY 4_SCHE,RunPeriod: RUN PERIOD 1,2.2561944684E-004,1.9654450701E-004,Pass,Pass,2.7982837921E-002,4.1382768867E-002,Pass,Pass
 Warmup Convergence Information,WET_ST=WASHROOM-SCH-E_FL=STORY 4_SCHE,RunPeriod: RUN PERIOD 1,2.6260045873E-004,1.9870672592E-004,Pass,Pass,3.5910844859E-002,4.7537491031E-002,Pass,Pass
 Warmup Convergence Information,WET_ST=WASHROOM-SCH-F_FL=STORY 3_SCHE,RunPeriod: RUN PERIOD 1,3.0084881016E-003,2.3590399497E-003,Pass,Pass,0.0000000000,0.0000000000,Pass,Pass
 Warmup Convergence Information,WET_ST=WASHROOM-SCH-G_FL=STORY 3_SCHE,RunPeriod: RUN PERIOD 1,3.9096745022E-002,4.3131590661E-002,Pass,Pass,0.0000000000,0.0000000000,Pass,Pass
 Warmup Convergence Information,WET_ST=WASHROOM-SCH-H_FL=STORY 4_SCHE,RunPeriod: RUN PERIOD 1,1.9542495365E-004,1.8151614701E-004,Pass,Pass,3.7990650411E-002,3.9578063635E-002,Pass,Pass
 Warmup Convergence Information,WET_ST=WASHROOM-SCH-I_FL=STORY 3_SCHE,RunPeriod: RUN PERIOD 1,7.1637400527E-005,5.9532186492E-005,Pass,Pass,2.1188817953E-002,2.7353886642E-002,Pass,Pass
! <Program Control Information:Threads/Parallel Sims>, Threading Supported,Maximum Number of Threads, Env Set Threads (OMP_NUM_THREADS), EP Env Set Threads (EP_OMP_NUM_THREADS), IDF Set Threads, Number of Threads Used (Interior Radiant Exchange), Number Nominal Surfaces, Number Parallel Sims
Program Control:Threads/Parallel Sims, No,1, N/A, N/A, N/A, N/A, N/A, N/A
End of Data
