Program Version,EnergyPlus, Version 8.9.0-eba93e8e1b, YMD=2019.03.28 13:52
! <Version>, Version ID
 Version, 8.9
! <Timesteps per Hour>, #TimeSteps, Minutes per TimeStep {minutes}
 Timesteps per Hour,  6, 10
! <System Convergence Limits>, Minimum System TimeStep {minutes}, Max HVAC Iterations, Minimum Plant Iterations, Maximum Plant Iterations
 System Convergence Limits, 1, 20, 2, 8
! <Simulation Control>, Do Zone Sizing, Do System Sizing, Do Plant Sizing, Do Design Days, Do Weather Simulation, Do HVAC Sizing Simulation
 Simulation Control, Yes, Yes, Yes, Yes, No, No
! <Output Reporting Tolerances>, Tolerance for Time Heating Setpoint Not Met, Tolerance for Zone Cooling Setpoint Not Met Time
 Output Reporting Tolerances, 1.000, 1.000, 
! <Site:GroundTemperature:BuildingSurface>,Jan{C},Feb{C},Mar{C},Apr{C},May{C},Jun{C},Jul{C},Aug{C},Sep{C},Oct{C},Nov{C},Dec{C}
 Site:GroundTemperature:BuildingSurface,  19.53,  19.50,  19.54,  19.60,  20.00,  21.64,  22.23,  22.38,  21.45,  20.12,  19.80,  19.63
! <Site:GroundTemperature:FCfactorMethod>,Jan{C},Feb{C},Mar{C},Apr{C},May{C},Jun{C},Jul{C},Aug{C},Sep{C},Oct{C},Nov{C},Dec{C}
 Site:GroundTemperature:FCfactorMethod, -12.27, -13.66, -11.19,  -7.33,   2.77,  10.57,  15.83,  17.43,  14.70,   8.65,   0.56,  -6.95
! <Site:GroundTemperature:Shallow>,Jan{C},Feb{C},Mar{C},Apr{C},May{C},Jun{C},Jul{C},Aug{C},Sep{C},Oct{C},Nov{C},Dec{C}
 Site:GroundTemperature:Shallow,  13.00,  13.00,  13.00,  13.00,  13.00,  13.00,  13.00,  13.00,  13.00,  13.00,  13.00,  13.00
! <Site:GroundTemperature:Deep>,Jan{C},Feb{C},Mar{C},Apr{C},May{C},Jun{C},Jul{C},Aug{C},Sep{C},Oct{C},Nov{C},Dec{C}
 Site:GroundTemperature:Deep,  16.00,  16.00,  16.00,  16.00,  16.00,  16.00,  16.00,  16.00,  16.00,  16.00,  16.00,  16.00
! <Site:GroundReflectance>,Jan{dimensionless},Feb{dimensionless},Mar{dimensionless},Apr{dimensionless},May{dimensionless},Jun{dimensionless},Jul{dimensionless},Aug{dimensionless},Sep{dimensionless},Oct{dimensionless},Nov{dimensionless},Dec{dimensionless}
 Site:GroundReflectance,  0.20,  0.20,  0.20,  0.20,  0.20,  0.20,  0.20,  0.20,  0.20,  0.20,  0.20,  0.20
! <Site:GroundReflectance:SnowModifier>, Normal, Daylighting {dimensionless}
 Site:GroundReflectance:SnowModifier,   1.000,   1.000
! <Site:GroundReflectance:Snow>,Jan{dimensionless},Feb{dimensionless},Mar{dimensionless},Apr{dimensionless},May{dimensionless},Jun{dimensionless},Jul{dimensionless},Aug{dimensionless},Sep{dimensionless},Oct{dimensionless},Nov{dimensionless},Dec{dimensionless}
 Site:GroundReflectance:Snow,  0.20,  0.20,  0.20,  0.20,  0.20,  0.20,  0.20,  0.20,  0.20,  0.20,  0.20,  0.20
! <Site:GroundReflectance:Snow:Daylighting>,Jan{dimensionless},Feb{dimensionless},Mar{dimensionless},Apr{dimensionless},May{dimensionless},Jun{dimensionless},Jul{dimensionless},Aug{dimensionless},Sep{dimensionless},Oct{dimensionless},Nov{dimensionless},Dec{dimensionless}
 Site:GroundReflectance:Snow:Daylighting,  0.20,  0.20,  0.20,  0.20,  0.20,  0.20,  0.20,  0.20,  0.20,  0.20,  0.20,  0.20
! <Environment:Weather Station>,Wind Sensor Height Above Ground {m},Wind Speed Profile Exponent {},Wind Speed Profile Boundary Layer Thickness {m},Air Temperature Sensor Height Above Ground {m},Wind Speed Modifier Coefficient-Internal,Temperature Modifier Coefficient-Internal
Environment:Weather Station,10.000,0.140,270.000,1.500,1.586,9.750E-003
! <Site:Location>, Location Name, Latitude {N+/S- Deg}, Longitude {E+/W- Deg},  Time Zone Number {GMT+/-}, Elevation {m},  Standard Pressure at Elevation {Pa}, Standard RhoAir at Elevation
Site:Location,Fort McMurray AP AB CAN CWEC2016 WMO#=716890,56.65,-111.22,-7.00,369.10,96969,1.1525
! <Building Information>, Building Name,North Axis {deg},Terrain,  Loads Convergence Tolerance Value,Temperature Convergence Tolerance Value,  Solar Distribution,Maximum Number of Warmup Days,Minimum Number of Warmup Days
 Building Information,Building 1,0.000,Suburbs,4.00000E-002,0.40000,FullExterior,25,6
! <Inside Convection Algorithm>, Algorithm {Simple | TARP | CeilingDiffuser | AdaptiveConvectionAlgorithm}
Inside Convection Algorithm,TARP
! <Outside Convection Algorithm>, Algorithm {SimpleCombined | TARP | MoWitt | DOE-2 | AdaptiveConvectionAlgorithm}
Outside Convection Algorithm,TARP
! <Sky Radiance Distribution>, Value {Anisotropic}
Sky Radiance Distribution,Anisotropic
! <Zone Air Solution Algorithm>, Value {ThirdOrderBackwardDifference | AnalyticalSolution | EulerMethod}
 Zone Air Solution Algorithm, ThirdOrderBackwardDifference
! <Zone Air Carbon Dioxide Balance Simulation>, Simulation {Yes/No}, Carbon Dioxide Concentration
 Zone Air Carbon Dioxide Balance Simulation, No,N/A
! <Zone Air Generic Contaminant Balance Simulation>, Simulation {Yes/No}, Generic Contaminant Concentration
 Zone Air Generic Contaminant Balance Simulation, No,N/A
! <Zone Air Mass Flow Balance Simulation>, Enforce Mass Balance, Adjust Zone Mixing, Adjust Zone Infiltration {AddInfiltration | AdjustInfiltration | None}, Infiltration Zones {MixingSourceZonesOnly | AllZones}
 Zone Air Mass Flow Balance Simulation, No,N/A,N/A,N/A
! <HVACSystemRootFindingAlgorithm>, Value {RegulaFalsi | Bisection | BisectionThenRegulaFalsi | RegulaFalsiThenBisection}
 HVACSystemRootFindingAlgorithm, RegulaFalsi
! <Environment:Site Atmospheric Variation>,Wind Speed Profile Exponent {},Wind Speed Profile Boundary Layer Thickness {m},Air Temperature Gradient Coefficient {K/m}
Environment:Site Atmospheric Variation,0.220,370.000,6.500000E-003
! <Surface Geometry>,Starting Corner,Vertex Input Direction,Coordinate System,Daylight Reference Point Coordinate System,Rectangular (Simple) Surface Coordinate System
 Surface Geometry,UpperLeftCorner,Counterclockwise,RelativeCoordinateSystem,RelativeCoordinateSystem,RelativeToZoneOrigin
! <Surface Heat Transfer Algorithm>, Value {CTF - ConductionTransferFunction | EMPD - MoisturePenetrationDepthConductionTransferFunction | CondFD - ConductionFiniteDifference | HAMT - CombinedHeatAndMoistureFiniteElement} - Description,Inside Surface Max Temperature Limit{C}, Surface Convection Coefficient Lower Limit {W/m2-K}, Surface Convection Coefficient Upper Limit {W/m2-K}
Surface Heat Transfer Algorithm, CTF - ConductionTransferFunction,200,0.10,1000.0
! <Shading Summary>, Number of Fixed Detached Shades, Number of Building Detached Shades, Number of Attached Shades
 Shading Summary,0,0,0
! <Zone Summary>, Number of Zones, Number of Zone Surfaces, Number of SubSurfaces
 Zone Summary,20,135,15
! <Zone Information>,Zone Name,North Axis {deg},Origin X-Coordinate {m},Origin Y-Coordinate {m},Origin Z-Coordinate {m},Centroid X-Coordinate {m},Centroid Y-Coordinate {m},Centroid Z-Coordinate {m},Type,Zone Multiplier,Zone List Multiplier,Minimum X {m},Maximum X {m},Minimum Y {m},Maximum Y {m},Minimum Z {m},Maximum Z {m},Ceiling Height {m},Volume {m3},Zone Inside Convection Algorithm {Simple-Detailed-CeilingDiffuser-TrombeWall},Zone Outside Convection Algorithm {Simple-Detailed-Tarp-MoWitt-DOE-2-BLAST}, Floor Area {m2},Exterior Gross Wall Area {m2},Exterior Net Wall Area {m2},Exterior Window Area {m2}, Number of Surfaces, Number of SubSurfaces, Number of Shading SubSurfaces,  Part of Total Building Area
 Zone Information, SP-STORAGE GARAGE INTERIOR-SPACE FUNCTION SYS-4 FLR-4 SCH-K HPLCMT-SOUTH ZN,0.0,0.00,0.00,11.40,50.00,10.85,13.30,1,1,1,0.00,100.00,0.00,25.00,11.40,15.20,3.80,7125.00,TARP,TARP,1875.00,380.00,380.00,0.00,6,0,0,Yes
 Zone Information, SP-STORAGE ROOM < 5 M2-SCH-A-SPACE FUNCTION SYS-4 FLR-4 SCH-A HPLCMT-NORTH ZN,0.0,25.00,75.00,11.40,50.00,89.15,13.30,1,1,1,0.00,100.00,75.00,100.00,11.40,15.20,3.80,7125.00,TARP,TARP,1875.00,380.00,285.00,188.75,6,2,0,Yes
 Zone Information, SP-STORAGE ROOM < 5 M2-SCH-B-SPACE FUNCTION SYS-4 FLR-4 SCH-B HPLCMT-WEST ZN,0.0,0.00,0.00,11.40,10.85,50.00,13.30,1,1,1,0.00,25.00,0.00,100.00,11.40,15.20,3.80,7125.00,TARP,TARP,1875.00,380.00,285.00,188.75,6,2,0,Yes
 Zone Information, SP-STORAGE ROOM < 5 M2-SCH-C-SPACE FUNCTION SYS-4 FLR-3 SCH-C HPLCMT-SOUTH ZN,0.0,0.00,0.00,7.60,50.00,10.85,9.50,1,1,1,0.00,100.00,0.00,25.00,7.60,11.40,3.80,7125.00,TARP,TARP,1875.00,380.00,285.00,95.00,6,1,0,Yes
 Zone Information, SP-STORAGE ROOM < 5 M2-SCH-D-SPACE FUNCTION SYS-4 FLR-3 SCH-D HPLCMT-EAST ZN,0.0,75.00,25.00,7.60,89.15,50.00,9.50,1,1,1,75.00,100.00,0.00,100.00,7.60,11.40,3.80,7125.00,TARP,TARP,1875.00,380.00,285.00,95.00,6,1,0,Yes
 Zone Information, SP-STORAGE ROOM < 5 M2-SCH-E-SPACE FUNCTION SYS-4 FLR-3 SCH-E HPLCMT-NORTH ZN,0.0,25.00,75.00,7.60,50.00,89.15,9.50,1,1,1,0.00,100.00,75.00,100.00,7.60,11.40,3.80,7125.00,TARP,TARP,1875.00,380.00,285.00,95.00,6,1,0,Yes
 Zone Information, SP-STORAGE ROOM < 5 M2-SCH-F-SPACE FUNCTION SYS-4 FLR-3 SCH-F HPLCMT-WEST ZN,0.0,0.00,0.00,7.60,10.85,50.00,9.50,1,1,1,0.00,25.00,0.00,100.00,7.60,11.40,3.80,7125.00,TARP,TARP,1875.00,380.00,285.00,95.00,6,1,0,Yes
 Zone Information, SP-STORAGE ROOM < 5 M2-SCH-G-SPACE FUNCTION SYS-4 FLR-1 SCH-G HPLCMT-WEST ZN,0.0,0.00,0.00,0.00,10.85,50.00,1.90,1,1,1,0.00,25.00,0.00,100.00,0.00,3.80,3.80,7125.00,TARP,TARP,1875.00,0.00,0.00,0.00,6,0,0,Yes
 Zone Information, SP-STORAGE ROOM < 5 M2-SCH-H-SPACE FUNCTION SYS-4 FLR-1 SCH-H HPLCMT-NORTH ZN,0.0,25.00,75.00,0.00,50.00,89.15,1.90,1,1,1,0.00,100.00,75.00,100.00,0.00,3.80,3.80,7125.00,TARP,TARP,1875.00,0.00,0.00,0.00,6,0,0,Yes
 Zone Information, SP-STORAGE ROOM < 5 M2-SCH-I-SPACE FUNCTION SYS-4 FLR-4 SCH-I HPLCMT-EAST ZN,0.0,75.00,25.00,11.40,89.15,50.00,13.30,1,1,1,75.00,100.00,0.00,100.00,11.40,15.20,3.80,7125.00,TARP,TARP,1875.00,380.00,285.00,188.75,6,2,0,Yes
 Zone Information, SP-STORAGE ROOM < 5 M2-SCH-J-SPACE FUNCTION SYS-4 FLR-1 SCH-J HPLCMT-EAST ZN,0.0,75.00,25.00,0.00,89.15,50.00,1.90,1,1,1,75.00,100.00,0.00,100.00,0.00,3.80,3.80,7125.00,TARP,TARP,1875.00,0.00,0.00,0.00,6,0,0,Yes
 Zone Information, SP-STORAGE ROOM < 5 M2-SCH-K-SPACE FUNCTION SYS-4 FLR-1 SCH-K HPLCMT-CORE ZN,0.0,25.00,25.00,0.00,50.00,50.00,1.90,1,1,1,25.00,75.00,25.00,75.00,0.00,3.80,3.80,9500.00,TARP,TARP,2500.00,0.00,0.00,0.00,6,0,0,Yes
 Zone Information, SP-STORAGE ROOM <= 5 M2 <= 100 M2-SCH-A-SPACE FUNCTION SYS-4 FLR-3 SCH-A HPLCMT-CORE ZN,0.0,25.00,25.00,7.60,50.00,50.00,9.50,1,1,1,25.00,75.00,25.00,75.00,7.60,11.40,3.80,9500.00,TARP,TARP,2500.00,0.00,0.00,0.00,6,0,0,Yes
 Zone Information, SP-STORAGE ROOM <= 5 M2 <= 100 M2-SCH-B-SPACE FUNCTION SYS-4 FLR-2 SCH-B HPLCMT-NORTH ZN,0.0,25.00,75.00,3.80,50.00,89.15,5.70,1,1,1,0.00,100.00,75.00,100.00,3.80,7.60,3.80,7125.00,TARP,TARP,1875.00,380.00,285.00,95.00,6,1,0,Yes
 Zone Information, SP-STORAGE ROOM <= 5 M2 <= 100 M2-SCH-C-SPACE FUNCTION SYS-4 FLR-2 SCH-C HPLCMT-SOUTH ZN,0.0,0.00,0.00,3.80,50.00,10.85,5.70,1,1,1,0.00,100.00,0.00,25.00,3.80,7.60,3.80,7125.00,TARP,TARP,1875.00,380.00,285.00,95.00,6,1,0,Yes
 Zone Information, SP-STORAGE ROOM <= 5 M2 <= 100 M2-SCH-D-SPACE FUNCTION SYS-4 FLR-2 SCH-D HPLCMT-CORE ZN,0.0,25.00,25.00,3.80,50.00,50.00,5.70,1,1,1,25.00,75.00,25.00,75.00,3.80,7.60,3.80,9500.00,TARP,TARP,2500.00,0.00,0.00,0.00,6,0,0,Yes
 Zone Information, SP-STORAGE ROOM <= 5 M2 <= 100 M2-SCH-E-SPACE FUNCTION SYS-4 FLR-4 SCH-E HPLCMT-CORE ZN,0.0,25.00,25.00,11.40,50.00,50.00,13.30,1,1,1,25.00,75.00,25.00,75.00,11.40,15.20,3.80,9500.00,TARP,TARP,2500.00,0.00,0.00,125.00,6,1,0,Yes
 Zone Information, SP-STORAGE ROOM <= 5 M2 <= 100 M2-SCH-F-SPACE FUNCTION SYS-4 FLR-2 SCH-F HPLCMT-EAST ZN,0.0,75.00,25.00,3.80,89.15,50.00,5.70,1,1,1,75.00,100.00,0.00,100.00,3.80,7.60,3.80,7125.00,TARP,TARP,1875.00,380.00,285.00,95.00,6,1,0,Yes
 Zone Information, SP-STORAGE ROOM <= 5 M2 <= 100 M2-SCH-G-SPACE FUNCTION SYS-4 FLR-1 SCH-G HPLCMT-SOUTH ZN,0.0,0.00,0.00,0.00,50.00,10.85,1.90,1,1,1,0.00,100.00,0.00,25.00,0.00,3.80,3.80,7125.00,TARP,TARP,1875.00,0.00,0.00,0.00,6,0,0,Yes
 Zone Information, SP-STORAGE ROOM <= 5 M2 <= 100 M2-SCH-H-SPACE FUNCTION SYS-4 FLR-2 SCH-H HPLCMT-WEST ZN,0.0,0.00,0.00,3.80,10.85,50.00,5.70,1,1,1,0.00,25.00,0.00,100.00,3.80,7.60,3.80,7125.00,TARP,TARP,1875.00,380.00,285.00,95.00,6,1,0,Yes
! <Zone Internal Gains Nominal>,Zone Name, Floor Area {m2},# Occupants,Area per Occupant {m2/person},Occupant per Area {person/m2},Interior Lighting {W/m2},Electric Load {W/m2},Gas Load {W/m2},Other Load {W/m2},Hot Water Eq {W/m2},Steam Equipment {W/m2},Sum Loads per Area {W/m2},Outdoor Controlled Baseboard Heat
 Zone Internal Gains Nominal, SP-STORAGE GARAGE INTERIOR-SPACE FUNCTION SYS-4 FLR-4 SCH-K HPLCMT-SOUTH ZN,1875.00,1.9,999.637,1.000E-003,2.101,0.000,0.000,0.000,0.000,0.000,2.101,No
 Zone Internal Gains Nominal, SP-STORAGE ROOM < 5 M2-SCH-A-SPACE FUNCTION SYS-4 FLR-4 SCH-A HPLCMT-NORTH ZN,1875.00,18.8,99.964,1.000E-002,13.305,1.000,0.000,0.000,0.000,0.000,14.305,No
 Zone Internal Gains Nominal, SP-STORAGE ROOM < 5 M2-SCH-B-SPACE FUNCTION SYS-4 FLR-4 SCH-B HPLCMT-WEST ZN,1875.00,18.8,99.964,1.000E-002,13.305,1.000,0.000,0.000,0.000,0.000,14.305,No
 Zone Internal Gains Nominal, SP-STORAGE ROOM < 5 M2-SCH-C-SPACE FUNCTION SYS-4 FLR-3 SCH-C HPLCMT-SOUTH ZN,1875.00,18.8,99.964,1.000E-002,13.305,1.000,0.000,0.000,0.000,0.000,14.305,No
 Zone Internal Gains Nominal, SP-STORAGE ROOM < 5 M2-SCH-D-SPACE FUNCTION SYS-4 FLR-3 SCH-D HPLCMT-EAST ZN,1875.00,18.8,99.964,1.000E-002,13.305,1.000,0.000,0.000,0.000,0.000,14.305,No
 Zone Internal Gains Nominal, SP-STORAGE ROOM < 5 M2-SCH-E-SPACE FUNCTION SYS-4 FLR-3 SCH-E HPLCMT-NORTH ZN,1875.00,18.8,99.964,1.000E-002,13.305,1.000,0.000,0.000,0.000,0.000,14.305,No
 Zone Internal Gains Nominal, SP-STORAGE ROOM < 5 M2-SCH-F-SPACE FUNCTION SYS-4 FLR-3 SCH-F HPLCMT-WEST ZN,1875.00,18.8,99.964,1.000E-002,13.305,1.000,0.000,0.000,0.000,0.000,14.305,No
 Zone Internal Gains Nominal, SP-STORAGE ROOM < 5 M2-SCH-G-SPACE FUNCTION SYS-4 FLR-1 SCH-G HPLCMT-WEST ZN,1875.00,18.8,99.964,1.000E-002,13.305,1.000,0.000,0.000,0.000,0.000,14.305,No
 Zone Internal Gains Nominal, SP-STORAGE ROOM < 5 M2-SCH-H-SPACE FUNCTION SYS-4 FLR-1 SCH-H HPLCMT-NORTH ZN,1875.00,18.8,99.964,1.000E-002,13.305,1.000,0.000,0.000,0.000,0.000,14.305,No
 Zone Internal Gains Nominal, SP-STORAGE ROOM < 5 M2-SCH-I-SPACE FUNCTION SYS-4 FLR-4 SCH-I HPLCMT-EAST ZN,1875.00,18.8,99.964,1.000E-002,13.305,1.000,0.000,0.000,0.000,0.000,14.305,No
 Zone Internal Gains Nominal, SP-STORAGE ROOM < 5 M2-SCH-J-SPACE FUNCTION SYS-4 FLR-1 SCH-J HPLCMT-EAST ZN,1875.00,18.8,99.964,1.000E-002,13.305,1.000,0.000,0.000,0.000,0.000,14.305,No
 Zone Internal Gains Nominal, SP-STORAGE ROOM < 5 M2-SCH-K-SPACE FUNCTION SYS-4 FLR-1 SCH-K HPLCMT-CORE ZN,2500.00,25.0,99.964,1.000E-002,13.305,1.000,0.000,0.000,0.000,0.000,14.305,No
 Zone Internal Gains Nominal, SP-STORAGE ROOM <= 5 M2 <= 100 M2-SCH-A-SPACE FUNCTION SYS-4 FLR-3 SCH-A HPLCMT-CORE ZN,2500.00,25.0,99.964,1.000E-002,6.802,0.000,0.000,0.000,0.000,0.000,6.802,No
 Zone Internal Gains Nominal, SP-STORAGE ROOM <= 5 M2 <= 100 M2-SCH-B-SPACE FUNCTION SYS-4 FLR-2 SCH-B HPLCMT-NORTH ZN,1875.00,18.8,99.964,1.000E-002,6.802,0.000,0.000,0.000,0.000,0.000,6.802,No
 Zone Internal Gains Nominal, SP-STORAGE ROOM <= 5 M2 <= 100 M2-SCH-C-SPACE FUNCTION SYS-4 FLR-2 SCH-C HPLCMT-SOUTH ZN,1875.00,18.8,99.964,1.000E-002,6.802,0.000,0.000,0.000,0.000,0.000,6.802,No
 Zone Internal Gains Nominal, SP-STORAGE ROOM <= 5 M2 <= 100 M2-SCH-D-SPACE FUNCTION SYS-4 FLR-2 SCH-D HPLCMT-CORE ZN,2500.00,25.0,99.964,1.000E-002,6.802,0.000,0.000,0.000,0.000,0.000,6.802,No
 Zone Internal Gains Nominal, SP-STORAGE ROOM <= 5 M2 <= 100 M2-SCH-E-SPACE FUNCTION SYS-4 FLR-4 SCH-E HPLCMT-CORE ZN,2500.00,25.0,99.964,1.000E-002,6.802,0.000,0.000,0.000,0.000,0.000,6.802,No
 Zone Internal Gains Nominal, SP-STORAGE ROOM <= 5 M2 <= 100 M2-SCH-F-SPACE FUNCTION SYS-4 FLR-2 SCH-F HPLCMT-EAST ZN,1875.00,18.8,99.964,1.000E-002,6.802,0.000,0.000,0.000,0.000,0.000,6.802,No
 Zone Internal Gains Nominal, SP-STORAGE ROOM <= 5 M2 <= 100 M2-SCH-G-SPACE FUNCTION SYS-4 FLR-1 SCH-G HPLCMT-SOUTH ZN,1875.00,18.8,99.964,1.000E-002,6.802,0.000,0.000,0.000,0.000,0.000,6.802,No
 Zone Internal Gains Nominal, SP-STORAGE ROOM <= 5 M2 <= 100 M2-SCH-H-SPACE FUNCTION SYS-4 FLR-2 SCH-H HPLCMT-WEST ZN,1875.00,18.8,99.964,1.000E-002,6.802,0.000,0.000,0.000,0.000,0.000,6.802,No
! <People Internal Gains Nominal>,Name,Schedule Name,Zone Name,Zone Floor Area {m2},# Zone Occupants,Number of People {},People/Floor Area {person/m2},Floor Area per person {m2/person},Fraction Radiant,Fraction Convected,Sensible Fraction Calculation,Activity level,ASHRAE 55 Warnings,Carbon Dioxide Generation Rate,Nominal Minimum Number of People,Nominal Maximum Number of People
 People Internal Gains Nominal, SP-STORAGE GARAGE INTERIOR-SPACE FUNCTION SYS-4 FLR-4 SCH-K HPLCMT-SOUTH ZN SPACE FUNCTION STORAGE GARAGE INTERIOR PEOPLE,NECB-K-OCCUPANCY,SP-STORAGE GARAGE INTERIOR-SPACE FUNCTION SYS-4 FLR-4 SCH-K HPLCMT-SOUTH ZN,1875.00,1.9,1.9,1.000E-003,999.637,0.300,0.700,AutoCalculate,NECB-ACTIVITY,No,3.8200E-008,0,2
 People Internal Gains Nominal, SP-STORAGE ROOM < 5 M2-SCH-A-SPACE FUNCTION SYS-4 FLR-4 SCH-A HPLCMT-NORTH ZN SPACE FUNCTION STORAGE ROOM < 5 M2-SCH-A PEOPLE,NECB-A-OCCUPANCY,SP-STORAGE ROOM < 5 M2-SCH-A-SPACE FUNCTION SYS-4 FLR-4 SCH-A HPLCMT-NORTH ZN,1875.00,18.8,18.8,1.000E-002,99.964,0.300,0.700,AutoCalculate,NECB-ACTIVITY,No,3.8200E-008,0,17
 People Internal Gains Nominal, SP-STORAGE ROOM < 5 M2-SCH-B-SPACE FUNCTION SYS-4 FLR-4 SCH-B HPLCMT-WEST ZN SPACE FUNCTION STORAGE ROOM < 5 M2-SCH-B PEOPLE,NECB-B-OCCUPANCY,SP-STORAGE ROOM < 5 M2-SCH-B-SPACE FUNCTION SYS-4 FLR-4 SCH-B HPLCMT-WEST ZN,1875.00,18.8,18.8,1.000E-002,99.964,0.300,0.700,AutoCalculate,NECB-ACTIVITY,No,3.8200E-008,0,17
 People Internal Gains Nominal, SP-STORAGE ROOM < 5 M2-SCH-C-SPACE FUNCTION SYS-4 FLR-3 SCH-C HPLCMT-SOUTH ZN SPACE FUNCTION STORAGE ROOM < 5 M2-SCH-C PEOPLE,NECB-C-OCCUPANCY,SP-STORAGE ROOM < 5 M2-SCH-C-SPACE FUNCTION SYS-4 FLR-3 SCH-C HPLCMT-SOUTH ZN,1875.00,18.8,18.8,1.000E-002,99.964,0.300,0.700,AutoCalculate,NECB-ACTIVITY,No,3.8200E-008,0,17
 People Internal Gains Nominal, SP-STORAGE ROOM < 5 M2-SCH-D-SPACE FUNCTION SYS-4 FLR-3 SCH-D HPLCMT-EAST ZN SPACE FUNCTION STORAGE ROOM < 5 M2-SCH-D PEOPLE,NECB-D-OCCUPANCY,SP-STORAGE ROOM < 5 M2-SCH-D-SPACE FUNCTION SYS-4 FLR-3 SCH-D HPLCMT-EAST ZN,1875.00,18.8,18.8,1.000E-002,99.964,0.300,0.700,AutoCalculate,NECB-ACTIVITY,No,3.8200E-008,0,17
 People Internal Gains Nominal, SP-STORAGE ROOM < 5 M2-SCH-E-SPACE FUNCTION SYS-4 FLR-3 SCH-E HPLCMT-NORTH ZN SPACE FUNCTION STORAGE ROOM < 5 M2-SCH-E PEOPLE,NECB-E-OCCUPANCY,SP-STORAGE ROOM < 5 M2-SCH-E-SPACE FUNCTION SYS-4 FLR-3 SCH-E HPLCMT-NORTH ZN,1875.00,18.8,18.8,1.000E-002,99.964,0.300,0.700,AutoCalculate,NECB-ACTIVITY,No,3.8200E-008,0,17
 People Internal Gains Nominal, SP-STORAGE ROOM < 5 M2-SCH-F-SPACE FUNCTION SYS-4 FLR-3 SCH-F HPLCMT-WEST ZN SPACE FUNCTION STORAGE ROOM < 5 M2-SCH-F PEOPLE,NECB-F-OCCUPANCY,SP-STORAGE ROOM < 5 M2-SCH-F-SPACE FUNCTION SYS-4 FLR-3 SCH-F HPLCMT-WEST ZN,1875.00,18.8,18.8,1.000E-002,99.964,0.300,0.700,AutoCalculate,NECB-ACTIVITY,No,3.8200E-008,3,12
 People Internal Gains Nominal, SP-STORAGE ROOM < 5 M2-SCH-G-SPACE FUNCTION SYS-4 FLR-1 SCH-G HPLCMT-WEST ZN SPACE FUNCTION STORAGE ROOM < 5 M2-SCH-G PEOPLE,NECB-G-OCCUPANCY,SP-STORAGE ROOM < 5 M2-SCH-G-SPACE FUNCTION SYS-4 FLR-1 SCH-G HPLCMT-WEST ZN,1875.00,18.8,18.8,1.000E-002,99.964,0.300,0.700,AutoCalculate,NECB-ACTIVITY,No,3.8200E-008,6,17
 People Internal Gains Nominal, SP-STORAGE ROOM < 5 M2-SCH-H-SPACE FUNCTION SYS-4 FLR-1 SCH-H HPLCMT-NORTH ZN SPACE FUNCTION STORAGE ROOM < 5 M2-SCH-H PEOPLE,NECB-H-OCCUPANCY,SP-STORAGE ROOM < 5 M2-SCH-H-SPACE FUNCTION SYS-4 FLR-1 SCH-H HPLCMT-NORTH ZN,1875.00,18.8,18.8,1.000E-002,99.964,0.300,0.700,AutoCalculate,NECB-ACTIVITY,No,3.8200E-008,17,17
 People Internal Gains Nominal, SP-STORAGE ROOM < 5 M2-SCH-I-SPACE FUNCTION SYS-4 FLR-4 SCH-I HPLCMT-EAST ZN SPACE FUNCTION STORAGE ROOM < 5 M2-SCH-I PEOPLE,NECB-I-OCCUPANCY,SP-STORAGE ROOM < 5 M2-SCH-I-SPACE FUNCTION SYS-4 FLR-4 SCH-I HPLCMT-EAST ZN,1875.00,18.8,18.8,1.000E-002,99.964,0.300,0.700,AutoCalculate,NECB-ACTIVITY,No,3.8200E-008,0,15
 People Internal Gains Nominal, SP-STORAGE ROOM < 5 M2-SCH-J-SPACE FUNCTION SYS-4 FLR-1 SCH-J HPLCMT-EAST ZN SPACE FUNCTION STORAGE ROOM < 5 M2-SCH-J PEOPLE,NECB-J-OCCUPANCY,SP-STORAGE ROOM < 5 M2-SCH-J-SPACE FUNCTION SYS-4 FLR-1 SCH-J HPLCMT-EAST ZN,1875.00,18.8,18.8,1.000E-002,99.964,0.300,0.700,AutoCalculate,NECB-ACTIVITY,No,3.8200E-008,11,17
 People Internal Gains Nominal, SP-STORAGE ROOM < 5 M2-SCH-K-SPACE FUNCTION SYS-4 FLR-1 SCH-K HPLCMT-CORE ZN SPACE FUNCTION STORAGE ROOM < 5 M2-SCH-K PEOPLE,NECB-K-OCCUPANCY,SP-STORAGE ROOM < 5 M2-SCH-K-SPACE FUNCTION SYS-4 FLR-1 SCH-K HPLCMT-CORE ZN,2500.00,25.0,25.0,1.000E-002,99.964,0.300,0.700,AutoCalculate,NECB-ACTIVITY,No,3.8200E-008,0,23
 People Internal Gains Nominal, SP-STORAGE ROOM <= 5 M2 <= 100 M2-SCH-A-SPACE FUNCTION SYS-4 FLR-3 SCH-A HPLCMT-CORE ZN SPACE FUNCTION STORAGE ROOM <= 5 M2 <= 100 M2-SCH-A PEOPLE,NECB-A-OCCUPANCY,SP-STORAGE ROOM <= 5 M2 <= 100 M2-SCH-A-SPACE FUNCTION SYS-4 FLR-3 SCH-A HPLCMT-CORE ZN,2500.00,25.0,25.0,1.000E-002,99.964,0.300,0.700,AutoCalculate,NECB-ACTIVITY,No,3.8200E-008,0,23
 People Internal Gains Nominal, SP-STORAGE ROOM <= 5 M2 <= 100 M2-SCH-B-SPACE FUNCTION SYS-4 FLR-2 SCH-B HPLCMT-NORTH ZN SPACE FUNCTION STORAGE ROOM <= 5 M2 <= 100 M2-SCH-B PEOPLE,NECB-B-OCCUPANCY,SP-STORAGE ROOM <= 5 M2 <= 100 M2-SCH-B-SPACE FUNCTION SYS-4 FLR-2 SCH-B HPLCMT-NORTH ZN,1875.00,18.8,18.8,1.000E-002,99.964,0.300,0.700,AutoCalculate,NECB-ACTIVITY,No,3.8200E-008,0,17
 People Internal Gains Nominal, SP-STORAGE ROOM <= 5 M2 <= 100 M2-SCH-C-SPACE FUNCTION SYS-4 FLR-2 SCH-C HPLCMT-SOUTH ZN SPACE FUNCTION STORAGE ROOM <= 5 M2 <= 100 M2-SCH-C PEOPLE,NECB-C-OCCUPANCY,SP-STORAGE ROOM <= 5 M2 <= 100 M2-SCH-C-SPACE FUNCTION SYS-4 FLR-2 SCH-C HPLCMT-SOUTH ZN,1875.00,18.8,18.8,1.000E-002,99.964,0.300,0.700,AutoCalculate,NECB-ACTIVITY,No,3.8200E-008,0,17
 People Internal Gains Nominal, SP-STORAGE ROOM <= 5 M2 <= 100 M2-SCH-D-SPACE FUNCTION SYS-4 FLR-2 SCH-D HPLCMT-CORE ZN SPACE FUNCTION STORAGE ROOM <= 5 M2 <= 100 M2-SCH-D PEOPLE,NECB-D-OCCUPANCY,SP-STORAGE ROOM <= 5 M2 <= 100 M2-SCH-D-SPACE FUNCTION SYS-4 FLR-2 SCH-D HPLCMT-CORE ZN,2500.00,25.0,25.0,1.000E-002,99.964,0.300,0.700,AutoCalculate,NECB-ACTIVITY,No,3.8200E-008,0,23
 People Internal Gains Nominal, SP-STORAGE ROOM <= 5 M2 <= 100 M2-SCH-E-SPACE FUNCTION SYS-4 FLR-4 SCH-E HPLCMT-CORE ZN SPACE FUNCTION STORAGE ROOM <= 5 M2 <= 100 M2-SCH-E PEOPLE,NECB-E-OCCUPANCY,SP-STORAGE ROOM <= 5 M2 <= 100 M2-SCH-E-SPACE FUNCTION SYS-4 FLR-4 SCH-E HPLCMT-CORE ZN,2500.00,25.0,25.0,1.000E-002,99.964,0.300,0.700,AutoCalculate,NECB-ACTIVITY,No,3.8200E-008,0,23
 People Internal Gains Nominal, SP-STORAGE ROOM <= 5 M2 <= 100 M2-SCH-F-SPACE FUNCTION SYS-4 FLR-2 SCH-F HPLCMT-EAST ZN SPACE FUNCTION STORAGE ROOM <= 5 M2 <= 100 M2-SCH-F PEOPLE,NECB-F-OCCUPANCY,SP-STORAGE ROOM <= 5 M2 <= 100 M2-SCH-F-SPACE FUNCTION SYS-4 FLR-2 SCH-F HPLCMT-EAST ZN,1875.00,18.8,18.8,1.000E-002,99.964,0.300,0.700,AutoCalculate,NECB-ACTIVITY,No,3.8200E-008,3,12
 People Internal Gains Nominal, SP-STORAGE ROOM <= 5 M2 <= 100 M2-SCH-G-SPACE FUNCTION SYS-4 FLR-1 SCH-G HPLCMT-SOUTH ZN SPACE FUNCTION STORAGE ROOM <= 5 M2 <= 100 M2-SCH-G PEOPLE,NECB-G-OCCUPANCY,SP-STORAGE ROOM <= 5 M2 <= 100 M2-SCH-G-SPACE FUNCTION SYS-4 FLR-1 SCH-G HPLCMT-SOUTH ZN,1875.00,18.8,18.8,1.000E-002,99.964,0.300,0.700,AutoCalculate,NECB-ACTIVITY,No,3.8200E-008,6,17
 People Internal Gains Nominal, SP-STORAGE ROOM <= 5 M2 <= 100 M2-SCH-H-SPACE FUNCTION SYS-4 FLR-2 SCH-H HPLCMT-WEST ZN SPACE FUNCTION STORAGE ROOM <= 5 M2 <= 100 M2-SCH-H PEOPLE,NECB-H-OCCUPANCY,SP-STORAGE ROOM <= 5 M2 <= 100 M2-SCH-H-SPACE FUNCTION SYS-4 FLR-2 SCH-H HPLCMT-WEST ZN,1875.00,18.8,18.8,1.000E-002,99.964,0.300,0.700,AutoCalculate,NECB-ACTIVITY,No,3.8200E-008,17,17
! <Lights Internal Gains Nominal>,Name,Schedule Name,Zone Name,Zone Floor Area {m2},# Zone Occupants,Lighting Level {W},Lights/Floor Area {W/m2},Lights per person {W/person},Fraction Return Air,Fraction Radiant,Fraction Short Wave,Fraction Convected,Fraction Replaceable,End-Use Category,Nominal Minimum Lighting Level {W},Nominal Maximum Lighting Level {W}
 Lights Internal Gains Nominal, SP-STORAGE GARAGE INTERIOR-SPACE FUNCTION SYS-4 FLR-4 SCH-K HPLCMT-SOUTH ZN SPACE FUNCTION STORAGE GARAGE INTERIOR LIGHTS,NECB-K-LIGHTING,SP-STORAGE GARAGE INTERIOR-SPACE FUNCTION SYS-4 FLR-4 SCH-K HPLCMT-SOUTH ZN,1875.00,1.9,3938.931,2.101,2100.000,0.000,0.500,0.200,0.300,1.000,General,3545.038,3545.038
 Lights Internal Gains Nominal, SP-STORAGE ROOM < 5 M2-SCH-A-SPACE FUNCTION SYS-4 FLR-4 SCH-A HPLCMT-NORTH ZN SPACE FUNCTION STORAGE ROOM < 5 M2-SCH-A LIGHTS,NECB-A-OCCUPANCY-NECB-A-LIGHTING-0.6-0.0-0.67-LIGHT RULESET,SP-STORAGE ROOM < 5 M2-SCH-A-SPACE FUNCTION SYS-4 FLR-4 SCH-A HPLCMT-NORTH ZN,1875.00,18.8,24946.563,13.305,1330.000,0.000,0.500,0.200,0.300,1.000,General,745.902,22451.907
 Lights Internal Gains Nominal, SP-STORAGE ROOM < 5 M2-SCH-B-SPACE FUNCTION SYS-4 FLR-4 SCH-B HPLCMT-WEST ZN SPACE FUNCTION STORAGE ROOM < 5 M2-SCH-B LIGHTS,NECB-B-OCCUPANCY-NECB-B-LIGHTING-0.6-0.0-0.67-LIGHT RULESET,SP-STORAGE ROOM < 5 M2-SCH-B-SPACE FUNCTION SYS-4 FLR-4 SCH-B HPLCMT-WEST ZN,1875.00,18.8,24946.563,13.305,1330.000,0.000,0.500,0.200,0.300,1.000,General,1491.804,22451.907
 Lights Internal Gains Nominal, SP-STORAGE ROOM < 5 M2-SCH-C-SPACE FUNCTION SYS-4 FLR-3 SCH-C HPLCMT-SOUTH ZN SPACE FUNCTION STORAGE ROOM < 5 M2-SCH-C LIGHTS,NECB-C-OCCUPANCY-NECB-C-LIGHTING-0.6-0.0-0.67-LIGHT RULESET,SP-STORAGE ROOM < 5 M2-SCH-C-SPACE FUNCTION SYS-4 FLR-3 SCH-C HPLCMT-SOUTH ZN,1875.00,18.8,24946.563,13.305,1330.000,0.000,0.500,0.200,0.300,1.000,General,745.902,22451.907
 Lights Internal Gains Nominal, SP-STORAGE ROOM < 5 M2-SCH-D-SPACE FUNCTION SYS-4 FLR-3 SCH-D HPLCMT-EAST ZN SPACE FUNCTION STORAGE ROOM < 5 M2-SCH-D LIGHTS,NECB-D-OCCUPANCY-NECB-D-LIGHTING-0.6-0.0-0.67-LIGHT RULESET,SP-STORAGE ROOM < 5 M2-SCH-D-SPACE FUNCTION SYS-4 FLR-3 SCH-D HPLCMT-EAST ZN,1875.00,18.8,24946.563,13.305,1330.000,0.000,0.500,0.200,0.300,1.000,General,745.902,22451.907
 Lights Internal Gains Nominal, SP-STORAGE ROOM < 5 M2-SCH-E-SPACE FUNCTION SYS-4 FLR-3 SCH-E HPLCMT-NORTH ZN SPACE FUNCTION STORAGE ROOM < 5 M2-SCH-E LIGHTS,NECB-E-OCCUPANCY-NECB-E-LIGHTING-0.6-0.0-0.67-LIGHT RULESET,SP-STORAGE ROOM < 5 M2-SCH-E-SPACE FUNCTION SYS-4 FLR-3 SCH-E HPLCMT-NORTH ZN,1875.00,18.8,24946.563,13.305,1330.000,0.000,0.500,0.200,0.300,1.000,General,745.902,22451.907
 Lights Internal Gains Nominal, SP-STORAGE ROOM < 5 M2-SCH-F-SPACE FUNCTION SYS-4 FLR-3 SCH-F HPLCMT-WEST ZN SPACE FUNCTION STORAGE ROOM < 5 M2-SCH-F LIGHTS,NECB-F-OCCUPANCY-NECB-F-LIGHTING-0.6-0.0-0.67-LIGHT RULESET,SP-STORAGE ROOM < 5 M2-SCH-F-SPACE FUNCTION SYS-4 FLR-3 SCH-F HPLCMT-WEST ZN,1875.00,18.8,24946.563,13.305,1330.000,0.000,0.500,0.200,0.300,1.000,General,1746.259,10477.556
 Lights Internal Gains Nominal, SP-STORAGE ROOM < 5 M2-SCH-G-SPACE FUNCTION SYS-4 FLR-1 SCH-G HPLCMT-WEST ZN SPACE FUNCTION STORAGE ROOM < 5 M2-SCH-G LIGHTS,NECB-G-OCCUPANCY-NECB-G-LIGHTING-0.6-0.0-0.67-LIGHT RULESET,SP-STORAGE ROOM < 5 M2-SCH-G-SPACE FUNCTION SYS-4 FLR-1 SCH-G HPLCMT-WEST ZN,1875.00,18.8,24946.563,13.305,1330.000,0.000,0.500,0.200,0.300,1.000,General,0.000,22451.907
 Lights Internal Gains Nominal, SP-STORAGE ROOM < 5 M2-SCH-H-SPACE FUNCTION SYS-4 FLR-1 SCH-H HPLCMT-NORTH ZN SPACE FUNCTION STORAGE ROOM < 5 M2-SCH-H LIGHTS,NECB-H-OCCUPANCY-NECB-H-LIGHTING-0.6-0.0-0.67-LIGHT RULESET,SP-STORAGE ROOM < 5 M2-SCH-H-SPACE FUNCTION SYS-4 FLR-1 SCH-H HPLCMT-NORTH ZN,1875.00,18.8,24946.563,13.305,1330.000,0.000,0.500,0.200,0.300,1.000,General,22451.907,22451.907
 Lights Internal Gains Nominal, SP-STORAGE ROOM < 5 M2-SCH-I-SPACE FUNCTION SYS-4 FLR-4 SCH-I HPLCMT-EAST ZN SPACE FUNCTION STORAGE ROOM < 5 M2-SCH-I LIGHTS,NECB-I-OCCUPANCY-NECB-I-LIGHTING-0.6-0.0-0.67-LIGHT RULESET,SP-STORAGE ROOM < 5 M2-SCH-I-SPACE FUNCTION SYS-4 FLR-4 SCH-I HPLCMT-EAST ZN,1875.00,18.8,24946.563,13.305,1330.000,0.000,0.500,0.200,0.300,1.000,General,745.902,22451.907
 Lights Internal Gains Nominal, SP-STORAGE ROOM < 5 M2-SCH-J-SPACE FUNCTION SYS-4 FLR-1 SCH-J HPLCMT-EAST ZN SPACE FUNCTION STORAGE ROOM < 5 M2-SCH-J LIGHTS,NECB-J-OCCUPANCY-NECB-J-LIGHTING-0.6-0.0-0.67-LIGHT RULESET,SP-STORAGE ROOM < 5 M2-SCH-J-SPACE FUNCTION SYS-4 FLR-1 SCH-J HPLCMT-EAST ZN,1875.00,18.8,24946.563,13.305,1330.000,0.000,0.500,0.200,0.300,1.000,General,2494.656,17462.594
 Lights Internal Gains Nominal, SP-STORAGE ROOM < 5 M2-SCH-K-SPACE FUNCTION SYS-4 FLR-1 SCH-K HPLCMT-CORE ZN SPACE FUNCTION STORAGE ROOM < 5 M2-SCH-K LIGHTS,NECB-K-OCCUPANCY-NECB-K-LIGHTING-0.6-0.0-0.67-LIGHT RULESET,SP-STORAGE ROOM < 5 M2-SCH-K-SPACE FUNCTION SYS-4 FLR-1 SCH-K HPLCMT-CORE ZN,2500.00,25.0,33262.084,13.305,1330.000,0.000,0.500,0.200,0.300,1.000,General,17901.653,29935.875
 Lights Internal Gains Nominal, SP-STORAGE ROOM <= 5 M2 <= 100 M2-SCH-A-SPACE FUNCTION SYS-4 FLR-3 SCH-A HPLCMT-CORE ZN SPACE FUNCTION STORAGE ROOM <= 5 M2 <= 100 M2-SCH-A LIGHTS,NECB-A-LIGHTING,SP-STORAGE ROOM <= 5 M2 <= 100 M2-SCH-A-SPACE FUNCTION SYS-4 FLR-3 SCH-A HPLCMT-CORE ZN,2500.00,25.0,17006.178,6.802,680.000,0.000,0.500,0.200,0.300,1.000,General,850.309,15305.560
 Lights Internal Gains Nominal, SP-STORAGE ROOM <= 5 M2 <= 100 M2-SCH-B-SPACE FUNCTION SYS-4 FLR-2 SCH-B HPLCMT-NORTH ZN SPACE FUNCTION STORAGE ROOM <= 5 M2 <= 100 M2-SCH-B LIGHTS,NECB-B-LIGHTING,SP-STORAGE ROOM <= 5 M2 <= 100 M2-SCH-B-SPACE FUNCTION SYS-4 FLR-2 SCH-B HPLCMT-NORTH ZN,1875.00,18.8,12754.634,6.802,680.000,0.000,0.500,0.200,0.300,1.000,General,1275.463,11479.170
 Lights Internal Gains Nominal, SP-STORAGE ROOM <= 5 M2 <= 100 M2-SCH-C-SPACE FUNCTION SYS-4 FLR-2 SCH-C HPLCMT-SOUTH ZN SPACE FUNCTION STORAGE ROOM <= 5 M2 <= 100 M2-SCH-C LIGHTS,NECB-C-LIGHTING,SP-STORAGE ROOM <= 5 M2 <= 100 M2-SCH-C-SPACE FUNCTION SYS-4 FLR-2 SCH-C HPLCMT-SOUTH ZN,1875.00,18.8,12754.634,6.802,680.000,0.000,0.500,0.200,0.300,1.000,General,637.732,11479.170
 Lights Internal Gains Nominal, SP-STORAGE ROOM <= 5 M2 <= 100 M2-SCH-D-SPACE FUNCTION SYS-4 FLR-2 SCH-D HPLCMT-CORE ZN SPACE FUNCTION STORAGE ROOM <= 5 M2 <= 100 M2-SCH-D LIGHTS,NECB-D-LIGHTING,SP-STORAGE ROOM <= 5 M2 <= 100 M2-SCH-D-SPACE FUNCTION SYS-4 FLR-2 SCH-D HPLCMT-CORE ZN,2500.00,25.0,17006.178,6.802,680.000,0.000,0.500,0.200,0.300,1.000,General,850.309,15305.560
 Lights Internal Gains Nominal, SP-STORAGE ROOM <= 5 M2 <= 100 M2-SCH-E-SPACE FUNCTION SYS-4 FLR-4 SCH-E HPLCMT-CORE ZN SPACE FUNCTION STORAGE ROOM <= 5 M2 <= 100 M2-SCH-E LIGHTS,NECB-E-LIGHTING,SP-STORAGE ROOM <= 5 M2 <= 100 M2-SCH-E-SPACE FUNCTION SYS-4 FLR-4 SCH-E HPLCMT-CORE ZN,2500.00,25.0,17006.178,6.802,680.000,0.000,0.500,0.200,0.300,1.000,General,850.309,15305.560
 Lights Internal Gains Nominal, SP-STORAGE ROOM <= 5 M2 <= 100 M2-SCH-F-SPACE FUNCTION SYS-4 FLR-2 SCH-F HPLCMT-EAST ZN SPACE FUNCTION STORAGE ROOM <= 5 M2 <= 100 M2-SCH-F LIGHTS,NECB-F-LIGHTING,SP-STORAGE ROOM <= 5 M2 <= 100 M2-SCH-F-SPACE FUNCTION SYS-4 FLR-2 SCH-F HPLCMT-EAST ZN,1875.00,18.8,12754.634,6.802,680.000,0.000,0.500,0.200,0.300,1.000,General,892.824,8035.419
 Lights Internal Gains Nominal, SP-STORAGE ROOM <= 5 M2 <= 100 M2-SCH-G-SPACE FUNCTION SYS-4 FLR-1 SCH-G HPLCMT-SOUTH ZN SPACE FUNCTION STORAGE ROOM <= 5 M2 <= 100 M2-SCH-G LIGHTS,NECB-G-LIGHTING,SP-STORAGE ROOM <= 5 M2 <= 100 M2-SCH-G-SPACE FUNCTION SYS-4 FLR-1 SCH-G HPLCMT-SOUTH ZN,1875.00,18.8,12754.634,6.802,680.000,0.000,0.500,0.200,0.300,1.000,General,0.000,11479.170
 Lights Internal Gains Nominal, SP-STORAGE ROOM <= 5 M2 <= 100 M2-SCH-H-SPACE FUNCTION SYS-4 FLR-2 SCH-H HPLCMT-WEST ZN SPACE FUNCTION STORAGE ROOM <= 5 M2 <= 100 M2-SCH-H LIGHTS,NECB-H-LIGHTING,SP-STORAGE ROOM <= 5 M2 <= 100 M2-SCH-H-SPACE FUNCTION SYS-4 FLR-2 SCH-H HPLCMT-WEST ZN,1875.00,18.8,12754.634,6.802,680.000,0.000,0.500,0.200,0.300,1.000,General,11479.170,11479.170
! <ElectricEquipment Internal Gains Nominal>,Name,Schedule Name,Zone Name,Zone Floor Area {m2},# Zone Occupants,Equipment Level {W},Equipment/Floor Area {W/m2},Equipment per person {W/person},Fraction Latent,Fraction Radiant,Fraction Lost,Fraction Convected,End-Use SubCategory,Nominal Minimum Equipment Level {W},Nominal Maximum Equipment Level {W}
 ElectricEquipment Internal Gains Nominal, SP-STORAGE ROOM < 5 M2-SCH-A-SPACE FUNCTION SYS-4 FLR-4 SCH-A HPLCMT-NORTH ZN SPACE FUNCTION STORAGE ROOM < 5 M2-SCH-A ELEC EQUIP,NECB-A-ELECTRIC-EQUIPMENT,SP-STORAGE ROOM < 5 M2-SCH-A-SPACE FUNCTION SYS-4 FLR-4 SCH-A HPLCMT-NORTH ZN,1875.00,18.8,1875.681,1.000,100.000,0.000,0.500,0.000,0.500,General,375.136,1688.113
 ElectricEquipment Internal Gains Nominal, SP-STORAGE ROOM < 5 M2-SCH-B-SPACE FUNCTION SYS-4 FLR-4 SCH-B HPLCMT-WEST ZN SPACE FUNCTION STORAGE ROOM < 5 M2-SCH-B ELEC EQUIP,NECB-B-ELECTRIC-EQUIPMENT,SP-STORAGE ROOM < 5 M2-SCH-B-SPACE FUNCTION SYS-4 FLR-4 SCH-B HPLCMT-WEST ZN,1875.00,18.8,1875.681,1.000,100.000,0.000,0.500,0.000,0.500,General,187.568,1688.113
 ElectricEquipment Internal Gains Nominal, SP-STORAGE ROOM < 5 M2-SCH-C-SPACE FUNCTION SYS-4 FLR-3 SCH-C HPLCMT-SOUTH ZN SPACE FUNCTION STORAGE ROOM < 5 M2-SCH-C ELEC EQUIP,NECB-C-ELECTRIC-EQUIPMENT,SP-STORAGE ROOM < 5 M2-SCH-C-SPACE FUNCTION SYS-4 FLR-3 SCH-C HPLCMT-SOUTH ZN,1875.00,18.8,1875.681,1.000,100.000,0.000,0.500,0.000,0.500,General,93.784,1688.113
 ElectricEquipment Internal Gains Nominal, SP-STORAGE ROOM < 5 M2-SCH-D-SPACE FUNCTION SYS-4 FLR-3 SCH-D HPLCMT-EAST ZN SPACE FUNCTION STORAGE ROOM < 5 M2-SCH-D ELEC EQUIP,NECB-D-ELECTRIC-EQUIPMENT,SP-STORAGE ROOM < 5 M2-SCH-D-SPACE FUNCTION SYS-4 FLR-3 SCH-D HPLCMT-EAST ZN,1875.00,18.8,1875.681,1.000,100.000,0.000,0.500,0.000,0.500,General,93.784,1688.113
 ElectricEquipment Internal Gains Nominal, SP-STORAGE ROOM < 5 M2-SCH-E-SPACE FUNCTION SYS-4 FLR-3 SCH-E HPLCMT-NORTH ZN SPACE FUNCTION STORAGE ROOM < 5 M2-SCH-E ELEC EQUIP,NECB-E-ELECTRIC-EQUIPMENT,SP-STORAGE ROOM < 5 M2-SCH-E-SPACE FUNCTION SYS-4 FLR-3 SCH-E HPLCMT-NORTH ZN,1875.00,18.8,1875.681,1.000,100.000,0.000,0.500,0.000,0.500,General,93.784,1688.113
 ElectricEquipment Internal Gains Nominal, SP-STORAGE ROOM < 5 M2-SCH-F-SPACE FUNCTION SYS-4 FLR-3 SCH-F HPLCMT-WEST ZN SPACE FUNCTION STORAGE ROOM < 5 M2-SCH-F ELEC EQUIP,NECB-F-ELECTRIC-EQUIPMENT,SP-STORAGE ROOM < 5 M2-SCH-F-SPACE FUNCTION SYS-4 FLR-3 SCH-F HPLCMT-WEST ZN,1875.00,18.8,1875.681,1.000,100.000,0.000,0.500,0.000,0.500,General,131.298,1181.679
 ElectricEquipment Internal Gains Nominal, SP-STORAGE ROOM < 5 M2-SCH-G-SPACE FUNCTION SYS-4 FLR-1 SCH-G HPLCMT-WEST ZN SPACE FUNCTION STORAGE ROOM < 5 M2-SCH-G ELEC EQUIP,NECB-G-ELECTRIC-EQUIPMENT,SP-STORAGE ROOM < 5 M2-SCH-G-SPACE FUNCTION SYS-4 FLR-1 SCH-G HPLCMT-WEST ZN,1875.00,18.8,1875.681,1.000,100.000,0.000,0.500,0.000,0.500,General,375.136,1688.113
 ElectricEquipment Internal Gains Nominal, SP-STORAGE ROOM < 5 M2-SCH-H-SPACE FUNCTION SYS-4 FLR-1 SCH-H HPLCMT-NORTH ZN SPACE FUNCTION STORAGE ROOM < 5 M2-SCH-H ELEC EQUIP,NECB-H-ELECTRIC-EQUIPMENT,SP-STORAGE ROOM < 5 M2-SCH-H-SPACE FUNCTION SYS-4 FLR-1 SCH-H HPLCMT-NORTH ZN,1875.00,18.8,1875.681,1.000,100.000,0.000,0.500,0.000,0.500,General,1688.113,1688.113
 ElectricEquipment Internal Gains Nominal, SP-STORAGE ROOM < 5 M2-SCH-I-SPACE FUNCTION SYS-4 FLR-4 SCH-I HPLCMT-EAST ZN SPACE FUNCTION STORAGE ROOM < 5 M2-SCH-I ELEC EQUIP,NECB-I-ELECTRIC-EQUIPMENT,SP-STORAGE ROOM < 5 M2-SCH-I-SPACE FUNCTION SYS-4 FLR-4 SCH-I HPLCMT-EAST ZN,1875.00,18.8,1875.681,1.000,100.000,0.000,0.500,0.000,0.500,General,187.568,1500.545
 ElectricEquipment Internal Gains Nominal, SP-STORAGE ROOM < 5 M2-SCH-J-SPACE FUNCTION SYS-4 FLR-1 SCH-J HPLCMT-EAST ZN SPACE FUNCTION STORAGE ROOM < 5 M2-SCH-J ELEC EQUIP,NECB-J-ELECTRIC-EQUIPMENT,SP-STORAGE ROOM < 5 M2-SCH-J-SPACE FUNCTION SYS-4 FLR-1 SCH-J HPLCMT-EAST ZN,1875.00,18.8,1875.681,1.000,100.000,0.000,0.500,0.000,0.500,General,187.568,1312.977
 ElectricEquipment Internal Gains Nominal, SP-STORAGE ROOM < 5 M2-SCH-K-SPACE FUNCTION SYS-4 FLR-1 SCH-K HPLCMT-CORE ZN SPACE FUNCTION STORAGE ROOM < 5 M2-SCH-K ELEC EQUIP,NECB-K-ELECTRIC-EQUIPMENT,SP-STORAGE ROOM < 5 M2-SCH-K-SPACE FUNCTION SYS-4 FLR-1 SCH-K HPLCMT-CORE ZN,2500.00,25.0,2500.909,1.000,100.000,0.000,0.500,0.000,0.500,General,0.000,0.000
! <Shadowing/Sun Position Calculations Annual Simulations>, Calculation Method, Value {days}, Allowable Number Figures in Shadow Overlap {}, Polygon Clipping Algorithm, Sky Diffuse Modeling Algorithm, External Shading Calculation Method, Output External Shading Calculation Results, Disable Self-Shading Within Shading Zone Groups, Disable Self-Shading From Shading Zone Groups to Other Zones
Shadowing/Sun Position Calculations Annual Simulations,AverageOverDaysInFrequency,20,15000,SutherlandHodgman,SimpleSkyDiffuseModeling,InternalCalculation,No,No,No
! <Water Heater Information>,Type,Name,Volume {m3},Maximum Capacity {W},Standard Rated Recovery Efficiency, Standard Rated Energy Factor
! <ZoneInfiltration Airflow Stats Nominal>,Name,Schedule Name,Zone Name, Zone Floor Area {m2}, # Zone Occupants,Design Volume Flow Rate {m3/s},Volume Flow Rate/Floor Area {m3/s/m2},Volume Flow Rate/Exterior Surface Area {m3/s/m2},ACH - Air Changes per Hour,Equation A - Constant Term Coefficient {},Equation B - Temperature Term Coefficient {1/C},Equation C - Velocity Term Coefficient {s/m}, Equation D - Velocity Squared Term Coefficient {s2/m2}
 ZoneInfiltration Airflow Stats Nominal, STORAGE GARAGE INTERIOR-SPACE FUNCTION INFILTRATION,ALWAYS ON DISCRETE,SP-STORAGE GARAGE INTERIOR-SPACE FUNCTION SYS-4 FLR-4 SCH-K HPLCMT-SOUTH ZN,1875.00,1.9,0.564,3.007E-004,2.500E-004,0.285,0.000,0.000,0.224,0.000
 ZoneInfiltration Airflow Stats Nominal, STORAGE ROOM < 5 M2-SCH-A-SPACE FUNCTION INFILTRATION,ALWAYS ON DISCRETE,SP-STORAGE ROOM < 5 M2-SCH-A-SPACE FUNCTION SYS-4 FLR-4 SCH-A HPLCMT-NORTH ZN,1875.00,18.8,0.564,3.007E-004,2.500E-004,0.285,0.000,0.000,0.224,0.000
 ZoneInfiltration Airflow Stats Nominal, STORAGE ROOM < 5 M2-SCH-B-SPACE FUNCTION INFILTRATION,ALWAYS ON DISCRETE,SP-STORAGE ROOM < 5 M2-SCH-B-SPACE FUNCTION SYS-4 FLR-4 SCH-B HPLCMT-WEST ZN,1875.00,18.8,0.564,3.007E-004,2.500E-004,0.285,0.000,0.000,0.224,0.000
 ZoneInfiltration Airflow Stats Nominal, STORAGE ROOM < 5 M2-SCH-C-SPACE FUNCTION INFILTRATION,ALWAYS ON DISCRETE,SP-STORAGE ROOM < 5 M2-SCH-C-SPACE FUNCTION SYS-4 FLR-3 SCH-C HPLCMT-SOUTH ZN,1875.00,18.8,9.500E-002,5.067E-005,2.500E-004,4.800E-002,0.000,0.000,0.224,0.000
 ZoneInfiltration Airflow Stats Nominal, STORAGE ROOM < 5 M2-SCH-D-SPACE FUNCTION INFILTRATION,ALWAYS ON DISCRETE,SP-STORAGE ROOM < 5 M2-SCH-D-SPACE FUNCTION SYS-4 FLR-3 SCH-D HPLCMT-EAST ZN,1875.00,18.8,9.500E-002,5.067E-005,2.500E-004,4.800E-002,0.000,0.000,0.224,0.000
 ZoneInfiltration Airflow Stats Nominal, STORAGE ROOM < 5 M2-SCH-E-SPACE FUNCTION INFILTRATION,ALWAYS ON DISCRETE,SP-STORAGE ROOM < 5 M2-SCH-E-SPACE FUNCTION SYS-4 FLR-3 SCH-E HPLCMT-NORTH ZN,1875.00,18.8,9.500E-002,5.067E-005,2.500E-004,4.800E-002,0.000,0.000,0.224,0.000
 ZoneInfiltration Airflow Stats Nominal, STORAGE ROOM < 5 M2-SCH-F-SPACE FUNCTION INFILTRATION,ALWAYS ON DISCRETE,SP-STORAGE ROOM < 5 M2-SCH-F-SPACE FUNCTION SYS-4 FLR-3 SCH-F HPLCMT-WEST ZN,1875.00,18.8,9.500E-002,5.067E-005,2.500E-004,4.800E-002,0.000,0.000,0.224,0.000
 ZoneInfiltration Airflow Stats Nominal, STORAGE ROOM < 5 M2-SCH-I-SPACE FUNCTION INFILTRATION,ALWAYS ON DISCRETE,SP-STORAGE ROOM < 5 M2-SCH-I-SPACE FUNCTION SYS-4 FLR-4 SCH-I HPLCMT-EAST ZN,1875.00,18.8,0.564,3.007E-004,2.500E-004,0.285,0.000,0.000,0.224,0.000
 ZoneInfiltration Airflow Stats Nominal, STORAGE ROOM <= 5 M2 <= 100 M2-SCH-B-SPACE FUNCTION INFILTRATION,ALWAYS ON DISCRETE,SP-STORAGE ROOM <= 5 M2 <= 100 M2-SCH-B-SPACE FUNCTION SYS-4 FLR-2 SCH-B HPLCMT-NORTH ZN,1875.00,18.8,9.500E-002,5.067E-005,2.500E-004,4.800E-002,0.000,0.000,0.224,0.000
 ZoneInfiltration Airflow Stats Nominal, STORAGE ROOM <= 5 M2 <= 100 M2-SCH-C-SPACE FUNCTION INFILTRATION,ALWAYS ON DISCRETE,SP-STORAGE ROOM <= 5 M2 <= 100 M2-SCH-C-SPACE FUNCTION SYS-4 FLR-2 SCH-C HPLCMT-SOUTH ZN,1875.00,18.8,9.500E-002,5.067E-005,2.500E-004,4.800E-002,0.000,0.000,0.224,0.000
 ZoneInfiltration Airflow Stats Nominal, STORAGE ROOM <= 5 M2 <= 100 M2-SCH-E-SPACE FUNCTION INFILTRATION,ALWAYS ON DISCRETE,SP-STORAGE ROOM <= 5 M2 <= 100 M2-SCH-E-SPACE FUNCTION SYS-4 FLR-4 SCH-E HPLCMT-CORE ZN,2500.00,25.0,0.625,2.500E-004,2.500E-004,0.237,0.000,0.000,0.224,0.000
 ZoneInfiltration Airflow Stats Nominal, STORAGE ROOM <= 5 M2 <= 100 M2-SCH-F-SPACE FUNCTION INFILTRATION,ALWAYS ON DISCRETE,SP-STORAGE ROOM <= 5 M2 <= 100 M2-SCH-F-SPACE FUNCTION SYS-4 FLR-2 SCH-F HPLCMT-EAST ZN,1875.00,18.8,9.500E-002,5.067E-005,2.500E-004,4.800E-002,0.000,0.000,0.224,0.000
 ZoneInfiltration Airflow Stats Nominal, STORAGE ROOM <= 5 M2 <= 100 M2-SCH-H-SPACE FUNCTION INFILTRATION,ALWAYS ON DISCRETE,SP-STORAGE ROOM <= 5 M2 <= 100 M2-SCH-H-SPACE FUNCTION SYS-4 FLR-2 SCH-H HPLCMT-WEST ZN,1875.00,18.8,9.500E-002,5.067E-005,2.500E-004,4.800E-002,0.000,0.000,0.224,0.000
! <AirFlow Model>, Simple
 AirFlow Model, Simple
! <RoomAir Model>, Zone Name, Mixing/Mundt/UCSDDV/UCSDCV/UCSDUFI/UCSDUFE/User Defined
RoomAir Model,SP-STORAGE GARAGE INTERIOR-SPACE FUNCTION SYS-4 FLR-4 SCH-K HPLCMT-SOUTH ZN,Mixing/Well-Stirred
RoomAir Model,SP-STORAGE ROOM < 5 M2-SCH-A-SPACE FUNCTION SYS-4 FLR-4 SCH-A HPLCMT-NORTH ZN,Mixing/Well-Stirred
RoomAir Model,SP-STORAGE ROOM < 5 M2-SCH-B-SPACE FUNCTION SYS-4 FLR-4 SCH-B HPLCMT-WEST ZN,Mixing/Well-Stirred
RoomAir Model,SP-STORAGE ROOM < 5 M2-SCH-C-SPACE FUNCTION SYS-4 FLR-3 SCH-C HPLCMT-SOUTH ZN,Mixing/Well-Stirred
RoomAir Model,SP-STORAGE ROOM < 5 M2-SCH-D-SPACE FUNCTION SYS-4 FLR-3 SCH-D HPLCMT-EAST ZN,Mixing/Well-Stirred
RoomAir Model,SP-STORAGE ROOM < 5 M2-SCH-E-SPACE FUNCTION SYS-4 FLR-3 SCH-E HPLCMT-NORTH ZN,Mixing/Well-Stirred
RoomAir Model,SP-STORAGE ROOM < 5 M2-SCH-F-SPACE FUNCTION SYS-4 FLR-3 SCH-F HPLCMT-WEST ZN,Mixing/Well-Stirred
RoomAir Model,SP-STORAGE ROOM < 5 M2-SCH-G-SPACE FUNCTION SYS-4 FLR-1 SCH-G HPLCMT-WEST ZN,Mixing/Well-Stirred
RoomAir Model,SP-STORAGE ROOM < 5 M2-SCH-H-SPACE FUNCTION SYS-4 FLR-1 SCH-H HPLCMT-NORTH ZN,Mixing/Well-Stirred
RoomAir Model,SP-STORAGE ROOM < 5 M2-SCH-I-SPACE FUNCTION SYS-4 FLR-4 SCH-I HPLCMT-EAST ZN,Mixing/Well-Stirred
RoomAir Model,SP-STORAGE ROOM < 5 M2-SCH-J-SPACE FUNCTION SYS-4 FLR-1 SCH-J HPLCMT-EAST ZN,Mixing/Well-Stirred
RoomAir Model,SP-STORAGE ROOM < 5 M2-SCH-K-SPACE FUNCTION SYS-4 FLR-1 SCH-K HPLCMT-CORE ZN,Mixing/Well-Stirred
RoomAir Model,SP-STORAGE ROOM <= 5 M2 <= 100 M2-SCH-A-SPACE FUNCTION SYS-4 FLR-3 SCH-A HPLCMT-CORE ZN,Mixing/Well-Stirred
RoomAir Model,SP-STORAGE ROOM <= 5 M2 <= 100 M2-SCH-B-SPACE FUNCTION SYS-4 FLR-2 SCH-B HPLCMT-NORTH ZN,Mixing/Well-Stirred
RoomAir Model,SP-STORAGE ROOM <= 5 M2 <= 100 M2-SCH-C-SPACE FUNCTION SYS-4 FLR-2 SCH-C HPLCMT-SOUTH ZN,Mixing/Well-Stirred
RoomAir Model,SP-STORAGE ROOM <= 5 M2 <= 100 M2-SCH-D-SPACE FUNCTION SYS-4 FLR-2 SCH-D HPLCMT-CORE ZN,Mixing/Well-Stirred
RoomAir Model,SP-STORAGE ROOM <= 5 M2 <= 100 M2-SCH-E-SPACE FUNCTION SYS-4 FLR-4 SCH-E HPLCMT-CORE ZN,Mixing/Well-Stirred
RoomAir Model,SP-STORAGE ROOM <= 5 M2 <= 100 M2-SCH-F-SPACE FUNCTION SYS-4 FLR-2 SCH-F HPLCMT-EAST ZN,Mixing/Well-Stirred
RoomAir Model,SP-STORAGE ROOM <= 5 M2 <= 100 M2-SCH-G-SPACE FUNCTION SYS-4 FLR-1 SCH-G HPLCMT-SOUTH ZN,Mixing/Well-Stirred
RoomAir Model,SP-STORAGE ROOM <= 5 M2 <= 100 M2-SCH-H-SPACE FUNCTION SYS-4 FLR-2 SCH-H HPLCMT-WEST ZN,Mixing/Well-Stirred
! <AirflowNetwork Model:Control>, No Multizone or Distribution/Multizone with Distribution/Multizone without Distribution/Multizone with Distribution only during Fan Operation
AirflowNetwork Model:Control,NoMultizoneOrDistribution
! <Zone Volume Capacitance Multiplier>, Sensible Heat Capacity Multiplier, Moisture Capacity Multiplier, Carbon Dioxide Capacity Multiplier, Generic Contaminant Capacity Multiplier
Zone Volume Capacitance Multiplier,   1.000 ,   1.000,   1.000,   1.000
! <Load Timesteps in Zone Design Calculation Averaging Window>, Value
 Load Timesteps in Zone Design Calculation Averaging Window,    6
! <Heating Sizing Factor Information>, Sizing Factor ID, Value
 Heating Sizing Factor Information, Global,   1.3000    
 Heating Sizing Factor Information, Zone SP-STORAGE GARAGE INTERIOR-SPACE FUNCTION SYS-4 FLR-4 SCH-K HPLCMT-SOUTH ZN,   1.3000    
 Heating Sizing Factor Information, Zone SP-STORAGE ROOM < 5 M2-SCH-A-SPACE FUNCTION SYS-4 FLR-4 SCH-A HPLCMT-NORTH ZN,   1.3000    
 Heating Sizing Factor Information, Zone SP-STORAGE ROOM < 5 M2-SCH-B-SPACE FUNCTION SYS-4 FLR-4 SCH-B HPLCMT-WEST ZN,   1.3000    
 Heating Sizing Factor Information, Zone SP-STORAGE ROOM < 5 M2-SCH-C-SPACE FUNCTION SYS-4 FLR-3 SCH-C HPLCMT-SOUTH ZN,   1.3000    
 Heating Sizing Factor Information, Zone SP-STORAGE ROOM < 5 M2-SCH-D-SPACE FUNCTION SYS-4 FLR-3 SCH-D HPLCMT-EAST ZN,   1.3000    
 Heating Sizing Factor Information, Zone SP-STORAGE ROOM < 5 M2-SCH-E-SPACE FUNCTION SYS-4 FLR-3 SCH-E HPLCMT-NORTH ZN,   1.3000    
 Heating Sizing Factor Information, Zone SP-STORAGE ROOM < 5 M2-SCH-F-SPACE FUNCTION SYS-4 FLR-3 SCH-F HPLCMT-WEST ZN,   1.3000    
 Heating Sizing Factor Information, Zone SP-STORAGE ROOM < 5 M2-SCH-G-SPACE FUNCTION SYS-4 FLR-1 SCH-G HPLCMT-WEST ZN,   1.3000    
 Heating Sizing Factor Information, Zone SP-STORAGE ROOM < 5 M2-SCH-H-SPACE FUNCTION SYS-4 FLR-1 SCH-H HPLCMT-NORTH ZN,   1.3000    
 Heating Sizing Factor Information, Zone SP-STORAGE ROOM < 5 M2-SCH-I-SPACE FUNCTION SYS-4 FLR-4 SCH-I HPLCMT-EAST ZN,   1.3000    
 Heating Sizing Factor Information, Zone SP-STORAGE ROOM < 5 M2-SCH-J-SPACE FUNCTION SYS-4 FLR-1 SCH-J HPLCMT-EAST ZN,   1.3000    
 Heating Sizing Factor Information, Zone SP-STORAGE ROOM < 5 M2-SCH-K-SPACE FUNCTION SYS-4 FLR-1 SCH-K HPLCMT-CORE ZN,   1.3000    
 Heating Sizing Factor Information, Zone SP-STORAGE ROOM <= 5 M2 <= 100 M2-SCH-A-SPACE FUNCTION SYS-4 FLR-3 SCH-A HPLCMT-CORE ZN,   1.3000    
 Heating Sizing Factor Information, Zone SP-STORAGE ROOM <= 5 M2 <= 100 M2-SCH-B-SPACE FUNCTION SYS-4 FLR-2 SCH-B HPLCMT-NORTH ZN,   1.3000    
 Heating Sizing Factor Information, Zone SP-STORAGE ROOM <= 5 M2 <= 100 M2-SCH-C-SPACE FUNCTION SYS-4 FLR-2 SCH-C HPLCMT-SOUTH ZN,   1.3000    
 Heating Sizing Factor Information, Zone SP-STORAGE ROOM <= 5 M2 <= 100 M2-SCH-D-SPACE FUNCTION SYS-4 FLR-2 SCH-D HPLCMT-CORE ZN,   1.3000    
 Heating Sizing Factor Information, Zone SP-STORAGE ROOM <= 5 M2 <= 100 M2-SCH-E-SPACE FUNCTION SYS-4 FLR-4 SCH-E HPLCMT-CORE ZN,   1.3000    
 Heating Sizing Factor Information, Zone SP-STORAGE ROOM <= 5 M2 <= 100 M2-SCH-F-SPACE FUNCTION SYS-4 FLR-2 SCH-F HPLCMT-EAST ZN,   1.3000    
 Heating Sizing Factor Information, Zone SP-STORAGE ROOM <= 5 M2 <= 100 M2-SCH-G-SPACE FUNCTION SYS-4 FLR-1 SCH-G HPLCMT-SOUTH ZN,   1.3000    
 Heating Sizing Factor Information, Zone SP-STORAGE ROOM <= 5 M2 <= 100 M2-SCH-H-SPACE FUNCTION SYS-4 FLR-2 SCH-H HPLCMT-WEST ZN,   1.3000    
! <Cooling Sizing Factor Information>, Sizing Factor ID, Value
 Cooling Sizing Factor Information, Global,   1.1000    
 Cooling Sizing Factor Information, Zone SP-STORAGE GARAGE INTERIOR-SPACE FUNCTION SYS-4 FLR-4 SCH-K HPLCMT-SOUTH ZN,   1.1000    
 Cooling Sizing Factor Information, Zone SP-STORAGE ROOM < 5 M2-SCH-A-SPACE FUNCTION SYS-4 FLR-4 SCH-A HPLCMT-NORTH ZN,   1.1000    
 Cooling Sizing Factor Information, Zone SP-STORAGE ROOM < 5 M2-SCH-B-SPACE FUNCTION SYS-4 FLR-4 SCH-B HPLCMT-WEST ZN,   1.1000    
 Cooling Sizing Factor Information, Zone SP-STORAGE ROOM < 5 M2-SCH-C-SPACE FUNCTION SYS-4 FLR-3 SCH-C HPLCMT-SOUTH ZN,   1.1000    
 Cooling Sizing Factor Information, Zone SP-STORAGE ROOM < 5 M2-SCH-D-SPACE FUNCTION SYS-4 FLR-3 SCH-D HPLCMT-EAST ZN,   1.1000    
 Cooling Sizing Factor Information, Zone SP-STORAGE ROOM < 5 M2-SCH-E-SPACE FUNCTION SYS-4 FLR-3 SCH-E HPLCMT-NORTH ZN,   1.1000    
 Cooling Sizing Factor Information, Zone SP-STORAGE ROOM < 5 M2-SCH-F-SPACE FUNCTION SYS-4 FLR-3 SCH-F HPLCMT-WEST ZN,   1.1000    
 Cooling Sizing Factor Information, Zone SP-STORAGE ROOM < 5 M2-SCH-G-SPACE FUNCTION SYS-4 FLR-1 SCH-G HPLCMT-WEST ZN,   1.1000    
 Cooling Sizing Factor Information, Zone SP-STORAGE ROOM < 5 M2-SCH-H-SPACE FUNCTION SYS-4 FLR-1 SCH-H HPLCMT-NORTH ZN,   1.1000    
 Cooling Sizing Factor Information, Zone SP-STORAGE ROOM < 5 M2-SCH-I-SPACE FUNCTION SYS-4 FLR-4 SCH-I HPLCMT-EAST ZN,   1.1000    
 Cooling Sizing Factor Information, Zone SP-STORAGE ROOM < 5 M2-SCH-J-SPACE FUNCTION SYS-4 FLR-1 SCH-J HPLCMT-EAST ZN,   1.1000    
 Cooling Sizing Factor Information, Zone SP-STORAGE ROOM < 5 M2-SCH-K-SPACE FUNCTION SYS-4 FLR-1 SCH-K HPLCMT-CORE ZN,   1.1000    
 Cooling Sizing Factor Information, Zone SP-STORAGE ROOM <= 5 M2 <= 100 M2-SCH-A-SPACE FUNCTION SYS-4 FLR-3 SCH-A HPLCMT-CORE ZN,   1.1000    
 Cooling Sizing Factor Information, Zone SP-STORAGE ROOM <= 5 M2 <= 100 M2-SCH-B-SPACE FUNCTION SYS-4 FLR-2 SCH-B HPLCMT-NORTH ZN,   1.1000    
 Cooling Sizing Factor Information, Zone SP-STORAGE ROOM <= 5 M2 <= 100 M2-SCH-C-SPACE FUNCTION SYS-4 FLR-2 SCH-C HPLCMT-SOUTH ZN,   1.1000    
 Cooling Sizing Factor Information, Zone SP-STORAGE ROOM <= 5 M2 <= 100 M2-SCH-D-SPACE FUNCTION SYS-4 FLR-2 SCH-D HPLCMT-CORE ZN,   1.1000    
 Cooling Sizing Factor Information, Zone SP-STORAGE ROOM <= 5 M2 <= 100 M2-SCH-E-SPACE FUNCTION SYS-4 FLR-4 SCH-E HPLCMT-CORE ZN,   1.1000    
 Cooling Sizing Factor Information, Zone SP-STORAGE ROOM <= 5 M2 <= 100 M2-SCH-F-SPACE FUNCTION SYS-4 FLR-2 SCH-F HPLCMT-EAST ZN,   1.1000    
 Cooling Sizing Factor Information, Zone SP-STORAGE ROOM <= 5 M2 <= 100 M2-SCH-G-SPACE FUNCTION SYS-4 FLR-1 SCH-G HPLCMT-SOUTH ZN,   1.1000    
 Cooling Sizing Factor Information, Zone SP-STORAGE ROOM <= 5 M2 <= 100 M2-SCH-H-SPACE FUNCTION SYS-4 FLR-2 SCH-H HPLCMT-WEST ZN,   1.1000    
! <Zone Sizing Information>, Zone Name, Load Type, Calc Des Load {W}, User Des Load {W}, Calc Des Air Flow Rate {m3/s}, User Des Air Flow Rate {m3/s}, Design Day Name, Date/Time of Peak, Temperature at Peak {C}, Humidity Ratio at Peak {kgWater/kgDryAir}, Floor Area {m2}, # Occupants, Calc Outdoor Air Flow Rate {m3/s}, Calc DOAS Heat Addition Rate {W}
 Zone Sizing Information, SP-STORAGE GARAGE INTERIOR-SPACE FUNCTION SYS-4 FLR-4 SCH-K HPLCMT-SOUTH ZN, Cooling, 0.00000, 0.00000, 0.00000, 7.14375, FORT MCMURRAY AP ANN CLG .4% CONDNS DB=>MWB, , 28.90000, 8.76969E-003, 1875.00000, 1.87568, 7.14375, 0.00000
 Zone Sizing Information, SP-STORAGE GARAGE INTERIOR-SPACE FUNCTION SYS-4 FLR-4 SCH-K HPLCMT-SOUTH ZN, Heating, 0.00000, 0.00000, 0.00000, 7.14375, FORT MCMURRAY AP ANN HTG 99.6% CONDNS DB, , -36.20000, 1.25811E-004, 1875.00000, 1.87568, 7.14375, 0.00000
 Zone Sizing Information, SP-STORAGE ROOM < 5 M2-SCH-A-SPACE FUNCTION SYS-4 FLR-4 SCH-A HPLCMT-NORTH ZN, Cooling, 61829.89275, 68012.88203, 4.77842, 5.25627, FORT MCMURRAY AP ANN CLG .4% CONDNS DB=>MWB, 7/21 15:00:00, 28.90000, 8.76969E-003, 1875.00000, 18.75681, 0.66675, 0.00000
 Zone Sizing Information, SP-STORAGE ROOM < 5 M2-SCH-A-SPACE FUNCTION SYS-4 FLR-4 SCH-A HPLCMT-NORTH ZN, Heating, 57359.65720, 74567.55436, 2.29102, 2.97833, FORT MCMURRAY AP ANN HTG 99.6% CONDNS DB, 1/21 08:00:00, -36.20000, 1.25811E-004, 1875.00000, 18.75681, 0.66675, 0.00000
 Zone Sizing Information, SP-STORAGE ROOM < 5 M2-SCH-B-SPACE FUNCTION SYS-4 FLR-4 SCH-B HPLCMT-WEST ZN, Cooling, 66132.53311, 72745.78643, 5.11096, 5.62205, FORT MCMURRAY AP ANN CLG .4% CONDNS DB=>MWB, 7/21 16:10:00, 27.99067, 8.76969E-003, 1875.00000, 18.75681, 0.66675, 0.00000
 Zone Sizing Information, SP-STORAGE ROOM < 5 M2-SCH-B-SPACE FUNCTION SYS-4 FLR-4 SCH-B HPLCMT-WEST ZN, Heating, 52051.71475, 67667.22918, 2.07600, 2.69880, FORT MCMURRAY AP ANN HTG 99.6% CONDNS DB, 1/21 10:00:00, -36.20000, 1.25811E-004, 1875.00000, 18.75681, 0.66675, 0.00000
 Zone Sizing Information, SP-STORAGE ROOM < 5 M2-SCH-C-SPACE FUNCTION SYS-4 FLR-3 SCH-C HPLCMT-SOUTH ZN, Cooling, 37730.05310, 41503.05841, 2.91592, 3.20751, FORT MCMURRAY AP ANN CLG .4% CONDNS DB=>MWB, 7/21 14:10:00, 28.90000, 8.76969E-003, 1875.00000, 18.75681, 0.66675, 0.00000
 Zone Sizing Information, SP-STORAGE ROOM < 5 M2-SCH-C-SPACE FUNCTION SYS-4 FLR-3 SCH-C HPLCMT-SOUTH ZN, Heating, 44377.41424, 57690.63851, 1.76718, 2.29734, FORT MCMURRAY AP ANN HTG 99.6% CONDNS DB, 1/21 09:00:00, -36.20000, 1.25811E-004, 1875.00000, 18.75681, 0.66675, 0.00000
 Zone Sizing Information, SP-STORAGE ROOM < 5 M2-SCH-D-SPACE FUNCTION SYS-4 FLR-3 SCH-D HPLCMT-EAST ZN, Cooling, 44366.07268, 48802.67995, 3.42876, 3.77164, FORT MCMURRAY AP ANN CLG .4% CONDNS DB=>MWB, 7/21 15:00:00, 28.90000, 8.76969E-003, 1875.00000, 18.75681, 0.66675, 0.00000
 Zone Sizing Information, SP-STORAGE ROOM < 5 M2-SCH-D-SPACE FUNCTION SYS-4 FLR-3 SCH-D HPLCMT-EAST ZN, Heating, 32042.36328, 41655.07227, 1.26818, 1.64863, FORT MCMURRAY AP ANN HTG 99.6% CONDNS DB, 1/21 09:00:00, -36.20000, 1.25811E-004, 1875.00000, 18.75681, 0.66675, 0.00000
 Zone Sizing Information, SP-STORAGE ROOM < 5 M2-SCH-E-SPACE FUNCTION SYS-4 FLR-3 SCH-E HPLCMT-NORTH ZN, Cooling, 30780.15928, 33858.17521, 2.37882, 2.61670, FORT MCMURRAY AP ANN CLG .4% CONDNS DB=>MWB, 7/21 17:10:00, 26.95733, 8.76969E-003, 1875.00000, 18.75681, 0.66675, 0.00000
 Zone Sizing Information, SP-STORAGE ROOM < 5 M2-SCH-E-SPACE FUNCTION SYS-4 FLR-3 SCH-E HPLCMT-NORTH ZN, Heating, 30327.90180, 39426.27234, 1.19872, 1.55834, FORT MCMURRAY AP ANN HTG 99.6% CONDNS DB, 1/21 09:00:00, -36.20000, 1.25811E-004, 1875.00000, 18.75681, 0.66675, 0.00000
 Zone Sizing Information, SP-STORAGE ROOM < 5 M2-SCH-F-SPACE FUNCTION SYS-4 FLR-3 SCH-F HPLCMT-WEST ZN, Cooling, 32610.12114, 35871.13326, 2.52021, 2.77223, FORT MCMURRAY AP ANN CLG .4% CONDNS DB=>MWB, 7/21 18:20:00, 25.30400, 8.76968E-003, 1875.00000, 18.75681, 0.66675, 0.00000
 Zone Sizing Information, SP-STORAGE ROOM < 5 M2-SCH-F-SPACE FUNCTION SYS-4 FLR-3 SCH-F HPLCMT-WEST ZN, Heating, 27492.98432, 35740.87962, 1.08373, 1.40885, FORT MCMURRAY AP ANN HTG 99.6% CONDNS DB, 1/21 09:00:00, -36.20000, 1.25811E-004, 1875.00000, 18.75681, 0.66675, 0.00000
 Zone Sizing Information, SP-STORAGE ROOM < 5 M2-SCH-G-SPACE FUNCTION SYS-4 FLR-1 SCH-G HPLCMT-WEST ZN, Cooling, 18235.97236, 20059.56959, 1.40934, 1.55028, FORT MCMURRAY AP ANN CLG .4% CONDNS DB=>MWB, 7/21 22:00:00, 20.46800, 8.76969E-003, 1875.00000, 18.75681, 0.66675, 0.00000
 Zone Sizing Information, SP-STORAGE ROOM < 5 M2-SCH-G-SPACE FUNCTION SYS-4 FLR-1 SCH-G HPLCMT-WEST ZN, Heating, 0.00000, 0.00000, 0.00000, 0.66675, FORT MCMURRAY AP ANN HTG 99.6% CONDNS DB, , -36.20000, 1.25811E-004, 1875.00000, 18.75681, 0.66675, 0.00000
 Zone Sizing Information, SP-STORAGE ROOM < 5 M2-SCH-H-SPACE FUNCTION SYS-4 FLR-1 SCH-H HPLCMT-NORTH ZN, Cooling, 20673.75987, 22741.13586, 1.59774, 1.75751, FORT MCMURRAY AP ANN CLG .4% CONDNS DB=>MWB, 7/21 09:00:00, 22.08000, 8.76969E-003, 1875.00000, 18.75681, 0.66675, 0.00000
 Zone Sizing Information, SP-STORAGE ROOM < 5 M2-SCH-H-SPACE FUNCTION SYS-4 FLR-1 SCH-H HPLCMT-NORTH ZN, Heating, 0.00000, 0.00000, 0.00000, 0.66675, FORT MCMURRAY AP ANN HTG 99.6% CONDNS DB, , -36.20000, 1.25811E-004, 1875.00000, 18.75681, 0.66675, 0.00000
 Zone Sizing Information, SP-STORAGE ROOM < 5 M2-SCH-I-SPACE FUNCTION SYS-4 FLR-4 SCH-I HPLCMT-EAST ZN, Cooling, 107666.90784, 118433.59862, 6.68213, 7.35034, FORT MCMURRAY AP ANN CLG .4% CONDNS DB=>MWB, 7/21 15:00:00, 28.90000, 8.76969E-003, 1875.00000, 18.75681, 0.66675, 0.00000
 Zone Sizing Information, SP-STORAGE ROOM < 5 M2-SCH-I-SPACE FUNCTION SYS-4 FLR-4 SCH-I HPLCMT-EAST ZN, Heating, 45315.74627, 58910.47015, 1.80203, 2.34264, FORT MCMURRAY AP ANN HTG 99.6% CONDNS DB, 1/21 16:00:00, -36.20000, 1.25811E-004, 1875.00000, 18.75681, 0.66675, 0.00000
 Zone Sizing Information, SP-STORAGE ROOM < 5 M2-SCH-J-SPACE FUNCTION SYS-4 FLR-1 SCH-J HPLCMT-EAST ZN, Cooling, 16296.45703, 17926.10274, 1.25946, 1.38540, FORT MCMURRAY AP ANN CLG .4% CONDNS DB=>MWB, 7/21 11:00:00, 26.04800, 8.76969E-003, 1875.00000, 18.75681, 0.66675, 0.00000
 Zone Sizing Information, SP-STORAGE ROOM < 5 M2-SCH-J-SPACE FUNCTION SYS-4 FLR-1 SCH-J HPLCMT-EAST ZN, Heating, 0.00000, 0.00000, 0.00000, 0.66675, FORT MCMURRAY AP ANN HTG 99.6% CONDNS DB, , -36.20000, 1.25811E-004, 1875.00000, 18.75681, 0.66675, 0.00000
 Zone Sizing Information, SP-STORAGE ROOM < 5 M2-SCH-K-SPACE FUNCTION SYS-4 FLR-1 SCH-K HPLCMT-CORE ZN, Cooling, 0.00000, 0.00000, 0.00000, 0.88900, FORT MCMURRAY AP ANN CLG .4% CONDNS DB=>MWB, , 28.90000, 8.76969E-003, 2500.00000, 25.00909, 0.88900, 0.00000
 Zone Sizing Information, SP-STORAGE ROOM < 5 M2-SCH-K-SPACE FUNCTION SYS-4 FLR-1 SCH-K HPLCMT-CORE ZN, Heating, 0.00000, 0.00000, 0.00000, 0.88900, FORT MCMURRAY AP ANN HTG 99.6% CONDNS DB, , -36.20000, 1.25811E-004, 2500.00000, 25.00909, 0.88900, 0.00000
 Zone Sizing Information, SP-STORAGE ROOM <= 5 M2 <= 100 M2-SCH-A-SPACE FUNCTION SYS-4 FLR-3 SCH-A HPLCMT-CORE ZN, Cooling, 27032.69282, 29735.96210, 2.08920, 2.29812, FORT MCMURRAY AP ANN CLG .4% CONDNS DB=>MWB, 7/21 17:00:00, 27.16400, 8.76969E-003, 2500.00000, 25.00909, 0.88900, 0.00000
 Zone Sizing Information, SP-STORAGE ROOM <= 5 M2 <= 100 M2-SCH-A-SPACE FUNCTION SYS-4 FLR-3 SCH-A HPLCMT-CORE ZN, Heating, 13062.70518, 16981.51674, 0.51922, 0.88900, FORT MCMURRAY AP ANN HTG 99.6% CONDNS DB, 1/21 08:00:00, -36.20000, 1.25811E-004, 2500.00000, 25.00909, 0.88900, 0.00000
 Zone Sizing Information, SP-STORAGE ROOM <= 5 M2 <= 100 M2-SCH-B-SPACE FUNCTION SYS-4 FLR-2 SCH-B HPLCMT-NORTH ZN, Cooling, 20301.11107, 22331.22217, 1.45704, 1.60274, FORT MCMURRAY AP ANN CLG .4% CONDNS DB=>MWB, 7/21 09:00:00, 22.08000, 8.76969E-003, 1875.00000, 18.75681, 0.66675, 0.00000
 Zone Sizing Information, SP-STORAGE ROOM <= 5 M2 <= 100 M2-SCH-B-SPACE FUNCTION SYS-4 FLR-2 SCH-B HPLCMT-NORTH ZN, Heating, 15353.94575, 19960.12947, 0.60276, 0.78359, FORT MCMURRAY AP ANN HTG 99.6% CONDNS DB, 1/21 10:00:00, -36.20000, 1.25811E-004, 1875.00000, 18.75681, 0.66675, 0.00000
 Zone Sizing Information, SP-STORAGE ROOM <= 5 M2 <= 100 M2-SCH-C-SPACE FUNCTION SYS-4 FLR-2 SCH-C HPLCMT-SOUTH ZN, Cooling, 25419.42606, 27961.36867, 1.96451, 2.16096, FORT MCMURRAY AP ANN CLG .4% CONDNS DB=>MWB, 7/21 13:40:00, 28.69333, 8.76969E-003, 1875.00000, 18.75681, 0.66675, 0.00000
 Zone Sizing Information, SP-STORAGE ROOM <= 5 M2 <= 100 M2-SCH-C-SPACE FUNCTION SYS-4 FLR-2 SCH-C HPLCMT-SOUTH ZN, Heating, 27117.02132, 35252.12772, 1.06841, 1.38893, FORT MCMURRAY AP ANN HTG 99.6% CONDNS DB, 1/21 09:00:00, -36.20000, 1.25811E-004, 1875.00000, 18.75681, 0.66675, 0.00000
 Zone Sizing Information, SP-STORAGE ROOM <= 5 M2 <= 100 M2-SCH-D-SPACE FUNCTION SYS-4 FLR-2 SCH-D HPLCMT-CORE ZN, Cooling, 29414.95972, 32356.45570, 2.07920, 2.28712, FORT MCMURRAY AP ANN CLG .4% CONDNS DB=>MWB, 7/21 08:00:00, 19.72400, 8.76969E-003, 2500.00000, 25.00909, 0.88900, 0.00000
 Zone Sizing Information, SP-STORAGE ROOM <= 5 M2 <= 100 M2-SCH-D-SPACE FUNCTION SYS-4 FLR-2 SCH-D HPLCMT-CORE ZN, Heating, 0.00000, 0.00000, 0.00000, 0.88900, FORT MCMURRAY AP ANN HTG 99.6% CONDNS DB, , -36.20000, 1.25811E-004, 2500.00000, 25.00909, 0.88900, 0.00000
 Zone Sizing Information, SP-STORAGE ROOM <= 5 M2 <= 100 M2-SCH-E-SPACE FUNCTION SYS-4 FLR-4 SCH-E HPLCMT-CORE ZN, Cooling, 66153.91409, 72769.30550, 5.11267, 5.62393, FORT MCMURRAY AP ANN CLG .4% CONDNS DB=>MWB, 7/21 13:40:00, 28.69333, 8.76969E-003, 2500.00000, 25.00909, 0.88900, 0.00000
 Zone Sizing Information, SP-STORAGE ROOM <= 5 M2 <= 100 M2-SCH-E-SPACE FUNCTION SYS-4 FLR-4 SCH-E HPLCMT-CORE ZN, Heating, 53738.14972, 69859.59464, 2.13552, 2.77618, FORT MCMURRAY AP ANN HTG 99.6% CONDNS DB, 1/21 09:00:00, -36.20000, 1.25811E-004, 2500.00000, 25.00909, 0.88900, 0.00000
 Zone Sizing Information, SP-STORAGE ROOM <= 5 M2 <= 100 M2-SCH-F-SPACE FUNCTION SYS-4 FLR-2 SCH-F HPLCMT-EAST ZN, Cooling, 24959.85695, 27455.84265, 1.92898, 2.12187, FORT MCMURRAY AP ANN CLG .4% CONDNS DB=>MWB, 7/21 09:10:00, 22.43133, 8.76969E-003, 1875.00000, 18.75681, 0.66675, 0.00000
 Zone Sizing Information, SP-STORAGE ROOM <= 5 M2 <= 100 M2-SCH-F-SPACE FUNCTION SYS-4 FLR-2 SCH-F HPLCMT-EAST ZN, Heating, 19756.11863, 25682.95422, 0.77370, 1.00581, FORT MCMURRAY AP ANN HTG 99.6% CONDNS DB, 1/21 09:00:00, -36.20000, 1.25811E-004, 1875.00000, 18.75681, 0.66675, 0.00000
 Zone Sizing Information, SP-STORAGE ROOM <= 5 M2 <= 100 M2-SCH-G-SPACE FUNCTION SYS-4 FLR-1 SCH-G HPLCMT-SOUTH ZN, Cooling, 10993.00273, 12092.30300, 0.84958, 0.93454, FORT MCMURRAY AP ANN CLG .4% CONDNS DB=>MWB, 7/21 22:00:00, 20.46800, 8.76969E-003, 1875.00000, 18.75681, 0.66675, 0.00000
 Zone Sizing Information, SP-STORAGE ROOM <= 5 M2 <= 100 M2-SCH-G-SPACE FUNCTION SYS-4 FLR-1 SCH-G HPLCMT-SOUTH ZN, Heating, 3737.29528, 4858.48386, 0.15143, 0.66675, FORT MCMURRAY AP ANN HTG 99.6% CONDNS DB, 1/21 11:10:00, -36.20000, 1.25811E-004, 1875.00000, 18.75681, 0.66675, 0.00000
 Zone Sizing Information, SP-STORAGE ROOM <= 5 M2 <= 100 M2-SCH-H-SPACE FUNCTION SYS-4 FLR-2 SCH-H HPLCMT-WEST ZN, Cooling, 29081.29561, 31989.42517, 2.24753, 2.47228, FORT MCMURRAY AP ANN CLG .4% CONDNS DB=>MWB, 7/21 18:20:00, 25.30400, 8.76968E-003, 1875.00000, 18.75681, 0.66675, 0.00000
 Zone Sizing Information, SP-STORAGE ROOM <= 5 M2 <= 100 M2-SCH-H-SPACE FUNCTION SYS-4 FLR-2 SCH-H HPLCMT-WEST ZN, Heating, 7630.78650, 9920.02245, 0.30487, 0.66675, FORT MCMURRAY AP ANN HTG 99.6% CONDNS DB, 1/21 09:00:00, -36.20000, 1.25811E-004, 1875.00000, 18.75681, 0.66675, 0.00000
! <System Sizing Information>, System Name, Load Type, Peak Load Kind, User Design Capacity, Calc Des Air Flow Rate [m3/s], User Des Air Flow Rate [m3/s], Design Day Name, Date/Time of Peak
 System Sizing Information, SYS_4_PSZ_SP-STORAGE GARAGE INTERIOR-SPACE FUNCTION SYS-4 FLR-4 SCH-K HPLCMT-SOUTH ZN, Cooling, Sensible, 131547.16, 7.14375, 7.14375, FORT MCMURRAY AP ANN CLG .4% CONDNS DB=>MWB, 7/21 05:00:00
 System Sizing Information, SYS_4_PSZ_SP-STORAGE GARAGE INTERIOR-SPACE FUNCTION SYS-4 FLR-4 SCH-K HPLCMT-SOUTH ZN, Heating, Sensible, 655253.80, 7.14375, 7.14375, FORT MCMURRAY AP ANN HTG 99.6% CONDNS DB, 1/21 00:10:00
 System Sizing Information, SYS_4_PSZ_SP-STORAGE ROOM < 5 M2-SCH-A-SPACE FUNCTION SYS-4 FLR-4 SCH-A HPLCMT-NORTH ZN, Cooling, Sensible, 70744.97, 5.25627, 5.25627, FORT MCMURRAY AP ANN CLG .4% CONDNS DB=>MWB, 7/21 05:00:00
 System Sizing Information, SYS_4_PSZ_SP-STORAGE ROOM < 5 M2-SCH-A-SPACE FUNCTION SYS-4 FLR-4 SCH-A HPLCMT-NORTH ZN, Heating, Sensible, 117708.14, 2.97833, 2.97833, FORT MCMURRAY AP ANN HTG 99.6% CONDNS DB, 1/21 08:00:00
 System Sizing Information, SYS_4_PSZ_SP-STORAGE ROOM < 5 M2-SCH-B-SPACE FUNCTION SYS-4 FLR-4 SCH-B HPLCMT-WEST ZN, Cooling, Sensible, 74702.54, 5.62205, 5.62205, FORT MCMURRAY AP ANN CLG .4% CONDNS DB=>MWB, 7/21 05:00:00
 System Sizing Information, SYS_4_PSZ_SP-STORAGE ROOM < 5 M2-SCH-B-SPACE FUNCTION SYS-4 FLR-4 SCH-B HPLCMT-WEST ZN, Heating, Sensible, 110922.69, 2.69880, 2.69880, FORT MCMURRAY AP ANN HTG 99.6% CONDNS DB, 1/21 10:00:00
 System Sizing Information, SYS_4_PSZ_SP-STORAGE ROOM < 5 M2-SCH-C-SPACE FUNCTION SYS-4 FLR-3 SCH-C HPLCMT-SOUTH ZN, Cooling, Sensible, 44645.12, 3.20751, 3.20751, FORT MCMURRAY AP ANN CLG .4% CONDNS DB=>MWB, 7/21 05:00:00
 System Sizing Information, SYS_4_PSZ_SP-STORAGE ROOM < 5 M2-SCH-C-SPACE FUNCTION SYS-4 FLR-3 SCH-C HPLCMT-SOUTH ZN, Heating, Sensible, 101232.99, 2.29734, 2.29734, FORT MCMURRAY AP ANN HTG 99.6% CONDNS DB, 1/21 09:00:00
 System Sizing Information, SYS_4_PSZ_SP-STORAGE ROOM < 5 M2-SCH-D-SPACE FUNCTION SYS-4 FLR-3 SCH-D HPLCMT-EAST ZN, Cooling, Sensible, 51831.83, 3.77164, 3.77164, FORT MCMURRAY AP ANN CLG .4% CONDNS DB=>MWB, 7/21 05:00:00
 System Sizing Information, SYS_4_PSZ_SP-STORAGE ROOM < 5 M2-SCH-D-SPACE FUNCTION SYS-4 FLR-3 SCH-D HPLCMT-EAST ZN, Heating, Sensible, 85386.21, 1.64863, 1.64863, FORT MCMURRAY AP ANN HTG 99.6% CONDNS DB, 1/21 09:00:00
 System Sizing Information, SYS_4_PSZ_SP-STORAGE ROOM < 5 M2-SCH-E-SPACE FUNCTION SYS-4 FLR-3 SCH-E HPLCMT-NORTH ZN, Cooling, Sensible, 35618.40, 2.61670, 2.61670, FORT MCMURRAY AP ANN CLG .4% CONDNS DB=>MWB, 7/21 05:00:00
 System Sizing Information, SYS_4_PSZ_SP-STORAGE ROOM < 5 M2-SCH-E-SPACE FUNCTION SYS-4 FLR-3 SCH-E HPLCMT-NORTH ZN, Heating, Sensible, 83155.57, 1.55834, 1.55834, FORT MCMURRAY AP ANN HTG 99.6% CONDNS DB, 1/21 09:00:00
 System Sizing Information, SYS_4_PSZ_SP-STORAGE ROOM < 5 M2-SCH-F-SPACE FUNCTION SYS-4 FLR-3 SCH-F HPLCMT-WEST ZN, Cooling, Sensible, 36323.44, 2.77223, 2.77223, FORT MCMURRAY AP ANN CLG .4% CONDNS DB=>MWB, 7/21 05:00:00
 System Sizing Information, SYS_4_PSZ_SP-STORAGE ROOM < 5 M2-SCH-F-SPACE FUNCTION SYS-4 FLR-3 SCH-F HPLCMT-WEST ZN, Heating, Sensible, 79462.38, 1.40885, 1.40885, FORT MCMURRAY AP ANN HTG 99.6% CONDNS DB, 1/21 09:00:00
 System Sizing Information, SYS_4_PSZ_SP-STORAGE ROOM < 5 M2-SCH-G-SPACE FUNCTION SYS-4 FLR-1 SCH-G HPLCMT-WEST ZN, Cooling, Sensible, 17022.16, 1.55028, 1.55028, FORT MCMURRAY AP ANN CLG .4% CONDNS DB=>MWB, 7/21 05:00:00
 System Sizing Information, SYS_4_PSZ_SP-STORAGE ROOM < 5 M2-SCH-G-SPACE FUNCTION SYS-4 FLR-1 SCH-G HPLCMT-WEST ZN, Heating, Sensible, 61157.02, 0.66675, 0.66675, FORT MCMURRAY AP ANN HTG 99.6% CONDNS DB, 1/21 00:10:00
 System Sizing Information, SYS_4_PSZ_SP-STORAGE ROOM < 5 M2-SCH-H-SPACE FUNCTION SYS-4 FLR-1 SCH-H HPLCMT-NORTH ZN, Cooling, Sensible, 20906.98, 1.75751, 1.75751, FORT MCMURRAY AP ANN CLG .4% CONDNS DB=>MWB, 7/21 05:00:00
 System Sizing Information, SYS_4_PSZ_SP-STORAGE ROOM < 5 M2-SCH-H-SPACE FUNCTION SYS-4 FLR-1 SCH-H HPLCMT-NORTH ZN, Heating, Sensible, 61157.02, 0.66675, 0.66675, FORT MCMURRAY AP ANN HTG 99.6% CONDNS DB, 1/21 00:10:00
 System Sizing Information, SYS_4_PSZ_SP-STORAGE ROOM < 5 M2-SCH-I-SPACE FUNCTION SYS-4 FLR-4 SCH-I HPLCMT-EAST ZN, Cooling, Sensible, 98311.72, 7.35034, 7.35034, FORT MCMURRAY AP ANN CLG .4% CONDNS DB=>MWB, 7/21 05:00:00
 System Sizing Information, SYS_4_PSZ_SP-STORAGE ROOM < 5 M2-SCH-I-SPACE FUNCTION SYS-4 FLR-4 SCH-I HPLCMT-EAST ZN, Heating, Sensible, 102216.76, 2.34264, 2.34264, FORT MCMURRAY AP ANN HTG 99.6% CONDNS DB, 1/21 16:00:00
 System Sizing Information, SYS_4_PSZ_SP-STORAGE ROOM < 5 M2-SCH-J-SPACE FUNCTION SYS-4 FLR-1 SCH-J HPLCMT-EAST ZN, Cooling, Sensible, 19230.52, 1.38540, 1.38540, FORT MCMURRAY AP ANN CLG .4% CONDNS DB=>MWB, 7/21 05:00:00
 System Sizing Information, SYS_4_PSZ_SP-STORAGE ROOM < 5 M2-SCH-J-SPACE FUNCTION SYS-4 FLR-1 SCH-J HPLCMT-EAST ZN, Heating, Sensible, 61157.02, 0.66675, 0.66675, FORT MCMURRAY AP ANN HTG 99.6% CONDNS DB, 1/21 00:10:00
 System Sizing Information, SYS_4_PSZ_SP-STORAGE ROOM < 5 M2-SCH-K-SPACE FUNCTION SYS-4 FLR-1 SCH-K HPLCMT-CORE ZN, Cooling, Sensible, 16370.31, 0.88900, 0.88900, FORT MCMURRAY AP ANN CLG .4% CONDNS DB=>MWB, 7/21 05:00:00
 System Sizing Information, SYS_4_PSZ_SP-STORAGE ROOM < 5 M2-SCH-K-SPACE FUNCTION SYS-4 FLR-1 SCH-K HPLCMT-CORE ZN, Heating, Sensible, 81542.70, 0.88900, 0.88900, FORT MCMURRAY AP ANN HTG 99.6% CONDNS DB, 1/21 00:10:00
 System Sizing Information, SYS_4_PSZ_SP-STORAGE ROOM <= 5 M2 <= 100 M2-SCH-A-SPACE FUNCTION SYS-4 FLR-3 SCH-A HPLCMT-CORE ZN, Cooling, Sensible, 32533.99, 2.29812, 2.29812, FORT MCMURRAY AP ANN CLG .4% CONDNS DB=>MWB, 7/21 05:00:00
 System Sizing Information, SYS_4_PSZ_SP-STORAGE ROOM <= 5 M2 <= 100 M2-SCH-A-SPACE FUNCTION SYS-4 FLR-3 SCH-A HPLCMT-CORE ZN, Heating, Sensible, 81542.70, 0.88900, 0.88900, FORT MCMURRAY AP ANN HTG 99.6% CONDNS DB, 1/21 00:10:00
 System Sizing Information, SYS_4_PSZ_SP-STORAGE ROOM <= 5 M2 <= 100 M2-SCH-B-SPACE FUNCTION SYS-4 FLR-2 SCH-B HPLCMT-NORTH ZN, Cooling, Sensible, 18827.41, 1.60274, 1.60274, FORT MCMURRAY AP ANN CLG .4% CONDNS DB=>MWB, 7/21 05:00:00
 System Sizing Information, SYS_4_PSZ_SP-STORAGE ROOM <= 5 M2 <= 100 M2-SCH-B-SPACE FUNCTION SYS-4 FLR-2 SCH-B HPLCMT-NORTH ZN, Heating, Sensible, 64045.45, 0.78359, 0.78359, FORT MCMURRAY AP ANN HTG 99.6% CONDNS DB, 1/21 10:00:00
 System Sizing Information, SYS_4_PSZ_SP-STORAGE ROOM <= 5 M2 <= 100 M2-SCH-C-SPACE FUNCTION SYS-4 FLR-2 SCH-C HPLCMT-SOUTH ZN, Cooling, Sensible, 31153.25, 2.16096, 2.16096, FORT MCMURRAY AP ANN CLG .4% CONDNS DB=>MWB, 7/21 05:00:00
 System Sizing Information, SYS_4_PSZ_SP-STORAGE ROOM <= 5 M2 <= 100 M2-SCH-C-SPACE FUNCTION SYS-4 FLR-2 SCH-C HPLCMT-SOUTH ZN, Heating, Sensible, 78968.85, 1.38893, 1.38893, FORT MCMURRAY AP ANN HTG 99.6% CONDNS DB, 1/21 09:00:00
 System Sizing Information, SYS_4_PSZ_SP-STORAGE ROOM <= 5 M2 <= 100 M2-SCH-D-SPACE FUNCTION SYS-4 FLR-2 SCH-D HPLCMT-CORE ZN, Cooling, Sensible, 24525.83, 2.28712, 2.28712, FORT MCMURRAY AP ANN CLG .4% CONDNS DB=>MWB, 7/21 05:00:00
 System Sizing Information, SYS_4_PSZ_SP-STORAGE ROOM <= 5 M2 <= 100 M2-SCH-D-SPACE FUNCTION SYS-4 FLR-2 SCH-D HPLCMT-CORE ZN, Heating, Sensible, 81542.70, 0.88900, 0.88900, FORT MCMURRAY AP ANN HTG 99.6% CONDNS DB, 1/21 00:10:00
 System Sizing Information, SYS_4_PSZ_SP-STORAGE ROOM <= 5 M2 <= 100 M2-SCH-E-SPACE FUNCTION SYS-4 FLR-4 SCH-E HPLCMT-CORE ZN, Cooling, Sensible, 76476.50, 5.62393, 5.62393, FORT MCMURRAY AP ANN CLG .4% CONDNS DB=>MWB, 7/21 05:00:00
 System Sizing Information, SYS_4_PSZ_SP-STORAGE ROOM <= 5 M2 <= 100 M2-SCH-E-SPACE FUNCTION SYS-4 FLR-4 SCH-E HPLCMT-CORE ZN, Heating, Sensible, 127805.92, 2.77618, 2.77618, FORT MCMURRAY AP ANN HTG 99.6% CONDNS DB, 1/21 09:00:00
 System Sizing Information, SYS_4_PSZ_SP-STORAGE ROOM <= 5 M2 <= 100 M2-SCH-F-SPACE FUNCTION SYS-4 FLR-2 SCH-F HPLCMT-EAST ZN, Cooling, Sensible, 25820.05, 2.12187, 2.12187, FORT MCMURRAY AP ANN CLG .4% CONDNS DB=>MWB, 7/21 05:00:00
 System Sizing Information, SYS_4_PSZ_SP-STORAGE ROOM <= 5 M2 <= 100 M2-SCH-F-SPACE FUNCTION SYS-4 FLR-2 SCH-F HPLCMT-EAST ZN, Heating, Sensible, 69564.91, 1.00581, 1.00581, FORT MCMURRAY AP ANN HTG 99.6% CONDNS DB, 1/21 09:00:00
 System Sizing Information, SYS_4_PSZ_SP-STORAGE ROOM <= 5 M2 <= 100 M2-SCH-G-SPACE FUNCTION SYS-4 FLR-1 SCH-G HPLCMT-SOUTH ZN, Cooling, Sensible, 9178.08, 0.93454, 0.93454, FORT MCMURRAY AP ANN CLG .4% CONDNS DB=>MWB, 7/21 05:00:00
 System Sizing Information, SYS_4_PSZ_SP-STORAGE ROOM <= 5 M2 <= 100 M2-SCH-G-SPACE FUNCTION SYS-4 FLR-1 SCH-G HPLCMT-SOUTH ZN, Heating, Sensible, 61157.02, 0.66675, 0.66675, FORT MCMURRAY AP ANN HTG 99.6% CONDNS DB, 1/21 00:10:00
 System Sizing Information, SYS_4_PSZ_SP-STORAGE ROOM <= 5 M2 <= 100 M2-SCH-H-SPACE FUNCTION SYS-4 FLR-2 SCH-H HPLCMT-WEST ZN, Cooling, Sensible, 32501.90, 2.47228, 2.47228, FORT MCMURRAY AP ANN CLG .4% CONDNS DB=>MWB, 7/21 05:00:00
 System Sizing Information, SYS_4_PSZ_SP-STORAGE ROOM <= 5 M2 <= 100 M2-SCH-H-SPACE FUNCTION SYS-4 FLR-2 SCH-H HPLCMT-WEST ZN, Heating, Sensible, 61157.02, 0.66675, 0.66675, FORT MCMURRAY AP ANN HTG 99.6% CONDNS DB, 1/21 00:10:00
! <Component Sizing Information>, Component Type, Component Name, Input Field Description, Value
 Component Sizing Information, AirTerminal:SingleDuct:Uncontrolled, AIR TERMINAL SINGLE DUCT UNCONTROLLED 16, Design Size Maximum Air Flow Rate [m3/s], 7.14375
 Component Sizing Information, ZoneHVAC:Baseboard:Convective:Water, ZONE HVAC BASEBOARD CONVECTIVE WATER 16, Design Size Maximum Water Flow Rate [m3/s], 0.00000
 Component Sizing Information, ZoneHVAC:Baseboard:Convective:Water, ZONE HVAC BASEBOARD CONVECTIVE WATER 16, Design Size U-Factor Times Area Value [W/K], 0.00000
 Component Sizing Information, AirTerminal:SingleDuct:Uncontrolled, AIR TERMINAL SINGLE DUCT UNCONTROLLED 17, Design Size Maximum Air Flow Rate [m3/s], 5.25627
 Component Sizing Information, ZoneHVAC:Baseboard:Convective:Water, ZONE HVAC BASEBOARD CONVECTIVE WATER 17, Design Size Maximum Water Flow Rate [m3/s], 1.11373E-003
 Component Sizing Information, ZoneHVAC:Baseboard:Convective:Water, ZONE HVAC BASEBOARD CONVECTIVE WATER 17, Design Size U-Factor Times Area Value [W/K], 2273.01863
 Component Sizing Information, AirTerminal:SingleDuct:Uncontrolled, AIR TERMINAL SINGLE DUCT UNCONTROLLED 18, Design Size Maximum Air Flow Rate [m3/s], 5.62205
 Component Sizing Information, ZoneHVAC:Baseboard:Convective:Water, ZONE HVAC BASEBOARD CONVECTIVE WATER 18, Design Size Maximum Water Flow Rate [m3/s], 1.01067E-003
 Component Sizing Information, ZoneHVAC:Baseboard:Convective:Water, ZONE HVAC BASEBOARD CONVECTIVE WATER 18, Design Size U-Factor Times Area Value [W/K], 2062.80149
 Component Sizing Information, AirTerminal:SingleDuct:Uncontrolled, AIR TERMINAL SINGLE DUCT UNCONTROLLED 12, Design Size Maximum Air Flow Rate [m3/s], 3.20751
 Component Sizing Information, ZoneHVAC:Baseboard:Convective:Water, ZONE HVAC BASEBOARD CONVECTIVE WATER 12, Design Size Maximum Water Flow Rate [m3/s], 8.61657E-004
 Component Sizing Information, ZoneHVAC:Baseboard:Convective:Water, ZONE HVAC BASEBOARD CONVECTIVE WATER 12, Design Size U-Factor Times Area Value [W/K], 1758.04178
 Component Sizing Information, AirTerminal:SingleDuct:Uncontrolled, AIR TERMINAL SINGLE DUCT UNCONTROLLED 13, Design Size Maximum Air Flow Rate [m3/s], 3.77164
 Component Sizing Information, ZoneHVAC:Baseboard:Convective:Water, ZONE HVAC BASEBOARD CONVECTIVE WATER 13, Design Size Maximum Water Flow Rate [m3/s], 6.22152E-004
 Component Sizing Information, ZoneHVAC:Baseboard:Convective:Water, ZONE HVAC BASEBOARD CONVECTIVE WATER 13, Design Size U-Factor Times Area Value [W/K], 1269.57132
 Component Sizing Information, AirTerminal:SingleDuct:Uncontrolled, AIR TERMINAL SINGLE DUCT UNCONTROLLED 14, Design Size Maximum Air Flow Rate [m3/s], 2.61670
 Component Sizing Information, ZoneHVAC:Baseboard:Convective:Water, ZONE HVAC BASEBOARD CONVECTIVE WATER 14, Design Size Maximum Water Flow Rate [m3/s], 5.88863E-004
 Component Sizing Information, ZoneHVAC:Baseboard:Convective:Water, ZONE HVAC BASEBOARD CONVECTIVE WATER 14, Design Size U-Factor Times Area Value [W/K], 1201.64432
 Component Sizing Information, AirTerminal:SingleDuct:Uncontrolled, AIR TERMINAL SINGLE DUCT UNCONTROLLED 15, Design Size Maximum Air Flow Rate [m3/s], 2.77223
 Component Sizing Information, ZoneHVAC:Baseboard:Convective:Water, ZONE HVAC BASEBOARD CONVECTIVE WATER 15, Design Size Maximum Water Flow Rate [m3/s], 5.33819E-004
 Component Sizing Information, ZoneHVAC:Baseboard:Convective:Water, ZONE HVAC BASEBOARD CONVECTIVE WATER 15, Design Size U-Factor Times Area Value [W/K], 1088.91705
 Component Sizing Information, AirTerminal:SingleDuct:Uncontrolled, AIR TERMINAL SINGLE DUCT UNCONTROLLED 2, Design Size Maximum Air Flow Rate [m3/s], 1.55028
 Component Sizing Information, ZoneHVAC:Baseboard:Convective:Water, ZONE HVAC BASEBOARD CONVECTIVE WATER 2, Design Size Maximum Water Flow Rate [m3/s], 0.00000
 Component Sizing Information, ZoneHVAC:Baseboard:Convective:Water, ZONE HVAC BASEBOARD CONVECTIVE WATER 2, Design Size U-Factor Times Area Value [W/K], 0.00000
 Component Sizing Information, AirTerminal:SingleDuct:Uncontrolled, AIR TERMINAL SINGLE DUCT UNCONTROLLED 4, Design Size Maximum Air Flow Rate [m3/s], 1.75751
 Component Sizing Information, ZoneHVAC:Baseboard:Convective:Water, ZONE HVAC BASEBOARD CONVECTIVE WATER 4, Design Size Maximum Water Flow Rate [m3/s], 0.00000
 Component Sizing Information, ZoneHVAC:Baseboard:Convective:Water, ZONE HVAC BASEBOARD CONVECTIVE WATER 4, Design Size U-Factor Times Area Value [W/K], 0.00000
 Component Sizing Information, AirTerminal:SingleDuct:Uncontrolled, AIR TERMINAL SINGLE DUCT UNCONTROLLED 20, Design Size Maximum Air Flow Rate [m3/s], 7.35034
 Component Sizing Information, ZoneHVAC:Baseboard:Convective:Water, ZONE HVAC BASEBOARD CONVECTIVE WATER 20, Design Size Maximum Water Flow Rate [m3/s], 8.79876E-004
 Component Sizing Information, ZoneHVAC:Baseboard:Convective:Water, ZONE HVAC BASEBOARD CONVECTIVE WATER 20, Design Size U-Factor Times Area Value [W/K], 1795.79238
 Component Sizing Information, AirTerminal:SingleDuct:Uncontrolled, AIR TERMINAL SINGLE DUCT UNCONTROLLED 5, Design Size Maximum Air Flow Rate [m3/s], 1.38540
 Component Sizing Information, ZoneHVAC:Baseboard:Convective:Water, ZONE HVAC BASEBOARD CONVECTIVE WATER 5, Design Size Maximum Water Flow Rate [m3/s], 0.00000
 Component Sizing Information, ZoneHVAC:Baseboard:Convective:Water, ZONE HVAC BASEBOARD CONVECTIVE WATER 5, Design Size U-Factor Times Area Value [W/K], 0.00000
 Component Sizing Information, AirTerminal:SingleDuct:Uncontrolled, AIR TERMINAL SINGLE DUCT UNCONTROLLED 1, Design Size Maximum Air Flow Rate [m3/s], 0.88900
 Component Sizing Information, ZoneHVAC:Baseboard:Convective:Water, ZONE HVAC BASEBOARD CONVECTIVE WATER 1, Design Size Maximum Water Flow Rate [m3/s], 0.00000
 Component Sizing Information, ZoneHVAC:Baseboard:Convective:Water, ZONE HVAC BASEBOARD CONVECTIVE WATER 1, Design Size U-Factor Times Area Value [W/K], 0.00000
 Component Sizing Information, AirTerminal:SingleDuct:Uncontrolled, AIR TERMINAL SINGLE DUCT UNCONTROLLED 11, Design Size Maximum Air Flow Rate [m3/s], 2.29812
 Component Sizing Information, ZoneHVAC:Baseboard:Convective:Water, ZONE HVAC BASEBOARD CONVECTIVE WATER 11, Design Size Maximum Water Flow Rate [m3/s], 2.53633E-004
 Component Sizing Information, ZoneHVAC:Baseboard:Convective:Water, ZONE HVAC BASEBOARD CONVECTIVE WATER 11, Design Size U-Factor Times Area Value [W/K], 516.51004
 Component Sizing Information, AirTerminal:SingleDuct:Uncontrolled, AIR TERMINAL SINGLE DUCT UNCONTROLLED 6, Design Size Maximum Air Flow Rate [m3/s], 1.60274
 Component Sizing Information, ZoneHVAC:Baseboard:Convective:Water, ZONE HVAC BASEBOARD CONVECTIVE WATER 6, Design Size Maximum Water Flow Rate [m3/s], 2.98121E-004
 Component Sizing Information, ZoneHVAC:Baseboard:Convective:Water, ZONE HVAC BASEBOARD CONVECTIVE WATER 6, Design Size U-Factor Times Area Value [W/K], 608.38249
 Component Sizing Information, AirTerminal:SingleDuct:Uncontrolled, AIR TERMINAL SINGLE DUCT UNCONTROLLED 7, Design Size Maximum Air Flow Rate [m3/s], 2.16096
 Component Sizing Information, ZoneHVAC:Baseboard:Convective:Water, ZONE HVAC BASEBOARD CONVECTIVE WATER 7, Design Size Maximum Water Flow Rate [m3/s], 5.26519E-004
 Component Sizing Information, ZoneHVAC:Baseboard:Convective:Water, ZONE HVAC BASEBOARD CONVECTIVE WATER 7, Design Size U-Factor Times Area Value [W/K], 1074.41149
 Component Sizing Information, AirTerminal:SingleDuct:Uncontrolled, AIR TERMINAL SINGLE DUCT UNCONTROLLED 8, Design Size Maximum Air Flow Rate [m3/s], 2.28712
 Component Sizing Information, ZoneHVAC:Baseboard:Convective:Water, ZONE HVAC BASEBOARD CONVECTIVE WATER 8, Design Size Maximum Water Flow Rate [m3/s], 0.00000
 Component Sizing Information, ZoneHVAC:Baseboard:Convective:Water, ZONE HVAC BASEBOARD CONVECTIVE WATER 8, Design Size U-Factor Times Area Value [W/K], 0.00000
 Component Sizing Information, AirTerminal:SingleDuct:Uncontrolled, AIR TERMINAL SINGLE DUCT UNCONTROLLED 19, Design Size Maximum Air Flow Rate [m3/s], 5.62393
 Component Sizing Information, ZoneHVAC:Baseboard:Convective:Water, ZONE HVAC BASEBOARD CONVECTIVE WATER 19, Design Size Maximum Water Flow Rate [m3/s], 1.04341E-003
 Component Sizing Information, ZoneHVAC:Baseboard:Convective:Water, ZONE HVAC BASEBOARD CONVECTIVE WATER 19, Design Size U-Factor Times Area Value [W/K], 2130.04702
 Component Sizing Information, AirTerminal:SingleDuct:Uncontrolled, AIR TERMINAL SINGLE DUCT UNCONTROLLED 9, Design Size Maximum Air Flow Rate [m3/s], 2.12187
 Component Sizing Information, ZoneHVAC:Baseboard:Convective:Water, ZONE HVAC BASEBOARD CONVECTIVE WATER 9, Design Size Maximum Water Flow Rate [m3/s], 3.83596E-004
 Component Sizing Information, ZoneHVAC:Baseboard:Convective:Water, ZONE HVAC BASEBOARD CONVECTIVE WATER 9, Design Size U-Factor Times Area Value [W/K], 782.42097
 Component Sizing Information, AirTerminal:SingleDuct:Uncontrolled, AIR TERMINAL SINGLE DUCT UNCONTROLLED 3, Design Size Maximum Air Flow Rate [m3/s], 0.93454
 Component Sizing Information, ZoneHVAC:Baseboard:Convective:Water, ZONE HVAC BASEBOARD CONVECTIVE WATER 3, Design Size Maximum Water Flow Rate [m3/s], 7.25654E-005
 Component Sizing Information, ZoneHVAC:Baseboard:Convective:Water, ZONE HVAC BASEBOARD CONVECTIVE WATER 3, Design Size U-Factor Times Area Value [W/K], 147.53336
 Component Sizing Information, AirTerminal:SingleDuct:Uncontrolled, AIR TERMINAL SINGLE DUCT UNCONTROLLED 10, Design Size Maximum Air Flow Rate [m3/s], 2.47228
 Component Sizing Information, ZoneHVAC:Baseboard:Convective:Water, ZONE HVAC BASEBOARD CONVECTIVE WATER 10, Design Size Maximum Water Flow Rate [m3/s], 1.48164E-004
[...]
 Component Sizing Information, Coil:Cooling:DX:SingleSpeed, COIL COOLING DX SINGLE SPEED 8 129KBTU/HR 9.26EER, Design Size Gross Rated Total Cooling Capacity [W], 37859.99483
 Component Sizing Information, Coil:Cooling:DX:SingleSpeed, COIL COOLING DX SINGLE SPEED 8 129KBTU/HR 9.26EER, Design Size Gross Rated Sensible Heat Ratio, 0.80066
 DX Cooling Coil Standard Rating Information, Coil:Cooling:DX:SingleSpeed, COIL COOLING DX SINGLE SPEED 8 129KBTU/HR 9.26EER, 36082.2, 2.67, 9.11, 9.62, 9.13
 Component Sizing Information, Coil:Heating:Fuel, COIL HEATING GAS 8, Design Size Nominal Capacity [W], 115546.11291
 Component Sizing Information, Fan:ConstantVolume, FAN CONSTANT VOLUME 8, Design Size Maximum Flow Rate [m3/s], 2.28712
 Component Sizing Information, Controller:OutdoorAir, CONTROLLER OUTDOOR AIR 19, Maximum Outdoor Air Flow Rate [m3/s], 5.62393
 Component Sizing Information, Controller:OutdoorAir, CONTROLLER OUTDOOR AIR 19, Minimum Outdoor Air Flow Rate [m3/s], 0.88900
 Component Sizing Information, Coil:Cooling:DX:SingleSpeed, COIL COOLING DX SINGLE SPEED 19 318KBTU/HR 8.21EER, Design Size Rated Air Flow Rate [m3/s], 5.62393
 Component Sizing Information, Coil:Cooling:DX:SingleSpeed, COIL COOLING DX SINGLE SPEED 19 318KBTU/HR 8.21EER, Design Size Gross Rated Total Cooling Capacity [W], 93096.07983
 Component Sizing Information, Coil:Cooling:DX:SingleSpeed, COIL COOLING DX SINGLE SPEED 19 318KBTU/HR 8.21EER, Design Size Gross Rated Sensible Heat Ratio, 0.80066
 DX Cooling Coil Standard Rating Information, Coil:Cooling:DX:SingleSpeed, COIL COOLING DX SINGLE SPEED 19 318KBTU/HR 8.21EER, 88724.5, 2.49, 8.51, 8.99, 8.58
 Component Sizing Information, Coil:Heating:Fuel, COIL HEATING GAS 19, Design Size Nominal Capacity [W], 197617.17671
 Component Sizing Information, Fan:ConstantVolume, FAN CONSTANT VOLUME 19, Design Size Maximum Flow Rate [m3/s], 5.62393
 Component Sizing Information, Controller:OutdoorAir, CONTROLLER OUTDOOR AIR 9, Maximum Outdoor Air Flow Rate [m3/s], 2.12187
 Component Sizing Information, Controller:OutdoorAir, CONTROLLER OUTDOOR AIR 9, Minimum Outdoor Air Flow Rate [m3/s], 0.66675
 Component Sizing Information, Coil:Cooling:DX:SingleSpeed, COIL COOLING DX SINGLE SPEED 9 120KBTU/HR 9.26EER, Design Size Rated Air Flow Rate [m3/s], 2.12187
 Component Sizing Information, Coil:Cooling:DX:SingleSpeed, COIL COOLING DX SINGLE SPEED 9 120KBTU/HR 9.26EER, Design Size Gross Rated Total Cooling Capacity [W], 35124.53277
 Component Sizing Information, Coil:Cooling:DX:SingleSpeed, COIL COOLING DX SINGLE SPEED 9 120KBTU/HR 9.26EER, Design Size Gross Rated Sensible Heat Ratio, 0.80066
 DX Cooling Coil Standard Rating Information, Coil:Cooling:DX:SingleSpeed, COIL COOLING DX SINGLE SPEED 9 120KBTU/HR 9.26EER, 33475.2, 2.67, 9.10, 9.60, 9.11
 Component Sizing Information, Coil:Heating:Fuel, COIL HEATING GAS 9, Design Size Nominal Capacity [W], 97241.09033
 Component Sizing Information, Fan:ConstantVolume, FAN CONSTANT VOLUME 9, Design Size Maximum Flow Rate [m3/s], 2.12187
 Component Sizing Information, Controller:OutdoorAir, CONTROLLER OUTDOOR AIR 3, Maximum Outdoor Air Flow Rate [m3/s], 0.93454
 Component Sizing Information, Controller:OutdoorAir, CONTROLLER OUTDOOR AIR 3, Minimum Outdoor Air Flow Rate [m3/s], 0.66675
 Component Sizing Information, Coil:Cooling:DX:SingleSpeed, COIL COOLING DX SINGLE SPEED 3 53KBTU/HR 14.0SEER, Design Size Rated Air Flow Rate [m3/s], 0.93454
 Component Sizing Information, Coil:Cooling:DX:SingleSpeed, COIL COOLING DX SINGLE SPEED 3 53KBTU/HR 14.0SEER, Design Size Gross Rated Total Cooling Capacity [W], 15469.89414
 Component Sizing Information, Coil:Cooling:DX:SingleSpeed, COIL COOLING DX SINGLE SPEED 3 53KBTU/HR 14.0SEER, Design Size Gross Rated Sensible Heat Ratio, 0.80066
 DX Cooling Coil Standard Rating Information, Coil:Cooling:DX:SingleSpeed, COIL COOLING DX SINGLE SPEED 3 53KBTU/HR 14.0SEER, 14743.5, 3.09, 10.55, 11.12, 10.40
 Component Sizing Information, Coil:Heating:Fuel, COIL HEATING GAS 3, Design Size Nominal Capacity [W], 67669.55883
 Component Sizing Information, Fan:ConstantVolume, FAN CONSTANT VOLUME 3, Design Size Maximum Flow Rate [m3/s], 0.93454
 Component Sizing Information, Controller:OutdoorAir, CONTROLLER OUTDOOR AIR 10, Maximum Outdoor Air Flow Rate [m3/s], 2.47228
 Component Sizing Information, Controller:OutdoorAir, CONTROLLER OUTDOOR AIR 10, Minimum Outdoor Air Flow Rate [m3/s], 0.66675
 Component Sizing Information, Coil:Cooling:DX:SingleSpeed, COIL COOLING DX SINGLE SPEED 10 140KBTU/HR 9.08EER, Design Size Rated Air Flow Rate [m3/s], 2.47228
 Component Sizing Information, Coil:Cooling:DX:SingleSpeed, COIL COOLING DX SINGLE SPEED 10 140KBTU/HR 9.08EER, Design Size Gross Rated Total Cooling Capacity [W], 40925.05740
 Component Sizing Information, Coil:Cooling:DX:SingleSpeed, COIL COOLING DX SINGLE SPEED 10 140KBTU/HR 9.08EER, Design Size Gross Rated Sensible Heat Ratio, 0.80066
 DX Cooling Coil Standard Rating Information, Coil:Cooling:DX:SingleSpeed, COIL COOLING DX SINGLE SPEED 10 140KBTU/HR 9.08EER, 39003.3, 2.63, 8.98, 9.48, 9.00
 Component Sizing Information, Coil:Heating:Fuel, COIL HEATING GAS 10, Design Size Nominal Capacity [W], 105493.81546
 Component Sizing Information, Fan:ConstantVolume, FAN CONSTANT VOLUME 10, Design Size Maximum Flow Rate [m3/s], 2.47228
Water Heater Information,WaterHeater:Mixed,183GAL NATURALGAS WATER HEATER - 437KBTU/HR 0.804 THERM EFF,0.6937,127928.9,0.925,0.3648
 Component Sizing Information, PlantLoop, HOT WATER LOOP, Maximum Loop Flow Rate [m3/s], 8.33677E-003
 Component Sizing Information, PlantLoop, HOT WATER LOOP, Plant Loop Volume [m3], 1.00041
 Component Sizing Information, Pump:VariableSpeed, PUMP VARIABLE SPEED 1, Design Flow Rate [m3/s], 8.33677E-003
 Component Sizing Information, Pump:VariableSpeed, PUMP VARIABLE SPEED 1, Design Power Consumption [W], 2141.83605
 Component Sizing Information, Boiler:HotWater, PRIMARY BOILER 1912KBTU/HR 0.83 THERMAL EFF, Design Size Nominal Capacity [W], 560333.61500
 Component Sizing Information, Boiler:HotWater, PRIMARY BOILER 1912KBTU/HR 0.83 THERMAL EFF, User-Specified Nominal Capacity [W], 560333.61500
 Component Sizing Information, Boiler:HotWater, PRIMARY BOILER 1912KBTU/HR 0.83 THERMAL EFF, Design Size Design Water Flow Rate [m3/s], 8.33677E-003
 Component Sizing Information, Boiler:HotWater, SECONDARY BOILER 0KBTU/HR 0.85 AFUE, Design Size Nominal Capacity [W], 560333.61500
 Component Sizing Information, Boiler:HotWater, SECONDARY BOILER 0KBTU/HR 0.85 AFUE, User-Specified Nominal Capacity [W], 1.00000E-003
 Component Sizing Information, Boiler:HotWater, SECONDARY BOILER 0KBTU/HR 0.85 AFUE, Design Size Design Water Flow Rate [m3/s], 8.33677E-003
 Component Sizing Information, PlantLoop, MAIN SERVICE WATER LOOP, Maximum Loop Flow Rate [m3/s], 2.68881E-004
 Component Sizing Information, PlantLoop, MAIN SERVICE WATER LOOP, Plant Loop Volume [m3], 3.22657E-002
 Component Sizing Information, Pump:ConstantSpeed, SERVICE WATER LOOP PUMP, Design Flow Rate [m3/s], 2.68881E-004
 Component Sizing Information, Pump:ConstantSpeed, SERVICE WATER LOOP PUMP, Design Power Consumption [W], 59.93213
 Component Sizing Information, WaterHeater:Mixed, 183GAL NATURALGAS WATER HEATER - 437KBTU/HR 0.804 THERM EFF, Use Side Design Flow Rate [m3/s], 2.68881E-004
! <Environment>,Environment Name,Environment Type, Start Date, End Date, Start DayOfWeek, Duration {#days}, Source:Start DayOfWeek,  Use Daylight Saving, Use Holidays, Apply Weekend Holiday Rule,  Use Rain Values, Use Snow Values
! <Environment:Special Days>, Special Day Name, Special Day Type, Source, Start Date, Duration {#days}
! <Environment:Daylight Saving>, Daylight Saving Indicator, Source, Start Date, End Date
! <Environment:WarmupDays>, NumberofWarmupDays
Environment,FORT MCMURRAY AP ANN CLG .4% CONDNS DB=>MWB,SizingPeriod:DesignDay,07/21,07/21,SummerDesignDay,1,N/A,N/A,N/A,N/A,N/A,N/A
Environment:Daylight Saving,No,SizingPeriod:DesignDay
! <Environment:Design Day Data>, Max Dry-Bulb Temp {C}, Temp Range {dC}, Temp Range Ind Type, Hum Ind Value at Max Temp, Hum Ind Type,Pressure {Pa}, Wind Direction {deg CW from N}, Wind Speed {m/s}, Clearness, Rain, Snow
! <Environment:Design Day Misc>,DayOfYear,ASHRAE A Coeff,ASHRAE B Coeff,ASHRAE C Coeff,Solar Constant-Annual Variation,Eq of Time {minutes}, Solar Declination Angle {deg}, Solar Model
Environment:Design Day Data,28.90,12.40,DefaultMultipliers,96969,250,3.7,0.00,No,No
Environment:Design Day Misc,202,1084.4,0.2082,0.1365,1.0,-6.23,20.6,ASHRAETau
Environment:WarmupDays,  7
! <Tabular Report>,Style,Unit Conversion
Tabular Report,HTML,None
! <Warmup Convergence Information>,Zone Name,Environment Type/Name,Average Warmup Temperature Difference {deltaC},Std Dev Warmup Temperature Difference {deltaC},Max Temperature Pass/Fail Convergence,Min Temperature Pass/Fail Convergence,Average Warmup Load Difference {W},Std Dev Warmup Load Difference {W},Heating Load Pass/Fail Convergence,Cooling Load Pass/Fail Convergence
 Warmup Convergence Information,SP-STORAGE GARAGE INTERIOR-SPACE FUNCTION SYS-4 FLR-4 SCH-K HPLCMT-SOUTH ZN,SizingPeriod: FORT MCMURRAY AP ANN CLG .4% CONDNS DB=>MWB,0.1123419024,8.0956251498E-002,Pass,Pass,0.2880530521,1.6929001462,Pass,Pass
 Warmup Convergence Information,SP-STORAGE ROOM < 5 M2-SCH-A-SPACE FUNCTION SYS-4 FLR-4 SCH-A HPLCMT-NORTH ZN,SizingPeriod: FORT MCMURRAY AP ANN CLG .4% CONDNS DB=>MWB,5.0813317514E-002,0.1051992899,Pass,Pass,7.0406722352E-002,0.3626616418,Pass,Pass
 Warmup Convergence Information,SP-STORAGE ROOM < 5 M2-SCH-B-SPACE FUNCTION SYS-4 FLR-4 SCH-B HPLCMT-WEST ZN,SizingPeriod: FORT MCMURRAY AP ANN CLG .4% CONDNS DB=>MWB,4.2575323188E-002,7.4517759729E-002,Pass,Pass,2.7912948525E-002,3.8033474944E-002,Pass,Pass
 Warmup Convergence Information,SP-STORAGE ROOM < 5 M2-SCH-C-SPACE FUNCTION SYS-4 FLR-3 SCH-C HPLCMT-SOUTH ZN,SizingPeriod: FORT MCMURRAY AP ANN CLG .4% CONDNS DB=>MWB,3.3289652231E-002,5.3275404567E-002,Pass,Pass,4.1406719451E-002,0.1386535727,Pass,Pass
 Warmup Convergence Information,SP-STORAGE ROOM < 5 M2-SCH-D-SPACE FUNCTION SYS-4 FLR-3 SCH-D HPLCMT-EAST ZN,SizingPeriod: FORT MCMURRAY AP ANN CLG .4% CONDNS DB=>MWB,2.4299766328E-002,3.8730331931E-002,Pass,Pass,1.7981607929E-002,3.5880118218E-002,Pass,Pass
 Warmup Convergence Information,SP-STORAGE ROOM < 5 M2-SCH-E-SPACE FUNCTION SYS-4 FLR-3 SCH-E HPLCMT-NORTH ZN,SizingPeriod: FORT MCMURRAY AP ANN CLG .4% CONDNS DB=>MWB,3.7394998859E-002,8.5841552333E-002,Pass,Pass,0.1313066657,0.8857332757,Pass,Pass
 Warmup Convergence Information,SP-STORAGE ROOM < 5 M2-SCH-F-SPACE FUNCTION SYS-4 FLR-3 SCH-F HPLCMT-WEST ZN,SizingPeriod: FORT MCMURRAY AP ANN CLG .4% CONDNS DB=>MWB,1.4579029031E-002,2.8728530920E-002,Pass,Pass,2.3639115306E-002,2.9303676013E-002,Pass,Pass
 Warmup Convergence Information,SP-STORAGE ROOM < 5 M2-SCH-G-SPACE FUNCTION SYS-4 FLR-1 SCH-G HPLCMT-WEST ZN,SizingPeriod: FORT MCMURRAY AP ANN CLG .4% CONDNS DB=>MWB,1.0461986023E-002,2.2750016861E-002,Pass,Pass,2.6742371350E-002,8.5473422111E-002,Pass,Pass
 Warmup Convergence Information,SP-STORAGE ROOM < 5 M2-SCH-H-SPACE FUNCTION SYS-4 FLR-1 SCH-H HPLCMT-NORTH ZN,SizingPeriod: FORT MCMURRAY AP ANN CLG .4% CONDNS DB=>MWB,1.4482359383E-005,2.6934660765E-005,Pass,Pass,6.6672046064E-004,4.1218934651E-004,Pass,Pass
 Warmup Convergence Information,SP-STORAGE ROOM < 5 M2-SCH-I-SPACE FUNCTION SYS-4 FLR-4 SCH-I HPLCMT-EAST ZN,SizingPeriod: FORT MCMURRAY AP ANN CLG .4% CONDNS DB=>MWB,0.1560961354,0.4014777292,Pass,Pass,5.4389679219E-002,0.1521612709,Pass,Pass
 Warmup Convergence Information,SP-STORAGE ROOM < 5 M2-SCH-J-SPACE FUNCTION SYS-4 FLR-1 SCH-J HPLCMT-EAST ZN,SizingPeriod: FORT MCMURRAY AP ANN CLG .4% CONDNS DB=>MWB,7.8322723444E-003,1.7952392130E-002,Pass,Pass,1.4755850784E-002,4.5917662046E-002,Pass,Pass
 Warmup Convergence Information,SP-STORAGE ROOM < 5 M2-SCH-K-SPACE FUNCTION SYS-4 FLR-1 SCH-K HPLCMT-CORE ZN,SizingPeriod: FORT MCMURRAY AP ANN CLG .4% CONDNS DB=>MWB,3.8225610819E-002,3.8944221594E-002,Pass,Pass,0.1533382029,0.5285649480,Pass,Pass
 Warmup Convergence Information,SP-STORAGE ROOM <= 5 M2 <= 100 M2-SCH-A-SPACE FUNCTION SYS-4 FLR-3 SCH-A HPLCMT-CORE ZN,SizingPeriod: FORT MCMURRAY AP ANN CLG .4% CONDNS DB=>MWB,2.3599420213E-002,4.3711998053E-002,Pass,Pass,3.8448705634E-002,0.1877657696,Pass,Pass
 Warmup Convergence Information,SP-STORAGE ROOM <= 5 M2 <= 100 M2-SCH-B-SPACE FUNCTION SYS-4 FLR-2 SCH-B HPLCMT-NORTH ZN,SizingPeriod: FORT MCMURRAY AP ANN CLG .4% CONDNS DB=>MWB,1.2272381560E-002,3.0444532052E-002,Pass,Pass,2.5839171622E-002,8.5317144371E-002,Pass,Pass
 Warmup Convergence Information,SP-STORAGE ROOM <= 5 M2 <= 100 M2-SCH-C-SPACE FUNCTION SYS-4 FLR-2 SCH-C HPLCMT-SOUTH ZN,SizingPeriod: FORT MCMURRAY AP ANN CLG .4% CONDNS DB=>MWB,2.3875961581E-002,3.8788858330E-002,Pass,Pass,4.1534922014E-002,0.1457802967,Pass,Pass
 Warmup Convergence Information,SP-STORAGE ROOM <= 5 M2 <= 100 M2-SCH-D-SPACE FUNCTION SYS-4 FLR-2 SCH-D HPLCMT-CORE ZN,SizingPeriod: FORT MCMURRAY AP ANN CLG .4% CONDNS DB=>MWB,1.1498668646E-002,2.0927973446E-002,Pass,Pass,2.1746575781E-002,6.1825260513E-002,Pass,Pass
 Warmup Convergence Information,SP-STORAGE ROOM <= 5 M2 <= 100 M2-SCH-E-SPACE FUNCTION SYS-4 FLR-4 SCH-E HPLCMT-CORE ZN,SizingPeriod: FORT MCMURRAY AP ANN CLG .4% CONDNS DB=>MWB,3.4152187170E-002,6.2851584700E-002,Pass,Pass,0.1429603395,0.6917252889,Pass,Pass
 Warmup Convergence Information,SP-STORAGE ROOM <= 5 M2 <= 100 M2-SCH-F-SPACE FUNCTION SYS-4 FLR-2 SCH-F HPLCMT-EAST ZN,SizingPeriod: FORT MCMURRAY AP ANN CLG .4% CONDNS DB=>MWB,1.2000945316E-002,2.3123064689E-002,Pass,Pass,1.2942596030E-002,1.7158672284E-002,Pass,Pass
 Warmup Convergence Information,SP-STORAGE ROOM <= 5 M2 <= 100 M2-SCH-G-SPACE FUNCTION SYS-4 FLR-1 SCH-G HPLCMT-SOUTH ZN,SizingPeriod: FORT MCMURRAY AP ANN CLG .4% CONDNS DB=>MWB,3.3100257386E-003,8.8433622545E-003,Pass,Pass,2.9587326672E-002,9.6823636940E-002,Pass,Pass
 Warmup Convergence Information,SP-STORAGE ROOM <= 5 M2 <= 100 M2-SCH-H-SPACE FUNCTION SYS-4 FLR-2 SCH-H HPLCMT-WEST ZN,SizingPeriod: FORT MCMURRAY AP ANN CLG .4% CONDNS DB=>MWB,4.6952403988E-003,1.0884853880E-002,Pass,Pass,1.3393304682E-002,1.7528547281E-002,Pass,Pass
Environment,FORT MCMURRAY AP ANN HTG 99.6% CONDNS DB,SizingPeriod:DesignDay,01/21,01/21,WinterDesignDay,1,N/A,N/A,N/A,N/A,N/A,N/A
Environment:Daylight Saving,No,SizingPeriod:DesignDay
Environment:Design Day Data,-36.20,0.00,DefaultMultipliers,96969,90,1.0,0.00,No,No
Environment:Design Day Misc, 21,1229.0,0.1415,5.7310E-002,1.0,-11.15,-20.1,ASHRAEClearSky
Environment:WarmupDays,  6
 Warmup Convergence Information,SP-STORAGE GARAGE INTERIOR-SPACE FUNCTION SYS-4 FLR-4 SCH-K HPLCMT-SOUTH ZN,SizingPeriod: FORT MCMURRAY AP ANN HTG 99.6% CONDNS DB,8.0410379529E-003,4.1653729419E-003,Pass,Pass,0.1474497124,0.4452930464,Pass,Pass
 Warmup Convergence Information,SP-STORAGE ROOM < 5 M2-SCH-A-SPACE FUNCTION SYS-4 FLR-4 SCH-A HPLCMT-NORTH ZN,SizingPeriod: FORT MCMURRAY AP ANN HTG 99.6% CONDNS DB,5.5559541135E-002,0.3163037075,Pass,Pass,4.9463708222E-002,0.1394999766,Pass,Pass
 Warmup Convergence Information,SP-STORAGE ROOM < 5 M2-SCH-B-SPACE FUNCTION SYS-4 FLR-4 SCH-B HPLCMT-WEST ZN,SizingPeriod: FORT MCMURRAY AP ANN HTG 99.6% CONDNS DB,5.5559752793E-002,0.3031792240,Pass,Pass,5.0041144458E-002,0.1614816896,Pass,Pass
 Warmup Convergence Information,SP-STORAGE ROOM < 5 M2-SCH-C-SPACE FUNCTION SYS-4 FLR-3 SCH-C HPLCMT-SOUTH ZN,SizingPeriod: FORT MCMURRAY AP ANN HTG 99.6% CONDNS DB,5.5559268425E-002,0.3023053538,Pass,Pass,0.2244088231,1.5781914199,Pass,Pass
 Warmup Convergence Information,SP-STORAGE ROOM < 5 M2-SCH-D-SPACE FUNCTION SYS-4 FLR-3 SCH-D HPLCMT-EAST ZN,SizingPeriod: FORT MCMURRAY AP ANN HTG 99.6% CONDNS DB,5.5558097000E-002,0.2731231103,Pass,Pass,0.1322359567,0.3643689203,Pass,Pass
 Warmup Convergence Information,SP-STORAGE ROOM < 5 M2-SCH-E-SPACE FUNCTION SYS-4 FLR-3 SCH-E HPLCMT-NORTH ZN,SizingPeriod: FORT MCMURRAY AP ANN HTG 99.6% CONDNS DB,5.5558248384E-002,0.2684187527,Pass,Pass,0.2770880636,1.4343405929,Pass,Pass
 Warmup Convergence Information,SP-STORAGE ROOM < 5 M2-SCH-F-SPACE FUNCTION SYS-4 FLR-3 SCH-F HPLCMT-WEST ZN,SizingPeriod: FORT MCMURRAY AP ANN HTG 99.6% CONDNS DB,5.5559487217E-002,0.2479689374,Pass,Pass,6.7553982187E-002,0.1755248400,Pass,Pass
 Warmup Convergence Information,SP-STORAGE ROOM < 5 M2-SCH-G-SPACE FUNCTION SYS-4 FLR-1 SCH-G HPLCMT-WEST ZN,SizingPeriod: FORT MCMURRAY AP ANN HTG 99.6% CONDNS DB,4.2044703568E-002,0.1554594262,Pass,Pass,9.9895239926E-002,0.4042800359,Pass,Pass
 Warmup Convergence Information,SP-STORAGE ROOM < 5 M2-SCH-H-SPACE FUNCTION SYS-4 FLR-1 SCH-H HPLCMT-NORTH ZN,SizingPeriod: FORT MCMURRAY AP ANN HTG 99.6% CONDNS DB,1.6767711238E-002,8.8235159663E-002,Pass,Pass,1.9317897230E-002,9.3435693583E-002,Pass,Pass
 Warmup Convergence Information,SP-STORAGE ROOM < 5 M2-SCH-I-SPACE FUNCTION SYS-4 FLR-4 SCH-I HPLCMT-EAST ZN,SizingPeriod: FORT MCMURRAY AP ANN HTG 99.6% CONDNS DB,5.5557214583E-002,0.2996743636,Pass,Pass,7.1721550334E-002,0.2484303517,Pass,Pass
 Warmup Convergence Information,SP-STORAGE ROOM < 5 M2-SCH-J-SPACE FUNCTION SYS-4 FLR-1 SCH-J HPLCMT-EAST ZN,SizingPeriod: FORT MCMURRAY AP ANN HTG 99.6% CONDNS DB,5.9680499115E-006,1.1957731438E-005,Pass,Pass,0.1571187270,0.9092338137,Pass,Pass
 Warmup Convergence Information,SP-STORAGE ROOM < 5 M2-SCH-K-SPACE FUNCTION SYS-4 FLR-1 SCH-K HPLCMT-CORE ZN,SizingPeriod: FORT MCMURRAY AP ANN HTG 99.6% CONDNS DB,2.6193891814E-002,4.2616035254E-002,Pass,Pass,2.9237892648E-003,5.0926703798E-003,Pass,Pass
 Warmup Convergence Information,SP-STORAGE ROOM <= 5 M2 <= 100 M2-SCH-A-SPACE FUNCTION SYS-4 FLR-3 SCH-A HPLCMT-CORE ZN,SizingPeriod: FORT MCMURRAY AP ANN HTG 99.6% CONDNS DB,5.7186272928E-002,0.2166184601,Pass,Pass,0.1329279810,0.4297053395,Pass,Pass
 Warmup Convergence Information,SP-STORAGE ROOM <= 5 M2 <= 100 M2-SCH-B-SPACE FUNCTION SYS-4 FLR-2 SCH-B HPLCMT-NORTH ZN,SizingPeriod: FORT MCMURRAY AP ANN HTG 99.6% CONDNS DB,5.6629424120E-002,0.2155482689,Pass,Pass,0.1023365904,0.5329006067,Pass,Pass
 Warmup Convergence Information,SP-STORAGE ROOM <= 5 M2 <= 100 M2-SCH-C-SPACE FUNCTION SYS-4 FLR-2 SCH-C HPLCMT-SOUTH ZN,SizingPeriod: FORT MCMURRAY AP ANN HTG 99.6% CONDNS DB,5.5570342933E-002,0.2581631267,Pass,Pass,0.1189328232,0.5186832047,Pass,Pass
 Warmup Convergence Information,SP-STORAGE ROOM <= 5 M2 <= 100 M2-SCH-D-SPACE FUNCTION SYS-4 FLR-2 SCH-D HPLCMT-CORE ZN,SizingPeriod: FORT MCMURRAY AP ANN HTG 99.6% CONDNS DB,4.4409368589E-002,0.1653782673,Pass,Pass,0.6311474492,5.2624090376,Pass,Pass
 Warmup Convergence Information,SP-STORAGE ROOM <= 5 M2 <= 100 M2-SCH-E-SPACE FUNCTION SYS-4 FLR-4 SCH-E HPLCMT-CORE ZN,SizingPeriod: FORT MCMURRAY AP ANN HTG 99.6% CONDNS DB,5.5569652062E-002,0.3128018277,Pass,Pass,5.4206462196E-002,0.2230911904,Pass,Pass
 Warmup Convergence Information,SP-STORAGE ROOM <= 5 M2 <= 100 M2-SCH-F-SPACE FUNCTION SYS-4 FLR-2 SCH-F HPLCMT-EAST ZN,SizingPeriod: FORT MCMURRAY AP ANN HTG 99.6% CONDNS DB,5.6227759655E-002,0.2309128869,Pass,Pass,7.5211538293E-002,0.2970609825,Pass,Pass
 Warmup Convergence Information,SP-STORAGE ROOM <= 5 M2 <= 100 M2-SCH-G-SPACE FUNCTION SYS-4 FLR-1 SCH-G HPLCMT-SOUTH ZN,SizingPeriod: FORT MCMURRAY AP ANN HTG 99.6% CONDNS DB,4.0584750061E-002,0.1329043440,Pass,Pass,5.7759263354,64.5283434554,Pass,Pass
 Warmup Convergence Information,SP-STORAGE ROOM <= 5 M2 <= 100 M2-SCH-H-SPACE FUNCTION SYS-4 FLR-2 SCH-H HPLCMT-WEST ZN,SizingPeriod: FORT MCMURRAY AP ANN HTG 99.6% CONDNS DB,5.6410927983E-002,0.2249884406,Pass,Pass,0.3655989750,2.6923637046,Pass,Pass
! <Program Control Information:Threads/Parallel Sims>, Threading Supported,Maximum Number of Threads, Env Set Threads (OMP_NUM_THREADS), EP Env Set Threads (EP_OMP_NUM_THREADS), IDF Set Threads, Number of Threads Used (Interior Radiant Exchange), Number Nominal Surfaces, Number Parallel Sims
Program Control:Threads/Parallel Sims, No,1, N/A, N/A, N/A, N/A, N/A, N/A
End of Data
