Program Version,EnergyPlus, Version 9.0.1-bb7ca4f0da, YMD=2019.01.24 13:42
! <Version>, Version ID
 Version, 9.0
! <Timesteps per Hour>, #TimeSteps, Minutes per TimeStep {minutes}
 Timesteps per Hour,  6, 10
! <System Convergence Limits>, Minimum System TimeStep {minutes}, Max HVAC Iterations, Minimum Plant Iterations, Maximum Plant Iterations
 System Convergence Limits, 2, 25, 2, 8
! <Simulation Control>, Do Zone Sizing, Do System Sizing, Do Plant Sizing, Do Design Days, Do Weather Simulation, Do HVAC Sizing Simulation
 Simulation Control, Yes, Yes, Yes, No, Yes, No
! <Output Reporting Tolerances>, Tolerance for Time Heating Setpoint Not Met, Tolerance for Zone Cooling Setpoint Not Met Time
 Output Reporting Tolerances, 0.200, 0.200, 
! <Site:GroundTemperature:BuildingSurface>,Jan{C},Feb{C},Mar{C},Apr{C},May{C},Jun{C},Jul{C},Aug{C},Sep{C},Oct{C},Nov{C},Dec{C}
 Site:GroundTemperature:BuildingSurface,  19.87,  19.79,  19.85,  19.98,  20.18,  22.48,  22.93,  23.03,  23.02,  20.76,  20.24,  20.04
! <Site:GroundTemperature:Shallow>,Jan{C},Feb{C},Mar{C},Apr{C},May{C},Jun{C},Jul{C},Aug{C},Sep{C},Oct{C},Nov{C},Dec{C}
 Site:GroundTemperature:Shallow,  13.00,  13.00,  13.00,  13.00,  13.00,  13.00,  13.00,  13.00,  13.00,  13.00,  13.00,  13.00
! <Site:GroundTemperature:Deep>,Jan{C},Feb{C},Mar{C},Apr{C},May{C},Jun{C},Jul{C},Aug{C},Sep{C},Oct{C},Nov{C},Dec{C}
 Site:GroundTemperature:Deep,  16.00,  16.00,  16.00,  16.00,  16.00,  16.00,  16.00,  16.00,  16.00,  16.00,  16.00,  16.00
! <Site:GroundReflectance>,Jan{dimensionless},Feb{dimensionless},Mar{dimensionless},Apr{dimensionless},May{dimensionless},Jun{dimensionless},Jul{dimensionless},Aug{dimensionless},Sep{dimensionless},Oct{dimensionless},Nov{dimensionless},Dec{dimensionless}
 Site:GroundReflectance,  0.20,  0.20,  0.20,  0.20,  0.20,  0.20,  0.20,  0.20,  0.20,  0.20,  0.20,  0.20
! <Site:GroundReflectance:SnowModifier>, Normal, Daylighting {dimensionless}
 Site:GroundReflectance:SnowModifier,   1.000,   1.000
! <Site:GroundReflectance:Snow>,Jan{dimensionless},Feb{dimensionless},Mar{dimensionless},Apr{dimensionless},May{dimensionless},Jun{dimensionless},Jul{dimensionless},Aug{dimensionless},Sep{dimensionless},Oct{dimensionless},Nov{dimensionless},Dec{dimensionless}
 Site:GroundReflectance:Snow,  0.20,  0.20,  0.20,  0.20,  0.20,  0.20,  0.20,  0.20,  0.20,  0.20,  0.20,  0.20
! <Site:GroundReflectance:Snow:Daylighting>,Jan{dimensionless},Feb{dimensionless},Mar{dimensionless},Apr{dimensionless},May{dimensionless},Jun{dimensionless},Jul{dimensionless},Aug{dimensionless},Sep{dimensionless},Oct{dimensionless},Nov{dimensionless},Dec{dimensionless}
 Site:GroundReflectance:Snow:Daylighting,  0.20,  0.20,  0.20,  0.20,  0.20,  0.20,  0.20,  0.20,  0.20,  0.20,  0.20,  0.20
! <Environment:Weather Station>,Wind Sensor Height Above Ground {m},Wind Speed Profile Exponent {},Wind Speed Profile Boundary Layer Thickness {m},Air Temperature Sensor Height Above Ground {m},Wind Speed Modifier Coefficient-Internal,Temperature Modifier Coefficient-Internal
Environment:Weather Station,10.000,0.140,270.000,1.500,1.586,9.750E-003
! <Site:Location>, Location Name, Latitude {N+/S- Deg}, Longitude {E+/W- Deg},  Time Zone Number {GMT+/-}, Elevation {m},  Standard Pressure at Elevation {Pa}, Standard RhoAir at Elevation
Site:Location,FAIRBANKS INTL ARPT,64.82,-147.85,-9.00,133.00,99737,1.1854
! <Site Water Mains Temperature Information>,Calculation Method{},Water Mains Temperature Schedule Name{},Annual Average Outdoor Air Temperature{C},Maximum Difference In Monthly Average Outdoor Air Temperatures{deltaC},Fixed Default Water Mains Temperature{C}
Site Water Mains Temperature Information,Correlation,NA,-1.53,36.20,NA
! <Building Information>, Building Name,North Axis {deg},Terrain,  Loads Convergence Tolerance Value,Temperature Convergence Tolerance Value,  Solar Distribution,Maximum Number of Warmup Days,Minimum Number of Warmup Days
 Building Information,90.1-2004-MediumOffice-ASHRAE 169-2006-8A created: 2017-01-30 13:56:09 -0700,0.000,City,4.00000E-002,0.20000,FullInteriorAndExterior,25,6
! <Inside Convection Algorithm>, Algorithm {Simple | TARP | CeilingDiffuser | AdaptiveConvectionAlgorithm}
Inside Convection Algorithm,TARP
! <Outside Convection Algorithm>, Algorithm {SimpleCombined | TARP | MoWitt | DOE-2 | AdaptiveConvectionAlgorithm}
Outside Convection Algorithm,TARP
! <Sky Radiance Distribution>, Value {Anisotropic}
Sky Radiance Distribution,Anisotropic
! <Zone Air Solution Algorithm>, Value {ThirdOrderBackwardDifference | AnalyticalSolution | EulerMethod}
 Zone Air Solution Algorithm, ThirdOrderBackwardDifference
! <Zone Air Carbon Dioxide Balance Simulation>, Simulation {Yes/No}, Carbon Dioxide Concentration
 Zone Air Carbon Dioxide Balance Simulation, No,N/A
! <Zone Air Generic Contaminant Balance Simulation>, Simulation {Yes/No}, Generic Contaminant Concentration
 Zone Air Generic Contaminant Balance Simulation, No,N/A
! <Zone Air Mass Flow Balance Simulation>, Enforce Mass Balance, Adjust Zone Mixing, Adjust Zone Infiltration {AddInfiltration | AdjustInfiltration | None}, Infiltration Zones {MixingSourceZonesOnly | AllZones}
 Zone Air Mass Flow Balance Simulation, No,N/A,N/A,N/A
! <HVACSystemRootFindingAlgorithm>, Value {RegulaFalsi | Bisection | BisectionThenRegulaFalsi | RegulaFalsiThenBisection}
 HVACSystemRootFindingAlgorithm, RegulaFalsi
! <Environment:Site Atmospheric Variation>,Wind Speed Profile Exponent {},Wind Speed Profile Boundary Layer Thickness {m},Air Temperature Gradient Coefficient {K/m}
Environment:Site Atmospheric Variation,0.330,460.000,6.500000E-003
! <Surface Geometry>,Starting Corner,Vertex Input Direction,Coordinate System,Daylight Reference Point Coordinate System,Rectangular (Simple) Surface Coordinate System
 Surface Geometry,UpperLeftCorner,Counterclockwise,RelativeCoordinateSystem,RelativeCoordinateSystem,RelativeToZoneOrigin
! <Surface Heat Transfer Algorithm>, Value {CTF - ConductionTransferFunction | EMPD - MoisturePenetrationDepthConductionTransferFunction | CondFD - ConductionFiniteDifference | HAMT - CombinedHeatAndMoistureFiniteElement} - Description,Inside Surface Max Temperature Limit{C}, Surface Convection Coefficient Lower Limit {W/m2-K}, Surface Convection Coefficient Upper Limit {W/m2-K}
Surface Heat Transfer Algorithm, CTF - ConductionTransferFunction,200,0.10,1000.0
! <Shading Summary>, Number of Fixed Detached Shades, Number of Building Detached Shades, Number of Attached Shades
 Shading Summary,0,0,0
! <Zone Summary>, Number of Zones, Number of Zone Surfaces, Number of SubSurfaces
 Zone Summary,18,155,12
! <Zone Information>,Zone Name,North Axis {deg},Origin X-Coordinate {m},Origin Y-Coordinate {m},Origin Z-Coordinate {m},Centroid X-Coordinate {m},Centroid Y-Coordinate {m},Centroid Z-Coordinate {m},Type,Zone Multiplier,Zone List Multiplier,Minimum X {m},Maximum X {m},Minimum Y {m},Maximum Y {m},Minimum Z {m},Maximum Z {m},Ceiling Height {m},Volume {m3},Zone Inside Convection Algorithm {Simple-Detailed-CeilingDiffuser-TrombeWall},Zone Outside Convection Algorithm {Simple-Detailed-Tarp-MoWitt-DOE-2-BLAST}, Floor Area {m2},Exterior Gross Wall Area {m2},Exterior Net Wall Area {m2},Exterior Window Area {m2}, Number of Surfaces, Number of SubSurfaces, Number of Shading SubSurfaces,  Part of Total Building Area
 Zone Information, CORE_BOTTOM ZN,0.0,0.00,0.00,0.00,24.96,16.64,1.37,1,1,1,4.57,45.34,4.57,28.70,0.00,2.74,2.74,2698.04,TARP,TARP,983.54,0.00,0.00,0.00,6,0,0,Yes
 Zone Information, CORE_MID ZN,0.0,0.00,0.00,0.00,24.96,16.64,5.33,1,1,1,4.57,45.34,4.57,28.70,3.96,6.71,2.74,2698.04,TARP,TARP,983.54,0.00,0.00,0.00,6,0,0,Yes
 Zone Information, CORE_TOP ZN,0.0,0.00,0.00,0.00,24.96,16.64,9.30,1,1,1,4.57,45.34,4.57,28.70,7.92,10.67,2.74,2698.04,TARP,TARP,983.54,0.00,0.00,0.00,6,0,0,Yes
 Zone Information, FIRSTFLOOR_PLENUM ZN,0.0,0.00,0.00,0.00,24.96,16.64,3.35,1,1,1,0.00,49.91,0.00,33.27,2.74,3.96,1.22,2024.76,TARP,TARP,1660.73,202.84,202.84,0.00,14,0,0,No
 Zone Information, MIDFLOOR_PLENUM ZN,0.0,0.00,0.00,0.00,24.96,16.64,7.32,1,1,1,0.00,49.91,0.00,33.27,6.71,7.92,1.22,2024.76,TARP,TARP,1660.73,202.84,202.84,0.00,14,0,0,No
 Zone Information, PERIMETER_BOT_ZN_1 ZN,0.0,0.00,0.00,0.00,24.96,2.16,1.37,1,1,1,0.00,49.91,0.00,4.57,0.00,2.74,2.74,568.77,TARP,TARP,207.34,136.92,71.63,65.28,6,1,0,Yes
 Zone Information, PERIMETER_BOT_ZN_2 ZN,0.0,0.00,0.00,0.00,47.82,16.64,1.37,1,1,1,45.34,49.91,0.00,33.27,0.00,2.74,2.74,360.08,TARP,TARP,131.26,91.28,47.75,43.52,6,1,0,Yes
 Zone Information, PERIMETER_BOT_ZN_3 ZN,0.0,0.00,0.00,0.00,24.96,31.11,1.37,1,1,1,0.00,49.91,28.70,33.27,0.00,2.74,2.74,568.77,TARP,TARP,207.34,136.92,71.63,65.28,6,1,0,Yes
 Zone Information, PERIMETER_BOT_ZN_4 ZN,0.0,0.00,0.00,0.00,2.09,16.64,1.37,1,1,1,0.00,4.57,0.00,33.27,0.00,2.74,2.74,360.05,TARP,TARP,131.25,91.28,47.75,43.52,6,1,0,Yes
 Zone Information, PERIMETER_MID_ZN_1 ZN,0.0,0.00,0.00,0.00,24.96,2.16,5.33,1,1,1,0.00,49.91,0.00,4.57,3.96,6.71,2.74,568.77,TARP,TARP,207.34,136.92,71.63,65.28,6,1,0,Yes
 Zone Information, PERIMETER_MID_ZN_2 ZN,0.0,0.00,0.00,0.00,47.82,16.64,5.33,1,1,1,45.34,49.91,0.00,33.27,3.96,6.71,2.74,360.08,TARP,TARP,131.26,91.28,47.75,43.52,6,1,0,Yes
 Zone Information, PERIMETER_MID_ZN_3 ZN,0.0,0.00,0.00,0.00,24.96,31.11,5.33,1,1,1,0.00,49.91,28.70,33.27,3.96,6.71,2.74,568.77,TARP,TARP,207.34,136.92,71.63,65.28,6,1,0,Yes
 Zone Information, PERIMETER_MID_ZN_4 ZN,0.0,0.00,0.00,0.00,2.09,16.64,5.33,1,1,1,0.00,4.57,0.00,33.27,3.96,6.71,2.74,360.05,TARP,TARP,131.25,91.28,47.75,43.52,6,1,0,Yes
 Zone Information, PERIMETER_TOP_ZN_1 ZN,0.0,0.00,0.00,0.00,24.96,2.16,9.30,1,1,1,0.00,49.91,0.00,4.57,7.92,10.67,2.74,568.77,TARP,TARP,207.34,136.92,71.63,65.28,6,1,0,Yes
 Zone Information, PERIMETER_TOP_ZN_2 ZN,0.0,0.00,0.00,0.00,47.82,16.64,9.30,1,1,1,45.34,49.91,0.00,33.27,7.92,10.67,2.74,360.08,TARP,TARP,131.26,91.28,47.75,43.52,6,1,0,Yes
 Zone Information, PERIMETER_TOP_ZN_3 ZN,0.0,0.00,0.00,0.00,24.96,31.11,9.30,1,1,1,0.00,49.91,28.70,33.27,7.92,10.67,2.74,568.77,TARP,TARP,207.34,136.92,71.63,65.28,6,1,0,Yes
 Zone Information, PERIMETER_TOP_ZN_4 ZN,0.0,0.00,0.00,0.00,2.09,16.64,9.30,1,1,1,0.00,4.57,0.00,33.27,7.92,10.67,2.74,360.05,TARP,TARP,131.25,91.28,47.75,43.52,6,1,0,Yes
 Zone Information, TOPFLOOR_PLENUM ZN,0.0,0.00,0.00,0.00,24.96,16.64,11.28,1,1,1,0.00,49.91,0.00,33.27,10.67,11.89,1.22,2024.76,TARP,TARP,1660.73,202.84,202.84,0.00,10,0,0,No
! <Zone Internal Gains Nominal>,Zone Name, Floor Area {m2},# Occupants,Area per Occupant {m2/person},Occupant per Area {person/m2},Interior Lighting {W/m2},Electric Load {W/m2},Gas Load {W/m2},Other Load {W/m2},Hot Water Eq {W/m2},Steam Equipment {W/m2},Sum Loads per Area {W/m2},Outdoor Controlled Baseboard Heat
 Zone Internal Gains Nominal, CORE_BOTTOM ZN,983.54,52.9,18.581,5.382E-002,10.764,41.053,0.000,0.000,0.000,0.000,51.817,No
 Zone Internal Gains Nominal, CORE_MID ZN,983.54,52.9,18.581,5.382E-002,10.764,8.073,0.000,0.000,0.000,0.000,18.837,No
 Zone Internal Gains Nominal, CORE_TOP ZN,983.54,52.9,18.581,5.382E-002,10.764,8.073,0.000,0.000,0.000,0.000,18.837,No
 Zone Internal Gains Nominal, FIRSTFLOOR_PLENUM ZN,1660.73,0.0,N/A,0.000,0.000,0.000,0.000,0.000,0.000,0.000,0.000,No
 Zone Internal Gains Nominal, MIDFLOOR_PLENUM ZN,1660.73,0.0,N/A,0.000,0.000,0.000,0.000,0.000,0.000,0.000,0.000,No
 Zone Internal Gains Nominal, PERIMETER_BOT_ZN_1 ZN,207.34,11.2,18.581,5.382E-002,10.764,8.073,0.000,0.000,0.000,0.000,18.837,No
 Zone Internal Gains Nominal, PERIMETER_BOT_ZN_2 ZN,131.26,7.1,18.581,5.382E-002,10.764,8.073,0.000,0.000,0.000,0.000,18.837,No
 Zone Internal Gains Nominal, PERIMETER_BOT_ZN_3 ZN,207.34,11.2,18.581,5.382E-002,10.764,8.073,0.000,0.000,0.000,0.000,18.837,No
 Zone Internal Gains Nominal, PERIMETER_BOT_ZN_4 ZN,131.25,7.1,18.581,5.382E-002,10.764,8.073,0.000,0.000,0.000,0.000,18.837,No
 Zone Internal Gains Nominal, PERIMETER_MID_ZN_1 ZN,207.34,11.2,18.581,5.382E-002,10.764,8.073,0.000,0.000,0.000,0.000,18.837,No
 Zone Internal Gains Nominal, PERIMETER_MID_ZN_2 ZN,131.26,7.1,18.581,5.382E-002,10.764,8.073,0.000,0.000,0.000,0.000,18.837,No
 Zone Internal Gains Nominal, PERIMETER_MID_ZN_3 ZN,207.34,11.2,18.581,5.382E-002,10.764,8.073,0.000,0.000,0.000,0.000,18.837,No
 Zone Internal Gains Nominal, PERIMETER_MID_ZN_4 ZN,131.25,7.1,18.581,5.382E-002,10.764,8.073,0.000,0.000,0.000,0.000,18.837,No
 Zone Internal Gains Nominal, PERIMETER_TOP_ZN_1 ZN,207.34,11.2,18.581,5.382E-002,10.764,8.073,0.000,0.000,0.000,0.000,18.837,No
 Zone Internal Gains Nominal, PERIMETER_TOP_ZN_2 ZN,131.26,7.1,18.581,5.382E-002,10.764,8.073,0.000,0.000,0.000,0.000,18.837,No
 Zone Internal Gains Nominal, PERIMETER_TOP_ZN_3 ZN,207.34,11.2,18.581,5.382E-002,10.764,8.073,0.000,0.000,0.000,0.000,18.837,No
 Zone Internal Gains Nominal, PERIMETER_TOP_ZN_4 ZN,131.25,7.1,18.581,5.382E-002,10.764,8.073,0.000,0.000,0.000,0.000,18.837,No
 Zone Internal Gains Nominal, TOPFLOOR_PLENUM ZN,1660.73,0.0,N/A,0.000,0.000,0.000,0.000,0.000,0.000,0.000,0.000,No
! <People Internal Gains Nominal>,Name,Schedule Name,Zone Name,Zone Floor Area {m2},# Zone Occupants,Number of People {},People/Floor Area {person/m2},Floor Area per person {m2/person},Fraction Radiant,Fraction Convected,Sensible Fraction Calculation,Activity level,ASHRAE 55 Warnings,Carbon Dioxide Generation Rate,Nominal Minimum Number of People,Nominal Maximum Number of People
 People Internal Gains Nominal, CORE_BOTTOM ZN OFFICE WHOLEBUILDING - MD OFFICE PEOPLE,OFFICEMEDIUM BLDG_OCC_SCH,CORE_BOTTOM ZN,983.54,52.9,52.9,5.382E-002,18.581,0.300,0.700,AutoCalculate,OFFICEMEDIUM ACTIVITY_SCH,No,3.8200E-008,0,53
 People Internal Gains Nominal, CORE_MID ZN OFFICE WHOLEBUILDING - MD OFFICE PEOPLE,OFFICEMEDIUM BLDG_OCC_SCH,CORE_MID ZN,983.54,52.9,52.9,5.382E-002,18.581,0.300,0.700,AutoCalculate,OFFICEMEDIUM ACTIVITY_SCH,No,3.8200E-008,0,53
 People Internal Gains Nominal, CORE_TOP ZN OFFICE WHOLEBUILDING - MD OFFICE PEOPLE,OFFICEMEDIUM BLDG_OCC_SCH,CORE_TOP ZN,983.54,52.9,52.9,5.382E-002,18.581,0.300,0.700,AutoCalculate,OFFICEMEDIUM ACTIVITY_SCH,No,3.8200E-008,0,53
 People Internal Gains Nominal, PERIMETER_BOT_ZN_1 ZN OFFICE WHOLEBUILDING - MD OFFICE PEOPLE,OFFICEMEDIUM BLDG_OCC_SCH,PERIMETER_BOT_ZN_1 ZN,207.34,11.2,11.2,5.382E-002,18.581,0.300,0.700,AutoCalculate,OFFICEMEDIUM ACTIVITY_SCH,No,3.8200E-008,0,11
 People Internal Gains Nominal, PERIMETER_BOT_ZN_2 ZN OFFICE WHOLEBUILDING - MD OFFICE PEOPLE,OFFICEMEDIUM BLDG_OCC_SCH,PERIMETER_BOT_ZN_2 ZN,131.26,7.1,7.1,5.382E-002,18.581,0.300,0.700,AutoCalculate,OFFICEMEDIUM ACTIVITY_SCH,No,3.8200E-008,0,7
 People Internal Gains Nominal, PERIMETER_BOT_ZN_3 ZN OFFICE WHOLEBUILDING - MD OFFICE PEOPLE,OFFICEMEDIUM BLDG_OCC_SCH,PERIMETER_BOT_ZN_3 ZN,207.34,11.2,11.2,5.382E-002,18.581,0.300,0.700,AutoCalculate,OFFICEMEDIUM ACTIVITY_SCH,No,3.8200E-008,0,11
 People Internal Gains Nominal, PERIMETER_BOT_ZN_4 ZN OFFICE WHOLEBUILDING - MD OFFICE PEOPLE,OFFICEMEDIUM BLDG_OCC_SCH,PERIMETER_BOT_ZN_4 ZN,131.25,7.1,7.1,5.382E-002,18.581,0.300,0.700,AutoCalculate,OFFICEMEDIUM ACTIVITY_SCH,No,3.8200E-008,0,7
 People Internal Gains Nominal, PERIMETER_MID_ZN_1 ZN OFFICE WHOLEBUILDING - MD OFFICE PEOPLE,OFFICEMEDIUM BLDG_OCC_SCH,PERIMETER_MID_ZN_1 ZN,207.34,11.2,11.2,5.382E-002,18.581,0.300,0.700,AutoCalculate,OFFICEMEDIUM ACTIVITY_SCH,No,3.8200E-008,0,11
 People Internal Gains Nominal, PERIMETER_MID_ZN_2 ZN OFFICE WHOLEBUILDING - MD OFFICE PEOPLE,OFFICEMEDIUM BLDG_OCC_SCH,PERIMETER_MID_ZN_2 ZN,131.26,7.1,7.1,5.382E-002,18.581,0.300,0.700,AutoCalculate,OFFICEMEDIUM ACTIVITY_SCH,No,3.8200E-008,0,7
 People Internal Gains Nominal, PERIMETER_MID_ZN_3 ZN OFFICE WHOLEBUILDING - MD OFFICE PEOPLE,OFFICEMEDIUM BLDG_OCC_SCH,PERIMETER_MID_ZN_3 ZN,207.34,11.2,11.2,5.382E-002,18.581,0.300,0.700,AutoCalculate,OFFICEMEDIUM ACTIVITY_SCH,No,3.8200E-008,0,11
 People Internal Gains Nominal, PERIMETER_MID_ZN_4 ZN OFFICE WHOLEBUILDING - MD OFFICE PEOPLE,OFFICEMEDIUM BLDG_OCC_SCH,PERIMETER_MID_ZN_4 ZN,131.25,7.1,7.1,5.382E-002,18.581,0.300,0.700,AutoCalculate,OFFICEMEDIUM ACTIVITY_SCH,No,3.8200E-008,0,7
 People Internal Gains Nominal, PERIMETER_TOP_ZN_1 ZN OFFICE WHOLEBUILDING - MD OFFICE PEOPLE,OFFICEMEDIUM BLDG_OCC_SCH,PERIMETER_TOP_ZN_1 ZN,207.34,11.2,11.2,5.382E-002,18.581,0.300,0.700,AutoCalculate,OFFICEMEDIUM ACTIVITY_SCH,No,3.8200E-008,0,11
 People Internal Gains Nominal, PERIMETER_TOP_ZN_2 ZN OFFICE WHOLEBUILDING - MD OFFICE PEOPLE,OFFICEMEDIUM BLDG_OCC_SCH,PERIMETER_TOP_ZN_2 ZN,131.26,7.1,7.1,5.382E-002,18.581,0.300,0.700,AutoCalculate,OFFICEMEDIUM ACTIVITY_SCH,No,3.8200E-008,0,7
 People Internal Gains Nominal, PERIMETER_TOP_ZN_3 ZN OFFICE WHOLEBUILDING - MD OFFICE PEOPLE,OFFICEMEDIUM BLDG_OCC_SCH,PERIMETER_TOP_ZN_3 ZN,207.34,11.2,11.2,5.382E-002,18.581,0.300,0.700,AutoCalculate,OFFICEMEDIUM ACTIVITY_SCH,No,3.8200E-008,0,11
 People Internal Gains Nominal, PERIMETER_TOP_ZN_4 ZN OFFICE WHOLEBUILDING - MD OFFICE PEOPLE,OFFICEMEDIUM BLDG_OCC_SCH,PERIMETER_TOP_ZN_4 ZN,131.25,7.1,7.1,5.382E-002,18.581,0.300,0.700,AutoCalculate,OFFICEMEDIUM ACTIVITY_SCH,No,3.8200E-008,0,7
! <Lights Internal Gains Nominal>,Name,Schedule Name,Zone Name,Zone Floor Area {m2},# Zone Occupants,Lighting Level {W},Lights/Floor Area {W/m2},Lights per person {W/person},Fraction Return Air,Fraction Radiant,Fraction Short Wave,Fraction Convected,Fraction Replaceable,End-Use Category,Nominal Minimum Lighting Level {W},Nominal Maximum Lighting Level {W}
 Lights Internal Gains Nominal, CORE_BOTTOM ZN OFFICE WHOLEBUILDING - MD OFFICE LIGHTS,OFFICEMEDIUM BLDG_LIGHT_SCH_2004,CORE_BOTTOM ZN,983.54,52.9,10586.700,10.764,200.000,0.000,0.700,0.200,0.100,1.000,General,0.000,10586.700
 Lights Internal Gains Nominal, CORE_MID ZN OFFICE WHOLEBUILDING - MD OFFICE LIGHTS,OFFICEMEDIUM BLDG_LIGHT_SCH_2004,CORE_MID ZN,983.54,52.9,10586.700,10.764,200.000,0.000,0.700,0.200,0.100,1.000,General,0.000,10586.700
 Lights Internal Gains Nominal, CORE_TOP ZN OFFICE WHOLEBUILDING - MD OFFICE LIGHTS,OFFICEMEDIUM BLDG_LIGHT_SCH_2004,CORE_TOP ZN,983.54,52.9,10586.700,10.764,200.000,0.000,0.700,0.200,0.100,1.000,General,0.000,10586.700
 Lights Internal Gains Nominal, PERIMETER_BOT_ZN_1 ZN OFFICE WHOLEBUILDING - MD OFFICE LIGHTS,OFFICEMEDIUM BLDG_LIGHT_SCH_2004,PERIMETER_BOT_ZN_1 ZN,207.34,11.2,2231.769,10.764,200.000,0.000,0.700,0.200,0.100,1.000,General,0.000,2231.769
 Lights Internal Gains Nominal, PERIMETER_BOT_ZN_2 ZN OFFICE WHOLEBUILDING - MD OFFICE LIGHTS,OFFICEMEDIUM BLDG_LIGHT_SCH_2004,PERIMETER_BOT_ZN_2 ZN,131.26,7.1,1412.894,10.764,200.000,0.000,0.700,0.200,0.100,1.000,General,0.000,1412.894
 Lights Internal Gains Nominal, PERIMETER_BOT_ZN_3 ZN OFFICE WHOLEBUILDING - MD OFFICE LIGHTS,OFFICEMEDIUM BLDG_LIGHT_SCH_2004,PERIMETER_BOT_ZN_3 ZN,207.34,11.2,2231.769,10.764,200.000,0.000,0.700,0.200,0.100,1.000,General,0.000,2231.769
 Lights Internal Gains Nominal, PERIMETER_BOT_ZN_4 ZN OFFICE WHOLEBUILDING - MD OFFICE LIGHTS,OFFICEMEDIUM BLDG_LIGHT_SCH_2004,PERIMETER_BOT_ZN_4 ZN,131.25,7.1,1412.802,10.764,200.000,0.000,0.700,0.200,0.100,1.000,General,0.000,1412.802
 Lights Internal Gains Nominal, PERIMETER_MID_ZN_1 ZN OFFICE WHOLEBUILDING - MD OFFICE LIGHTS,OFFICEMEDIUM BLDG_LIGHT_SCH_2004,PERIMETER_MID_ZN_1 ZN,207.34,11.2,2231.769,10.764,200.000,0.000,0.700,0.200,0.100,1.000,General,0.000,2231.769
 Lights Internal Gains Nominal, PERIMETER_MID_ZN_2 ZN OFFICE WHOLEBUILDING - MD OFFICE LIGHTS,OFFICEMEDIUM BLDG_LIGHT_SCH_2004,PERIMETER_MID_ZN_2 ZN,131.26,7.1,1412.894,10.764,200.000,0.000,0.700,0.200,0.100,1.000,General,0.000,1412.894
 Lights Internal Gains Nominal, PERIMETER_MID_ZN_3 ZN OFFICE WHOLEBUILDING - MD OFFICE LIGHTS,OFFICEMEDIUM BLDG_LIGHT_SCH_2004,PERIMETER_MID_ZN_3 ZN,207.34,11.2,2231.769,10.764,200.000,0.000,0.700,0.200,0.100,1.000,General,0.000,2231.769
 Lights Internal Gains Nominal, PERIMETER_MID_ZN_4 ZN OFFICE WHOLEBUILDING - MD OFFICE LIGHTS,OFFICEMEDIUM BLDG_LIGHT_SCH_2004,PERIMETER_MID_ZN_4 ZN,131.25,7.1,1412.802,10.764,200.000,0.000,0.700,0.200,0.100,1.000,General,0.000,1412.802
 Lights Internal Gains Nominal, PERIMETER_TOP_ZN_1 ZN OFFICE WHOLEBUILDING - MD OFFICE LIGHTS,OFFICEMEDIUM BLDG_LIGHT_SCH_2004,PERIMETER_TOP_ZN_1 ZN,207.34,11.2,2231.769,10.764,200.000,0.000,0.700,0.200,0.100,1.000,General,0.000,2231.769
 Lights Internal Gains Nominal, PERIMETER_TOP_ZN_2 ZN OFFICE WHOLEBUILDING - MD OFFICE LIGHTS,OFFICEMEDIUM BLDG_LIGHT_SCH_2004,PERIMETER_TOP_ZN_2 ZN,131.26,7.1,1412.894,10.764,200.000,0.000,0.700,0.200,0.100,1.000,General,0.000,1412.894
 Lights Internal Gains Nominal, PERIMETER_TOP_ZN_3 ZN OFFICE WHOLEBUILDING - MD OFFICE LIGHTS,OFFICEMEDIUM BLDG_LIGHT_SCH_2004,PERIMETER_TOP_ZN_3 ZN,207.34,11.2,2231.769,10.764,200.000,0.000,0.700,0.200,0.100,1.000,General,0.000,2231.769
 Lights Internal Gains Nominal, PERIMETER_TOP_ZN_4 ZN OFFICE WHOLEBUILDING - MD OFFICE LIGHTS,OFFICEMEDIUM BLDG_LIGHT_SCH_2004,PERIMETER_TOP_ZN_4 ZN,131.25,7.1,1412.802,10.764,200.000,0.000,0.700,0.200,0.100,1.000,General,0.000,1412.802
! <ElectricEquipment Internal Gains Nominal>,Name,Schedule Name,Zone Name,Zone Floor Area {m2},# Zone Occupants,Equipment Level {W},Equipment/Floor Area {W/m2},Equipment per person {W/person},Fraction Latent,Fraction Radiant,Fraction Lost,Fraction Convected,End-Use SubCategory,Nominal Minimum Equipment Level {W},Nominal Maximum Equipment Level {W}
 ElectricEquipment Internal Gains Nominal, 2 ELEVATOR FANS,OFFICEMEDIUM ELEV_LIGHT_FAN_SCH_24_7,CORE_BOTTOM ZN,983.54,52.9,149.450,0.152,2.823,0.000,0.000,0.000,1.000,General,149.450,149.450
 ElectricEquipment Internal Gains Nominal, 2 ELEVATOR LIFT MOTORS,OFFICEMEDIUM BLDG_ELEVATORS,CORE_BOTTOM ZN,983.54,52.9,32110.000,32.647,606.610,0.000,0.000,0.000,1.000,General,0.000,22155.900
 ElectricEquipment Internal Gains Nominal, 2 ELEVATOR LIGHTS,OFFICEMEDIUM ELEV_LIGHT_FAN_SCH_24_7,CORE_BOTTOM ZN,983.54,52.9,177.917,0.181,3.361,0.000,0.000,0.000,1.000,General,177.917,177.917
 ElectricEquipment Internal Gains Nominal, CORE_BOTTOM ZN OFFICE WHOLEBUILDING - MD OFFICE ELEC EQUIP,OFFICEMEDIUM BLDG_EQUIP_SCH_2004,CORE_BOTTOM ZN,983.54,52.9,7940.025,8.073,150.000,0.000,0.500,0.000,0.500,General,0.000,7940.025
 ElectricEquipment Internal Gains Nominal, CORE_MID ZN OFFICE WHOLEBUILDING - MD OFFICE ELEC EQUIP,OFFICEMEDIUM BLDG_EQUIP_SCH_2004,CORE_MID ZN,983.54,52.9,7940.025,8.073,150.000,0.000,0.500,0.000,0.500,General,0.000,7940.025
 ElectricEquipment Internal Gains Nominal, CORE_TOP ZN OFFICE WHOLEBUILDING - MD OFFICE ELEC EQUIP,OFFICEMEDIUM BLDG_EQUIP_SCH_2004,CORE_TOP ZN,983.54,52.9,7940.025,8.073,150.000,0.000,0.500,0.000,0.500,General,0.000,7940.025
 ElectricEquipment Internal Gains Nominal, PERIMETER_BOT_ZN_1 ZN OFFICE WHOLEBUILDING - MD OFFICE ELEC EQUIP,OFFICEMEDIUM BLDG_EQUIP_SCH_2004,PERIMETER_BOT_ZN_1 ZN,207.34,11.2,1673.827,8.073,150.000,0.000,0.500,0.000,0.500,General,0.000,1673.827
 ElectricEquipment Internal Gains Nominal, PERIMETER_BOT_ZN_2 ZN OFFICE WHOLEBUILDING - MD OFFICE ELEC EQUIP,OFFICEMEDIUM BLDG_EQUIP_SCH_2004,PERIMETER_BOT_ZN_2 ZN,131.26,7.1,1059.671,8.073,150.000,0.000,0.500,0.000,0.500,General,0.000,1059.671
 ElectricEquipment Internal Gains Nominal, PERIMETER_BOT_ZN_3 ZN OFFICE WHOLEBUILDING - MD OFFICE ELEC EQUIP,OFFICEMEDIUM BLDG_EQUIP_SCH_2004,PERIMETER_BOT_ZN_3 ZN,207.34,11.2,1673.827,8.073,150.000,0.000,0.500,0.000,0.500,General,0.000,1673.827
 ElectricEquipment Internal Gains Nominal, PERIMETER_BOT_ZN_4 ZN OFFICE WHOLEBUILDING - MD OFFICE ELEC EQUIP,OFFICEMEDIUM BLDG_EQUIP_SCH_2004,PERIMETER_BOT_ZN_4 ZN,131.25,7.1,1059.601,8.073,150.000,0.000,0.500,0.000,0.500,General,0.000,1059.601
 ElectricEquipment Internal Gains Nominal, PERIMETER_MID_ZN_1 ZN OFFICE WHOLEBUILDING - MD OFFICE ELEC EQUIP,OFFICEMEDIUM BLDG_EQUIP_SCH_2004,PERIMETER_MID_ZN_1 ZN,207.34,11.2,1673.827,8.073,150.000,0.000,0.500,0.000,0.500,General,0.000,1673.827
 ElectricEquipment Internal Gains Nominal, PERIMETER_MID_ZN_2 ZN OFFICE WHOLEBUILDING - MD OFFICE ELEC EQUIP,OFFICEMEDIUM BLDG_EQUIP_SCH_2004,PERIMETER_MID_ZN_2 ZN,131.26,7.1,1059.671,8.073,150.000,0.000,0.500,0.000,0.500,General,0.000,1059.671
 ElectricEquipment Internal Gains Nominal, PERIMETER_MID_ZN_3 ZN OFFICE WHOLEBUILDING - MD OFFICE ELEC EQUIP,OFFICEMEDIUM BLDG_EQUIP_SCH_2004,PERIMETER_MID_ZN_3 ZN,207.34,11.2,1673.827,8.073,150.000,0.000,0.500,0.000,0.500,General,0.000,1673.827
 ElectricEquipment Internal Gains Nominal, PERIMETER_MID_ZN_4 ZN OFFICE WHOLEBUILDING - MD OFFICE ELEC EQUIP,OFFICEMEDIUM BLDG_EQUIP_SCH_2004,PERIMETER_MID_ZN_4 ZN,131.25,7.1,1059.601,8.073,150.000,0.000,0.500,0.000,0.500,General,0.000,1059.601
 ElectricEquipment Internal Gains Nominal, PERIMETER_TOP_ZN_1 ZN OFFICE WHOLEBUILDING - MD OFFICE ELEC EQUIP,OFFICEMEDIUM BLDG_EQUIP_SCH_2004,PERIMETER_TOP_ZN_1 ZN,207.34,11.2,1673.827,8.073,150.000,0.000,0.500,0.000,0.500,General,0.000,1673.827
 ElectricEquipment Internal Gains Nominal, PERIMETER_TOP_ZN_2 ZN OFFICE WHOLEBUILDING - MD OFFICE ELEC EQUIP,OFFICEMEDIUM BLDG_EQUIP_SCH_2004,PERIMETER_TOP_ZN_2 ZN,131.26,7.1,1059.671,8.073,150.000,0.000,0.500,0.000,0.500,General,0.000,1059.671
 ElectricEquipment Internal Gains Nominal, PERIMETER_TOP_ZN_3 ZN OFFICE WHOLEBUILDING - MD OFFICE ELEC EQUIP,OFFICEMEDIUM BLDG_EQUIP_SCH_2004,PERIMETER_TOP_ZN_3 ZN,207.34,11.2,1673.827,8.073,150.000,0.000,0.500,0.000,0.500,General,0.000,1673.827
 ElectricEquipment Internal Gains Nominal, PERIMETER_TOP_ZN_4 ZN OFFICE WHOLEBUILDING - MD OFFICE ELEC EQUIP,OFFICEMEDIUM BLDG_EQUIP_SCH_2004,PERIMETER_TOP_ZN_4 ZN,131.25,7.1,1059.601,8.073,150.000,0.000,0.500,0.000,0.500,General,0.000,1059.601
! <Shadowing/Sun Position Calculations Annual Simulations>, Calculation Method, Value {days}, Allowable Number Figures in Shadow Overlap {}, Polygon Clipping Algorithm, Sky Diffuse Modeling Algorithm, External Shading Calculation Method, Output External Shading Calculation Results, Disable Self-Shading Within Shading Zone Groups, Disable Self-Shading From Shading Zone Groups to Other Zones
Shadowing/Sun Position Calculations Annual Simulations,AverageOverDaysInFrequency,7,15000,SutherlandHodgman,SimpleSkyDiffuseModeling,InternalCalculation,No,No,No
! <Water Heater Information>,Type,Name,Volume {m3},Maximum Capacity {W},Standard Rated Recovery Efficiency, Standard Rated Energy Factor
! <ZoneInfiltration Airflow Stats Nominal>,Name,Schedule Name,Zone Name, Zone Floor Area {m2}, # Zone Occupants,Design Volume Flow Rate {m3/s},Volume Flow Rate/Floor Area {m3/s/m2},Volume Flow Rate/Exterior Surface Area {m3/s/m2},ACH - Air Changes per Hour,Equation A - Constant Term Coefficient {},Equation B - Temperature Term Coefficient {1/C},Equation C - Velocity Term Coefficient {s/m}, Equation D - Velocity Squared Term Coefficient {s2/m2}
 ZoneInfiltration Airflow Stats Nominal, FIRSTFLOOR_PLENUM INFILTRATION,ALWAYS ON DISCRETE,FIRSTFLOOR_PLENUM ZN,1660.73,0.0,0.208,1.252E-004,1.025E-003,0.370,0.000,0.000,0.224,0.000
 ZoneInfiltration Airflow Stats Nominal, MIDFLOOR_PLENUM INFILTRATION,ALWAYS ON DISCRETE,MIDFLOOR_PLENUM ZN,1660.73,0.0,0.208,1.252E-004,1.025E-003,0.370,0.000,0.000,0.224,0.000
 ZoneInfiltration Airflow Stats Nominal, PERIMETER_BOT_ZN_1 INFILTRATION,OFFICEMEDIUM INFIL_SCH_PNNL,PERIMETER_BOT_ZN_1 ZN,207.34,11.2,0.140,6.770E-004,1.025E-003,0.888,0.000,0.000,0.224,0.000
 ZoneInfiltration Airflow Stats Nominal, PERIMETER_BOT_ZN_2 INFILTRATION,OFFICEMEDIUM INFIL_SCH_PNNL,PERIMETER_BOT_ZN_2 ZN,131.26,7.1,9.358E-002,7.129E-004,1.025E-003,0.936,0.000,0.000,0.224,0.000
 ZoneInfiltration Airflow Stats Nominal, PERIMETER_BOT_ZN_3 INFILTRATION,OFFICEMEDIUM INFIL_SCH_PNNL,PERIMETER_BOT_ZN_3 ZN,207.34,11.2,0.140,6.770E-004,1.025E-003,0.888,0.000,0.000,0.224,0.000
 ZoneInfiltration Airflow Stats Nominal, PERIMETER_BOT_ZN_4 INFILTRATION,OFFICEMEDIUM INFIL_SCH_PNNL,PERIMETER_BOT_ZN_4 ZN,131.25,7.1,9.358E-002,7.130E-004,1.025E-003,0.936,0.000,0.000,0.224,0.000
 ZoneInfiltration Airflow Stats Nominal, PERIMETER_MID_ZN_1 INFILTRATION,OFFICEMEDIUM INFIL_SCH_PNNL,PERIMETER_MID_ZN_1 ZN,207.34,11.2,0.140,6.770E-004,1.025E-003,0.888,0.000,0.000,0.224,0.000
 ZoneInfiltration Airflow Stats Nominal, PERIMETER_MID_ZN_2 INFILTRATION,OFFICEMEDIUM INFIL_SCH_PNNL,PERIMETER_MID_ZN_2 ZN,131.26,7.1,9.358E-002,7.129E-004,1.025E-003,0.936,0.000,0.000,0.224,0.000
 ZoneInfiltration Airflow Stats Nominal, PERIMETER_MID_ZN_3 INFILTRATION,OFFICEMEDIUM INFIL_SCH_PNNL,PERIMETER_MID_ZN_3 ZN,207.34,11.2,0.140,6.770E-004,1.025E-003,0.888,0.000,0.000,0.224,0.000
 ZoneInfiltration Airflow Stats Nominal, PERIMETER_MID_ZN_4 INFILTRATION,OFFICEMEDIUM INFIL_SCH_PNNL,PERIMETER_MID_ZN_4 ZN,131.25,7.1,9.358E-002,7.130E-004,1.025E-003,0.936,0.000,0.000,0.224,0.000
 ZoneInfiltration Airflow Stats Nominal, PERIMETER_TOP_ZN_1 INFILTRATION,OFFICEMEDIUM INFIL_SCH_PNNL,PERIMETER_TOP_ZN_1 ZN,207.34,11.2,0.140,6.770E-004,1.025E-003,0.888,0.000,0.000,0.224,0.000
 ZoneInfiltration Airflow Stats Nominal, PERIMETER_TOP_ZN_2 INFILTRATION,OFFICEMEDIUM INFIL_SCH_PNNL,PERIMETER_TOP_ZN_2 ZN,131.26,7.1,9.358E-002,7.129E-004,1.025E-003,0.936,0.000,0.000,0.224,0.000
 ZoneInfiltration Airflow Stats Nominal, PERIMETER_TOP_ZN_3 INFILTRATION,OFFICEMEDIUM INFIL_SCH_PNNL,PERIMETER_TOP_ZN_3 ZN,207.34,11.2,0.140,6.770E-004,1.025E-003,0.888,0.000,0.000,0.224,0.000
 ZoneInfiltration Airflow Stats Nominal, PERIMETER_TOP_ZN_4 INFILTRATION,OFFICEMEDIUM INFIL_SCH_PNNL,PERIMETER_TOP_ZN_4 ZN,131.25,7.1,9.358E-002,7.130E-004,1.025E-003,0.936,0.000,0.000,0.224,0.000
 ZoneInfiltration Airflow Stats Nominal, TOPFLOOR_PLENUM INFILTRATION,ALWAYS ON DISCRETE,TOPFLOOR_PLENUM ZN,1660.73,0.0,0.208,1.252E-004,1.116E-004,0.370,0.000,0.000,0.224,0.000
! <AirFlow Model>, Simple
 AirFlow Model, Simple
! <RoomAir Model>, Zone Name, Mixing/Mundt/UCSDDV/UCSDCV/UCSDUFI/UCSDUFE/User Defined
RoomAir Model,CORE_BOTTOM ZN,Mixing/Well-Stirred
RoomAir Model,CORE_MID ZN,Mixing/Well-Stirred
RoomAir Model,CORE_TOP ZN,Mixing/Well-Stirred
RoomAir Model,FIRSTFLOOR_PLENUM ZN,Mixing/Well-Stirred
RoomAir Model,MIDFLOOR_PLENUM ZN,Mixing/Well-Stirred
RoomAir Model,PERIMETER_BOT_ZN_1 ZN,Mixing/Well-Stirred
RoomAir Model,PERIMETER_BOT_ZN_2 ZN,Mixing/Well-Stirred
RoomAir Model,PERIMETER_BOT_ZN_3 ZN,Mixing/Well-Stirred
RoomAir Model,PERIMETER_BOT_ZN_4 ZN,Mixing/Well-Stirred
RoomAir Model,PERIMETER_MID_ZN_1 ZN,Mixing/Well-Stirred
RoomAir Model,PERIMETER_MID_ZN_2 ZN,Mixing/Well-Stirred
RoomAir Model,PERIMETER_MID_ZN_3 ZN,Mixing/Well-Stirred
RoomAir Model,PERIMETER_MID_ZN_4 ZN,Mixing/Well-Stirred
RoomAir Model,PERIMETER_TOP_ZN_1 ZN,Mixing/Well-Stirred
RoomAir Model,PERIMETER_TOP_ZN_2 ZN,Mixing/Well-Stirred
RoomAir Model,PERIMETER_TOP_ZN_3 ZN,Mixing/Well-Stirred
RoomAir Model,PERIMETER_TOP_ZN_4 ZN,Mixing/Well-Stirred
RoomAir Model,TOPFLOOR_PLENUM ZN,Mixing/Well-Stirred
! <AirflowNetwork Model:Control>, No Multizone or Distribution/Multizone with Distribution/Multizone without Distribution/Multizone with Distribution only during Fan Operation
AirflowNetwork Model:Control,NoMultizoneOrDistribution
! <Zone Volume Capacitance Multiplier>, Sensible Heat Capacity Multiplier, Moisture Capacity Multiplier, Carbon Dioxide Capacity Multiplier, Generic Contaminant Capacity Multiplier
Zone Volume Capacitance Multiplier,   1.000 ,   1.000,   1.000,   1.000
! <Load Timesteps in Zone Design Calculation Averaging Window>, Value
 Load Timesteps in Zone Design Calculation Averaging Window,    6
! <Heating Sizing Factor Information>, Sizing Factor ID, Value
 Heating Sizing Factor Information, Global,   1.0000    
! <Cooling Sizing Factor Information>, Sizing Factor ID, Value
 Cooling Sizing Factor Information, Global,   1.0000    
! <Zone Sizing Information>, Zone Name, Load Type, Calc Des Load {W}, User Des Load {W}, Calc Des Air Flow Rate {m3/s}, User Des Air Flow Rate {m3/s}, Design Day Name, Date/Time of Peak, Temperature at Peak {C}, Humidity Ratio at Peak {kgWater/kgDryAir}, Floor Area {m2}, # Occupants, Calc Outdoor Air Flow Rate {m3/s}, Calc DOAS Heat Addition Rate {W}
 Zone Sizing Information, CORE_BOTTOM ZN, Cooling, 45419.41624, 45419.41624, 3.31896, 3.31896, FAIRBANKS INTL ARPT ANN CLG .4% CONDNS DB=>MWB, 7/21 08:00:00, 19.85200, 6.97982E-003, 983.53657, 52.93350, 0.49964, 0.00000
 Zone Sizing Information, CORE_BOTTOM ZN, Heating, 11142.95960, 11142.95960, 0.31800, 0.49964, FAIRBANKS INTL ARPT ANN HTG 99.6% CONDNS DB, 1/21 08:20:00, -41.90000, 6.45023E-005, 983.53657, 52.93350, 0.49964, 0.00000
 Zone Sizing Information, CORE_MID ZN, Cooling, 32641.96303, 32641.96303, 2.38294, 2.38294, FAIRBANKS INTL ARPT ANN CLG .4% CONDNS DB=>MWB, 7/21 08:00:00, 19.85200, 6.97982E-003, 983.53657, 52.93350, 0.49964, 0.00000
 Zone Sizing Information, CORE_MID ZN, Heating, 18116.73713, 18116.73713, 0.51315, 0.51315, FAIRBANKS INTL ARPT ANN HTG 99.6% CONDNS DB, 1/21 08:00:00, -41.90000, 6.45023E-005, 983.53657, 52.93350, 0.49964, 0.00000
 Zone Sizing Information, CORE_TOP ZN, Cooling, 33230.70876, 33230.70876, 2.42605, 2.42605, FAIRBANKS INTL ARPT ANN CLG .4% CONDNS DB=>MWB, 7/21 08:00:00, 19.85200, 6.97982E-003, 983.53657, 52.93350, 0.49964, 0.00000
 Zone Sizing Information, CORE_TOP ZN, Heating, 40836.24145, 40836.24145, 1.16013, 1.16013, FAIRBANKS INTL ARPT ANN HTG 99.6% CONDNS DB, 1/21 08:00:00, -41.90000, 6.45023E-005, 983.53657, 52.93350, 0.49964, 0.00000
 Zone Sizing Information, PERIMETER_BOT_ZN_1 ZN, Cooling, 16595.79669, 16595.79669, 1.22238, 1.22238, FAIRBANKS INTL ARPT ANN CLG .4% CONDNS DB=>MWB, 7/21 14:00:00, 27.40000, 6.97982E-003, 207.33814, 11.15885, 0.10533, 0.00000
 Zone Sizing Information, PERIMETER_BOT_ZN_1 ZN, Heating, 12305.00776, 12305.00776, 0.34982, 0.34982, FAIRBANKS INTL ARPT ANN HTG 99.6% CONDNS DB, 1/21 08:00:00, -41.90000, 6.45023E-005, 207.33814, 11.15885, 0.10533, 0.00000
 Zone Sizing Information, PERIMETER_BOT_ZN_2 ZN, Cooling, 11099.11238, 11099.11238, 0.81751, 0.81751, FAIRBANKS INTL ARPT ANN CLG .4% CONDNS DB=>MWB, 7/21 09:00:00, 21.79000, 6.97982E-003, 131.26219, 7.06447, 6.66812E-002, 0.00000
 Zone Sizing Information, PERIMETER_BOT_ZN_2 ZN, Heating, 8193.50303, 8193.50303, 0.23296, 0.23296, FAIRBANKS INTL ARPT ANN HTG 99.6% CONDNS DB, 1/21 08:00:00, -41.90000, 6.45023E-005, 131.26219, 7.06447, 6.66812E-002, 0.00000
 Zone Sizing Information, PERIMETER_BOT_ZN_3 ZN, Cooling, 7212.55144, 7212.55144, 0.53125, 0.53125, FAIRBANKS INTL ARPT ANN CLG .4% CONDNS DB=>MWB, 7/21 21:00:00, 21.38200, 6.97981E-003, 207.33814, 11.15885, 0.10533, 0.00000
 Zone Sizing Information, PERIMETER_BOT_ZN_3 ZN, Heating, 12164.63352, 12164.63352, 0.34583, 0.34583, FAIRBANKS INTL ARPT ANN HTG 99.6% CONDNS DB, 1/21 08:00:00, -41.90000, 6.45023E-005, 207.33814, 11.15885, 0.10533, 0.00000
 Zone Sizing Information, PERIMETER_BOT_ZN_4 ZN, Cooling, 11062.33384, 11062.33384, 0.81480, 0.81480, FAIRBANKS INTL ARPT ANN CLG .4% CONDNS DB=>MWB, 7/21 18:10:00, 24.69700, 6.97982E-003, 131.25358, 7.06401, 6.66768E-002, 0.00000
 Zone Sizing Information, PERIMETER_BOT_ZN_4 ZN, Heating, 8138.02979, 8138.02979, 0.23138, 0.23138, FAIRBANKS INTL ARPT ANN HTG 99.6% CONDNS DB, 1/21 08:00:00, -41.90000, 6.45023E-005, 131.25358, 7.06401, 6.66768E-002, 0.00000
 Zone Sizing Information, PERIMETER_MID_ZN_1 ZN, Cooling, 18852.49491, 18852.49491, 1.38859, 1.38859, FAIRBANKS INTL ARPT ANN CLG .4% CONDNS DB=>MWB, 7/21 14:00:00, 27.40000, 6.97982E-003, 207.33814, 11.15885, 0.10533, 0.00000
 Zone Sizing Information, PERIMETER_MID_ZN_1 ZN, Heating, 13943.85416, 13943.85416, 0.39649, 0.39649, FAIRBANKS INTL ARPT ANN HTG 99.6% CONDNS DB, 1/21 08:00:00, -41.90000, 6.45023E-005, 207.33814, 11.15885, 0.10533, 0.00000
 Zone Sizing Information, PERIMETER_MID_ZN_2 ZN, Cooling, 12543.36542, 12543.36542, 0.92389, 0.92389, FAIRBANKS INTL ARPT ANN CLG .4% CONDNS DB=>MWB, 7/21 09:00:00, 21.79000, 6.97982E-003, 131.26219, 7.06447, 6.66812E-002, 0.00000
 Zone Sizing Information, PERIMETER_MID_ZN_2 ZN, Heating, 9262.83668, 9262.83668, 0.26341, 0.26341, FAIRBANKS INTL ARPT ANN HTG 99.6% CONDNS DB, 1/21 08:00:00, -41.90000, 6.45023E-005, 131.26219, 7.06447, 6.66812E-002, 0.00000
 Zone Sizing Information, PERIMETER_MID_ZN_3 ZN, Cooling, 9135.90602, 9135.90602, 0.67292, 0.67292, FAIRBANKS INTL ARPT ANN CLG .4% CONDNS DB=>MWB, 7/21 21:00:00, 21.38200, 6.97981E-003, 207.33814, 11.15885, 0.10533, 0.00000
 Zone Sizing Information, PERIMETER_MID_ZN_3 ZN, Heating, 13877.85294, 13877.85294, 0.39461, 0.39461, FAIRBANKS INTL ARPT ANN HTG 99.6% CONDNS DB, 1/21 08:00:00, -41.90000, 6.45023E-005, 207.33814, 11.15885, 0.10533, 0.00000
 Zone Sizing Information, PERIMETER_MID_ZN_4 ZN, Cooling, 12445.57717, 12445.57717, 0.91668, 0.91668, FAIRBANKS INTL ARPT ANN CLG .4% CONDNS DB=>MWB, 7/21 18:10:00, 24.69700, 6.97982E-003, 131.25358, 7.06401, 6.66768E-002, 0.00000
 Zone Sizing Information, PERIMETER_MID_ZN_4 ZN, Heating, 9194.69198, 9194.69198, 0.26147, 0.26147, FAIRBANKS INTL ARPT ANN HTG 99.6% CONDNS DB, 1/21 08:00:00, -41.90000, 6.45023E-005, 131.25358, 7.06401, 6.66768E-002, 0.00000
 Zone Sizing Information, PERIMETER_TOP_ZN_1 ZN, Cooling, 19191.45358, 19191.45358, 1.41355, 1.41355, FAIRBANKS INTL ARPT ANN CLG .4% CONDNS DB=>MWB, 7/21 14:00:00, 27.40000, 6.97982E-003, 207.33814, 11.15885, 0.10533, 0.00000
 Zone Sizing Information, PERIMETER_TOP_ZN_1 ZN, Heating, 18271.70075, 18271.70075, 0.51974, 0.51974, FAIRBANKS INTL ARPT ANN HTG 99.6% CONDNS DB, 1/21 08:00:00, -41.90000, 6.45023E-005, 207.33814, 11.15885, 0.10533, 0.00000
 Zone Sizing Information, PERIMETER_TOP_ZN_2 ZN, Cooling, 12561.07799, 12561.07799, 0.92519, 0.92519, FAIRBANKS INTL ARPT ANN CLG .4% CONDNS DB=>MWB, 7/21 09:10:00, 22.07900, 6.97982E-003, 131.26219, 7.06447, 6.66812E-002, 0.00000
 Zone Sizing Information, PERIMETER_TOP_ZN_2 ZN, Heating, 11994.08668, 11994.08668, 0.34118, 0.34118, FAIRBANKS INTL ARPT ANN HTG 99.6% CONDNS DB, 1/21 08:00:00, -41.90000, 6.45023E-005, 131.26219, 7.06447, 6.66812E-002, 0.00000
 Zone Sizing Information, PERIMETER_TOP_ZN_3 ZN, Cooling, 9803.09324, 9803.09324, 0.72206, 0.72206, FAIRBANKS INTL ARPT ANN CLG .4% CONDNS DB=>MWB, 7/21 21:00:00, 21.38200, 6.97981E-003, 207.33814, 11.15885, 0.10533, 0.00000
 Zone Sizing Information, PERIMETER_TOP_ZN_3 ZN, Heating, 18252.86666, 18252.86666, 0.51920, 0.51920, FAIRBANKS INTL ARPT ANN HTG 99.6% CONDNS DB, 1/21 08:00:00, -41.90000, 6.45023E-005, 207.33814, 11.15885, 0.10533, 0.00000
 Zone Sizing Information, PERIMETER_TOP_ZN_4 ZN, Cooling, 12849.77984, 12849.77984, 0.94645, 0.94645, FAIRBANKS INTL ARPT ANN CLG .4% CONDNS DB=>MWB, 7/21 18:10:00, 24.69700, 6.97982E-003, 131.25358, 7.06401, 6.66768E-002, 0.00000
 Zone Sizing Information, PERIMETER_TOP_ZN_4 ZN, Heating, 11922.21677, 11922.21677, 0.33914, 0.33914, FAIRBANKS INTL ARPT ANN HTG 99.6% CONDNS DB, 1/21 08:00:00, -41.90000, 6.45023E-005, 131.25358, 7.06401, 6.66768E-002, 0.00000
! <System Sizing Information>, System Name, Load Type, Peak Load Kind, User Design Capacity, Calc Des Air Flow Rate [m3/s], User Des Air Flow Rate [m3/s], Design Day Name, Date/Time of Peak
 System Sizing Information, 5 ZONE PVAV, Cooling, Sensible, 73289.03, 5.68169, 5.68169, FAIRBANKS INTL ARPT ANN CLG .4% CONDNS DB=>MWB, 7/21 00:00:00
 System Sizing Information, 5 ZONE PVAV, Heating, Sensible, 98038.54, 1.65962, 1.65962, FAIRBANKS INTL ARPT ANN HTG 99.6% CONDNS DB, 1/21 07:10:00
 System Sizing Information, 5 ZONE PVAV 1, Cooling, Sensible, 67365.03, 5.18283, 5.18283, FAIRBANKS INTL ARPT ANN CLG .4% CONDNS DB=>MWB, 7/21 00:00:00
 System Sizing Information, 5 ZONE PVAV 1, Heating, Sensible, 98091.24, 1.82913, 1.82913, FAIRBANKS INTL ARPT ANN HTG 99.6% CONDNS DB, 1/21 06:40:00
 System Sizing Information, 5 ZONE PVAV 2, Cooling, Sensible, 70407.84, 5.46195, 5.46195, FAIRBANKS INTL ARPT ANN CLG .4% CONDNS DB=>MWB, 7/21 00:00:00
 System Sizing Information, 5 ZONE PVAV 2, Heating, Sensible, 98083.39, 2.87938, 2.87938, FAIRBANKS INTL ARPT ANN HTG 99.6% CONDNS DB, 1/21 05:50:00
! <Component Sizing Information>, Component Type, Component Name, Input Field Description, Value
 Component Sizing Information, AirTerminal:SingleDuct:VAV:Reheat, CORE_BOTTOM ZN VAV TERM, Design Size Maximum Air Flow Rate [m3/s], 3.31896
 Component Sizing Information, AirTerminal:SingleDuct:VAV:Reheat, CORE_BOTTOM ZN VAV TERM, Design Size Constant Minimum Air Flow Fraction, 0.22581
 Component Sizing Information, AirTerminal:SingleDuct:VAV:Reheat, CORE_BOTTOM ZN VAV TERM, User-Specified Constant Minimum Air Flow Fraction, 0.30000
 Component Sizing Information, AirTerminal:SingleDuct:VAV:Reheat, CORE_BOTTOM ZN VAV TERM, Design Size Minimum Air Flow Rate [m3/s], 0.99569
 Component Sizing Information, AirTerminal:SingleDuct:VAV:Reheat, CORE_BOTTOM ZN VAV TERM, Design Size Maximum Flow per Zone Floor Area during Reheat [m3/s-m2], 1.01235E-003
 Component Sizing Information, AirTerminal:SingleDuct:VAV:Reheat, CORE_BOTTOM ZN VAV TERM, Design Size Maximum Flow Fraction during Reheat [], 0.30000
 Component Sizing Information, Coil:Heating:Electric, CORE_BOTTOM ZN RHT COIL, Design Size Nominal Capacity [W], 40119.76277
 Component Sizing Information, AirTerminal:SingleDuct:VAV:Reheat, CORE_MID ZN VAV TERM, Design Size Maximum Air Flow Rate [m3/s], 2.38294
 Component Sizing Information, AirTerminal:SingleDuct:VAV:Reheat, CORE_MID ZN VAV TERM, Design Size Constant Minimum Air Flow Fraction, 0.31451
 Component Sizing Information, AirTerminal:SingleDuct:VAV:Reheat, CORE_MID ZN VAV TERM, User-Specified Constant Minimum Air Flow Fraction, 0.37269
 Component Sizing Information, AirTerminal:SingleDuct:VAV:Reheat, CORE_MID ZN VAV TERM, Design Size Minimum Air Flow Rate [m3/s], 0.88809
 Component Sizing Information, AirTerminal:SingleDuct:VAV:Reheat, CORE_MID ZN VAV TERM, Design Size Maximum Flow per Zone Floor Area during Reheat [m3/s-m2], 9.02953E-004
 Component Sizing Information, AirTerminal:SingleDuct:VAV:Reheat, CORE_MID ZN VAV TERM, Design Size Maximum Flow Fraction during Reheat [], 0.37269
 Component Sizing Information, Coil:Heating:Electric, CORE_MID ZN RHT COIL, Design Size Nominal Capacity [W], 35784.18114
 Component Sizing Information, AirTerminal:SingleDuct:VAV:Reheat, CORE_TOP ZN VAV TERM, Design Size Maximum Air Flow Rate [m3/s], 2.42605
 Component Sizing Information, AirTerminal:SingleDuct:VAV:Reheat, CORE_TOP ZN VAV TERM, Design Size Constant Minimum Air Flow Fraction, 0.30892
 Component Sizing Information, AirTerminal:SingleDuct:VAV:Reheat, CORE_TOP ZN VAV TERM, User-Specified Constant Minimum Air Flow Fraction, 0.37156
 Component Sizing Information, AirTerminal:SingleDuct:VAV:Reheat, CORE_TOP ZN VAV TERM, Design Size Minimum Air Flow Rate [m3/s], 0.90143
 Component Sizing Information, AirTerminal:SingleDuct:VAV:Reheat, CORE_TOP ZN VAV TERM, Design Size Maximum Flow per Zone Floor Area during Reheat [m3/s-m2], 9.16517E-004
 Component Sizing Information, AirTerminal:SingleDuct:VAV:Reheat, CORE_TOP ZN VAV TERM, Design Size Maximum Flow Fraction during Reheat [], 0.37156
 Component Sizing Information, Coil:Heating:Electric, CORE_TOP ZN RHT COIL, Design Size Nominal Capacity [W], 46745.54374
 Component Sizing Information, AirTerminal:SingleDuct:VAV:Reheat, PERIMETER_BOT_ZN_1 ZN VAV TERM, Design Size Maximum Air Flow Rate [m3/s], 1.22238
 Component Sizing Information, AirTerminal:SingleDuct:VAV:Reheat, PERIMETER_BOT_ZN_1 ZN VAV TERM, Design Size Constant Minimum Air Flow Fraction, 0.12925
 Component Sizing Information, AirTerminal:SingleDuct:VAV:Reheat, PERIMETER_BOT_ZN_1 ZN VAV TERM, User-Specified Constant Minimum Air Flow Fraction, 0.30000
 Component Sizing Information, AirTerminal:SingleDuct:VAV:Reheat, PERIMETER_BOT_ZN_1 ZN VAV TERM, Design Size Minimum Air Flow Rate [m3/s], 0.36671
 Component Sizing Information, AirTerminal:SingleDuct:VAV:Reheat, PERIMETER_BOT_ZN_1 ZN VAV TERM, Design Size Maximum Flow per Zone Floor Area during Reheat [m3/s-m2], 1.76867E-003
 Component Sizing Information, AirTerminal:SingleDuct:VAV:Reheat, PERIMETER_BOT_ZN_1 ZN VAV TERM, Design Size Maximum Flow Fraction during Reheat [], 0.30000
 Component Sizing Information, Coil:Heating:Electric, PERIMETER_BOT_ZN_1 ZN RHT COIL, Design Size Nominal Capacity [W], 14776.16745
 Component Sizing Information, AirTerminal:SingleDuct:VAV:Reheat, PERIMETER_BOT_ZN_2 ZN VAV TERM, Design Size Maximum Air Flow Rate [m3/s], 0.81751
 Component Sizing Information, AirTerminal:SingleDuct:VAV:Reheat, PERIMETER_BOT_ZN_2 ZN VAV TERM, Design Size Constant Minimum Air Flow Fraction, 0.12235
 Component Sizing Information, AirTerminal:SingleDuct:VAV:Reheat, PERIMETER_BOT_ZN_2 ZN VAV TERM, User-Specified Constant Minimum Air Flow Fraction, 0.30000
 Component Sizing Information, AirTerminal:SingleDuct:VAV:Reheat, PERIMETER_BOT_ZN_2 ZN VAV TERM, Design Size Minimum Air Flow Rate [m3/s], 0.24525
 Component Sizing Information, AirTerminal:SingleDuct:VAV:Reheat, PERIMETER_BOT_ZN_2 ZN VAV TERM, Design Size Maximum Flow per Zone Floor Area during Reheat [m3/s-m2], 1.86843E-003
 Component Sizing Information, AirTerminal:SingleDuct:VAV:Reheat, PERIMETER_BOT_ZN_2 ZN VAV TERM, Design Size Maximum Flow Fraction during Reheat [], 0.30000
 Component Sizing Information, Coil:Heating:Electric, PERIMETER_BOT_ZN_2 ZN RHT COIL, Design Size Nominal Capacity [W], 9882.14625
 Component Sizing Information, AirTerminal:SingleDuct:VAV:Reheat, PERIMETER_BOT_ZN_3 ZN VAV TERM, Design Size Maximum Air Flow Rate [m3/s], 0.53125
 Component Sizing Information, AirTerminal:SingleDuct:VAV:Reheat, PERIMETER_BOT_ZN_3 ZN VAV TERM, Design Size Constant Minimum Air Flow Fraction, 0.29739
 Component Sizing Information, AirTerminal:SingleDuct:VAV:Reheat, PERIMETER_BOT_ZN_3 ZN VAV TERM, User-Specified Constant Minimum Air Flow Fraction, 0.36163
 Component Sizing Information, AirTerminal:SingleDuct:VAV:Reheat, PERIMETER_BOT_ZN_3 ZN VAV TERM, Design Size Minimum Air Flow Rate [m3/s], 0.19212
 Component Sizing Information, AirTerminal:SingleDuct:VAV:Reheat, PERIMETER_BOT_ZN_3 ZN VAV TERM, Design Size Maximum Flow per Zone Floor Area during Reheat [m3/s-m2], 9.26584E-004
 Component Sizing Information, AirTerminal:SingleDuct:VAV:Reheat, PERIMETER_BOT_ZN_3 ZN VAV TERM, Design Size Maximum Flow Fraction during Reheat [], 0.36163
 Component Sizing Information, Coil:Heating:Electric, PERIMETER_BOT_ZN_3 ZN RHT COIL, Design Size Nominal Capacity [W], 13934.62508
 Component Sizing Information, AirTerminal:SingleDuct:VAV:Reheat, PERIMETER_BOT_ZN_4 ZN VAV TERM, Design Size Maximum Air Flow Rate [m3/s], 0.81480
 Component Sizing Information, AirTerminal:SingleDuct:VAV:Reheat, PERIMETER_BOT_ZN_4 ZN VAV TERM, Design Size Constant Minimum Air Flow Fraction, 0.12275
 Component Sizing Information, AirTerminal:SingleDuct:VAV:Reheat, PERIMETER_BOT_ZN_4 ZN VAV TERM, User-Specified Constant Minimum Air Flow Fraction, 0.30000
 Component Sizing Information, AirTerminal:SingleDuct:VAV:Reheat, PERIMETER_BOT_ZN_4 ZN VAV TERM, Design Size Minimum Air Flow Rate [m3/s], 0.24444
 Component Sizing Information, AirTerminal:SingleDuct:VAV:Reheat, PERIMETER_BOT_ZN_4 ZN VAV TERM, Design Size Maximum Flow per Zone Floor Area during Reheat [m3/s-m2], 1.86236E-003
 Component Sizing Information, AirTerminal:SingleDuct:VAV:Reheat, PERIMETER_BOT_ZN_4 ZN VAV TERM, Design Size Maximum Flow Fraction during Reheat [], 0.30000
 Component Sizing Information, Coil:Heating:Electric, PERIMETER_BOT_ZN_4 ZN RHT COIL, Design Size Nominal Capacity [W], 9849.40580
 Component Sizing Information, AirTerminal:SingleDuct:VAV:Reheat, PERIMETER_MID_ZN_1 ZN VAV TERM, Design Size Maximum Air Flow Rate [m3/s], 1.38859
 Component Sizing Information, AirTerminal:SingleDuct:VAV:Reheat, PERIMETER_MID_ZN_1 ZN VAV TERM, Design Size Constant Minimum Air Flow Fraction, 0.11378
 Component Sizing Information, AirTerminal:SingleDuct:VAV:Reheat, PERIMETER_MID_ZN_1 ZN VAV TERM, User-Specified Constant Minimum Air Flow Fraction, 0.30000
 Component Sizing Information, AirTerminal:SingleDuct:VAV:Reheat, PERIMETER_MID_ZN_1 ZN VAV TERM, Design Size Minimum Air Flow Rate [m3/s], 0.41658
 Component Sizing Information, AirTerminal:SingleDuct:VAV:Reheat, PERIMETER_MID_ZN_1 ZN VAV TERM, Design Size Maximum Flow per Zone Floor Area during Reheat [m3/s-m2], 2.00917E-003
 Component Sizing Information, AirTerminal:SingleDuct:VAV:Reheat, PERIMETER_MID_ZN_1 ZN VAV TERM, Design Size Maximum Flow Fraction during Reheat [], 0.30000
 Component Sizing Information, Coil:Heating:Electric, PERIMETER_MID_ZN_1 ZN RHT COIL, Design Size Nominal Capacity [W], 16785.35750
 Component Sizing Information, AirTerminal:SingleDuct:VAV:Reheat, PERIMETER_MID_ZN_2 ZN VAV TERM, Design Size Maximum Air Flow Rate [m3/s], 0.92389
 Component Sizing Information, AirTerminal:SingleDuct:VAV:Reheat, PERIMETER_MID_ZN_2 ZN VAV TERM, Design Size Constant Minimum Air Flow Fraction, 0.10826
 Component Sizing Information, AirTerminal:SingleDuct:VAV:Reheat, PERIMETER_MID_ZN_2 ZN VAV TERM, User-Specified Constant Minimum Air Flow Fraction, 0.30000
 Component Sizing Information, AirTerminal:SingleDuct:VAV:Reheat, PERIMETER_MID_ZN_2 ZN VAV TERM, Design Size Minimum Air Flow Rate [m3/s], 0.27717
 Component Sizing Information, AirTerminal:SingleDuct:VAV:Reheat, PERIMETER_MID_ZN_2 ZN VAV TERM, Design Size Maximum Flow per Zone Floor Area during Reheat [m3/s-m2], 2.11154E-003
 Component Sizing Information, AirTerminal:SingleDuct:VAV:Reheat, PERIMETER_MID_ZN_2 ZN VAV TERM, Design Size Maximum Flow Fraction during Reheat [], 0.30000
 Component Sizing Information, Coil:Heating:Electric, PERIMETER_MID_ZN_2 ZN RHT COIL, Design Size Nominal Capacity [W], 11167.99136
 Component Sizing Information, AirTerminal:SingleDuct:VAV:Reheat, PERIMETER_MID_ZN_3 ZN VAV TERM, Design Size Maximum Air Flow Rate [m3/s], 0.67292
 Component Sizing Information, AirTerminal:SingleDuct:VAV:Reheat, PERIMETER_MID_ZN_3 ZN VAV TERM, Design Size Constant Minimum Air Flow Fraction, 0.23479
 Component Sizing Information, AirTerminal:SingleDuct:VAV:Reheat, PERIMETER_MID_ZN_3 ZN VAV TERM, User-Specified Constant Minimum Air Flow Fraction, 0.30000
 Component Sizing Information, AirTerminal:SingleDuct:VAV:Reheat, PERIMETER_MID_ZN_3 ZN VAV TERM, Design Size Minimum Air Flow Rate [m3/s], 0.20187
 Component Sizing Information, AirTerminal:SingleDuct:VAV:Reheat, PERIMETER_MID_ZN_3 ZN VAV TERM, Design Size Maximum Flow per Zone Floor Area during Reheat [m3/s-m2], 9.73650E-004
 Component Sizing Information, AirTerminal:SingleDuct:VAV:Reheat, PERIMETER_MID_ZN_3 ZN VAV TERM, Design Size Maximum Flow Fraction during Reheat [], 0.30000
 Component Sizing Information, Coil:Heating:Electric, PERIMETER_MID_ZN_3 ZN RHT COIL, Design Size Nominal Capacity [W], 15900.40324
 Component Sizing Information, AirTerminal:SingleDuct:VAV:Reheat, PERIMETER_MID_ZN_4 ZN VAV TERM, Design Size Maximum Air Flow Rate [m3/s], 0.91668
 Component Sizing Information, AirTerminal:SingleDuct:VAV:Reheat, PERIMETER_MID_ZN_4 ZN VAV TERM, Design Size Constant Minimum Air Flow Fraction, 0.10911
 Component Sizing Information, AirTerminal:SingleDuct:VAV:Reheat, PERIMETER_MID_ZN_4 ZN VAV TERM, User-Specified Constant Minimum Air Flow Fraction, 0.30000
 Component Sizing Information, AirTerminal:SingleDuct:VAV:Reheat, PERIMETER_MID_ZN_4 ZN VAV TERM, Design Size Minimum Air Flow Rate [m3/s], 0.27501
 Component Sizing Information, AirTerminal:SingleDuct:VAV:Reheat, PERIMETER_MID_ZN_4 ZN VAV TERM, Design Size Maximum Flow per Zone Floor Area during Reheat [m3/s-m2], 2.09522E-003
 Component Sizing Information, AirTerminal:SingleDuct:VAV:Reheat, PERIMETER_MID_ZN_4 ZN VAV TERM, Design Size Maximum Flow Fraction during Reheat [], 0.30000
 Component Sizing Information, Coil:Heating:Electric, PERIMETER_MID_ZN_4 ZN RHT COIL, Design Size Nominal Capacity [W], 11080.93357
 Component Sizing Information, AirTerminal:SingleDuct:VAV:Reheat, PERIMETER_TOP_ZN_1 ZN VAV TERM, Design Size Maximum Air Flow Rate [m3/s], 1.41355
 Component Sizing Information, AirTerminal:SingleDuct:VAV:Reheat, PERIMETER_TOP_ZN_1 ZN VAV TERM, Design Size Constant Minimum Air Flow Fraction, 0.11177
 Component Sizing Information, AirTerminal:SingleDuct:VAV:Reheat, PERIMETER_TOP_ZN_1 ZN VAV TERM, User-Specified Constant Minimum Air Flow Fraction, 0.30000
 Component Sizing Information, AirTerminal:SingleDuct:VAV:Reheat, PERIMETER_TOP_ZN_1 ZN VAV TERM, Design Size Minimum Air Flow Rate [m3/s], 0.42407
 Component Sizing Information, AirTerminal:SingleDuct:VAV:Reheat, PERIMETER_TOP_ZN_1 ZN VAV TERM, Design Size Maximum Flow per Zone Floor Area during Reheat [m3/s-m2], 2.04529E-003
 Component Sizing Information, AirTerminal:SingleDuct:VAV:Reheat, PERIMETER_TOP_ZN_1 ZN VAV TERM, Design Size Maximum Flow Fraction during Reheat [], 0.30000
 Component Sizing Information, Coil:Heating:Electric, PERIMETER_TOP_ZN_1 ZN RHT COIL, Design Size Nominal Capacity [W], 20942.00609
 Component Sizing Information, AirTerminal:SingleDuct:VAV:Reheat, PERIMETER_TOP_ZN_2 ZN VAV TERM, Design Size Maximum Air Flow Rate [m3/s], 0.92519
 Component Sizing Information, AirTerminal:SingleDuct:VAV:Reheat, PERIMETER_TOP_ZN_2 ZN VAV TERM, Design Size Constant Minimum Air Flow Fraction, 0.10811
 Component Sizing Information, AirTerminal:SingleDuct:VAV:Reheat, PERIMETER_TOP_ZN_2 ZN VAV TERM, User-Specified Constant Minimum Air Flow Fraction, 0.30000
 Component Sizing Information, AirTerminal:SingleDuct:VAV:Reheat, PERIMETER_TOP_ZN_2 ZN VAV TERM, Design Size Minimum Air Flow Rate [m3/s], 0.27756
 Component Sizing Information, AirTerminal:SingleDuct:VAV:Reheat, PERIMETER_TOP_ZN_2 ZN VAV TERM, Design Size Maximum Flow per Zone Floor Area during Reheat [m3/s-m2], 2.11452E-003
 Component Sizing Information, AirTerminal:SingleDuct:VAV:Reheat, PERIMETER_TOP_ZN_2 ZN VAV TERM, Design Size Maximum Flow Fraction during Reheat [], 0.30000
 Component Sizing Information, Coil:Heating:Electric, PERIMETER_TOP_ZN_2 ZN RHT COIL, Design Size Nominal Capacity [W], 13747.48461
 Component Sizing Information, AirTerminal:SingleDuct:VAV:Reheat, PERIMETER_TOP_ZN_3 ZN VAV TERM, Design Size Maximum Air Flow Rate [m3/s], 0.72206
 Component Sizing Information, AirTerminal:SingleDuct:VAV:Reheat, PERIMETER_TOP_ZN_3 ZN VAV TERM, Design Size Constant Minimum Air Flow Fraction, 0.21881
 Component Sizing Information, AirTerminal:SingleDuct:VAV:Reheat, PERIMETER_TOP_ZN_3 ZN VAV TERM, User-Specified Constant Minimum Air Flow Fraction, 0.30000
 Component Sizing Information, AirTerminal:SingleDuct:VAV:Reheat, PERIMETER_TOP_ZN_3 ZN VAV TERM, Design Size Minimum Air Flow Rate [m3/s], 0.21662
 Component Sizing Information, AirTerminal:SingleDuct:VAV:Reheat, PERIMETER_TOP_ZN_3 ZN VAV TERM, Design Size Maximum Flow per Zone Floor Area during Reheat [m3/s-m2], 1.04475E-003
 Component Sizing Information, AirTerminal:SingleDuct:VAV:Reheat, PERIMETER_TOP_ZN_3 ZN VAV TERM, Design Size Maximum Flow Fraction during Reheat [], 0.30000
 Component Sizing Information, Coil:Heating:Electric, PERIMETER_TOP_ZN_3 ZN RHT COIL, Design Size Nominal Capacity [W], 20920.41485
 Component Sizing Information, AirTerminal:SingleDuct:VAV:Reheat, PERIMETER_TOP_ZN_4 ZN VAV TERM, Design Size Maximum Air Flow Rate [m3/s], 0.94645
 Component Sizing Information, AirTerminal:SingleDuct:VAV:Reheat, PERIMETER_TOP_ZN_4 ZN VAV TERM, Design Size Constant Minimum Air Flow Fraction, 0.10567
 Component Sizing Information, AirTerminal:SingleDuct:VAV:Reheat, PERIMETER_TOP_ZN_4 ZN VAV TERM, User-Specified Constant Minimum Air Flow Fraction, 0.30000
 Component Sizing Information, AirTerminal:SingleDuct:VAV:Reheat, PERIMETER_TOP_ZN_4 ZN VAV TERM, Design Size Minimum Air Flow Rate [m3/s], 0.28394
 Component Sizing Information, AirTerminal:SingleDuct:VAV:Reheat, PERIMETER_TOP_ZN_4 ZN VAV TERM, Design Size Maximum Flow per Zone Floor Area during Reheat [m3/s-m2], 2.16326E-003
 Component Sizing Information, AirTerminal:SingleDuct:VAV:Reheat, PERIMETER_TOP_ZN_4 ZN VAV TERM, Design Size Maximum Flow Fraction during Reheat [], 0.30000
 Component Sizing Information, Coil:Heating:Electric, PERIMETER_TOP_ZN_4 ZN RHT COIL, Design Size Nominal Capacity [W], 13665.01922
 Component Sizing Information, AirLoopHVAC, 5 ZONE PVAV, Sum of Air Terminal Maximum Heating Flow Rates [m3/s], 2.04421
 Component Sizing Information, AirLoopHVAC, 5 ZONE PVAV, Sum of Air Terminal Minimum Heating Flow Rates [m3/s], 2.04421
 Component Sizing Information, AirLoopHVAC, 5 ZONE PVAV, Sum of Air Terminal Maximum Flow Rates [m3/s], 6.70490
 Component Sizing Information, AirLoopHVAC, 5 ZONE PVAV, Adjusted Heating Design Air Flow Rate [m3/s], 2.04421
 Component Sizing Information, AirLoopHVAC, 5 ZONE PVAV, Adjusted Cooling Design Air Flow Rate [m3/s], 5.68169
 Component Sizing Information, AirLoopHVAC, 5 ZONE PVAV, Adjusted Main Design Air Flow Rate [m3/s], 5.68169
 Component Sizing Information, AirLoopHVAC, 5 ZONE PVAV, User Heating Air Flow Ratio [], 0.30000
 Component Sizing Information, AirLoopHVAC, 5 ZONE PVAV, Calculated Heating Air Flow Ratio [], 0.35979
 Component Sizing Information, AirLoopHVAC, 5 ZONE PVAV 1, Sum of Air Terminal Maximum Heating Flow Rates [m3/s], 2.05871
 Component Sizing Information, AirLoopHVAC, 5 ZONE PVAV 1, Sum of Air Terminal Minimum Heating Flow Rates [m3/s], 2.05871
 Component Sizing Information, AirLoopHVAC, 5 ZONE PVAV 1, Sum of Air Terminal Maximum Flow Rates [m3/s], 6.28502
 Component Sizing Information, AirLoopHVAC, 5 ZONE PVAV 1, Adjusted Heating Design Air Flow Rate [m3/s], 2.05871
 Component Sizing Information, AirLoopHVAC, 5 ZONE PVAV 1, Adjusted Cooling Design Air Flow Rate [m3/s], 5.18283
 Component Sizing Information, AirLoopHVAC, 5 ZONE PVAV 1, Adjusted Main Design Air Flow Rate [m3/s], 5.18283
 Component Sizing Information, AirLoopHVAC, 5 ZONE PVAV 1, User Heating Air Flow Ratio [], 0.30000
 Component Sizing Information, AirLoopHVAC, 5 ZONE PVAV 1, Calculated Heating Air Flow Ratio [], 0.39722
 Component Sizing Information, AirLoopHVAC, 5 ZONE PVAV 2, Sum of Air Terminal Maximum Heating Flow Rates [m3/s], 2.10360
 Component Sizing Information, AirLoopHVAC, 5 ZONE PVAV 2, Sum of Air Terminal Minimum Heating Flow Rates [m3/s], 2.10360
 Component Sizing Information, AirLoopHVAC, 5 ZONE PVAV 2, Sum of Air Terminal Maximum Flow Rates [m3/s], 6.43330
 Component Sizing Information, AirLoopHVAC, 5 ZONE PVAV 2, Adjusted Heating Design Air Flow Rate [m3/s], 2.87938
 Component Sizing Information, AirLoopHVAC, 5 ZONE PVAV 2, Adjusted Cooling Design Air Flow Rate [m3/s], 5.46195
 Component Sizing Information, AirLoopHVAC, 5 ZONE PVAV 2, Adjusted Main Design Air Flow Rate [m3/s], 5.46195
 Component Sizing Information, AirLoopHVAC, 5 ZONE PVAV 2, User Heating Air Flow Ratio [], 0.30000
 Component Sizing Information, AirLoopHVAC, 5 ZONE PVAV 2, Calculated Heating Air Flow Ratio [], 0.52717
 Component Sizing Information, AirLoopHVAC, 5 ZONE PVAV, Design Supply Air Flow Rate [m3/s], 5.68169
 Component Sizing Information, AirLoopHVAC, 5 ZONE PVAV 1, Design Supply Air Flow Rate [m3/s], 5.18283
 Component Sizing Information, AirLoopHVAC, 5 ZONE PVAV 2, Design Supply Air Flow Rate [m3/s], 5.46195
!<Controller:MechanicalVentilation>,Name,Availability Schedule Name,Demand Controlled Ventilation {Yes/No},System Outdoor Air Method,Zone Maximum Outdoor Air Fraction,Number of Zones,Zone Name,DSOA Name,DSZAD Name
 Controller:MechanicalVentilation,5 ZONE PVAV VENTILATION CONTROLLER,OFFICEMEDIUM MINOA_MOTORIZEDDAMPER_SCHED,No,ZoneSum,1.00,5,CORE_BOTTOM ZN,OFFICE WHOLEBUILDING - MD OFFICE VENTILATION,CORE_BOTTOM ZN DESIGN SPEC ZONE AIR DIST,PERIMETER_BOT_ZN_1 ZN,OFFICE WHOLEBUILDING - MD OFFICE VENTILATION,PERIMETER_BOT_ZN_1 ZN DESIGN SPEC ZONE AIR DIST,PERIMETER_BOT_ZN_2 ZN,OFFICE WHOLEBUILDING - MD OFFICE VENTILATION,PERIMETER_BOT_ZN_2 ZN DESIGN SPEC ZONE AIR DIST,PERIMETER_BOT_ZN_3 ZN,OFFICE WHOLEBUILDING - MD OFFICE VENTILATION,PERIMETER_BOT_ZN_3 ZN DESIGN SPEC ZONE AIR DIST,PERIMETER_BOT_ZN_4 ZN,OFFICE WHOLEBUILDING - MD OFFICE VENTILATION,PERIMETER_BOT_ZN_4 ZN DESIGN SPEC ZONE AIR DIST
 Controller:MechanicalVentilation,5 ZONE PVAV 1 VENTILATION CONTROLLER,OFFICEMEDIUM MINOA_MOTORIZEDDAMPER_SCHED,No,ZoneSum,1.00,5,CORE_MID ZN,OFFICE WHOLEBUILDING - MD OFFICE VENTILATION,CORE_MID ZN DESIGN SPEC ZONE AIR DIST,PERIMETER_MID_ZN_1 ZN,OFFICE WHOLEBUILDING - MD OFFICE VENTILATION,PERIMETER_MID_ZN_1 ZN DESIGN SPEC ZONE AIR DIST,PERIMETER_MID_ZN_2 ZN,OFFICE WHOLEBUILDING - MD OFFICE VENTILATION,PERIMETER_MID_ZN_2 ZN DESIGN SPEC ZONE AIR DIST,PERIMETER_MID_ZN_3 ZN,OFFICE WHOLEBUILDING - MD OFFICE VENTILATION,PERIMETER_MID_ZN_3 ZN DESIGN SPEC ZONE AIR DIST,PERIMETER_MID_ZN_4 ZN,OFFICE WHOLEBUILDING - MD OFFICE VENTILATION,PERIMETER_MID_ZN_4 ZN DESIGN SPEC ZONE AIR DIST
 Controller:MechanicalVentilation,5 ZONE PVAV 2 VENTILATION CONTROLLER,OFFICEMEDIUM MINOA_MOTORIZEDDAMPER_SCHED,No,ZoneSum,1.00,5,CORE_TOP ZN,OFFICE WHOLEBUILDING - MD OFFICE VENTILATION,CORE_TOP ZN DESIGN SPEC ZONE AIR DIST,PERIMETER_TOP_ZN_1 ZN,OFFICE WHOLEBUILDING - MD OFFICE VENTILATION,PERIMETER_TOP_ZN_1 ZN DESIGN SPEC ZONE AIR DIST,PERIMETER_TOP_ZN_2 ZN,OFFICE WHOLEBUILDING - MD OFFICE VENTILATION,PERIMETER_TOP_ZN_2 ZN DESIGN SPEC ZONE AIR DIST,PERIMETER_TOP_ZN_3 ZN,OFFICE WHOLEBUILDING - MD OFFICE VENTILATION,PERIMETER_TOP_ZN_3 ZN DESIGN SPEC ZONE AIR DIST,PERIMETER_TOP_ZN_4 ZN,OFFICE WHOLEBUILDING - MD OFFICE VENTILATION,PERIMETER_TOP_ZN_4 ZN DESIGN SPEC ZONE AIR DIST
 Component Sizing Information, Controller:OutdoorAir, CONTROLLER OUTDOOR AIR 1, Maximum Outdoor Air Flow Rate [m3/s], 5.68169
 Component Sizing Information, Controller:OutdoorAir, CONTROLLER OUTDOOR AIR 1, Minimum Outdoor Air Flow Rate [m3/s], 1.40608
 Component Sizing Information, Coil:Cooling:DX:TwoSpeed, 5 ZONE PVAV CLG COIL 321KBTU/HR 9.3EER, Design Size High Speed Rated Air Flow Rate [m3/s], 5.68169
 Component Sizing Information, Coil:Cooling:DX:TwoSpeed, 5 ZONE PVAV CLG COIL 321KBTU/HR 9.3EER, Design Size High Speed Gross Rated Total Cooling Capacity [W], 94052.11478
 Component Sizing Information, Coil:Cooling:DX:TwoSpeed, 5 ZONE PVAV CLG COIL 321KBTU/HR 9.3EER, Design Size High Speed Rated Sensible Heat Ratio, 0.80066
 Component Sizing Information, Coil:Cooling:DX:TwoSpeed, 5 ZONE PVAV CLG COIL 321KBTU/HR 9.3EER, Design Size Low Speed Rated Air Flow Rate [m3/s], 1.89371
 Component Sizing Information, Coil:Cooling:DX:TwoSpeed, 5 ZONE PVAV CLG COIL 321KBTU/HR 9.3EER, Design Size Low Speed Gross Rated Total Cooling Capacity [W], 31347.56985
 Component Sizing Information, Coil:Cooling:DX:TwoSpeed, 5 ZONE PVAV CLG COIL 321KBTU/HR 9.3EER, Design Size Low Speed Gross Rated Sensible Heat Ratio, 0.80066
 Component Sizing Information, Coil:Cooling:DX:TwoSpeed, 5 ZONE PVAV CLG COIL 321KBTU/HR 9.3EER, User-Specified Low Speed Gross Rated Sensible Heat Ratio, 0.69000
! <VAV DX Cooling Coil Standard Rating Information>, DX Coil Type, DX Coil Name, Fan Type, Fan Name, Standard Net Cooling Capacity {W}, Standard Net Cooling Capacity {Btu/h}, IEER {Btu/W-h}, COP 100% Capacity {W/W}, COP 75% Capacity {W/W}, COP 50% Capacity {W/W}, COP 25% Capacity {W/W}, EER 100% Capacity {Btu/W-h}, EER 75% Capacity {Btu/W-h}, EER 50% Capacity {Btu/W-h}, EER 25% Capacity {Btu/W-h}, Supply Air Flow 100% {kg/s}, Supply Air Flow 75% {kg/s},Supply Air Flow 50% {kg/s},Supply Air Flow 25% {kg/s}
 VAV DX Cooling Coil Standard Rating Information, Coil:Cooling:DX:TwoSpeed,5 ZONE PVAV CLG COIL 321KBTU/HR 9.3EER,N/A,N/A,89399.11,305042.43,10.32,2.78,2.99,3.10,3.10,9.48,10.21,10.56,10.56,6.4686,4.7597,3.1089,1.3920,
 Component Sizing Information, Coil:Heating:Fuel, 5 ZONE PVAV MAIN HTG COIL, Design Size Nominal Capacity [W], 97012.32713
 Component Sizing Information, Fan:VariableVolume, 5 ZONE PVAV FAN, Design Size Maximum Flow Rate [m3/s], 5.68169
 Component Sizing Information, Controller:OutdoorAir, CONTROLLER OUTDOOR AIR 2, Maximum Outdoor Air Flow Rate [m3/s], 5.18283
 Component Sizing Information, Controller:OutdoorAir, CONTROLLER OUTDOOR AIR 2, Minimum Outdoor Air Flow Rate [m3/s], 1.40608
 Component Sizing Information, Coil:Cooling:DX:TwoSpeed, 5 ZONE PVAV 1 CLG COIL 293KBTU/HR 9.3EER, Design Size High Speed Rated Air Flow Rate [m3/s], 5.18283
 Component Sizing Information, Coil:Cooling:DX:TwoSpeed, 5 ZONE PVAV 1 CLG COIL 293KBTU/HR 9.3EER, Design Size High Speed Gross Rated Total Cooling Capacity [W], 85794.31760
 Component Sizing Information, Coil:Cooling:DX:TwoSpeed, 5 ZONE PVAV 1 CLG COIL 293KBTU/HR 9.3EER, Design Size High Speed Rated Sensible Heat Ratio, 0.80066
 Component Sizing Information, Coil:Cooling:DX:TwoSpeed, 5 ZONE PVAV 1 CLG COIL 293KBTU/HR 9.3EER, Design Size Low Speed Rated Air Flow Rate [m3/s], 1.72744
 Component Sizing Information, Coil:Cooling:DX:TwoSpeed, 5 ZONE PVAV 1 CLG COIL 293KBTU/HR 9.3EER, Design Size Low Speed Gross Rated Total Cooling Capacity [W], 28595.24605
 Component Sizing Information, Coil:Cooling:DX:TwoSpeed, 5 ZONE PVAV 1 CLG COIL 293KBTU/HR 9.3EER, Design Size Low Speed Gross Rated Sensible Heat Ratio, 0.80066
 Component Sizing Information, Coil:Cooling:DX:TwoSpeed, 5 ZONE PVAV 1 CLG COIL 293KBTU/HR 9.3EER, User-Specified Low Speed Gross Rated Sensible Heat Ratio, 0.69000
 VAV DX Cooling Coil Standard Rating Information, Coil:Cooling:DX:TwoSpeed,5 ZONE PVAV 1 CLG COIL 293KBTU/HR 9.3EER,N/A,N/A,81549.85,278259.63,10.27,2.76,2.98,3.08,3.08,9.43,10.16,10.51,10.51,5.9007,4.3418,2.8360,1.2698,
 Component Sizing Information, Coil:Heating:Fuel, 5 ZONE PVAV 1 MAIN HTG COIL, Design Size Nominal Capacity [W], 97662.75281
 Component Sizing Information, Fan:VariableVolume, 5 ZONE PVAV 1 FAN, Design Size Maximum Flow Rate [m3/s], 5.18283
 Component Sizing Information, Controller:OutdoorAir, CONTROLLER OUTDOOR AIR 3, Maximum Outdoor Air Flow Rate [m3/s], 5.46195
 Component Sizing Information, Controller:OutdoorAir, CONTROLLER OUTDOOR AIR 3, Minimum Outdoor Air Flow Rate [m3/s], 1.40608
 Component Sizing Information, Coil:Cooling:DX:TwoSpeed, 5 ZONE PVAV 2 CLG COIL 308KBTU/HR 9.3EER, Design Size High Speed Rated Air Flow Rate [m3/s], 5.46195
 Component Sizing Information, Coil:Cooling:DX:TwoSpeed, 5 ZONE PVAV 2 CLG COIL 308KBTU/HR 9.3EER, Design Size High Speed Gross Rated Total Cooling Capacity [W], 90414.64796
 Component Sizing Information, Coil:Cooling:DX:TwoSpeed, 5 ZONE PVAV 2 CLG COIL 308KBTU/HR 9.3EER, Design Size High Speed Rated Sensible Heat Ratio, 0.80066
 Component Sizing Information, Coil:Cooling:DX:TwoSpeed, 5 ZONE PVAV 2 CLG COIL 308KBTU/HR 9.3EER, Design Size Low Speed Rated Air Flow Rate [m3/s], 1.82047
 Component Sizing Information, Coil:Cooling:DX:TwoSpeed, 5 ZONE PVAV 2 CLG COIL 308KBTU/HR 9.3EER, Design Size Low Speed Gross Rated Total Cooling Capacity [W], 30135.20216
 Component Sizing Information, Coil:Cooling:DX:TwoSpeed, 5 ZONE PVAV 2 CLG COIL 308KBTU/HR 9.3EER, Design Size Low Speed Gross Rated Sensible Heat Ratio, 0.80066
 Component Sizing Information, Coil:Cooling:DX:TwoSpeed, 5 ZONE PVAV 2 CLG COIL 308KBTU/HR 9.3EER, User-Specified Low Speed Gross Rated Sensible Heat Ratio, 0.69000
 VAV DX Cooling Coil Standard Rating Information, Coil:Cooling:DX:TwoSpeed,5 ZONE PVAV 2 CLG COIL 308KBTU/HR 9.3EER,N/A,N/A,85941.60,293244.91,10.30,2.77,2.99,3.09,3.09,9.46,10.19,10.54,10.54,6.2185,4.5756,2.9887,1.3382,
 Component Sizing Information, Coil:Heating:Fuel, 5 ZONE PVAV 2 MAIN HTG COIL, Design Size Nominal Capacity [W], 97958.19167
 Component Sizing Information, Fan:VariableVolume, 5 ZONE PVAV 2 FAN, Design Size Maximum Flow Rate [m3/s], 5.46195
Water Heater Information,WaterHeater:Mixed,100.0GAL NATURAL GAS WATER HEATER - 100KBTU/HR 0.81 THERM EFF,0.3785,29307.1,1.007,0.2810
 Component Sizing Information, PlantLoop, MAIN SERVICE WATER LOOP, Maximum Loop Flow Rate [m3/s], 5.36265E-005
 Component Sizing Information, PlantLoop, MAIN SERVICE WATER LOOP, Plant Loop Volume [m3], 6.43518E-003
 Component Sizing Information, Pump:ConstantSpeed, SERVICE WATER LOOP PUMP, Design Flow Rate [m3/s], 5.36265E-005
 Component Sizing Information, Pump:ConstantSpeed, SERVICE WATER LOOP PUMP, Design Power Consumption [W], 2.49098
 Component Sizing Information, WaterHeater:Mixed, 100.0GAL NATURAL GAS WATER HEATER - 100KBTU/HR 0.81 THERM EFF, Use Side Design Flow Rate [m3/s], 5.36265E-005
! <Program Control Information:Threads/Parallel Sims>, Threading Supported,Maximum Number of Threads, Env Set Threads (OMP_NUM_THREADS), EP Env Set Threads (EP_OMP_NUM_THREADS), IDF Set Threads, Number of Threads Used (Interior Radiant Exchange), Number Nominal Surfaces, Number Parallel Sims
Program Control:Threads/Parallel Sims, No,1, N/A, N/A, N/A, N/A, N/A, N/A
End of Data
