Program Version,EnergyPlus, Version 8.9.0-eba93e8e1b, YMD=2019.04.04 17:59
! <Version>, Version ID
 Version, 8.9
! <Timesteps per Hour>, #TimeSteps, Minutes per TimeStep {minutes}
 Timesteps per Hour,  6, 10
! <System Convergence Limits>, Minimum System TimeStep {minutes}, Max HVAC Iterations, Minimum Plant Iterations, Maximum Plant Iterations
 System Convergence Limits, 1, 20, 2, 8
! <Simulation Control>, Do Zone Sizing, Do System Sizing, Do Plant Sizing, Do Design Days, Do Weather Simulation, Do HVAC Sizing Simulation
 Simulation Control, Yes, Yes, Yes, No, Yes, No
! <Output Reporting Tolerances>, Tolerance for Time Heating Setpoint Not Met, Tolerance for Zone Cooling Setpoint Not Met Time
 Output Reporting Tolerances, 1.000, 1.000, 
! <Site:GroundTemperature:BuildingSurface>,Jan{C},Feb{C},Mar{C},Apr{C},May{C},Jun{C},Jul{C},Aug{C},Sep{C},Oct{C},Nov{C},Dec{C}
 Site:GroundTemperature:BuildingSurface,  19.53,  19.50,  19.54,  19.60,  20.00,  21.64,  22.23,  22.38,  21.45,  20.12,  19.80,  19.63
! <Site:GroundTemperature:FCfactorMethod>,Jan{C},Feb{C},Mar{C},Apr{C},May{C},Jun{C},Jul{C},Aug{C},Sep{C},Oct{C},Nov{C},Dec{C}
 Site:GroundTemperature:FCfactorMethod, -12.27, -13.66, -11.19,  -7.33,   2.77,  10.57,  15.83,  17.43,  14.70,   8.65,   0.56,  -6.95
! <Site:GroundTemperature:Shallow>,Jan{C},Feb{C},Mar{C},Apr{C},May{C},Jun{C},Jul{C},Aug{C},Sep{C},Oct{C},Nov{C},Dec{C}
 Site:GroundTemperature:Shallow,  13.00,  13.00,  13.00,  13.00,  13.00,  13.00,  13.00,  13.00,  13.00,  13.00,  13.00,  13.00
! <Site:GroundTemperature:Deep>,Jan{C},Feb{C},Mar{C},Apr{C},May{C},Jun{C},Jul{C},Aug{C},Sep{C},Oct{C},Nov{C},Dec{C}
 Site:GroundTemperature:Deep,  16.00,  16.00,  16.00,  16.00,  16.00,  16.00,  16.00,  16.00,  16.00,  16.00,  16.00,  16.00
! <Site:GroundReflectance>,Jan{dimensionless},Feb{dimensionless},Mar{dimensionless},Apr{dimensionless},May{dimensionless},Jun{dimensionless},Jul{dimensionless},Aug{dimensionless},Sep{dimensionless},Oct{dimensionless},Nov{dimensionless},Dec{dimensionless}
 Site:GroundReflectance,  0.20,  0.20,  0.20,  0.20,  0.20,  0.20,  0.20,  0.20,  0.20,  0.20,  0.20,  0.20
! <Site:GroundReflectance:SnowModifier>, Normal, Daylighting {dimensionless}
 Site:GroundReflectance:SnowModifier,   1.000,   1.000
! <Site:GroundReflectance:Snow>,Jan{dimensionless},Feb{dimensionless},Mar{dimensionless},Apr{dimensionless},May{dimensionless},Jun{dimensionless},Jul{dimensionless},Aug{dimensionless},Sep{dimensionless},Oct{dimensionless},Nov{dimensionless},Dec{dimensionless}
 Site:GroundReflectance:Snow,  0.20,  0.20,  0.20,  0.20,  0.20,  0.20,  0.20,  0.20,  0.20,  0.20,  0.20,  0.20
! <Site:GroundReflectance:Snow:Daylighting>,Jan{dimensionless},Feb{dimensionless},Mar{dimensionless},Apr{dimensionless},May{dimensionless},Jun{dimensionless},Jul{dimensionless},Aug{dimensionless},Sep{dimensionless},Oct{dimensionless},Nov{dimensionless},Dec{dimensionless}
 Site:GroundReflectance:Snow:Daylighting,  0.20,  0.20,  0.20,  0.20,  0.20,  0.20,  0.20,  0.20,  0.20,  0.20,  0.20,  0.20
! <Environment:Weather Station>,Wind Sensor Height Above Ground {m},Wind Speed Profile Exponent {},Wind Speed Profile Boundary Layer Thickness {m},Air Temperature Sensor Height Above Ground {m},Wind Speed Modifier Coefficient-Internal,Temperature Modifier Coefficient-Internal
Environment:Weather Station,10.000,0.140,270.000,1.500,1.586,9.750E-003
! <Site:Location>, Location Name, Latitude {N+/S- Deg}, Longitude {E+/W- Deg},  Time Zone Number {GMT+/-}, Elevation {m},  Standard Pressure at Elevation {Pa}, Standard RhoAir at Elevation
Site:Location,Fort McMurray AP AB CAN CWEC2016 WMO#=716890,56.65,-111.22,-7.00,369.10,96969,1.1525
! <Building Information>, Building Name,North Axis {deg},Terrain,  Loads Convergence Tolerance Value,Temperature Convergence Tolerance Value,  Solar Distribution,Maximum Number of Warmup Days,Minimum Number of Warmup Days
 Building Information,Building 1,0.000,Suburbs,4.00000E-002,0.40000,FullExterior,25,6
! <Inside Convection Algorithm>, Algorithm {Simple | TARP | CeilingDiffuser | AdaptiveConvectionAlgorithm}
Inside Convection Algorithm,TARP
! <Outside Convection Algorithm>, Algorithm {SimpleCombined | TARP | MoWitt | DOE-2 | AdaptiveConvectionAlgorithm}
Outside Convection Algorithm,TARP
! <Sky Radiance Distribution>, Value {Anisotropic}
Sky Radiance Distribution,Anisotropic
! <Zone Air Solution Algorithm>, Value {ThirdOrderBackwardDifference | AnalyticalSolution | EulerMethod}
 Zone Air Solution Algorithm, ThirdOrderBackwardDifference
! <Zone Air Carbon Dioxide Balance Simulation>, Simulation {Yes/No}, Carbon Dioxide Concentration
 Zone Air Carbon Dioxide Balance Simulation, No,N/A
! <Zone Air Generic Contaminant Balance Simulation>, Simulation {Yes/No}, Generic Contaminant Concentration
 Zone Air Generic Contaminant Balance Simulation, No,N/A
! <Zone Air Mass Flow Balance Simulation>, Enforce Mass Balance, Adjust Zone Mixing, Adjust Zone Infiltration {AddInfiltration | AdjustInfiltration | None}, Infiltration Zones {MixingSourceZonesOnly | AllZones}
 Zone Air Mass Flow Balance Simulation, No,N/A,N/A,N/A
! <HVACSystemRootFindingAlgorithm>, Value {RegulaFalsi | Bisection | BisectionThenRegulaFalsi | RegulaFalsiThenBisection}
 HVACSystemRootFindingAlgorithm, RegulaFalsi
! <Environment:Site Atmospheric Variation>,Wind Speed Profile Exponent {},Wind Speed Profile Boundary Layer Thickness {m},Air Temperature Gradient Coefficient {K/m}
Environment:Site Atmospheric Variation,0.220,370.000,6.500000E-003
! <Surface Geometry>,Starting Corner,Vertex Input Direction,Coordinate System,Daylight Reference Point Coordinate System,Rectangular (Simple) Surface Coordinate System
 Surface Geometry,UpperLeftCorner,Counterclockwise,RelativeCoordinateSystem,RelativeCoordinateSystem,RelativeToZoneOrigin
! <Surface Heat Transfer Algorithm>, Value {CTF - ConductionTransferFunction | EMPD - MoisturePenetrationDepthConductionTransferFunction | CondFD - ConductionFiniteDifference | HAMT - CombinedHeatAndMoistureFiniteElement} - Description,Inside Surface Max Temperature Limit{C}, Surface Convection Coefficient Lower Limit {W/m2-K}, Surface Convection Coefficient Upper Limit {W/m2-K}
Surface Heat Transfer Algorithm, CTF - ConductionTransferFunction,200,0.10,1000.0
! <Shading Summary>, Number of Fixed Detached Shades, Number of Building Detached Shades, Number of Attached Shades
 Shading Summary,0,0,0
! <Zone Summary>, Number of Zones, Number of Zone Surfaces, Number of SubSurfaces
 Zone Summary,5,30,0
! <Zone Information>,Zone Name,North Axis {deg},Origin X-Coordinate {m},Origin Y-Coordinate {m},Origin Z-Coordinate {m},Centroid X-Coordinate {m},Centroid Y-Coordinate {m},Centroid Z-Coordinate {m},Type,Zone Multiplier,Zone List Multiplier,Minimum X {m},Maximum X {m},Minimum Y {m},Maximum Y {m},Minimum Z {m},Maximum Z {m},Ceiling Height {m},Volume {m3},Zone Inside Convection Algorithm {Simple-Detailed-CeilingDiffuser-TrombeWall},Zone Outside Convection Algorithm {Simple-Detailed-Tarp-MoWitt-DOE-2-BLAST}, Floor Area {m2},Exterior Gross Wall Area {m2},Exterior Net Wall Area {m2},Exterior Window Area {m2}, Number of Surfaces, Number of SubSurfaces, Number of Shading SubSurfaces,  Part of Total Building Area
 Zone Information, ALL_ST=MUSEUM - RESTORATION_FL=STORY 1_SCH=A,0.0,25.00,25.00,0.00,50.00,50.00,1.90,1,1,1,25.00,75.00,25.00,75.00,0.00,3.80,3.80,9500.00,TARP,TARP,2500.00,0.00,0.00,0.00,6,0,0,Yes
 Zone Information, ALL_ST=OFFICE - ENCLOSED - OCCSENS_FL=STORY 1_SCH=A,0.0,75.00,25.00,0.00,89.15,50.00,1.90,1,1,1,75.00,100.00,0.00,100.00,0.00,3.80,3.80,7125.00,TARP,TARP,1875.00,0.00,0.00,0.00,6,0,0,Yes
 Zone Information, ALL_ST=OFFICE - ENCLOSED_FL=STORY 1_SCH=A,0.0,0.00,0.00,0.00,50.00,10.85,1.90,1,1,1,0.00,100.00,0.00,25.00,0.00,3.80,3.80,7125.00,TARP,TARP,1875.00,0.00,0.00,0.00,6,0,0,Yes
 Zone Information, ALL_ST=OFFICE - OPEN PLAN_FL=STORY 1_SCH=A,0.0,25.00,75.00,0.00,50.00,89.15,1.90,1,1,1,0.00,100.00,75.00,100.00,0.00,3.80,3.80,7125.00,TARP,TARP,1875.00,0.00,0.00,0.00,6,0,0,Yes
 Zone Information, ALL_ST=PARKING GARAGE SPACE_FL=STORY 1_SCH=H,0.0,0.00,0.00,0.00,10.85,50.00,1.90,1,1,1,0.00,25.00,0.00,100.00,0.00,3.80,3.80,7125.00,TARP,TARP,1875.00,0.00,0.00,0.00,6,0,0,Yes
! <Zone Internal Gains Nominal>,Zone Name, Floor Area {m2},# Occupants,Area per Occupant {m2/person},Occupant per Area {person/m2},Interior Lighting {W/m2},Electric Load {W/m2},Gas Load {W/m2},Other Load {W/m2},Hot Water Eq {W/m2},Steam Equipment {W/m2},Sum Loads per Area {W/m2},Outdoor Controlled Baseboard Heat
 Zone Internal Gains Nominal, ALL_ST=MUSEUM - RESTORATION_FL=STORY 1_SCH=A,2500.00,125.1,19.979,5.005E-002,11.000,5.000,0.000,0.000,0.000,0.000,16.000,No
 Zone Internal Gains Nominal, ALL_ST=OFFICE - ENCLOSED - OCCSENS_FL=STORY 1_SCH=A,1875.00,93.8,19.979,5.005E-002,10.710,7.500,0.000,0.000,0.000,0.000,18.210,No
 Zone Internal Gains Nominal, ALL_ST=OFFICE - ENCLOSED_FL=STORY 1_SCH=A,1875.00,93.8,19.979,5.005E-002,11.900,7.500,0.000,0.000,0.000,0.000,19.400,No
 Zone Internal Gains Nominal, ALL_ST=OFFICE - OPEN PLAN_FL=STORY 1_SCH=A,1875.00,93.8,19.979,5.005E-002,11.000,7.500,0.000,0.000,0.000,0.000,18.500,No
 Zone Internal Gains Nominal, ALL_ST=PARKING GARAGE SPACE_FL=STORY 1_SCH=H,1875.00,1.8,1032.256,9.688E-004,2.000,0.000,0.000,0.000,0.000,0.000,2.000,No
! <People Internal Gains Nominal>,Name,Schedule Name,Zone Name,Zone Floor Area {m2},# Zone Occupants,Number of People {},People/Floor Area {person/m2},Floor Area per person {m2/person},Fraction Radiant,Fraction Convected,Sensible Fraction Calculation,Activity level,ASHRAE 55 Warnings,Carbon Dioxide Generation Rate,Nominal Minimum Number of People,Nominal Maximum Number of People
 People Internal Gains Nominal, ALL_ST=MUSEUM - RESTORATION_FL=STORY 1_SCH=A SPACE FUNCTION MUSEUM - RESTORATION PEOPLE,NECB-A-OCCUPANCY,ALL_ST=MUSEUM - RESTORATION_FL=STORY 1_SCH=A,2500.00,125.1,125.1,5.005E-002,19.979,0.300,0.700,AutoCalculate,NECB-ACTIVITY,No,3.8200E-008,0,113
 People Internal Gains Nominal, ALL_ST=OFFICE - ENCLOSED_FL=STORY 1_SCH=A SPACE FUNCTION OFFICE - ENCLOSED PEOPLE,NECB-A-OCCUPANCY,ALL_ST=OFFICE - ENCLOSED_FL=STORY 1_SCH=A,1875.00,93.8,93.8,5.005E-002,19.979,0.300,0.700,AutoCalculate,NECB-ACTIVITY,No,3.8200E-008,0,84
 People Internal Gains Nominal, ALL_ST=OFFICE - ENCLOSED - OCCSENS_FL=STORY 1_SCH=A SPACE FUNCTION OFFICE - ENCLOSED - OCCSENS PEOPLE,NECB-A-OCCUPANCY,ALL_ST=OFFICE - ENCLOSED - OCCSENS_FL=STORY 1_SCH=A,1875.00,93.8,93.8,5.005E-002,19.979,0.300,0.700,AutoCalculate,NECB-ACTIVITY,No,3.8200E-008,0,84
 People Internal Gains Nominal, ALL_ST=OFFICE - OPEN PLAN_FL=STORY 1_SCH=A SPACE FUNCTION OFFICE - OPEN PLAN PEOPLE,NECB-A-OCCUPANCY,ALL_ST=OFFICE - OPEN PLAN_FL=STORY 1_SCH=A,1875.00,93.8,93.8,5.005E-002,19.979,0.300,0.700,AutoCalculate,NECB-ACTIVITY,No,3.8200E-008,0,84
 People Internal Gains Nominal, ALL_ST=PARKING GARAGE SPACE_FL=STORY 1_SCH=H SPACE FUNCTION PARKING GARAGE SPACE PEOPLE,NECB-H-OCCUPANCY,ALL_ST=PARKING GARAGE SPACE_FL=STORY 1_SCH=H,1875.00,1.8,1.8,9.688E-004,1032.256,0.300,0.700,AutoCalculate,NECB-ACTIVITY,No,3.8200E-008,2,2
! <Lights Internal Gains Nominal>,Name,Schedule Name,Zone Name,Zone Floor Area {m2},# Zone Occupants,Lighting Level {W},Lights/Floor Area {W/m2},Lights per person {W/person},Fraction Return Air,Fraction Radiant,Fraction Short Wave,Fraction Convected,Fraction Replaceable,End-Use Category,Nominal Minimum Lighting Level {W},Nominal Maximum Lighting Level {W}
 Lights Internal Gains Nominal, ALL_ST=MUSEUM - RESTORATION_FL=STORY 1_SCH=A SPACE FUNCTION MUSEUM - RESTORATION LIGHTS,NECB-A-LIGHTING,ALL_ST=MUSEUM - RESTORATION_FL=STORY 1_SCH=A,2500.00,125.1,27499.771,11.000,219.769,0.000,0.500,0.200,0.300,1.000,General,1374.989,24749.794
 Lights Internal Gains Nominal, ALL_ST=OFFICE - ENCLOSED_FL=STORY 1_SCH=A SPACE FUNCTION OFFICE - ENCLOSED LIGHTS,NECB-A-LIGHTING,ALL_ST=OFFICE - ENCLOSED_FL=STORY 1_SCH=A,1875.00,93.8,22312.314,11.900,237.750,0.000,0.500,0.200,0.300,1.000,General,1115.616,20081.083
 Lights Internal Gains Nominal, ALL_ST=OFFICE - ENCLOSED - OCCSENS_FL=STORY 1_SCH=A SPACE FUNCTION OFFICE - ENCLOSED - OCCSENS LIGHTS,NECB-A-LIGHTING,ALL_ST=OFFICE - ENCLOSED - OCCSENS_FL=STORY 1_SCH=A,1875.00,93.8,20081.083,10.710,213.975,0.000,0.500,0.200,0.300,1.000,General,1004.054,18072.975
 Lights Internal Gains Nominal, ALL_ST=OFFICE - OPEN PLAN_FL=STORY 1_SCH=A SPACE FUNCTION OFFICE - OPEN PLAN LIGHTS,NECB-A-LIGHTING,ALL_ST=OFFICE - OPEN PLAN_FL=STORY 1_SCH=A,1875.00,93.8,20624.828,11.000,219.769,0.000,0.500,0.200,0.300,1.000,General,1031.241,18562.346
 Lights Internal Gains Nominal, ALL_ST=PARKING GARAGE SPACE_FL=STORY 1_SCH=H SPACE FUNCTION PARKING GARAGE SPACE LIGHTS,NECB-H-LIGHTING,ALL_ST=PARKING GARAGE SPACE_FL=STORY 1_SCH=H,1875.00,1.8,3749.969,2.000,2064.495,0.000,0.500,0.200,0.300,1.000,General,3374.972,3374.972
! <ElectricEquipment Internal Gains Nominal>,Name,Schedule Name,Zone Name,Zone Floor Area {m2},# Zone Occupants,Equipment Level {W},Equipment/Floor Area {W/m2},Equipment per person {W/person},Fraction Latent,Fraction Radiant,Fraction Lost,Fraction Convected,End-Use SubCategory,Nominal Minimum Equipment Level {W},Nominal Maximum Equipment Level {W}
 ElectricEquipment Internal Gains Nominal, ALL_ST=MUSEUM - RESTORATION_FL=STORY 1_SCH=A SPACE FUNCTION MUSEUM - RESTORATION ELEC EQUIP,NECB-A-ELECTRIC-EQUIPMENT,ALL_ST=MUSEUM - RESTORATION_FL=STORY 1_SCH=A,2500.00,125.1,12499.896,5.000,99.895,0.000,0.500,0.000,0.500,General,2499.979,11249.906
 ElectricEquipment Internal Gains Nominal, ALL_ST=OFFICE - ENCLOSED_FL=STORY 1_SCH=A SPACE FUNCTION OFFICE - ENCLOSED ELEC EQUIP,NECB-A-ELECTRIC-EQUIPMENT,ALL_ST=OFFICE - ENCLOSED_FL=STORY 1_SCH=A,1875.00,93.8,14062.383,7.500,149.842,0.000,0.500,0.000,0.500,General,2812.477,12656.145
 ElectricEquipment Internal Gains Nominal, ALL_ST=OFFICE - ENCLOSED - OCCSENS_FL=STORY 1_SCH=A SPACE FUNCTION OFFICE - ENCLOSED - OCCSENS ELEC EQUIP,NECB-A-ELECTRIC-EQUIPMENT,ALL_ST=OFFICE - ENCLOSED - OCCSENS_FL=STORY 1_SCH=A,1875.00,93.8,14062.383,7.500,149.842,0.000,0.500,0.000,0.500,General,2812.477,12656.145
 ElectricEquipment Internal Gains Nominal, ALL_ST=OFFICE - OPEN PLAN_FL=STORY 1_SCH=A SPACE FUNCTION OFFICE - OPEN PLAN ELEC EQUIP,NECB-A-ELECTRIC-EQUIPMENT,ALL_ST=OFFICE - OPEN PLAN_FL=STORY 1_SCH=A,1875.00,93.8,14062.383,7.500,149.842,0.000,0.500,0.000,0.500,General,2812.477,12656.145
! <Shadowing/Sun Position Calculations Annual Simulations>, Calculation Method, Value {days}, Allowable Number Figures in Shadow Overlap {}, Polygon Clipping Algorithm, Sky Diffuse Modeling Algorithm, External Shading Calculation Method, Output External Shading Calculation Results, Disable Self-Shading Within Shading Zone Groups, Disable Self-Shading From Shading Zone Groups to Other Zones
Shadowing/Sun Position Calculations Annual Simulations,AverageOverDaysInFrequency,20,15000,SutherlandHodgman,SimpleSkyDiffuseModeling,InternalCalculation,No,No,No
! <Water Heater Information>,Type,Name,Volume {m3},Maximum Capacity {W},Standard Rated Recovery Efficiency, Standard Rated Energy Factor
! <RoomAir Model>, Zone Name, Mixing/Mundt/UCSDDV/UCSDCV/UCSDUFI/UCSDUFE/User Defined
RoomAir Model,ALL_ST=MUSEUM - RESTORATION_FL=STORY 1_SCH=A,Mixing/Well-Stirred
RoomAir Model,ALL_ST=OFFICE - ENCLOSED - OCCSENS_FL=STORY 1_SCH=A,Mixing/Well-Stirred
RoomAir Model,ALL_ST=OFFICE - ENCLOSED_FL=STORY 1_SCH=A,Mixing/Well-Stirred
RoomAir Model,ALL_ST=OFFICE - OPEN PLAN_FL=STORY 1_SCH=A,Mixing/Well-Stirred
RoomAir Model,ALL_ST=PARKING GARAGE SPACE_FL=STORY 1_SCH=H,Mixing/Well-Stirred
! <AirflowNetwork Model:Control>, No Multizone or Distribution/Multizone with Distribution/Multizone without Distribution/Multizone with Distribution only during Fan Operation
AirflowNetwork Model:Control,NoMultizoneOrDistribution
! <Zone Volume Capacitance Multiplier>, Sensible Heat Capacity Multiplier, Moisture Capacity Multiplier, Carbon Dioxide Capacity Multiplier, Generic Contaminant Capacity Multiplier
Zone Volume Capacitance Multiplier,   1.000 ,   1.000,   1.000,   1.000
! <Load Timesteps in Zone Design Calculation Averaging Window>, Value
 Load Timesteps in Zone Design Calculation Averaging Window,    6
! <Heating Sizing Factor Information>, Sizing Factor ID, Value
 Heating Sizing Factor Information, Global,   1.3000    
 Heating Sizing Factor Information, Zone ALL_ST=MUSEUM - RESTORATION_FL=STORY 1_SCH=A,   1.3000    
 Heating Sizing Factor Information, Zone ALL_ST=OFFICE - ENCLOSED - OCCSENS_FL=STORY 1_SCH=A,   1.3000    
 Heating Sizing Factor Information, Zone ALL_ST=OFFICE - ENCLOSED_FL=STORY 1_SCH=A,   1.3000    
 Heating Sizing Factor Information, Zone ALL_ST=OFFICE - OPEN PLAN_FL=STORY 1_SCH=A,   1.3000    
 Heating Sizing Factor Information, Zone ALL_ST=PARKING GARAGE SPACE_FL=STORY 1_SCH=H,   1.3000    
! <Cooling Sizing Factor Information>, Sizing Factor ID, Value
 Cooling Sizing Factor Information, Global,   1.1000    
 Cooling Sizing Factor Information, Zone ALL_ST=MUSEUM - RESTORATION_FL=STORY 1_SCH=A,   1.1000    
 Cooling Sizing Factor Information, Zone ALL_ST=OFFICE - ENCLOSED - OCCSENS_FL=STORY 1_SCH=A,   1.1000    
 Cooling Sizing Factor Information, Zone ALL_ST=OFFICE - ENCLOSED_FL=STORY 1_SCH=A,   1.1000    
 Cooling Sizing Factor Information, Zone ALL_ST=OFFICE - OPEN PLAN_FL=STORY 1_SCH=A,   1.1000    
 Cooling Sizing Factor Information, Zone ALL_ST=PARKING GARAGE SPACE_FL=STORY 1_SCH=H,   1.1000    
! <Zone Sizing Information>, Zone Name, Load Type, Calc Des Load {W}, User Des Load {W}, Calc Des Air Flow Rate {m3/s}, User Des Air Flow Rate {m3/s}, Design Day Name, Date/Time of Peak, Temperature at Peak {C}, Humidity Ratio at Peak {kgWater/kgDryAir}, Floor Area {m2}, # Occupants, Calc Outdoor Air Flow Rate {m3/s}, Calc DOAS Heat Addition Rate {W}
 Zone Sizing Information, ALL_ST=MUSEUM - RESTORATION_FL=STORY 1_SCH=A, Cooling, 33870.83420, 37257.91762, 2.61792, 2.87971, FORT MCMURRAY AP ANN CLG .4% CONDNS DB=>MWB, 7/21 17:00:00, 27.16400, 8.76969E-003, 2500.00000, 125.13046, 2.15900, 0.00000
 Zone Sizing Information, ALL_ST=MUSEUM - RESTORATION_FL=STORY 1_SCH=A, Heating, 1483.30835, 1928.30085, 5.91795E-002, 2.15900, FORT MCMURRAY AP ANN HTG 99.6% CONDNS DB, 1/21 07:10:00, -36.20000, 1.25811E-004, 2500.00000, 125.13046, 2.15900, 0.00000
 Zone Sizing Information, ALL_ST=OFFICE - ENCLOSED - OCCSENS_FL=STORY 1_SCH=A, Cooling, 29051.85415, 31957.03957, 2.24545, 2.47000, FORT MCMURRAY AP ANN CLG .4% CONDNS DB=>MWB, 7/21 17:00:00, 27.16400, 8.76969E-003, 1875.00000, 93.84784, 0.80963, 0.00000
 Zone Sizing Information, ALL_ST=OFFICE - ENCLOSED - OCCSENS_FL=STORY 1_SCH=A, Heating, 0.00000, 0.00000, 0.00000, 0.80963, FORT MCMURRAY AP ANN HTG 99.6% CONDNS DB, , -36.20000, 1.25811E-004, 1875.00000, 93.84784, 0.80963, 0.00000
 Zone Sizing Information, ALL_ST=OFFICE - ENCLOSED_FL=STORY 1_SCH=A, Cooling, 30172.10515, 33189.31566, 2.33204, 2.56524, FORT MCMURRAY AP ANN CLG .4% CONDNS DB=>MWB, 7/21 17:00:00, 27.16400, 8.76969E-003, 1875.00000, 93.84784, 0.80963, 0.00000
 Zone Sizing Information, ALL_ST=OFFICE - ENCLOSED_FL=STORY 1_SCH=A, Heating, 0.00000, 0.00000, 0.00000, 0.80963, FORT MCMURRAY AP ANN HTG 99.6% CONDNS DB, , -36.20000, 1.25811E-004, 1875.00000, 93.84784, 0.80963, 0.00000
 Zone Sizing Information, ALL_ST=OFFICE - OPEN PLAN_FL=STORY 1_SCH=A, Cooling, 28939.23597, 31833.15956, 2.23675, 2.46042, FORT MCMURRAY AP ANN CLG .4% CONDNS DB=>MWB, 7/21 17:00:00, 27.16400, 8.76969E-003, 1875.00000, 93.84784, 0.80963, 0.00000
 Zone Sizing Information, ALL_ST=OFFICE - OPEN PLAN_FL=STORY 1_SCH=A, Heating, 0.00000, 0.00000, 0.00000, 0.80963, FORT MCMURRAY AP ANN HTG 99.6% CONDNS DB, , -36.20000, 1.25811E-004, 1875.00000, 93.84784, 0.80963, 0.00000
 Zone Sizing Information, ALL_ST=PARKING GARAGE SPACE_FL=STORY 1_SCH=H, Cooling, 1735.62063, 1909.18270, 0.13413, 4.76250, FORT MCMURRAY AP ANN CLG .4% CONDNS DB=>MWB, 7/21 17:10:00, 26.95733, 8.76969E-003, 1875.00000, 1.81641, 4.76250, 0.00000
 Zone Sizing Information, ALL_ST=PARKING GARAGE SPACE_FL=STORY 1_SCH=H, Heating, 1281.76516, 1666.29471, 5.13345E-002, 4.76250, FORT MCMURRAY AP ANN HTG 99.6% CONDNS DB, 1/21 08:40:00, -36.20000, 1.25811E-004, 1875.00000, 1.81641, 4.76250, 0.00000
! <System Sizing Information>, System Name, Load Type, Peak Load Kind, User Design Capacity, Calc Des Air Flow Rate [m3/s], User Des Air Flow Rate [m3/s], Design Day Name, Date/Time of Peak
 System Sizing Information, SYS_2_MAKE-UP AIR UNIT, Cooling, Sensible, 44596.19, 2.87971, 2.87971, FORT MCMURRAY AP ANN CLG .4% CONDNS DB=>MWB, 7/21 00:00:00
 System Sizing Information, SYS_2_MAKE-UP AIR UNIT, Heating, Sensible, 123270.08, 2.15900, 2.15900, FORT MCMURRAY AP ANN HTG 99.6% CONDNS DB, 1/21 00:10:00
 System Sizing Information, SYS_3_PSZ ALL_ST=OFFICE - ENCLOSED - OCCSENS_FL=STORY 1_SCH=A, Cooling, Sensible, 34430.77, 2.47000, 2.47000, FORT MCMURRAY AP ANN CLG .4% CONDNS DB=>MWB, 7/21 05:00:00
 System Sizing Information, SYS_3_PSZ ALL_ST=OFFICE - ENCLOSED - OCCSENS_FL=STORY 1_SCH=A, Heating, Sensible, 74262.10, 0.80963, 0.80963, FORT MCMURRAY AP ANN HTG 99.6% CONDNS DB, 1/21 00:10:00
 System Sizing Information, SYS_3_PSZ ALL_ST=OFFICE - ENCLOSED_FL=STORY 1_SCH=A, Cooling, Sensible, 35643.99, 2.56524, 2.56524, FORT MCMURRAY AP ANN CLG .4% CONDNS DB=>MWB, 7/21 05:00:00
 System Sizing Information, SYS_3_PSZ ALL_ST=OFFICE - ENCLOSED_FL=STORY 1_SCH=A, Heating, Sensible, 74262.10, 0.80963, 0.80963, FORT MCMURRAY AP ANN HTG 99.6% CONDNS DB, 1/21 00:10:00
 System Sizing Information, SYS_3_PSZ ALL_ST=OFFICE - OPEN PLAN_FL=STORY 1_SCH=A, Cooling, Sensible, 34308.80, 2.46042, 2.46042, FORT MCMURRAY AP ANN CLG .4% CONDNS DB=>MWB, 7/21 05:00:00
 System Sizing Information, SYS_3_PSZ ALL_ST=OFFICE - OPEN PLAN_FL=STORY 1_SCH=A, Heating, Sensible, 74262.10, 0.80963, 0.80963, FORT MCMURRAY AP ANN HTG 99.6% CONDNS DB, 1/21 00:10:00
 System Sizing Information, SYS_4_PSZ_ALL_ST=PARKING GARAGE SPACE_FL=STORY 1_SCH=H, Cooling, Sensible, 76983.13, 4.76250, 4.76250, FORT MCMURRAY AP ANN CLG .4% CONDNS DB=>MWB, 7/21 05:00:00
 System Sizing Information, SYS_4_PSZ_ALL_ST=PARKING GARAGE SPACE_FL=STORY 1_SCH=H, Heating, Sensible, 436835.87, 4.76250, 4.76250, FORT MCMURRAY AP ANN HTG 99.6% CONDNS DB, 1/21 00:10:00
! <Component Sizing Information>, Component Type, Component Name, Input Field Description, Value
 Component Sizing Information, ZoneHVAC:FourPipeFanCoil, ZONE HVAC FOUR PIPE FAN COIL 1, Design Size Maximum Supply Air Flow Rate [m3/s], 2.87971
 Component Sizing Information, Fan:ConstantVolume, FAN CONSTANT VOLUME 2, Design Size Maximum Flow Rate [m3/s], 2.87971
 Component Sizing Information, ZoneHVAC:FourPipeFanCoil, ZONE HVAC FOUR PIPE FAN COIL 1, Design Size Maximum Outdoor Air Flow Rate [m3/s], 2.15900
 Component Sizing Information, ZoneHVAC:FourPipeFanCoil, ZONE HVAC FOUR PIPE FAN COIL 1, Design Size Maximum Hot Water Flow [m3/s], 2.81255E-003
 Component Sizing Information, ZoneHVAC:FourPipeFanCoil, ZONE HVAC FOUR PIPE FAN COIL 1, Design Size Maximum Cold Water Flow [m3/s], 1.91518E-003
 Component Sizing Information, Coil:Cooling:Water, COIL COOLING WATER 1, Design Size Design Water Flow Rate [m3/s], 1.91518E-003
 Component Sizing Information, Coil:Cooling:Water, COIL COOLING WATER 1, Design Size Design Air Flow Rate [m3/s], 2.87971
 Component Sizing Information, Coil:Cooling:Water, COIL COOLING WATER 1, User-Specified Design Air Flow Rate [m3/s], 2.87971
 Component Sizing Information, Coil:Cooling:Water, COIL COOLING WATER 1, Design Size Design Inlet Air Temperature [C], 26.37182
 Component Sizing Information, Coil:Cooling:Water, COIL COOLING WATER 1, Design Size Design Inlet Water Temperature [C], 7.00000
 Component Sizing Information, Coil:Cooling:Water, COIL COOLING WATER 1, Design Size Design Inlet Air Humidity Ratio, 8.91527E-003
 Component Sizing Information, Coil:Cooling:Water, COIL COOLING WATER 1, Design Size Design Outlet Air Temperature [C], 13.00000
 Component Sizing Information, Coil:Cooling:Water, COIL COOLING WATER 1, Design Size Design Outlet Air Humidity Ratio, 8.50000E-003
! <Water Cooling Coil Capacity Information>,Component Type,Name,Nominal Total Capacity {W},Nominal Sensible Capacity {W},Nominal Latent Capacity {W},Nominal Sensible Heat Ratio, Nominal Coil UA Value {W/C}, Nominal Coil Surface Area {m2}
Water Cooling Coil Capacity Information,Coil:Cooling:Water,COIL COOLING WATER 1,62490.96,44325.26,18165.70,0.71,6654.57,67.49
 Component Sizing Information, Coil:Heating:Water, COIL HEATING WATER 1, Design Size Rated Capacity [W], 188308.83682
 Component Sizing Information, Coil:Heating:Water, COIL HEATING WATER 1, Design Size Maximum Water Flow Rate [m3/s], 2.81255E-003
 Component Sizing Information, Coil:Heating:Water, COIL HEATING WATER 1, Design Size U-Factor Times Area Value [W/K], 2759.81087
! <Water Heating Coil Capacity Information>,Component Type,Name,Nominal Total Capacity {W}
Water Heating Coil Capacity Information,Coil:Heating:Water,COIL HEATING WATER 1,103336.63
 Component Sizing Information, AirTerminal:SingleDuct:Uncontrolled, AIR TERMINAL SINGLE DUCT UNCONTROLLED 1, Design Size Maximum Air Flow Rate [m3/s], 2.87971
 Component Sizing Information, AirTerminal:SingleDuct:Uncontrolled, AIR TERMINAL SINGLE DUCT UNCONTROLLED 3, Design Size Maximum Air Flow Rate [m3/s], 2.47000
 Component Sizing Information, ZoneHVAC:Baseboard:Convective:Water, ZONE HVAC BASEBOARD CONVECTIVE WATER 2, Design Size Maximum Water Flow Rate [m3/s], 0.00000
 Component Sizing Information, ZoneHVAC:Baseboard:Convective:Water, ZONE HVAC BASEBOARD CONVECTIVE WATER 2, Design Size U-Factor Times Area Value [W/K], 0.00000
 Component Sizing Information, AirTerminal:SingleDuct:Uncontrolled, AIR TERMINAL SINGLE DUCT UNCONTROLLED 2, Design Size Maximum Air Flow Rate [m3/s], 2.56524
 Component Sizing Information, ZoneHVAC:Baseboard:Convective:Water, ZONE HVAC BASEBOARD CONVECTIVE WATER 1, Design Size Maximum Water Flow Rate [m3/s], 0.00000
 Component Sizing Information, ZoneHVAC:Baseboard:Convective:Water, ZONE HVAC BASEBOARD CONVECTIVE WATER 1, Design Size U-Factor Times Area Value [W/K], 0.00000
 Component Sizing Information, AirTerminal:SingleDuct:Uncontrolled, AIR TERMINAL SINGLE DUCT UNCONTROLLED 4, Design Size Maximum Air Flow Rate [m3/s], 2.46042
 Component Sizing Information, ZoneHVAC:Baseboard:Convective:Water, ZONE HVAC BASEBOARD CONVECTIVE WATER 3, Design Size Maximum Water Flow Rate [m3/s], 0.00000
 Component Sizing Information, ZoneHVAC:Baseboard:Convective:Water, ZONE HVAC BASEBOARD CONVECTIVE WATER 3, Design Size U-Factor Times Area Value [W/K], 0.00000
 Component Sizing Information, AirTerminal:SingleDuct:Uncontrolled, AIR TERMINAL SINGLE DUCT UNCONTROLLED 5, Design Size Maximum Air Flow Rate [m3/s], 4.76250
 Component Sizing Information, ZoneHVAC:Baseboard:Convective:Water, ZONE HVAC BASEBOARD CONVECTIVE WATER 4, Design Size Maximum Water Flow Rate [m3/s], 2.48875E-005
 Component Sizing Information, ZoneHVAC:Baseboard:Convective:Water, ZONE HVAC BASEBOARD CONVECTIVE WATER 4, Design Size U-Factor Times Area Value [W/K], 51.04940
 Component Sizing Information, AirLoopHVAC, SYS_2_MAKE-UP AIR UNIT, Sum of Air Terminal Maximum Heating Flow Rates [m3/s], 2.87971
 Component Sizing Information, AirLoopHVAC, SYS_2_MAKE-UP AIR UNIT, Sum of Air Terminal Minimum Heating Flow Rates [m3/s], 2.87971
 Component Sizing Information, AirLoopHVAC, SYS_2_MAKE-UP AIR UNIT, Sum of Air Terminal Maximum Flow Rates [m3/s], 2.87971
 Component Sizing Information, AirLoopHVAC, SYS_2_MAKE-UP AIR UNIT, Adjusted Heating Design Air Flow Rate [m3/s], 2.87971
 Component Sizing Information, AirLoopHVAC, SYS_2_MAKE-UP AIR UNIT, Adjusted Cooling Design Air Flow Rate [m3/s], 2.87971
 Component Sizing Information, AirLoopHVAC, SYS_2_MAKE-UP AIR UNIT, Adjusted Main Design Air Flow Rate [m3/s], 2.87971
 Component Sizing Information, AirLoopHVAC, SYS_2_MAKE-UP AIR UNIT, User Heating Air Flow Ratio [], 1.00000
 Component Sizing Information, AirLoopHVAC, SYS_2_MAKE-UP AIR UNIT, Calculated Heating Air Flow Ratio [], 1.00000
 Component Sizing Information, AirLoopHVAC, SYS_3_PSZ ALL_ST=OFFICE - ENCLOSED - OCCSENS_FL=STORY 1_SCH=A, Sum of Air Terminal Maximum Heating Flow Rates [m3/s], 2.47000
 Component Sizing Information, AirLoopHVAC, SYS_3_PSZ ALL_ST=OFFICE - ENCLOSED - OCCSENS_FL=STORY 1_SCH=A, Sum of Air Terminal Minimum Heating Flow Rates [m3/s], 2.47000
 Component Sizing Information, AirLoopHVAC, SYS_3_PSZ ALL_ST=OFFICE - ENCLOSED - OCCSENS_FL=STORY 1_SCH=A, Sum of Air Terminal Maximum Flow Rates [m3/s], 2.47000
 Component Sizing Information, AirLoopHVAC, SYS_3_PSZ ALL_ST=OFFICE - ENCLOSED - OCCSENS_FL=STORY 1_SCH=A, Adjusted Heating Design Air Flow Rate [m3/s], 2.47000
 Component Sizing Information, AirLoopHVAC, SYS_3_PSZ ALL_ST=OFFICE - ENCLOSED - OCCSENS_FL=STORY 1_SCH=A, Adjusted Cooling Design Air Flow Rate [m3/s], 2.47000
 Component Sizing Information, AirLoopHVAC, SYS_3_PSZ ALL_ST=OFFICE - ENCLOSED - OCCSENS_FL=STORY 1_SCH=A, Adjusted Main Design Air Flow Rate [m3/s], 2.47000
 Component Sizing Information, AirLoopHVAC, SYS_3_PSZ ALL_ST=OFFICE - ENCLOSED - OCCSENS_FL=STORY 1_SCH=A, User Heating Air Flow Ratio [], 1.00000
 Component Sizing Information, AirLoopHVAC, SYS_3_PSZ ALL_ST=OFFICE - ENCLOSED - OCCSENS_FL=STORY 1_SCH=A, Calculated Heating Air Flow Ratio [], 1.00000
 Component Sizing Information, AirLoopHVAC, SYS_3_PSZ ALL_ST=OFFICE - ENCLOSED_FL=STORY 1_SCH=A, Sum of Air Terminal Maximum Heating Flow Rates [m3/s], 2.56524
 Component Sizing Information, AirLoopHVAC, SYS_3_PSZ ALL_ST=OFFICE - ENCLOSED_FL=STORY 1_SCH=A, Sum of Air Terminal Minimum Heating Flow Rates [m3/s], 2.56524
 Component Sizing Information, AirLoopHVAC, SYS_3_PSZ ALL_ST=OFFICE - ENCLOSED_FL=STORY 1_SCH=A, Sum of Air Terminal Maximum Flow Rates [m3/s], 2.56524
 Component Sizing Information, AirLoopHVAC, SYS_3_PSZ ALL_ST=OFFICE - ENCLOSED_FL=STORY 1_SCH=A, Adjusted Heating Design Air Flow Rate [m3/s], 2.56524
 Component Sizing Information, AirLoopHVAC, SYS_3_PSZ ALL_ST=OFFICE - ENCLOSED_FL=STORY 1_SCH=A, Adjusted Cooling Design Air Flow Rate [m3/s], 2.56524
 Component Sizing Information, AirLoopHVAC, SYS_3_PSZ ALL_ST=OFFICE - ENCLOSED_FL=STORY 1_SCH=A, Adjusted Main Design Air Flow Rate [m3/s], 2.56524
 Component Sizing Information, AirLoopHVAC, SYS_3_PSZ ALL_ST=OFFICE - ENCLOSED_FL=STORY 1_SCH=A, User Heating Air Flow Ratio [], 1.00000
 Component Sizing Information, AirLoopHVAC, SYS_3_PSZ ALL_ST=OFFICE - ENCLOSED_FL=STORY 1_SCH=A, Calculated Heating Air Flow Ratio [], 1.00000
 Component Sizing Information, AirLoopHVAC, SYS_3_PSZ ALL_ST=OFFICE - OPEN PLAN_FL=STORY 1_SCH=A, Sum of Air Terminal Maximum Heating Flow Rates [m3/s], 2.46042
 Component Sizing Information, AirLoopHVAC, SYS_3_PSZ ALL_ST=OFFICE - OPEN PLAN_FL=STORY 1_SCH=A, Sum of Air Terminal Minimum Heating Flow Rates [m3/s], 2.46042
 Component Sizing Information, AirLoopHVAC, SYS_3_PSZ ALL_ST=OFFICE - OPEN PLAN_FL=STORY 1_SCH=A, Sum of Air Terminal Maximum Flow Rates [m3/s], 2.46042
 Component Sizing Information, AirLoopHVAC, SYS_3_PSZ ALL_ST=OFFICE - OPEN PLAN_FL=STORY 1_SCH=A, Adjusted Heating Design Air Flow Rate [m3/s], 2.46042
 Component Sizing Information, AirLoopHVAC, SYS_3_PSZ ALL_ST=OFFICE - OPEN PLAN_FL=STORY 1_SCH=A, Adjusted Cooling Design Air Flow Rate [m3/s], 2.46042
 Component Sizing Information, AirLoopHVAC, SYS_3_PSZ ALL_ST=OFFICE - OPEN PLAN_FL=STORY 1_SCH=A, Adjusted Main Design Air Flow Rate [m3/s], 2.46042
 Component Sizing Information, AirLoopHVAC, SYS_3_PSZ ALL_ST=OFFICE - OPEN PLAN_FL=STORY 1_SCH=A, User Heating Air Flow Ratio [], 1.00000
 Component Sizing Information, AirLoopHVAC, SYS_3_PSZ ALL_ST=OFFICE - OPEN PLAN_FL=STORY 1_SCH=A, Calculated Heating Air Flow Ratio [], 1.00000
 Component Sizing Information, AirLoopHVAC, SYS_4_PSZ_ALL_ST=PARKING GARAGE SPACE_FL=STORY 1_SCH=H, Sum of Air Terminal Maximum Heating Flow Rates [m3/s], 4.76250
 Component Sizing Information, AirLoopHVAC, SYS_4_PSZ_ALL_ST=PARKING GARAGE SPACE_FL=STORY 1_SCH=H, Sum of Air Terminal Minimum Heating Flow Rates [m3/s], 4.76250
 Component Sizing Information, AirLoopHVAC, SYS_4_PSZ_ALL_ST=PARKING GARAGE SPACE_FL=STORY 1_SCH=H, Sum of Air Terminal Maximum Flow Rates [m3/s], 4.76250
 Component Sizing Information, AirLoopHVAC, SYS_4_PSZ_ALL_ST=PARKING GARAGE SPACE_FL=STORY 1_SCH=H, Adjusted Heating Design Air Flow Rate [m3/s], 4.76250
 Component Sizing Information, AirLoopHVAC, SYS_4_PSZ_ALL_ST=PARKING GARAGE SPACE_FL=STORY 1_SCH=H, Adjusted Cooling Design Air Flow Rate [m3/s], 4.76250
 Component Sizing Information, AirLoopHVAC, SYS_4_PSZ_ALL_ST=PARKING GARAGE SPACE_FL=STORY 1_SCH=H, Adjusted Main Design Air Flow Rate [m3/s], 4.76250
 Component Sizing Information, AirLoopHVAC, SYS_4_PSZ_ALL_ST=PARKING GARAGE SPACE_FL=STORY 1_SCH=H, User Heating Air Flow Ratio [], 1.00000
 Component Sizing Information, AirLoopHVAC, SYS_4_PSZ_ALL_ST=PARKING GARAGE SPACE_FL=STORY 1_SCH=H, Calculated Heating Air Flow Ratio [], 1.00000
 Component Sizing Information, AirLoopHVAC, SYS_2_MAKE-UP AIR UNIT, Design Supply Air Flow Rate [m3/s], 2.87971
 Component Sizing Information, AirLoopHVAC, SYS_3_PSZ ALL_ST=OFFICE - ENCLOSED - OCCSENS_FL=STORY 1_SCH=A, Design Supply Air Flow Rate [m3/s], 2.47000
 Component Sizing Information, AirLoopHVAC, SYS_3_PSZ ALL_ST=OFFICE - ENCLOSED_FL=STORY 1_SCH=A, Design Supply Air Flow Rate [m3/s], 2.56524
 Component Sizing Information, AirLoopHVAC, SYS_3_PSZ ALL_ST=OFFICE - OPEN PLAN_FL=STORY 1_SCH=A, Design Supply Air Flow Rate [m3/s], 2.46042
 Component Sizing Information, AirLoopHVAC, SYS_4_PSZ_ALL_ST=PARKING GARAGE SPACE_FL=STORY 1_SCH=H, Design Supply Air Flow Rate [m3/s], 4.76250
!<Controller:MechanicalVentilation>,Name,Availability Schedule Name,Demand Controlled Ventilation {Yes/No},System Outdoor Air Method,Zone Maximum Outdoor Air Fraction,Number of Zones,Zone Name,DSOA Name,DSZAD Name
 Controller:MechanicalVentilation,CONTROLLER MECHANICAL VENTILATION 1,SYS_2_MAKE-UP AIR UNIT OCC SCH,No,ZoneSum,1.00,1,ALL_ST=MUSEUM - RESTORATION_FL=STORY 1_SCH=A,SPACE FUNCTION MUSEUM - RESTORATION VENTILATION,ALL_ST=MUSEUM - RESTORATION_FL=STORY 1_SCH=A DESIGN SPEC ZONE AIR DIST
 Controller:MechanicalVentilation,CONTROLLER MECHANICAL VENTILATION 3,SYS_3_PSZ ALL_ST=OFFICE - ENCLOSED - OCCSENS_FL=STORY 1_SCH=A OCC SCH,No,ZoneSum,1.00,1,ALL_ST=OFFICE - ENCLOSED - OCCSENS_FL=STORY 1_SCH=A,SPACE FUNCTION OFFICE - ENCLOSED - OCCSENS VENTILATION,ALL_ST=OFFICE - ENCLOSED - OCCSENS_FL=STORY 1_SCH=A DESIGN SPEC ZONE AIR DIST
 Controller:MechanicalVentilation,CONTROLLER MECHANICAL VENTILATION 2,SYS_3_PSZ ALL_ST=OFFICE - ENCLOSED_FL=STORY 1_SCH=A OCC SCH,No,ZoneSum,1.00,1,ALL_ST=OFFICE - ENCLOSED_FL=STORY 1_SCH=A,SPACE FUNCTION OFFICE - ENCLOSED VENTILATION,ALL_ST=OFFICE - ENCLOSED_FL=STORY 1_SCH=A DESIGN SPEC ZONE AIR DIST
 Controller:MechanicalVentilation,CONTROLLER MECHANICAL VENTILATION 4,SYS_3_PSZ ALL_ST=OFFICE - OPEN PLAN_FL=STORY 1_SCH=A OCC SCH,No,ZoneSum,1.00,1,ALL_ST=OFFICE - OPEN PLAN_FL=STORY 1_SCH=A,SPACE FUNCTION OFFICE - OPEN PLAN VENTILATION,ALL_ST=OFFICE - OPEN PLAN_FL=STORY 1_SCH=A DESIGN SPEC ZONE AIR DIST
 Controller:MechanicalVentilation,CONTROLLER MECHANICAL VENTILATION 5,SYS_4_PSZ_ALL_ST=PARKING GARAGE SPACE_FL=STORY 1_SCH=H OCC SCH,No,ZoneSum,1.00,1,ALL_ST=PARKING GARAGE SPACE_FL=STORY 1_SCH=H,SPACE FUNCTION PARKING GARAGE SPACE VENTILATION,ALL_ST=PARKING GARAGE SPACE_FL=STORY 1_SCH=H DESIGN SPEC ZONE AIR DIST
 Component Sizing Information, Controller:OutdoorAir, CONTROLLER OUTDOOR AIR 1, Maximum Outdoor Air Flow Rate [m3/s], 2.87971
 Component Sizing Information, Controller:OutdoorAir, CONTROLLER OUTDOOR AIR 1, Minimum Outdoor Air Flow Rate [m3/s], 2.15900
 Component Sizing Information, HeatExchanger:AirToAir:SensibleAndLatent, SYS_2_MAKE-UP AIR UNIT ERV, Design Size Nominal Supply Air Flow Rate [m3/s], 2.15900
 Component Sizing Information, Coil:Cooling:DX:SingleSpeed, COIL COOLING DX SINGLE SPEED 1 164KBTU/HR 9.7EER, Design Size Rated Air Flow Rate [m3/s], 2.87971
 Component Sizing Information, Coil:Cooling:DX:SingleSpeed, COIL COOLING DX SINGLE SPEED 1 164KBTU/HR 9.7EER, Design Size Gross Rated Total Cooling Capacity [W], 51549.88392
 Component Sizing Information, Coil:Cooling:DX:SingleSpeed, COIL COOLING DX SINGLE SPEED 1 164KBTU/HR 9.7EER, Design Size Gross Rated Sensible Heat Ratio, 0.80098
! <DX Cooling Coil Standard Rating Information>, Component Type, Component Name, Standard Rating (Net) Cooling Capacity {W}, Standard Rated Net COP {W/W}, EER {Btu/W-h}, SEER {Btu/W-h}, IEER {Btu/W-h}
 DX Cooling Coil Standard Rating Information, Coil:Cooling:DX:SingleSpeed, COIL COOLING DX SINGLE SPEED 1 164KBTU/HR 9.7EER, 49310.5, 2.84, 9.69, 10.22, 9.72
 Component Sizing Information, Coil:Heating:Fuel, COIL HEATING GAS 1, Design Size Nominal Capacity [W], 116114.39330
 Component Sizing Information, Fan:ConstantVolume, FAN CONSTANT VOLUME 1, Design Size Maximum Flow Rate [m3/s], 2.87971
 Component Sizing Information, Controller:OutdoorAir, CONTROLLER OUTDOOR AIR 3, Maximum Outdoor Air Flow Rate [m3/s], 2.47000
 Component Sizing Information, Controller:OutdoorAir, CONTROLLER OUTDOOR AIR 3, Minimum Outdoor Air Flow Rate [m3/s], 0.80963
 Component Sizing Information, Coil:Cooling:DX:SingleSpeed, COIL COOLING DX SINGLE SPEED 3 140KBTU/HR 9.7EER, Design Size Rated Air Flow Rate [m3/s], 2.47000
 Component Sizing Information, Coil:Cooling:DX:SingleSpeed, COIL COOLING DX SINGLE SPEED 3 140KBTU/HR 9.7EER, Design Size Gross Rated Total Cooling Capacity [W], 42225.77204
 Component Sizing Information, Coil:Cooling:DX:SingleSpeed, COIL COOLING DX SINGLE SPEED 3 140KBTU/HR 9.7EER, Design Size Gross Rated Sensible Heat Ratio, 0.80000
 DX Cooling Coil Standard Rating Information, Coil:Cooling:DX:SingleSpeed, COIL COOLING DX SINGLE SPEED 3 140KBTU/HR 9.7EER, 40305.5, 2.80, 9.56, 10.09, 9.56
 Component Sizing Information, Coil:Heating:Fuel, COIL HEATING GAS 3, Design Size Nominal Capacity [W], 114643.61783
 Component Sizing Information, Fan:ConstantVolume, FAN CONSTANT VOLUME 4, Design Size Maximum Flow Rate [m3/s], 2.47000
 Component Sizing Information, Controller:OutdoorAir, CONTROLLER OUTDOOR AIR 2, Maximum Outdoor Air Flow Rate [m3/s], 2.56524
 Component Sizing Information, Controller:OutdoorAir, CONTROLLER OUTDOOR AIR 2, Minimum Outdoor Air Flow Rate [m3/s], 0.80963
 Component Sizing Information, Coil:Cooling:DX:SingleSpeed, COIL COOLING DX SINGLE SPEED 2 145KBTU/HR 9.7EER, Design Size Rated Air Flow Rate [m3/s], 2.56524
 Component Sizing Information, Coil:Cooling:DX:SingleSpeed, COIL COOLING DX SINGLE SPEED 2 145KBTU/HR 9.7EER, Design Size Gross Rated Total Cooling Capacity [W], 43683.07123
 Component Sizing Information, Coil:Cooling:DX:SingleSpeed, COIL COOLING DX SINGLE SPEED 2 145KBTU/HR 9.7EER, Design Size Gross Rated Sensible Heat Ratio, 0.80039
 DX Cooling Coil Standard Rating Information, Coil:Cooling:DX:SingleSpeed, COIL COOLING DX SINGLE SPEED 2 145KBTU/HR 9.7EER, 41688.8, 2.80, 9.57, 10.09, 9.56
 Component Sizing Information, Coil:Heating:Fuel, COIL HEATING GAS 2, Design Size Nominal Capacity [W], 116960.02731
 Component Sizing Information, Fan:ConstantVolume, FAN CONSTANT VOLUME 3, Design Size Maximum Flow Rate [m3/s], 2.56524
 Component Sizing Information, Controller:OutdoorAir, CONTROLLER OUTDOOR AIR 4, Maximum Outdoor Air Flow Rate [m3/s], 2.46042
 Component Sizing Information, Controller:OutdoorAir, CONTROLLER OUTDOOR AIR 4, Minimum Outdoor Air Flow Rate [m3/s], 0.80963
 Component Sizing Information, Coil:Cooling:DX:SingleSpeed, COIL COOLING DX SINGLE SPEED 4 139KBTU/HR 9.7EER, Design Size Rated Air Flow Rate [m3/s], 2.46042
 Component Sizing Information, Coil:Cooling:DX:SingleSpeed, COIL COOLING DX SINGLE SPEED 4 139KBTU/HR 9.7EER, Design Size Gross Rated Total Cooling Capacity [W], 42078.85982
 Component Sizing Information, Coil:Cooling:DX:SingleSpeed, COIL COOLING DX SINGLE SPEED 4 139KBTU/HR 9.7EER, Design Size Gross Rated Sensible Heat Ratio, 0.80086
 DX Cooling Coil Standard Rating Information, Coil:Cooling:DX:SingleSpeed, COIL COOLING DX SINGLE SPEED 4 139KBTU/HR 9.7EER, 40166.0, 2.80, 9.56, 10.09, 9.56
 Component Sizing Information, Coil:Heating:Fuel, COIL HEATING GAS 4, Design Size Nominal Capacity [W], 114410.75576
 Component Sizing Information, Fan:ConstantVolume, FAN CONSTANT VOLUME 5, Design Size Maximum Flow Rate [m3/s], 2.46042
 Component Sizing Information, Controller:OutdoorAir, CONTROLLER OUTDOOR AIR 5, Maximum Outdoor Air Flow Rate [m3/s], 4.76250
 Component Sizing Information, Controller:OutdoorAir, CONTROLLER OUTDOOR AIR 5, Minimum Outdoor Air Flow Rate [m3/s], 4.76250
 Component Sizing Information, HeatExchanger:AirToAir:SensibleAndLatent, SYS_4_PSZ_ALL_ST=PARKING GARAGE SPACE_FL=STORY 1_SCH=H ERV, Design Size Nominal Supply Air Flow Rate [m3/s], 4.76250
 Component Sizing Information, Coil:Cooling:DX:SingleSpeed, COIL COOLING DX SINGLE SPEED 5 273KBTU/HR 8.21EER, Design Size Rated Air Flow Rate [m3/s], 4.76250
 Component Sizing Information, Coil:Cooling:DX:SingleSpeed, COIL COOLING DX SINGLE SPEED 5 273KBTU/HR 8.21EER, Design Size Gross Rated Total Cooling Capacity [W], 85969.39374
 Component Sizing Information, Coil:Cooling:DX:SingleSpeed, COIL COOLING DX SINGLE SPEED 5 273KBTU/HR 8.21EER, Design Size Gross Rated Sensible Heat Ratio, 0.80015
 DX Cooling Coil Standard Rating Information, Coil:Cooling:DX:SingleSpeed, COIL COOLING DX SINGLE SPEED 5 273KBTU/HR 8.21EER, 82265.7, 2.51, 8.56, 9.04, 8.70
 Component Sizing Information, Coil:Heating:Fuel, COIL HEATING GAS 5, Design Size Nominal Capacity [W], 436835.86640
 Component Sizing Information, Fan:ConstantVolume, FAN CONSTANT VOLUME 6, Design Size Maximum Flow Rate [m3/s], 4.76250
Water Heater Information,WaterHeater:Mixed,178GAL NATURALGAS WATER HEATER - 120KBTU/HR 0.811 THERM EFF,0.6726,35148.0,0.808,0.4599
 Component Sizing Information, PlantLoop, CHILLED WATER LOOP, Maximum Loop Flow Rate [m3/s], 1.91518E-003
 Component Sizing Information, PlantLoop, CHILLED WATER LOOP, Plant Loop Volume [m3], 0.22982
 Component Sizing Information, Pump:ConstantSpeed, PUMP CONSTANT SPEED 1, Design Flow Rate [m3/s], 1.91518E-003
 Component Sizing Information, Pump:ConstantSpeed, PUMP CONSTANT SPEED 1, Design Power Consumption [W], 515.05734
 Component Sizing Information, Chiller:Electric:EIR, PRIMARY CHILLER WATERCOOLED SCROLL 14TONS 0.8KW/TON, Design Size Reference Chilled Water Flow Rate [m3/s], 1.91518E-003
 Component Sizing Information, Chiller:Electric:EIR, PRIMARY CHILLER WATERCOOLED SCROLL 14TONS 0.8KW/TON, Design Size Reference Capacity [W], 48233.88176
 Component Sizing Information, Chiller:Electric:EIR, PRIMARY CHILLER WATERCOOLED SCROLL 14TONS 0.8KW/TON, User-Specified Reference Capacity [W], 48233.88176
 Component Sizing Information, Chiller:Electric:EIR, PRIMARY CHILLER WATERCOOLED SCROLL 14TONS 0.8KW/TON, Design Size Reference Condenser Fluid Flow Rate [m3/s], 2.35058E-003
! <Chiller Standard Rating Information>, Component Type, Component Name, IPLV in SI Units {W/W}, IPLV in IP Units {Btu/W-h}
 Chiller Standard Rating Information, Chiller:Electric:EIR, PRIMARY CHILLER WATERCOOLED SCROLL 14TONS 0.8KW/TON, 5.61, 19.14
 Component Sizing Information, Chiller:Electric:EIR, SECONDARY CHILLER WATERCOOLED SCROLL 0TONS 0.8KW/TON, Design Size Reference Chilled Water Flow Rate [m3/s], 1.91518E-003
 Component Sizing Information, Chiller:Electric:EIR, SECONDARY CHILLER WATERCOOLED SCROLL 0TONS 0.8KW/TON, Design Size Reference Capacity [W], 48233.88176
 Component Sizing Information, Chiller:Electric:EIR, SECONDARY CHILLER WATERCOOLED SCROLL 0TONS 0.8KW/TON, User-Specified Reference Capacity [W], 1.00000E-003
 Component Sizing Information, Chiller:Electric:EIR, SECONDARY CHILLER WATERCOOLED SCROLL 0TONS 0.8KW/TON, Design Size Reference Condenser Fluid Flow Rate [m3/s], 4.87330E-011
 Chiller Standard Rating Information, Chiller:Electric:EIR, SECONDARY CHILLER WATERCOOLED SCROLL 0TONS 0.8KW/TON, 5.61, 19.14
 Component Sizing Information, PlantLoop, CONDENSER WATER LOOP, Maximum Loop Flow Rate [m3/s], 2.35058E-003
 Component Sizing Information, PlantLoop, CONDENSER WATER LOOP, Plant Loop Volume [m3], 0.28207
 Component Sizing Information, Pump:ConstantSpeed, PUMP CONSTANT SPEED 2, Design Flow Rate [m3/s], 2.35058E-003
 Component Sizing Information, Pump:ConstantSpeed, PUMP CONSTANT SPEED 2, Design Power Consumption [W], 624.84315
 Component Sizing Information, CoolingTower:SingleSpeed, COOLING TOWER SINGLE SPEED 1, Design Water Flow Rate [m3/s], 2.35058E-003
 Component Sizing Information, CoolingTower:SingleSpeed, COOLING TOWER SINGLE SPEED 1, Design Air Flow Rate [m3/s], 2.43130
 Component Sizing Information, CoolingTower:SingleSpeed, COOLING TOWER SINGLE SPEED 1, U-Factor Times Area Value at Design Air Flow Rate [W/C], 2056.70447
 Component Sizing Information, CoolingTower:SingleSpeed, COOLING TOWER SINGLE SPEED 1, Free Convection Regime Air Flow Rate [m3/s], 0.24313
 Component Sizing Information, CoolingTower:SingleSpeed, COOLING TOWER SINGLE SPEED 1, Free Convection U-Factor Times Area Value [W/K], 205.67045
 Component Sizing Information, PlantLoop, HOT WATER LOOP, Maximum Loop Flow Rate [m3/s], 2.83743E-003
 Component Sizing Information, PlantLoop, HOT WATER LOOP, Plant Loop Volume [m3], 0.34049
 Component Sizing Information, Pump:VariableSpeed, PUMP VARIABLE SPEED 1, Design Flow Rate [m3/s], 2.83743E-003
 Component Sizing Information, Pump:VariableSpeed, PUMP VARIABLE SPEED 1, Design Power Consumption [W], 763.08184
 Component Sizing Information, Boiler:HotWater, PRIMARY BOILER 325KBTU/HR 0.83 THERMAL EFF, Design Size Nominal Capacity [W], 190710.51913
 Component Sizing Information, Boiler:HotWater, PRIMARY BOILER 325KBTU/HR 0.83 THERMAL EFF, User-Specified Nominal Capacity [W], 95355.25956
 Component Sizing Information, Boiler:HotWater, PRIMARY BOILER 325KBTU/HR 0.83 THERMAL EFF, Design Size Design Water Flow Rate [m3/s], 2.83743E-003
 Component Sizing Information, Boiler:HotWater, SECONDARY BOILER 325KBTU/HR 0.83 THERMAL EFF, Design Size Nominal Capacity [W], 190710.51913
 Component Sizing Information, Boiler:HotWater, SECONDARY BOILER 325KBTU/HR 0.83 THERMAL EFF, User-Specified Nominal Capacity [W], 95355.25956
 Component Sizing Information, Boiler:HotWater, SECONDARY BOILER 325KBTU/HR 0.83 THERMAL EFF, Design Size Design Water Flow Rate [m3/s], 2.83743E-003
 Component Sizing Information, PlantLoop, MAIN SERVICE WATER LOOP, Maximum Loop Flow Rate [m3/s], 1.69871E-004
 Component Sizing Information, PlantLoop, MAIN SERVICE WATER LOOP, Plant Loop Volume [m3], 2.03846E-002
 Component Sizing Information, Pump:ConstantSpeed, SERVICE WATER LOOP PUMP, Design Flow Rate [m3/s], 1.69871E-004
 Component Sizing Information, Pump:ConstantSpeed, SERVICE WATER LOOP PUMP, Design Power Consumption [W], 5.53471
 Component Sizing Information, WaterHeater:Mixed, 178GAL NATURALGAS WATER HEATER - 120KBTU/HR 0.811 THERM EFF, Use Side Design Flow Rate [m3/s], 1.69871E-004
! <Environment>,Environment Name,Environment Type, Start Date, End Date, Start DayOfWeek, Duration {#days}, Source:Start DayOfWeek,  Use Daylight Saving, Use Holidays, Apply Weekend Holiday Rule,  Use Rain Values, Use Snow Values
! <Environment:Special Days>, Special Day Name, Special Day Type, Source, Start Date, Duration {#days}
! <Environment:Daylight Saving>, Daylight Saving Indicator, Source, Start Date, End Date
! <Environment:WarmupDays>, NumberofWarmupDays
Environment,RUN PERIOD 1,WeatherFileRunPeriod,01/01,12/31,Sunday,365,Use RunPeriod Specified Day,No,No,No,Yes,Yes
Environment:Daylight Saving,No,RunPeriod Object
Environment:WarmupDays,  6
! <Tabular Report>,Style,Unit Conversion
Tabular Report,HTML,None
! <Warmup Convergence Information>,Zone Name,Environment Type/Name,Average Warmup Temperature Difference {deltaC},Std Dev Warmup Temperature Difference {deltaC},Max Temperature Pass/Fail Convergence,Min Temperature Pass/Fail Convergence,Average Warmup Load Difference {W},Std Dev Warmup Load Difference {W},Heating Load Pass/Fail Convergence,Cooling Load Pass/Fail Convergence
 Warmup Convergence Information,ALL_ST=MUSEUM - RESTORATION_FL=STORY 1_SCH=A,RunPeriod: RUN PERIOD 1,1.7941554031E-005,3.3160235460E-005,Pass,Pass,1.7618459372E-003,3.0859212034E-003,Pass,Pass
 Warmup Convergence Information,ALL_ST=OFFICE - ENCLOSED - OCCSENS_FL=STORY 1_SCH=A,RunPeriod: RUN PERIOD 1,7.3868684990E-004,6.0464325418E-004,Pass,Pass,0.0000000000,0.0000000000,Pass,Pass
 Warmup Convergence Information,ALL_ST=OFFICE - ENCLOSED_FL=STORY 1_SCH=A,RunPeriod: RUN PERIOD 1,3.8043376992E-003,4.6593579859E-003,Pass,Pass,0.0000000000,0.0000000000,Pass,Pass
 Warmup Convergence Information,ALL_ST=OFFICE - OPEN PLAN_FL=STORY 1_SCH=A,RunPeriod: RUN PERIOD 1,3.8009827641E-003,4.6536886295E-003,Pass,Pass,0.0000000000,0.0000000000,Pass,Pass
 Warmup Convergence Information,ALL_ST=PARKING GARAGE SPACE_FL=STORY 1_SCH=H,RunPeriod: RUN PERIOD 1,5.5561614146E-002,0.2718138526,Pass,Pass,0.4416170506,3.3500929358,Pass,Pass
! <Program Control Information:Threads/Parallel Sims>, Threading Supported,Maximum Number of Threads, Env Set Threads (OMP_NUM_THREADS), EP Env Set Threads (EP_OMP_NUM_THREADS), IDF Set Threads, Number of Threads Used (Interior Radiant Exchange), Number Nominal Surfaces, Number Parallel Sims
Program Control:Threads/Parallel Sims, No,1, N/A, N/A, N/A, N/A, N/A, N/A
End of Data
