Program Version,EnergyPlus, Version 8.9.0-eba93e8e1b, YMD=2019.04.04 18:00
! <Version>, Version ID
 Version, 8.9
! <Timesteps per Hour>, #TimeSteps, Minutes per TimeStep {minutes}
 Timesteps per Hour,  6, 10
! <System Convergence Limits>, Minimum System TimeStep {minutes}, Max HVAC Iterations, Minimum Plant Iterations, Maximum Plant Iterations
 System Convergence Limits, 1, 20, 2, 8
! <Simulation Control>, Do Zone Sizing, Do System Sizing, Do Plant Sizing, Do Design Days, Do Weather Simulation, Do HVAC Sizing Simulation
 Simulation Control, Yes, Yes, Yes, Yes, No, No
! <Output Reporting Tolerances>, Tolerance for Time Heating Setpoint Not Met, Tolerance for Zone Cooling Setpoint Not Met Time
 Output Reporting Tolerances, 1.000, 1.000, 
! <Site:GroundTemperature:BuildingSurface>,Jan{C},Feb{C},Mar{C},Apr{C},May{C},Jun{C},Jul{C},Aug{C},Sep{C},Oct{C},Nov{C},Dec{C}
 Site:GroundTemperature:BuildingSurface,  19.53,  19.50,  19.54,  19.60,  20.00,  21.64,  22.23,  22.38,  21.45,  20.12,  19.80,  19.63
! <Site:GroundTemperature:FCfactorMethod>,Jan{C},Feb{C},Mar{C},Apr{C},May{C},Jun{C},Jul{C},Aug{C},Sep{C},Oct{C},Nov{C},Dec{C}
 Site:GroundTemperature:FCfactorMethod, -12.27, -13.66, -11.19,  -7.33,   2.77,  10.57,  15.83,  17.43,  14.70,   8.65,   0.56,  -6.95
! <Site:GroundTemperature:Shallow>,Jan{C},Feb{C},Mar{C},Apr{C},May{C},Jun{C},Jul{C},Aug{C},Sep{C},Oct{C},Nov{C},Dec{C}
 Site:GroundTemperature:Shallow,  13.00,  13.00,  13.00,  13.00,  13.00,  13.00,  13.00,  13.00,  13.00,  13.00,  13.00,  13.00
! <Site:GroundTemperature:Deep>,Jan{C},Feb{C},Mar{C},Apr{C},May{C},Jun{C},Jul{C},Aug{C},Sep{C},Oct{C},Nov{C},Dec{C}
 Site:GroundTemperature:Deep,  16.00,  16.00,  16.00,  16.00,  16.00,  16.00,  16.00,  16.00,  16.00,  16.00,  16.00,  16.00
! <Site:GroundReflectance>,Jan{dimensionless},Feb{dimensionless},Mar{dimensionless},Apr{dimensionless},May{dimensionless},Jun{dimensionless},Jul{dimensionless},Aug{dimensionless},Sep{dimensionless},Oct{dimensionless},Nov{dimensionless},Dec{dimensionless}
 Site:GroundReflectance,  0.20,  0.20,  0.20,  0.20,  0.20,  0.20,  0.20,  0.20,  0.20,  0.20,  0.20,  0.20
! <Site:GroundReflectance:SnowModifier>, Normal, Daylighting {dimensionless}
 Site:GroundReflectance:SnowModifier,   1.000,   1.000
! <Site:GroundReflectance:Snow>,Jan{dimensionless},Feb{dimensionless},Mar{dimensionless},Apr{dimensionless},May{dimensionless},Jun{dimensionless},Jul{dimensionless},Aug{dimensionless},Sep{dimensionless},Oct{dimensionless},Nov{dimensionless},Dec{dimensionless}
 Site:GroundReflectance:Snow,  0.20,  0.20,  0.20,  0.20,  0.20,  0.20,  0.20,  0.20,  0.20,  0.20,  0.20,  0.20
! <Site:GroundReflectance:Snow:Daylighting>,Jan{dimensionless},Feb{dimensionless},Mar{dimensionless},Apr{dimensionless},May{dimensionless},Jun{dimensionless},Jul{dimensionless},Aug{dimensionless},Sep{dimensionless},Oct{dimensionless},Nov{dimensionless},Dec{dimensionless}
 Site:GroundReflectance:Snow:Daylighting,  0.20,  0.20,  0.20,  0.20,  0.20,  0.20,  0.20,  0.20,  0.20,  0.20,  0.20,  0.20
! <Environment:Weather Station>,Wind Sensor Height Above Ground {m},Wind Speed Profile Exponent {},Wind Speed Profile Boundary Layer Thickness {m},Air Temperature Sensor Height Above Ground {m},Wind Speed Modifier Coefficient-Internal,Temperature Modifier Coefficient-Internal
Environment:Weather Station,10.000,0.140,270.000,1.500,1.586,9.750E-003
! <Site:Location>, Location Name, Latitude {N+/S- Deg}, Longitude {E+/W- Deg},  Time Zone Number {GMT+/-}, Elevation {m},  Standard Pressure at Elevation {Pa}, Standard RhoAir at Elevation
Site:Location,Fort McMurray AP AB CAN CWEC2016 WMO#=716890,56.65,-111.22,-7.00,369.10,96969,1.1525
! <Building Information>, Building Name,North Axis {deg},Terrain,  Loads Convergence Tolerance Value,Temperature Convergence Tolerance Value,  Solar Distribution,Maximum Number of Warmup Days,Minimum Number of Warmup Days
 Building Information,Building 1,0.000,Suburbs,4.00000E-002,0.40000,FullExterior,25,6
! <Inside Convection Algorithm>, Algorithm {Simple | TARP | CeilingDiffuser | AdaptiveConvectionAlgorithm}
Inside Convection Algorithm,TARP
! <Outside Convection Algorithm>, Algorithm {SimpleCombined | TARP | MoWitt | DOE-2 | AdaptiveConvectionAlgorithm}
Outside Convection Algorithm,TARP
! <Sky Radiance Distribution>, Value {Anisotropic}
Sky Radiance Distribution,Anisotropic
! <Zone Air Solution Algorithm>, Value {ThirdOrderBackwardDifference | AnalyticalSolution | EulerMethod}
 Zone Air Solution Algorithm, ThirdOrderBackwardDifference
! <Zone Air Carbon Dioxide Balance Simulation>, Simulation {Yes/No}, Carbon Dioxide Concentration
 Zone Air Carbon Dioxide Balance Simulation, No,N/A
! <Zone Air Generic Contaminant Balance Simulation>, Simulation {Yes/No}, Generic Contaminant Concentration
 Zone Air Generic Contaminant Balance Simulation, No,N/A
! <Zone Air Mass Flow Balance Simulation>, Enforce Mass Balance, Adjust Zone Mixing, Adjust Zone Infiltration {AddInfiltration | AdjustInfiltration | None}, Infiltration Zones {MixingSourceZonesOnly | AllZones}
 Zone Air Mass Flow Balance Simulation, No,N/A,N/A,N/A
! <HVACSystemRootFindingAlgorithm>, Value {RegulaFalsi | Bisection | BisectionThenRegulaFalsi | RegulaFalsiThenBisection}
 HVACSystemRootFindingAlgorithm, RegulaFalsi
! <Environment:Site Atmospheric Variation>,Wind Speed Profile Exponent {},Wind Speed Profile Boundary Layer Thickness {m},Air Temperature Gradient Coefficient {K/m}
Environment:Site Atmospheric Variation,0.220,370.000,6.500000E-003
! <Surface Geometry>,Starting Corner,Vertex Input Direction,Coordinate System,Daylight Reference Point Coordinate System,Rectangular (Simple) Surface Coordinate System
 Surface Geometry,UpperLeftCorner,Counterclockwise,RelativeCoordinateSystem,RelativeCoordinateSystem,RelativeToZoneOrigin
! <Surface Heat Transfer Algorithm>, Value {CTF - ConductionTransferFunction | EMPD - MoisturePenetrationDepthConductionTransferFunction | CondFD - ConductionFiniteDifference | HAMT - CombinedHeatAndMoistureFiniteElement} - Description,Inside Surface Max Temperature Limit{C}, Surface Convection Coefficient Lower Limit {W/m2-K}, Surface Convection Coefficient Upper Limit {W/m2-K}
Surface Heat Transfer Algorithm, CTF - ConductionTransferFunction,200,0.10,1000.0
! <Shading Summary>, Number of Fixed Detached Shades, Number of Building Detached Shades, Number of Attached Shades
 Shading Summary,0,0,0
! <Zone Summary>, Number of Zones, Number of Zone Surfaces, Number of SubSurfaces
 Zone Summary,5,30,0
! <Zone Information>,Zone Name,North Axis {deg},Origin X-Coordinate {m},Origin Y-Coordinate {m},Origin Z-Coordinate {m},Centroid X-Coordinate {m},Centroid Y-Coordinate {m},Centroid Z-Coordinate {m},Type,Zone Multiplier,Zone List Multiplier,Minimum X {m},Maximum X {m},Minimum Y {m},Maximum Y {m},Minimum Z {m},Maximum Z {m},Ceiling Height {m},Volume {m3},Zone Inside Convection Algorithm {Simple-Detailed-CeilingDiffuser-TrombeWall},Zone Outside Convection Algorithm {Simple-Detailed-Tarp-MoWitt-DOE-2-BLAST}, Floor Area {m2},Exterior Gross Wall Area {m2},Exterior Net Wall Area {m2},Exterior Window Area {m2}, Number of Surfaces, Number of SubSurfaces, Number of Shading SubSurfaces,  Part of Total Building Area
 Zone Information, SP-OFFICE ENCLOSED > 25 M2-SPACE FUNCTION SYS-3 FLR-1 SCH-A HPLCMT-CORE ZN,0.0,25.00,25.00,0.00,50.00,50.00,1.90,1,1,1,25.00,75.00,25.00,75.00,0.00,3.80,3.80,9500.00,TARP,TARP,2500.00,0.00,0.00,0.00,6,0,0,Yes
 Zone Information, SP-OFFICE OPEN PLAN-SPACE FUNCTION SYS-3 FLR-1 SCH-A HPLCMT-SOUTH ZN,0.0,0.00,0.00,0.00,50.00,10.85,1.90,1,1,1,0.00,100.00,0.00,25.00,0.00,3.80,3.80,7125.00,TARP,TARP,1875.00,0.00,0.00,0.00,6,0,0,Yes
 Zone Information, SP-PHARMACY AREA-SPACE FUNCTION SYS-3 FLR-1 SCH-C HPLCMT-EAST ZN,0.0,75.00,25.00,0.00,89.15,50.00,1.90,1,1,1,75.00,100.00,0.00,100.00,0.00,3.80,3.80,7125.00,TARP,TARP,1875.00,0.00,0.00,0.00,6,0,0,Yes
 Zone Information, SP-SALES AREA-SPACE FUNCTION SYS-3 FLR-1 SCH-C HPLCMT-NORTH ZN,0.0,25.00,75.00,0.00,50.00,89.15,1.90,1,1,1,0.00,100.00,75.00,100.00,0.00,3.80,3.80,7125.00,TARP,TARP,1875.00,0.00,0.00,0.00,6,0,0,Yes
 Zone Information, SP-SEATING AREA GENERAL-SCH-A-SPACE FUNCTION SYS-3 FLR-1 SCH-A HPLCMT-WEST ZN,0.0,0.00,0.00,0.00,10.85,50.00,1.90,1,1,1,0.00,25.00,0.00,100.00,0.00,3.80,3.80,7125.00,TARP,TARP,1875.00,0.00,0.00,0.00,6,0,0,Yes
! <Zone Internal Gains Nominal>,Zone Name, Floor Area {m2},# Occupants,Area per Occupant {m2/person},Occupant per Area {person/m2},Interior Lighting {W/m2},Electric Load {W/m2},Gas Load {W/m2},Other Load {W/m2},Hot Water Eq {W/m2},Steam Equipment {W/m2},Sum Loads per Area {W/m2},Outdoor Controlled Baseboard Heat
 Zone Internal Gains Nominal, SP-OFFICE ENCLOSED > 25 M2-SPACE FUNCTION SYS-3 FLR-1 SCH-A HPLCMT-CORE ZN,2500.00,125.0,19.993,5.002E-002,12.004,7.503,0.000,0.000,0.000,0.000,19.507,No
 Zone Internal Gains Nominal, SP-OFFICE OPEN PLAN-SPACE FUNCTION SYS-3 FLR-1 SCH-A HPLCMT-SOUTH ZN,1875.00,93.8,19.993,5.002E-002,10.604,7.503,0.000,0.000,0.000,0.000,18.107,No
 Zone Internal Gains Nominal, SP-PHARMACY AREA-SPACE FUNCTION SYS-3 FLR-1 SCH-C HPLCMT-EAST ZN,1875.00,93.8,19.993,5.002E-002,18.107,2.501,0.000,0.000,0.000,0.000,20.607,No
 Zone Internal Gains Nominal, SP-SALES AREA-SPACE FUNCTION SYS-3 FLR-1 SCH-C HPLCMT-NORTH ZN,1875.00,62.5,29.989,3.335E-002,15.506,2.501,0.000,0.000,0.000,0.000,18.007,No
 Zone Internal Gains Nominal, SP-SEATING AREA GENERAL-SCH-A-SPACE FUNCTION SYS-3 FLR-1 SCH-A HPLCMT-WEST ZN,1875.00,187.6,9.996,0.100,5.902,0.000,0.000,0.000,0.000,0.000,5.902,No
! <People Internal Gains Nominal>,Name,Schedule Name,Zone Name,Zone Floor Area {m2},# Zone Occupants,Number of People {},People/Floor Area {person/m2},Floor Area per person {m2/person},Fraction Radiant,Fraction Convected,Sensible Fraction Calculation,Activity level,ASHRAE 55 Warnings,Carbon Dioxide Generation Rate,Nominal Minimum Number of People,Nominal Maximum Number of People
 People Internal Gains Nominal, SP-OFFICE ENCLOSED > 25 M2-SPACE FUNCTION SYS-3 FLR-1 SCH-A HPLCMT-CORE ZN SPACE FUNCTION OFFICE ENCLOSED > 25 M2 PEOPLE,NECB-A-OCCUPANCY,SP-OFFICE ENCLOSED > 25 M2-SPACE FUNCTION SYS-3 FLR-1 SCH-A HPLCMT-CORE ZN,2500.00,125.0,125.0,5.002E-002,19.993,0.300,0.700,AutoCalculate,NECB-ACTIVITY,No,3.8200E-008,0,113
 People Internal Gains Nominal, SP-OFFICE OPEN PLAN-SPACE FUNCTION SYS-3 FLR-1 SCH-A HPLCMT-SOUTH ZN SPACE FUNCTION OFFICE OPEN PLAN PEOPLE,NECB-A-OCCUPANCY,SP-OFFICE OPEN PLAN-SPACE FUNCTION SYS-3 FLR-1 SCH-A HPLCMT-SOUTH ZN,1875.00,93.8,93.8,5.002E-002,19.993,0.300,0.700,AutoCalculate,NECB-ACTIVITY,No,3.8200E-008,0,84
 People Internal Gains Nominal, SP-PHARMACY AREA-SPACE FUNCTION SYS-3 FLR-1 SCH-C HPLCMT-EAST ZN SPACE FUNCTION PHARMACY AREA PEOPLE,NECB-C-OCCUPANCY,SP-PHARMACY AREA-SPACE FUNCTION SYS-3 FLR-1 SCH-C HPLCMT-EAST ZN,1875.00,93.8,93.8,5.002E-002,19.993,0.300,0.700,AutoCalculate,NECB-ACTIVITY,No,3.8200E-008,0,84
 People Internal Gains Nominal, SP-SALES AREA-SPACE FUNCTION SYS-3 FLR-1 SCH-C HPLCMT-NORTH ZN SPACE FUNCTION SALES AREA PEOPLE,NECB-C-OCCUPANCY,SP-SALES AREA-SPACE FUNCTION SYS-3 FLR-1 SCH-C HPLCMT-NORTH ZN,1875.00,62.5,62.5,3.335E-002,29.989,0.300,0.700,AutoCalculate,NECB-ACTIVITY,No,3.8200E-008,0,56
 People Internal Gains Nominal, SP-SEATING AREA GENERAL-SCH-A-SPACE FUNCTION SYS-3 FLR-1 SCH-A HPLCMT-WEST ZN SPACE FUNCTION SEATING AREA GENERAL-SCH-A PEOPLE,NECB-A-OCCUPANCY,SP-SEATING AREA GENERAL-SCH-A-SPACE FUNCTION SYS-3 FLR-1 SCH-A HPLCMT-WEST ZN,1875.00,187.6,187.6,0.100,9.996,0.300,0.700,AutoCalculate,NECB-ACTIVITY,No,3.8200E-008,0,169
! <Lights Internal Gains Nominal>,Name,Schedule Name,Zone Name,Zone Floor Area {m2},# Zone Occupants,Lighting Level {W},Lights/Floor Area {W/m2},Lights per person {W/person},Fraction Return Air,Fraction Radiant,Fraction Short Wave,Fraction Convected,Fraction Replaceable,End-Use Category,Nominal Minimum Lighting Level {W},Nominal Maximum Lighting Level {W}
 Lights Internal Gains Nominal, SP-OFFICE ENCLOSED > 25 M2-SPACE FUNCTION SYS-3 FLR-1 SCH-A HPLCMT-CORE ZN SPACE FUNCTION OFFICE ENCLOSED > 25 M2 LIGHTS,NECB-A-OCCUPANCY-NECB-A-LIGHTING-0.3-0.1-0.67-LIGHT RULESET,SP-OFFICE ENCLOSED > 25 M2-SPACE FUNCTION SYS-3 FLR-1 SCH-A HPLCMT-CORE ZN,2500.00,125.0,30010.903,12.004,240.000,0.000,0.500,0.200,0.300,1.000,General,1048.881,27009.812
 Lights Internal Gains Nominal, SP-OFFICE OPEN PLAN-SPACE FUNCTION SYS-3 FLR-1 SCH-A HPLCMT-SOUTH ZN SPACE FUNCTION OFFICE OPEN PLAN LIGHTS,NECB-A-OCCUPANCY-NECB-A-LIGHTING-0.2-0.1-0.67-LIGHT RULESET,SP-OFFICE OPEN PLAN-SPACE FUNCTION SYS-3 FLR-1 SCH-A HPLCMT-SOUTH ZN,1875.00,93.8,19882.223,10.604,212.000,0.000,0.500,0.200,0.300,1.000,General,761.489,17894.001
 Lights Internal Gains Nominal, SP-PHARMACY AREA-SPACE FUNCTION SYS-3 FLR-1 SCH-C HPLCMT-EAST ZN SPACE FUNCTION PHARMACY AREA LIGHTS,NECB-C-OCCUPANCY-NECB-C-LIGHTING-0.0-0.0-0.67-LIGHT RULESET,SP-PHARMACY AREA-SPACE FUNCTION SYS-3 FLR-1 SCH-C HPLCMT-EAST ZN,1875.00,93.8,33949.834,18.107,362.000,0.000,0.500,0.200,0.300,1.000,General,1697.492,30554.850
 Lights Internal Gains Nominal, SP-SALES AREA-SPACE FUNCTION SYS-3 FLR-1 SCH-C HPLCMT-NORTH ZN SPACE FUNCTION SALES AREA LIGHTS,NECB-C-OCCUPANCY-NECB-C-LIGHTING-0.0-0.0-0.67-LIGHT RULESET,SP-SALES AREA-SPACE FUNCTION SYS-3 FLR-1 SCH-C HPLCMT-NORTH ZN,1875.00,62.5,29073.062,15.506,465.000,0.000,0.500,0.200,0.300,1.000,General,1453.653,26165.756
 Lights Internal Gains Nominal, SP-SEATING AREA GENERAL-SCH-A-SPACE FUNCTION SYS-3 FLR-1 SCH-A HPLCMT-WEST ZN SPACE FUNCTION SEATING AREA GENERAL-SCH-A LIGHTS,NECB-A-LIGHTING,SP-SEATING AREA GENERAL-SCH-A-SPACE FUNCTION SYS-3 FLR-1 SCH-A HPLCMT-WEST ZN,1875.00,187.6,11066.520,5.902,59.000,0.000,0.500,0.200,0.300,1.000,General,553.326,9959.868
! <ElectricEquipment Internal Gains Nominal>,Name,Schedule Name,Zone Name,Zone Floor Area {m2},# Zone Occupants,Equipment Level {W},Equipment/Floor Area {W/m2},Equipment per person {W/person},Fraction Latent,Fraction Radiant,Fraction Lost,Fraction Convected,End-Use SubCategory,Nominal Minimum Equipment Level {W},Nominal Maximum Equipment Level {W}
 ElectricEquipment Internal Gains Nominal, SP-OFFICE ENCLOSED > 25 M2-SPACE FUNCTION SYS-3 FLR-1 SCH-A HPLCMT-CORE ZN SPACE FUNCTION OFFICE ENCLOSED > 25 M2 ELEC EQUIP,NECB-A-ELECTRIC-EQUIPMENT,SP-OFFICE ENCLOSED > 25 M2-SPACE FUNCTION SYS-3 FLR-1 SCH-A HPLCMT-CORE ZN,2500.00,125.0,18756.814,7.503,150.000,0.000,0.500,0.000,0.500,General,3751.363,16881.133
 ElectricEquipment Internal Gains Nominal, SP-OFFICE OPEN PLAN-SPACE FUNCTION SYS-3 FLR-1 SCH-A HPLCMT-SOUTH ZN SPACE FUNCTION OFFICE OPEN PLAN ELEC EQUIP,NECB-A-ELECTRIC-EQUIPMENT,SP-OFFICE OPEN PLAN-SPACE FUNCTION SYS-3 FLR-1 SCH-A HPLCMT-SOUTH ZN,1875.00,93.8,14067.611,7.503,150.000,0.000,0.500,0.000,0.500,General,2813.522,12660.850
 ElectricEquipment Internal Gains Nominal, SP-PHARMACY AREA-SPACE FUNCTION SYS-3 FLR-1 SCH-C HPLCMT-EAST ZN SPACE FUNCTION PHARMACY AREA ELEC EQUIP,NECB-C-ELECTRIC-EQUIPMENT,SP-PHARMACY AREA-SPACE FUNCTION SYS-3 FLR-1 SCH-C HPLCMT-EAST ZN,1875.00,93.8,4689.204,2.501,50.000,0.000,0.500,0.000,0.500,General,234.460,4220.283
 ElectricEquipment Internal Gains Nominal, SP-SALES AREA-SPACE FUNCTION SYS-3 FLR-1 SCH-C HPLCMT-NORTH ZN SPACE FUNCTION SALES AREA ELEC EQUIP,NECB-C-ELECTRIC-EQUIPMENT,SP-SALES AREA-SPACE FUNCTION SYS-3 FLR-1 SCH-C HPLCMT-NORTH ZN,1875.00,62.5,4689.204,2.501,75.000,0.000,0.500,0.000,0.500,General,234.460,4220.283
! <Shadowing/Sun Position Calculations Annual Simulations>, Calculation Method, Value {days}, Allowable Number Figures in Shadow Overlap {}, Polygon Clipping Algorithm, Sky Diffuse Modeling Algorithm, External Shading Calculation Method, Output External Shading Calculation Results, Disable Self-Shading Within Shading Zone Groups, Disable Self-Shading From Shading Zone Groups to Other Zones
Shadowing/Sun Position Calculations Annual Simulations,AverageOverDaysInFrequency,20,15000,SutherlandHodgman,SimpleSkyDiffuseModeling,InternalCalculation,No,No,No
! <Water Heater Information>,Type,Name,Volume {m3},Maximum Capacity {W},Standard Rated Recovery Efficiency, Standard Rated Energy Factor
! <RoomAir Model>, Zone Name, Mixing/Mundt/UCSDDV/UCSDCV/UCSDUFI/UCSDUFE/User Defined
RoomAir Model,SP-OFFICE ENCLOSED > 25 M2-SPACE FUNCTION SYS-3 FLR-1 SCH-A HPLCMT-CORE ZN,Mixing/Well-Stirred
RoomAir Model,SP-OFFICE OPEN PLAN-SPACE FUNCTION SYS-3 FLR-1 SCH-A HPLCMT-SOUTH ZN,Mixing/Well-Stirred
RoomAir Model,SP-PHARMACY AREA-SPACE FUNCTION SYS-3 FLR-1 SCH-C HPLCMT-EAST ZN,Mixing/Well-Stirred
RoomAir Model,SP-SALES AREA-SPACE FUNCTION SYS-3 FLR-1 SCH-C HPLCMT-NORTH ZN,Mixing/Well-Stirred
RoomAir Model,SP-SEATING AREA GENERAL-SCH-A-SPACE FUNCTION SYS-3 FLR-1 SCH-A HPLCMT-WEST ZN,Mixing/Well-Stirred
! <AirflowNetwork Model:Control>, No Multizone or Distribution/Multizone with Distribution/Multizone without Distribution/Multizone with Distribution only during Fan Operation
AirflowNetwork Model:Control,NoMultizoneOrDistribution
! <Zone Volume Capacitance Multiplier>, Sensible Heat Capacity Multiplier, Moisture Capacity Multiplier, Carbon Dioxide Capacity Multiplier, Generic Contaminant Capacity Multiplier
Zone Volume Capacitance Multiplier,   1.000 ,   1.000,   1.000,   1.000
! <Load Timesteps in Zone Design Calculation Averaging Window>, Value
 Load Timesteps in Zone Design Calculation Averaging Window,    6
! <Heating Sizing Factor Information>, Sizing Factor ID, Value
 Heating Sizing Factor Information, Global,   1.3000    
 Heating Sizing Factor Information, Zone SP-OFFICE ENCLOSED > 25 M2-SPACE FUNCTION SYS-3 FLR-1 SCH-A HPLCMT-CORE ZN,   1.3000    
 Heating Sizing Factor Information, Zone SP-OFFICE OPEN PLAN-SPACE FUNCTION SYS-3 FLR-1 SCH-A HPLCMT-SOUTH ZN,   1.3000    
 Heating Sizing Factor Information, Zone SP-PHARMACY AREA-SPACE FUNCTION SYS-3 FLR-1 SCH-C HPLCMT-EAST ZN,   1.3000    
 Heating Sizing Factor Information, Zone SP-SALES AREA-SPACE FUNCTION SYS-3 FLR-1 SCH-C HPLCMT-NORTH ZN,   1.3000    
 Heating Sizing Factor Information, Zone SP-SEATING AREA GENERAL-SCH-A-SPACE FUNCTION SYS-3 FLR-1 SCH-A HPLCMT-WEST ZN,   1.3000    
! <Cooling Sizing Factor Information>, Sizing Factor ID, Value
 Cooling Sizing Factor Information, Global,   1.1000    
 Cooling Sizing Factor Information, Zone SP-OFFICE ENCLOSED > 25 M2-SPACE FUNCTION SYS-3 FLR-1 SCH-A HPLCMT-CORE ZN,   1.1000    
 Cooling Sizing Factor Information, Zone SP-OFFICE OPEN PLAN-SPACE FUNCTION SYS-3 FLR-1 SCH-A HPLCMT-SOUTH ZN,   1.1000    
 Cooling Sizing Factor Information, Zone SP-PHARMACY AREA-SPACE FUNCTION SYS-3 FLR-1 SCH-C HPLCMT-EAST ZN,   1.1000    
 Cooling Sizing Factor Information, Zone SP-SALES AREA-SPACE FUNCTION SYS-3 FLR-1 SCH-C HPLCMT-NORTH ZN,   1.1000    
 Cooling Sizing Factor Information, Zone SP-SEATING AREA GENERAL-SCH-A-SPACE FUNCTION SYS-3 FLR-1 SCH-A HPLCMT-WEST ZN,   1.1000    
! <Zone Sizing Information>, Zone Name, Load Type, Calc Des Load {W}, User Des Load {W}, Calc Des Air Flow Rate {m3/s}, User Des Air Flow Rate {m3/s}, Design Day Name, Date/Time of Peak, Temperature at Peak {C}, Humidity Ratio at Peak {kgWater/kgDryAir}, Floor Area {m2}, # Occupants, Calc Outdoor Air Flow Rate {m3/s}, Calc DOAS Heat Addition Rate {W}
 Zone Sizing Information, SP-OFFICE ENCLOSED > 25 M2-SPACE FUNCTION SYS-3 FLR-1 SCH-A HPLCMT-CORE ZN, Cooling, 40916.51101, 45008.16211, 3.16249, 3.47874, FORT MCMURRAY AP ANN CLG .4% CONDNS DB=>MWB, 7/21 17:00:00, 27.16400, 8.76969E-003, 2500.00000, 125.04543, 1.05410, 0.00000
 Zone Sizing Information, SP-OFFICE ENCLOSED > 25 M2-SPACE FUNCTION SYS-3 FLR-1 SCH-A HPLCMT-CORE ZN, Heating, 1832.59220, 2382.36986, 7.30408E-002, 1.05410, FORT MCMURRAY AP ANN HTG 99.6% CONDNS DB, 1/21 07:10:00, -36.20000, 1.25811E-004, 2500.00000, 125.04543, 1.05410, 0.00000
 Zone Sizing Information, SP-OFFICE OPEN PLAN-SPACE FUNCTION SYS-3 FLR-1 SCH-A HPLCMT-SOUTH ZN, Cooling, 28858.33725, 31744.17098, 2.23049, 2.45354, FORT MCMURRAY AP ANN CLG .4% CONDNS DB=>MWB, 7/21 17:00:00, 27.16400, 8.76969E-003, 1875.00000, 93.78407, 0.79058, 0.00000
 Zone Sizing Information, SP-OFFICE OPEN PLAN-SPACE FUNCTION SYS-3 FLR-1 SCH-A HPLCMT-SOUTH ZN, Heating, 1458.14298, 1895.58588, 5.80636E-002, 0.79058, FORT MCMURRAY AP ANN HTG 99.6% CONDNS DB, 1/21 07:10:00, -36.20000, 1.25811E-004, 1875.00000, 93.78407, 0.79058, 0.00000
 Zone Sizing Information, SP-PHARMACY AREA-SPACE FUNCTION SYS-3 FLR-1 SCH-C HPLCMT-EAST ZN, Cooling, 31387.92040, 34526.71244, 2.42596, 2.66856, FORT MCMURRAY AP ANN CLG .4% CONDNS DB=>MWB, 7/21 17:00:00, 27.16400, 8.76969E-003, 1875.00000, 93.78407, 2.15646, 0.00000
 Zone Sizing Information, SP-PHARMACY AREA-SPACE FUNCTION SYS-3 FLR-1 SCH-C HPLCMT-EAST ZN, Heating, 3949.72373, 5134.64085, 0.15263, 2.15646, FORT MCMURRAY AP ANN HTG 99.6% CONDNS DB, 1/21 08:10:00, -36.20000, 1.25811E-004, 1875.00000, 93.78407, 2.15646, 0.00000
 Zone Sizing Information, SP-SALES AREA-SPACE FUNCTION SYS-3 FLR-1 SCH-C HPLCMT-NORTH ZN, Cooling, 26032.44036, 28635.68439, 2.01198, 2.21317, FORT MCMURRAY AP ANN CLG .4% CONDNS DB=>MWB, 7/21 17:00:00, 27.16400, 8.76969E-003, 1875.00000, 62.52271, 2.19075, 0.00000
 Zone Sizing Information, SP-SALES AREA-SPACE FUNCTION SYS-3 FLR-1 SCH-C HPLCMT-NORTH ZN, Heating, 4724.29513, 6141.58366, 0.18121, 2.19075, FORT MCMURRAY AP ANN HTG 99.6% CONDNS DB, 1/21 08:10:00, -36.20000, 1.25811E-004, 1875.00000, 62.52271, 2.19075, 0.00000
 Zone Sizing Information, SP-SEATING AREA GENERAL-SCH-A-SPACE FUNCTION SYS-3 FLR-1 SCH-A HPLCMT-WEST ZN, Cooling, 17256.25064, 18981.87570, 1.33392, 7.59143, FORT MCMURRAY AP ANN CLG .4% CONDNS DB=>MWB, 7/21 17:00:00, 27.16400, 8.76969E-003, 1875.00000, 187.56814, 7.59143, 0.00000
 Zone Sizing Information, SP-SEATING AREA GENERAL-SCH-A-SPACE FUNCTION SYS-3 FLR-1 SCH-A HPLCMT-WEST ZN, Heating, 6657.88819, 8655.25464, 0.25100, 7.59143, FORT MCMURRAY AP ANN HTG 99.6% CONDNS DB, 1/21 07:10:00, -36.20000, 1.25811E-004, 1875.00000, 187.56814, 7.59143, 0.00000
! <System Sizing Information>, System Name, Load Type, Peak Load Kind, User Design Capacity, Calc Des Air Flow Rate [m3/s], User Des Air Flow Rate [m3/s], Design Day Name, Date/Time of Peak
 System Sizing Information, SYS_3_PSZ SP-OFFICE ENCLOSED > 25 M2-SPACE FUNCTION SYS-3 FLR-1 SCH-A HPLCMT-CORE ZN, Cooling, Sensible, 48176.28, 3.47874, 3.47874, FORT MCMURRAY AP ANN CLG .4% CONDNS DB=>MWB, 7/21 05:00:00
 System Sizing Information, SYS_3_PSZ SP-OFFICE ENCLOSED > 25 M2-SPACE FUNCTION SYS-3 FLR-1 SCH-A HPLCMT-CORE ZN, Heating, Sensible, 96686.34, 1.05410, 1.05410, FORT MCMURRAY AP ANN HTG 99.6% CONDNS DB, 1/21 00:10:00
 System Sizing Information, SYS_3_PSZ SP-OFFICE OPEN PLAN-SPACE FUNCTION SYS-3 FLR-1 SCH-A HPLCMT-SOUTH ZN, Cooling, Sensible, 34151.36, 2.45354, 2.45354, FORT MCMURRAY AP ANN CLG .4% CONDNS DB=>MWB, 7/21 05:00:00
 System Sizing Information, SYS_3_PSZ SP-OFFICE OPEN PLAN-SPACE FUNCTION SYS-3 FLR-1 SCH-A HPLCMT-SOUTH ZN, Heating, Sensible, 72514.75, 0.79058, 0.79058, FORT MCMURRAY AP ANN HTG 99.6% CONDNS DB, 1/21 00:10:00
 System Sizing Information, SYS_3_PSZ SP-PHARMACY AREA-SPACE FUNCTION SYS-3 FLR-1 SCH-C HPLCMT-EAST ZN, Cooling, Sensible, 41897.33, 2.66856, 2.66856, FORT MCMURRAY AP ANN CLG .4% CONDNS DB=>MWB, 7/21 05:00:00
 System Sizing Information, SYS_3_PSZ SP-PHARMACY AREA-SPACE FUNCTION SYS-3 FLR-1 SCH-C HPLCMT-EAST ZN, Heating, Sensible, 197799.28, 2.15646, 2.15646, FORT MCMURRAY AP ANN HTG 99.6% CONDNS DB, 1/21 00:10:00
 System Sizing Information, SYS_3_PSZ SP-SALES AREA-SPACE FUNCTION SYS-3 FLR-1 SCH-C HPLCMT-NORTH ZN, Cooling, Sensible, 36222.23, 2.21317, 2.21317, FORT MCMURRAY AP ANN CLG .4% CONDNS DB=>MWB, 7/21 05:00:00
 System Sizing Information, SYS_3_PSZ SP-SALES AREA-SPACE FUNCTION SYS-3 FLR-1 SCH-C HPLCMT-NORTH ZN, Heating, Sensible, 200944.50, 2.19075, 2.19075, FORT MCMURRAY AP ANN HTG 99.6% CONDNS DB, 1/21 00:10:00
 System Sizing Information, SYS_3_PSZ SP-SEATING AREA GENERAL-SCH-A-SPACE FUNCTION SYS-3 FLR-1 SCH-A HPLCMT-WEST ZN, Cooling, Sensible, 124528.09, 7.59143, 7.59143, FORT MCMURRAY AP ANN CLG .4% CONDNS DB=>MWB, 7/21 05:00:00
 System Sizing Information, SYS_3_PSZ SP-SEATING AREA GENERAL-SCH-A-SPACE FUNCTION SYS-3 FLR-1 SCH-A HPLCMT-WEST ZN, Heating, Sensible, 696316.37, 7.59143, 7.59143, FORT MCMURRAY AP ANN HTG 99.6% CONDNS DB, 1/21 00:10:00
! <Component Sizing Information>, Component Type, Component Name, Input Field Description, Value
 Component Sizing Information, AirTerminal:SingleDuct:Uncontrolled, AIR TERMINAL SINGLE DUCT UNCONTROLLED 3, Design Size Maximum Air Flow Rate [m3/s], 3.47874
 Component Sizing Information, ZoneHVAC:Baseboard:Convective:Water, ZONE HVAC BASEBOARD CONVECTIVE WATER 3, Design Size Maximum Water Flow Rate [m3/s], 3.55826E-005
 Component Sizing Information, ZoneHVAC:Baseboard:Convective:Water, ZONE HVAC BASEBOARD CONVECTIVE WATER 3, Design Size U-Factor Times Area Value [W/K], 47.36829
 Component Sizing Information, AirTerminal:SingleDuct:Uncontrolled, AIR TERMINAL SINGLE DUCT UNCONTROLLED 2, Design Size Maximum Air Flow Rate [m3/s], 2.45354
 Component Sizing Information, ZoneHVAC:Baseboard:Convective:Water, ZONE HVAC BASEBOARD CONVECTIVE WATER 2, Design Size Maximum Water Flow Rate [m3/s], 2.83121E-005
 Component Sizing Information, ZoneHVAC:Baseboard:Convective:Water, ZONE HVAC BASEBOARD CONVECTIVE WATER 2, Design Size U-Factor Times Area Value [W/K], 37.69010
 Component Sizing Information, AirTerminal:SingleDuct:Uncontrolled, AIR TERMINAL SINGLE DUCT UNCONTROLLED 5, Design Size Maximum Air Flow Rate [m3/s], 2.66856
 Component Sizing Information, ZoneHVAC:Baseboard:Convective:Water, ZONE HVAC BASEBOARD CONVECTIVE WATER 5, Design Size Maximum Water Flow Rate [m3/s], 7.66900E-005
 Component Sizing Information, ZoneHVAC:Baseboard:Convective:Water, ZONE HVAC BASEBOARD CONVECTIVE WATER 5, Design Size U-Factor Times Area Value [W/K], 103.94576
 Component Sizing Information, AirTerminal:SingleDuct:Uncontrolled, AIR TERMINAL SINGLE DUCT UNCONTROLLED 4, Design Size Maximum Air Flow Rate [m3/s], 2.21317
 Component Sizing Information, ZoneHVAC:Baseboard:Convective:Water, ZONE HVAC BASEBOARD CONVECTIVE WATER 4, Design Size Maximum Water Flow Rate [m3/s], 9.17295E-005
 Component Sizing Information, ZoneHVAC:Baseboard:Convective:Water, ZONE HVAC BASEBOARD CONVECTIVE WATER 4, Design Size U-Factor Times Area Value [W/K], 124.22924
 Component Sizing Information, AirTerminal:SingleDuct:Uncontrolled, AIR TERMINAL SINGLE DUCT UNCONTROLLED 1, Design Size Maximum Air Flow Rate [m3/s], 7.59143
 Component Sizing Information, ZoneHVAC:Baseboard:Convective:Water, ZONE HVAC BASEBOARD CONVECTIVE WATER 1, Design Size Maximum Water Flow Rate [m3/s], 1.29273E-004
 Component Sizing Information, ZoneHVAC:Baseboard:Convective:Water, ZONE HVAC BASEBOARD CONVECTIVE WATER 1, Design Size U-Factor Times Area Value [W/K], 171.20907
 Component Sizing Information, AirLoopHVAC, SYS_3_PSZ SP-OFFICE ENCLOSED > 25 M2-SPACE FUNCTION SYS-3 FLR-1 SCH-A HPLCMT-CORE ZN, Sum of Air Terminal Maximum Heating Flow Rates [m3/s], 3.47874
 Component Sizing Information, AirLoopHVAC, SYS_3_PSZ SP-OFFICE ENCLOSED > 25 M2-SPACE FUNCTION SYS-3 FLR-1 SCH-A HPLCMT-CORE ZN, Sum of Air Terminal Minimum Heating Flow Rates [m3/s], 3.47874
 Component Sizing Information, AirLoopHVAC, SYS_3_PSZ SP-OFFICE ENCLOSED > 25 M2-SPACE FUNCTION SYS-3 FLR-1 SCH-A HPLCMT-CORE ZN, Sum of Air Terminal Maximum Flow Rates [m3/s], 3.47874
 Component Sizing Information, AirLoopHVAC, SYS_3_PSZ SP-OFFICE ENCLOSED > 25 M2-SPACE FUNCTION SYS-3 FLR-1 SCH-A HPLCMT-CORE ZN, Adjusted Heating Design Air Flow Rate [m3/s], 3.47874
 Component Sizing Information, AirLoopHVAC, SYS_3_PSZ SP-OFFICE ENCLOSED > 25 M2-SPACE FUNCTION SYS-3 FLR-1 SCH-A HPLCMT-CORE ZN, Adjusted Cooling Design Air Flow Rate [m3/s], 3.47874
 Component Sizing Information, AirLoopHVAC, SYS_3_PSZ SP-OFFICE ENCLOSED > 25 M2-SPACE FUNCTION SYS-3 FLR-1 SCH-A HPLCMT-CORE ZN, Adjusted Main Design Air Flow Rate [m3/s], 3.47874
 Component Sizing Information, AirLoopHVAC, SYS_3_PSZ SP-OFFICE ENCLOSED > 25 M2-SPACE FUNCTION SYS-3 FLR-1 SCH-A HPLCMT-CORE ZN, User Heating Air Flow Ratio [], 1.00000
 Component Sizing Information, AirLoopHVAC, SYS_3_PSZ SP-OFFICE ENCLOSED > 25 M2-SPACE FUNCTION SYS-3 FLR-1 SCH-A HPLCMT-CORE ZN, Calculated Heating Air Flow Ratio [], 1.00000
 Component Sizing Information, AirLoopHVAC, SYS_3_PSZ SP-OFFICE OPEN PLAN-SPACE FUNCTION SYS-3 FLR-1 SCH-A HPLCMT-SOUTH ZN, Sum of Air Terminal Maximum Heating Flow Rates [m3/s], 2.45354
 Component Sizing Information, AirLoopHVAC, SYS_3_PSZ SP-OFFICE OPEN PLAN-SPACE FUNCTION SYS-3 FLR-1 SCH-A HPLCMT-SOUTH ZN, Sum of Air Terminal Minimum Heating Flow Rates [m3/s], 2.45354
 Component Sizing Information, AirLoopHVAC, SYS_3_PSZ SP-OFFICE OPEN PLAN-SPACE FUNCTION SYS-3 FLR-1 SCH-A HPLCMT-SOUTH ZN, Sum of Air Terminal Maximum Flow Rates [m3/s], 2.45354
 Component Sizing Information, AirLoopHVAC, SYS_3_PSZ SP-OFFICE OPEN PLAN-SPACE FUNCTION SYS-3 FLR-1 SCH-A HPLCMT-SOUTH ZN, Adjusted Heating Design Air Flow Rate [m3/s], 2.45354
 Component Sizing Information, AirLoopHVAC, SYS_3_PSZ SP-OFFICE OPEN PLAN-SPACE FUNCTION SYS-3 FLR-1 SCH-A HPLCMT-SOUTH ZN, Adjusted Cooling Design Air Flow Rate [m3/s], 2.45354
 Component Sizing Information, AirLoopHVAC, SYS_3_PSZ SP-OFFICE OPEN PLAN-SPACE FUNCTION SYS-3 FLR-1 SCH-A HPLCMT-SOUTH ZN, Adjusted Main Design Air Flow Rate [m3/s], 2.45354
 Component Sizing Information, AirLoopHVAC, SYS_3_PSZ SP-OFFICE OPEN PLAN-SPACE FUNCTION SYS-3 FLR-1 SCH-A HPLCMT-SOUTH ZN, User Heating Air Flow Ratio [], 1.00000
 Component Sizing Information, AirLoopHVAC, SYS_3_PSZ SP-OFFICE OPEN PLAN-SPACE FUNCTION SYS-3 FLR-1 SCH-A HPLCMT-SOUTH ZN, Calculated Heating Air Flow Ratio [], 1.00000
 Component Sizing Information, AirLoopHVAC, SYS_3_PSZ SP-PHARMACY AREA-SPACE FUNCTION SYS-3 FLR-1 SCH-C HPLCMT-EAST ZN, Sum of Air Terminal Maximum Heating Flow Rates [m3/s], 2.66856
 Component Sizing Information, AirLoopHVAC, SYS_3_PSZ SP-PHARMACY AREA-SPACE FUNCTION SYS-3 FLR-1 SCH-C HPLCMT-EAST ZN, Sum of Air Terminal Minimum Heating Flow Rates [m3/s], 2.66856
 Component Sizing Information, AirLoopHVAC, SYS_3_PSZ SP-PHARMACY AREA-SPACE FUNCTION SYS-3 FLR-1 SCH-C HPLCMT-EAST ZN, Sum of Air Terminal Maximum Flow Rates [m3/s], 2.66856
 Component Sizing Information, AirLoopHVAC, SYS_3_PSZ SP-PHARMACY AREA-SPACE FUNCTION SYS-3 FLR-1 SCH-C HPLCMT-EAST ZN, Adjusted Heating Design Air Flow Rate [m3/s], 2.66856
 Component Sizing Information, AirLoopHVAC, SYS_3_PSZ SP-PHARMACY AREA-SPACE FUNCTION SYS-3 FLR-1 SCH-C HPLCMT-EAST ZN, Adjusted Cooling Design Air Flow Rate [m3/s], 2.66856
 Component Sizing Information, AirLoopHVAC, SYS_3_PSZ SP-PHARMACY AREA-SPACE FUNCTION SYS-3 FLR-1 SCH-C HPLCMT-EAST ZN, Adjusted Main Design Air Flow Rate [m3/s], 2.66856
 Component Sizing Information, AirLoopHVAC, SYS_3_PSZ SP-PHARMACY AREA-SPACE FUNCTION SYS-3 FLR-1 SCH-C HPLCMT-EAST ZN, User Heating Air Flow Ratio [], 1.00000
 Component Sizing Information, AirLoopHVAC, SYS_3_PSZ SP-PHARMACY AREA-SPACE FUNCTION SYS-3 FLR-1 SCH-C HPLCMT-EAST ZN, Calculated Heating Air Flow Ratio [], 1.00000
 Component Sizing Information, AirLoopHVAC, SYS_3_PSZ SP-SALES AREA-SPACE FUNCTION SYS-3 FLR-1 SCH-C HPLCMT-NORTH ZN, Sum of Air Terminal Maximum Heating Flow Rates [m3/s], 2.21317
 Component Sizing Information, AirLoopHVAC, SYS_3_PSZ SP-SALES AREA-SPACE FUNCTION SYS-3 FLR-1 SCH-C HPLCMT-NORTH ZN, Sum of Air Terminal Minimum Heating Flow Rates [m3/s], 2.21317
 Component Sizing Information, AirLoopHVAC, SYS_3_PSZ SP-SALES AREA-SPACE FUNCTION SYS-3 FLR-1 SCH-C HPLCMT-NORTH ZN, Sum of Air Terminal Maximum Flow Rates [m3/s], 2.21317
 Component Sizing Information, AirLoopHVAC, SYS_3_PSZ SP-SALES AREA-SPACE FUNCTION SYS-3 FLR-1 SCH-C HPLCMT-NORTH ZN, Adjusted Heating Design Air Flow Rate [m3/s], 2.21317
 Component Sizing Information, AirLoopHVAC, SYS_3_PSZ SP-SALES AREA-SPACE FUNCTION SYS-3 FLR-1 SCH-C HPLCMT-NORTH ZN, Adjusted Cooling Design Air Flow Rate [m3/s], 2.21317
 Component Sizing Information, AirLoopHVAC, SYS_3_PSZ SP-SALES AREA-SPACE FUNCTION SYS-3 FLR-1 SCH-C HPLCMT-NORTH ZN, Adjusted Main Design Air Flow Rate [m3/s], 2.21317
 Component Sizing Information, AirLoopHVAC, SYS_3_PSZ SP-SALES AREA-SPACE FUNCTION SYS-3 FLR-1 SCH-C HPLCMT-NORTH ZN, User Heating Air Flow Ratio [], 1.00000
 Component Sizing Information, AirLoopHVAC, SYS_3_PSZ SP-SALES AREA-SPACE FUNCTION SYS-3 FLR-1 SCH-C HPLCMT-NORTH ZN, Calculated Heating Air Flow Ratio [], 1.00000
 Component Sizing Information, AirLoopHVAC, SYS_3_PSZ SP-SEATING AREA GENERAL-SCH-A-SPACE FUNCTION SYS-3 FLR-1 SCH-A HPLCMT-WEST ZN, Sum of Air Terminal Maximum Heating Flow Rates [m3/s], 7.59143
 Component Sizing Information, AirLoopHVAC, SYS_3_PSZ SP-SEATING AREA GENERAL-SCH-A-SPACE FUNCTION SYS-3 FLR-1 SCH-A HPLCMT-WEST ZN, Sum of Air Terminal Minimum Heating Flow Rates [m3/s], 7.59143
 Component Sizing Information, AirLoopHVAC, SYS_3_PSZ SP-SEATING AREA GENERAL-SCH-A-SPACE FUNCTION SYS-3 FLR-1 SCH-A HPLCMT-WEST ZN, Sum of Air Terminal Maximum Flow Rates [m3/s], 7.59143
 Component Sizing Information, AirLoopHVAC, SYS_3_PSZ SP-SEATING AREA GENERAL-SCH-A-SPACE FUNCTION SYS-3 FLR-1 SCH-A HPLCMT-WEST ZN, Adjusted Heating Design Air Flow Rate [m3/s], 7.59143
 Component Sizing Information, AirLoopHVAC, SYS_3_PSZ SP-SEATING AREA GENERAL-SCH-A-SPACE FUNCTION SYS-3 FLR-1 SCH-A HPLCMT-WEST ZN, Adjusted Cooling Design Air Flow Rate [m3/s], 7.59143
 Component Sizing Information, AirLoopHVAC, SYS_3_PSZ SP-SEATING AREA GENERAL-SCH-A-SPACE FUNCTION SYS-3 FLR-1 SCH-A HPLCMT-WEST ZN, Adjusted Main Design Air Flow Rate [m3/s], 7.59143
 Component Sizing Information, AirLoopHVAC, SYS_3_PSZ SP-SEATING AREA GENERAL-SCH-A-SPACE FUNCTION SYS-3 FLR-1 SCH-A HPLCMT-WEST ZN, User Heating Air Flow Ratio [], 1.00000
 Component Sizing Information, AirLoopHVAC, SYS_3_PSZ SP-SEATING AREA GENERAL-SCH-A-SPACE FUNCTION SYS-3 FLR-1 SCH-A HPLCMT-WEST ZN, Calculated Heating Air Flow Ratio [], 1.00000
 Component Sizing Information, AirLoopHVAC, SYS_3_PSZ SP-OFFICE ENCLOSED > 25 M2-SPACE FUNCTION SYS-3 FLR-1 SCH-A HPLCMT-CORE ZN, Design Supply Air Flow Rate [m3/s], 3.47874
 Component Sizing Information, AirLoopHVAC, SYS_3_PSZ SP-OFFICE OPEN PLAN-SPACE FUNCTION SYS-3 FLR-1 SCH-A HPLCMT-SOUTH ZN, Design Supply Air Flow Rate [m3/s], 2.45354
 Component Sizing Information, AirLoopHVAC, SYS_3_PSZ SP-PHARMACY AREA-SPACE FUNCTION SYS-3 FLR-1 SCH-C HPLCMT-EAST ZN, Design Supply Air Flow Rate [m3/s], 2.66856
 Component Sizing Information, AirLoopHVAC, SYS_3_PSZ SP-SALES AREA-SPACE FUNCTION SYS-3 FLR-1 SCH-C HPLCMT-NORTH ZN, Design Supply Air Flow Rate [m3/s], 2.21317
 Component Sizing Information, AirLoopHVAC, SYS_3_PSZ SP-SEATING AREA GENERAL-SCH-A-SPACE FUNCTION SYS-3 FLR-1 SCH-A HPLCMT-WEST ZN, Design Supply Air Flow Rate [m3/s], 7.59143
!<Controller:MechanicalVentilation>,Name,Availability Schedule Name,Demand Controlled Ventilation {Yes/No},System Outdoor Air Method,Zone Maximum Outdoor Air Fraction,Number of Zones,Zone Name,DSOA Name,DSZAD Name
 Controller:MechanicalVentilation,CONTROLLER MECHANICAL VENTILATION 3,SYS_3_PSZ SP-OFFICE ENCLOSED > 25 M2-SPACE FUNCTION SYS-3 FLR-1 SCH-A HPLCMT-CORE ZN OCC SCH,No,ZoneSum,1.00,1,SP-OFFICE ENCLOSED > 25 M2-SPACE FUNCTION SYS-3 FLR-1 SCH-A HPLCMT-CORE ZN,SPACE FUNCTION OFFICE ENCLOSED > 25 M2 VENTILATION,SP-OFFICE ENCLOSED > 25 M2-SPACE FUNCTION SYS-3 FLR-1 SCH-A HPLCMT-CORE ZN DESIGN SPEC ZONE AIR DIST
 Controller:MechanicalVentilation,CONTROLLER MECHANICAL VENTILATION 2,SYS_3_PSZ SP-OFFICE OPEN PLAN-SPACE FUNCTION SYS-3 FLR-1 SCH-A HPLCMT-SOUTH ZN OCC SCH,No,ZoneSum,1.00,1,SP-OFFICE OPEN PLAN-SPACE FUNCTION SYS-3 FLR-1 SCH-A HPLCMT-SOUTH ZN,SPACE FUNCTION OFFICE OPEN PLAN VENTILATION,SP-OFFICE OPEN PLAN-SPACE FUNCTION SYS-3 FLR-1 SCH-A HPLCMT-SOUTH ZN DESIGN SPEC ZONE AIR DIST
 Controller:MechanicalVentilation,CONTROLLER MECHANICAL VENTILATION 5,SYS_3_PSZ SP-PHARMACY AREA-SPACE FUNCTION SYS-3 FLR-1 SCH-C HPLCMT-EAST ZN OCC SCH,No,ZoneSum,1.00,1,SP-PHARMACY AREA-SPACE FUNCTION SYS-3 FLR-1 SCH-C HPLCMT-EAST ZN,SPACE FUNCTION PHARMACY AREA VENTILATION,SP-PHARMACY AREA-SPACE FUNCTION SYS-3 FLR-1 SCH-C HPLCMT-EAST ZN DESIGN SPEC ZONE AIR DIST
 Controller:MechanicalVentilation,CONTROLLER MECHANICAL VENTILATION 4,SYS_3_PSZ SP-SALES AREA-SPACE FUNCTION SYS-3 FLR-1 SCH-C HPLCMT-NORTH ZN OCC SCH,No,ZoneSum,1.00,1,SP-SALES AREA-SPACE FUNCTION SYS-3 FLR-1 SCH-C HPLCMT-NORTH ZN,SPACE FUNCTION SALES AREA VENTILATION,SP-SALES AREA-SPACE FUNCTION SYS-3 FLR-1 SCH-C HPLCMT-NORTH ZN DESIGN SPEC ZONE AIR DIST
 Controller:MechanicalVentilation,CONTROLLER MECHANICAL VENTILATION 1,SYS_3_PSZ SP-SEATING AREA GENERAL-SCH-A-SPACE FUNCTION SYS-3 FLR-1 SCH-A HPLCMT-WEST ZN OCC SCH,No,ZoneSum,1.00,1,SP-SEATING AREA GENERAL-SCH-A-SPACE FUNCTION SYS-3 FLR-1 SCH-A HPLCMT-WEST ZN,SPACE FUNCTION SEATING AREA GENERAL-SCH-A VENTILATION,SP-SEATING AREA GENERAL-SCH-A-SPACE FUNCTION SYS-3 FLR-1 SCH-A HPLCMT-WEST ZN DESIGN SPEC ZONE AIR DIST
 Component Sizing Information, Controller:OutdoorAir, CONTROLLER OUTDOOR AIR 3, Maximum Outdoor Air Flow Rate [m3/s], 3.47874
 Component Sizing Information, Controller:OutdoorAir, CONTROLLER OUTDOOR AIR 3, Minimum Outdoor Air Flow Rate [m3/s], 1.05410
 Component Sizing Information, Coil:Cooling:DX:SingleSpeed, COIL COOLING DX SINGLE SPEED 3 196KBTU/HR 9.08EER, Design Size Rated Air Flow Rate [m3/s], 3.47874
 Component Sizing Information, Coil:Cooling:DX:SingleSpeed, COIL COOLING DX SINGLE SPEED 3 196KBTU/HR 9.08EER, Design Size Gross Rated Total Cooling Capacity [W], 59085.61151
 Component Sizing Information, Coil:Cooling:DX:SingleSpeed, COIL COOLING DX SINGLE SPEED 3 196KBTU/HR 9.08EER, Design Size Gross Rated Sensible Heat Ratio, 0.80032
! <DX Cooling Coil Standard Rating Information>, Component Type, Component Name, Standard Rating (Net) Cooling Capacity {W}, Standard Rated Net COP {W/W}, EER {Btu/W-h}, SEER {Btu/W-h}, IEER {Btu/W-h}
 DX Cooling Coil Standard Rating Information, Coil:Cooling:DX:SingleSpeed, COIL COOLING DX SINGLE SPEED 3 196KBTU/HR 9.08EER, 56381.2, 2.67, 9.12, 9.63, 9.16
 Component Sizing Information, Coil:Heating:Fuel, COIL HEATING GAS 3, Design Size Nominal Capacity [W], 156634.32488
 Component Sizing Information, Fan:ConstantVolume, FAN CONSTANT VOLUME 3, Design Size Maximum Flow Rate [m3/s], 3.47874
 Component Sizing Information, Controller:OutdoorAir, CONTROLLER OUTDOOR AIR 2, Maximum Outdoor Air Flow Rate [m3/s], 2.45354
 Component Sizing Information, Controller:OutdoorAir, CONTROLLER OUTDOOR AIR 2, Minimum Outdoor Air Flow Rate [m3/s], 0.79058
 Component Sizing Information, Coil:Cooling:DX:SingleSpeed, COIL COOLING DX SINGLE SPEED 2 139KBTU/HR 9.08EER, Design Size Rated Air Flow Rate [m3/s], 2.45354
 Component Sizing Information, Coil:Cooling:DX:SingleSpeed, COIL COOLING DX SINGLE SPEED 2 139KBTU/HR 9.08EER, Design Size Gross Rated Total Cooling Capacity [W], 41937.83592
 Component Sizing Information, Coil:Cooling:DX:SingleSpeed, COIL COOLING DX SINGLE SPEED 2 139KBTU/HR 9.08EER, Design Size Gross Rated Sensible Heat Ratio, 0.80006
 DX Cooling Coil Standard Rating Information, Coil:Cooling:DX:SingleSpeed, COIL COOLING DX SINGLE SPEED 2 139KBTU/HR 9.08EER, 40030.3, 2.65, 9.03, 9.53, 9.08
 Component Sizing Information, Coil:Heating:Fuel, COIL HEATING GAS 2, Design Size Nominal Capacity [W], 113668.37583
 Component Sizing Information, Fan:ConstantVolume, FAN CONSTANT VOLUME 2, Design Size Maximum Flow Rate [m3/s], 2.45354
 Component Sizing Information, Controller:OutdoorAir, CONTROLLER OUTDOOR AIR 5, Maximum Outdoor Air Flow Rate [m3/s], 2.66856
 Component Sizing Information, Controller:OutdoorAir, CONTROLLER OUTDOOR AIR 5, Minimum Outdoor Air Flow Rate [m3/s], 2.15646
 Component Sizing Information, HeatExchanger:AirToAir:SensibleAndLatent, SYS_3_PSZ SP-PHARMACY AREA-SPACE FUNCTION SYS-3 FLR-1 SCH-C HPLCMT-EAST ZN ERV, Design Size Nominal Supply Air Flow Rate [m3/s], 2.15646
 Component Sizing Information, Coil:Cooling:DX:SingleSpeed, COIL COOLING DX SINGLE SPEED 5 151KBTU/HR 9.08EER, Design Size Rated Air Flow Rate [m3/s], 2.66856
 Component Sizing Information, Coil:Cooling:DX:SingleSpeed, COIL COOLING DX SINGLE SPEED 5 151KBTU/HR 9.08EER, Design Size Gross Rated Total Cooling Capacity [W], 47691.33288
 Component Sizing Information, Coil:Cooling:DX:SingleSpeed, COIL COOLING DX SINGLE SPEED 5 151KBTU/HR 9.08EER, Design Size Gross Rated Sensible Heat Ratio, 0.80054
 DX Cooling Coil Standard Rating Information, Coil:Cooling:DX:SingleSpeed, COIL COOLING DX SINGLE SPEED 5 151KBTU/HR 9.08EER, 45616.2, 2.67, 9.12, 9.63, 9.20
 Component Sizing Information, Coil:Heating:Fuel, COIL HEATING GAS 5, Design Size Nominal Capacity [W], 210858.21277
 Component Sizing Information, Fan:ConstantVolume, FAN CONSTANT VOLUME 5, Design Size Maximum Flow Rate [m3/s], 2.66856
 Component Sizing Information, Controller:OutdoorAir, CONTROLLER OUTDOOR AIR 4, Maximum Outdoor Air Flow Rate [m3/s], 2.21317
 Component Sizing Information, Controller:OutdoorAir, CONTROLLER OUTDOOR AIR 4, Minimum Outdoor Air Flow Rate [m3/s], 2.19075
 Component Sizing Information, HeatExchanger:AirToAir:SensibleAndLatent, SYS_3_PSZ SP-SALES AREA-SPACE FUNCTION SYS-3 FLR-1 SCH-C HPLCMT-NORTH ZN ERV, Design Size Nominal Supply Air Flow Rate [m3/s], 2.19075
 Component Sizing Information, Coil:Cooling:DX:SingleSpeed, COIL COOLING DX SINGLE SPEED 4 128KBTU/HR 9.26EER, Design Size Rated Air Flow Rate [m3/s], 2.21317
 Component Sizing Information, Coil:Cooling:DX:SingleSpeed, COIL COOLING DX SINGLE SPEED 4 128KBTU/HR 9.26EER, Design Size Gross Rated Total Cooling Capacity [W], 40384.69401
 Component Sizing Information, Coil:Cooling:DX:SingleSpeed, COIL COOLING DX SINGLE SPEED 4 128KBTU/HR 9.26EER, Design Size Gross Rated Sensible Heat Ratio, 0.80053
 DX Cooling Coil Standard Rating Information, Coil:Cooling:DX:SingleSpeed, COIL COOLING DX SINGLE SPEED 4 128KBTU/HR 9.26EER, 38663.4, 2.72, 9.26, 9.79, 9.36
 Component Sizing Information, Coil:Heating:Fuel, COIL HEATING GAS 4, Design Size Nominal Capacity [W], 201520.59287
 Component Sizing Information, Fan:ConstantVolume, FAN CONSTANT VOLUME 4, Design Size Maximum Flow Rate [m3/s], 2.21317
 Component Sizing Information, Controller:OutdoorAir, CONTROLLER OUTDOOR AIR 1, Maximum Outdoor Air Flow Rate [m3/s], 7.59143
 Component Sizing Information, Controller:OutdoorAir, CONTROLLER OUTDOOR AIR 1, Minimum Outdoor Air Flow Rate [m3/s], 7.59143
 Component Sizing Information, HeatExchanger:AirToAir:SensibleAndLatent, SYS_3_PSZ SP-SEATING AREA GENERAL-SCH-A-SPACE FUNCTION SYS-3 FLR-1 SCH-A HPLCMT-WEST ZN ERV, Design Size Nominal Supply Air Flow Rate [m3/s], 7.59143
 Component Sizing Information, Coil:Cooling:DX:SingleSpeed, COIL COOLING DX SINGLE SPEED 1 440KBTU/HR 8.21EER, Design Size Rated Air Flow Rate [m3/s], 7.59143
 Component Sizing Information, Coil:Cooling:DX:SingleSpeed, COIL COOLING DX SINGLE SPEED 1 440KBTU/HR 8.21EER, Design Size Gross Rated Total Cooling Capacity [W], 138705.37176
 Component Sizing Information, Coil:Cooling:DX:SingleSpeed, COIL COOLING DX SINGLE SPEED 1 440KBTU/HR 8.21EER, Design Size Gross Rated Sensible Heat Ratio, 0.80009
 DX Cooling Coil Standard Rating Information, Coil:Cooling:DX:SingleSpeed, COIL COOLING DX SINGLE SPEED 1 440KBTU/HR 8.21EER, 132801.3, 2.59, 8.85, 9.35, 8.98
 Component Sizing Information, Coil:Heating:Fuel, COIL HEATING GAS 1, Design Size Nominal Capacity [W], 696316.37105
 Component Sizing Information, Fan:ConstantVolume, FAN CONSTANT VOLUME 1, Design Size Maximum Flow Rate [m3/s], 7.59143
Water Heater Information,WaterHeater:Mixed,206GAL NATURALGAS WATER HEATER - 139KBTU/HR 0.81 THERM EFF,0.7796,40734.4,0.803,0.4598
 Component Sizing Information, PlantLoop, HOT WATER LOOP, Maximum Loop Flow Rate [m3/s], 3.61588E-004
 Component Sizing Information, PlantLoop, HOT WATER LOOP, Plant Loop Volume [m3], 4.33905E-002
 Component Sizing Information, Pump:VariableSpeed, PUMP VARIABLE SPEED 1, Design Flow Rate [m3/s], 3.61588E-004
 Component Sizing Information, Pump:VariableSpeed, PUMP VARIABLE SPEED 1, Design Power Consumption [W], 97.24315
 Component Sizing Information, Boiler:HotWater, PRIMARY BOILER 83KBTU/HR 0.85 AFUE, Design Size Nominal Capacity [W], 24303.14884
 Component Sizing Information, Boiler:HotWater, PRIMARY BOILER 83KBTU/HR 0.85 AFUE, User-Specified Nominal Capacity [W], 24303.14884
 Component Sizing Information, Boiler:HotWater, PRIMARY BOILER 83KBTU/HR 0.85 AFUE, Design Size Design Water Flow Rate [m3/s], 3.61588E-004
 Component Sizing Information, Boiler:HotWater, SECONDARY BOILER 0KBTU/HR 0.85 AFUE, Design Size Nominal Capacity [W], 24303.14884
 Component Sizing Information, Boiler:HotWater, SECONDARY BOILER 0KBTU/HR 0.85 AFUE, User-Specified Nominal Capacity [W], 1.00000E-003
 Component Sizing Information, Boiler:HotWater, SECONDARY BOILER 0KBTU/HR 0.85 AFUE, Design Size Design Water Flow Rate [m3/s], 3.61588E-004
 Component Sizing Information, PlantLoop, MAIN SERVICE WATER LOOP, Maximum Loop Flow Rate [m3/s], 2.04980E-004
 Component Sizing Information, PlantLoop, MAIN SERVICE WATER LOOP, Plant Loop Volume [m3], 2.45977E-002
 Component Sizing Information, Pump:ConstantSpeed, SERVICE WATER LOOP PUMP, Design Flow Rate [m3/s], 2.04980E-004
 Component Sizing Information, Pump:ConstantSpeed, SERVICE WATER LOOP PUMP, Design Power Consumption [W], 9.31004
 Component Sizing Information, WaterHeater:Mixed, 206GAL NATURALGAS WATER HEATER - 139KBTU/HR 0.81 THERM EFF, Use Side Design Flow Rate [m3/s], 2.04980E-004
! <Environment>,Environment Name,Environment Type, Start Date, End Date, Start DayOfWeek, Duration {#days}, Source:Start DayOfWeek,  Use Daylight Saving, Use Holidays, Apply Weekend Holiday Rule,  Use Rain Values, Use Snow Values
! <Environment:Special Days>, Special Day Name, Special Day Type, Source, Start Date, Duration {#days}
! <Environment:Daylight Saving>, Daylight Saving Indicator, Source, Start Date, End Date
! <Environment:WarmupDays>, NumberofWarmupDays
Environment,FORT MCMURRAY AP ANN CLG .4% CONDNS DB=>MWB,SizingPeriod:DesignDay,07/21,07/21,SummerDesignDay,1,N/A,N/A,N/A,N/A,N/A,N/A
Environment:Daylight Saving,No,SizingPeriod:DesignDay
! <Environment:Design Day Data>, Max Dry-Bulb Temp {C}, Temp Range {dC}, Temp Range Ind Type, Hum Ind Value at Max Temp, Hum Ind Type,Pressure {Pa}, Wind Direction {deg CW from N}, Wind Speed {m/s}, Clearness, Rain, Snow
! <Environment:Design Day Misc>,DayOfYear,ASHRAE A Coeff,ASHRAE B Coeff,ASHRAE C Coeff,Solar Constant-Annual Variation,Eq of Time {minutes}, Solar Declination Angle {deg}, Solar Model
Environment:Design Day Data,28.90,12.40,DefaultMultipliers,96969,250,3.7,0.00,No,No
Environment:Design Day Misc,202,1084.4,0.2082,0.1365,1.0,-6.23,20.6,ASHRAETau
Environment:WarmupDays,  6
! <Tabular Report>,Style,Unit Conversion
Tabular Report,HTML,None
! <Warmup Convergence Information>,Zone Name,Environment Type/Name,Average Warmup Temperature Difference {deltaC},Std Dev Warmup Temperature Difference {deltaC},Max Temperature Pass/Fail Convergence,Min Temperature Pass/Fail Convergence,Average Warmup Load Difference {W},Std Dev Warmup Load Difference {W},Heating Load Pass/Fail Convergence,Cooling Load Pass/Fail Convergence
 Warmup Convergence Information,SP-OFFICE ENCLOSED > 25 M2-SPACE FUNCTION SYS-3 FLR-1 SCH-A HPLCMT-CORE ZN,SizingPeriod: FORT MCMURRAY AP ANN CLG .4% CONDNS DB=>MWB,5.9764810469E-002,0.1500807071,Pass,Pass,0.1348362267,0.7227257114,Pass,Pass
 Warmup Convergence Information,SP-OFFICE OPEN PLAN-SPACE FUNCTION SYS-3 FLR-1 SCH-A HPLCMT-SOUTH ZN,SizingPeriod: FORT MCMURRAY AP ANN CLG .4% CONDNS DB=>MWB,5.9185879721E-002,0.1432546533,Pass,Pass,2.5331034119,29.2763900974,Pass,Pass
 Warmup Convergence Information,SP-PHARMACY AREA-SPACE FUNCTION SYS-3 FLR-1 SCH-C HPLCMT-EAST ZN,SizingPeriod: FORT MCMURRAY AP ANN CLG .4% CONDNS DB=>MWB,3.7983116816E-002,0.1147099287,Pass,Pass,8.1828408883E-002,0.3671264889,Pass,Pass
 Warmup Convergence Information,SP-SALES AREA-SPACE FUNCTION SYS-3 FLR-1 SCH-C HPLCMT-NORTH ZN,SizingPeriod: FORT MCMURRAY AP ANN CLG .4% CONDNS DB=>MWB,4.0090671373E-002,0.1194263856,Pass,Pass,8.2548641154E-002,0.3659173198,Pass,Pass
 Warmup Convergence Information,SP-SEATING AREA GENERAL-SCH-A-SPACE FUNCTION SYS-3 FLR-1 SCH-A HPLCMT-WEST ZN,SizingPeriod: FORT MCMURRAY AP ANN CLG .4% CONDNS DB=>MWB,5.5973131347E-002,0.1817717514,Pass,Pass,9.7378049451E-002,0.2482768544,Pass,Pass
Environment,FORT MCMURRAY AP ANN HTG 99.6% CONDNS DB,SizingPeriod:DesignDay,01/21,01/21,WinterDesignDay,1,N/A,N/A,N/A,N/A,N/A,N/A
Environment:Daylight Saving,No,SizingPeriod:DesignDay
Environment:Design Day Data,-36.20,0.00,DefaultMultipliers,96969,90,1.0,0.00,No,No
Environment:Design Day Misc, 21,1229.0,0.1415,5.7310E-002,1.0,-11.15,-20.1,ASHRAEClearSky
Environment:WarmupDays,  6
 Warmup Convergence Information,SP-OFFICE ENCLOSED > 25 M2-SPACE FUNCTION SYS-3 FLR-1 SCH-A HPLCMT-CORE ZN,SizingPeriod: FORT MCMURRAY AP ANN HTG 99.6% CONDNS DB,7.2047832822E-002,0.2271868300,Pass,Pass,8.1949268193,84.3351900724,Pass,Pass
 Warmup Convergence Information,SP-OFFICE OPEN PLAN-SPACE FUNCTION SYS-3 FLR-1 SCH-A HPLCMT-SOUTH ZN,SizingPeriod: FORT MCMURRAY AP ANN HTG 99.6% CONDNS DB,7.2860539248E-002,0.2243668716,Pass,Pass,1.8014192447,18.3902702739,Pass,Pass
 Warmup Convergence Information,SP-PHARMACY AREA-SPACE FUNCTION SYS-3 FLR-1 SCH-C HPLCMT-EAST ZN,SizingPeriod: FORT MCMURRAY AP ANN HTG 99.6% CONDNS DB,6.5862439364E-002,0.2410519909,Pass,Pass,0.3439075902,2.1653918644,Pass,Pass
 Warmup Convergence Information,SP-SALES AREA-SPACE FUNCTION SYS-3 FLR-1 SCH-C HPLCMT-NORTH ZN,SizingPeriod: FORT MCMURRAY AP ANN HTG 99.6% CONDNS DB,6.5496361471E-002,0.2279140975,Pass,Pass,0.1735095546,0.7154854447,Pass,Pass
 Warmup Convergence Information,SP-SEATING AREA GENERAL-SCH-A-SPACE FUNCTION SYS-3 FLR-1 SCH-A HPLCMT-WEST ZN,SizingPeriod: FORT MCMURRAY AP ANN HTG 99.6% CONDNS DB,5.5556720973E-002,0.3026841997,Pass,Pass,0.3434241044,1.2761346651,Pass,Pass
! <Program Control Information:Threads/Parallel Sims>, Threading Supported,Maximum Number of Threads, Env Set Threads (OMP_NUM_THREADS), EP Env Set Threads (EP_OMP_NUM_THREADS), IDF Set Threads, Number of Threads Used (Interior Radiant Exchange), Number Nominal Surfaces, Number Parallel Sims
Program Control:Threads/Parallel Sims, No,1, N/A, N/A, N/A, N/A, N/A, N/A
End of Data
