Program Version,EnergyPlus, Version 8.9.0-eba93e8e1b, YMD=2019.03.05 16:14
! This file shows details about the branches, nodes, and other
! elements of the flow connections.
! This file is intended for use in "debugging" potential problems
! that may also be detected by the program, but may be more easily
! identified by "eye".
! This file is also intended to support software which draws a
! schematic diagram of the HVAC system.
! ===============================================================
! #Nodes,<Number of Unique Nodes>
 #Nodes,701
! <Node>,<NodeNumber>,<Node Name>,<Node Fluid Type>,<# Times Node Referenced After Definition>
 Node,1,NODE 3,Air,2
 Node,2,NODE 2,Air,2
 Node,3,NODE 6,Air,2
 Node,4,NODE 5,Air,2
 Node,5,NODE 9,Air,2
 Node,6,NODE 8,Air,2
 Node,7,NODE 12,Air,2
 Node,8,NODE 11,Air,2
 Node,9,NODE 15,Air,2
 Node,10,NODE 14,Air,2
 Node,11,NODE 18,Air,2
 Node,12,NODE 17,Air,2
 Node,13,NODE 21,Air,2
 Node,14,NODE 20,Air,2
 Node,15,NODE 24,Air,2
 Node,16,NODE 23,Air,2
 Node,17,NODE 27,Air,2
 Node,18,NODE 26,Air,2
 Node,19,NODE 30,Air,2
 Node,20,NODE 29,Air,2
 Node,21,NODE 33,Air,2
 Node,22,NODE 32,Air,2
 Node,23,NODE 36,Air,2
 Node,24,NODE 35,Air,2
 Node,25,NODE 39,Air,2
 Node,26,NODE 38,Air,2
 Node,27,NODE 42,Air,2
 Node,28,NODE 41,Air,2
 Node,29,NODE 45,Air,2
 Node,30,NODE 44,Air,2
 Node,31,NODE 48,Air,2
 Node,32,NODE 47,Air,2
 Node,33,NODE 51,Air,2
 Node,34,NODE 50,Air,2
 Node,35,NODE 54,Air,2
 Node,36,NODE 53,Air,2
 Node,37,NODE 57,Air,2
 Node,38,NODE 56,Air,2
 Node,39,NODE 60,Air,2
 Node,40,NODE 59,Air,2
 Node,41,NODE 63,Air,2
 Node,42,NODE 62,Air,2
 Node,43,NODE 66,Air,2
 Node,44,NODE 65,Air,2
 Node,45,NODE 69,Air,2
 Node,46,NODE 68,Air,2
 Node,47,NODE 72,Air,2
 Node,48,NODE 71,Air,2
 Node,49,NODE 75,Air,2
 Node,50,NODE 74,Air,2
 Node,51,NODE 78,Air,2
 Node,52,NODE 77,Air,2
 Node,53,NODE 81,Air,2
 Node,54,NODE 80,Air,2
 Node,55,NODE 84,Air,2
 Node,56,NODE 83,Air,2
 Node,57,NODE 87,Air,2
 Node,58,NODE 86,Air,2
 Node,59,NODE 90,Air,2
 Node,60,NODE 89,Air,2
 Node,61,NODE 93,Air,2
 Node,62,NODE 92,Air,2
 Node,63,NODE 96,Air,2
 Node,64,NODE 95,Air,2
 Node,65,NODE 99,Air,2
 Node,66,NODE 98,Air,2
 Node,67,NODE 102,Air,2
 Node,68,NODE 101,Air,2
 Node,69,NODE 105,Air,2
 Node,70,NODE 104,Air,2
 Node,71,NODE 108,Air,2
 Node,72,NODE 107,Air,2
 Node,73,NODE 111,Air,2
 Node,74,NODE 110,Air,2
 Node,75,NODE 114,Air,2
 Node,76,NODE 113,Air,2
 Node,77,NODE 117,Air,2
 Node,78,NODE 116,Air,2
 Node,79,NODE 120,Air,2
 Node,80,NODE 119,Air,2
 Node,81,NODE 123,Air,2
 Node,82,NODE 122,Air,2
 Node,83,NODE 126,Air,2
 Node,84,NODE 125,Air,2
 Node,85,NODE 129,Air,2
 Node,86,NODE 128,Air,2
 Node,87,NODE 132,Air,2
 Node,88,NODE 131,Air,2
 Node,89,NODE 135,Air,2
 Node,90,NODE 134,Air,2
 Node,91,NODE 138,Air,2
 Node,92,NODE 137,Air,2
 Node,93,NODE 141,Air,2
 Node,94,NODE 140,Air,2
 Node,95,NODE 144,Air,2
 Node,96,NODE 143,Air,2
 Node,97,NODE 147,Air,2
 Node,98,NODE 146,Air,2
 Node,99,NODE 150,Air,2
 Node,100,NODE 149,Air,2
 Node,101,NODE 153,Air,2
 Node,102,NODE 152,Air,2
 Node,103,NODE 156,Air,2
 Node,104,NODE 155,Air,2
 Node,105,NODE 159,Air,2
 Node,106,NODE 158,Air,2
 Node,107,NODE 162,Air,2
 Node,108,NODE 161,Air,2
 Node,109,NODE 165,Air,2
 Node,110,NODE 164,Air,2
 Node,111,NODE 168,Air,2
 Node,112,NODE 167,Air,2
 Node,113,NODE 171,Air,2
 Node,114,NODE 170,Air,2
 Node,115,NODE 174,Air,2
 Node,116,NODE 173,Air,2
 Node,117,NODE 177,Air,2
 Node,118,NODE 176,Air,2
 Node,119,NODE 180,Air,2
 Node,120,NODE 179,Air,2
 Node,121,NODE 183,Air,2
 Node,122,NODE 182,Air,2
 Node,123,NODE 186,Air,2
 Node,124,NODE 185,Air,2
 Node,125,NODE 189,Air,2
 Node,126,NODE 188,Air,2
 Node,127,NODE 192,Air,2
 Node,128,NODE 191,Air,2
 Node,129,NODE 195,Air,2
 Node,130,NODE 194,Air,2
 Node,131,NODE 198,Air,2
 Node,132,NODE 197,Air,2
 Node,133,NODE 201,Air,2
 Node,134,NODE 200,Air,2
 Node,135,NODE 204,Air,2
 Node,136,NODE 203,Air,2
 Node,137,NODE 207,Air,2
 Node,138,NODE 206,Air,2
 Node,139,NODE 210,Air,2
 Node,140,NODE 209,Air,2
 Node,141,NODE 213,Air,2
 Node,142,NODE 212,Air,2
 Node,143,NODE 216,Air,2
 Node,144,NODE 215,Air,2
 Node,145,NODE 219,Air,2
 Node,146,NODE 218,Air,2
 Node,147,NODE 222,Air,2
 Node,148,NODE 221,Air,2
 Node,149,NODE 225,Air,2
 Node,150,NODE 224,Air,2
 Node,151,NODE 228,Air,2
 Node,152,NODE 227,Air,2
 Node,153,NODE 231,Air,2
 Node,154,NODE 230,Air,2
 Node,155,NODE 234,Air,2
 Node,156,NODE 233,Air,2
 Node,157,NODE 237,Air,2
 Node,158,NODE 236,Air,2
 Node,159,NODE 240,Air,2
 Node,160,NODE 239,Air,2
 Node,161,NODE 243,Air,2
 Node,162,NODE 242,Air,2
 Node,163,NODE 246,Air,2
 Node,164,NODE 245,Air,2
 Node,165,NODE 249,Air,2
 Node,166,NODE 248,Air,2
 Node,167,NODE 252,Air,2
 Node,168,NODE 251,Air,2
 Node,169,NODE 255,Air,2
 Node,170,NODE 254,Air,2
 Node,171,NODE 258,Air,2
 Node,172,NODE 257,Air,2
 Node,173,NODE 261,Air,2
 Node,174,NODE 260,Air,2
 Node,175,NODE 264,Air,2
 Node,176,NODE 263,Air,2
 Node,177,NODE 267,Air,2
 Node,178,NODE 266,Air,2
 Node,179,NODE 270,Air,2
 Node,180,NODE 269,Air,2
 Node,181,NODE 273,Air,2
 Node,182,NODE 272,Air,2
 Node,183,NODE 276,Air,2
 Node,184,NODE 275,Air,2
 Node,185,NODE 279,Air,2
 Node,186,NODE 278,Air,2
 Node,187,NODE 282,Air,2
 Node,188,NODE 281,Air,2
 Node,189,NODE 285,Air,2
 Node,190,NODE 284,Air,2
 Node,191,NODE 288,Air,2
 Node,192,NODE 287,Air,2
 Node,193,NODE 291,Air,2
 Node,194,NODE 290,Air,2
 Node,195,NODE 294,Air,2
 Node,196,NODE 293,Air,2
 Node,197,NODE 297,Air,2
 Node,198,NODE 296,Air,2
 Node,199,NODE 300,Air,2
 Node,200,NODE 299,Air,2
 Node,201,NODE 303,Air,2
 Node,202,NODE 302,Air,2
 Node,203,NODE 306,Air,2
 Node,204,NODE 305,Air,2
 Node,205,NODE 309,Air,2
 Node,206,NODE 308,Air,2
 Node,207,NODE 312,Air,2
 Node,208,NODE 311,Air,2
 Node,209,NODE 315,Air,2
 Node,210,NODE 314,Air,2
 Node,211,NODE 318,Air,2
 Node,212,NODE 317,Air,2
 Node,213,NODE 321,Air,2
 Node,214,NODE 320,Air,2
 Node,215,NODE 324,Air,2
 Node,216,NODE 323,Air,2
 Node,217,NODE 327,Air,2
 Node,218,NODE 326,Air,2
 Node,219,NODE 330,Air,2
 Node,220,NODE 329,Air,2
 Node,221,NODE 333,Air,2
 Node,222,NODE 332,Air,2
 Node,223,NODE 336,Air,2
 Node,224,NODE 335,Air,2
 Node,225,NODE 339,Air,2
 Node,226,NODE 338,Air,2
 Node,227,NODE 342,Air,2
 Node,228,NODE 341,Air,2
 Node,229,NODE 345,Air,2
 Node,230,NODE 344,Air,2
 Node,231,NODE 348,Air,2
 Node,232,NODE 347,Air,2
 Node,233,NODE 351,Air,2
 Node,234,NODE 350,Air,2
 Node,235,NODE 354,Air,2
 Node,236,NODE 353,Air,2
 Node,237,NODE 357,Air,2
 Node,238,NODE 356,Air,2
 Node,239,NODE 360,Air,2
 Node,240,NODE 359,Air,2
 Node,241,NODE 363,Air,2
 Node,242,NODE 362,Air,2
 Node,243,NODE 366,Air,2
 Node,244,NODE 365,Air,2
 Node,245,NODE 369,Air,2
 Node,246,NODE 368,Air,2
 Node,247,NODE 372,Air,2
 Node,248,NODE 371,Air,2
 Node,249,NODE 375,Air,2
 Node,250,NODE 374,Air,2
 Node,251,NODE 378,Air,2
 Node,252,NODE 377,Air,2
 Node,253,NODE 381,Air,2
 Node,254,NODE 380,Air,2
 Node,255,NODE 384,Air,2
 Node,256,NODE 383,Air,2
 Node,257,NODE 387,Air,2
 Node,258,NODE 386,Air,2
 Node,259,NODE 390,Air,2
 Node,260,NODE 389,Air,2
 Node,261,NODE 393,Air,2
 Node,262,NODE 392,Air,2
 Node,263,NODE 396,Air,2
 Node,264,NODE 395,Air,2
 Node,265,NODE 399,Air,2
 Node,266,NODE 398,Air,2
 Node,267,NODE 402,Air,2
 Node,268,NODE 401,Air,2
 Node,269,NODE 405,Air,2
 Node,270,NODE 404,Air,2
 Node,271,NODE 408,Air,2
 Node,272,NODE 407,Air,2
 Node,273,NODE 411,Air,2
 Node,274,NODE 410,Air,2
 Node,275,NODE 414,Air,2
 Node,276,NODE 413,Air,2
 Node,277,NODE 417,Air,2
 Node,278,NODE 416,Air,2
 Node,279,NODE 420,Air,2
 Node,280,NODE 419,Air,2
 Node,281,NODE 1,Air,0
 Node,282,STORY 1 CORE SPACE ZN RETURN AIR NODE,Air,0
 Node,283,NODE 4,Air,0
 Node,284,STORY 1 EAST PERIMETER SPACE ZN RETURN AIR NODE,Air,0
 Node,285,NODE 7,Air,0
 Node,286,STORY 1 NORTH PERIMETER SPACE ZN RETURN AIR NODE,Air,0
 Node,287,NODE 10,Air,0
 Node,288,STORY 1 SOUTH PERIMETER SPACE ZN RETURN AIR NODE,Air,0
 Node,289,NODE 13,Air,0
 Node,290,STORY 1 WEST PERIMETER SPACE ZN RETURN AIR NODE,Air,0
 Node,291,NODE 16,Air,0
 Node,292,STORY 10 CORE SPACE ZN RETURN AIR NODE,Air,0
 Node,293,NODE 19,Air,0
 Node,294,STORY 10 EAST PERIMETER SPACE ZN RETURN AIR NODE,Air,0
 Node,295,NODE 22,Air,0
 Node,296,STORY 10 NORTH PERIMETER SPACE ZN RETURN AIR NODE,Air,0
 Node,297,NODE 25,Air,0
 Node,298,STORY 10 SOUTH PERIMETER SPACE ZN RETURN AIR NODE,Air,0
 Node,299,NODE 28,Air,0
 Node,300,STORY 10 WEST PERIMETER SPACE ZN RETURN AIR NODE,Air,0
 Node,301,NODE 31,Air,0
 Node,302,STORY 11 CORE SPACE ZN RETURN AIR NODE,Air,0
 Node,303,NODE 34,Air,0
 Node,304,STORY 11 EAST PERIMETER SPACE ZN RETURN AIR NODE,Air,0
 Node,305,NODE 37,Air,0
 Node,306,STORY 11 NORTH PERIMETER SPACE ZN RETURN AIR NODE,Air,0
 Node,307,NODE 40,Air,0
 Node,308,STORY 11 SOUTH PERIMETER SPACE ZN RETURN AIR NODE,Air,0
 Node,309,NODE 43,Air,0
 Node,310,STORY 11 WEST PERIMETER SPACE ZN RETURN AIR NODE,Air,0
 Node,311,NODE 46,Air,0
 Node,312,STORY 12 CORE SPACE ZN RETURN AIR NODE,Air,0
 Node,313,NODE 49,Air,0
 Node,314,STORY 12 EAST PERIMETER SPACE ZN RETURN AIR NODE,Air,0
 Node,315,NODE 52,Air,0
 Node,316,STORY 12 NORTH PERIMETER SPACE ZN RETURN AIR NODE,Air,0
 Node,317,NODE 55,Air,0
 Node,318,STORY 12 SOUTH PERIMETER SPACE ZN RETURN AIR NODE,Air,0
 Node,319,NODE 58,Air,0
 Node,320,STORY 12 WEST PERIMETER SPACE ZN RETURN AIR NODE,Air,0
 Node,321,NODE 61,Air,0
 Node,322,STORY 13 CORE SPACE ZN RETURN AIR NODE,Air,0
 Node,323,NODE 64,Air,0
 Node,324,STORY 13 EAST PERIMETER SPACE ZN RETURN AIR NODE,Air,0
 Node,325,NODE 67,Air,0
 Node,326,STORY 13 NORTH PERIMETER SPACE ZN RETURN AIR NODE,Air,0
 Node,327,NODE 70,Air,0
 Node,328,STORY 13 SOUTH PERIMETER SPACE ZN RETURN AIR NODE,Air,0
 Node,329,NODE 73,Air,0
 Node,330,STORY 13 WEST PERIMETER SPACE ZN RETURN AIR NODE,Air,0
 Node,331,NODE 76,Air,0
 Node,332,STORY 14 CORE SPACE ZN RETURN AIR NODE,Air,0
 Node,333,NODE 79,Air,0
 Node,334,STORY 14 EAST PERIMETER SPACE ZN RETURN AIR NODE,Air,0
 Node,335,NODE 82,Air,0
 Node,336,STORY 14 NORTH PERIMETER SPACE ZN RETURN AIR NODE,Air,0
 Node,337,NODE 85,Air,0
 Node,338,STORY 14 SOUTH PERIMETER SPACE ZN RETURN AIR NODE,Air,0
 Node,339,NODE 88,Air,0
 Node,340,STORY 14 WEST PERIMETER SPACE ZN RETURN AIR NODE,Air,0
 Node,341,NODE 91,Air,0
 Node,342,STORY 15 CORE SPACE ZN RETURN AIR NODE,Air,0
 Node,343,NODE 94,Air,0
 Node,344,STORY 15 EAST PERIMETER SPACE ZN RETURN AIR NODE,Air,0
 Node,345,NODE 97,Air,0
 Node,346,STORY 15 NORTH PERIMETER SPACE ZN RETURN AIR NODE,Air,0
 Node,347,NODE 100,Air,0
 Node,348,STORY 15 SOUTH PERIMETER SPACE ZN RETURN AIR NODE,Air,0
 Node,349,NODE 103,Air,0
 Node,350,STORY 15 WEST PERIMETER SPACE ZN RETURN AIR NODE,Air,0
 Node,351,NODE 106,Air,0
 Node,352,STORY 16 CORE SPACE ZN RETURN AIR NODE,Air,0
 Node,353,NODE 109,Air,0
 Node,354,STORY 16 EAST PERIMETER SPACE ZN RETURN AIR NODE,Air,0
 Node,355,NODE 112,Air,0
 Node,356,STORY 16 NORTH PERIMETER SPACE ZN RETURN AIR NODE,Air,0
 Node,357,NODE 115,Air,0
 Node,358,STORY 16 SOUTH PERIMETER SPACE ZN RETURN AIR NODE,Air,0
 Node,359,NODE 118,Air,0
 Node,360,STORY 16 WEST PERIMETER SPACE ZN RETURN AIR NODE,Air,0
 Node,361,NODE 121,Air,0
 Node,362,STORY 17 CORE SPACE ZN RETURN AIR NODE,Air,0
 Node,363,NODE 124,Air,0
 Node,364,STORY 17 EAST PERIMETER SPACE ZN RETURN AIR NODE,Air,0
 Node,365,NODE 127,Air,0
 Node,366,STORY 17 NORTH PERIMETER SPACE ZN RETURN AIR NODE,Air,0
 Node,367,NODE 130,Air,0
 Node,368,STORY 17 SOUTH PERIMETER SPACE ZN RETURN AIR NODE,Air,0
 Node,369,NODE 133,Air,0
 Node,370,STORY 17 WEST PERIMETER SPACE ZN RETURN AIR NODE,Air,0
 Node,371,NODE 136,Air,0
 Node,372,STORY 18 CORE SPACE ZN RETURN AIR NODE,Air,0
 Node,373,NODE 139,Air,0
 Node,374,STORY 18 EAST PERIMETER SPACE ZN RETURN AIR NODE,Air,0
 Node,375,NODE 142,Air,0
 Node,376,STORY 18 NORTH PERIMETER SPACE ZN RETURN AIR NODE,Air,0
 Node,377,NODE 145,Air,0
 Node,378,STORY 18 SOUTH PERIMETER SPACE ZN RETURN AIR NODE,Air,0
 Node,379,NODE 148,Air,0
 Node,380,STORY 18 WEST PERIMETER SPACE ZN RETURN AIR NODE,Air,0
 Node,381,NODE 151,Air,0
 Node,382,STORY 19 CORE SPACE ZN RETURN AIR NODE,Air,0
 Node,383,NODE 154,Air,0
 Node,384,STORY 19 EAST PERIMETER SPACE ZN RETURN AIR NODE,Air,0
 Node,385,NODE 157,Air,0
 Node,386,STORY 19 NORTH PERIMETER SPACE ZN RETURN AIR NODE,Air,0
 Node,387,NODE 160,Air,0
 Node,388,STORY 19 SOUTH PERIMETER SPACE ZN RETURN AIR NODE,Air,0
 Node,389,NODE 163,Air,0
 Node,390,STORY 19 WEST PERIMETER SPACE ZN RETURN AIR NODE,Air,0
 Node,391,NODE 166,Air,0
 Node,392,STORY 2 CORE SPACE ZN RETURN AIR NODE,Air,0
 Node,393,NODE 169,Air,0
 Node,394,STORY 2 EAST PERIMETER SPACE ZN RETURN AIR NODE,Air,0
 Node,395,NODE 172,Air,0
 Node,396,STORY 2 NORTH PERIMETER SPACE ZN RETURN AIR NODE,Air,0
 Node,397,NODE 175,Air,0
 Node,398,STORY 2 SOUTH PERIMETER SPACE ZN RETURN AIR NODE,Air,0
 Node,399,NODE 178,Air,0
 Node,400,STORY 2 WEST PERIMETER SPACE ZN RETURN AIR NODE,Air,0
 Node,401,NODE 181,Air,0
 Node,402,STORY 20 CORE SPACE ZN RETURN AIR NODE,Air,0
 Node,403,NODE 184,Air,0
 Node,404,STORY 20 EAST PERIMETER SPACE ZN RETURN AIR NODE,Air,0
 Node,405,NODE 187,Air,0
 Node,406,STORY 20 NORTH PERIMETER SPACE ZN RETURN AIR NODE,Air,0
 Node,407,NODE 190,Air,0
 Node,408,STORY 20 SOUTH PERIMETER SPACE ZN RETURN AIR NODE,Air,0
 Node,409,NODE 193,Air,0
 Node,410,STORY 20 WEST PERIMETER SPACE ZN RETURN AIR NODE,Air,0
 Node,411,NODE 196,Air,0
 Node,412,STORY 21 CORE SPACE ZN RETURN AIR NODE,Air,0
 Node,413,NODE 199,Air,0
 Node,414,STORY 21 EAST PERIMETER SPACE ZN RETURN AIR NODE,Air,0
 Node,415,NODE 202,Air,0
 Node,416,STORY 21 NORTH PERIMETER SPACE ZN RETURN AIR NODE,Air,0
 Node,417,NODE 205,Air,0
 Node,418,STORY 21 SOUTH PERIMETER SPACE ZN RETURN AIR NODE,Air,0
 Node,419,NODE 208,Air,0
 Node,420,STORY 21 WEST PERIMETER SPACE ZN RETURN AIR NODE,Air,0
 Node,421,NODE 211,Air,0
 Node,422,STORY 22 CORE SPACE ZN RETURN AIR NODE,Air,0
 Node,423,NODE 214,Air,0
 Node,424,STORY 22 EAST PERIMETER SPACE ZN RETURN AIR NODE,Air,0
 Node,425,NODE 217,Air,0
 Node,426,STORY 22 NORTH PERIMETER SPACE ZN RETURN AIR NODE,Air,0
 Node,427,NODE 220,Air,0
 Node,428,STORY 22 SOUTH PERIMETER SPACE ZN RETURN AIR NODE,Air,0
 Node,429,NODE 223,Air,0
 Node,430,STORY 22 WEST PERIMETER SPACE ZN RETURN AIR NODE,Air,0
 Node,431,NODE 226,Air,0
 Node,432,STORY 23 CORE SPACE ZN RETURN AIR NODE,Air,0
 Node,433,NODE 229,Air,0
 Node,434,STORY 23 EAST PERIMETER SPACE ZN RETURN AIR NODE,Air,0
 Node,435,NODE 232,Air,0
 Node,436,STORY 23 NORTH PERIMETER SPACE ZN RETURN AIR NODE,Air,0
 Node,437,NODE 235,Air,0
 Node,438,STORY 23 SOUTH PERIMETER SPACE ZN RETURN AIR NODE,Air,0
 Node,439,NODE 238,Air,0
 Node,440,STORY 23 WEST PERIMETER SPACE ZN RETURN AIR NODE,Air,0
 Node,441,NODE 241,Air,0
 Node,442,STORY 24 CORE SPACE ZN RETURN AIR NODE,Air,0
 Node,443,NODE 244,Air,0
 Node,444,STORY 24 EAST PERIMETER SPACE ZN RETURN AIR NODE,Air,0
 Node,445,NODE 247,Air,0
 Node,446,STORY 24 NORTH PERIMETER SPACE ZN RETURN AIR NODE,Air,0
 Node,447,NODE 250,Air,0
 Node,448,STORY 24 SOUTH PERIMETER SPACE ZN RETURN AIR NODE,Air,0
 Node,449,NODE 253,Air,0
 Node,450,STORY 24 WEST PERIMETER SPACE ZN RETURN AIR NODE,Air,0
 Node,451,NODE 256,Air,0
 Node,452,STORY 25 CORE SPACE ZN RETURN AIR NODE,Air,0
 Node,453,NODE 259,Air,0
 Node,454,STORY 25 EAST PERIMETER SPACE ZN RETURN AIR NODE,Air,0
 Node,455,NODE 262,Air,0
 Node,456,STORY 25 NORTH PERIMETER SPACE ZN RETURN AIR NODE,Air,0
 Node,457,NODE 265,Air,0
 Node,458,STORY 25 SOUTH PERIMETER SPACE ZN RETURN AIR NODE,Air,0
 Node,459,NODE 268,Air,0
 Node,460,STORY 25 WEST PERIMETER SPACE ZN RETURN AIR NODE,Air,0
 Node,461,NODE 271,Air,0
 Node,462,STORY 26 CORE SPACE ZN RETURN AIR NODE,Air,0
 Node,463,NODE 274,Air,0
 Node,464,STORY 26 EAST PERIMETER SPACE ZN RETURN AIR NODE,Air,0
 Node,465,NODE 277,Air,0
 Node,466,STORY 26 NORTH PERIMETER SPACE ZN RETURN AIR NODE,Air,0
 Node,467,NODE 280,Air,0
 Node,468,STORY 26 SOUTH PERIMETER SPACE ZN RETURN AIR NODE,Air,0
 Node,469,NODE 283,Air,0
 Node,470,STORY 26 WEST PERIMETER SPACE ZN RETURN AIR NODE,Air,0
 Node,471,NODE 286,Air,0
 Node,472,STORY 27 CORE SPACE ZN RETURN AIR NODE,Air,0
 Node,473,NODE 289,Air,0
 Node,474,STORY 27 EAST PERIMETER SPACE ZN RETURN AIR NODE,Air,0
 Node,475,NODE 292,Air,0
 Node,476,STORY 27 NORTH PERIMETER SPACE ZN RETURN AIR NODE,Air,0
 Node,477,NODE 295,Air,0
 Node,478,STORY 27 SOUTH PERIMETER SPACE ZN RETURN AIR NODE,Air,0
 Node,479,NODE 298,Air,0
 Node,480,STORY 27 WEST PERIMETER SPACE ZN RETURN AIR NODE,Air,0
 Node,481,NODE 301,Air,0
 Node,482,STORY 28 CORE SPACE ZN RETURN AIR NODE,Air,0
 Node,483,NODE 304,Air,0
 Node,484,STORY 28 EAST PERIMETER SPACE ZN RETURN AIR NODE,Air,0
 Node,485,NODE 307,Air,0
 Node,486,STORY 28 NORTH PERIMETER SPACE ZN RETURN AIR NODE,Air,0
 Node,487,NODE 310,Air,0
 Node,488,STORY 28 SOUTH PERIMETER SPACE ZN RETURN AIR NODE,Air,0
 Node,489,NODE 313,Air,0
 Node,490,STORY 28 WEST PERIMETER SPACE ZN RETURN AIR NODE,Air,0
 Node,491,NODE 316,Air,0
 Node,492,STORY 3 CORE SPACE ZN RETURN AIR NODE,Air,0
 Node,493,NODE 319,Air,0
 Node,494,STORY 3 EAST PERIMETER SPACE ZN RETURN AIR NODE,Air,0
 Node,495,NODE 322,Air,0
 Node,496,STORY 3 NORTH PERIMETER SPACE ZN RETURN AIR NODE,Air,0
 Node,497,NODE 325,Air,0
 Node,498,STORY 3 SOUTH PERIMETER SPACE ZN RETURN AIR NODE,Air,0
 Node,499,NODE 328,Air,0
 Node,500,STORY 3 WEST PERIMETER SPACE ZN RETURN AIR NODE,Air,0
 Node,501,NODE 331,Air,0
 Node,502,STORY 4 CORE SPACE ZN RETURN AIR NODE,Air,0
 Node,503,NODE 334,Air,0
 Node,504,STORY 4 EAST PERIMETER SPACE ZN RETURN AIR NODE,Air,0
 Node,505,NODE 337,Air,0
 Node,506,STORY 4 NORTH PERIMETER SPACE ZN RETURN AIR NODE,Air,0
 Node,507,NODE 340,Air,0
 Node,508,STORY 4 SOUTH PERIMETER SPACE ZN RETURN AIR NODE,Air,0
 Node,509,NODE 343,Air,0
 Node,510,STORY 4 WEST PERIMETER SPACE ZN RETURN AIR NODE,Air,0
 Node,511,NODE 346,Air,0
 Node,512,STORY 5 CORE SPACE ZN RETURN AIR NODE,Air,0
 Node,513,NODE 349,Air,0
 Node,514,STORY 5 EAST PERIMETER SPACE ZN RETURN AIR NODE,Air,0
 Node,515,NODE 352,Air,0
 Node,516,STORY 5 NORTH PERIMETER SPACE ZN RETURN AIR NODE,Air,0
 Node,517,NODE 355,Air,0
 Node,518,STORY 5 SOUTH PERIMETER SPACE ZN RETURN AIR NODE,Air,0
 Node,519,NODE 358,Air,0
 Node,520,STORY 5 WEST PERIMETER SPACE ZN RETURN AIR NODE,Air,0
 Node,521,NODE 361,Air,0
 Node,522,STORY 6 CORE SPACE ZN RETURN AIR NODE,Air,0
 Node,523,NODE 364,Air,0
 Node,524,STORY 6 EAST PERIMETER SPACE ZN RETURN AIR NODE,Air,0
 Node,525,NODE 367,Air,0
 Node,526,STORY 6 NORTH PERIMETER SPACE ZN RETURN AIR NODE,Air,0
 Node,527,NODE 370,Air,0
 Node,528,STORY 6 SOUTH PERIMETER SPACE ZN RETURN AIR NODE,Air,0
 Node,529,NODE 373,Air,0
 Node,530,STORY 6 WEST PERIMETER SPACE ZN RETURN AIR NODE,Air,0
 Node,531,NODE 376,Air,0
 Node,532,STORY 7 CORE SPACE ZN RETURN AIR NODE,Air,0
 Node,533,NODE 379,Air,0
 Node,534,STORY 7 EAST PERIMETER SPACE ZN RETURN AIR NODE,Air,0
 Node,535,NODE 382,Air,0
 Node,536,STORY 7 NORTH PERIMETER SPACE ZN RETURN AIR NODE,Air,0
 Node,537,NODE 385,Air,0
 Node,538,STORY 7 SOUTH PERIMETER SPACE ZN RETURN AIR NODE,Air,0
 Node,539,NODE 388,Air,0
 Node,540,STORY 7 WEST PERIMETER SPACE ZN RETURN AIR NODE,Air,0
 Node,541,NODE 391,Air,0
 Node,542,STORY 8 CORE SPACE ZN RETURN AIR NODE,Air,0
 Node,543,NODE 394,Air,0
 Node,544,STORY 8 EAST PERIMETER SPACE ZN RETURN AIR NODE,Air,0
 Node,545,NODE 397,Air,0
 Node,546,STORY 8 NORTH PERIMETER SPACE ZN RETURN AIR NODE,Air,0
 Node,547,NODE 400,Air,0
 Node,548,STORY 8 SOUTH PERIMETER SPACE ZN RETURN AIR NODE,Air,0
 Node,549,NODE 403,Air,0
 Node,550,STORY 8 WEST PERIMETER SPACE ZN RETURN AIR NODE,Air,0
 Node,551,NODE 406,Air,0
 Node,552,STORY 9 CORE SPACE ZN RETURN AIR NODE,Air,0
 Node,553,NODE 409,Air,0
 Node,554,STORY 9 EAST PERIMETER SPACE ZN RETURN AIR NODE,Air,0
 Node,555,NODE 412,Air,0
 Node,556,STORY 9 NORTH PERIMETER SPACE ZN RETURN AIR NODE,Air,0
 Node,557,NODE 415,Air,0
 Node,558,STORY 9 SOUTH PERIMETER SPACE ZN RETURN AIR NODE,Air,0
 Node,559,NODE 418,Air,0
 Node,560,STORY 9 WEST PERIMETER SPACE ZN RETURN AIR NODE,Air,0
 Node,561,MODEL OUTDOOR AIR NODE,Air,0
 Node,562,ZONE HVAC IDEAL LOADS AIR SYSTEM 1 OUTDOOR AIR INLET NODE,Air,1
 Node,563,ZONE HVAC IDEAL LOADS AIR SYSTEM 2 OUTDOOR AIR INLET NODE,Air,1
 Node,564,ZONE HVAC IDEAL LOADS AIR SYSTEM 3 OUTDOOR AIR INLET NODE,Air,1
 Node,565,ZONE HVAC IDEAL LOADS AIR SYSTEM 4 OUTDOOR AIR INLET NODE,Air,1
 Node,566,ZONE HVAC IDEAL LOADS AIR SYSTEM 5 OUTDOOR AIR INLET NODE,Air,1
 Node,567,ZONE HVAC IDEAL LOADS AIR SYSTEM 6 OUTDOOR AIR INLET NODE,Air,1
 Node,568,ZONE HVAC IDEAL LOADS AIR SYSTEM 7 OUTDOOR AIR INLET NODE,Air,1
 Node,569,ZONE HVAC IDEAL LOADS AIR SYSTEM 8 OUTDOOR AIR INLET NODE,Air,1
 Node,570,ZONE HVAC IDEAL LOADS AIR SYSTEM 9 OUTDOOR AIR INLET NODE,Air,1
 Node,571,ZONE HVAC IDEAL LOADS AIR SYSTEM 10 OUTDOOR AIR INLET NODE,Air,1
 Node,572,ZONE HVAC IDEAL LOADS AIR SYSTEM 11 OUTDOOR AIR INLET NODE,Air,1
 Node,573,ZONE HVAC IDEAL LOADS AIR SYSTEM 12 OUTDOOR AIR INLET NODE,Air,1
 Node,574,ZONE HVAC IDEAL LOADS AIR SYSTEM 13 OUTDOOR AIR INLET NODE,Air,1
 Node,575,ZONE HVAC IDEAL LOADS AIR SYSTEM 14 OUTDOOR AIR INLET NODE,Air,1
 Node,576,ZONE HVAC IDEAL LOADS AIR SYSTEM 15 OUTDOOR AIR INLET NODE,Air,1
 Node,577,ZONE HVAC IDEAL LOADS AIR SYSTEM 16 OUTDOOR AIR INLET NODE,Air,1
 Node,578,ZONE HVAC IDEAL LOADS AIR SYSTEM 17 OUTDOOR AIR INLET NODE,Air,1
 Node,579,ZONE HVAC IDEAL LOADS AIR SYSTEM 18 OUTDOOR AIR INLET NODE,Air,1
 Node,580,ZONE HVAC IDEAL LOADS AIR SYSTEM 19 OUTDOOR AIR INLET NODE,Air,1
 Node,581,ZONE HVAC IDEAL LOADS AIR SYSTEM 20 OUTDOOR AIR INLET NODE,Air,1
 Node,582,ZONE HVAC IDEAL LOADS AIR SYSTEM 21 OUTDOOR AIR INLET NODE,Air,1
 Node,583,ZONE HVAC IDEAL LOADS AIR SYSTEM 22 OUTDOOR AIR INLET NODE,Air,1
 Node,584,ZONE HVAC IDEAL LOADS AIR SYSTEM 23 OUTDOOR AIR INLET NODE,Air,1
 Node,585,ZONE HVAC IDEAL LOADS AIR SYSTEM 24 OUTDOOR AIR INLET NODE,Air,1
 Node,586,ZONE HVAC IDEAL LOADS AIR SYSTEM 25 OUTDOOR AIR INLET NODE,Air,1
 Node,587,ZONE HVAC IDEAL LOADS AIR SYSTEM 26 OUTDOOR AIR INLET NODE,Air,1
 Node,588,ZONE HVAC IDEAL LOADS AIR SYSTEM 27 OUTDOOR AIR INLET NODE,Air,1
 Node,589,ZONE HVAC IDEAL LOADS AIR SYSTEM 28 OUTDOOR AIR INLET NODE,Air,1
 Node,590,ZONE HVAC IDEAL LOADS AIR SYSTEM 29 OUTDOOR AIR INLET NODE,Air,1
 Node,591,ZONE HVAC IDEAL LOADS AIR SYSTEM 30 OUTDOOR AIR INLET NODE,Air,1
 Node,592,ZONE HVAC IDEAL LOADS AIR SYSTEM 31 OUTDOOR AIR INLET NODE,Air,1
 Node,593,ZONE HVAC IDEAL LOADS AIR SYSTEM 32 OUTDOOR AIR INLET NODE,Air,1
 Node,594,ZONE HVAC IDEAL LOADS AIR SYSTEM 33 OUTDOOR AIR INLET NODE,Air,1
 Node,595,ZONE HVAC IDEAL LOADS AIR SYSTEM 34 OUTDOOR AIR INLET NODE,Air,1
 Node,596,ZONE HVAC IDEAL LOADS AIR SYSTEM 35 OUTDOOR AIR INLET NODE,Air,1
 Node,597,ZONE HVAC IDEAL LOADS AIR SYSTEM 36 OUTDOOR AIR INLET NODE,Air,1
 Node,598,ZONE HVAC IDEAL LOADS AIR SYSTEM 37 OUTDOOR AIR INLET NODE,Air,1
 Node,599,ZONE HVAC IDEAL LOADS AIR SYSTEM 38 OUTDOOR AIR INLET NODE,Air,1
 Node,600,ZONE HVAC IDEAL LOADS AIR SYSTEM 39 OUTDOOR AIR INLET NODE,Air,1
 Node,601,ZONE HVAC IDEAL LOADS AIR SYSTEM 40 OUTDOOR AIR INLET NODE,Air,1
 Node,602,ZONE HVAC IDEAL LOADS AIR SYSTEM 41 OUTDOOR AIR INLET NODE,Air,1
 Node,603,ZONE HVAC IDEAL LOADS AIR SYSTEM 42 OUTDOOR AIR INLET NODE,Air,1
 Node,604,ZONE HVAC IDEAL LOADS AIR SYSTEM 43 OUTDOOR AIR INLET NODE,Air,1
 Node,605,ZONE HVAC IDEAL LOADS AIR SYSTEM 44 OUTDOOR AIR INLET NODE,Air,1
 Node,606,ZONE HVAC IDEAL LOADS AIR SYSTEM 45 OUTDOOR AIR INLET NODE,Air,1
 Node,607,ZONE HVAC IDEAL LOADS AIR SYSTEM 46 OUTDOOR AIR INLET NODE,Air,1
 Node,608,ZONE HVAC IDEAL LOADS AIR SYSTEM 47 OUTDOOR AIR INLET NODE,Air,1
 Node,609,ZONE HVAC IDEAL LOADS AIR SYSTEM 48 OUTDOOR AIR INLET NODE,Air,1
 Node,610,ZONE HVAC IDEAL LOADS AIR SYSTEM 49 OUTDOOR AIR INLET NODE,Air,1
 Node,611,ZONE HVAC IDEAL LOADS AIR SYSTEM 50 OUTDOOR AIR INLET NODE,Air,1
 Node,612,ZONE HVAC IDEAL LOADS AIR SYSTEM 51 OUTDOOR AIR INLET NODE,Air,1
 Node,613,ZONE HVAC IDEAL LOADS AIR SYSTEM 52 OUTDOOR AIR INLET NODE,Air,1
 Node,614,ZONE HVAC IDEAL LOADS AIR SYSTEM 53 OUTDOOR AIR INLET NODE,Air,1
 Node,615,ZONE HVAC IDEAL LOADS AIR SYSTEM 54 OUTDOOR AIR INLET NODE,Air,1
 Node,616,ZONE HVAC IDEAL LOADS AIR SYSTEM 55 OUTDOOR AIR INLET NODE,Air,1
 Node,617,ZONE HVAC IDEAL LOADS AIR SYSTEM 56 OUTDOOR AIR INLET NODE,Air,1
 Node,618,ZONE HVAC IDEAL LOADS AIR SYSTEM 57 OUTDOOR AIR INLET NODE,Air,1
 Node,619,ZONE HVAC IDEAL LOADS AIR SYSTEM 58 OUTDOOR AIR INLET NODE,Air,1
 Node,620,ZONE HVAC IDEAL LOADS AIR SYSTEM 59 OUTDOOR AIR INLET NODE,Air,1
 Node,621,ZONE HVAC IDEAL LOADS AIR SYSTEM 60 OUTDOOR AIR INLET NODE,Air,1
 Node,622,ZONE HVAC IDEAL LOADS AIR SYSTEM 61 OUTDOOR AIR INLET NODE,Air,1
 Node,623,ZONE HVAC IDEAL LOADS AIR SYSTEM 62 OUTDOOR AIR INLET NODE,Air,1
 Node,624,ZONE HVAC IDEAL LOADS AIR SYSTEM 63 OUTDOOR AIR INLET NODE,Air,1
 Node,625,ZONE HVAC IDEAL LOADS AIR SYSTEM 64 OUTDOOR AIR INLET NODE,Air,1
 Node,626,ZONE HVAC IDEAL LOADS AIR SYSTEM 65 OUTDOOR AIR INLET NODE,Air,1
 Node,627,ZONE HVAC IDEAL LOADS AIR SYSTEM 66 OUTDOOR AIR INLET NODE,Air,1
 Node,628,ZONE HVAC IDEAL LOADS AIR SYSTEM 67 OUTDOOR AIR INLET NODE,Air,1
 Node,629,ZONE HVAC IDEAL LOADS AIR SYSTEM 68 OUTDOOR AIR INLET NODE,Air,1
 Node,630,ZONE HVAC IDEAL LOADS AIR SYSTEM 69 OUTDOOR AIR INLET NODE,Air,1
 Node,631,ZONE HVAC IDEAL LOADS AIR SYSTEM 70 OUTDOOR AIR INLET NODE,Air,1
 Node,632,ZONE HVAC IDEAL LOADS AIR SYSTEM 71 OUTDOOR AIR INLET NODE,Air,1
 Node,633,ZONE HVAC IDEAL LOADS AIR SYSTEM 72 OUTDOOR AIR INLET NODE,Air,1
 Node,634,ZONE HVAC IDEAL LOADS AIR SYSTEM 73 OUTDOOR AIR INLET NODE,Air,1
 Node,635,ZONE HVAC IDEAL LOADS AIR SYSTEM 74 OUTDOOR AIR INLET NODE,Air,1
 Node,636,ZONE HVAC IDEAL LOADS AIR SYSTEM 75 OUTDOOR AIR INLET NODE,Air,1
 Node,637,ZONE HVAC IDEAL LOADS AIR SYSTEM 76 OUTDOOR AIR INLET NODE,Air,1
 Node,638,ZONE HVAC IDEAL LOADS AIR SYSTEM 77 OUTDOOR AIR INLET NODE,Air,1
 Node,639,ZONE HVAC IDEAL LOADS AIR SYSTEM 78 OUTDOOR AIR INLET NODE,Air,1
 Node,640,ZONE HVAC IDEAL LOADS AIR SYSTEM 79 OUTDOOR AIR INLET NODE,Air,1
 Node,641,ZONE HVAC IDEAL LOADS AIR SYSTEM 80 OUTDOOR AIR INLET NODE,Air,1
 Node,642,ZONE HVAC IDEAL LOADS AIR SYSTEM 81 OUTDOOR AIR INLET NODE,Air,1
 Node,643,ZONE HVAC IDEAL LOADS AIR SYSTEM 82 OUTDOOR AIR INLET NODE,Air,1
 Node,644,ZONE HVAC IDEAL LOADS AIR SYSTEM 83 OUTDOOR AIR INLET NODE,Air,1
 Node,645,ZONE HVAC IDEAL LOADS AIR SYSTEM 84 OUTDOOR AIR INLET NODE,Air,1
 Node,646,ZONE HVAC IDEAL LOADS AIR SYSTEM 85 OUTDOOR AIR INLET NODE,Air,1
 Node,647,ZONE HVAC IDEAL LOADS AIR SYSTEM 86 OUTDOOR AIR INLET NODE,Air,1
 Node,648,ZONE HVAC IDEAL LOADS AIR SYSTEM 87 OUTDOOR AIR INLET NODE,Air,1
 Node,649,ZONE HVAC IDEAL LOADS AIR SYSTEM 88 OUTDOOR AIR INLET NODE,Air,1
 Node,650,ZONE HVAC IDEAL LOADS AIR SYSTEM 89 OUTDOOR AIR INLET NODE,Air,1
 Node,651,ZONE HVAC IDEAL LOADS AIR SYSTEM 90 OUTDOOR AIR INLET NODE,Air,1
 Node,652,ZONE HVAC IDEAL LOADS AIR SYSTEM 91 OUTDOOR AIR INLET NODE,Air,1
 Node,653,ZONE HVAC IDEAL LOADS AIR SYSTEM 92 OUTDOOR AIR INLET NODE,Air,1
 Node,654,ZONE HVAC IDEAL LOADS AIR SYSTEM 93 OUTDOOR AIR INLET NODE,Air,1
 Node,655,ZONE HVAC IDEAL LOADS AIR SYSTEM 94 OUTDOOR AIR INLET NODE,Air,1
 Node,656,ZONE HVAC IDEAL LOADS AIR SYSTEM 95 OUTDOOR AIR INLET NODE,Air,1
 Node,657,ZONE HVAC IDEAL LOADS AIR SYSTEM 96 OUTDOOR AIR INLET NODE,Air,1
 Node,658,ZONE HVAC IDEAL LOADS AIR SYSTEM 97 OUTDOOR AIR INLET NODE,Air,1
 Node,659,ZONE HVAC IDEAL LOADS AIR SYSTEM 98 OUTDOOR AIR INLET NODE,Air,1
 Node,660,ZONE HVAC IDEAL LOADS AIR SYSTEM 99 OUTDOOR AIR INLET NODE,Air,1
 Node,661,ZONE HVAC IDEAL LOADS AIR SYSTEM 100 OUTDOOR AIR INLET NODE,Air,1
 Node,662,ZONE HVAC IDEAL LOADS AIR SYSTEM 101 OUTDOOR AIR INLET NODE,Air,1
 Node,663,ZONE HVAC IDEAL LOADS AIR SYSTEM 102 OUTDOOR AIR INLET NODE,Air,1
 Node,664,ZONE HVAC IDEAL LOADS AIR SYSTEM 103 OUTDOOR AIR INLET NODE,Air,1
 Node,665,ZONE HVAC IDEAL LOADS AIR SYSTEM 104 OUTDOOR AIR INLET NODE,Air,1
 Node,666,ZONE HVAC IDEAL LOADS AIR SYSTEM 105 OUTDOOR AIR INLET NODE,Air,1
 Node,667,ZONE HVAC IDEAL LOADS AIR SYSTEM 106 OUTDOOR AIR INLET NODE,Air,1
 Node,668,ZONE HVAC IDEAL LOADS AIR SYSTEM 107 OUTDOOR AIR INLET NODE,Air,1
 Node,669,ZONE HVAC IDEAL LOADS AIR SYSTEM 108 OUTDOOR AIR INLET NODE,Air,1
 Node,670,ZONE HVAC IDEAL LOADS AIR SYSTEM 109 OUTDOOR AIR INLET NODE,Air,1
 Node,671,ZONE HVAC IDEAL LOADS AIR SYSTEM 110 OUTDOOR AIR INLET NODE,Air,1
 Node,672,ZONE HVAC IDEAL LOADS AIR SYSTEM 111 OUTDOOR AIR INLET NODE,Air,1
 Node,673,ZONE HVAC IDEAL LOADS AIR SYSTEM 112 OUTDOOR AIR INLET NODE,Air,1
 Node,674,ZONE HVAC IDEAL LOADS AIR SYSTEM 113 OUTDOOR AIR INLET NODE,Air,1
 Node,675,ZONE HVAC IDEAL LOADS AIR SYSTEM 114 OUTDOOR AIR INLET NODE,Air,1
 Node,676,ZONE HVAC IDEAL LOADS AIR SYSTEM 115 OUTDOOR AIR INLET NODE,Air,1
 Node,677,ZONE HVAC IDEAL LOADS AIR SYSTEM 116 OUTDOOR AIR INLET NODE,Air,1
 Node,678,ZONE HVAC IDEAL LOADS AIR SYSTEM 117 OUTDOOR AIR INLET NODE,Air,1
 Node,679,ZONE HVAC IDEAL LOADS AIR SYSTEM 118 OUTDOOR AIR INLET NODE,Air,1
 Node,680,ZONE HVAC IDEAL LOADS AIR SYSTEM 119 OUTDOOR AIR INLET NODE,Air,1
 Node,681,ZONE HVAC IDEAL LOADS AIR SYSTEM 120 OUTDOOR AIR INLET NODE,Air,1
 Node,682,ZONE HVAC IDEAL LOADS AIR SYSTEM 121 OUTDOOR AIR INLET NODE,Air,1
 Node,683,ZONE HVAC IDEAL LOADS AIR SYSTEM 122 OUTDOOR AIR INLET NODE,Air,1
 Node,684,ZONE HVAC IDEAL LOADS AIR SYSTEM 123 OUTDOOR AIR INLET NODE,Air,1
 Node,685,ZONE HVAC IDEAL LOADS AIR SYSTEM 124 OUTDOOR AIR INLET NODE,Air,1
 Node,686,ZONE HVAC IDEAL LOADS AIR SYSTEM 125 OUTDOOR AIR INLET NODE,Air,1
 Node,687,ZONE HVAC IDEAL LOADS AIR SYSTEM 126 OUTDOOR AIR INLET NODE,Air,1
 Node,688,ZONE HVAC IDEAL LOADS AIR SYSTEM 127 OUTDOOR AIR INLET NODE,Air,1
 Node,689,ZONE HVAC IDEAL LOADS AIR SYSTEM 128 OUTDOOR AIR INLET NODE,Air,1
 Node,690,ZONE HVAC IDEAL LOADS AIR SYSTEM 129 OUTDOOR AIR INLET NODE,Air,1
 Node,691,ZONE HVAC IDEAL LOADS AIR SYSTEM 130 OUTDOOR AIR INLET NODE,Air,1
 Node,692,ZONE HVAC IDEAL LOADS AIR SYSTEM 131 OUTDOOR AIR INLET NODE,Air,1
 Node,693,ZONE HVAC IDEAL LOADS AIR SYSTEM 132 OUTDOOR AIR INLET NODE,Air,1
 Node,694,ZONE HVAC IDEAL LOADS AIR SYSTEM 133 OUTDOOR AIR INLET NODE,Air,1
 Node,695,ZONE HVAC IDEAL LOADS AIR SYSTEM 134 OUTDOOR AIR INLET NODE,Air,1
 Node,696,ZONE HVAC IDEAL LOADS AIR SYSTEM 135 OUTDOOR AIR INLET NODE,Air,1
 Node,697,ZONE HVAC IDEAL LOADS AIR SYSTEM 136 OUTDOOR AIR INLET NODE,Air,1
 Node,698,ZONE HVAC IDEAL LOADS AIR SYSTEM 137 OUTDOOR AIR INLET NODE,Air,1
 Node,699,ZONE HVAC IDEAL LOADS AIR SYSTEM 138 OUTDOOR AIR INLET NODE,Air,1
 Node,700,ZONE HVAC IDEAL LOADS AIR SYSTEM 139 OUTDOOR AIR INLET NODE,Air,1
 Node,701,ZONE HVAC IDEAL LOADS AIR SYSTEM 140 OUTDOOR AIR INLET NODE,Air,1
! ===============================================================
! Suspicious nodes have 0 references.  It is normal for some nodes, however.
! Listing nodes with 0 references (culled from previous list):
! <Suspicious Node>,<NodeNumber>,<Node Name>,<Node Fluid Type>,<# Times Node Referenced After Definition>
 Suspicious Node,281,NODE 1,Air,0
 Suspicious Node,282,STORY 1 CORE SPACE ZN RETURN AIR NODE,Air,0
 Suspicious Node,283,NODE 4,Air,0
 Suspicious Node,284,STORY 1 EAST PERIMETER SPACE ZN RETURN AIR NODE,Air,0
 Suspicious Node,285,NODE 7,Air,0
 Suspicious Node,286,STORY 1 NORTH PERIMETER SPACE ZN RETURN AIR NODE,Air,0
 Suspicious Node,287,NODE 10,Air,0
 Suspicious Node,288,STORY 1 SOUTH PERIMETER SPACE ZN RETURN AIR NODE,Air,0
 Suspicious Node,289,NODE 13,Air,0
 Suspicious Node,290,STORY 1 WEST PERIMETER SPACE ZN RETURN AIR NODE,Air,0
 Suspicious Node,291,NODE 16,Air,0
 Suspicious Node,292,STORY 10 CORE SPACE ZN RETURN AIR NODE,Air,0
 Suspicious Node,293,NODE 19,Air,0
 Suspicious Node,294,STORY 10 EAST PERIMETER SPACE ZN RETURN AIR NODE,Air,0
 Suspicious Node,295,NODE 22,Air,0
 Suspicious Node,296,STORY 10 NORTH PERIMETER SPACE ZN RETURN AIR NODE,Air,0
 Suspicious Node,297,NODE 25,Air,0
 Suspicious Node,298,STORY 10 SOUTH PERIMETER SPACE ZN RETURN AIR NODE,Air,0
 Suspicious Node,299,NODE 28,Air,0
 Suspicious Node,300,STORY 10 WEST PERIMETER SPACE ZN RETURN AIR NODE,Air,0
 Suspicious Node,301,NODE 31,Air,0
 Suspicious Node,302,STORY 11 CORE SPACE ZN RETURN AIR NODE,Air,0
 Suspicious Node,303,NODE 34,Air,0
 Suspicious Node,304,STORY 11 EAST PERIMETER SPACE ZN RETURN AIR NODE,Air,0
 Suspicious Node,305,NODE 37,Air,0
 Suspicious Node,306,STORY 11 NORTH PERIMETER SPACE ZN RETURN AIR NODE,Air,0
 Suspicious Node,307,NODE 40,Air,0
 Suspicious Node,308,STORY 11 SOUTH PERIMETER SPACE ZN RETURN AIR NODE,Air,0
 Suspicious Node,309,NODE 43,Air,0
 Suspicious Node,310,STORY 11 WEST PERIMETER SPACE ZN RETURN AIR NODE,Air,0
 Suspicious Node,311,NODE 46,Air,0
 Suspicious Node,312,STORY 12 CORE SPACE ZN RETURN AIR NODE,Air,0
 Suspicious Node,313,NODE 49,Air,0
 Suspicious Node,314,STORY 12 EAST PERIMETER SPACE ZN RETURN AIR NODE,Air,0
 Suspicious Node,315,NODE 52,Air,0
 Suspicious Node,316,STORY 12 NORTH PERIMETER SPACE ZN RETURN AIR NODE,Air,0
 Suspicious Node,317,NODE 55,Air,0
 Suspicious Node,318,STORY 12 SOUTH PERIMETER SPACE ZN RETURN AIR NODE,Air,0
 Suspicious Node,319,NODE 58,Air,0
 Suspicious Node,320,STORY 12 WEST PERIMETER SPACE ZN RETURN AIR NODE,Air,0
 Suspicious Node,321,NODE 61,Air,0
 Suspicious Node,322,STORY 13 CORE SPACE ZN RETURN AIR NODE,Air,0
 Suspicious Node,323,NODE 64,Air,0
 Suspicious Node,324,STORY 13 EAST PERIMETER SPACE ZN RETURN AIR NODE,Air,0
 Suspicious Node,325,NODE 67,Air,0
 Suspicious Node,326,STORY 13 NORTH PERIMETER SPACE ZN RETURN AIR NODE,Air,0
 Suspicious Node,327,NODE 70,Air,0
 Suspicious Node,328,STORY 13 SOUTH PERIMETER SPACE ZN RETURN AIR NODE,Air,0
 Suspicious Node,329,NODE 73,Air,0
 Suspicious Node,330,STORY 13 WEST PERIMETER SPACE ZN RETURN AIR NODE,Air,0
 Suspicious Node,331,NODE 76,Air,0
 Suspicious Node,332,STORY 14 CORE SPACE ZN RETURN AIR NODE,Air,0
 Suspicious Node,333,NODE 79,Air,0
 Suspicious Node,334,STORY 14 EAST PERIMETER SPACE ZN RETURN AIR NODE,Air,0
 Suspicious Node,335,NODE 82,Air,0
 Suspicious Node,336,STORY 14 NORTH PERIMETER SPACE ZN RETURN AIR NODE,Air,0
 Suspicious Node,337,NODE 85,Air,0
 Suspicious Node,338,STORY 14 SOUTH PERIMETER SPACE ZN RETURN AIR NODE,Air,0
 Suspicious Node,339,NODE 88,Air,0
 Suspicious Node,340,STORY 14 WEST PERIMETER SPACE ZN RETURN AIR NODE,Air,0
 Suspicious Node,341,NODE 91,Air,0
 Suspicious Node,342,STORY 15 CORE SPACE ZN RETURN AIR NODE,Air,0
 Suspicious Node,343,NODE 94,Air,0
 Suspicious Node,344,STORY 15 EAST PERIMETER SPACE ZN RETURN AIR NODE,Air,0
 Suspicious Node,345,NODE 97,Air,0
 Suspicious Node,346,STORY 15 NORTH PERIMETER SPACE ZN RETURN AIR NODE,Air,0
 Suspicious Node,347,NODE 100,Air,0
 Suspicious Node,348,STORY 15 SOUTH PERIMETER SPACE ZN RETURN AIR NODE,Air,0
 Suspicious Node,349,NODE 103,Air,0
 Suspicious Node,350,STORY 15 WEST PERIMETER SPACE ZN RETURN AIR NODE,Air,0
 Suspicious Node,351,NODE 106,Air,0
 Suspicious Node,352,STORY 16 CORE SPACE ZN RETURN AIR NODE,Air,0
 Suspicious Node,353,NODE 109,Air,0
 Suspicious Node,354,STORY 16 EAST PERIMETER SPACE ZN RETURN AIR NODE,Air,0
 Suspicious Node,355,NODE 112,Air,0
 Suspicious Node,356,STORY 16 NORTH PERIMETER SPACE ZN RETURN AIR NODE,Air,0
 Suspicious Node,357,NODE 115,Air,0
 Suspicious Node,358,STORY 16 SOUTH PERIMETER SPACE ZN RETURN AIR NODE,Air,0
 Suspicious Node,359,NODE 118,Air,0
 Suspicious Node,360,STORY 16 WEST PERIMETER SPACE ZN RETURN AIR NODE,Air,0
 Suspicious Node,361,NODE 121,Air,0
 Suspicious Node,362,STORY 17 CORE SPACE ZN RETURN AIR NODE,Air,0
 Suspicious Node,363,NODE 124,Air,0
 Suspicious Node,364,STORY 17 EAST PERIMETER SPACE ZN RETURN AIR NODE,Air,0
 Suspicious Node,365,NODE 127,Air,0
 Suspicious Node,366,STORY 17 NORTH PERIMETER SPACE ZN RETURN AIR NODE,Air,0
 Suspicious Node,367,NODE 130,Air,0
 Suspicious Node,368,STORY 17 SOUTH PERIMETER SPACE ZN RETURN AIR NODE,Air,0
 Suspicious Node,369,NODE 133,Air,0
 Suspicious Node,370,STORY 17 WEST PERIMETER SPACE ZN RETURN AIR NODE,Air,0
 Suspicious Node,371,NODE 136,Air,0
 Suspicious Node,372,STORY 18 CORE SPACE ZN RETURN AIR NODE,Air,0
 Suspicious Node,373,NODE 139,Air,0
 Suspicious Node,374,STORY 18 EAST PERIMETER SPACE ZN RETURN AIR NODE,Air,0
 Suspicious Node,375,NODE 142,Air,0
 Suspicious Node,376,STORY 18 NORTH PERIMETER SPACE ZN RETURN AIR NODE,Air,0
 Suspicious Node,377,NODE 145,Air,0
 Suspicious Node,378,STORY 18 SOUTH PERIMETER SPACE ZN RETURN AIR NODE,Air,0
 Suspicious Node,379,NODE 148,Air,0
 Suspicious Node,380,STORY 18 WEST PERIMETER SPACE ZN RETURN AIR NODE,Air,0
 Suspicious Node,381,NODE 151,Air,0
 Suspicious Node,382,STORY 19 CORE SPACE ZN RETURN AIR NODE,Air,0
 Suspicious Node,383,NODE 154,Air,0
 Suspicious Node,384,STORY 19 EAST PERIMETER SPACE ZN RETURN AIR NODE,Air,0
 Suspicious Node,385,NODE 157,Air,0
 Suspicious Node,386,STORY 19 NORTH PERIMETER SPACE ZN RETURN AIR NODE,Air,0
 Suspicious Node,387,NODE 160,Air,0
 Suspicious Node,388,STORY 19 SOUTH PERIMETER SPACE ZN RETURN AIR NODE,Air,0
 Suspicious Node,389,NODE 163,Air,0
 Suspicious Node,390,STORY 19 WEST PERIMETER SPACE ZN RETURN AIR NODE,Air,0
 Suspicious Node,391,NODE 166,Air,0
 Suspicious Node,392,STORY 2 CORE SPACE ZN RETURN AIR NODE,Air,0
 Suspicious Node,393,NODE 169,Air,0
 Suspicious Node,394,STORY 2 EAST PERIMETER SPACE ZN RETURN AIR NODE,Air,0
 Suspicious Node,395,NODE 172,Air,0
 Suspicious Node,396,STORY 2 NORTH PERIMETER SPACE ZN RETURN AIR NODE,Air,0
 Suspicious Node,397,NODE 175,Air,0
 Suspicious Node,398,STORY 2 SOUTH PERIMETER SPACE ZN RETURN AIR NODE,Air,0
 Suspicious Node,399,NODE 178,Air,0
 Suspicious Node,400,STORY 2 WEST PERIMETER SPACE ZN RETURN AIR NODE,Air,0
 Suspicious Node,401,NODE 181,Air,0
 Suspicious Node,402,STORY 20 CORE SPACE ZN RETURN AIR NODE,Air,0
 Suspicious Node,403,NODE 184,Air,0
 Suspicious Node,404,STORY 20 EAST PERIMETER SPACE ZN RETURN AIR NODE,Air,0
 Suspicious Node,405,NODE 187,Air,0
 Suspicious Node,406,STORY 20 NORTH PERIMETER SPACE ZN RETURN AIR NODE,Air,0
 Suspicious Node,407,NODE 190,Air,0
 Suspicious Node,408,STORY 20 SOUTH PERIMETER SPACE ZN RETURN AIR NODE,Air,0
 Suspicious Node,409,NODE 193,Air,0
 Suspicious Node,410,STORY 20 WEST PERIMETER SPACE ZN RETURN AIR NODE,Air,0
 Suspicious Node,411,NODE 196,Air,0
 Suspicious Node,412,STORY 21 CORE SPACE ZN RETURN AIR NODE,Air,0
 Suspicious Node,413,NODE 199,Air,0
 Suspicious Node,414,STORY 21 EAST PERIMETER SPACE ZN RETURN AIR NODE,Air,0
 Suspicious Node,415,NODE 202,Air,0
 Suspicious Node,416,STORY 21 NORTH PERIMETER SPACE ZN RETURN AIR NODE,Air,0
 Suspicious Node,417,NODE 205,Air,0
 Suspicious Node,418,STORY 21 SOUTH PERIMETER SPACE ZN RETURN AIR NODE,Air,0
 Suspicious Node,419,NODE 208,Air,0
 Suspicious Node,420,STORY 21 WEST PERIMETER SPACE ZN RETURN AIR NODE,Air,0
 Suspicious Node,421,NODE 211,Air,0
 Suspicious Node,422,STORY 22 CORE SPACE ZN RETURN AIR NODE,Air,0
 Suspicious Node,423,NODE 214,Air,0
 Suspicious Node,424,STORY 22 EAST PERIMETER SPACE ZN RETURN AIR NODE,Air,0
 Suspicious Node,425,NODE 217,Air,0
 Suspicious Node,426,STORY 22 NORTH PERIMETER SPACE ZN RETURN AIR NODE,Air,0
 Suspicious Node,427,NODE 220,Air,0
 Suspicious Node,428,STORY 22 SOUTH PERIMETER SPACE ZN RETURN AIR NODE,Air,0
 Suspicious Node,429,NODE 223,Air,0
 Suspicious Node,430,STORY 22 WEST PERIMETER SPACE ZN RETURN AIR NODE,Air,0
 Suspicious Node,431,NODE 226,Air,0
 Suspicious Node,432,STORY 23 CORE SPACE ZN RETURN AIR NODE,Air,0
 Suspicious Node,433,NODE 229,Air,0
 Suspicious Node,434,STORY 23 EAST PERIMETER SPACE ZN RETURN AIR NODE,Air,0
 Suspicious Node,435,NODE 232,Air,0
 Suspicious Node,436,STORY 23 NORTH PERIMETER SPACE ZN RETURN AIR NODE,Air,0
 Suspicious Node,437,NODE 235,Air,0
 Suspicious Node,438,STORY 23 SOUTH PERIMETER SPACE ZN RETURN AIR NODE,Air,0
 Suspicious Node,439,NODE 238,Air,0
 Suspicious Node,440,STORY 23 WEST PERIMETER SPACE ZN RETURN AIR NODE,Air,0
 Suspicious Node,441,NODE 241,Air,0
 Suspicious Node,442,STORY 24 CORE SPACE ZN RETURN AIR NODE,Air,0
 Suspicious Node,443,NODE 244,Air,0
 Suspicious Node,444,STORY 24 EAST PERIMETER SPACE ZN RETURN AIR NODE,Air,0
 Suspicious Node,445,NODE 247,Air,0
 Suspicious Node,446,STORY 24 NORTH PERIMETER SPACE ZN RETURN AIR NODE,Air,0
 Suspicious Node,447,NODE 250,Air,0
 Suspicious Node,448,STORY 24 SOUTH PERIMETER SPACE ZN RETURN AIR NODE,Air,0
 Suspicious Node,449,NODE 253,Air,0
 Suspicious Node,450,STORY 24 WEST PERIMETER SPACE ZN RETURN AIR NODE,Air,0
 Suspicious Node,451,NODE 256,Air,0
 Suspicious Node,452,STORY 25 CORE SPACE ZN RETURN AIR NODE,Air,0
 Suspicious Node,453,NODE 259,Air,0
 Suspicious Node,454,STORY 25 EAST PERIMETER SPACE ZN RETURN AIR NODE,Air,0
 Suspicious Node,455,NODE 262,Air,0
 Suspicious Node,456,STORY 25 NORTH PERIMETER SPACE ZN RETURN AIR NODE,Air,0
 Suspicious Node,457,NODE 265,Air,0
 Suspicious Node,458,STORY 25 SOUTH PERIMETER SPACE ZN RETURN AIR NODE,Air,0
 Suspicious Node,459,NODE 268,Air,0
 Suspicious Node,460,STORY 25 WEST PERIMETER SPACE ZN RETURN AIR NODE,Air,0
 Suspicious Node,461,NODE 271,Air,0
 Suspicious Node,462,STORY 26 CORE SPACE ZN RETURN AIR NODE,Air,0
 Suspicious Node,463,NODE 274,Air,0
 Suspicious Node,464,STORY 26 EAST PERIMETER SPACE ZN RETURN AIR NODE,Air,0
 Suspicious Node,465,NODE 277,Air,0
 Suspicious Node,466,STORY 26 NORTH PERIMETER SPACE ZN RETURN AIR NODE,Air,0
 Suspicious Node,467,NODE 280,Air,0
 Suspicious Node,468,STORY 26 SOUTH PERIMETER SPACE ZN RETURN AIR NODE,Air,0
 Suspicious Node,469,NODE 283,Air,0
 Suspicious Node,470,STORY 26 WEST PERIMETER SPACE ZN RETURN AIR NODE,Air,0
 Suspicious Node,471,NODE 286,Air,0
 Suspicious Node,472,STORY 27 CORE SPACE ZN RETURN AIR NODE,Air,0
 Suspicious Node,473,NODE 289,Air,0
 Suspicious Node,474,STORY 27 EAST PERIMETER SPACE ZN RETURN AIR NODE,Air,0
 Suspicious Node,475,NODE 292,Air,0
 Suspicious Node,476,STORY 27 NORTH PERIMETER SPACE ZN RETURN AIR NODE,Air,0
 Suspicious Node,477,NODE 295,Air,0
 Suspicious Node,478,STORY 27 SOUTH PERIMETER SPACE ZN RETURN AIR NODE,Air,0
 Suspicious Node,479,NODE 298,Air,0
 Suspicious Node,480,STORY 27 WEST PERIMETER SPACE ZN RETURN AIR NODE,Air,0
 Suspicious Node,481,NODE 301,Air,0
 Suspicious Node,482,STORY 28 CORE SPACE ZN RETURN AIR NODE,Air,0
 Suspicious Node,483,NODE 304,Air,0
 Suspicious Node,484,STORY 28 EAST PERIMETER SPACE ZN RETURN AIR NODE,Air,0
 Suspicious Node,485,NODE 307,Air,0
 Suspicious Node,486,STORY 28 NORTH PERIMETER SPACE ZN RETURN AIR NODE,Air,0
 Suspicious Node,487,NODE 310,Air,0
 Suspicious Node,488,STORY 28 SOUTH PERIMETER SPACE ZN RETURN AIR NODE,Air,0
 Suspicious Node,489,NODE 313,Air,0
 Suspicious Node,490,STORY 28 WEST PERIMETER SPACE ZN RETURN AIR NODE,Air,0
 Suspicious Node,491,NODE 316,Air,0
 Suspicious Node,492,STORY 3 CORE SPACE ZN RETURN AIR NODE,Air,0
 Suspicious Node,493,NODE 319,Air,0
 Suspicious Node,494,STORY 3 EAST PERIMETER SPACE ZN RETURN AIR NODE,Air,0
 Suspicious Node,495,NODE 322,Air,0
 Suspicious Node,496,STORY 3 NORTH PERIMETER SPACE ZN RETURN AIR NODE,Air,0
 Suspicious Node,497,NODE 325,Air,0
 Suspicious Node,498,STORY 3 SOUTH PERIMETER SPACE ZN RETURN AIR NODE,Air,0
 Suspicious Node,499,NODE 328,Air,0
 Suspicious Node,500,STORY 3 WEST PERIMETER SPACE ZN RETURN AIR NODE,Air,0
 Suspicious Node,501,NODE 331,Air,0
 Suspicious Node,502,STORY 4 CORE SPACE ZN RETURN AIR NODE,Air,0
 Suspicious Node,503,NODE 334,Air,0
 Suspicious Node,504,STORY 4 EAST PERIMETER SPACE ZN RETURN AIR NODE,Air,0
 Suspicious Node,505,NODE 337,Air,0
 Suspicious Node,506,STORY 4 NORTH PERIMETER SPACE ZN RETURN AIR NODE,Air,0
 Suspicious Node,507,NODE 340,Air,0
 Suspicious Node,508,STORY 4 SOUTH PERIMETER SPACE ZN RETURN AIR NODE,Air,0
 Suspicious Node,509,NODE 343,Air,0
 Suspicious Node,510,STORY 4 WEST PERIMETER SPACE ZN RETURN AIR NODE,Air,0
 Suspicious Node,511,NODE 346,Air,0
 Suspicious Node,512,STORY 5 CORE SPACE ZN RETURN AIR NODE,Air,0
 Suspicious Node,513,NODE 349,Air,0
 Suspicious Node,514,STORY 5 EAST PERIMETER SPACE ZN RETURN AIR NODE,Air,0
 Suspicious Node,515,NODE 352,Air,0
 Suspicious Node,516,STORY 5 NORTH PERIMETER SPACE ZN RETURN AIR NODE,Air,0
 Suspicious Node,517,NODE 355,Air,0
 Suspicious Node,518,STORY 5 SOUTH PERIMETER SPACE ZN RETURN AIR NODE,Air,0
 Suspicious Node,519,NODE 358,Air,0
 Suspicious Node,520,STORY 5 WEST PERIMETER SPACE ZN RETURN AIR NODE,Air,0
 Suspicious Node,521,NODE 361,Air,0
 Suspicious Node,522,STORY 6 CORE SPACE ZN RETURN AIR NODE,Air,0
 Suspicious Node,523,NODE 364,Air,0
 Suspicious Node,524,STORY 6 EAST PERIMETER SPACE ZN RETURN AIR NODE,Air,0
 Suspicious Node,525,NODE 367,Air,0
 Suspicious Node,526,STORY 6 NORTH PERIMETER SPACE ZN RETURN AIR NODE,Air,0
 Suspicious Node,527,NODE 370,Air,0
 Suspicious Node,528,STORY 6 SOUTH PERIMETER SPACE ZN RETURN AIR NODE,Air,0
 Suspicious Node,529,NODE 373,Air,0
 Suspicious Node,530,STORY 6 WEST PERIMETER SPACE ZN RETURN AIR NODE,Air,0
 Suspicious Node,531,NODE 376,Air,0
 Suspicious Node,532,STORY 7 CORE SPACE ZN RETURN AIR NODE,Air,0
 Suspicious Node,533,NODE 379,Air,0
 Suspicious Node,534,STORY 7 EAST PERIMETER SPACE ZN RETURN AIR NODE,Air,0
 Suspicious Node,535,NODE 382,Air,0
 Suspicious Node,536,STORY 7 NORTH PERIMETER SPACE ZN RETURN AIR NODE,Air,0
 Suspicious Node,537,NODE 385,Air,0
 Suspicious Node,538,STORY 7 SOUTH PERIMETER SPACE ZN RETURN AIR NODE,Air,0
 Suspicious Node,539,NODE 388,Air,0
 Suspicious Node,540,STORY 7 WEST PERIMETER SPACE ZN RETURN AIR NODE,Air,0
 Suspicious Node,541,NODE 391,Air,0
 Suspicious Node,542,STORY 8 CORE SPACE ZN RETURN AIR NODE,Air,0
 Suspicious Node,543,NODE 394,Air,0
 Suspicious Node,544,STORY 8 EAST PERIMETER SPACE ZN RETURN AIR NODE,Air,0
 Suspicious Node,545,NODE 397,Air,0
 Suspicious Node,546,STORY 8 NORTH PERIMETER SPACE ZN RETURN AIR NODE,Air,0
 Suspicious Node,547,NODE 400,Air,0
 Suspicious Node,548,STORY 8 SOUTH PERIMETER SPACE ZN RETURN AIR NODE,Air,0
 Suspicious Node,549,NODE 403,Air,0
 Suspicious Node,550,STORY 8 WEST PERIMETER SPACE ZN RETURN AIR NODE,Air,0
 Suspicious Node,551,NODE 406,Air,0
 Suspicious Node,552,STORY 9 CORE SPACE ZN RETURN AIR NODE,Air,0
 Suspicious Node,553,NODE 409,Air,0
 Suspicious Node,554,STORY 9 EAST PERIMETER SPACE ZN RETURN AIR NODE,Air,0
 Suspicious Node,555,NODE 412,Air,0
 Suspicious Node,556,STORY 9 NORTH PERIMETER SPACE ZN RETURN AIR NODE,Air,0
 Suspicious Node,557,NODE 415,Air,0
 Suspicious Node,558,STORY 9 SOUTH PERIMETER SPACE ZN RETURN AIR NODE,Air,0
 Suspicious Node,559,NODE 418,Air,0
 Suspicious Node,560,STORY 9 WEST PERIMETER SPACE ZN RETURN AIR NODE,Air,0
 Suspicious Node,561,MODEL OUTDOOR AIR NODE,Air,0
! ===============================================================
! <#Branch Lists>,<Number of Branch Lists>
 #Branch Lists,0
! <Branch List>,<Branch List Count>,<Branch List Name>,<Loop Name>,<Loop Type>,<Number of Branches>
! <Branch>,<Branch Count>,<Branch Name>,<Loop Name>,<Loop Type>,<Branch Inlet Node Name>,<Branch Outlet Node Name>
! ===============================================================
! <#Supply Air Paths>,<Number of Supply Air Paths>
 #Supply Air Paths,0
! <Supply Air Path>,<Supply Air Path Count>,<Supply Air Path Name>,<AirLoopHVAC Name>
! <#Components on Supply Air Path>,<Number of Components>
! <Supply Air Path Component>,<Component Count>,<Component Type>,<Component Name>,<AirLoopHVAC Name>
! <#Outlet Nodes on Supply Air Path Component>,<Number of Nodes>
! <Supply Air Path Component Nodes>,<Node Count>,<Component Type>,<Component Name>,<Inlet Node Name>,<Outlet Node Name>,<AirLoopHVAC Name>
! ===============================================================
! <#Return Air Paths>,<Number of Return Air Paths>
 #Return Air Paths,0
! <Return Air Path>,<Return Air Path Count>,<Return Air Path Name>,<AirLoopHVAC Name>
! <#Components on Return Air Path>,<Number of Components>
! <Return Air Path Component>,<Component Count>,<Component Type>,<Component Name>,<AirLoopHVAC Name>
! <#Inlet Nodes on Return Air Path Component>,<Number of Nodes>
! <Return Air Path Component Nodes>,<Node Count>,<Component Type>,<Component Name>,<Inlet Node Name>,<Outlet Node Name>,<AirLoopHVAC Name>
! ===============================================================
! #Outdoor Air Nodes,<Number of Outdoor Air Nodes>
 #Outdoor Air Nodes,141
! <Outdoor Air Node>,<NodeNumber>,<Node Name>
 Outdoor Air Node,561,MODEL OUTDOOR AIR NODE
 Outdoor Air Node,562,ZONE HVAC IDEAL LOADS AIR SYSTEM 1 OUTDOOR AIR INLET NODE
 Outdoor Air Node,563,ZONE HVAC IDEAL LOADS AIR SYSTEM 2 OUTDOOR AIR INLET NODE
 Outdoor Air Node,564,ZONE HVAC IDEAL LOADS AIR SYSTEM 3 OUTDOOR AIR INLET NODE
 Outdoor Air Node,565,ZONE HVAC IDEAL LOADS AIR SYSTEM 4 OUTDOOR AIR INLET NODE
 Outdoor Air Node,566,ZONE HVAC IDEAL LOADS AIR SYSTEM 5 OUTDOOR AIR INLET NODE
 Outdoor Air Node,567,ZONE HVAC IDEAL LOADS AIR SYSTEM 6 OUTDOOR AIR INLET NODE
 Outdoor Air Node,568,ZONE HVAC IDEAL LOADS AIR SYSTEM 7 OUTDOOR AIR INLET NODE
 Outdoor Air Node,569,ZONE HVAC IDEAL LOADS AIR SYSTEM 8 OUTDOOR AIR INLET NODE
 Outdoor Air Node,570,ZONE HVAC IDEAL LOADS AIR SYSTEM 9 OUTDOOR AIR INLET NODE
 Outdoor Air Node,571,ZONE HVAC IDEAL LOADS AIR SYSTEM 10 OUTDOOR AIR INLET NODE
 Outdoor Air Node,572,ZONE HVAC IDEAL LOADS AIR SYSTEM 11 OUTDOOR AIR INLET NODE
 Outdoor Air Node,573,ZONE HVAC IDEAL LOADS AIR SYSTEM 12 OUTDOOR AIR INLET NODE
 Outdoor Air Node,574,ZONE HVAC IDEAL LOADS AIR SYSTEM 13 OUTDOOR AIR INLET NODE
 Outdoor Air Node,575,ZONE HVAC IDEAL LOADS AIR SYSTEM 14 OUTDOOR AIR INLET NODE
 Outdoor Air Node,576,ZONE HVAC IDEAL LOADS AIR SYSTEM 15 OUTDOOR AIR INLET NODE
 Outdoor Air Node,577,ZONE HVAC IDEAL LOADS AIR SYSTEM 16 OUTDOOR AIR INLET NODE
 Outdoor Air Node,578,ZONE HVAC IDEAL LOADS AIR SYSTEM 17 OUTDOOR AIR INLET NODE
 Outdoor Air Node,579,ZONE HVAC IDEAL LOADS AIR SYSTEM 18 OUTDOOR AIR INLET NODE
 Outdoor Air Node,580,ZONE HVAC IDEAL LOADS AIR SYSTEM 19 OUTDOOR AIR INLET NODE
 Outdoor Air Node,581,ZONE HVAC IDEAL LOADS AIR SYSTEM 20 OUTDOOR AIR INLET NODE
 Outdoor Air Node,582,ZONE HVAC IDEAL LOADS AIR SYSTEM 21 OUTDOOR AIR INLET NODE
 Outdoor Air Node,583,ZONE HVAC IDEAL LOADS AIR SYSTEM 22 OUTDOOR AIR INLET NODE
 Outdoor Air Node,584,ZONE HVAC IDEAL LOADS AIR SYSTEM 23 OUTDOOR AIR INLET NODE
 Outdoor Air Node,585,ZONE HVAC IDEAL LOADS AIR SYSTEM 24 OUTDOOR AIR INLET NODE
 Outdoor Air Node,586,ZONE HVAC IDEAL LOADS AIR SYSTEM 25 OUTDOOR AIR INLET NODE
 Outdoor Air Node,587,ZONE HVAC IDEAL LOADS AIR SYSTEM 26 OUTDOOR AIR INLET NODE
 Outdoor Air Node,588,ZONE HVAC IDEAL LOADS AIR SYSTEM 27 OUTDOOR AIR INLET NODE
 Outdoor Air Node,589,ZONE HVAC IDEAL LOADS AIR SYSTEM 28 OUTDOOR AIR INLET NODE
 Outdoor Air Node,590,ZONE HVAC IDEAL LOADS AIR SYSTEM 29 OUTDOOR AIR INLET NODE
 Outdoor Air Node,591,ZONE HVAC IDEAL LOADS AIR SYSTEM 30 OUTDOOR AIR INLET NODE
 Outdoor Air Node,592,ZONE HVAC IDEAL LOADS AIR SYSTEM 31 OUTDOOR AIR INLET NODE
 Outdoor Air Node,593,ZONE HVAC IDEAL LOADS AIR SYSTEM 32 OUTDOOR AIR INLET NODE
 Outdoor Air Node,594,ZONE HVAC IDEAL LOADS AIR SYSTEM 33 OUTDOOR AIR INLET NODE
 Outdoor Air Node,595,ZONE HVAC IDEAL LOADS AIR SYSTEM 34 OUTDOOR AIR INLET NODE
 Outdoor Air Node,596,ZONE HVAC IDEAL LOADS AIR SYSTEM 35 OUTDOOR AIR INLET NODE
 Outdoor Air Node,597,ZONE HVAC IDEAL LOADS AIR SYSTEM 36 OUTDOOR AIR INLET NODE
 Outdoor Air Node,598,ZONE HVAC IDEAL LOADS AIR SYSTEM 37 OUTDOOR AIR INLET NODE
 Outdoor Air Node,599,ZONE HVAC IDEAL LOADS AIR SYSTEM 38 OUTDOOR AIR INLET NODE
 Outdoor Air Node,600,ZONE HVAC IDEAL LOADS AIR SYSTEM 39 OUTDOOR AIR INLET NODE
 Outdoor Air Node,601,ZONE HVAC IDEAL LOADS AIR SYSTEM 40 OUTDOOR AIR INLET NODE
 Outdoor Air Node,602,ZONE HVAC IDEAL LOADS AIR SYSTEM 41 OUTDOOR AIR INLET NODE
 Outdoor Air Node,603,ZONE HVAC IDEAL LOADS AIR SYSTEM 42 OUTDOOR AIR INLET NODE
 Outdoor Air Node,604,ZONE HVAC IDEAL LOADS AIR SYSTEM 43 OUTDOOR AIR INLET NODE
 Outdoor Air Node,605,ZONE HVAC IDEAL LOADS AIR SYSTEM 44 OUTDOOR AIR INLET NODE
 Outdoor Air Node,606,ZONE HVAC IDEAL LOADS AIR SYSTEM 45 OUTDOOR AIR INLET NODE
 Outdoor Air Node,607,ZONE HVAC IDEAL LOADS AIR SYSTEM 46 OUTDOOR AIR INLET NODE
 Outdoor Air Node,608,ZONE HVAC IDEAL LOADS AIR SYSTEM 47 OUTDOOR AIR INLET NODE
 Outdoor Air Node,609,ZONE HVAC IDEAL LOADS AIR SYSTEM 48 OUTDOOR AIR INLET NODE
 Outdoor Air Node,610,ZONE HVAC IDEAL LOADS AIR SYSTEM 49 OUTDOOR AIR INLET NODE
 Outdoor Air Node,611,ZONE HVAC IDEAL LOADS AIR SYSTEM 50 OUTDOOR AIR INLET NODE
 Outdoor Air Node,612,ZONE HVAC IDEAL LOADS AIR SYSTEM 51 OUTDOOR AIR INLET NODE
 Outdoor Air Node,613,ZONE HVAC IDEAL LOADS AIR SYSTEM 52 OUTDOOR AIR INLET NODE
 Outdoor Air Node,614,ZONE HVAC IDEAL LOADS AIR SYSTEM 53 OUTDOOR AIR INLET NODE
 Outdoor Air Node,615,ZONE HVAC IDEAL LOADS AIR SYSTEM 54 OUTDOOR AIR INLET NODE
 Outdoor Air Node,616,ZONE HVAC IDEAL LOADS AIR SYSTEM 55 OUTDOOR AIR INLET NODE
 Outdoor Air Node,617,ZONE HVAC IDEAL LOADS AIR SYSTEM 56 OUTDOOR AIR INLET NODE
 Outdoor Air Node,618,ZONE HVAC IDEAL LOADS AIR SYSTEM 57 OUTDOOR AIR INLET NODE
 Outdoor Air Node,619,ZONE HVAC IDEAL LOADS AIR SYSTEM 58 OUTDOOR AIR INLET NODE
 Outdoor Air Node,620,ZONE HVAC IDEAL LOADS AIR SYSTEM 59 OUTDOOR AIR INLET NODE
 Outdoor Air Node,621,ZONE HVAC IDEAL LOADS AIR SYSTEM 60 OUTDOOR AIR INLET NODE
 Outdoor Air Node,622,ZONE HVAC IDEAL LOADS AIR SYSTEM 61 OUTDOOR AIR INLET NODE
 Outdoor Air Node,623,ZONE HVAC IDEAL LOADS AIR SYSTEM 62 OUTDOOR AIR INLET NODE
 Outdoor Air Node,624,ZONE HVAC IDEAL LOADS AIR SYSTEM 63 OUTDOOR AIR INLET NODE
 Outdoor Air Node,625,ZONE HVAC IDEAL LOADS AIR SYSTEM 64 OUTDOOR AIR INLET NODE
 Outdoor Air Node,626,ZONE HVAC IDEAL LOADS AIR SYSTEM 65 OUTDOOR AIR INLET NODE
 Outdoor Air Node,627,ZONE HVAC IDEAL LOADS AIR SYSTEM 66 OUTDOOR AIR INLET NODE
 Outdoor Air Node,628,ZONE HVAC IDEAL LOADS AIR SYSTEM 67 OUTDOOR AIR INLET NODE
 Outdoor Air Node,629,ZONE HVAC IDEAL LOADS AIR SYSTEM 68 OUTDOOR AIR INLET NODE
 Outdoor Air Node,630,ZONE HVAC IDEAL LOADS AIR SYSTEM 69 OUTDOOR AIR INLET NODE
 Outdoor Air Node,631,ZONE HVAC IDEAL LOADS AIR SYSTEM 70 OUTDOOR AIR INLET NODE
 Outdoor Air Node,632,ZONE HVAC IDEAL LOADS AIR SYSTEM 71 OUTDOOR AIR INLET NODE
 Outdoor Air Node,633,ZONE HVAC IDEAL LOADS AIR SYSTEM 72 OUTDOOR AIR INLET NODE
 Outdoor Air Node,634,ZONE HVAC IDEAL LOADS AIR SYSTEM 73 OUTDOOR AIR INLET NODE
 Outdoor Air Node,635,ZONE HVAC IDEAL LOADS AIR SYSTEM 74 OUTDOOR AIR INLET NODE
 Outdoor Air Node,636,ZONE HVAC IDEAL LOADS AIR SYSTEM 75 OUTDOOR AIR INLET NODE
 Outdoor Air Node,637,ZONE HVAC IDEAL LOADS AIR SYSTEM 76 OUTDOOR AIR INLET NODE
 Outdoor Air Node,638,ZONE HVAC IDEAL LOADS AIR SYSTEM 77 OUTDOOR AIR INLET NODE
 Outdoor Air Node,639,ZONE HVAC IDEAL LOADS AIR SYSTEM 78 OUTDOOR AIR INLET NODE
 Outdoor Air Node,640,ZONE HVAC IDEAL LOADS AIR SYSTEM 79 OUTDOOR AIR INLET NODE
 Outdoor Air Node,641,ZONE HVAC IDEAL LOADS AIR SYSTEM 80 OUTDOOR AIR INLET NODE
 Outdoor Air Node,642,ZONE HVAC IDEAL LOADS AIR SYSTEM 81 OUTDOOR AIR INLET NODE
 Outdoor Air Node,643,ZONE HVAC IDEAL LOADS AIR SYSTEM 82 OUTDOOR AIR INLET NODE
 Outdoor Air Node,644,ZONE HVAC IDEAL LOADS AIR SYSTEM 83 OUTDOOR AIR INLET NODE
 Outdoor Air Node,645,ZONE HVAC IDEAL LOADS AIR SYSTEM 84 OUTDOOR AIR INLET NODE
 Outdoor Air Node,646,ZONE HVAC IDEAL LOADS AIR SYSTEM 85 OUTDOOR AIR INLET NODE
 Outdoor Air Node,647,ZONE HVAC IDEAL LOADS AIR SYSTEM 86 OUTDOOR AIR INLET NODE
 Outdoor Air Node,648,ZONE HVAC IDEAL LOADS AIR SYSTEM 87 OUTDOOR AIR INLET NODE
 Outdoor Air Node,649,ZONE HVAC IDEAL LOADS AIR SYSTEM 88 OUTDOOR AIR INLET NODE
 Outdoor Air Node,650,ZONE HVAC IDEAL LOADS AIR SYSTEM 89 OUTDOOR AIR INLET NODE
 Outdoor Air Node,651,ZONE HVAC IDEAL LOADS AIR SYSTEM 90 OUTDOOR AIR INLET NODE
 Outdoor Air Node,652,ZONE HVAC IDEAL LOADS AIR SYSTEM 91 OUTDOOR AIR INLET NODE
 Outdoor Air Node,653,ZONE HVAC IDEAL LOADS AIR SYSTEM 92 OUTDOOR AIR INLET NODE
 Outdoor Air Node,654,ZONE HVAC IDEAL LOADS AIR SYSTEM 93 OUTDOOR AIR INLET NODE
 Outdoor Air Node,655,ZONE HVAC IDEAL LOADS AIR SYSTEM 94 OUTDOOR AIR INLET NODE
 Outdoor Air Node,656,ZONE HVAC IDEAL LOADS AIR SYSTEM 95 OUTDOOR AIR INLET NODE
 Outdoor Air Node,657,ZONE HVAC IDEAL LOADS AIR SYSTEM 96 OUTDOOR AIR INLET NODE
 Outdoor Air Node,658,ZONE HVAC IDEAL LOADS AIR SYSTEM 97 OUTDOOR AIR INLET NODE
 Outdoor Air Node,659,ZONE HVAC IDEAL LOADS AIR SYSTEM 98 OUTDOOR AIR INLET NODE
 Outdoor Air Node,660,ZONE HVAC IDEAL LOADS AIR SYSTEM 99 OUTDOOR AIR INLET NODE
 Outdoor Air Node,661,ZONE HVAC IDEAL LOADS AIR SYSTEM 100 OUTDOOR AIR INLET NODE
 Outdoor Air Node,662,ZONE HVAC IDEAL LOADS AIR SYSTEM 101 OUTDOOR AIR INLET NODE
 Outdoor Air Node,663,ZONE HVAC IDEAL LOADS AIR SYSTEM 102 OUTDOOR AIR INLET NODE
 Outdoor Air Node,664,ZONE HVAC IDEAL LOADS AIR SYSTEM 103 OUTDOOR AIR INLET NODE
 Outdoor Air Node,665,ZONE HVAC IDEAL LOADS AIR SYSTEM 104 OUTDOOR AIR INLET NODE
 Outdoor Air Node,666,ZONE HVAC IDEAL LOADS AIR SYSTEM 105 OUTDOOR AIR INLET NODE
 Outdoor Air Node,667,ZONE HVAC IDEAL LOADS AIR SYSTEM 106 OUTDOOR AIR INLET NODE
 Outdoor Air Node,668,ZONE HVAC IDEAL LOADS AIR SYSTEM 107 OUTDOOR AIR INLET NODE
 Outdoor Air Node,669,ZONE HVAC IDEAL LOADS AIR SYSTEM 108 OUTDOOR AIR INLET NODE
 Outdoor Air Node,670,ZONE HVAC IDEAL LOADS AIR SYSTEM 109 OUTDOOR AIR INLET NODE
 Outdoor Air Node,671,ZONE HVAC IDEAL LOADS AIR SYSTEM 110 OUTDOOR AIR INLET NODE
 Outdoor Air Node,672,ZONE HVAC IDEAL LOADS AIR SYSTEM 111 OUTDOOR AIR INLET NODE
 Outdoor Air Node,673,ZONE HVAC IDEAL LOADS AIR SYSTEM 112 OUTDOOR AIR INLET NODE
 Outdoor Air Node,674,ZONE HVAC IDEAL LOADS AIR SYSTEM 113 OUTDOOR AIR INLET NODE
 Outdoor Air Node,675,ZONE HVAC IDEAL LOADS AIR SYSTEM 114 OUTDOOR AIR INLET NODE
 Outdoor Air Node,676,ZONE HVAC IDEAL LOADS AIR SYSTEM 115 OUTDOOR AIR INLET NODE
 Outdoor Air Node,677,ZONE HVAC IDEAL LOADS AIR SYSTEM 116 OUTDOOR AIR INLET NODE
 Outdoor Air Node,678,ZONE HVAC IDEAL LOADS AIR SYSTEM 117 OUTDOOR AIR INLET NODE
 Outdoor Air Node,679,ZONE HVAC IDEAL LOADS AIR SYSTEM 118 OUTDOOR AIR INLET NODE
 Outdoor Air Node,680,ZONE HVAC IDEAL LOADS AIR SYSTEM 119 OUTDOOR AIR INLET NODE
 Outdoor Air Node,681,ZONE HVAC IDEAL LOADS AIR SYSTEM 120 OUTDOOR AIR INLET NODE
 Outdoor Air Node,682,ZONE HVAC IDEAL LOADS AIR SYSTEM 121 OUTDOOR AIR INLET NODE
 Outdoor Air Node,683,ZONE HVAC IDEAL LOADS AIR SYSTEM 122 OUTDOOR AIR INLET NODE
 Outdoor Air Node,684,ZONE HVAC IDEAL LOADS AIR SYSTEM 123 OUTDOOR AIR INLET NODE
 Outdoor Air Node,685,ZONE HVAC IDEAL LOADS AIR SYSTEM 124 OUTDOOR AIR INLET NODE
 Outdoor Air Node,686,ZONE HVAC IDEAL LOADS AIR SYSTEM 125 OUTDOOR AIR INLET NODE
 Outdoor Air Node,687,ZONE HVAC IDEAL LOADS AIR SYSTEM 126 OUTDOOR AIR INLET NODE
 Outdoor Air Node,688,ZONE HVAC IDEAL LOADS AIR SYSTEM 127 OUTDOOR AIR INLET NODE
 Outdoor Air Node,689,ZONE HVAC IDEAL LOADS AIR SYSTEM 128 OUTDOOR AIR INLET NODE
 Outdoor Air Node,690,ZONE HVAC IDEAL LOADS AIR SYSTEM 129 OUTDOOR AIR INLET NODE
 Outdoor Air Node,691,ZONE HVAC IDEAL LOADS AIR SYSTEM 130 OUTDOOR AIR INLET NODE
 Outdoor Air Node,692,ZONE HVAC IDEAL LOADS AIR SYSTEM 131 OUTDOOR AIR INLET NODE
 Outdoor Air Node,693,ZONE HVAC IDEAL LOADS AIR SYSTEM 132 OUTDOOR AIR INLET NODE
 Outdoor Air Node,694,ZONE HVAC IDEAL LOADS AIR SYSTEM 133 OUTDOOR AIR INLET NODE
 Outdoor Air Node,695,ZONE HVAC IDEAL LOADS AIR SYSTEM 134 OUTDOOR AIR INLET NODE
 Outdoor Air Node,696,ZONE HVAC IDEAL LOADS AIR SYSTEM 135 OUTDOOR AIR INLET NODE
 Outdoor Air Node,697,ZONE HVAC IDEAL LOADS AIR SYSTEM 136 OUTDOOR AIR INLET NODE
 Outdoor Air Node,698,ZONE HVAC IDEAL LOADS AIR SYSTEM 137 OUTDOOR AIR INLET NODE
 Outdoor Air Node,699,ZONE HVAC IDEAL LOADS AIR SYSTEM 138 OUTDOOR AIR INLET NODE
 Outdoor Air Node,700,ZONE HVAC IDEAL LOADS AIR SYSTEM 139 OUTDOOR AIR INLET NODE
 Outdoor Air Node,701,ZONE HVAC IDEAL LOADS AIR SYSTEM 140 OUTDOOR AIR INLET NODE
! ===============================================================
! <#Component Sets>,<Number of Component Sets>
 #Component Sets,0
! <Component Set>,<Component Set Count>,<Parent Object Type>,<Parent Object Name>,<Component Type>,<Component Name>,<Inlet Node ID>,<Outlet Node ID>,<Description>
! ===============================================================
! <# Plant Loops>,<Number of Plant Loops>
 #Plant Loops,0
! <Plant Loop>,<Plant Loop Name>,<Loop Type>,<Inlet Node Name>,<Outlet Node Name>,<Branch List>,<Connector List>
! <Plant Loop Connector>,<Connector Type>,<Connector Name>,<Loop Name>,<Loop Type>,<Number of Inlets/Outlets>
! <Plant Loop Connector Branches>,<Connector Node Count>,<Connector Type>,<Connector Name>,<Inlet Branch>,<Outlet Branch>,<Loop Name>,<Loop Type>
! <Plant Loop Connector Nodes>,<Connector Node Count>,<Connector Type>,<Connector Name>,<Inlet Node>,<Outlet Node>,<Loop Name>,<Loop Type>
! <Plant Loop Supply Connection>,<Plant Loop Name>,<Supply Side Outlet Node Name>,<Demand Side Inlet Node Name>
! <Plant Loop Return Connection>,<Plant Loop Name>,<Demand Side Outlet Node Name>,<Supply Side Inlet Node Name>
! ===============================================================
! <# Condenser Loops>,<Number of Condenser Loops>
 #Condenser Loops,0
! <Condenser Loop>,<Condenser Loop Name>,<Loop Type>,<Inlet Node Name>,<Outlet Node Name>,<Branch List>,<Connector List>
! <Condenser Loop Connector>,<Connector Type>,<Connector Name>,<Loop Name>,<Loop Type>,<Number of Inlets/Outlets>
! <Condenser Loop Connector Branches>,<Connector Node Count>,<Connector Type>,<Connector Name>,<Inlet Branch>,<Outlet Branch>,<Loop Name>,<Loop Type>
! <Condenser Loop Connector Nodes>,<Connector Node Count>,<Connector Type>,<Connector Name>,<Inlet Node>,<Outlet Node>,<Loop Name>,<Loop Type>
! <Condenser Loop Supply Connection>,<Condenser Loop Name>,<Supply Side Outlet Node Name>,<Demand Side Inlet Node Name>
! <Condenser Loop Return Connection>,<Condenser Loop Name>,<Demand Side Outlet Node Name>,<Supply Side Inlet Node Name>
! ===============================================================
! <# Controlled Zones>,<Number of Controlled Zones>
 #Controlled Zones,140
! <Controlled Zone>,<Controlled Zone Name>,<Equip List Name>,<Control List Name>,<Zone Node Name>,<# Inlet Nodes>,<# Exhaust Nodes>,<# Return Nodes>
! <Controlled Zone Inlet>,<Inlet Node Count>,<Controlled Zone Name>,<Supply Air Inlet Node Name>,<SD Sys:Cooling/Heating [DD:Cooling] Inlet Node Name>,<DD Sys:Heating Inlet Node Name>
! <Controlled Zone Exhaust>,<Exhaust Node Count>,<Controlled Zone Name>,<Exhaust Air Node Name>
 Controlled Zone,STORY 1 CORE SPACE ZN,STORY 1 CORE SPACE ZN EQUIPMENT LIST,,NODE 1,1,1,1
   Controlled Zone Inlet,1,STORY 1 CORE SPACE ZN,NODE 3,Undefined,N/A
   Controlled Zone Exhaust,1,STORY 1 CORE SPACE ZN,NODE 2
   Controlled Zone Return,1,STORY 1 CORE SPACE ZN,STORY 1 CORE SPACE ZN RETURN AIR NODE
 Controlled Zone,STORY 1 EAST PERIMETER SPACE ZN,STORY 1 EAST PERIMETER SPACE ZN EQUIPMENT LIST,,NODE 4,1,1,1
   Controlled Zone Inlet,1,STORY 1 EAST PERIMETER SPACE ZN,NODE 6,Undefined,N/A
   Controlled Zone Exhaust,1,STORY 1 EAST PERIMETER SPACE ZN,NODE 5
   Controlled Zone Return,1,STORY 1 EAST PERIMETER SPACE ZN,STORY 1 EAST PERIMETER SPACE ZN RETURN AIR NODE
 Controlled Zone,STORY 1 NORTH PERIMETER SPACE ZN,STORY 1 NORTH PERIMETER SPACE ZN EQUIPMENT LIST,,NODE 7,1,1,1
   Controlled Zone Inlet,1,STORY 1 NORTH PERIMETER SPACE ZN,NODE 9,Undefined,N/A
   Controlled Zone Exhaust,1,STORY 1 NORTH PERIMETER SPACE ZN,NODE 8
   Controlled Zone Return,1,STORY 1 NORTH PERIMETER SPACE ZN,STORY 1 NORTH PERIMETER SPACE ZN RETURN AIR NODE
 Controlled Zone,STORY 1 SOUTH PERIMETER SPACE ZN,STORY 1 SOUTH PERIMETER SPACE ZN EQUIPMENT LIST,,NODE 10,1,1,1
   Controlled Zone Inlet,1,STORY 1 SOUTH PERIMETER SPACE ZN,NODE 12,Undefined,N/A
   Controlled Zone Exhaust,1,STORY 1 SOUTH PERIMETER SPACE ZN,NODE 11
   Controlled Zone Return,1,STORY 1 SOUTH PERIMETER SPACE ZN,STORY 1 SOUTH PERIMETER SPACE ZN RETURN AIR NODE
 Controlled Zone,STORY 1 WEST PERIMETER SPACE ZN,STORY 1 WEST PERIMETER SPACE ZN EQUIPMENT LIST,,NODE 13,1,1,1
   Controlled Zone Inlet,1,STORY 1 WEST PERIMETER SPACE ZN,NODE 15,Undefined,N/A
   Controlled Zone Exhaust,1,STORY 1 WEST PERIMETER SPACE ZN,NODE 14
   Controlled Zone Return,1,STORY 1 WEST PERIMETER SPACE ZN,STORY 1 WEST PERIMETER SPACE ZN RETURN AIR NODE
 Controlled Zone,STORY 10 CORE SPACE ZN,STORY 10 CORE SPACE ZN EQUIPMENT LIST,,NODE 16,1,1,1
   Controlled Zone Inlet,1,STORY 10 CORE SPACE ZN,NODE 18,Undefined,N/A
   Controlled Zone Exhaust,1,STORY 10 CORE SPACE ZN,NODE 17
   Controlled Zone Return,1,STORY 10 CORE SPACE ZN,STORY 10 CORE SPACE ZN RETURN AIR NODE
 Controlled Zone,STORY 10 EAST PERIMETER SPACE ZN,STORY 10 EAST PERIMETER SPACE ZN EQUIPMENT LIST,,NODE 19,1,1,1
   Controlled Zone Inlet,1,STORY 10 EAST PERIMETER SPACE ZN,NODE 21,Undefined,N/A
   Controlled Zone Exhaust,1,STORY 10 EAST PERIMETER SPACE ZN,NODE 20
   Controlled Zone Return,1,STORY 10 EAST PERIMETER SPACE ZN,STORY 10 EAST PERIMETER SPACE ZN RETURN AIR NODE
 Controlled Zone,STORY 10 NORTH PERIMETER SPACE ZN,STORY 10 NORTH PERIMETER SPACE ZN EQUIPMENT LIST,,NODE 22,1,1,1
   Controlled Zone Inlet,1,STORY 10 NORTH PERIMETER SPACE ZN,NODE 24,Undefined,N/A
   Controlled Zone Exhaust,1,STORY 10 NORTH PERIMETER SPACE ZN,NODE 23
   Controlled Zone Return,1,STORY 10 NORTH PERIMETER SPACE ZN,STORY 10 NORTH PERIMETER SPACE ZN RETURN AIR NODE
 Controlled Zone,STORY 10 SOUTH PERIMETER SPACE ZN,STORY 10 SOUTH PERIMETER SPACE ZN EQUIPMENT LIST,,NODE 25,1,1,1
   Controlled Zone Inlet,1,STORY 10 SOUTH PERIMETER SPACE ZN,NODE 27,Undefined,N/A
   Controlled Zone Exhaust,1,STORY 10 SOUTH PERIMETER SPACE ZN,NODE 26
   Controlled Zone Return,1,STORY 10 SOUTH PERIMETER SPACE ZN,STORY 10 SOUTH PERIMETER SPACE ZN RETURN AIR NODE
 Controlled Zone,STORY 10 WEST PERIMETER SPACE ZN,STORY 10 WEST PERIMETER SPACE ZN EQUIPMENT LIST,,NODE 28,1,1,1
   Controlled Zone Inlet,1,STORY 10 WEST PERIMETER SPACE ZN,NODE 30,Undefined,N/A
   Controlled Zone Exhaust,1,STORY 10 WEST PERIMETER SPACE ZN,NODE 29
   Controlled Zone Return,1,STORY 10 WEST PERIMETER SPACE ZN,STORY 10 WEST PERIMETER SPACE ZN RETURN AIR NODE
 Controlled Zone,STORY 11 CORE SPACE ZN,STORY 11 CORE SPACE ZN EQUIPMENT LIST,,NODE 31,1,1,1
   Controlled Zone Inlet,1,STORY 11 CORE SPACE ZN,NODE 33,Undefined,N/A
   Controlled Zone Exhaust,1,STORY 11 CORE SPACE ZN,NODE 32
   Controlled Zone Return,1,STORY 11 CORE SPACE ZN,STORY 11 CORE SPACE ZN RETURN AIR NODE
 Controlled Zone,STORY 11 EAST PERIMETER SPACE ZN,STORY 11 EAST PERIMETER SPACE ZN EQUIPMENT LIST,,NODE 34,1,1,1
   Controlled Zone Inlet,1,STORY 11 EAST PERIMETER SPACE ZN,NODE 36,Undefined,N/A
   Controlled Zone Exhaust,1,STORY 11 EAST PERIMETER SPACE ZN,NODE 35
   Controlled Zone Return,1,STORY 11 EAST PERIMETER SPACE ZN,STORY 11 EAST PERIMETER SPACE ZN RETURN AIR NODE
 Controlled Zone,STORY 11 NORTH PERIMETER SPACE ZN,STORY 11 NORTH PERIMETER SPACE ZN EQUIPMENT LIST,,NODE 37,1,1,1
   Controlled Zone Inlet,1,STORY 11 NORTH PERIMETER SPACE ZN,NODE 39,Undefined,N/A
   Controlled Zone Exhaust,1,STORY 11 NORTH PERIMETER SPACE ZN,NODE 38
   Controlled Zone Return,1,STORY 11 NORTH PERIMETER SPACE ZN,STORY 11 NORTH PERIMETER SPACE ZN RETURN AIR NODE
 Controlled Zone,STORY 11 SOUTH PERIMETER SPACE ZN,STORY 11 SOUTH PERIMETER SPACE ZN EQUIPMENT LIST,,NODE 40,1,1,1
   Controlled Zone Inlet,1,STORY 11 SOUTH PERIMETER SPACE ZN,NODE 42,Undefined,N/A
   Controlled Zone Exhaust,1,STORY 11 SOUTH PERIMETER SPACE ZN,NODE 41
   Controlled Zone Return,1,STORY 11 SOUTH PERIMETER SPACE ZN,STORY 11 SOUTH PERIMETER SPACE ZN RETURN AIR NODE
 Controlled Zone,STORY 11 WEST PERIMETER SPACE ZN,STORY 11 WEST PERIMETER SPACE ZN EQUIPMENT LIST,,NODE 43,1,1,1
   Controlled Zone Inlet,1,STORY 11 WEST PERIMETER SPACE ZN,NODE 45,Undefined,N/A
   Controlled Zone Exhaust,1,STORY 11 WEST PERIMETER SPACE ZN,NODE 44
   Controlled Zone Return,1,STORY 11 WEST PERIMETER SPACE ZN,STORY 11 WEST PERIMETER SPACE ZN RETURN AIR NODE
 Controlled Zone,STORY 12 CORE SPACE ZN,STORY 12 CORE SPACE ZN EQUIPMENT LIST,,NODE 46,1,1,1
   Controlled Zone Inlet,1,STORY 12 CORE SPACE ZN,NODE 48,Undefined,N/A
   Controlled Zone Exhaust,1,STORY 12 CORE SPACE ZN,NODE 47
   Controlled Zone Return,1,STORY 12 CORE SPACE ZN,STORY 12 CORE SPACE ZN RETURN AIR NODE
 Controlled Zone,STORY 12 EAST PERIMETER SPACE ZN,STORY 12 EAST PERIMETER SPACE ZN EQUIPMENT LIST,,NODE 49,1,1,1
   Controlled Zone Inlet,1,STORY 12 EAST PERIMETER SPACE ZN,NODE 51,Undefined,N/A
   Controlled Zone Exhaust,1,STORY 12 EAST PERIMETER SPACE ZN,NODE 50
   Controlled Zone Return,1,STORY 12 EAST PERIMETER SPACE ZN,STORY 12 EAST PERIMETER SPACE ZN RETURN AIR NODE
 Controlled Zone,STORY 12 NORTH PERIMETER SPACE ZN,STORY 12 NORTH PERIMETER SPACE ZN EQUIPMENT LIST,,NODE 52,1,1,1
   Controlled Zone Inlet,1,STORY 12 NORTH PERIMETER SPACE ZN,NODE 54,Undefined,N/A
   Controlled Zone Exhaust,1,STORY 12 NORTH PERIMETER SPACE ZN,NODE 53
   Controlled Zone Return,1,STORY 12 NORTH PERIMETER SPACE ZN,STORY 12 NORTH PERIMETER SPACE ZN RETURN AIR NODE
 Controlled Zone,STORY 12 SOUTH PERIMETER SPACE ZN,STORY 12 SOUTH PERIMETER SPACE ZN EQUIPMENT LIST,,NODE 55,1,1,1
   Controlled Zone Inlet,1,STORY 12 SOUTH PERIMETER SPACE ZN,NODE 57,Undefined,N/A
   Controlled Zone Exhaust,1,STORY 12 SOUTH PERIMETER SPACE ZN,NODE 56
   Controlled Zone Return,1,STORY 12 SOUTH PERIMETER SPACE ZN,STORY 12 SOUTH PERIMETER SPACE ZN RETURN AIR NODE
 Controlled Zone,STORY 12 WEST PERIMETER SPACE ZN,STORY 12 WEST PERIMETER SPACE ZN EQUIPMENT LIST,,NODE 58,1,1,1
   Controlled Zone Inlet,1,STORY 12 WEST PERIMETER SPACE ZN,NODE 60,Undefined,N/A
   Controlled Zone Exhaust,1,STORY 12 WEST PERIMETER SPACE ZN,NODE 59
   Controlled Zone Return,1,STORY 12 WEST PERIMETER SPACE ZN,STORY 12 WEST PERIMETER SPACE ZN RETURN AIR NODE
 Controlled Zone,STORY 13 CORE SPACE ZN,STORY 13 CORE SPACE ZN EQUIPMENT LIST,,NODE 61,1,1,1
   Controlled Zone Inlet,1,STORY 13 CORE SPACE ZN,NODE 63,Undefined,N/A
   Controlled Zone Exhaust,1,STORY 13 CORE SPACE ZN,NODE 62
   Controlled Zone Return,1,STORY 13 CORE SPACE ZN,STORY 13 CORE SPACE ZN RETURN AIR NODE
 Controlled Zone,STORY 13 EAST PERIMETER SPACE ZN,STORY 13 EAST PERIMETER SPACE ZN EQUIPMENT LIST,,NODE 64,1,1,1
   Controlled Zone Inlet,1,STORY 13 EAST PERIMETER SPACE ZN,NODE 66,Undefined,N/A
   Controlled Zone Exhaust,1,STORY 13 EAST PERIMETER SPACE ZN,NODE 65
   Controlled Zone Return,1,STORY 13 EAST PERIMETER SPACE ZN,STORY 13 EAST PERIMETER SPACE ZN RETURN AIR NODE
 Controlled Zone,STORY 13 NORTH PERIMETER SPACE ZN,STORY 13 NORTH PERIMETER SPACE ZN EQUIPMENT LIST,,NODE 67,1,1,1
   Controlled Zone Inlet,1,STORY 13 NORTH PERIMETER SPACE ZN,NODE 69,Undefined,N/A
   Controlled Zone Exhaust,1,STORY 13 NORTH PERIMETER SPACE ZN,NODE 68
   Controlled Zone Return,1,STORY 13 NORTH PERIMETER SPACE ZN,STORY 13 NORTH PERIMETER SPACE ZN RETURN AIR NODE
 Controlled Zone,STORY 13 SOUTH PERIMETER SPACE ZN,STORY 13 SOUTH PERIMETER SPACE ZN EQUIPMENT LIST,,NODE 70,1,1,1
   Controlled Zone Inlet,1,STORY 13 SOUTH PERIMETER SPACE ZN,NODE 72,Undefined,N/A
   Controlled Zone Exhaust,1,STORY 13 SOUTH PERIMETER SPACE ZN,NODE 71
   Controlled Zone Return,1,STORY 13 SOUTH PERIMETER SPACE ZN,STORY 13 SOUTH PERIMETER SPACE ZN RETURN AIR NODE
 Controlled Zone,STORY 13 WEST PERIMETER SPACE ZN,STORY 13 WEST PERIMETER SPACE ZN EQUIPMENT LIST,,NODE 73,1,1,1
   Controlled Zone Inlet,1,STORY 13 WEST PERIMETER SPACE ZN,NODE 75,Undefined,N/A
   Controlled Zone Exhaust,1,STORY 13 WEST PERIMETER SPACE ZN,NODE 74
   Controlled Zone Return,1,STORY 13 WEST PERIMETER SPACE ZN,STORY 13 WEST PERIMETER SPACE ZN RETURN AIR NODE
 Controlled Zone,STORY 14 CORE SPACE ZN,STORY 14 CORE SPACE ZN EQUIPMENT LIST,,NODE 76,1,1,1
   Controlled Zone Inlet,1,STORY 14 CORE SPACE ZN,NODE 78,Undefined,N/A
   Controlled Zone Exhaust,1,STORY 14 CORE SPACE ZN,NODE 77
   Controlled Zone Return,1,STORY 14 CORE SPACE ZN,STORY 14 CORE SPACE ZN RETURN AIR NODE
 Controlled Zone,STORY 14 EAST PERIMETER SPACE ZN,STORY 14 EAST PERIMETER SPACE ZN EQUIPMENT LIST,,NODE 79,1,1,1
   Controlled Zone Inlet,1,STORY 14 EAST PERIMETER SPACE ZN,NODE 81,Undefined,N/A
   Controlled Zone Exhaust,1,STORY 14 EAST PERIMETER SPACE ZN,NODE 80
   Controlled Zone Return,1,STORY 14 EAST PERIMETER SPACE ZN,STORY 14 EAST PERIMETER SPACE ZN RETURN AIR NODE
 Controlled Zone,STORY 14 NORTH PERIMETER SPACE ZN,STORY 14 NORTH PERIMETER SPACE ZN EQUIPMENT LIST,,NODE 82,1,1,1
   Controlled Zone Inlet,1,STORY 14 NORTH PERIMETER SPACE ZN,NODE 84,Undefined,N/A
   Controlled Zone Exhaust,1,STORY 14 NORTH PERIMETER SPACE ZN,NODE 83
   Controlled Zone Return,1,STORY 14 NORTH PERIMETER SPACE ZN,STORY 14 NORTH PERIMETER SPACE ZN RETURN AIR NODE
 Controlled Zone,STORY 14 SOUTH PERIMETER SPACE ZN,STORY 14 SOUTH PERIMETER SPACE ZN EQUIPMENT LIST,,NODE 85,1,1,1
   Controlled Zone Inlet,1,STORY 14 SOUTH PERIMETER SPACE ZN,NODE 87,Undefined,N/A
   Controlled Zone Exhaust,1,STORY 14 SOUTH PERIMETER SPACE ZN,NODE 86
   Controlled Zone Return,1,STORY 14 SOUTH PERIMETER SPACE ZN,STORY 14 SOUTH PERIMETER SPACE ZN RETURN AIR NODE
 Controlled Zone,STORY 14 WEST PERIMETER SPACE ZN,STORY 14 WEST PERIMETER SPACE ZN EQUIPMENT LIST,,NODE 88,1,1,1
   Controlled Zone Inlet,1,STORY 14 WEST PERIMETER SPACE ZN,NODE 90,Undefined,N/A
   Controlled Zone Exhaust,1,STORY 14 WEST PERIMETER SPACE ZN,NODE 89
   Controlled Zone Return,1,STORY 14 WEST PERIMETER SPACE ZN,STORY 14 WEST PERIMETER SPACE ZN RETURN AIR NODE
 Controlled Zone,STORY 15 CORE SPACE ZN,STORY 15 CORE SPACE ZN EQUIPMENT LIST,,NODE 91,1,1,1
   Controlled Zone Inlet,1,STORY 15 CORE SPACE ZN,NODE 93,Undefined,N/A
   Controlled Zone Exhaust,1,STORY 15 CORE SPACE ZN,NODE 92
   Controlled Zone Return,1,STORY 15 CORE SPACE ZN,STORY 15 CORE SPACE ZN RETURN AIR NODE
 Controlled Zone,STORY 15 EAST PERIMETER SPACE ZN,STORY 15 EAST PERIMETER SPACE ZN EQUIPMENT LIST,,NODE 94,1,1,1
   Controlled Zone Inlet,1,STORY 15 EAST PERIMETER SPACE ZN,NODE 96,Undefined,N/A
   Controlled Zone Exhaust,1,STORY 15 EAST PERIMETER SPACE ZN,NODE 95
   Controlled Zone Return,1,STORY 15 EAST PERIMETER SPACE ZN,STORY 15 EAST PERIMETER SPACE ZN RETURN AIR NODE
 Controlled Zone,STORY 15 NORTH PERIMETER SPACE ZN,STORY 15 NORTH PERIMETER SPACE ZN EQUIPMENT LIST,,NODE 97,1,1,1
   Controlled Zone Inlet,1,STORY 15 NORTH PERIMETER SPACE ZN,NODE 99,Undefined,N/A
   Controlled Zone Exhaust,1,STORY 15 NORTH PERIMETER SPACE ZN,NODE 98
   Controlled Zone Return,1,STORY 15 NORTH PERIMETER SPACE ZN,STORY 15 NORTH PERIMETER SPACE ZN RETURN AIR NODE
 Controlled Zone,STORY 15 SOUTH PERIMETER SPACE ZN,STORY 15 SOUTH PERIMETER SPACE ZN EQUIPMENT LIST,,NODE 100,1,1,1
   Controlled Zone Inlet,1,STORY 15 SOUTH PERIMETER SPACE ZN,NODE 102,Undefined,N/A
   Controlled Zone Exhaust,1,STORY 15 SOUTH PERIMETER SPACE ZN,NODE 101
   Controlled Zone Return,1,STORY 15 SOUTH PERIMETER SPACE ZN,STORY 15 SOUTH PERIMETER SPACE ZN RETURN AIR NODE
 Controlled Zone,STORY 15 WEST PERIMETER SPACE ZN,STORY 15 WEST PERIMETER SPACE ZN EQUIPMENT LIST,,NODE 103,1,1,1
   Controlled Zone Inlet,1,STORY 15 WEST PERIMETER SPACE ZN,NODE 105,Undefined,N/A
   Controlled Zone Exhaust,1,STORY 15 WEST PERIMETER SPACE ZN,NODE 104
   Controlled Zone Return,1,STORY 15 WEST PERIMETER SPACE ZN,STORY 15 WEST PERIMETER SPACE ZN RETURN AIR NODE
 Controlled Zone,STORY 16 CORE SPACE ZN,STORY 16 CORE SPACE ZN EQUIPMENT LIST,,NODE 106,1,1,1
   Controlled Zone Inlet,1,STORY 16 CORE SPACE ZN,NODE 108,Undefined,N/A
   Controlled Zone Exhaust,1,STORY 16 CORE SPACE ZN,NODE 107
   Controlled Zone Return,1,STORY 16 CORE SPACE ZN,STORY 16 CORE SPACE ZN RETURN AIR NODE
 Controlled Zone,STORY 16 EAST PERIMETER SPACE ZN,STORY 16 EAST PERIMETER SPACE ZN EQUIPMENT LIST,,NODE 109,1,1,1
   Controlled Zone Inlet,1,STORY 16 EAST PERIMETER SPACE ZN,NODE 111,Undefined,N/A
   Controlled Zone Exhaust,1,STORY 16 EAST PERIMETER SPACE ZN,NODE 110
   Controlled Zone Return,1,STORY 16 EAST PERIMETER SPACE ZN,STORY 16 EAST PERIMETER SPACE ZN RETURN AIR NODE
 Controlled Zone,STORY 16 NORTH PERIMETER SPACE ZN,STORY 16 NORTH PERIMETER SPACE ZN EQUIPMENT LIST,,NODE 112,1,1,1
   Controlled Zone Inlet,1,STORY 16 NORTH PERIMETER SPACE ZN,NODE 114,Undefined,N/A
   Controlled Zone Exhaust,1,STORY 16 NORTH PERIMETER SPACE ZN,NODE 113
   Controlled Zone Return,1,STORY 16 NORTH PERIMETER SPACE ZN,STORY 16 NORTH PERIMETER SPACE ZN RETURN AIR NODE
 Controlled Zone,STORY 16 SOUTH PERIMETER SPACE ZN,STORY 16 SOUTH PERIMETER SPACE ZN EQUIPMENT LIST,,NODE 115,1,1,1
   Controlled Zone Inlet,1,STORY 16 SOUTH PERIMETER SPACE ZN,NODE 117,Undefined,N/A
   Controlled Zone Exhaust,1,STORY 16 SOUTH PERIMETER SPACE ZN,NODE 116
   Controlled Zone Return,1,STORY 16 SOUTH PERIMETER SPACE ZN,STORY 16 SOUTH PERIMETER SPACE ZN RETURN AIR NODE
 Controlled Zone,STORY 16 WEST PERIMETER SPACE ZN,STORY 16 WEST PERIMETER SPACE ZN EQUIPMENT LIST,,NODE 118,1,1,1
   Controlled Zone Inlet,1,STORY 16 WEST PERIMETER SPACE ZN,NODE 120,Undefined,N/A
   Controlled Zone Exhaust,1,STORY 16 WEST PERIMETER SPACE ZN,NODE 119
   Controlled Zone Return,1,STORY 16 WEST PERIMETER SPACE ZN,STORY 16 WEST PERIMETER SPACE ZN RETURN AIR NODE
 Controlled Zone,STORY 17 CORE SPACE ZN,STORY 17 CORE SPACE ZN EQUIPMENT LIST,,NODE 121,1,1,1
   Controlled Zone Inlet,1,STORY 17 CORE SPACE ZN,NODE 123,Undefined,N/A
   Controlled Zone Exhaust,1,STORY 17 CORE SPACE ZN,NODE 122
   Controlled Zone Return,1,STORY 17 CORE SPACE ZN,STORY 17 CORE SPACE ZN RETURN AIR NODE
 Controlled Zone,STORY 17 EAST PERIMETER SPACE ZN,STORY 17 EAST PERIMETER SPACE ZN EQUIPMENT LIST,,NODE 124,1,1,1
   Controlled Zone Inlet,1,STORY 17 EAST PERIMETER SPACE ZN,NODE 126,Undefined,N/A
   Controlled Zone Exhaust,1,STORY 17 EAST PERIMETER SPACE ZN,NODE 125
   Controlled Zone Return,1,STORY 17 EAST PERIMETER SPACE ZN,STORY 17 EAST PERIMETER SPACE ZN RETURN AIR NODE
 Controlled Zone,STORY 17 NORTH PERIMETER SPACE ZN,STORY 17 NORTH PERIMETER SPACE ZN EQUIPMENT LIST,,NODE 127,1,1,1
   Controlled Zone Inlet,1,STORY 17 NORTH PERIMETER SPACE ZN,NODE 129,Undefined,N/A
   Controlled Zone Exhaust,1,STORY 17 NORTH PERIMETER SPACE ZN,NODE 128
   Controlled Zone Return,1,STORY 17 NORTH PERIMETER SPACE ZN,STORY 17 NORTH PERIMETER SPACE ZN RETURN AIR NODE
 Controlled Zone,STORY 17 SOUTH PERIMETER SPACE ZN,STORY 17 SOUTH PERIMETER SPACE ZN EQUIPMENT LIST,,NODE 130,1,1,1
   Controlled Zone Inlet,1,STORY 17 SOUTH PERIMETER SPACE ZN,NODE 132,Undefined,N/A
   Controlled Zone Exhaust,1,STORY 17 SOUTH PERIMETER SPACE ZN,NODE 131
   Controlled Zone Return,1,STORY 17 SOUTH PERIMETER SPACE ZN,STORY 17 SOUTH PERIMETER SPACE ZN RETURN AIR NODE
 Controlled Zone,STORY 17 WEST PERIMETER SPACE ZN,STORY 17 WEST PERIMETER SPACE ZN EQUIPMENT LIST,,NODE 133,1,1,1
   Controlled Zone Inlet,1,STORY 17 WEST PERIMETER SPACE ZN,NODE 135,Undefined,N/A
   Controlled Zone Exhaust,1,STORY 17 WEST PERIMETER SPACE ZN,NODE 134
   Controlled Zone Return,1,STORY 17 WEST PERIMETER SPACE ZN,STORY 17 WEST PERIMETER SPACE ZN RETURN AIR NODE
 Controlled Zone,STORY 18 CORE SPACE ZN,STORY 18 CORE SPACE ZN EQUIPMENT LIST,,NODE 136,1,1,1
   Controlled Zone Inlet,1,STORY 18 CORE SPACE ZN,NODE 138,Undefined,N/A
   Controlled Zone Exhaust,1,STORY 18 CORE SPACE ZN,NODE 137
   Controlled Zone Return,1,STORY 18 CORE SPACE ZN,STORY 18 CORE SPACE ZN RETURN AIR NODE
 Controlled Zone,STORY 18 EAST PERIMETER SPACE ZN,STORY 18 EAST PERIMETER SPACE ZN EQUIPMENT LIST,,NODE 139,1,1,1
   Controlled Zone Inlet,1,STORY 18 EAST PERIMETER SPACE ZN,NODE 141,Undefined,N/A
   Controlled Zone Exhaust,1,STORY 18 EAST PERIMETER SPACE ZN,NODE 140
   Controlled Zone Return,1,STORY 18 EAST PERIMETER SPACE ZN,STORY 18 EAST PERIMETER SPACE ZN RETURN AIR NODE
 Controlled Zone,STORY 18 NORTH PERIMETER SPACE ZN,STORY 18 NORTH PERIMETER SPACE ZN EQUIPMENT LIST,,NODE 142,1,1,1
   Controlled Zone Inlet,1,STORY 18 NORTH PERIMETER SPACE ZN,NODE 144,Undefined,N/A
   Controlled Zone Exhaust,1,STORY 18 NORTH PERIMETER SPACE ZN,NODE 143
   Controlled Zone Return,1,STORY 18 NORTH PERIMETER SPACE ZN,STORY 18 NORTH PERIMETER SPACE ZN RETURN AIR NODE
 Controlled Zone,STORY 18 SOUTH PERIMETER SPACE ZN,STORY 18 SOUTH PERIMETER SPACE ZN EQUIPMENT LIST,,NODE 145,1,1,1
   Controlled Zone Inlet,1,STORY 18 SOUTH PERIMETER SPACE ZN,NODE 147,Undefined,N/A
   Controlled Zone Exhaust,1,STORY 18 SOUTH PERIMETER SPACE ZN,NODE 146
   Controlled Zone Return,1,STORY 18 SOUTH PERIMETER SPACE ZN,STORY 18 SOUTH PERIMETER SPACE ZN RETURN AIR NODE
 Controlled Zone,STORY 18 WEST PERIMETER SPACE ZN,STORY 18 WEST PERIMETER SPACE ZN EQUIPMENT LIST,,NODE 148,1,1,1
   Controlled Zone Inlet,1,STORY 18 WEST PERIMETER SPACE ZN,NODE 150,Undefined,N/A
   Controlled Zone Exhaust,1,STORY 18 WEST PERIMETER SPACE ZN,NODE 149
[...]
 Non-Parent Node Connection,ZONE HVAC IDEAL LOADS AIR SYSTEM 102 OUTDOOR AIR INLET NODE,OUTDOORAIR:NODE,OutdoorAir:Node,OutdoorAir,103
 Non-Parent Node Connection,NODE 309,ZONEHVAC:IDEALLOADSAIRSYSTEM,ZONE HVAC IDEAL LOADS AIR SYSTEM 103,Outlet,1
 Non-Parent Node Connection,NODE 308,ZONEHVAC:IDEALLOADSAIRSYSTEM,ZONE HVAC IDEAL LOADS AIR SYSTEM 103,Inlet,1
 Non-Parent Node Connection,ZONE HVAC IDEAL LOADS AIR SYSTEM 103 OUTDOOR AIR INLET NODE,ZONEHVAC:IDEALLOADSAIRSYSTEM,ZONE HVAC IDEAL LOADS AIR SYSTEM 103,Outlet,1
 Non-Parent Node Connection,ZONE HVAC IDEAL LOADS AIR SYSTEM 103 OUTDOOR AIR INLET NODE,OUTDOORAIR:NODE,OutdoorAir:Node,OutdoorAir,104
 Non-Parent Node Connection,NODE 312,ZONEHVAC:IDEALLOADSAIRSYSTEM,ZONE HVAC IDEAL LOADS AIR SYSTEM 104,Outlet,1
 Non-Parent Node Connection,NODE 311,ZONEHVAC:IDEALLOADSAIRSYSTEM,ZONE HVAC IDEAL LOADS AIR SYSTEM 104,Inlet,1
 Non-Parent Node Connection,ZONE HVAC IDEAL LOADS AIR SYSTEM 104 OUTDOOR AIR INLET NODE,ZONEHVAC:IDEALLOADSAIRSYSTEM,ZONE HVAC IDEAL LOADS AIR SYSTEM 104,Outlet,1
 Non-Parent Node Connection,ZONE HVAC IDEAL LOADS AIR SYSTEM 104 OUTDOOR AIR INLET NODE,OUTDOORAIR:NODE,OutdoorAir:Node,OutdoorAir,105
 Non-Parent Node Connection,NODE 315,ZONEHVAC:IDEALLOADSAIRSYSTEM,ZONE HVAC IDEAL LOADS AIR SYSTEM 105,Outlet,1
 Non-Parent Node Connection,NODE 314,ZONEHVAC:IDEALLOADSAIRSYSTEM,ZONE HVAC IDEAL LOADS AIR SYSTEM 105,Inlet,1
 Non-Parent Node Connection,ZONE HVAC IDEAL LOADS AIR SYSTEM 105 OUTDOOR AIR INLET NODE,ZONEHVAC:IDEALLOADSAIRSYSTEM,ZONE HVAC IDEAL LOADS AIR SYSTEM 105,Outlet,1
 Non-Parent Node Connection,ZONE HVAC IDEAL LOADS AIR SYSTEM 105 OUTDOOR AIR INLET NODE,OUTDOORAIR:NODE,OutdoorAir:Node,OutdoorAir,106
 Non-Parent Node Connection,NODE 318,ZONEHVAC:IDEALLOADSAIRSYSTEM,ZONE HVAC IDEAL LOADS AIR SYSTEM 106,Outlet,1
 Non-Parent Node Connection,NODE 317,ZONEHVAC:IDEALLOADSAIRSYSTEM,ZONE HVAC IDEAL LOADS AIR SYSTEM 106,Inlet,1
 Non-Parent Node Connection,ZONE HVAC IDEAL LOADS AIR SYSTEM 106 OUTDOOR AIR INLET NODE,ZONEHVAC:IDEALLOADSAIRSYSTEM,ZONE HVAC IDEAL LOADS AIR SYSTEM 106,Outlet,1
 Non-Parent Node Connection,ZONE HVAC IDEAL LOADS AIR SYSTEM 106 OUTDOOR AIR INLET NODE,OUTDOORAIR:NODE,OutdoorAir:Node,OutdoorAir,107
 Non-Parent Node Connection,NODE 321,ZONEHVAC:IDEALLOADSAIRSYSTEM,ZONE HVAC IDEAL LOADS AIR SYSTEM 107,Outlet,1
 Non-Parent Node Connection,NODE 320,ZONEHVAC:IDEALLOADSAIRSYSTEM,ZONE HVAC IDEAL LOADS AIR SYSTEM 107,Inlet,1
 Non-Parent Node Connection,ZONE HVAC IDEAL LOADS AIR SYSTEM 107 OUTDOOR AIR INLET NODE,ZONEHVAC:IDEALLOADSAIRSYSTEM,ZONE HVAC IDEAL LOADS AIR SYSTEM 107,Outlet,1
 Non-Parent Node Connection,ZONE HVAC IDEAL LOADS AIR SYSTEM 107 OUTDOOR AIR INLET NODE,OUTDOORAIR:NODE,OutdoorAir:Node,OutdoorAir,108
 Non-Parent Node Connection,NODE 324,ZONEHVAC:IDEALLOADSAIRSYSTEM,ZONE HVAC IDEAL LOADS AIR SYSTEM 108,Outlet,1
 Non-Parent Node Connection,NODE 323,ZONEHVAC:IDEALLOADSAIRSYSTEM,ZONE HVAC IDEAL LOADS AIR SYSTEM 108,Inlet,1
 Non-Parent Node Connection,ZONE HVAC IDEAL LOADS AIR SYSTEM 108 OUTDOOR AIR INLET NODE,ZONEHVAC:IDEALLOADSAIRSYSTEM,ZONE HVAC IDEAL LOADS AIR SYSTEM 108,Outlet,1
 Non-Parent Node Connection,ZONE HVAC IDEAL LOADS AIR SYSTEM 108 OUTDOOR AIR INLET NODE,OUTDOORAIR:NODE,OutdoorAir:Node,OutdoorAir,109
 Non-Parent Node Connection,NODE 327,ZONEHVAC:IDEALLOADSAIRSYSTEM,ZONE HVAC IDEAL LOADS AIR SYSTEM 109,Outlet,1
 Non-Parent Node Connection,NODE 326,ZONEHVAC:IDEALLOADSAIRSYSTEM,ZONE HVAC IDEAL LOADS AIR SYSTEM 109,Inlet,1
 Non-Parent Node Connection,ZONE HVAC IDEAL LOADS AIR SYSTEM 109 OUTDOOR AIR INLET NODE,ZONEHVAC:IDEALLOADSAIRSYSTEM,ZONE HVAC IDEAL LOADS AIR SYSTEM 109,Outlet,1
 Non-Parent Node Connection,ZONE HVAC IDEAL LOADS AIR SYSTEM 109 OUTDOOR AIR INLET NODE,OUTDOORAIR:NODE,OutdoorAir:Node,OutdoorAir,110
 Non-Parent Node Connection,NODE 330,ZONEHVAC:IDEALLOADSAIRSYSTEM,ZONE HVAC IDEAL LOADS AIR SYSTEM 110,Outlet,1
 Non-Parent Node Connection,NODE 329,ZONEHVAC:IDEALLOADSAIRSYSTEM,ZONE HVAC IDEAL LOADS AIR SYSTEM 110,Inlet,1
 Non-Parent Node Connection,ZONE HVAC IDEAL LOADS AIR SYSTEM 110 OUTDOOR AIR INLET NODE,ZONEHVAC:IDEALLOADSAIRSYSTEM,ZONE HVAC IDEAL LOADS AIR SYSTEM 110,Outlet,1
 Non-Parent Node Connection,ZONE HVAC IDEAL LOADS AIR SYSTEM 110 OUTDOOR AIR INLET NODE,OUTDOORAIR:NODE,OutdoorAir:Node,OutdoorAir,111
 Non-Parent Node Connection,NODE 333,ZONEHVAC:IDEALLOADSAIRSYSTEM,ZONE HVAC IDEAL LOADS AIR SYSTEM 111,Outlet,1
 Non-Parent Node Connection,NODE 332,ZONEHVAC:IDEALLOADSAIRSYSTEM,ZONE HVAC IDEAL LOADS AIR SYSTEM 111,Inlet,1
 Non-Parent Node Connection,ZONE HVAC IDEAL LOADS AIR SYSTEM 111 OUTDOOR AIR INLET NODE,ZONEHVAC:IDEALLOADSAIRSYSTEM,ZONE HVAC IDEAL LOADS AIR SYSTEM 111,Outlet,1
 Non-Parent Node Connection,ZONE HVAC IDEAL LOADS AIR SYSTEM 111 OUTDOOR AIR INLET NODE,OUTDOORAIR:NODE,OutdoorAir:Node,OutdoorAir,112
 Non-Parent Node Connection,NODE 336,ZONEHVAC:IDEALLOADSAIRSYSTEM,ZONE HVAC IDEAL LOADS AIR SYSTEM 112,Outlet,1
 Non-Parent Node Connection,NODE 335,ZONEHVAC:IDEALLOADSAIRSYSTEM,ZONE HVAC IDEAL LOADS AIR SYSTEM 112,Inlet,1
 Non-Parent Node Connection,ZONE HVAC IDEAL LOADS AIR SYSTEM 112 OUTDOOR AIR INLET NODE,ZONEHVAC:IDEALLOADSAIRSYSTEM,ZONE HVAC IDEAL LOADS AIR SYSTEM 112,Outlet,1
 Non-Parent Node Connection,ZONE HVAC IDEAL LOADS AIR SYSTEM 112 OUTDOOR AIR INLET NODE,OUTDOORAIR:NODE,OutdoorAir:Node,OutdoorAir,113
 Non-Parent Node Connection,NODE 339,ZONEHVAC:IDEALLOADSAIRSYSTEM,ZONE HVAC IDEAL LOADS AIR SYSTEM 113,Outlet,1
 Non-Parent Node Connection,NODE 338,ZONEHVAC:IDEALLOADSAIRSYSTEM,ZONE HVAC IDEAL LOADS AIR SYSTEM 113,Inlet,1
 Non-Parent Node Connection,ZONE HVAC IDEAL LOADS AIR SYSTEM 113 OUTDOOR AIR INLET NODE,ZONEHVAC:IDEALLOADSAIRSYSTEM,ZONE HVAC IDEAL LOADS AIR SYSTEM 113,Outlet,1
 Non-Parent Node Connection,ZONE HVAC IDEAL LOADS AIR SYSTEM 113 OUTDOOR AIR INLET NODE,OUTDOORAIR:NODE,OutdoorAir:Node,OutdoorAir,114
 Non-Parent Node Connection,NODE 342,ZONEHVAC:IDEALLOADSAIRSYSTEM,ZONE HVAC IDEAL LOADS AIR SYSTEM 114,Outlet,1
 Non-Parent Node Connection,NODE 341,ZONEHVAC:IDEALLOADSAIRSYSTEM,ZONE HVAC IDEAL LOADS AIR SYSTEM 114,Inlet,1
 Non-Parent Node Connection,ZONE HVAC IDEAL LOADS AIR SYSTEM 114 OUTDOOR AIR INLET NODE,ZONEHVAC:IDEALLOADSAIRSYSTEM,ZONE HVAC IDEAL LOADS AIR SYSTEM 114,Outlet,1
 Non-Parent Node Connection,ZONE HVAC IDEAL LOADS AIR SYSTEM 114 OUTDOOR AIR INLET NODE,OUTDOORAIR:NODE,OutdoorAir:Node,OutdoorAir,115
 Non-Parent Node Connection,NODE 345,ZONEHVAC:IDEALLOADSAIRSYSTEM,ZONE HVAC IDEAL LOADS AIR SYSTEM 115,Outlet,1
 Non-Parent Node Connection,NODE 344,ZONEHVAC:IDEALLOADSAIRSYSTEM,ZONE HVAC IDEAL LOADS AIR SYSTEM 115,Inlet,1
 Non-Parent Node Connection,ZONE HVAC IDEAL LOADS AIR SYSTEM 115 OUTDOOR AIR INLET NODE,ZONEHVAC:IDEALLOADSAIRSYSTEM,ZONE HVAC IDEAL LOADS AIR SYSTEM 115,Outlet,1
 Non-Parent Node Connection,ZONE HVAC IDEAL LOADS AIR SYSTEM 115 OUTDOOR AIR INLET NODE,OUTDOORAIR:NODE,OutdoorAir:Node,OutdoorAir,116
 Non-Parent Node Connection,NODE 348,ZONEHVAC:IDEALLOADSAIRSYSTEM,ZONE HVAC IDEAL LOADS AIR SYSTEM 116,Outlet,1
 Non-Parent Node Connection,NODE 347,ZONEHVAC:IDEALLOADSAIRSYSTEM,ZONE HVAC IDEAL LOADS AIR SYSTEM 116,Inlet,1
 Non-Parent Node Connection,ZONE HVAC IDEAL LOADS AIR SYSTEM 116 OUTDOOR AIR INLET NODE,ZONEHVAC:IDEALLOADSAIRSYSTEM,ZONE HVAC IDEAL LOADS AIR SYSTEM 116,Outlet,1
 Non-Parent Node Connection,ZONE HVAC IDEAL LOADS AIR SYSTEM 116 OUTDOOR AIR INLET NODE,OUTDOORAIR:NODE,OutdoorAir:Node,OutdoorAir,117
 Non-Parent Node Connection,NODE 351,ZONEHVAC:IDEALLOADSAIRSYSTEM,ZONE HVAC IDEAL LOADS AIR SYSTEM 117,Outlet,1
 Non-Parent Node Connection,NODE 350,ZONEHVAC:IDEALLOADSAIRSYSTEM,ZONE HVAC IDEAL LOADS AIR SYSTEM 117,Inlet,1
 Non-Parent Node Connection,ZONE HVAC IDEAL LOADS AIR SYSTEM 117 OUTDOOR AIR INLET NODE,ZONEHVAC:IDEALLOADSAIRSYSTEM,ZONE HVAC IDEAL LOADS AIR SYSTEM 117,Outlet,1
 Non-Parent Node Connection,ZONE HVAC IDEAL LOADS AIR SYSTEM 117 OUTDOOR AIR INLET NODE,OUTDOORAIR:NODE,OutdoorAir:Node,OutdoorAir,118
 Non-Parent Node Connection,NODE 354,ZONEHVAC:IDEALLOADSAIRSYSTEM,ZONE HVAC IDEAL LOADS AIR SYSTEM 118,Outlet,1
 Non-Parent Node Connection,NODE 353,ZONEHVAC:IDEALLOADSAIRSYSTEM,ZONE HVAC IDEAL LOADS AIR SYSTEM 118,Inlet,1
 Non-Parent Node Connection,ZONE HVAC IDEAL LOADS AIR SYSTEM 118 OUTDOOR AIR INLET NODE,ZONEHVAC:IDEALLOADSAIRSYSTEM,ZONE HVAC IDEAL LOADS AIR SYSTEM 118,Outlet,1
 Non-Parent Node Connection,ZONE HVAC IDEAL LOADS AIR SYSTEM 118 OUTDOOR AIR INLET NODE,OUTDOORAIR:NODE,OutdoorAir:Node,OutdoorAir,119
 Non-Parent Node Connection,NODE 357,ZONEHVAC:IDEALLOADSAIRSYSTEM,ZONE HVAC IDEAL LOADS AIR SYSTEM 119,Outlet,1
 Non-Parent Node Connection,NODE 356,ZONEHVAC:IDEALLOADSAIRSYSTEM,ZONE HVAC IDEAL LOADS AIR SYSTEM 119,Inlet,1
 Non-Parent Node Connection,ZONE HVAC IDEAL LOADS AIR SYSTEM 119 OUTDOOR AIR INLET NODE,ZONEHVAC:IDEALLOADSAIRSYSTEM,ZONE HVAC IDEAL LOADS AIR SYSTEM 119,Outlet,1
 Non-Parent Node Connection,ZONE HVAC IDEAL LOADS AIR SYSTEM 119 OUTDOOR AIR INLET NODE,OUTDOORAIR:NODE,OutdoorAir:Node,OutdoorAir,120
 Non-Parent Node Connection,NODE 360,ZONEHVAC:IDEALLOADSAIRSYSTEM,ZONE HVAC IDEAL LOADS AIR SYSTEM 120,Outlet,1
 Non-Parent Node Connection,NODE 359,ZONEHVAC:IDEALLOADSAIRSYSTEM,ZONE HVAC IDEAL LOADS AIR SYSTEM 120,Inlet,1
 Non-Parent Node Connection,ZONE HVAC IDEAL LOADS AIR SYSTEM 120 OUTDOOR AIR INLET NODE,ZONEHVAC:IDEALLOADSAIRSYSTEM,ZONE HVAC IDEAL LOADS AIR SYSTEM 120,Outlet,1
 Non-Parent Node Connection,ZONE HVAC IDEAL LOADS AIR SYSTEM 120 OUTDOOR AIR INLET NODE,OUTDOORAIR:NODE,OutdoorAir:Node,OutdoorAir,121
 Non-Parent Node Connection,NODE 363,ZONEHVAC:IDEALLOADSAIRSYSTEM,ZONE HVAC IDEAL LOADS AIR SYSTEM 121,Outlet,1
 Non-Parent Node Connection,NODE 362,ZONEHVAC:IDEALLOADSAIRSYSTEM,ZONE HVAC IDEAL LOADS AIR SYSTEM 121,Inlet,1
 Non-Parent Node Connection,ZONE HVAC IDEAL LOADS AIR SYSTEM 121 OUTDOOR AIR INLET NODE,ZONEHVAC:IDEALLOADSAIRSYSTEM,ZONE HVAC IDEAL LOADS AIR SYSTEM 121,Outlet,1
 Non-Parent Node Connection,ZONE HVAC IDEAL LOADS AIR SYSTEM 121 OUTDOOR AIR INLET NODE,OUTDOORAIR:NODE,OutdoorAir:Node,OutdoorAir,122
 Non-Parent Node Connection,NODE 366,ZONEHVAC:IDEALLOADSAIRSYSTEM,ZONE HVAC IDEAL LOADS AIR SYSTEM 122,Outlet,1
 Non-Parent Node Connection,NODE 365,ZONEHVAC:IDEALLOADSAIRSYSTEM,ZONE HVAC IDEAL LOADS AIR SYSTEM 122,Inlet,1
 Non-Parent Node Connection,ZONE HVAC IDEAL LOADS AIR SYSTEM 122 OUTDOOR AIR INLET NODE,ZONEHVAC:IDEALLOADSAIRSYSTEM,ZONE HVAC IDEAL LOADS AIR SYSTEM 122,Outlet,1
 Non-Parent Node Connection,ZONE HVAC IDEAL LOADS AIR SYSTEM 122 OUTDOOR AIR INLET NODE,OUTDOORAIR:NODE,OutdoorAir:Node,OutdoorAir,123
 Non-Parent Node Connection,NODE 369,ZONEHVAC:IDEALLOADSAIRSYSTEM,ZONE HVAC IDEAL LOADS AIR SYSTEM 123,Outlet,1
 Non-Parent Node Connection,NODE 368,ZONEHVAC:IDEALLOADSAIRSYSTEM,ZONE HVAC IDEAL LOADS AIR SYSTEM 123,Inlet,1
 Non-Parent Node Connection,ZONE HVAC IDEAL LOADS AIR SYSTEM 123 OUTDOOR AIR INLET NODE,ZONEHVAC:IDEALLOADSAIRSYSTEM,ZONE HVAC IDEAL LOADS AIR SYSTEM 123,Outlet,1
 Non-Parent Node Connection,ZONE HVAC IDEAL LOADS AIR SYSTEM 123 OUTDOOR AIR INLET NODE,OUTDOORAIR:NODE,OutdoorAir:Node,OutdoorAir,124
 Non-Parent Node Connection,NODE 372,ZONEHVAC:IDEALLOADSAIRSYSTEM,ZONE HVAC IDEAL LOADS AIR SYSTEM 124,Outlet,1
 Non-Parent Node Connection,NODE 371,ZONEHVAC:IDEALLOADSAIRSYSTEM,ZONE HVAC IDEAL LOADS AIR SYSTEM 124,Inlet,1
 Non-Parent Node Connection,ZONE HVAC IDEAL LOADS AIR SYSTEM 124 OUTDOOR AIR INLET NODE,ZONEHVAC:IDEALLOADSAIRSYSTEM,ZONE HVAC IDEAL LOADS AIR SYSTEM 124,Outlet,1
 Non-Parent Node Connection,ZONE HVAC IDEAL LOADS AIR SYSTEM 124 OUTDOOR AIR INLET NODE,OUTDOORAIR:NODE,OutdoorAir:Node,OutdoorAir,125
 Non-Parent Node Connection,NODE 375,ZONEHVAC:IDEALLOADSAIRSYSTEM,ZONE HVAC IDEAL LOADS AIR SYSTEM 125,Outlet,1
 Non-Parent Node Connection,NODE 374,ZONEHVAC:IDEALLOADSAIRSYSTEM,ZONE HVAC IDEAL LOADS AIR SYSTEM 125,Inlet,1
 Non-Parent Node Connection,ZONE HVAC IDEAL LOADS AIR SYSTEM 125 OUTDOOR AIR INLET NODE,ZONEHVAC:IDEALLOADSAIRSYSTEM,ZONE HVAC IDEAL LOADS AIR SYSTEM 125,Outlet,1
 Non-Parent Node Connection,ZONE HVAC IDEAL LOADS AIR SYSTEM 125 OUTDOOR AIR INLET NODE,OUTDOORAIR:NODE,OutdoorAir:Node,OutdoorAir,126
 Non-Parent Node Connection,NODE 378,ZONEHVAC:IDEALLOADSAIRSYSTEM,ZONE HVAC IDEAL LOADS AIR SYSTEM 126,Outlet,1
 Non-Parent Node Connection,NODE 377,ZONEHVAC:IDEALLOADSAIRSYSTEM,ZONE HVAC IDEAL LOADS AIR SYSTEM 126,Inlet,1
 Non-Parent Node Connection,ZONE HVAC IDEAL LOADS AIR SYSTEM 126 OUTDOOR AIR INLET NODE,ZONEHVAC:IDEALLOADSAIRSYSTEM,ZONE HVAC IDEAL LOADS AIR SYSTEM 126,Outlet,1
 Non-Parent Node Connection,ZONE HVAC IDEAL LOADS AIR SYSTEM 126 OUTDOOR AIR INLET NODE,OUTDOORAIR:NODE,OutdoorAir:Node,OutdoorAir,127
 Non-Parent Node Connection,NODE 381,ZONEHVAC:IDEALLOADSAIRSYSTEM,ZONE HVAC IDEAL LOADS AIR SYSTEM 127,Outlet,1
 Non-Parent Node Connection,NODE 380,ZONEHVAC:IDEALLOADSAIRSYSTEM,ZONE HVAC IDEAL LOADS AIR SYSTEM 127,Inlet,1
 Non-Parent Node Connection,ZONE HVAC IDEAL LOADS AIR SYSTEM 127 OUTDOOR AIR INLET NODE,ZONEHVAC:IDEALLOADSAIRSYSTEM,ZONE HVAC IDEAL LOADS AIR SYSTEM 127,Outlet,1
 Non-Parent Node Connection,ZONE HVAC IDEAL LOADS AIR SYSTEM 127 OUTDOOR AIR INLET NODE,OUTDOORAIR:NODE,OutdoorAir:Node,OutdoorAir,128
 Non-Parent Node Connection,NODE 384,ZONEHVAC:IDEALLOADSAIRSYSTEM,ZONE HVAC IDEAL LOADS AIR SYSTEM 128,Outlet,1
 Non-Parent Node Connection,NODE 383,ZONEHVAC:IDEALLOADSAIRSYSTEM,ZONE HVAC IDEAL LOADS AIR SYSTEM 128,Inlet,1
 Non-Parent Node Connection,ZONE HVAC IDEAL LOADS AIR SYSTEM 128 OUTDOOR AIR INLET NODE,ZONEHVAC:IDEALLOADSAIRSYSTEM,ZONE HVAC IDEAL LOADS AIR SYSTEM 128,Outlet,1
 Non-Parent Node Connection,ZONE HVAC IDEAL LOADS AIR SYSTEM 128 OUTDOOR AIR INLET NODE,OUTDOORAIR:NODE,OutdoorAir:Node,OutdoorAir,129
 Non-Parent Node Connection,NODE 387,ZONEHVAC:IDEALLOADSAIRSYSTEM,ZONE HVAC IDEAL LOADS AIR SYSTEM 129,Outlet,1
 Non-Parent Node Connection,NODE 386,ZONEHVAC:IDEALLOADSAIRSYSTEM,ZONE HVAC IDEAL LOADS AIR SYSTEM 129,Inlet,1
 Non-Parent Node Connection,ZONE HVAC IDEAL LOADS AIR SYSTEM 129 OUTDOOR AIR INLET NODE,ZONEHVAC:IDEALLOADSAIRSYSTEM,ZONE HVAC IDEAL LOADS AIR SYSTEM 129,Outlet,1
 Non-Parent Node Connection,ZONE HVAC IDEAL LOADS AIR SYSTEM 129 OUTDOOR AIR INLET NODE,OUTDOORAIR:NODE,OutdoorAir:Node,OutdoorAir,130
 Non-Parent Node Connection,NODE 390,ZONEHVAC:IDEALLOADSAIRSYSTEM,ZONE HVAC IDEAL LOADS AIR SYSTEM 130,Outlet,1
 Non-Parent Node Connection,NODE 389,ZONEHVAC:IDEALLOADSAIRSYSTEM,ZONE HVAC IDEAL LOADS AIR SYSTEM 130,Inlet,1
 Non-Parent Node Connection,ZONE HVAC IDEAL LOADS AIR SYSTEM 130 OUTDOOR AIR INLET NODE,ZONEHVAC:IDEALLOADSAIRSYSTEM,ZONE HVAC IDEAL LOADS AIR SYSTEM 130,Outlet,1
 Non-Parent Node Connection,ZONE HVAC IDEAL LOADS AIR SYSTEM 130 OUTDOOR AIR INLET NODE,OUTDOORAIR:NODE,OutdoorAir:Node,OutdoorAir,131
 Non-Parent Node Connection,NODE 393,ZONEHVAC:IDEALLOADSAIRSYSTEM,ZONE HVAC IDEAL LOADS AIR SYSTEM 131,Outlet,1
 Non-Parent Node Connection,NODE 392,ZONEHVAC:IDEALLOADSAIRSYSTEM,ZONE HVAC IDEAL LOADS AIR SYSTEM 131,Inlet,1
 Non-Parent Node Connection,ZONE HVAC IDEAL LOADS AIR SYSTEM 131 OUTDOOR AIR INLET NODE,ZONEHVAC:IDEALLOADSAIRSYSTEM,ZONE HVAC IDEAL LOADS AIR SYSTEM 131,Outlet,1
 Non-Parent Node Connection,ZONE HVAC IDEAL LOADS AIR SYSTEM 131 OUTDOOR AIR INLET NODE,OUTDOORAIR:NODE,OutdoorAir:Node,OutdoorAir,132
 Non-Parent Node Connection,NODE 396,ZONEHVAC:IDEALLOADSAIRSYSTEM,ZONE HVAC IDEAL LOADS AIR SYSTEM 132,Outlet,1
 Non-Parent Node Connection,NODE 395,ZONEHVAC:IDEALLOADSAIRSYSTEM,ZONE HVAC IDEAL LOADS AIR SYSTEM 132,Inlet,1
 Non-Parent Node Connection,ZONE HVAC IDEAL LOADS AIR SYSTEM 132 OUTDOOR AIR INLET NODE,ZONEHVAC:IDEALLOADSAIRSYSTEM,ZONE HVAC IDEAL LOADS AIR SYSTEM 132,Outlet,1
 Non-Parent Node Connection,ZONE HVAC IDEAL LOADS AIR SYSTEM 132 OUTDOOR AIR INLET NODE,OUTDOORAIR:NODE,OutdoorAir:Node,OutdoorAir,133
 Non-Parent Node Connection,NODE 399,ZONEHVAC:IDEALLOADSAIRSYSTEM,ZONE HVAC IDEAL LOADS AIR SYSTEM 133,Outlet,1
 Non-Parent Node Connection,NODE 398,ZONEHVAC:IDEALLOADSAIRSYSTEM,ZONE HVAC IDEAL LOADS AIR SYSTEM 133,Inlet,1
 Non-Parent Node Connection,ZONE HVAC IDEAL LOADS AIR SYSTEM 133 OUTDOOR AIR INLET NODE,ZONEHVAC:IDEALLOADSAIRSYSTEM,ZONE HVAC IDEAL LOADS AIR SYSTEM 133,Outlet,1
 Non-Parent Node Connection,ZONE HVAC IDEAL LOADS AIR SYSTEM 133 OUTDOOR AIR INLET NODE,OUTDOORAIR:NODE,OutdoorAir:Node,OutdoorAir,134
 Non-Parent Node Connection,NODE 402,ZONEHVAC:IDEALLOADSAIRSYSTEM,ZONE HVAC IDEAL LOADS AIR SYSTEM 134,Outlet,1
 Non-Parent Node Connection,NODE 401,ZONEHVAC:IDEALLOADSAIRSYSTEM,ZONE HVAC IDEAL LOADS AIR SYSTEM 134,Inlet,1
 Non-Parent Node Connection,ZONE HVAC IDEAL LOADS AIR SYSTEM 134 OUTDOOR AIR INLET NODE,ZONEHVAC:IDEALLOADSAIRSYSTEM,ZONE HVAC IDEAL LOADS AIR SYSTEM 134,Outlet,1
 Non-Parent Node Connection,ZONE HVAC IDEAL LOADS AIR SYSTEM 134 OUTDOOR AIR INLET NODE,OUTDOORAIR:NODE,OutdoorAir:Node,OutdoorAir,135
 Non-Parent Node Connection,NODE 405,ZONEHVAC:IDEALLOADSAIRSYSTEM,ZONE HVAC IDEAL LOADS AIR SYSTEM 135,Outlet,1
 Non-Parent Node Connection,NODE 404,ZONEHVAC:IDEALLOADSAIRSYSTEM,ZONE HVAC IDEAL LOADS AIR SYSTEM 135,Inlet,1
 Non-Parent Node Connection,ZONE HVAC IDEAL LOADS AIR SYSTEM 135 OUTDOOR AIR INLET NODE,ZONEHVAC:IDEALLOADSAIRSYSTEM,ZONE HVAC IDEAL LOADS AIR SYSTEM 135,Outlet,1
 Non-Parent Node Connection,ZONE HVAC IDEAL LOADS AIR SYSTEM 135 OUTDOOR AIR INLET NODE,OUTDOORAIR:NODE,OutdoorAir:Node,OutdoorAir,136
 Non-Parent Node Connection,NODE 408,ZONEHVAC:IDEALLOADSAIRSYSTEM,ZONE HVAC IDEAL LOADS AIR SYSTEM 136,Outlet,1
 Non-Parent Node Connection,NODE 407,ZONEHVAC:IDEALLOADSAIRSYSTEM,ZONE HVAC IDEAL LOADS AIR SYSTEM 136,Inlet,1
 Non-Parent Node Connection,ZONE HVAC IDEAL LOADS AIR SYSTEM 136 OUTDOOR AIR INLET NODE,ZONEHVAC:IDEALLOADSAIRSYSTEM,ZONE HVAC IDEAL LOADS AIR SYSTEM 136,Outlet,1
 Non-Parent Node Connection,ZONE HVAC IDEAL LOADS AIR SYSTEM 136 OUTDOOR AIR INLET NODE,OUTDOORAIR:NODE,OutdoorAir:Node,OutdoorAir,137
 Non-Parent Node Connection,NODE 411,ZONEHVAC:IDEALLOADSAIRSYSTEM,ZONE HVAC IDEAL LOADS AIR SYSTEM 137,Outlet,1
 Non-Parent Node Connection,NODE 410,ZONEHVAC:IDEALLOADSAIRSYSTEM,ZONE HVAC IDEAL LOADS AIR SYSTEM 137,Inlet,1
 Non-Parent Node Connection,ZONE HVAC IDEAL LOADS AIR SYSTEM 137 OUTDOOR AIR INLET NODE,ZONEHVAC:IDEALLOADSAIRSYSTEM,ZONE HVAC IDEAL LOADS AIR SYSTEM 137,Outlet,1
 Non-Parent Node Connection,ZONE HVAC IDEAL LOADS AIR SYSTEM 137 OUTDOOR AIR INLET NODE,OUTDOORAIR:NODE,OutdoorAir:Node,OutdoorAir,138
 Non-Parent Node Connection,NODE 414,ZONEHVAC:IDEALLOADSAIRSYSTEM,ZONE HVAC IDEAL LOADS AIR SYSTEM 138,Outlet,1
 Non-Parent Node Connection,NODE 413,ZONEHVAC:IDEALLOADSAIRSYSTEM,ZONE HVAC IDEAL LOADS AIR SYSTEM 138,Inlet,1
 Non-Parent Node Connection,ZONE HVAC IDEAL LOADS AIR SYSTEM 138 OUTDOOR AIR INLET NODE,ZONEHVAC:IDEALLOADSAIRSYSTEM,ZONE HVAC IDEAL LOADS AIR SYSTEM 138,Outlet,1
 Non-Parent Node Connection,ZONE HVAC IDEAL LOADS AIR SYSTEM 138 OUTDOOR AIR INLET NODE,OUTDOORAIR:NODE,OutdoorAir:Node,OutdoorAir,139
 Non-Parent Node Connection,NODE 417,ZONEHVAC:IDEALLOADSAIRSYSTEM,ZONE HVAC IDEAL LOADS AIR SYSTEM 139,Outlet,1
 Non-Parent Node Connection,NODE 416,ZONEHVAC:IDEALLOADSAIRSYSTEM,ZONE HVAC IDEAL LOADS AIR SYSTEM 139,Inlet,1
 Non-Parent Node Connection,ZONE HVAC IDEAL LOADS AIR SYSTEM 139 OUTDOOR AIR INLET NODE,ZONEHVAC:IDEALLOADSAIRSYSTEM,ZONE HVAC IDEAL LOADS AIR SYSTEM 139,Outlet,1
 Non-Parent Node Connection,ZONE HVAC IDEAL LOADS AIR SYSTEM 139 OUTDOOR AIR INLET NODE,OUTDOORAIR:NODE,OutdoorAir:Node,OutdoorAir,140
 Non-Parent Node Connection,NODE 420,ZONEHVAC:IDEALLOADSAIRSYSTEM,ZONE HVAC IDEAL LOADS AIR SYSTEM 140,Outlet,1
 Non-Parent Node Connection,NODE 419,ZONEHVAC:IDEALLOADSAIRSYSTEM,ZONE HVAC IDEAL LOADS AIR SYSTEM 140,Inlet,1
 Non-Parent Node Connection,ZONE HVAC IDEAL LOADS AIR SYSTEM 140 OUTDOOR AIR INLET NODE,ZONEHVAC:IDEALLOADSAIRSYSTEM,ZONE HVAC IDEAL LOADS AIR SYSTEM 140,Outlet,1
 Non-Parent Node Connection,ZONE HVAC IDEAL LOADS AIR SYSTEM 140 OUTDOOR AIR INLET NODE,OUTDOORAIR:NODE,OutdoorAir:Node,OutdoorAir,141
