Program Version,EnergyPlus, Version 8.9.0-eba93e8e1b, YMD=2019.03.11 19:37
! <Version>, Version ID
 Version, 8.9
! <Timesteps per Hour>, #TimeSteps, Minutes per TimeStep {minutes}
 Timesteps per Hour,  6, 10
! <System Convergence Limits>, Minimum System TimeStep {minutes}, Max HVAC Iterations, Minimum Plant Iterations, Maximum Plant Iterations
 System Convergence Limits, 1, 20, 2, 8
! <Simulation Control>, Do Zone Sizing, Do System Sizing, Do Plant Sizing, Do Design Days, Do Weather Simulation, Do HVAC Sizing Simulation
 Simulation Control, Yes, No, No, Yes, No, No
! <Output Reporting Tolerances>, Tolerance for Time Heating Setpoint Not Met, Tolerance for Zone Cooling Setpoint Not Met Time
 Output Reporting Tolerances, 0.200, 0.200, 
! <Site:GroundTemperature:BuildingSurface>,Jan{C},Feb{C},Mar{C},Apr{C},May{C},Jun{C},Jul{C},Aug{C},Sep{C},Oct{C},Nov{C},Dec{C}
 Site:GroundTemperature:BuildingSurface,  19.53,  19.50,  19.54,  19.60,  20.00,  21.64,  22.23,  22.38,  21.45,  20.12,  19.80,  19.63
! <Site:GroundTemperature:FCfactorMethod>,Jan{C},Feb{C},Mar{C},Apr{C},May{C},Jun{C},Jul{C},Aug{C},Sep{C},Oct{C},Nov{C},Dec{C}
 Site:GroundTemperature:FCfactorMethod, -12.27, -13.66, -11.19,  -7.33,   2.77,  10.57,  15.83,  17.43,  14.70,   8.65,   0.56,  -6.95
! <Site:GroundTemperature:Shallow>,Jan{C},Feb{C},Mar{C},Apr{C},May{C},Jun{C},Jul{C},Aug{C},Sep{C},Oct{C},Nov{C},Dec{C}
 Site:GroundTemperature:Shallow,  13.00,  13.00,  13.00,  13.00,  13.00,  13.00,  13.00,  13.00,  13.00,  13.00,  13.00,  13.00
! <Site:GroundTemperature:Deep>,Jan{C},Feb{C},Mar{C},Apr{C},May{C},Jun{C},Jul{C},Aug{C},Sep{C},Oct{C},Nov{C},Dec{C}
 Site:GroundTemperature:Deep,  16.00,  16.00,  16.00,  16.00,  16.00,  16.00,  16.00,  16.00,  16.00,  16.00,  16.00,  16.00
! <Site:GroundReflectance>,Jan{dimensionless},Feb{dimensionless},Mar{dimensionless},Apr{dimensionless},May{dimensionless},Jun{dimensionless},Jul{dimensionless},Aug{dimensionless},Sep{dimensionless},Oct{dimensionless},Nov{dimensionless},Dec{dimensionless}
 Site:GroundReflectance,  0.20,  0.20,  0.20,  0.20,  0.20,  0.20,  0.20,  0.20,  0.20,  0.20,  0.20,  0.20
! <Site:GroundReflectance:SnowModifier>, Normal, Daylighting {dimensionless}
 Site:GroundReflectance:SnowModifier,   1.000,   1.000
! <Site:GroundReflectance:Snow>,Jan{dimensionless},Feb{dimensionless},Mar{dimensionless},Apr{dimensionless},May{dimensionless},Jun{dimensionless},Jul{dimensionless},Aug{dimensionless},Sep{dimensionless},Oct{dimensionless},Nov{dimensionless},Dec{dimensionless}
 Site:GroundReflectance:Snow,  0.20,  0.20,  0.20,  0.20,  0.20,  0.20,  0.20,  0.20,  0.20,  0.20,  0.20,  0.20
! <Site:GroundReflectance:Snow:Daylighting>,Jan{dimensionless},Feb{dimensionless},Mar{dimensionless},Apr{dimensionless},May{dimensionless},Jun{dimensionless},Jul{dimensionless},Aug{dimensionless},Sep{dimensionless},Oct{dimensionless},Nov{dimensionless},Dec{dimensionless}
 Site:GroundReflectance:Snow:Daylighting,  0.20,  0.20,  0.20,  0.20,  0.20,  0.20,  0.20,  0.20,  0.20,  0.20,  0.20,  0.20
! <Environment:Weather Station>,Wind Sensor Height Above Ground {m},Wind Speed Profile Exponent {},Wind Speed Profile Boundary Layer Thickness {m},Air Temperature Sensor Height Above Ground {m},Wind Speed Modifier Coefficient-Internal,Temperature Modifier Coefficient-Internal
Environment:Weather Station,10.000,0.140,270.000,1.500,1.586,9.750E-003
! <Site:Location>, Location Name, Latitude {N+/S- Deg}, Longitude {E+/W- Deg},  Time Zone Number {GMT+/-}, Elevation {m},  Standard Pressure at Elevation {Pa}, Standard RhoAir at Elevation
Site:Location,Fort McMurray AP AB CAN CWEC2016 WMO#=716890,56.65,-111.22,-7.00,369.10,96969,1.1525
! <Building Information>, Building Name,North Axis {deg},Terrain,  Loads Convergence Tolerance Value,Temperature Convergence Tolerance Value,  Solar Distribution,Maximum Number of Warmup Days,Minimum Number of Warmup Days
 Building Information,Building 1,0.000,Suburbs,4.00000E-002,0.40000,FullExterior,25,6
! <Inside Convection Algorithm>, Algorithm {Simple | TARP | CeilingDiffuser | AdaptiveConvectionAlgorithm}
Inside Convection Algorithm,TARP
! <Outside Convection Algorithm>, Algorithm {SimpleCombined | TARP | MoWitt | DOE-2 | AdaptiveConvectionAlgorithm}
Outside Convection Algorithm,TARP
! <Sky Radiance Distribution>, Value {Anisotropic}
Sky Radiance Distribution,Anisotropic
! <Zone Air Solution Algorithm>, Value {ThirdOrderBackwardDifference | AnalyticalSolution | EulerMethod}
 Zone Air Solution Algorithm, ThirdOrderBackwardDifference
! <Zone Air Carbon Dioxide Balance Simulation>, Simulation {Yes/No}, Carbon Dioxide Concentration
 Zone Air Carbon Dioxide Balance Simulation, No,N/A
! <Zone Air Generic Contaminant Balance Simulation>, Simulation {Yes/No}, Generic Contaminant Concentration
 Zone Air Generic Contaminant Balance Simulation, No,N/A
! <Zone Air Mass Flow Balance Simulation>, Enforce Mass Balance, Adjust Zone Mixing, Adjust Zone Infiltration {AddInfiltration | AdjustInfiltration | None}, Infiltration Zones {MixingSourceZonesOnly | AllZones}
 Zone Air Mass Flow Balance Simulation, No,N/A,N/A,N/A
! <HVACSystemRootFindingAlgorithm>, Value {RegulaFalsi | Bisection | BisectionThenRegulaFalsi | RegulaFalsiThenBisection}
 HVACSystemRootFindingAlgorithm, RegulaFalsi
! <Environment:Site Atmospheric Variation>,Wind Speed Profile Exponent {},Wind Speed Profile Boundary Layer Thickness {m},Air Temperature Gradient Coefficient {K/m}
Environment:Site Atmospheric Variation,0.220,370.000,6.500000E-003
! <Surface Geometry>,Starting Corner,Vertex Input Direction,Coordinate System,Daylight Reference Point Coordinate System,Rectangular (Simple) Surface Coordinate System
 Surface Geometry,UpperLeftCorner,Counterclockwise,RelativeCoordinateSystem,RelativeCoordinateSystem,RelativeToZoneOrigin
! <Surface Heat Transfer Algorithm>, Value {CTF - ConductionTransferFunction | EMPD - MoisturePenetrationDepthConductionTransferFunction | CondFD - ConductionFiniteDifference | HAMT - CombinedHeatAndMoistureFiniteElement} - Description,Inside Surface Max Temperature Limit{C}, Surface Convection Coefficient Lower Limit {W/m2-K}, Surface Convection Coefficient Upper Limit {W/m2-K}
Surface Heat Transfer Algorithm, CTF - ConductionTransferFunction,200,0.10,1000.0
! <Shading Summary>, Number of Fixed Detached Shades, Number of Building Detached Shades, Number of Attached Shades
 Shading Summary,0,0,0
! <Zone Summary>, Number of Zones, Number of Zone Surfaces, Number of SubSurfaces
 Zone Summary,40,273,33
! <Zone Information>,Zone Name,North Axis {deg},Origin X-Coordinate {m},Origin Y-Coordinate {m},Origin Z-Coordinate {m},Centroid X-Coordinate {m},Centroid Y-Coordinate {m},Centroid Z-Coordinate {m},Type,Zone Multiplier,Zone List Multiplier,Minimum X {m},Maximum X {m},Minimum Y {m},Maximum Y {m},Minimum Z {m},Maximum Z {m},Ceiling Height {m},Volume {m3},Zone Inside Convection Algorithm {Simple-Detailed-CeilingDiffuser-TrombeWall},Zone Outside Convection Algorithm {Simple-Detailed-Tarp-MoWitt-DOE-2-BLAST}, Floor Area {m2},Exterior Gross Wall Area {m2},Exterior Net Wall Area {m2},Exterior Window Area {m2}, Number of Surfaces, Number of SubSurfaces, Number of Shading SubSurfaces,  Part of Total Building Area
 Zone Information, PENITENTIARY - DINING-SPACE FUNCTION ZN,0.0,75.00,25.00,26.60,89.15,50.00,28.50,1,1,1,75.00,100.00,0.00,100.00,26.60,30.40,3.80,7125.00,TARP,TARP,1875.00,380.00,285.00,188.75,6,2,0,Yes
 Zone Information, POST OFFICE SORTING-SPACE FUNCTION ZN,0.0,25.00,75.00,26.60,50.00,89.15,28.50,1,1,1,0.00,100.00,75.00,100.00,26.60,30.40,3.80,7125.00,TARP,TARP,1875.00,380.00,285.00,188.75,6,2,0,Yes
 Zone Information, RELIGIOUS - AUDIENCE-SPACE FUNCTION ZN,0.0,25.00,25.00,26.60,50.00,50.00,28.50,1,1,1,25.00,75.00,25.00,75.00,26.60,30.40,3.80,9500.00,TARP,TARP,2500.00,0.00,0.00,125.00,6,1,0,Yes
 Zone Information, RELIGIOUS - FELLOWSHIP HALL-SPACE FUNCTION ZN,0.0,25.00,25.00,22.80,50.00,50.00,24.70,1,1,1,25.00,75.00,25.00,75.00,22.80,26.60,3.80,9500.00,TARP,TARP,2500.00,0.00,0.00,0.00,6,0,0,Yes
 Zone Information, RELIGIOUS - PULPIT/CHOIR-SPACE FUNCTION ZN,0.0,0.00,0.00,22.80,50.00,10.85,24.70,1,1,1,0.00,100.00,0.00,25.00,22.80,26.60,3.80,7125.00,TARP,TARP,1875.00,380.00,285.00,95.00,6,1,0,Yes
 Zone Information, RETAIL - DRESSING/FITTING-SPACE FUNCTION ZN,0.0,75.00,25.00,22.80,89.15,50.00,24.70,1,1,1,75.00,100.00,0.00,100.00,22.80,26.60,3.80,7125.00,TARP,TARP,1875.00,380.00,285.00,95.00,6,1,0,Yes
 Zone Information, RETAIL - MALL CONCOURSE-SPACE FUNCTION ZN,0.0,0.00,0.00,19.00,50.00,10.85,20.90,1,1,1,0.00,100.00,0.00,25.00,19.00,22.80,3.80,7125.00,TARP,TARP,1875.00,380.00,285.00,95.00,6,1,0,Yes
 Zone Information, RETAIL - SALES-SPACE FUNCTION ZN,0.0,0.00,0.00,22.80,10.85,50.00,24.70,1,1,1,0.00,25.00,0.00,100.00,22.80,26.60,3.80,7125.00,TARP,TARP,1875.00,380.00,285.00,95.00,6,1,0,Yes
 Zone Information, SALES AREA-SPACE FUNCTION ZN,0.0,75.00,25.00,19.00,89.15,50.00,20.90,1,1,1,75.00,100.00,0.00,100.00,19.00,22.80,3.80,7125.00,TARP,TARP,1875.00,380.00,285.00,95.00,6,1,0,Yes
 Zone Information, SPORTS ARENA - AUDIENCE-SPACE FUNCTION ZN,0.0,0.00,0.00,26.60,50.00,10.85,28.50,1,1,1,0.00,100.00,0.00,25.00,26.60,30.40,3.80,7125.00,TARP,TARP,1875.00,380.00,285.00,188.75,6,2,0,Yes
 Zone Information, SPORTS ARENA - COURT C1-SPACE FUNCTION ZN,0.0,0.00,0.00,19.00,10.85,50.00,20.90,1,1,1,0.00,25.00,0.00,100.00,19.00,22.80,3.80,7125.00,TARP,TARP,1875.00,380.00,285.00,95.00,6,1,0,Yes
 Zone Information, SPORTS ARENA - COURT C2-SPACE FUNCTION ZN,0.0,0.00,0.00,15.20,50.00,10.85,17.10,1,1,1,0.00,100.00,0.00,25.00,15.20,19.00,3.80,7125.00,TARP,TARP,1875.00,380.00,285.00,95.00,6,1,0,Yes
 Zone Information, SPORTS ARENA - COURT C3-SPACE FUNCTION ZN,0.0,75.00,25.00,15.20,89.15,50.00,17.10,1,1,1,75.00,100.00,0.00,100.00,15.20,19.00,3.80,7125.00,TARP,TARP,1875.00,380.00,285.00,95.00,6,1,0,Yes
 Zone Information, SPORTS ARENA - COURT C4-SPACE FUNCTION ZN,0.0,25.00,75.00,3.80,50.00,89.15,5.70,1,1,1,0.00,100.00,75.00,100.00,3.80,7.60,3.80,7125.00,TARP,TARP,1875.00,380.00,285.00,95.00,6,1,0,Yes
 Zone Information, SPORTS ARENA - RING-SPACE FUNCTION ZN,0.0,25.00,75.00,19.00,50.00,89.15,20.90,1,1,1,0.00,100.00,75.00,100.00,19.00,22.80,3.80,7125.00,TARP,TARP,1875.00,380.00,285.00,95.00,6,1,0,Yes
 Zone Information, STAIRWAY-SCH-A-SPACE FUNCTION ZN,0.0,25.00,25.00,11.40,50.00,50.00,13.30,1,1,1,25.00,75.00,25.00,75.00,11.40,15.20,3.80,9500.00,TARP,TARP,2500.00,0.00,0.00,0.00,6,0,0,Yes
 Zone Information, STAIRWAY-SCH-B-SPACE FUNCTION ZN,0.0,0.00,0.00,3.80,10.85,50.00,5.70,1,1,1,0.00,25.00,0.00,100.00,3.80,7.60,3.80,7125.00,TARP,TARP,1875.00,380.00,285.00,95.00,6,1,0,Yes
 Zone Information, STAIRWAY-SCH-C-SPACE FUNCTION ZN,0.0,0.00,0.00,0.00,50.00,10.85,1.90,1,1,1,0.00,100.00,0.00,25.00,0.00,3.80,3.80,7125.00,TARP,TARP,1875.00,0.00,0.00,0.00,6,0,0,Yes
 Zone Information, STAIRWAY-SCH-D-SPACE FUNCTION ZN,0.0,0.00,0.00,26.60,10.85,50.00,28.50,1,1,1,0.00,25.00,0.00,100.00,26.60,30.40,3.80,7125.00,TARP,TARP,1875.00,380.00,285.00,188.75,6,2,0,Yes
 Zone Information, STAIRWAY-SCH-E-SPACE FUNCTION ZN,0.0,25.00,25.00,3.80,50.00,50.00,5.70,1,1,1,25.00,75.00,25.00,75.00,3.80,7.60,3.80,9500.00,TARP,TARP,2500.00,0.00,0.00,0.00,6,0,0,Yes
 Zone Information, STAIRWAY-SCH-F-SPACE FUNCTION ZN,0.0,0.00,0.00,7.60,50.00,10.85,9.50,1,1,1,0.00,100.00,0.00,25.00,7.60,11.40,3.80,7125.00,TARP,TARP,1875.00,380.00,285.00,95.00,6,1,0,Yes
 Zone Information, STAIRWAY-SCH-G-SPACE FUNCTION ZN,0.0,25.00,25.00,0.00,50.00,50.00,1.90,1,1,1,25.00,75.00,25.00,75.00,0.00,3.80,3.80,9500.00,TARP,TARP,2500.00,0.00,0.00,0.00,6,0,0,Yes
 Zone Information, STAIRWAY-SCH-H-SPACE FUNCTION ZN,0.0,75.00,25.00,11.40,89.15,50.00,13.30,1,1,1,75.00,100.00,0.00,100.00,11.40,15.20,3.80,7125.00,TARP,TARP,1875.00,380.00,285.00,95.00,6,1,0,Yes
 Zone Information, STAIRWAY-SCH-I-SPACE FUNCTION ZN,0.0,0.00,0.00,7.60,10.85,50.00,9.50,1,1,1,0.00,25.00,0.00,100.00,7.60,11.40,3.80,7125.00,TARP,TARP,1875.00,380.00,285.00,95.00,6,1,0,Yes
 Zone Information, STORAGE AREA - OCCSENS-SPACE FUNCTION ZN,0.0,25.00,75.00,7.60,50.00,89.15,9.50,1,1,1,0.00,100.00,75.00,100.00,7.60,11.40,3.80,7125.00,TARP,TARP,1875.00,380.00,285.00,95.00,6,1,0,Yes
 Zone Information, STORAGE AREA - REFRIGERATED - OCCSENS-SPACE FUNCTION ZN,0.0,0.00,0.00,0.00,10.85,50.00,1.90,1,1,1,0.00,25.00,0.00,100.00,0.00,3.80,3.80,7125.00,TARP,TARP,1875.00,0.00,0.00,0.00,6,0,0,Yes
 Zone Information, STORAGE AREA - REFRIGERATED-SPACE FUNCTION ZN,0.0,75.00,25.00,7.60,89.15,50.00,9.50,1,1,1,75.00,100.00,0.00,100.00,7.60,11.40,3.80,7125.00,TARP,TARP,1875.00,380.00,285.00,95.00,6,1,0,Yes
 Zone Information, STORAGE AREA-SPACE FUNCTION ZN,0.0,0.00,0.00,3.80,50.00,10.85,5.70,1,1,1,0.00,100.00,0.00,25.00,3.80,7.60,3.80,7125.00,TARP,TARP,1875.00,380.00,285.00,95.00,6,1,0,Yes
 Zone Information, TRANSP. BAGGAGE-SPACE FUNCTION ZN,0.0,0.00,0.00,11.40,50.00,10.85,13.30,1,1,1,0.00,100.00,0.00,25.00,11.40,15.20,3.80,7125.00,TARP,TARP,1875.00,380.00,285.00,95.00,6,1,0,Yes
 Zone Information, TRANSP. CONCOURSE-SPACE FUNCTION ZN,0.0,25.00,25.00,19.00,50.00,50.00,20.90,1,1,1,25.00,75.00,25.00,75.00,19.00,22.80,3.80,9500.00,TARP,TARP,2500.00,0.00,0.00,0.00,6,0,0,Yes
 Zone Information, TRANSP. COUNTER-SPACE FUNCTION ZN,0.0,25.00,25.00,15.20,50.00,50.00,17.10,1,1,1,25.00,75.00,25.00,75.00,15.20,19.00,3.80,9500.00,TARP,TARP,2500.00,0.00,0.00,0.00,6,0,0,Yes
 Zone Information, TRANSP. SEATING-SPACE FUNCTION ZN,0.0,25.00,25.00,7.60,50.00,50.00,9.50,1,1,1,25.00,75.00,25.00,75.00,7.60,11.40,3.80,9500.00,TARP,TARP,2500.00,0.00,0.00,0.00,6,0,0,Yes
 Zone Information, WAREHOUSE - FINE - REFRIGERATED-SPACE FUNCTION ZN,0.0,25.00,75.00,11.40,50.00,89.15,13.30,1,1,1,0.00,100.00,75.00,100.00,11.40,15.20,3.80,7125.00,TARP,TARP,1875.00,380.00,285.00,95.00,6,1,0,Yes
 Zone Information, WAREHOUSE - FINE-SPACE FUNCTION ZN,0.0,25.00,75.00,22.80,50.00,89.15,24.70,1,1,1,0.00,100.00,75.00,100.00,22.80,26.60,3.80,7125.00,TARP,TARP,1875.00,380.00,285.00,95.00,6,1,0,Yes
 Zone Information, WAREHOUSE - MED/BLK - REFRIGERATED-SPACE FUNCTION ZN,0.0,75.00,25.00,0.00,89.15,50.00,1.90,1,1,1,75.00,100.00,0.00,100.00,0.00,3.80,3.80,7125.00,TARP,TARP,1875.00,0.00,0.00,0.00,6,0,0,Yes
 Zone Information, WAREHOUSE - MED/BLK-SPACE FUNCTION ZN,0.0,75.00,25.00,3.80,89.15,50.00,5.70,1,1,1,75.00,100.00,0.00,100.00,3.80,7.60,3.80,7125.00,TARP,TARP,1875.00,380.00,285.00,95.00,6,1,0,Yes
 Zone Information, WAREHOUSE - MED/BLK2 - REFRIGERATED-SPACE FUNCTION ZN,0.0,0.00,0.00,15.20,10.85,50.00,17.10,1,1,1,0.00,25.00,0.00,100.00,15.20,19.00,3.80,7125.00,TARP,TARP,1875.00,380.00,285.00,95.00,6,1,0,Yes
 Zone Information, WAREHOUSE - MED/BLK2-SPACE FUNCTION ZN,0.0,0.00,0.00,11.40,10.85,50.00,13.30,1,1,1,0.00,25.00,0.00,100.00,11.40,15.20,3.80,7125.00,TARP,TARP,1875.00,380.00,285.00,95.00,6,1,0,Yes
 Zone Information, WASHROOM-SCH-A-SPACE FUNCTION ZN,0.0,25.00,75.00,0.00,50.00,89.15,1.90,1,1,1,0.00,100.00,75.00,100.00,0.00,3.80,3.80,7125.00,TARP,TARP,1875.00,0.00,0.00,0.00,6,0,0,Yes
 Zone Information, WASHROOM-SCH-B-SPACE FUNCTION ZN,0.0,25.00,75.00,15.20,50.00,89.15,17.10,1,1,1,0.00,100.00,75.00,100.00,15.20,19.00,3.80,7125.00,TARP,TARP,1875.00,380.00,285.00,95.00,6,1,0,Yes
! <Zone Internal Gains Nominal>,Zone Name, Floor Area {m2},# Occupants,Area per Occupant {m2/person},Occupant per Area {person/m2},Interior Lighting {W/m2},Electric Load {W/m2},Gas Load {W/m2},Other Load {W/m2},Hot Water Eq {W/m2},Steam Equipment {W/m2},Sum Loads per Area {W/m2},Outdoor Controlled Baseboard Heat
 Zone Internal Gains Nominal, PENITENTIARY - DINING-SPACE FUNCTION ZN,1875.00,187.5,10.000,10.000E-002,11.500,1.000,0.000,0.000,0.000,0.000,12.500,No
 Zone Internal Gains Nominal, POST OFFICE SORTING-SPACE FUNCTION ZN,1875.00,93.8,19.979,5.005E-002,10.100,7.500,0.000,0.000,0.000,0.000,17.600,No
 Zone Internal Gains Nominal, RELIGIOUS - AUDIENCE-SPACE FUNCTION ZN,2500.00,500.0,5.000,0.200,18.200,1.000,0.000,0.000,0.000,0.000,19.200,No
 Zone Internal Gains Nominal, RELIGIOUS - FELLOWSHIP HALL-SPACE FUNCTION ZN,2500.00,500.0,5.000,0.200,6.900,1.000,0.000,0.000,0.000,0.000,7.900,No
 Zone Internal Gains Nominal, RELIGIOUS - PULPIT/CHOIR-SPACE FUNCTION ZN,1875.00,375.0,5.000,0.200,18.200,1.000,0.000,0.000,0.000,0.000,19.200,No
 Zone Internal Gains Nominal, RETAIL - DRESSING/FITTING-SPACE FUNCTION ZN,1875.00,62.6,29.969,3.337E-002,8.460,2.500,0.000,0.000,0.000,0.000,10.960,No
 Zone Internal Gains Nominal, RETAIL - MALL CONCOURSE-SPACE FUNCTION ZN,1875.00,93.8,19.979,5.005E-002,11.800,1.000,0.000,0.000,0.000,0.000,12.800,No
 Zone Internal Gains Nominal, RETAIL - SALES-SPACE FUNCTION ZN,1875.00,62.6,29.969,3.337E-002,18.100,2.500,0.000,0.000,0.000,0.000,20.600,No
 Zone Internal Gains Nominal, SALES AREA-SPACE FUNCTION ZN,1875.00,62.6,29.969,3.337E-002,18.100,2.500,0.000,0.000,0.000,0.000,20.600,No
 Zone Internal Gains Nominal, SPORTS ARENA - AUDIENCE-SPACE FUNCTION ZN,1875.00,375.0,5.000,0.200,4.600,0.000,0.000,0.000,0.000,0.000,4.600,No
 Zone Internal Gains Nominal, SPORTS ARENA - COURT C1-SPACE FUNCTION ZN,1875.00,375.0,5.000,0.200,32.400,1.500,0.000,0.000,0.000,0.000,33.900,No
 Zone Internal Gains Nominal, SPORTS ARENA - COURT C2-SPACE FUNCTION ZN,1875.00,375.0,5.000,0.200,20.700,1.500,0.000,0.000,0.000,0.000,22.200,No
 Zone Internal Gains Nominal, SPORTS ARENA - COURT C3-SPACE FUNCTION ZN,1875.00,375.0,5.000,0.200,12.900,1.500,0.000,0.000,0.000,0.000,14.400,No
 Zone Internal Gains Nominal, SPORTS ARENA - COURT C4-SPACE FUNCTION ZN,1875.00,375.0,5.000,0.200,7.800,1.500,0.000,0.000,0.000,0.000,9.300,No
 Zone Internal Gains Nominal, SPORTS ARENA - RING-SPACE FUNCTION ZN,1875.00,375.0,5.000,0.200,28.800,1.500,0.000,0.000,0.000,0.000,30.300,No
 Zone Internal Gains Nominal, STAIRWAY-SCH-A-SPACE FUNCTION ZN,2500.00,12.4,201.963,4.951E-003,7.400,0.000,0.000,0.000,0.000,0.000,7.400,No
 Zone Internal Gains Nominal, STAIRWAY-SCH-B-SPACE FUNCTION ZN,1875.00,9.3,201.963,4.951E-003,7.400,0.000,0.000,0.000,0.000,0.000,7.400,No
 Zone Internal Gains Nominal, STAIRWAY-SCH-C-SPACE FUNCTION ZN,1875.00,9.3,201.963,4.951E-003,7.400,0.000,0.000,0.000,0.000,0.000,7.400,No
 Zone Internal Gains Nominal, STAIRWAY-SCH-D-SPACE FUNCTION ZN,1875.00,9.3,201.963,4.951E-003,7.400,0.000,0.000,0.000,0.000,0.000,7.400,No
 Zone Internal Gains Nominal, STAIRWAY-SCH-E-SPACE FUNCTION ZN,2500.00,12.4,201.963,4.951E-003,7.400,0.000,0.000,0.000,0.000,0.000,7.400,No
 Zone Internal Gains Nominal, STAIRWAY-SCH-F-SPACE FUNCTION ZN,1875.00,9.3,201.963,4.951E-003,7.400,0.000,0.000,0.000,0.000,0.000,7.400,No
 Zone Internal Gains Nominal, STAIRWAY-SCH-G-SPACE FUNCTION ZN,2500.00,12.4,201.963,4.951E-003,7.400,0.000,0.000,0.000,0.000,0.000,7.400,No
 Zone Internal Gains Nominal, STAIRWAY-SCH-H-SPACE FUNCTION ZN,1875.00,9.3,201.963,4.951E-003,7.400,0.000,0.000,0.000,0.000,0.000,7.400,No
 Zone Internal Gains Nominal, STAIRWAY-SCH-I-SPACE FUNCTION ZN,1875.00,9.3,201.963,4.951E-003,7.400,0.000,0.000,0.000,0.000,0.000,7.400,No
 Zone Internal Gains Nominal, STORAGE AREA - OCCSENS-SPACE FUNCTION ZN,1875.00,18.8,99.896,1.001E-002,6.120,1.000,0.000,0.000,0.000,0.000,7.120,No
 Zone Internal Gains Nominal, STORAGE AREA - REFRIGERATED - OCCSENS-SPACE FUNCTION ZN,1875.00,18.8,99.896,1.001E-002,6.120,1.000,0.000,0.000,0.000,0.000,7.120,No
 Zone Internal Gains Nominal, STORAGE AREA - REFRIGERATED-SPACE FUNCTION ZN,1875.00,18.8,99.896,1.001E-002,6.800,1.000,0.000,0.000,0.000,0.000,7.800,No
 Zone Internal Gains Nominal, STORAGE AREA-SPACE FUNCTION ZN,1875.00,18.8,99.896,1.001E-002,6.800,1.000,0.000,0.000,0.000,0.000,7.800,No
 Zone Internal Gains Nominal, TRANSP. BAGGAGE-SPACE FUNCTION ZN,1875.00,93.8,19.979,5.005E-002,8.200,2.500,0.000,0.000,0.000,0.000,10.700,No
 Zone Internal Gains Nominal, TRANSP. CONCOURSE-SPACE FUNCTION ZN,2500.00,125.1,19.979,5.005E-002,3.900,0.000,0.000,0.000,0.000,0.000,3.900,No
 Zone Internal Gains Nominal, TRANSP. COUNTER-SPACE FUNCTION ZN,2500.00,250.0,10.000,10.000E-002,11.600,2.500,0.000,0.000,0.000,0.000,14.100,No
 Zone Internal Gains Nominal, TRANSP. SEATING-SPACE FUNCTION ZN,2500.00,250.0,10.000,10.000E-002,5.800,0.000,0.000,0.000,0.000,0.000,5.800,No
 Zone Internal Gains Nominal, WAREHOUSE - FINE - REFRIGERATED-SPACE FUNCTION ZN,1875.00,37.5,49.948,2.002E-002,10.200,1.000,0.000,0.000,0.000,0.000,11.200,No
 Zone Internal Gains Nominal, WAREHOUSE - FINE-SPACE FUNCTION ZN,1875.00,37.5,49.948,2.002E-002,10.200,1.000,0.000,0.000,0.000,0.000,11.200,No
 Zone Internal Gains Nominal, WAREHOUSE - MED/BLK - REFRIGERATED-SPACE FUNCTION ZN,1875.00,18.8,99.896,1.001E-002,6.400,1.000,0.000,0.000,0.000,0.000,7.400,No
 Zone Internal Gains Nominal, WAREHOUSE - MED/BLK-SPACE FUNCTION ZN,1875.00,18.8,99.896,1.001E-002,6.400,1.000,0.000,0.000,0.000,0.000,7.400,No
 Zone Internal Gains Nominal, WAREHOUSE - MED/BLK2 - REFRIGERATED-SPACE FUNCTION ZN,1875.00,18.8,99.896,1.001E-002,10.200,1.000,0.000,0.000,0.000,0.000,11.200,No
 Zone Internal Gains Nominal, WAREHOUSE - MED/BLK2-SPACE FUNCTION ZN,1875.00,18.8,99.896,1.001E-002,10.200,1.000,0.000,0.000,0.000,0.000,11.200,No
 Zone Internal Gains Nominal, WASHROOM-SCH-A-SPACE FUNCTION ZN,1875.00,62.6,29.969,3.337E-002,9.450,1.000,0.000,0.000,0.000,0.000,10.450,No
 Zone Internal Gains Nominal, WASHROOM-SCH-B-SPACE FUNCTION ZN,1875.00,62.6,29.969,3.337E-002,9.450,1.000,0.000,0.000,0.000,0.000,10.450,No
! <People Internal Gains Nominal>,Name,Schedule Name,Zone Name,Zone Floor Area {m2},# Zone Occupants,Number of People {},People/Floor Area {person/m2},Floor Area per person {m2/person},Fraction Radiant,Fraction Convected,Sensible Fraction Calculation,Activity level,ASHRAE 55 Warnings,Carbon Dioxide Generation Rate,Nominal Minimum Number of People,Nominal Maximum Number of People
 People Internal Gains Nominal, PENITENTIARY - DINING-SPACE FUNCTION ZN SPACE FUNCTION PENITENTIARY - DINING PEOPLE,NECB-B-OCCUPANCY,PENITENTIARY - DINING-SPACE FUNCTION ZN,1875.00,187.5,187.5,10.000E-002,10.000,0.300,0.700,AutoCalculate,NECB-ACTIVITY,No,3.8200E-008,0,169
 People Internal Gains Nominal, POST OFFICE SORTING-SPACE FUNCTION ZN SPACE FUNCTION POST OFFICE SORTING PEOPLE,NECB-A-OCCUPANCY,POST OFFICE SORTING-SPACE FUNCTION ZN,1875.00,93.8,93.8,5.005E-002,19.979,0.300,0.700,AutoCalculate,NECB-ACTIVITY,No,3.8200E-008,0,84
 People Internal Gains Nominal, RELIGIOUS - AUDIENCE-SPACE FUNCTION ZN SPACE FUNCTION RELIGIOUS - AUDIENCE PEOPLE,NECB-I-OCCUPANCY,RELIGIOUS - AUDIENCE-SPACE FUNCTION ZN,2500.00,500.0,500.0,0.200,5.000,0.300,0.700,AutoCalculate,NECB-ACTIVITY,No,3.8200E-008,0,400
 People Internal Gains Nominal, RELIGIOUS - FELLOWSHIP HALL-SPACE FUNCTION ZN SPACE FUNCTION RELIGIOUS - FELLOWSHIP HALL PEOPLE,NECB-C-OCCUPANCY,RELIGIOUS - FELLOWSHIP HALL-SPACE FUNCTION ZN,2500.00,500.0,500.0,0.200,5.000,0.300,0.700,AutoCalculate,NECB-ACTIVITY,No,3.8200E-008,0,450
 People Internal Gains Nominal, RELIGIOUS - PULPIT/CHOIR-SPACE FUNCTION ZN SPACE FUNCTION RELIGIOUS - PULPIT/CHOIR PEOPLE,NECB-I-OCCUPANCY,RELIGIOUS - PULPIT/CHOIR-SPACE FUNCTION ZN,1875.00,375.0,375.0,0.200,5.000,0.300,0.700,AutoCalculate,NECB-ACTIVITY,No,3.8200E-008,0,300
 People Internal Gains Nominal, RETAIL - DRESSING/FITTING-SPACE FUNCTION ZN SPACE FUNCTION RETAIL - DRESSING/FITTING PEOPLE,NECB-C-OCCUPANCY,RETAIL - DRESSING/FITTING-SPACE FUNCTION ZN,1875.00,62.6,62.6,3.337E-002,29.969,0.300,0.700,AutoCalculate,NECB-ACTIVITY,No,3.8200E-008,0,56
 People Internal Gains Nominal, RETAIL - MALL CONCOURSE-SPACE FUNCTION ZN SPACE FUNCTION RETAIL - MALL CONCOURSE PEOPLE,NECB-C-OCCUPANCY,RETAIL - MALL CONCOURSE-SPACE FUNCTION ZN,1875.00,93.8,93.8,5.005E-002,19.979,0.300,0.700,AutoCalculate,NECB-ACTIVITY,No,3.8200E-008,0,84
 People Internal Gains Nominal, RETAIL - SALES-SPACE FUNCTION ZN SPACE FUNCTION RETAIL - SALES PEOPLE,NECB-C-OCCUPANCY,RETAIL - SALES-SPACE FUNCTION ZN,1875.00,62.6,62.6,3.337E-002,29.969,0.300,0.700,AutoCalculate,NECB-ACTIVITY,No,3.8200E-008,0,56
 People Internal Gains Nominal, SALES AREA-SPACE FUNCTION ZN SPACE FUNCTION SALES AREA PEOPLE,NECB-C-OCCUPANCY,SALES AREA-SPACE FUNCTION ZN,1875.00,62.6,62.6,3.337E-002,29.969,0.300,0.700,AutoCalculate,NECB-ACTIVITY,No,3.8200E-008,0,56
 People Internal Gains Nominal, SPORTS ARENA - AUDIENCE-SPACE FUNCTION ZN SPACE FUNCTION SPORTS ARENA - AUDIENCE PEOPLE,NECB-B-OCCUPANCY,SPORTS ARENA - AUDIENCE-SPACE FUNCTION ZN,1875.00,375.0,375.0,0.200,5.000,0.300,0.700,AutoCalculate,NECB-ACTIVITY,No,3.8200E-008,0,337
 People Internal Gains Nominal, SPORTS ARENA - COURT C1-SPACE FUNCTION ZN SPACE FUNCTION SPORTS ARENA - COURT C1 PEOPLE,NECB-B-OCCUPANCY,SPORTS ARENA - COURT C1-SPACE FUNCTION ZN,1875.00,375.0,375.0,0.200,5.000,0.300,0.700,AutoCalculate,NECB-ACTIVITY,No,3.8200E-008,0,337
 People Internal Gains Nominal, SPORTS ARENA - COURT C2-SPACE FUNCTION ZN SPACE FUNCTION SPORTS ARENA - COURT C2 PEOPLE,NECB-B-OCCUPANCY,SPORTS ARENA - COURT C2-SPACE FUNCTION ZN,1875.00,375.0,375.0,0.200,5.000,0.300,0.700,AutoCalculate,NECB-ACTIVITY,No,3.8200E-008,0,337
 People Internal Gains Nominal, SPORTS ARENA - COURT C3-SPACE FUNCTION ZN SPACE FUNCTION SPORTS ARENA - COURT C3 PEOPLE,NECB-B-OCCUPANCY,SPORTS ARENA - COURT C3-SPACE FUNCTION ZN,1875.00,375.0,375.0,0.200,5.000,0.300,0.700,AutoCalculate,NECB-ACTIVITY,No,3.8200E-008,0,337
 People Internal Gains Nominal, SPORTS ARENA - COURT C4-SPACE FUNCTION ZN SPACE FUNCTION SPORTS ARENA - COURT C4 PEOPLE,NECB-B-OCCUPANCY,SPORTS ARENA - COURT C4-SPACE FUNCTION ZN,1875.00,375.0,375.0,0.200,5.000,0.300,0.700,AutoCalculate,NECB-ACTIVITY,No,3.8200E-008,0,337
 People Internal Gains Nominal, SPORTS ARENA - RING-SPACE FUNCTION ZN SPACE FUNCTION SPORTS ARENA - RING PEOPLE,NECB-B-OCCUPANCY,SPORTS ARENA - RING-SPACE FUNCTION ZN,1875.00,375.0,375.0,0.200,5.000,0.300,0.700,AutoCalculate,NECB-ACTIVITY,No,3.8200E-008,0,337
 People Internal Gains Nominal, STAIRWAY-SCH-A-SPACE FUNCTION ZN SPACE FUNCTION STAIRWAY-SCH-A PEOPLE,NECB-A-OCCUPANCY,STAIRWAY-SCH-A-SPACE FUNCTION ZN,2500.00,12.4,12.4,4.951E-003,201.963,0.300,0.700,AutoCalculate,NECB-ACTIVITY,No,3.8200E-008,0,11
 People Internal Gains Nominal, STAIRWAY-SCH-B-SPACE FUNCTION ZN SPACE FUNCTION STAIRWAY-SCH-B PEOPLE,NECB-B-OCCUPANCY,STAIRWAY-SCH-B-SPACE FUNCTION ZN,1875.00,9.3,9.3,4.951E-003,201.963,0.300,0.700,AutoCalculate,NECB-ACTIVITY,No,3.8200E-008,0,8
 People Internal Gains Nominal, STAIRWAY-SCH-C-SPACE FUNCTION ZN SPACE FUNCTION STAIRWAY-SCH-C PEOPLE,NECB-C-OCCUPANCY,STAIRWAY-SCH-C-SPACE FUNCTION ZN,1875.00,9.3,9.3,4.951E-003,201.963,0.300,0.700,AutoCalculate,NECB-ACTIVITY,No,3.8200E-008,0,8
 People Internal Gains Nominal, STAIRWAY-SCH-D-SPACE FUNCTION ZN SPACE FUNCTION STAIRWAY-SCH-D PEOPLE,NECB-D-OCCUPANCY,STAIRWAY-SCH-D-SPACE FUNCTION ZN,1875.00,9.3,9.3,4.951E-003,201.963,0.300,0.700,AutoCalculate,NECB-ACTIVITY,No,3.8200E-008,0,8
 People Internal Gains Nominal, STAIRWAY-SCH-E-SPACE FUNCTION ZN SPACE FUNCTION STAIRWAY-SCH-E PEOPLE,NECB-E-OCCUPANCY,STAIRWAY-SCH-E-SPACE FUNCTION ZN,2500.00,12.4,12.4,4.951E-003,201.963,0.300,0.700,AutoCalculate,NECB-ACTIVITY,No,3.8200E-008,0,11
 People Internal Gains Nominal, STAIRWAY-SCH-F-SPACE FUNCTION ZN SPACE FUNCTION STAIRWAY-SCH-F PEOPLE,NECB-F-OCCUPANCY,STAIRWAY-SCH-F-SPACE FUNCTION ZN,1875.00,9.3,9.3,4.951E-003,201.963,0.300,0.700,AutoCalculate,NECB-ACTIVITY,No,3.8200E-008,2,8
 People Internal Gains Nominal, STAIRWAY-SCH-G-SPACE FUNCTION ZN SPACE FUNCTION STAIRWAY-SCH-G PEOPLE,NECB-G-OCCUPANCY,STAIRWAY-SCH-G-SPACE FUNCTION ZN,2500.00,12.4,12.4,4.951E-003,201.963,0.300,0.700,AutoCalculate,NECB-ACTIVITY,No,3.8200E-008,4,11
 People Internal Gains Nominal, STAIRWAY-SCH-H-SPACE FUNCTION ZN SPACE FUNCTION STAIRWAY-SCH-H PEOPLE,NECB-H-OCCUPANCY,STAIRWAY-SCH-H-SPACE FUNCTION ZN,1875.00,9.3,9.3,4.951E-003,201.963,0.300,0.700,AutoCalculate,NECB-ACTIVITY,No,3.8200E-008,8,8
 People Internal Gains Nominal, STAIRWAY-SCH-I-SPACE FUNCTION ZN SPACE FUNCTION STAIRWAY-SCH-I PEOPLE,NECB-I-OCCUPANCY,STAIRWAY-SCH-I-SPACE FUNCTION ZN,1875.00,9.3,9.3,4.951E-003,201.963,0.300,0.700,AutoCalculate,NECB-ACTIVITY,No,3.8200E-008,0,7
 People Internal Gains Nominal, STORAGE AREA-SPACE FUNCTION ZN SPACE FUNCTION STORAGE AREA PEOPLE,NECB-E-OCCUPANCY,STORAGE AREA-SPACE FUNCTION ZN,1875.00,18.8,18.8,1.001E-002,99.896,0.300,0.700,AutoCalculate,NECB-ACTIVITY,No,3.8200E-008,0,17
 People Internal Gains Nominal, STORAGE AREA - OCCSENS-SPACE FUNCTION ZN SPACE FUNCTION STORAGE AREA - OCCSENS PEOPLE,NECB-E-OCCUPANCY,STORAGE AREA - OCCSENS-SPACE FUNCTION ZN,1875.00,18.8,18.8,1.001E-002,99.896,0.300,0.700,AutoCalculate,NECB-ACTIVITY,No,3.8200E-008,0,17
 People Internal Gains Nominal, STORAGE AREA - REFRIGERATED-SPACE FUNCTION ZN SPACE FUNCTION STORAGE AREA - REFRIGERATED PEOPLE,NECB-E-OCCUPANCY,STORAGE AREA - REFRIGERATED-SPACE FUNCTION ZN,1875.00,18.8,18.8,1.001E-002,99.896,0.300,0.700,AutoCalculate,NECB-ACTIVITY,No,3.8200E-008,0,17
 People Internal Gains Nominal, STORAGE AREA - REFRIGERATED - OCCSENS-SPACE FUNCTION ZN SPACE FUNCTION STORAGE AREA - REFRIGERATED - OCCSENS PEOPLE,NECB-E-OCCUPANCY,STORAGE AREA - REFRIGERATED - OCCSENS-SPACE FUNCTION ZN,1875.00,18.8,18.8,1.001E-002,99.896,0.300,0.700,AutoCalculate,NECB-ACTIVITY,No,3.8200E-008,0,17
 People Internal Gains Nominal, TRANSP. BAGGAGE-SPACE FUNCTION ZN SPACE FUNCTION TRANSP. BAGGAGE PEOPLE,NECB-H-OCCUPANCY,TRANSP. BAGGAGE-SPACE FUNCTION ZN,1875.00,93.8,93.8,5.005E-002,19.979,0.300,0.700,AutoCalculate,NECB-ACTIVITY,No,3.8200E-008,84,84
 People Internal Gains Nominal, TRANSP. CONCOURSE-SPACE FUNCTION ZN SPACE FUNCTION TRANSP. CONCOURSE PEOPLE,NECB-H-OCCUPANCY,TRANSP. CONCOURSE-SPACE FUNCTION ZN,2500.00,125.1,125.1,5.005E-002,19.979,0.300,0.700,AutoCalculate,NECB-ACTIVITY,No,3.8200E-008,113,113
 People Internal Gains Nominal, TRANSP. COUNTER-SPACE FUNCTION ZN SPACE FUNCTION TRANSP. COUNTER PEOPLE,NECB-H-OCCUPANCY,TRANSP. COUNTER-SPACE FUNCTION ZN,2500.00,250.0,250.0,10.000E-002,10.000,0.300,0.700,AutoCalculate,NECB-ACTIVITY,No,3.8200E-008,225,225
 People Internal Gains Nominal, TRANSP. SEATING-SPACE FUNCTION ZN SPACE FUNCTION TRANSP. SEATING PEOPLE,NECB-H-OCCUPANCY,TRANSP. SEATING-SPACE FUNCTION ZN,2500.00,250.0,250.0,10.000E-002,10.000,0.300,0.700,AutoCalculate,NECB-ACTIVITY,No,3.8200E-008,225,225
 People Internal Gains Nominal, WAREHOUSE - FINE-SPACE FUNCTION ZN SPACE FUNCTION WAREHOUSE - FINE PEOPLE,NECB-A-OCCUPANCY,WAREHOUSE - FINE-SPACE FUNCTION ZN,1875.00,37.5,37.5,2.002E-002,49.948,0.300,0.700,AutoCalculate,NECB-ACTIVITY,No,3.8200E-008,0,34
 People Internal Gains Nominal, WAREHOUSE - FINE - REFRIGERATED-SPACE FUNCTION ZN SPACE FUNCTION WAREHOUSE - FINE - REFRIGERATED PEOPLE,NECB-A-OCCUPANCY,WAREHOUSE - FINE - REFRIGERATED-SPACE FUNCTION ZN,1875.00,37.5,37.5,2.002E-002,49.948,0.300,0.700,AutoCalculate,NECB-ACTIVITY,No,3.8200E-008,0,34
 People Internal Gains Nominal, WAREHOUSE - MED/BLK-SPACE FUNCTION ZN SPACE FUNCTION WAREHOUSE - MED/BLK PEOPLE,NECB-A-OCCUPANCY,WAREHOUSE - MED/BLK-SPACE FUNCTION ZN,1875.00,18.8,18.8,1.001E-002,99.896,0.300,0.700,AutoCalculate,NECB-ACTIVITY,No,3.8200E-008,0,17
 People Internal Gains Nominal, WAREHOUSE - MED/BLK - REFRIGERATED-SPACE FUNCTION ZN SPACE FUNCTION WAREHOUSE - MED/BLK - REFRIGERATED PEOPLE,NECB-A-OCCUPANCY,WAREHOUSE - MED/BLK - REFRIGERATED-SPACE FUNCTION ZN,1875.00,18.8,18.8,1.001E-002,99.896,0.300,0.700,AutoCalculate,NECB-ACTIVITY,No,3.8200E-008,0,17
 People Internal Gains Nominal, WAREHOUSE - MED/BLK2-SPACE FUNCTION ZN SPACE FUNCTION WAREHOUSE - MED/BLK2 PEOPLE,NECB-A-OCCUPANCY,WAREHOUSE - MED/BLK2-SPACE FUNCTION ZN,1875.00,18.8,18.8,1.001E-002,99.896,0.300,0.700,AutoCalculate,NECB-ACTIVITY,No,3.8200E-008,0,17
 People Internal Gains Nominal, WAREHOUSE - MED/BLK2 - REFRIGERATED-SPACE FUNCTION ZN SPACE FUNCTION WAREHOUSE - MED/BLK2 - REFRIGERATED PEOPLE,NECB-A-OCCUPANCY,WAREHOUSE - MED/BLK2 - REFRIGERATED-SPACE FUNCTION ZN,1875.00,18.8,18.8,1.001E-002,99.896,0.300,0.700,AutoCalculate,NECB-ACTIVITY,No,3.8200E-008,0,17
 People Internal Gains Nominal, WASHROOM-SCH-A-SPACE FUNCTION ZN SPACE FUNCTION WASHROOM-SCH-A PEOPLE,NECB-A-OCCUPANCY,WASHROOM-SCH-A-SPACE FUNCTION ZN,1875.00,62.6,62.6,3.337E-002,29.969,0.300,0.700,AutoCalculate,NECB-ACTIVITY,No,3.8200E-008,0,56
 People Internal Gains Nominal, WASHROOM-SCH-B-SPACE FUNCTION ZN SPACE FUNCTION WASHROOM-SCH-B PEOPLE,NECB-B-OCCUPANCY,WASHROOM-SCH-B-SPACE FUNCTION ZN,1875.00,62.6,62.6,3.337E-002,29.969,0.300,0.700,AutoCalculate,NECB-ACTIVITY,No,3.8200E-008,0,56
! <Lights Internal Gains Nominal>,Name,Schedule Name,Zone Name,Zone Floor Area {m2},# Zone Occupants,Lighting Level {W},Lights/Floor Area {W/m2},Lights per person {W/person},Fraction Return Air,Fraction Radiant,Fraction Short Wave,Fraction Convected,Fraction Replaceable,End-Use Category,Nominal Minimum Lighting Level {W},Nominal Maximum Lighting Level {W}
 Lights Internal Gains Nominal, PENITENTIARY - DINING-SPACE FUNCTION ZN SPACE FUNCTION PENITENTIARY - DINING LIGHTS,NECB-B-LIGHTING,PENITENTIARY - DINING-SPACE FUNCTION ZN,1875.00,187.5,21562.321,11.500,115.003,0.000,0.500,0.200,0.300,1.000,General,2156.232,19406.088
 Lights Internal Gains Nominal, POST OFFICE SORTING-SPACE FUNCTION ZN SPACE FUNCTION POST OFFICE SORTING LIGHTS,NECB-A-LIGHTING,POST OFFICE SORTING-SPACE FUNCTION ZN,1875.00,93.8,18937.342,10.100,201.788,0.000,0.500,0.200,0.300,1.000,General,946.867,17043.608
 Lights Internal Gains Nominal, RELIGIOUS - AUDIENCE-SPACE FUNCTION ZN SPACE FUNCTION RELIGIOUS - AUDIENCE LIGHTS,NECB-I-LIGHTING,RELIGIOUS - AUDIENCE-SPACE FUNCTION ZN,2500.00,500.0,45499.621,18.200,91.002,0.000,0.500,0.200,0.300,1.000,General,2274.981,40949.659
 Lights Internal Gains Nominal, RELIGIOUS - FELLOWSHIP HALL-SPACE FUNCTION ZN SPACE FUNCTION RELIGIOUS - FELLOWSHIP HALL LIGHTS,NECB-C-LIGHTING,RELIGIOUS - FELLOWSHIP HALL-SPACE FUNCTION ZN,2500.00,500.0,17249.856,6.900,34.501,0.000,0.500,0.200,0.300,1.000,General,862.493,15524.871
 Lights Internal Gains Nominal, RELIGIOUS - PULPIT/CHOIR-SPACE FUNCTION ZN SPACE FUNCTION RELIGIOUS - PULPIT/CHOIR LIGHTS,NECB-I-LIGHTING,RELIGIOUS - PULPIT/CHOIR-SPACE FUNCTION ZN,1875.00,375.0,34124.716,18.200,91.002,0.000,0.500,0.200,0.300,1.000,General,1706.236,30712.244
 Lights Internal Gains Nominal, RETAIL - DRESSING/FITTING-SPACE FUNCTION ZN SPACE FUNCTION RETAIL - DRESSING/FITTING LIGHTS,NECB-C-LIGHTING,RETAIL - DRESSING/FITTING-SPACE FUNCTION ZN,1875.00,62.6,15862.368,8.460,253.533,0.000,0.500,0.200,0.300,1.000,General,793.118,14276.131
 Lights Internal Gains Nominal, RETAIL - MALL CONCOURSE-SPACE FUNCTION ZN SPACE FUNCTION RETAIL - MALL CONCOURSE LIGHTS,NECB-C-LIGHTING,RETAIL - MALL CONCOURSE-SPACE FUNCTION ZN,1875.00,93.8,22124.816,11.800,235.752,0.000,0.500,0.200,0.300,1.000,General,1106.241,19912.334
 Lights Internal Gains Nominal, RETAIL - SALES-SPACE FUNCTION ZN SPACE FUNCTION RETAIL - SALES LIGHTS,NECB-C-LIGHTING,RETAIL - SALES-SPACE FUNCTION ZN,1875.00,62.6,33937.218,18.100,542.429,0.000,0.500,0.200,0.300,1.000,General,1696.861,30543.496
 Lights Internal Gains Nominal, SALES AREA-SPACE FUNCTION ZN SPACE FUNCTION SALES AREA LIGHTS,NECB-C-LIGHTING,SALES AREA-SPACE FUNCTION ZN,1875.00,62.6,33937.218,18.100,542.429,0.000,0.500,0.200,0.300,1.000,General,1696.861,30543.496
 Lights Internal Gains Nominal, SPORTS ARENA - AUDIENCE-SPACE FUNCTION ZN SPACE FUNCTION SPORTS ARENA - AUDIENCE LIGHTS,NECB-B-LIGHTING,SPORTS ARENA - AUDIENCE-SPACE FUNCTION ZN,1875.00,375.0,8624.928,4.600,23.001,0.000,0.500,0.200,0.300,1.000,General,862.493,7762.435
 Lights Internal Gains Nominal, SPORTS ARENA - COURT C1-SPACE FUNCTION ZN SPACE FUNCTION SPORTS ARENA - COURT C1 LIGHTS,NECB-B-LIGHTING,SPORTS ARENA - COURT C1-SPACE FUNCTION ZN,1875.00,375.0,60749.494,32.400,162.004,0.000,0.500,0.200,0.300,1.000,General,6074.949,54674.545
 Lights Internal Gains Nominal, SPORTS ARENA - COURT C2-SPACE FUNCTION ZN SPACE FUNCTION SPORTS ARENA - COURT C2 LIGHTS,NECB-B-LIGHTING,SPORTS ARENA - COURT C2-SPACE FUNCTION ZN,1875.00,375.0,38812.177,20.700,103.503,0.000,0.500,0.200,0.300,1.000,General,3881.218,34930.959
 Lights Internal Gains Nominal, SPORTS ARENA - COURT C3-SPACE FUNCTION ZN SPACE FUNCTION SPORTS ARENA - COURT C3 LIGHTS,NECB-B-LIGHTING,SPORTS ARENA - COURT C3-SPACE FUNCTION ZN,1875.00,375.0,24187.299,12.900,64.502,0.000,0.500,0.200,0.300,1.000,General,2418.730,21768.569
 Lights Internal Gains Nominal, SPORTS ARENA - COURT C4-SPACE FUNCTION ZN SPACE FUNCTION SPORTS ARENA - COURT C4 LIGHTS,NECB-B-LIGHTING,SPORTS ARENA - COURT C4-SPACE FUNCTION ZN,1875.00,375.0,14624.878,7.800,39.001,0.000,0.500,0.200,0.300,1.000,General,1462.488,13162.390
 Lights Internal Gains Nominal, SPORTS ARENA - RING-SPACE FUNCTION ZN SPACE FUNCTION SPORTS ARENA - RING LIGHTS,NECB-B-LIGHTING,SPORTS ARENA - RING-SPACE FUNCTION ZN,1875.00,375.0,53999.551,28.800,144.004,0.000,0.500,0.200,0.300,1.000,General,5399.955,48599.596
 Lights Internal Gains Nominal, STAIRWAY-SCH-A-SPACE FUNCTION ZN SPACE FUNCTION STAIRWAY-SCH-A LIGHTS,NECB-A-LIGHTING,STAIRWAY-SCH-A-SPACE FUNCTION ZN,2500.00,12.4,18499.846,7.400,1494.515,0.000,0.500,0.200,0.300,1.000,General,924.992,16649.861
 Lights Internal Gains Nominal, STAIRWAY-SCH-B-SPACE FUNCTION ZN SPACE FUNCTION STAIRWAY-SCH-B LIGHTS,NECB-B-LIGHTING,STAIRWAY-SCH-B-SPACE FUNCTION ZN,1875.00,9.3,13874.885,7.400,1494.515,0.000,0.500,0.200,0.300,1.000,General,1387.488,12487.396
 Lights Internal Gains Nominal, STAIRWAY-SCH-C-SPACE FUNCTION ZN SPACE FUNCTION STAIRWAY-SCH-C LIGHTS,NECB-C-LIGHTING,STAIRWAY-SCH-C-SPACE FUNCTION ZN,1875.00,9.3,13874.885,7.400,1494.515,0.000,0.500,0.200,0.300,1.000,General,693.744,12487.396
 Lights Internal Gains Nominal, STAIRWAY-SCH-D-SPACE FUNCTION ZN SPACE FUNCTION STAIRWAY-SCH-D LIGHTS,NECB-D-LIGHTING,STAIRWAY-SCH-D-SPACE FUNCTION ZN,1875.00,9.3,13874.885,7.400,1494.515,0.000,0.500,0.200,0.300,1.000,General,693.744,12487.396
 Lights Internal Gains Nominal, STAIRWAY-SCH-E-SPACE FUNCTION ZN SPACE FUNCTION STAIRWAY-SCH-E LIGHTS,NECB-E-LIGHTING,STAIRWAY-SCH-E-SPACE FUNCTION ZN,2500.00,12.4,18499.846,7.400,1494.515,0.000,0.500,0.200,0.300,1.000,General,924.992,16649.861
 Lights Internal Gains Nominal, STAIRWAY-SCH-F-SPACE FUNCTION ZN SPACE FUNCTION STAIRWAY-SCH-F LIGHTS,NECB-F-LIGHTING,STAIRWAY-SCH-F-SPACE FUNCTION ZN,1875.00,9.3,13874.885,7.400,1494.515,0.000,0.500,0.200,0.300,1.000,General,1387.488,12487.396
 Lights Internal Gains Nominal, STAIRWAY-SCH-G-SPACE FUNCTION ZN SPACE FUNCTION STAIRWAY-SCH-G LIGHTS,NECB-G-LIGHTING,STAIRWAY-SCH-G-SPACE FUNCTION ZN,2500.00,12.4,18499.846,7.400,1494.515,0.000,0.500,0.200,0.300,1.000,General,0.000,16649.861
 Lights Internal Gains Nominal, STAIRWAY-SCH-H-SPACE FUNCTION ZN SPACE FUNCTION STAIRWAY-SCH-H LIGHTS,NECB-H-LIGHTING,STAIRWAY-SCH-H-SPACE FUNCTION ZN,1875.00,9.3,13874.885,7.400,1494.515,0.000,0.500,0.200,0.300,1.000,General,12487.396,12487.396
 Lights Internal Gains Nominal, STAIRWAY-SCH-I-SPACE FUNCTION ZN SPACE FUNCTION STAIRWAY-SCH-I LIGHTS,NECB-I-LIGHTING,STAIRWAY-SCH-I-SPACE FUNCTION ZN,1875.00,9.3,13874.885,7.400,1494.515,0.000,0.500,0.200,0.300,1.000,General,693.744,12487.396
 Lights Internal Gains Nominal, STORAGE AREA-SPACE FUNCTION ZN SPACE FUNCTION STORAGE AREA LIGHTS,NECB-E-LIGHTING,STORAGE AREA-SPACE FUNCTION ZN,1875.00,18.8,12749.894,6.800,679.285,0.000,0.500,0.200,0.300,1.000,General,637.495,11474.904
 Lights Internal Gains Nominal, STORAGE AREA - OCCSENS-SPACE FUNCTION ZN SPACE FUNCTION STORAGE AREA - OCCSENS LIGHTS,NECB-E-LIGHTING,STORAGE AREA - OCCSENS-SPACE FUNCTION ZN,1875.00,18.8,11474.905,6.120,611.357,0.000,0.500,0.200,0.300,1.000,General,573.745,10327.414
 Lights Internal Gains Nominal, STORAGE AREA - REFRIGERATED-SPACE FUNCTION ZN SPACE FUNCTION STORAGE AREA - REFRIGERATED LIGHTS,NECB-E-LIGHTING,STORAGE AREA - REFRIGERATED-SPACE FUNCTION ZN,1875.00,18.8,12749.894,6.800,679.285,0.000,0.500,0.200,0.300,1.000,General,637.495,11474.904
 Lights Internal Gains Nominal, STORAGE AREA - REFRIGERATED - OCCSENS-SPACE FUNCTION ZN SPACE FUNCTION STORAGE AREA - REFRIGERATED - OCCSENS LIGHTS,NECB-E-LIGHTING,STORAGE AREA - REFRIGERATED - OCCSENS-SPACE FUNCTION ZN,1875.00,18.8,11474.905,6.120,611.357,0.000,0.500,0.200,0.300,1.000,General,573.745,10327.414
 Lights Internal Gains Nominal, TRANSP. BAGGAGE-SPACE FUNCTION ZN SPACE FUNCTION TRANSP. BAGGAGE LIGHTS,NECB-H-LIGHTING,TRANSP. BAGGAGE-SPACE FUNCTION ZN,1875.00,93.8,15374.872,8.200,163.828,0.000,0.500,0.200,0.300,1.000,General,13837.385,13837.385
 Lights Internal Gains Nominal, TRANSP. CONCOURSE-SPACE FUNCTION ZN SPACE FUNCTION TRANSP. CONCOURSE LIGHTS,NECB-H-LIGHTING,TRANSP. CONCOURSE-SPACE FUNCTION ZN,2500.00,125.1,9749.919,3.900,77.918,0.000,0.500,0.200,0.300,1.000,General,8774.927,8774.927
 Lights Internal Gains Nominal, TRANSP. COUNTER-SPACE FUNCTION ZN SPACE FUNCTION TRANSP. COUNTER LIGHTS,NECB-H-LIGHTING,TRANSP. COUNTER-SPACE FUNCTION ZN,2500.00,250.0,28999.759,11.600,116.003,0.000,0.500,0.200,0.300,1.000,General,26099.783,26099.783
 Lights Internal Gains Nominal, TRANSP. SEATING-SPACE FUNCTION ZN SPACE FUNCTION TRANSP. SEATING LIGHTS,NECB-H-LIGHTING,TRANSP. SEATING-SPACE FUNCTION ZN,2500.00,250.0,14499.879,5.800,58.001,0.000,0.500,0.200,0.300,1.000,General,13049.891,13049.891
 Lights Internal Gains Nominal, WAREHOUSE - FINE-SPACE FUNCTION ZN SPACE FUNCTION WAREHOUSE - FINE LIGHTS,NECB-A-LIGHTING,WAREHOUSE - FINE-SPACE FUNCTION ZN,1875.00,37.5,19124.841,10.200,509.464,0.000,0.500,0.200,0.300,1.000,General,956.242,17212.357
 Lights Internal Gains Nominal, WAREHOUSE - FINE - REFRIGERATED-SPACE FUNCTION ZN SPACE FUNCTION WAREHOUSE - FINE - REFRIGERATED LIGHTS,NECB-A-LIGHTING,WAREHOUSE - FINE - REFRIGERATED-SPACE FUNCTION ZN,1875.00,37.5,19124.841,10.200,509.464,0.000,0.500,0.200,0.300,1.000,General,956.242,17212.357
 Lights Internal Gains Nominal, WAREHOUSE - MED/BLK-SPACE FUNCTION ZN SPACE FUNCTION WAREHOUSE - MED/BLK LIGHTS,NECB-A-LIGHTING,WAREHOUSE - MED/BLK-SPACE FUNCTION ZN,1875.00,18.8,11999.900,6.400,639.327,0.000,0.500,0.200,0.300,1.000,General,599.995,10799.910
 Lights Internal Gains Nominal, WAREHOUSE - MED/BLK - REFRIGERATED-SPACE FUNCTION ZN SPACE FUNCTION WAREHOUSE - MED/BLK - REFRIGERATED LIGHTS,NECB-A-LIGHTING,WAREHOUSE - MED/BLK - REFRIGERATED-SPACE FUNCTION ZN,1875.00,18.8,11999.900,6.400,639.327,0.000,0.500,0.200,0.300,1.000,General,599.995,10799.910
 Lights Internal Gains Nominal, WAREHOUSE - MED/BLK2-SPACE FUNCTION ZN SPACE FUNCTION WAREHOUSE - MED/BLK2 LIGHTS,NECB-A-LIGHTING,WAREHOUSE - MED/BLK2-SPACE FUNCTION ZN,1875.00,18.8,19124.841,10.200,1018.928,0.000,0.500,0.200,0.300,1.000,General,956.242,17212.357
 Lights Internal Gains Nominal, WAREHOUSE - MED/BLK2 - REFRIGERATED-SPACE FUNCTION ZN SPACE FUNCTION WAREHOUSE - MED/BLK2 - REFRIGERATED LIGHTS,NECB-A-LIGHTING,WAREHOUSE - MED/BLK2 - REFRIGERATED-SPACE FUNCTION ZN,1875.00,18.8,19124.841,10.200,1018.928,0.000,0.500,0.200,0.300,1.000,General,956.242,17212.357
 Lights Internal Gains Nominal, WASHROOM-SCH-A-SPACE FUNCTION ZN SPACE FUNCTION WASHROOM-SCH-A LIGHTS,NECB-A-LIGHTING,WASHROOM-SCH-A-SPACE FUNCTION ZN,1875.00,62.6,17718.603,9.450,283.202,0.000,0.500,0.200,0.300,1.000,General,885.930,15946.742
 Lights Internal Gains Nominal, WASHROOM-SCH-B-SPACE FUNCTION ZN SPACE FUNCTION WASHROOM-SCH-B LIGHTS,NECB-B-LIGHTING,WASHROOM-SCH-B-SPACE FUNCTION ZN,1875.00,62.6,17718.603,9.450,283.202,0.000,0.500,0.200,0.300,1.000,General,1771.860,15946.742
! <ElectricEquipment Internal Gains Nominal>,Name,Schedule Name,Zone Name,Zone Floor Area {m2},# Zone Occupants,Equipment Level {W},Equipment/Floor Area {W/m2},Equipment per person {W/person},Fraction Latent,Fraction Radiant,Fraction Lost,Fraction Convected,End-Use SubCategory,Nominal Minimum Equipment Level {W},Nominal Maximum Equipment Level {W}
 ElectricEquipment Internal Gains Nominal, PENITENTIARY - DINING-SPACE FUNCTION ZN SPACE FUNCTION PENITENTIARY - DINING ELEC EQUIP,NECB-B-ELECTRIC-EQUIPMENT,PENITENTIARY - DINING-SPACE FUNCTION ZN,1875.00,187.5,1874.984,1.000,10.000,0.000,0.500,0.000,0.500,General,187.498,1687.486
 ElectricEquipment Internal Gains Nominal, POST OFFICE SORTING-SPACE FUNCTION ZN SPACE FUNCTION POST OFFICE SORTING ELEC EQUIP,NECB-A-ELECTRIC-EQUIPMENT,POST OFFICE SORTING-SPACE FUNCTION ZN,1875.00,93.8,14062.383,7.500,149.842,0.000,0.500,0.000,0.500,General,2812.477,12656.145
 ElectricEquipment Internal Gains Nominal, RELIGIOUS - AUDIENCE-SPACE FUNCTION ZN SPACE FUNCTION RELIGIOUS - AUDIENCE ELEC EQUIP,NECB-I-ELECTRIC-EQUIPMENT,RELIGIOUS - AUDIENCE-SPACE FUNCTION ZN,2500.00,500.0,2499.979,1.000,5.000,0.000,0.500,0.000,0.500,General,249.998,1999.983
 ElectricEquipment Internal Gains Nominal, RELIGIOUS - FELLOWSHIP HALL-SPACE FUNCTION ZN SPACE FUNCTION RELIGIOUS - FELLOWSHIP HALL ELEC EQUIP,NECB-C-ELECTRIC-EQUIPMENT,RELIGIOUS - FELLOWSHIP HALL-SPACE FUNCTION ZN,2500.00,500.0,2499.979,1.000,5.000,0.000,0.500,0.000,0.500,General,124.999,2249.981
 ElectricEquipment Internal Gains Nominal, RELIGIOUS - PULPIT/CHOIR-SPACE FUNCTION ZN SPACE FUNCTION RELIGIOUS - PULPIT/CHOIR ELEC EQUIP,NECB-I-ELECTRIC-EQUIPMENT,RELIGIOUS - PULPIT/CHOIR-SPACE FUNCTION ZN,1875.00,375.0,1874.984,1.000,5.000,0.000,0.500,0.000,0.500,General,187.498,1499.988
 ElectricEquipment Internal Gains Nominal, RETAIL - DRESSING/FITTING-SPACE FUNCTION ZN SPACE FUNCTION RETAIL - DRESSING/FITTING ELEC EQUIP,NECB-C-ELECTRIC-EQUIPMENT,RETAIL - DRESSING/FITTING-SPACE FUNCTION ZN,1875.00,62.6,4687.461,2.500,74.921,0.000,0.500,0.000,0.500,General,234.373,4218.715
 ElectricEquipment Internal Gains Nominal, RETAIL - MALL CONCOURSE-SPACE FUNCTION ZN SPACE FUNCTION RETAIL - MALL CONCOURSE ELEC EQUIP,NECB-C-ELECTRIC-EQUIPMENT,RETAIL - MALL CONCOURSE-SPACE FUNCTION ZN,1875.00,93.8,1874.984,1.000,19.979,0.000,0.500,0.000,0.500,General,93.749,1687.486
 ElectricEquipment Internal Gains Nominal, RETAIL - SALES-SPACE FUNCTION ZN SPACE FUNCTION RETAIL - SALES ELEC EQUIP,NECB-C-ELECTRIC-EQUIPMENT,RETAIL - SALES-SPACE FUNCTION ZN,1875.00,62.6,4687.461,2.500,74.921,0.000,0.500,0.000,0.500,General,234.373,4218.715
 ElectricEquipment Internal Gains Nominal, SALES AREA-SPACE FUNCTION ZN SPACE FUNCTION SALES AREA ELEC EQUIP,NECB-C-ELECTRIC-EQUIPMENT,SALES AREA-SPACE FUNCTION ZN,1875.00,62.6,4687.461,2.500,74.921,0.000,0.500,0.000,0.500,General,234.373,4218.715
 ElectricEquipment Internal Gains Nominal, SPORTS ARENA - COURT C1-SPACE FUNCTION ZN SPACE FUNCTION SPORTS ARENA - COURT C1 ELEC EQUIP,NECB-B-ELECTRIC-EQUIPMENT,SPORTS ARENA - COURT C1-SPACE FUNCTION ZN,1875.00,375.0,2812.477,1.500,7.500,0.000,0.500,0.000,0.500,General,281.248,2531.229
 ElectricEquipment Internal Gains Nominal, SPORTS ARENA - COURT C2-SPACE FUNCTION ZN SPACE FUNCTION SPORTS ARENA - COURT C2 ELEC EQUIP,NECB-B-ELECTRIC-EQUIPMENT,SPORTS ARENA - COURT C2-SPACE FUNCTION ZN,1875.00,375.0,2812.477,1.500,7.500,0.000,0.500,0.000,0.500,General,281.248,2531.229
 ElectricEquipment Internal Gains Nominal, SPORTS ARENA - COURT C3-SPACE FUNCTION ZN SPACE FUNCTION SPORTS ARENA - COURT C3 ELEC EQUIP,NECB-B-ELECTRIC-EQUIPMENT,SPORTS ARENA - COURT C3-SPACE FUNCTION ZN,1875.00,375.0,2812.477,1.500,7.500,0.000,0.500,0.000,0.500,General,281.248,2531.229
 ElectricEquipment Internal Gains Nominal, SPORTS ARENA - COURT C4-SPACE FUNCTION ZN SPACE FUNCTION SPORTS ARENA - COURT C4 ELEC EQUIP,NECB-B-ELECTRIC-EQUIPMENT,SPORTS ARENA - COURT C4-SPACE FUNCTION ZN,1875.00,375.0,2812.477,1.500,7.500,0.000,0.500,0.000,0.500,General,281.248,2531.229
 ElectricEquipment Internal Gains Nominal, SPORTS ARENA - RING-SPACE FUNCTION ZN SPACE FUNCTION SPORTS ARENA - RING ELEC EQUIP,NECB-B-ELECTRIC-EQUIPMENT,SPORTS ARENA - RING-SPACE FUNCTION ZN,1875.00,375.0,2812.477,1.500,7.500,0.000,0.500,0.000,0.500,General,281.248,2531.229
 ElectricEquipment Internal Gains Nominal, STORAGE AREA-SPACE FUNCTION ZN SPACE FUNCTION STORAGE AREA ELEC EQUIP,NECB-E-ELECTRIC-EQUIPMENT,STORAGE AREA-SPACE FUNCTION ZN,1875.00,18.8,1874.984,1.000,99.895,0.000,0.500,0.000,0.500,General,93.749,1687.486
 ElectricEquipment Internal Gains Nominal, STORAGE AREA - OCCSENS-SPACE FUNCTION ZN SPACE FUNCTION STORAGE AREA - OCCSENS ELEC EQUIP,NECB-E-ELECTRIC-EQUIPMENT,STORAGE AREA - OCCSENS-SPACE FUNCTION ZN,1875.00,18.8,1874.984,1.000,99.895,0.000,0.500,0.000,0.500,General,93.749,1687.486
 ElectricEquipment Internal Gains Nominal, STORAGE AREA - REFRIGERATED-SPACE FUNCTION ZN SPACE FUNCTION STORAGE AREA - REFRIGERATED ELEC EQUIP,NECB-E-ELECTRIC-EQUIPMENT,STORAGE AREA - REFRIGERATED-SPACE FUNCTION ZN,1875.00,18.8,1874.984,1.000,99.895,0.000,0.500,0.000,0.500,General,93.749,1687.486
 ElectricEquipment Internal Gains Nominal, STORAGE AREA - REFRIGERATED - OCCSENS-SPACE FUNCTION ZN SPACE FUNCTION STORAGE AREA - REFRIGERATED - OCCSENS ELEC EQUIP,NECB-E-ELECTRIC-EQUIPMENT,STORAGE AREA - REFRIGERATED - OCCSENS-SPACE FUNCTION ZN,1875.00,18.8,1874.984,1.000,99.895,0.000,0.500,0.000,0.500,General,93.749,1687.486
 ElectricEquipment Internal Gains Nominal, TRANSP. BAGGAGE-SPACE FUNCTION ZN SPACE FUNCTION TRANSP. BAGGAGE ELEC EQUIP,NECB-H-ELECTRIC-EQUIPMENT,TRANSP. BAGGAGE-SPACE FUNCTION ZN,1875.00,93.8,4687.461,2.500,49.947,0.000,0.500,0.000,0.500,General,4218.715,4218.715
 ElectricEquipment Internal Gains Nominal, TRANSP. COUNTER-SPACE FUNCTION ZN SPACE FUNCTION TRANSP. COUNTER ELEC EQUIP,NECB-H-ELECTRIC-EQUIPMENT,TRANSP. COUNTER-SPACE FUNCTION ZN,2500.00,250.0,6249.948,2.500,25.001,0.000,0.500,0.000,0.500,General,5624.953,5624.953
 ElectricEquipment Internal Gains Nominal, WAREHOUSE - FINE-SPACE FUNCTION ZN SPACE FUNCTION WAREHOUSE - FINE ELEC EQUIP,NECB-A-ELECTRIC-EQUIPMENT,WAREHOUSE - FINE-SPACE FUNCTION ZN,1875.00,37.5,1874.984,1.000,49.947,0.000,0.500,0.000,0.500,General,374.997,1687.486
 ElectricEquipment Internal Gains Nominal, WAREHOUSE - FINE - REFRIGERATED-SPACE FUNCTION ZN SPACE FUNCTION WAREHOUSE - FINE - REFRIGERATED ELEC EQUIP,NECB-A-ELECTRIC-EQUIPMENT,WAREHOUSE - FINE - REFRIGERATED-SPACE FUNCTION ZN,1875.00,37.5,1874.984,1.000,49.947,0.000,0.500,0.000,0.500,General,374.997,1687.486
 ElectricEquipment Internal Gains Nominal, WAREHOUSE - MED/BLK-SPACE FUNCTION ZN SPACE FUNCTION WAREHOUSE - MED/BLK ELEC EQUIP,NECB-A-ELECTRIC-EQUIPMENT,WAREHOUSE - MED/BLK-SPACE FUNCTION ZN,1875.00,18.8,1874.984,1.000,99.895,0.000,0.500,0.000,0.500,General,374.997,1687.486
 ElectricEquipment Internal Gains Nominal, WAREHOUSE - MED/BLK - REFRIGERATED-SPACE FUNCTION ZN SPACE FUNCTION WAREHOUSE - MED/BLK - REFRIGERATED ELEC EQUIP,NECB-A-ELECTRIC-EQUIPMENT,WAREHOUSE - MED/BLK - REFRIGERATED-SPACE FUNCTION ZN,1875.00,18.8,1874.984,1.000,99.895,0.000,0.500,0.000,0.500,General,374.997,1687.486
 ElectricEquipment Internal Gains Nominal, WAREHOUSE - MED/BLK2-SPACE FUNCTION ZN SPACE FUNCTION WAREHOUSE - MED/BLK2 ELEC EQUIP,NECB-A-ELECTRIC-EQUIPMENT,WAREHOUSE - MED/BLK2-SPACE FUNCTION ZN,1875.00,18.8,1874.984,1.000,99.895,0.000,0.500,0.000,0.500,General,374.997,1687.486
 ElectricEquipment Internal Gains Nominal, WAREHOUSE - MED/BLK2 - REFRIGERATED-SPACE FUNCTION ZN SPACE FUNCTION WAREHOUSE - MED/BLK2 - REFRIGERATED ELEC EQUIP,NECB-A-ELECTRIC-EQUIPMENT,WAREHOUSE - MED/BLK2 - REFRIGERATED-SPACE FUNCTION ZN,1875.00,18.8,1874.984,1.000,99.895,0.000,0.500,0.000,0.500,General,374.997,1687.486
 ElectricEquipment Internal Gains Nominal, WASHROOM-SCH-A-SPACE FUNCTION ZN SPACE FUNCTION WASHROOM-SCH-A ELEC EQUIP,NECB-A-ELECTRIC-EQUIPMENT,WASHROOM-SCH-A-SPACE FUNCTION ZN,1875.00,62.6,1874.984,1.000,29.968,0.000,0.500,0.000,0.500,General,374.997,1687.486
 ElectricEquipment Internal Gains Nominal, WASHROOM-SCH-B-SPACE FUNCTION ZN SPACE FUNCTION WASHROOM-SCH-B ELEC EQUIP,NECB-B-ELECTRIC-EQUIPMENT,WASHROOM-SCH-B-SPACE FUNCTION ZN,1875.00,62.6,1874.984,1.000,29.968,0.000,0.500,0.000,0.500,General,187.498,1687.486
! <Shadowing/Sun Position Calculations Annual Simulations>, Calculation Method, Value {days}, Allowable Number Figures in Shadow Overlap {}, Polygon Clipping Algorithm, Sky Diffuse Modeling Algorithm, External Shading Calculation Method, Output External Shading Calculation Results, Disable Self-Shading Within Shading Zone Groups, Disable Self-Shading From Shading Zone Groups to Other Zones
Shadowing/Sun Position Calculations Annual Simulations,AverageOverDaysInFrequency,20,15000,SutherlandHodgman,SimpleSkyDiffuseModeling,InternalCalculation,No,No,No
! <ZoneInfiltration Airflow Stats Nominal>,Name,Schedule Name,Zone Name, Zone Floor Area {m2}, # Zone Occupants,Design Volume Flow Rate {m3/s},Volume Flow Rate/Floor Area {m3/s/m2},Volume Flow Rate/Exterior Surface Area {m3/s/m2},ACH - Air Changes per Hour,Equation A - Constant Term Coefficient {},Equation B - Temperature Term Coefficient {1/C},Equation C - Velocity Term Coefficient {s/m}, Equation D - Velocity Squared Term Coefficient {s2/m2}
 ZoneInfiltration Airflow Stats Nominal, PENITENTIARY - DINING-SPACE FUNCTION INFILTRATION,ALWAYS ON DISCRETE,PENITENTIARY - DINING-SPACE FUNCTION ZN,1875.00,187.5,0.564,3.007E-004,2.500E-004,0.285,0.000,0.000,0.224,0.000
 ZoneInfiltration Airflow Stats Nominal, POST OFFICE SORTING-SPACE FUNCTION INFILTRATION,ALWAYS ON DISCRETE,POST OFFICE SORTING-SPACE FUNCTION ZN,1875.00,93.8,0.564,3.007E-004,2.500E-004,0.285,0.000,0.000,0.224,0.000
 ZoneInfiltration Airflow Stats Nominal, RELIGIOUS - AUDIENCE-SPACE FUNCTION INFILTRATION,ALWAYS ON DISCRETE,RELIGIOUS - AUDIENCE-SPACE FUNCTION ZN,2500.00,500.0,0.625,2.500E-004,2.500E-004,0.237,0.000,0.000,0.224,0.000
 ZoneInfiltration Airflow Stats Nominal, RELIGIOUS - PULPIT/CHOIR-SPACE FUNCTION INFILTRATION,ALWAYS ON DISCRETE,RELIGIOUS - PULPIT/CHOIR-SPACE FUNCTION ZN,1875.00,375.0,9.500E-002,5.067E-005,2.500E-004,4.800E-002,0.000,0.000,0.224,0.000
 ZoneInfiltration Airflow Stats Nominal, RETAIL - DRESSING/FITTING-SPACE FUNCTION INFILTRATION,ALWAYS ON DISCRETE,RETAIL - DRESSING/FITTING-SPACE FUNCTION ZN,1875.00,62.6,9.500E-002,5.067E-005,2.500E-004,4.800E-002,0.000,0.000,0.224,0.000
 ZoneInfiltration Airflow Stats Nominal, RETAIL - MALL CONCOURSE-SPACE FUNCTION INFILTRATION,ALWAYS ON DISCRETE,RETAIL - MALL CONCOURSE-SPACE FUNCTION ZN,1875.00,93.8,9.500E-002,5.067E-005,2.500E-004,4.800E-002,0.000,0.000,0.224,0.000
 ZoneInfiltration Airflow Stats Nominal, RETAIL - SALES-SPACE FUNCTION INFILTRATION,ALWAYS ON DISCRETE,RETAIL - SALES-SPACE FUNCTION ZN,1875.00,62.6,9.500E-002,5.067E-005,2.500E-004,4.800E-002,0.000,0.000,0.224,0.000
 ZoneInfiltration Airflow Stats Nominal, SALES AREA-SPACE FUNCTION INFILTRATION,ALWAYS ON DISCRETE,SALES AREA-SPACE FUNCTION ZN,1875.00,62.6,9.500E-002,5.067E-005,2.500E-004,4.800E-002,0.000,0.000,0.224,0.000
 ZoneInfiltration Airflow Stats Nominal, SPORTS ARENA - AUDIENCE-SPACE FUNCTION INFILTRATION,ALWAYS ON DISCRETE,SPORTS ARENA - AUDIENCE-SPACE FUNCTION ZN,1875.00,375.0,0.564,3.007E-004,2.500E-004,0.285,0.000,0.000,0.224,0.000
 ZoneInfiltration Airflow Stats Nominal, SPORTS ARENA - COURT C1-SPACE FUNCTION INFILTRATION,ALWAYS ON DISCRETE,SPORTS ARENA - COURT C1-SPACE FUNCTION ZN,1875.00,375.0,9.500E-002,5.067E-005,2.500E-004,4.800E-002,0.000,0.000,0.224,0.000
 ZoneInfiltration Airflow Stats Nominal, SPORTS ARENA - COURT C2-SPACE FUNCTION INFILTRATION,ALWAYS ON DISCRETE,SPORTS ARENA - COURT C2-SPACE FUNCTION ZN,1875.00,375.0,9.500E-002,5.067E-005,2.500E-004,4.800E-002,0.000,0.000,0.224,0.000
 ZoneInfiltration Airflow Stats Nominal, SPORTS ARENA - COURT C3-SPACE FUNCTION INFILTRATION,ALWAYS ON DISCRETE,SPORTS ARENA - COURT C3-SPACE FUNCTION ZN,1875.00,375.0,9.500E-002,5.067E-005,2.500E-004,4.800E-002,0.000,0.000,0.224,0.000
 ZoneInfiltration Airflow Stats Nominal, SPORTS ARENA - COURT C4-SPACE FUNCTION INFILTRATION,ALWAYS ON DISCRETE,SPORTS ARENA - COURT C4-SPACE FUNCTION ZN,1875.00,375.0,9.500E-002,5.067E-005,2.500E-004,4.800E-002,0.000,0.000,0.224,0.000
 ZoneInfiltration Airflow Stats Nominal, SPORTS ARENA - RING-SPACE FUNCTION INFILTRATION,ALWAYS ON DISCRETE,SPORTS ARENA - RING-SPACE FUNCTION ZN,1875.00,375.0,9.500E-002,5.067E-005,2.500E-004,4.800E-002,0.000,0.000,0.224,0.000
 ZoneInfiltration Airflow Stats Nominal, STAIRWAY-SCH-B-SPACE FUNCTION INFILTRATION,ALWAYS ON DISCRETE,STAIRWAY-SCH-B-SPACE FUNCTION ZN,1875.00,9.3,9.500E-002,5.067E-005,2.500E-004,4.800E-002,0.000,0.000,0.224,0.000
 ZoneInfiltration Airflow Stats Nominal, STAIRWAY-SCH-D-SPACE FUNCTION INFILTRATION,ALWAYS ON DISCRETE,STAIRWAY-SCH-D-SPACE FUNCTION ZN,1875.00,9.3,0.564,3.007E-004,2.500E-004,0.285,0.000,0.000,0.224,0.000
 ZoneInfiltration Airflow Stats Nominal, STAIRWAY-SCH-F-SPACE FUNCTION INFILTRATION,ALWAYS ON DISCRETE,STAIRWAY-SCH-F-SPACE FUNCTION ZN,1875.00,9.3,9.500E-002,5.067E-005,2.500E-004,4.800E-002,0.000,0.000,0.224,0.000
 ZoneInfiltration Airflow Stats Nominal, STAIRWAY-SCH-H-SPACE FUNCTION INFILTRATION,ALWAYS ON DISCRETE,STAIRWAY-SCH-H-SPACE FUNCTION ZN,1875.00,9.3,9.500E-002,5.067E-005,2.500E-004,4.800E-002,0.000,0.000,0.224,0.000
 ZoneInfiltration Airflow Stats Nominal, STAIRWAY-SCH-I-SPACE FUNCTION INFILTRATION,ALWAYS ON DISCRETE,STAIRWAY-SCH-I-SPACE FUNCTION ZN,1875.00,9.3,9.500E-002,5.067E-005,2.500E-004,4.800E-002,0.000,0.000,0.224,0.000
 ZoneInfiltration Airflow Stats Nominal, STORAGE AREA - OCCSENS-SPACE FUNCTION INFILTRATION,ALWAYS ON DISCRETE,STORAGE AREA - OCCSENS-SPACE FUNCTION ZN,1875.00,18.8,9.500E-002,5.067E-005,2.500E-004,4.800E-002,0.000,0.000,0.224,0.000
 ZoneInfiltration Airflow Stats Nominal, STORAGE AREA - REFRIGERATED-SPACE FUNCTION INFILTRATION,ALWAYS ON DISCRETE,STORAGE AREA - REFRIGERATED-SPACE FUNCTION ZN,1875.00,18.8,9.500E-002,5.067E-005,2.500E-004,4.800E-002,0.000,0.000,0.224,0.000
 ZoneInfiltration Airflow Stats Nominal, STORAGE AREA-SPACE FUNCTION INFILTRATION,ALWAYS ON DISCRETE,STORAGE AREA-SPACE FUNCTION ZN,1875.00,18.8,9.500E-002,5.067E-005,2.500E-004,4.800E-002,0.000,0.000,0.224,0.000
 ZoneInfiltration Airflow Stats Nominal, TRANSP. BAGGAGE-SPACE FUNCTION INFILTRATION,ALWAYS ON DISCRETE,TRANSP. BAGGAGE-SPACE FUNCTION ZN,1875.00,93.8,9.500E-002,5.067E-005,2.500E-004,4.800E-002,0.000,0.000,0.224,0.000
 ZoneInfiltration Airflow Stats Nominal, WAREHOUSE - FINE - REFRIGERATED-SPACE FUNCTION INFILTRATION,ALWAYS ON DISCRETE,WAREHOUSE - FINE - REFRIGERATED-SPACE FUNCTION ZN,1875.00,37.5,9.500E-002,5.067E-005,2.500E-004,4.800E-002,0.000,0.000,0.224,0.000
 ZoneInfiltration Airflow Stats Nominal, WAREHOUSE - FINE-SPACE FUNCTION INFILTRATION,ALWAYS ON DISCRETE,WAREHOUSE - FINE-SPACE FUNCTION ZN,1875.00,37.5,9.500E-002,5.067E-005,2.500E-004,4.800E-002,0.000,0.000,0.224,0.000
 ZoneInfiltration Airflow Stats Nominal, WAREHOUSE - MED/BLK-SPACE FUNCTION INFILTRATION,ALWAYS ON DISCRETE,WAREHOUSE - MED/BLK-SPACE FUNCTION ZN,1875.00,18.8,9.500E-002,5.067E-005,2.500E-004,4.800E-002,0.000,0.000,0.224,0.000
 ZoneInfiltration Airflow Stats Nominal, WAREHOUSE - MED/BLK2 - REFRIGERATED-SPACE FUNCTION INFILTRATION,ALWAYS ON DISCRETE,WAREHOUSE - MED/BLK2 - REFRIGERATED-SPACE FUNCTION ZN,1875.00,18.8,9.500E-002,5.067E-005,2.500E-004,4.800E-002,0.000,0.000,0.224,0.000
 ZoneInfiltration Airflow Stats Nominal, WAREHOUSE - MED/BLK2-SPACE FUNCTION INFILTRATION,ALWAYS ON DISCRETE,WAREHOUSE - MED/BLK2-SPACE FUNCTION ZN,1875.00,18.8,9.500E-002,5.067E-005,2.500E-004,4.800E-002,0.000,0.000,0.224,0.000
 ZoneInfiltration Airflow Stats Nominal, WASHROOM-SCH-B-SPACE FUNCTION INFILTRATION,ALWAYS ON DISCRETE,WASHROOM-SCH-B-SPACE FUNCTION ZN,1875.00,62.6,9.500E-002,5.067E-005,2.500E-004,4.800E-002,0.000,0.000,0.224,0.000
! <AirFlow Model>, Simple
 AirFlow Model, Simple
! <RoomAir Model>, Zone Name, Mixing/Mundt/UCSDDV/UCSDCV/UCSDUFI/UCSDUFE/User Defined
RoomAir Model,PENITENTIARY - DINING-SPACE FUNCTION ZN,Mixing/Well-Stirred
RoomAir Model,POST OFFICE SORTING-SPACE FUNCTION ZN,Mixing/Well-Stirred
RoomAir Model,RELIGIOUS - AUDIENCE-SPACE FUNCTION ZN,Mixing/Well-Stirred
RoomAir Model,RELIGIOUS - FELLOWSHIP HALL-SPACE FUNCTION ZN,Mixing/Well-Stirred
RoomAir Model,RELIGIOUS - PULPIT/CHOIR-SPACE FUNCTION ZN,Mixing/Well-Stirred
RoomAir Model,RETAIL - DRESSING/FITTING-SPACE FUNCTION ZN,Mixing/Well-Stirred
RoomAir Model,RETAIL - MALL CONCOURSE-SPACE FUNCTION ZN,Mixing/Well-Stirred
RoomAir Model,RETAIL - SALES-SPACE FUNCTION ZN,Mixing/Well-Stirred
RoomAir Model,SALES AREA-SPACE FUNCTION ZN,Mixing/Well-Stirred
RoomAir Model,SPORTS ARENA - AUDIENCE-SPACE FUNCTION ZN,Mixing/Well-Stirred
RoomAir Model,SPORTS ARENA - COURT C1-SPACE FUNCTION ZN,Mixing/Well-Stirred
RoomAir Model,SPORTS ARENA - COURT C2-SPACE FUNCTION ZN,Mixing/Well-Stirred
RoomAir Model,SPORTS ARENA - COURT C3-SPACE FUNCTION ZN,Mixing/Well-Stirred
RoomAir Model,SPORTS ARENA - COURT C4-SPACE FUNCTION ZN,Mixing/Well-Stirred
RoomAir Model,SPORTS ARENA - RING-SPACE FUNCTION ZN,Mixing/Well-Stirred
RoomAir Model,STAIRWAY-SCH-A-SPACE FUNCTION ZN,Mixing/Well-Stirred
RoomAir Model,STAIRWAY-SCH-B-SPACE FUNCTION ZN,Mixing/Well-Stirred
RoomAir Model,STAIRWAY-SCH-C-SPACE FUNCTION ZN,Mixing/Well-Stirred
RoomAir Model,STAIRWAY-SCH-D-SPACE FUNCTION ZN,Mixing/Well-Stirred
RoomAir Model,STAIRWAY-SCH-E-SPACE FUNCTION ZN,Mixing/Well-Stirred
RoomAir Model,STAIRWAY-SCH-F-SPACE FUNCTION ZN,Mixing/Well-Stirred
RoomAir Model,STAIRWAY-SCH-G-SPACE FUNCTION ZN,Mixing/Well-Stirred
RoomAir Model,STAIRWAY-SCH-H-SPACE FUNCTION ZN,Mixing/Well-Stirred
RoomAir Model,STAIRWAY-SCH-I-SPACE FUNCTION ZN,Mixing/Well-Stirred
RoomAir Model,STORAGE AREA - OCCSENS-SPACE FUNCTION ZN,Mixing/Well-Stirred
RoomAir Model,STORAGE AREA - REFRIGERATED - OCCSENS-SPACE FUNCTION ZN,Mixing/Well-Stirred
RoomAir Model,STORAGE AREA - REFRIGERATED-SPACE FUNCTION ZN,Mixing/Well-Stirred
RoomAir Model,STORAGE AREA-SPACE FUNCTION ZN,Mixing/Well-Stirred
RoomAir Model,TRANSP. BAGGAGE-SPACE FUNCTION ZN,Mixing/Well-Stirred
RoomAir Model,TRANSP. CONCOURSE-SPACE FUNCTION ZN,Mixing/Well-Stirred
RoomAir Model,TRANSP. COUNTER-SPACE FUNCTION ZN,Mixing/Well-Stirred
RoomAir Model,TRANSP. SEATING-SPACE FUNCTION ZN,Mixing/Well-Stirred
RoomAir Model,WAREHOUSE - FINE - REFRIGERATED-SPACE FUNCTION ZN,Mixing/Well-Stirred
RoomAir Model,WAREHOUSE - FINE-SPACE FUNCTION ZN,Mixing/Well-Stirred
RoomAir Model,WAREHOUSE - MED/BLK - REFRIGERATED-SPACE FUNCTION ZN,Mixing/Well-Stirred
RoomAir Model,WAREHOUSE - MED/BLK-SPACE FUNCTION ZN,Mixing/Well-Stirred
RoomAir Model,WAREHOUSE - MED/BLK2 - REFRIGERATED-SPACE FUNCTION ZN,Mixing/Well-Stirred
RoomAir Model,WAREHOUSE - MED/BLK2-SPACE FUNCTION ZN,Mixing/Well-Stirred
RoomAir Model,WASHROOM-SCH-A-SPACE FUNCTION ZN,Mixing/Well-Stirred
RoomAir Model,WASHROOM-SCH-B-SPACE FUNCTION ZN,Mixing/Well-Stirred
! <AirflowNetwork Model:Control>, No Multizone or Distribution/Multizone with Distribution/Multizone without Distribution/Multizone with Distribution only during Fan Operation
AirflowNetwork Model:Control,NoMultizoneOrDistribution
! <Zone Volume Capacitance Multiplier>, Sensible Heat Capacity Multiplier, Moisture Capacity Multiplier, Carbon Dioxide Capacity Multiplier, Generic Contaminant Capacity Multiplier
Zone Volume Capacitance Multiplier,   1.000 ,   1.000,   1.000,   1.000
! <Load Timesteps in Zone Design Calculation Averaging Window>, Value
 Load Timesteps in Zone Design Calculation Averaging Window,    6
! <Heating Sizing Factor Information>, Sizing Factor ID, Value
 Heating Sizing Factor Information, Global,   1.2500    
 Heating Sizing Factor Information, Zone PENITENTIARY - DINING-SPACE FUNCTION ZN,   1.2500    
 Heating Sizing Factor Information, Zone POST OFFICE SORTING-SPACE FUNCTION ZN,   1.2500    
 Heating Sizing Factor Information, Zone RELIGIOUS - AUDIENCE-SPACE FUNCTION ZN,   1.2500    
 Heating Sizing Factor Information, Zone RELIGIOUS - FELLOWSHIP HALL-SPACE FUNCTION ZN,   1.2500    
 Heating Sizing Factor Information, Zone RELIGIOUS - PULPIT/CHOIR-SPACE FUNCTION ZN,   1.2500    
 Heating Sizing Factor Information, Zone RETAIL - DRESSING/FITTING-SPACE FUNCTION ZN,   1.2500    
 Heating Sizing Factor Information, Zone RETAIL - MALL CONCOURSE-SPACE FUNCTION ZN,   1.2500    
 Heating Sizing Factor Information, Zone RETAIL - SALES-SPACE FUNCTION ZN,   1.2500    
 Heating Sizing Factor Information, Zone SALES AREA-SPACE FUNCTION ZN,   1.2500    
 Heating Sizing Factor Information, Zone SPORTS ARENA - AUDIENCE-SPACE FUNCTION ZN,   1.2500    
 Heating Sizing Factor Information, Zone SPORTS ARENA - COURT C1-SPACE FUNCTION ZN,   1.2500    
 Heating Sizing Factor Information, Zone SPORTS ARENA - COURT C2-SPACE FUNCTION ZN,   1.2500    
 Heating Sizing Factor Information, Zone SPORTS ARENA - COURT C3-SPACE FUNCTION ZN,   1.2500    
 Heating Sizing Factor Information, Zone SPORTS ARENA - COURT C4-SPACE FUNCTION ZN,   1.2500    
 Heating Sizing Factor Information, Zone SPORTS ARENA - RING-SPACE FUNCTION ZN,   1.2500    
 Heating Sizing Factor Information, Zone STAIRWAY-SCH-A-SPACE FUNCTION ZN,   1.2500    
 Heating Sizing Factor Information, Zone STAIRWAY-SCH-B-SPACE FUNCTION ZN,   1.2500    
 Heating Sizing Factor Information, Zone STAIRWAY-SCH-C-SPACE FUNCTION ZN,   1.2500    
 Heating Sizing Factor Information, Zone STAIRWAY-SCH-D-SPACE FUNCTION ZN,   1.2500    
 Heating Sizing Factor Information, Zone STAIRWAY-SCH-E-SPACE FUNCTION ZN,   1.2500    
 Heating Sizing Factor Information, Zone STAIRWAY-SCH-F-SPACE FUNCTION ZN,   1.2500    
 Heating Sizing Factor Information, Zone STAIRWAY-SCH-G-SPACE FUNCTION ZN,   1.2500    
 Heating Sizing Factor Information, Zone STAIRWAY-SCH-H-SPACE FUNCTION ZN,   1.2500    
 Heating Sizing Factor Information, Zone STAIRWAY-SCH-I-SPACE FUNCTION ZN,   1.2500    
 Heating Sizing Factor Information, Zone STORAGE AREA - OCCSENS-SPACE FUNCTION ZN,   1.2500    
 Heating Sizing Factor Information, Zone STORAGE AREA - REFRIGERATED - OCCSENS-SPACE FUNCTION ZN,   1.2500    
 Heating Sizing Factor Information, Zone STORAGE AREA - REFRIGERATED-SPACE FUNCTION ZN,   1.2500    
 Heating Sizing Factor Information, Zone STORAGE AREA-SPACE FUNCTION ZN,   1.2500    
 Heating Sizing Factor Information, Zone TRANSP. BAGGAGE-SPACE FUNCTION ZN,   1.2500    
 Heating Sizing Factor Information, Zone TRANSP. CONCOURSE-SPACE FUNCTION ZN,   1.2500    
 Heating Sizing Factor Information, Zone TRANSP. COUNTER-SPACE FUNCTION ZN,   1.2500    
 Heating Sizing Factor Information, Zone TRANSP. SEATING-SPACE FUNCTION ZN,   1.2500    
 Heating Sizing Factor Information, Zone WAREHOUSE - FINE - REFRIGERATED-SPACE FUNCTION ZN,   1.2500    
 Heating Sizing Factor Information, Zone WAREHOUSE - FINE-SPACE FUNCTION ZN,   1.2500    
 Heating Sizing Factor Information, Zone WAREHOUSE - MED/BLK - REFRIGERATED-SPACE FUNCTION ZN,   1.2500    
 Heating Sizing Factor Information, Zone WAREHOUSE - MED/BLK-SPACE FUNCTION ZN,   1.2500    
 Heating Sizing Factor Information, Zone WAREHOUSE - MED/BLK2 - REFRIGERATED-SPACE FUNCTION ZN,   1.2500    
 Heating Sizing Factor Information, Zone WAREHOUSE - MED/BLK2-SPACE FUNCTION ZN,   1.2500    
 Heating Sizing Factor Information, Zone WASHROOM-SCH-A-SPACE FUNCTION ZN,   1.2500    
 Heating Sizing Factor Information, Zone WASHROOM-SCH-B-SPACE FUNCTION ZN,   1.2500    
! <Cooling Sizing Factor Information>, Sizing Factor ID, Value
 Cooling Sizing Factor Information, Global,   1.1500    
 Cooling Sizing Factor Information, Zone PENITENTIARY - DINING-SPACE FUNCTION ZN,   1.1500    
 Cooling Sizing Factor Information, Zone POST OFFICE SORTING-SPACE FUNCTION ZN,   1.1500    
 Cooling Sizing Factor Information, Zone RELIGIOUS - AUDIENCE-SPACE FUNCTION ZN,   1.1500    
 Cooling Sizing Factor Information, Zone RELIGIOUS - FELLOWSHIP HALL-SPACE FUNCTION ZN,   1.1500    
 Cooling Sizing Factor Information, Zone RELIGIOUS - PULPIT/CHOIR-SPACE FUNCTION ZN,   1.1500    
 Cooling Sizing Factor Information, Zone RETAIL - DRESSING/FITTING-SPACE FUNCTION ZN,   1.1500    
 Cooling Sizing Factor Information, Zone RETAIL - MALL CONCOURSE-SPACE FUNCTION ZN,   1.1500    
 Cooling Sizing Factor Information, Zone RETAIL - SALES-SPACE FUNCTION ZN,   1.1500    
 Cooling Sizing Factor Information, Zone SALES AREA-SPACE FUNCTION ZN,   1.1500    
 Cooling Sizing Factor Information, Zone SPORTS ARENA - AUDIENCE-SPACE FUNCTION ZN,   1.1500    
 Cooling Sizing Factor Information, Zone SPORTS ARENA - COURT C1-SPACE FUNCTION ZN,   1.1500    
 Cooling Sizing Factor Information, Zone SPORTS ARENA - COURT C2-SPACE FUNCTION ZN,   1.1500    
 Cooling Sizing Factor Information, Zone SPORTS ARENA - COURT C3-SPACE FUNCTION ZN,   1.1500    
 Cooling Sizing Factor Information, Zone SPORTS ARENA - COURT C4-SPACE FUNCTION ZN,   1.1500    
 Cooling Sizing Factor Information, Zone SPORTS ARENA - RING-SPACE FUNCTION ZN,   1.1500    
 Cooling Sizing Factor Information, Zone STAIRWAY-SCH-A-SPACE FUNCTION ZN,   1.1500    
 Cooling Sizing Factor Information, Zone STAIRWAY-SCH-B-SPACE FUNCTION ZN,   1.1500    
 Cooling Sizing Factor Information, Zone STAIRWAY-SCH-C-SPACE FUNCTION ZN,   1.1500    
 Cooling Sizing Factor Information, Zone STAIRWAY-SCH-D-SPACE FUNCTION ZN,   1.1500    
 Cooling Sizing Factor Information, Zone STAIRWAY-SCH-E-SPACE FUNCTION ZN,   1.1500    
 Cooling Sizing Factor Information, Zone STAIRWAY-SCH-F-SPACE FUNCTION ZN,   1.1500    
 Cooling Sizing Factor Information, Zone STAIRWAY-SCH-G-SPACE FUNCTION ZN,   1.1500    
 Cooling Sizing Factor Information, Zone STAIRWAY-SCH-H-SPACE FUNCTION ZN,   1.1500    
 Cooling Sizing Factor Information, Zone STAIRWAY-SCH-I-SPACE FUNCTION ZN,   1.1500    
 Cooling Sizing Factor Information, Zone STORAGE AREA - OCCSENS-SPACE FUNCTION ZN,   1.1500    
 Cooling Sizing Factor Information, Zone STORAGE AREA - REFRIGERATED - OCCSENS-SPACE FUNCTION ZN,   1.1500    
 Cooling Sizing Factor Information, Zone STORAGE AREA - REFRIGERATED-SPACE FUNCTION ZN,   1.1500    
 Cooling Sizing Factor Information, Zone STORAGE AREA-SPACE FUNCTION ZN,   1.1500    
 Cooling Sizing Factor Information, Zone TRANSP. BAGGAGE-SPACE FUNCTION ZN,   1.1500    
 Cooling Sizing Factor Information, Zone TRANSP. CONCOURSE-SPACE FUNCTION ZN,   1.1500    
 Cooling Sizing Factor Information, Zone TRANSP. COUNTER-SPACE FUNCTION ZN,   1.1500    
 Cooling Sizing Factor Information, Zone TRANSP. SEATING-SPACE FUNCTION ZN,   1.1500    
 Cooling Sizing Factor Information, Zone WAREHOUSE - FINE - REFRIGERATED-SPACE FUNCTION ZN,   1.1500    
 Cooling Sizing Factor Information, Zone WAREHOUSE - FINE-SPACE FUNCTION ZN,   1.1500    
 Cooling Sizing Factor Information, Zone WAREHOUSE - MED/BLK - REFRIGERATED-SPACE FUNCTION ZN,   1.1500    
 Cooling Sizing Factor Information, Zone WAREHOUSE - MED/BLK-SPACE FUNCTION ZN,   1.1500    
 Cooling Sizing Factor Information, Zone WAREHOUSE - MED/BLK2 - REFRIGERATED-SPACE FUNCTION ZN,   1.1500    
 Cooling Sizing Factor Information, Zone WAREHOUSE - MED/BLK2-SPACE FUNCTION ZN,   1.1500    
 Cooling Sizing Factor Information, Zone WASHROOM-SCH-A-SPACE FUNCTION ZN,   1.1500    
 Cooling Sizing Factor Information, Zone WASHROOM-SCH-B-SPACE FUNCTION ZN,   1.1500    
! <Zone Sizing Information>, Zone Name, Load Type, Calc Des Load {W}, User Des Load {W}, Calc Des Air Flow Rate {m3/s}, User Des Air Flow Rate {m3/s}, Design Day Name, Date/Time of Peak, Temperature at Peak {C}, Humidity Ratio at Peak {kgWater/kgDryAir}, Floor Area {m2}, # Occupants, Calc Outdoor Air Flow Rate {m3/s}, Calc DOAS Heat Addition Rate {W}
 Zone Sizing Information, PENITENTIARY - DINING-SPACE FUNCTION ZN, Cooling, 88292.42888, 101536.29322, 6.49902, 7.47388, FORT MCMURRAY AP ANN CLG .4% CONDNS DB=>MWB, 7/21 09:00:00, 22.08000, 8.76969E-003, 1875.00000, 187.49386, 6.71513, 0.00000
 Zone Sizing Information, PENITENTIARY - DINING-SPACE FUNCTION ZN, Heating, 47382.14700, 59227.68375, 2.19640, 6.71513, FORT MCMURRAY AP ANN HTG 99.6% CONDNS DB, 1/21 10:00:00, -36.20000, 1.25811E-004, 1875.00000, 187.49386, 6.71513, 0.00000
 Zone Sizing Information, POST OFFICE SORTING-SPACE FUNCTION ZN, Cooling, 74460.80639, 85629.92735, 6.33020, 7.27973, FORT MCMURRAY AP ANN CLG .4% CONDNS DB=>MWB, 7/21 14:30:00, 28.90000, 8.76969E-003, 1875.00000, 93.84784, 1.64783, 0.00000
 Zone Sizing Information, POST OFFICE SORTING-SPACE FUNCTION ZN, Heating, 50141.77771, 62677.22214, 2.32660, 2.90825, FORT MCMURRAY AP ANN HTG 99.6% CONDNS DB, 1/21 08:00:00, -36.20000, 1.25811E-004, 1875.00000, 93.84784, 1.64783, 0.00000
 Zone Sizing Information, RELIGIOUS - AUDIENCE-SPACE FUNCTION ZN, Cooling, 116477.56835, 133949.20360, 7.87242, 9.05328, FORT MCMURRAY AP ANN CLG .4% CONDNS DB=>MWB, 7/21 15:00:00, 28.90000, 8.76969E-003, 2500.00000, 499.98364, 8.38200, 0.00000
 Zone Sizing Information, RELIGIOUS - AUDIENCE-SPACE FUNCTION ZN, Heating, 35308.47661, 44135.59577, 1.45782, 8.38200, FORT MCMURRAY AP ANN HTG 99.6% CONDNS DB, 1/21 15:00:00, -36.20000, 1.25811E-004, 2500.00000, 499.98364, 8.38200, 0.00000
 Zone Sizing Information, RELIGIOUS - FELLOWSHIP HALL-SPACE FUNCTION ZN, Cooling, 57861.23366, 66540.41871, 4.92066, 8.38200, FORT MCMURRAY AP ANN CLG .4% CONDNS DB=>MWB, 7/21 17:00:00, 27.16400, 8.76969E-003, 2500.00000, 499.98364, 8.38200, 0.00000
 Zone Sizing Information, RELIGIOUS - FELLOWSHIP HALL-SPACE FUNCTION ZN, Heating, 0.00000, 0.00000, 0.00000, 8.38200, FORT MCMURRAY AP ANN HTG 99.6% CONDNS DB, , -36.20000, 1.25811E-004, 2500.00000, 499.98364, 8.38200, 0.00000
 Zone Sizing Information, RELIGIOUS - PULPIT/CHOIR-SPACE FUNCTION ZN, Cooling, 60823.41362, 69946.92566, 4.49889, 6.28650, FORT MCMURRAY AP ANN CLG .4% CONDNS DB=>MWB, 7/21 15:00:00, 28.90000, 8.76969E-003, 1875.00000, 374.98773, 6.28650, 0.00000
 Zone Sizing Information, RELIGIOUS - PULPIT/CHOIR-SPACE FUNCTION ZN, Heating, 17278.17130, 21597.71412, 0.77642, 6.28650, FORT MCMURRAY AP ANN HTG 99.6% CONDNS DB, 1/21 16:00:00, -36.20000, 1.25811E-004, 1875.00000, 374.98773, 6.28650, 0.00000
 Zone Sizing Information, RETAIL - DRESSING/FITTING-SPACE FUNCTION ZN, Cooling, 52168.39213, 59993.65095, 3.96379, 4.55836, FORT MCMURRAY AP ANN CLG .4% CONDNS DB=>MWB, 7/21 08:00:00, 19.72400, 8.76969E-003, 1875.00000, 62.56523, 2.21933, 0.00000
 Zone Sizing Information, RETAIL - DRESSING/FITTING-SPACE FUNCTION ZN, Heating, 20709.45913, 25886.82391, 0.93812, 2.21933, FORT MCMURRAY AP ANN HTG 99.6% CONDNS DB, 1/21 09:00:00, -36.20000, 1.25811E-004, 1875.00000, 62.56523, 2.21933, 0.00000
 Zone Sizing Information, RETAIL - MALL CONCOURSE-SPACE FUNCTION ZN, Cooling, 47091.19373, 54154.87279, 4.00359, 4.60413, FORT MCMURRAY AP ANN CLG .4% CONDNS DB=>MWB, 7/21 14:00:00, 28.90000, 8.76969E-003, 1875.00000, 93.84784, 3.42900, 0.00000
 Zone Sizing Information, RETAIL - MALL CONCOURSE-SPACE FUNCTION ZN, Heating, 4623.36105, 5779.20131, 0.20877, 3.42900, FORT MCMURRAY AP ANN HTG 99.6% CONDNS DB, 1/21 09:00:00, -36.20000, 1.25811E-004, 1875.00000, 93.84784, 3.42900, 0.00000
 Zone Sizing Information, RETAIL - SALES-SPACE FUNCTION ZN, Cooling, 64492.70546, 74166.61128, 5.48291, 6.30534, FORT MCMURRAY AP ANN CLG .4% CONDNS DB=>MWB, 7/21 18:00:00, 25.92400, 8.76969E-003, 1875.00000, 62.56523, 2.21933, 0.00000
 Zone Sizing Information, RETAIL - SALES-SPACE FUNCTION ZN, Heating, 11941.14146, 14926.42682, 0.52866, 2.21933, FORT MCMURRAY AP ANN HTG 99.6% CONDNS DB, 1/21 09:00:00, -36.20000, 1.25811E-004, 1875.00000, 62.56523, 2.21933, 0.00000
 Zone Sizing Information, SALES AREA-SPACE FUNCTION ZN, Cooling, 54304.35585, 62450.00923, 4.10415, 4.71977, FORT MCMURRAY AP ANN CLG .4% CONDNS DB=>MWB, 7/21 08:00:00, 19.72400, 8.76969E-003, 1875.00000, 62.56523, 2.21933, 0.00000
 Zone Sizing Information, SALES AREA-SPACE FUNCTION ZN, Heating, 5805.86541, 7257.33176, 0.25577, 2.21933, FORT MCMURRAY AP ANN HTG 99.6% CONDNS DB, 1/21 08:50:00, -36.20000, 1.25811E-004, 1875.00000, 62.56523, 2.21933, 0.00000
 Zone Sizing Information, SPORTS ARENA - AUDIENCE-SPACE FUNCTION ZN, Cooling, 93281.67771, 107273.92937, 7.93260, 11.28713, FORT MCMURRAY AP ANN CLG .4% CONDNS DB=>MWB, 7/21 13:10:00, 28.38333, 8.76969E-003, 1875.00000, 374.98773, 11.28713, 0.00000
 Zone Sizing Information, SPORTS ARENA - AUDIENCE-SPACE FUNCTION ZN, Heating, 49942.18116, 62427.72645, 2.31709, 11.28713, FORT MCMURRAY AP ANN HTG 99.6% CONDNS DB, 1/21 10:00:00, -36.20000, 1.25811E-004, 1875.00000, 374.98773, 11.28713, 0.00000
 Zone Sizing Information, SPORTS ARENA - COURT C1-SPACE FUNCTION ZN, Cooling, 84766.85203, 97481.87983, 7.20753, 8.28866, FORT MCMURRAY AP ANN CLG .4% CONDNS DB=>MWB, 7/21 20:00:00, 22.70000, 8.76969E-003, 1875.00000, 374.98773, 2.85750, 0.00000
 Zone Sizing Information, SPORTS ARENA - COURT C1-SPACE FUNCTION ZN, Heating, 0.00000, 0.00000, 0.00000, 2.85750, FORT MCMURRAY AP ANN HTG 99.6% CONDNS DB, , -36.20000, 1.25811E-004, 1875.00000, 374.98773, 2.85750, 0.00000
 Zone Sizing Information, SPORTS ARENA - COURT C2-SPACE FUNCTION ZN, Cooling, 66242.09615, 76178.41057, 5.63307, 6.47803, FORT MCMURRAY AP ANN CLG .4% CONDNS DB=>MWB, 7/21 13:00:00, 28.28000, 8.76969E-003, 1875.00000, 374.98773, 2.85750, 0.00000
 Zone Sizing Information, SPORTS ARENA - COURT C2-SPACE FUNCTION ZN, Heating, 0.00000, 0.00000, 0.00000, 2.85750, FORT MCMURRAY AP ANN HTG 99.6% CONDNS DB, , -36.20000, 1.25811E-004, 1875.00000, 374.98773, 2.85750, 0.00000
 Zone Sizing Information, SPORTS ARENA - COURT C3-SPACE FUNCTION ZN, Cooling, 58212.43249, 66944.29737, 4.38597, 5.04386, FORT MCMURRAY AP ANN CLG .4% CONDNS DB=>MWB, 7/21 09:00:00, 22.08000, 8.76969E-003, 1875.00000, 374.98773, 2.85750, 0.00000
 Zone Sizing Information, SPORTS ARENA - COURT C3-SPACE FUNCTION ZN, Heating, 3190.58685, 3988.23356, 0.14462, 2.85750, FORT MCMURRAY AP ANN HTG 99.6% CONDNS DB, 1/21 09:10:00, -36.20000, 1.25811E-004, 1875.00000, 374.98773, 2.85750, 0.00000
 Zone Sizing Information, SPORTS ARENA - COURT C4-SPACE FUNCTION ZN, Cooling, 36947.28710, 42489.38016, 3.14175, 3.61302, FORT MCMURRAY AP ANN CLG .4% CONDNS DB=>MWB, 7/21 20:20:00, 22.32800, 8.76969E-003, 1875.00000, 374.98773, 2.85750, 0.00000
 Zone Sizing Information, SPORTS ARENA - COURT C4-SPACE FUNCTION ZN, Heating, 4784.47534, 5980.59417, 0.21429, 2.85750, FORT MCMURRAY AP ANN HTG 99.6% CONDNS DB, 1/21 09:40:00, -36.20000, 1.25811E-004, 1875.00000, 374.98773, 2.85750, 0.00000
 Zone Sizing Information, SPORTS ARENA - RING-SPACE FUNCTION ZN, Cooling, 65056.16268, 74814.58708, 5.53197, 6.36177, FORT MCMURRAY AP ANN CLG .4% CONDNS DB=>MWB, 7/21 20:20:00, 22.32800, 8.76969E-003, 1875.00000, 374.98773, 2.85750, 0.00000
 Zone Sizing Information, SPORTS ARENA - RING-SPACE FUNCTION ZN, Heating, 1043.83089, 1304.78861, 4.85342E-002, 2.85750, FORT MCMURRAY AP ANN HTG 99.6% CONDNS DB, 1/21 09:10:00, -36.20000, 1.25811E-004, 1875.00000, 374.98773, 2.85750, 0.00000
 Zone Sizing Information, STAIRWAY-SCH-A-SPACE FUNCTION ZN, Cooling, 24462.03649, 28131.34197, 1.89888, 2.18371, FORT MCMURRAY AP ANN CLG .4% CONDNS DB=>MWB, 7/21 07:00:00, 17.61600, 8.76969E-003, 2500.00000, 12.37850, 0.76200, 0.00000
 Zone Sizing Information, STAIRWAY-SCH-A-SPACE FUNCTION ZN, Heating, 0.00000, 0.00000, 0.00000, 0.76200, FORT MCMURRAY AP ANN HTG 99.6% CONDNS DB, , -36.20000, 1.25811E-004, 2500.00000, 12.37850, 0.76200, 0.00000
 Zone Sizing Information, STAIRWAY-SCH-B-SPACE FUNCTION ZN, Cooling, 31310.99104, 36007.63969, 2.66178, 3.06105, FORT MCMURRAY AP ANN CLG .4% CONDNS DB=>MWB, 7/21 18:20:00, 25.30400, 8.76968E-003, 1875.00000, 9.28387, 0.57150, 0.00000
 Zone Sizing Information, STAIRWAY-SCH-B-SPACE FUNCTION ZN, Heating, 15883.92333, 19854.90416, 0.71034, 0.88793, FORT MCMURRAY AP ANN HTG 99.6% CONDNS DB, 1/21 10:00:00, -36.20000, 1.25811E-004, 1875.00000, 9.28387, 0.57150, 0.00000
 Zone Sizing Information, STAIRWAY-SCH-C-SPACE FUNCTION ZN, Cooling, 11664.16639, 13413.79135, 0.99159, 1.14033, FORT MCMURRAY AP ANN CLG .4% CONDNS DB=>MWB, 7/21 17:00:00, 27.16400, 8.76969E-003, 1875.00000, 9.28387, 0.57150, 0.00000
 Zone Sizing Information, STAIRWAY-SCH-C-SPACE FUNCTION ZN, Heating, 1727.93419, 2159.91773, 7.98251E-002, 0.57150, FORT MCMURRAY AP ANN HTG 99.6% CONDNS DB, 1/21 08:10:00, -36.20000, 1.25811E-004, 1875.00000, 9.28387, 0.57150, 0.00000
 Zone Sizing Information, STAIRWAY-SCH-D-SPACE FUNCTION ZN, Cooling, 71024.68738, 81678.39049, 6.03795, 6.94364, FORT MCMURRAY AP ANN CLG .4% CONDNS DB=>MWB, 7/21 16:00:00, 28.15600, 8.76969E-003, 1875.00000, 9.28387, 0.57150, 0.00000
 Zone Sizing Information, STAIRWAY-SCH-D-SPACE FUNCTION ZN, Heating, 51286.65087, 64108.31359, 2.38027, 2.97534, FORT MCMURRAY AP ANN HTG 99.6% CONDNS DB, 1/21 09:00:00, -36.20000, 1.25811E-004, 1875.00000, 9.28387, 0.57150, 0.00000
 Zone Sizing Information, STAIRWAY-SCH-E-SPACE FUNCTION ZN, Cooling, 15336.82427, 17637.34791, 1.30381, 1.49938, FORT MCMURRAY AP ANN CLG .4% CONDNS DB=>MWB, 7/21 16:00:00, 28.15600, 8.76969E-003, 2500.00000, 12.37850, 0.76200, 0.00000
[...]
 Component Sizing Information, ZoneHVAC:IdealLoadsAirSystem, ZONE HVAC IDEAL LOADS AIR SYSTEM 38, User-Specified Maximum Cooling Air Flow Rate [m3/s], 0.00000
 Component Sizing Information, ZoneHVAC:IdealLoadsAirSystem, ZONE HVAC IDEAL LOADS AIR SYSTEM 39, User-Specified Maximum Heating Air Flow Rate [m3/s], 0.00000
 Component Sizing Information, ZoneHVAC:IdealLoadsAirSystem, ZONE HVAC IDEAL LOADS AIR SYSTEM 39, User-Specified Maximum Cooling Air Flow Rate [m3/s], 0.00000
 Component Sizing Information, ZoneHVAC:IdealLoadsAirSystem, ZONE HVAC IDEAL LOADS AIR SYSTEM 40, User-Specified Maximum Heating Air Flow Rate [m3/s], 0.00000
 Component Sizing Information, ZoneHVAC:IdealLoadsAirSystem, ZONE HVAC IDEAL LOADS AIR SYSTEM 40, User-Specified Maximum Cooling Air Flow Rate [m3/s], 0.00000
! <Environment>,Environment Name,Environment Type, Start Date, End Date, Start DayOfWeek, Duration {#days}, Source:Start DayOfWeek,  Use Daylight Saving, Use Holidays, Apply Weekend Holiday Rule,  Use Rain Values, Use Snow Values
! <Environment:Special Days>, Special Day Name, Special Day Type, Source, Start Date, Duration {#days}
! <Environment:Daylight Saving>, Daylight Saving Indicator, Source, Start Date, End Date
! <Environment:WarmupDays>, NumberofWarmupDays
Environment,FORT MCMURRAY AP ANN CLG .4% CONDNS DB=>MWB,SizingPeriod:DesignDay,07/21,07/21,SummerDesignDay,1,N/A,N/A,N/A,N/A,N/A,N/A
Environment:Daylight Saving,No,SizingPeriod:DesignDay
! <Environment:Design Day Data>, Max Dry-Bulb Temp {C}, Temp Range {dC}, Temp Range Ind Type, Hum Ind Value at Max Temp, Hum Ind Type,Pressure {Pa}, Wind Direction {deg CW from N}, Wind Speed {m/s}, Clearness, Rain, Snow
! <Environment:Design Day Misc>,DayOfYear,ASHRAE A Coeff,ASHRAE B Coeff,ASHRAE C Coeff,Solar Constant-Annual Variation,Eq of Time {minutes}, Solar Declination Angle {deg}, Solar Model
Environment:Design Day Data,28.90,12.40,DefaultMultipliers,96969,250,3.7,0.00,No,No
Environment:Design Day Misc,202,1084.4,0.2082,0.1365,1.0,-6.23,20.6,ASHRAETau
Environment:WarmupDays,  6
! <Tabular Report>,Style,Unit Conversion
Tabular Report,HTML,None
! <Warmup Convergence Information>,Zone Name,Environment Type/Name,Average Warmup Temperature Difference {deltaC},Std Dev Warmup Temperature Difference {deltaC},Max Temperature Pass/Fail Convergence,Min Temperature Pass/Fail Convergence,Average Warmup Load Difference {W},Std Dev Warmup Load Difference {W},Heating Load Pass/Fail Convergence,Cooling Load Pass/Fail Convergence
 Warmup Convergence Information,PENITENTIARY - DINING-SPACE FUNCTION ZN,SizingPeriod: FORT MCMURRAY AP ANN CLG .4% CONDNS DB=>MWB,6.4554899601E-002,0.1129837566,Pass,Pass,2.7930099085E-002,5.0812924440E-002,Pass,Pass
 Warmup Convergence Information,POST OFFICE SORTING-SPACE FUNCTION ZN,SizingPeriod: FORT MCMURRAY AP ANN CLG .4% CONDNS DB=>MWB,3.5684979682E-002,5.7427411873E-002,Pass,Pass,3.9978897931E-002,0.1308429068,Pass,Pass
 Warmup Convergence Information,RELIGIOUS - AUDIENCE-SPACE FUNCTION ZN,SizingPeriod: FORT MCMURRAY AP ANN CLG .4% CONDNS DB=>MWB,0.1500446210,0.4944923322,Pass,Pass,3.8924196306E-002,9.2235666537E-002,Pass,Pass
 Warmup Convergence Information,RELIGIOUS - FELLOWSHIP HALL-SPACE FUNCTION ZN,SizingPeriod: FORT MCMURRAY AP ANN CLG .4% CONDNS DB=>MWB,5.3117556476E-002,9.6531747190E-002,Pass,Pass,3.3498206440E-002,6.3383307918E-002,Pass,Pass
 Warmup Convergence Information,RELIGIOUS - PULPIT/CHOIR-SPACE FUNCTION ZN,SizingPeriod: FORT MCMURRAY AP ANN CLG .4% CONDNS DB=>MWB,0.1073088949,0.3667202299,Pass,Pass,0.1099050032,0.4095761592,Pass,Pass
 Warmup Convergence Information,RETAIL - DRESSING/FITTING-SPACE FUNCTION ZN,SizingPeriod: FORT MCMURRAY AP ANN CLG .4% CONDNS DB=>MWB,2.7841961380E-002,5.3581695801E-002,Pass,Pass,2.5928088791E-002,0.1416401498,Pass,Pass
 Warmup Convergence Information,RETAIL - MALL CONCOURSE-SPACE FUNCTION ZN,SizingPeriod: FORT MCMURRAY AP ANN CLG .4% CONDNS DB=>MWB,3.1853447450E-002,5.1999080863E-002,Pass,Pass,2.8217691830E-002,8.1957799011E-002,Pass,Pass
 Warmup Convergence Information,RETAIL - SALES-SPACE FUNCTION ZN,SizingPeriod: FORT MCMURRAY AP ANN CLG .4% CONDNS DB=>MWB,3.0605065069E-002,9.0716085688E-002,Pass,Pass,3.8390451818E-002,0.2158766975,Pass,Pass
 Warmup Convergence Information,SALES AREA-SPACE FUNCTION ZN,SizingPeriod: FORT MCMURRAY AP ANN CLG .4% CONDNS DB=>MWB,2.8905880346E-002,6.1440904280E-002,Pass,Pass,3.1936545063E-002,0.1727054091,Pass,Pass
 Warmup Convergence Information,SPORTS ARENA - AUDIENCE-SPACE FUNCTION ZN,SizingPeriod: FORT MCMURRAY AP ANN CLG .4% CONDNS DB=>MWB,7.8493445651E-002,0.1649771174,Pass,Pass,4.3251157475E-002,7.8654818629E-002,Pass,Pass
 Warmup Convergence Information,SPORTS ARENA - COURT C1-SPACE FUNCTION ZN,SizingPeriod: FORT MCMURRAY AP ANN CLG .4% CONDNS DB=>MWB,3.1120235737E-002,9.8297458491E-002,Pass,Pass,3.0455554143E-002,0.1159703530,Pass,Pass
 Warmup Convergence Information,SPORTS ARENA - COURT C2-SPACE FUNCTION ZN,SizingPeriod: FORT MCMURRAY AP ANN CLG .4% CONDNS DB=>MWB,2.1210749793E-002,5.1968596758E-002,Pass,Pass,2.9893660544E-002,8.0339878670E-002,Pass,Pass
 Warmup Convergence Information,SPORTS ARENA - COURT C3-SPACE FUNCTION ZN,SizingPeriod: FORT MCMURRAY AP ANN CLG .4% CONDNS DB=>MWB,2.9627870098E-002,8.8177747117E-002,Pass,Pass,2.2681910649E-002,6.0166759169E-002,Pass,Pass
 Warmup Convergence Information,SPORTS ARENA - COURT C4-SPACE FUNCTION ZN,SizingPeriod: FORT MCMURRAY AP ANN CLG .4% CONDNS DB=>MWB,2.5163117832E-002,5.3814038742E-002,Pass,Pass,3.3773453122E-002,6.4957588502E-002,Pass,Pass
 Warmup Convergence Information,SPORTS ARENA - RING-SPACE FUNCTION ZN,SizingPeriod: FORT MCMURRAY AP ANN CLG .4% CONDNS DB=>MWB,2.1725936599E-002,6.6690190362E-002,Pass,Pass,2.7355338631E-002,9.6173641621E-002,Pass,Pass
 Warmup Convergence Information,STAIRWAY-SCH-A-SPACE FUNCTION ZN,SizingPeriod: FORT MCMURRAY AP ANN CLG .4% CONDNS DB=>MWB,1.4252825100E-002,5.0985873000E-002,Pass,Pass,4.8770032598E-002,0.2859716508,Pass,Pass
 Warmup Convergence Information,STAIRWAY-SCH-B-SPACE FUNCTION ZN,SizingPeriod: FORT MCMURRAY AP ANN CLG .4% CONDNS DB=>MWB,2.0566531454E-002,9.5231074055E-002,Pass,Pass,4.0664538158E-002,0.2081979291,Pass,Pass
 Warmup Convergence Information,STAIRWAY-SCH-C-SPACE FUNCTION ZN,SizingPeriod: FORT MCMURRAY AP ANN CLG .4% CONDNS DB=>MWB,1.1204385911E-002,2.0713745758E-002,Pass,Pass,4.1510597870E-002,0.2338271600,Pass,Pass
 Warmup Convergence Information,STAIRWAY-SCH-D-SPACE FUNCTION ZN,SizingPeriod: FORT MCMURRAY AP ANN CLG .4% CONDNS DB=>MWB,2.0228627864E-002,3.5794025747E-002,Pass,Pass,4.9312454008E-002,0.1826905094,Pass,Pass
 Warmup Convergence Information,STAIRWAY-SCH-E-SPACE FUNCTION ZN,SizingPeriod: FORT MCMURRAY AP ANN CLG .4% CONDNS DB=>MWB,1.3352746736E-002,2.5056688055E-002,Pass,Pass,0.1130425530,0.9570262104,Pass,Pass
 Warmup Convergence Information,STAIRWAY-SCH-F-SPACE FUNCTION ZN,SizingPeriod: FORT MCMURRAY AP ANN CLG .4% CONDNS DB=>MWB,2.3906802464E-014,2.2952606163E-014,Pass,Pass,1.5446370420E-002,1.9229775906E-002,Pass,Pass
 Warmup Convergence Information,STAIRWAY-SCH-G-SPACE FUNCTION ZN,SizingPeriod: FORT MCMURRAY AP ANN CLG .4% CONDNS DB=>MWB,1.0351917696E-002,2.0763850247E-002,Pass,Pass,4.1103178335E-002,0.2236834484,Pass,Pass
 Warmup Convergence Information,STAIRWAY-SCH-H-SPACE FUNCTION ZN,SizingPeriod: FORT MCMURRAY AP ANN CLG .4% CONDNS DB=>MWB,3.8561746389E-014,3.2698073368E-014,Pass,Pass,9.0944324174E-003,9.3462301902E-003,Pass,Pass
 Warmup Convergence Information,STAIRWAY-SCH-I-SPACE FUNCTION ZN,SizingPeriod: FORT MCMURRAY AP ANN CLG .4% CONDNS DB=>MWB,5.8989621208E-002,0.3055422168,Pass,Pass,0.1912371570,0.9735139711,Pass,Pass
 Warmup Convergence Information,STORAGE AREA - OCCSENS-SPACE FUNCTION ZN,SizingPeriod: FORT MCMURRAY AP ANN CLG .4% CONDNS DB=>MWB,2.2254190078E-002,6.0500020157E-002,Pass,Pass,0.1117597490,1.0175876144,Pass,Pass
 Warmup Convergence Information,STORAGE AREA - REFRIGERATED - OCCSENS-SPACE FUNCTION ZN,SizingPeriod: FORT MCMURRAY AP ANN CLG .4% CONDNS DB=>MWB,1.5935612599E-002,3.2170550008E-002,Pass,Pass,0.1106467544,0.9179476823,Pass,Pass
 Warmup Convergence Information,STORAGE AREA - REFRIGERATED-SPACE FUNCTION ZN,SizingPeriod: FORT MCMURRAY AP ANN CLG .4% CONDNS DB=>MWB,4.7158911618E-002,0.1933017438,Pass,Pass,0.1218880578,1.1139733699,Pass,Pass
 Warmup Convergence Information,STORAGE AREA-SPACE FUNCTION ZN,SizingPeriod: FORT MCMURRAY AP ANN CLG .4% CONDNS DB=>MWB,1.8918586758E-002,5.3075408795E-002,Pass,Pass,0.1216897841,1.0619733176,Pass,Pass
 Warmup Convergence Information,TRANSP. BAGGAGE-SPACE FUNCTION ZN,SizingPeriod: FORT MCMURRAY AP ANN CLG .4% CONDNS DB=>MWB,4.7320172472E-014,3.8836080929E-014,Pass,Pass,5.7457938878E-003,4.9348156186E-003,Pass,Pass
 Warmup Convergence Information,TRANSP. CONCOURSE-SPACE FUNCTION ZN,SizingPeriod: FORT MCMURRAY AP ANN CLG .4% CONDNS DB=>MWB,4.7419427479E-002,6.6599328865E-002,Pass,Pass,2.1182702499E-002,3.2172448283E-002,Pass,Pass
 Warmup Convergence Information,TRANSP. COUNTER-SPACE FUNCTION ZN,SizingPeriod: FORT MCMURRAY AP ANN CLG .4% CONDNS DB=>MWB,4.4433592608E-014,3.5551791290E-014,Pass,Pass,1.0307964349E-003,5.7001426010E-004,Pass,Pass
 Warmup Convergence Information,TRANSP. SEATING-SPACE FUNCTION ZN,SizingPeriod: FORT MCMURRAY AP ANN CLG .4% CONDNS DB=>MWB,4.2699464262E-002,6.1099657985E-002,Pass,Pass,1.5592267014E-002,2.3587328195E-002,Pass,Pass
 Warmup Convergence Information,WAREHOUSE - FINE - REFRIGERATED-SPACE FUNCTION ZN,SizingPeriod: FORT MCMURRAY AP ANN CLG .4% CONDNS DB=>MWB,2.2908063808E-002,9.6101838031E-002,Pass,Pass,6.8133223324E-002,0.4154709233,Pass,Pass
 Warmup Convergence Information,WAREHOUSE - FINE-SPACE FUNCTION ZN,SizingPeriod: FORT MCMURRAY AP ANN CLG .4% CONDNS DB=>MWB,3.4538795079E-002,0.1408197950,Pass,Pass,8.5968417894E-002,0.5856108915,Pass,Pass
 Warmup Convergence Information,WAREHOUSE - MED/BLK - REFRIGERATED-SPACE FUNCTION ZN,SizingPeriod: FORT MCMURRAY AP ANN CLG .4% CONDNS DB=>MWB,1.1115608250E-002,2.2170875023E-002,Pass,Pass,3.6137972386E-002,0.1821009325,Pass,Pass
 Warmup Convergence Information,WAREHOUSE - MED/BLK-SPACE FUNCTION ZN,SizingPeriod: FORT MCMURRAY AP ANN CLG .4% CONDNS DB=>MWB,2.8529330196E-002,0.1155888384,Pass,Pass,5.7918325545E-002,0.3405606489,Pass,Pass
 Warmup Convergence Information,WAREHOUSE - MED/BLK2 - REFRIGERATED-SPACE FUNCTION ZN,SizingPeriod: FORT MCMURRAY AP ANN CLG .4% CONDNS DB=>MWB,4.2018785026E-002,0.2086954849,Pass,Pass,9.2337733745E-002,0.6558991045,Pass,Pass
 Warmup Convergence Information,WAREHOUSE - MED/BLK2-SPACE FUNCTION ZN,SizingPeriod: FORT MCMURRAY AP ANN CLG .4% CONDNS DB=>MWB,3.5740734664E-002,0.1718429215,Pass,Pass,8.7561226183E-002,0.5953091185,Pass,Pass
 Warmup Convergence Information,WASHROOM-SCH-A-SPACE FUNCTION ZN,SizingPeriod: FORT MCMURRAY AP ANN CLG .4% CONDNS DB=>MWB,1.2692652950E-002,2.5630077450E-002,Pass,Pass,4.1380827244E-002,0.2101525792,Pass,Pass
 Warmup Convergence Information,WASHROOM-SCH-B-SPACE FUNCTION ZN,SizingPeriod: FORT MCMURRAY AP ANN CLG .4% CONDNS DB=>MWB,2.9690459344E-002,0.1528020937,Pass,Pass,4.4803471290E-002,0.2994891346,Pass,Pass
Environment,FORT MCMURRAY AP ANN HTG 99.6% CONDNS DB,SizingPeriod:DesignDay,01/21,01/21,WinterDesignDay,1,N/A,N/A,N/A,N/A,N/A,N/A
Environment:Daylight Saving,No,SizingPeriod:DesignDay
Environment:Design Day Data,-36.20,0.00,DefaultMultipliers,96969,90,1.0,0.00,No,No
Environment:Design Day Misc, 21,1229.0,0.1415,5.7310E-002,1.0,-11.15,-20.1,ASHRAEClearSky
Environment:WarmupDays,  6
 Warmup Convergence Information,PENITENTIARY - DINING-SPACE FUNCTION ZN,SizingPeriod: FORT MCMURRAY AP ANN HTG 99.6% CONDNS DB,5.5555555556E-002,0.3885160932,Pass,Pass,6.8141827520E-002,0.2003412466,Pass,Pass
 Warmup Convergence Information,POST OFFICE SORTING-SPACE FUNCTION ZN,SizingPeriod: FORT MCMURRAY AP ANN HTG 99.6% CONDNS DB,5.5703983100E-002,0.3563202347,Pass,Pass,7.1778107193E-002,0.2467106042,Pass,Pass
 Warmup Convergence Information,RELIGIOUS - AUDIENCE-SPACE FUNCTION ZN,SizingPeriod: FORT MCMURRAY AP ANN HTG 99.6% CONDNS DB,5.5555555556E-002,0.3873323096,Pass,Pass,0.2950309980,1.0130967940,Pass,Pass
 Warmup Convergence Information,RELIGIOUS - FELLOWSHIP HALL-SPACE FUNCTION ZN,SizingPeriod: FORT MCMURRAY AP ANN HTG 99.6% CONDNS DB,5.5555555556E-002,0.3871447295,Pass,Pass,1.5982429877,13.7131735579,Pass,Pass
 Warmup Convergence Information,RELIGIOUS - PULPIT/CHOIR-SPACE FUNCTION ZN,SizingPeriod: FORT MCMURRAY AP ANN HTG 99.6% CONDNS DB,5.5555555556E-002,0.3871207076,Pass,Pass,0.2601843856,0.9477854414,Pass,Pass
 Warmup Convergence Information,RETAIL - DRESSING/FITTING-SPACE FUNCTION ZN,SizingPeriod: FORT MCMURRAY AP ANN HTG 99.6% CONDNS DB,5.5693693267E-002,0.3606510280,Pass,Pass,0.1482645550,0.5629636939,Pass,Pass
 Warmup Convergence Information,RETAIL - MALL CONCOURSE-SPACE FUNCTION ZN,SizingPeriod: FORT MCMURRAY AP ANN HTG 99.6% CONDNS DB,5.5555555556E-002,0.3735108993,Pass,Pass,0.1124614124,0.3119703487,Pass,Pass
 Warmup Convergence Information,RETAIL - SALES-SPACE FUNCTION ZN,SizingPeriod: FORT MCMURRAY AP ANN HTG 99.6% CONDNS DB,5.5733395242E-002,0.3603797707,Pass,Pass,0.9757997244,9.5030855794,Pass,Pass
 Warmup Convergence Information,SALES AREA-SPACE FUNCTION ZN,SizingPeriod: FORT MCMURRAY AP ANN HTG 99.6% CONDNS DB,5.5805674046E-002,0.3602257816,Pass,Pass,0.1678452097,0.6053543816,Pass,Pass
 Warmup Convergence Information,SPORTS ARENA - AUDIENCE-SPACE FUNCTION ZN,SizingPeriod: FORT MCMURRAY AP ANN HTG 99.6% CONDNS DB,5.5555555556E-002,0.3956726942,Pass,Pass,7.3856831010E-002,0.2048208525,Pass,Pass
 Warmup Convergence Information,SPORTS ARENA - COURT C1-SPACE FUNCTION ZN,SizingPeriod: FORT MCMURRAY AP ANN HTG 99.6% CONDNS DB,5.5555555556E-002,0.3663428785,Pass,Pass,0.7027833217,4.2285079700,Pass,Pass
 Warmup Convergence Information,SPORTS ARENA - COURT C2-SPACE FUNCTION ZN,SizingPeriod: FORT MCMURRAY AP ANN HTG 99.6% CONDNS DB,5.5555555556E-002,0.3669997200,Pass,Pass,0.1938036912,0.6117842239,Pass,Pass
 Warmup Convergence Information,SPORTS ARENA - COURT C3-SPACE FUNCTION ZN,SizingPeriod: FORT MCMURRAY AP ANN HTG 99.6% CONDNS DB,5.5555555556E-002,0.3670111861,Pass,Pass,0.2465084717,1.3914394769,Pass,Pass
 Warmup Convergence Information,SPORTS ARENA - COURT C4-SPACE FUNCTION ZN,SizingPeriod: FORT MCMURRAY AP ANN HTG 99.6% CONDNS DB,5.5555555556E-002,0.3673413161,Pass,Pass,0.5120843116,3.0270570742,Pass,Pass
 Warmup Convergence Information,SPORTS ARENA - RING-SPACE FUNCTION ZN,SizingPeriod: FORT MCMURRAY AP ANN HTG 99.6% CONDNS DB,5.5555555556E-002,0.3664111781,Pass,Pass,0.2227752764,0.8699355283,Pass,Pass
 Warmup Convergence Information,STAIRWAY-SCH-A-SPACE FUNCTION ZN,SizingPeriod: FORT MCMURRAY AP ANN HTG 99.6% CONDNS DB,6.5450655598E-002,0.3055937639,Pass,Pass,0.3412179422,1.7474980707,Pass,Pass
 Warmup Convergence Information,STAIRWAY-SCH-B-SPACE FUNCTION ZN,SizingPeriod: FORT MCMURRAY AP ANN HTG 99.6% CONDNS DB,6.1454246558E-002,0.3147912656,Pass,Pass,0.1009654747,0.3789633022,Pass,Pass
 Warmup Convergence Information,STAIRWAY-SCH-C-SPACE FUNCTION ZN,SizingPeriod: FORT MCMURRAY AP ANN HTG 99.6% CONDNS DB,6.2690269685E-002,0.3091601922,Pass,Pass,0.3738770239,1.4253226905,Pass,Pass
 Warmup Convergence Information,STAIRWAY-SCH-D-SPACE FUNCTION ZN,SizingPeriod: FORT MCMURRAY AP ANN HTG 99.6% CONDNS DB,5.7543763987E-002,0.3274788560,Pass,Pass,7.8549113644E-002,0.2803366544,Pass,Pass
 Warmup Convergence Information,STAIRWAY-SCH-E-SPACE FUNCTION ZN,SizingPeriod: FORT MCMURRAY AP ANN HTG 99.6% CONDNS DB,6.3407107328E-002,0.3074595135,Pass,Pass,0.3091224817,1.1239897621,Pass,Pass
 Warmup Convergence Information,STAIRWAY-SCH-F-SPACE FUNCTION ZN,SizingPeriod: FORT MCMURRAY AP ANN HTG 99.6% CONDNS DB,6.2272167200E-002,0.3147012482,Pass,Pass,0.1707561997,0.8497765680,Pass,Pass
 Warmup Convergence Information,STAIRWAY-SCH-G-SPACE FUNCTION ZN,SizingPeriod: FORT MCMURRAY AP ANN HTG 99.6% CONDNS DB,6.4585288323E-002,0.3131335827,Pass,Pass,0.5416656437,3.7803383520,Pass,Pass
 Warmup Convergence Information,STAIRWAY-SCH-H-SPACE FUNCTION ZN,SizingPeriod: FORT MCMURRAY AP ANN HTG 99.6% CONDNS DB,6.2926759182E-002,0.3108232699,Pass,Pass,0.2081338535,1.0462873180,Pass,Pass
 Warmup Convergence Information,STAIRWAY-SCH-I-SPACE FUNCTION ZN,SizingPeriod: FORT MCMURRAY AP ANN HTG 99.6% CONDNS DB,6.1375491695E-002,0.3115508294,Pass,Pass,0.1877427249,1.2265579488,Pass,Pass
 Warmup Convergence Information,STORAGE AREA - OCCSENS-SPACE FUNCTION ZN,SizingPeriod: FORT MCMURRAY AP ANN HTG 99.6% CONDNS DB,6.0359270103E-002,0.3169584919,Pass,Pass,0.1172003958,0.3931529079,Pass,Pass
 Warmup Convergence Information,STORAGE AREA - REFRIGERATED - OCCSENS-SPACE FUNCTION ZN,SizingPeriod: FORT MCMURRAY AP ANN HTG 99.6% CONDNS DB,6.1740143887E-002,0.3137049011,Pass,Pass,2.2130787595,23.4792423360,Pass,Pass
 Warmup Convergence Information,STORAGE AREA - REFRIGERATED-SPACE FUNCTION ZN,SizingPeriod: FORT MCMURRAY AP ANN HTG 99.6% CONDNS DB,6.0355954808E-002,0.3173332350,Pass,Pass,0.1145890803,0.3684693044,Pass,Pass
 Warmup Convergence Information,STORAGE AREA-SPACE FUNCTION ZN,SizingPeriod: FORT MCMURRAY AP ANN HTG 99.6% CONDNS DB,6.0330431178E-002,0.3171057757,Pass,Pass,0.1126742086,0.3538550872,Pass,Pass
 Warmup Convergence Information,TRANSP. BAGGAGE-SPACE FUNCTION ZN,SizingPeriod: FORT MCMURRAY AP ANN HTG 99.6% CONDNS DB,5.6942520216E-002,0.3463279164,Pass,Pass,0.2904005359,1.2047260168,Pass,Pass
 Warmup Convergence Information,TRANSP. CONCOURSE-SPACE FUNCTION ZN,SizingPeriod: FORT MCMURRAY AP ANN HTG 99.6% CONDNS DB,5.5555555556E-002,0.3891837827,Pass,Pass,0.1640419643,0.9558930091,Pass,Pass
 Warmup Convergence Information,TRANSP. COUNTER-SPACE FUNCTION ZN,SizingPeriod: FORT MCMURRAY AP ANN HTG 99.6% CONDNS DB,5.8065502155E-002,0.3372966479,Pass,Pass,8.7539725917E-002,0.4931020352,Pass,Pass
 Warmup Convergence Information,TRANSP. SEATING-SPACE FUNCTION ZN,SizingPeriod: FORT MCMURRAY AP ANN HTG 99.6% CONDNS DB,5.5555555556E-002,0.3891746740,Pass,Pass,0.4985556646,5.0684665767,Pass,Pass
 Warmup Convergence Information,WAREHOUSE - FINE - REFRIGERATED-SPACE FUNCTION ZN,SizingPeriod: FORT MCMURRAY AP ANN HTG 99.6% CONDNS DB,6.1716083878E-002,0.3121303075,Pass,Pass,0.1451229474,0.5306564404,Pass,Pass
 Warmup Convergence Information,WAREHOUSE - FINE-SPACE FUNCTION ZN,SizingPeriod: FORT MCMURRAY AP ANN HTG 99.6% CONDNS DB,6.1044212925E-002,0.3089135430,Pass,Pass,0.1292080414,0.3896708915,Pass,Pass
 Warmup Convergence Information,WAREHOUSE - MED/BLK - REFRIGERATED-SPACE FUNCTION ZN,SizingPeriod: FORT MCMURRAY AP ANN HTG 99.6% CONDNS DB,6.2772864889E-002,0.3078471605,Pass,Pass,0.7426818394,5.2361504767,Pass,Pass
 Warmup Convergence Information,WAREHOUSE - MED/BLK-SPACE FUNCTION ZN,SizingPeriod: FORT MCMURRAY AP ANN HTG 99.6% CONDNS DB,6.1104577904E-002,0.3117285749,Pass,Pass,0.1277123666,0.4311433439,Pass,Pass
 Warmup Convergence Information,WAREHOUSE - MED/BLK2 - REFRIGERATED-SPACE FUNCTION ZN,SizingPeriod: FORT MCMURRAY AP ANN HTG 99.6% CONDNS DB,6.2251266955E-002,0.3100214501,Pass,Pass,0.1734066255,0.7106903817,Pass,Pass
 Warmup Convergence Information,WAREHOUSE - MED/BLK2-SPACE FUNCTION ZN,SizingPeriod: FORT MCMURRAY AP ANN HTG 99.6% CONDNS DB,6.1478675434E-002,0.3122350877,Pass,Pass,0.1445378207,0.5212451674,Pass,Pass
 Warmup Convergence Information,WASHROOM-SCH-A-SPACE FUNCTION ZN,SizingPeriod: FORT MCMURRAY AP ANN HTG 99.6% CONDNS DB,6.3449570340E-002,0.3078159789,Pass,Pass,0.3646696679,1.2549781363,Pass,Pass
 Warmup Convergence Information,WASHROOM-SCH-B-SPACE FUNCTION ZN,SizingPeriod: FORT MCMURRAY AP ANN HTG 99.6% CONDNS DB,6.2523002470E-002,0.3124810861,Pass,Pass,0.2610936177,0.7420278083,Pass,Pass
! <Program Control Information:Threads/Parallel Sims>, Threading Supported,Maximum Number of Threads, Env Set Threads (OMP_NUM_THREADS), EP Env Set Threads (EP_OMP_NUM_THREADS), IDF Set Threads, Number of Threads Used (Interior Radiant Exchange), Number Nominal Surfaces, Number Parallel Sims
Program Control:Threads/Parallel Sims, No,1, N/A, N/A, N/A, N/A, N/A, N/A
End of Data
