! Program Version,EnergyPlus, Version 8.9.0-eba93e8e1b, YMD=2019.03.28 13:10,
! Output:Meter Objects (applicable to this run)
Output:Meter,Electricity:Facility,hourly; !- [J]
Output:Meter:Cumulative,Electricity:Facility,hourly; !- [J]
Output:Meter,Electricity:Building,hourly; !- [J]
Output:Meter:Cumulative,Electricity:Building,hourly; !- [J]
Output:Meter,Electricity:Zone:ALL_ST=COURTHOUSE - CHAMBERS_FL=STORY 4_SCH=A,hourly; !- [J]
Output:Meter:Cumulative,Electricity:Zone:ALL_ST=COURTHOUSE - CHAMBERS_FL=STORY 4_SCH=A,hourly; !- [J]
Output:Meter,InteriorLights:Electricity,hourly; !- [J]
Output:Meter:Cumulative,InteriorLights:Electricity,hourly; !- [J]
Output:Meter,InteriorLights:Electricity:Zone:ALL_ST=COURTHOUSE - CHAMBERS_FL=STORY 4_SCH=A,hourly; !- [J]
Output:Meter:Cumulative,InteriorLights:Electricity:Zone:ALL_ST=COURTHOUSE - CHAMBERS_FL=STORY 4_SCH=A,hourly; !- [J]
Output:Meter,General:InteriorLights:Electricity,hourly; !- [J]
Output:Meter:Cumulative,General:InteriorLights:Electricity,hourly; !- [J]
Output:Meter,Electricity:Zone:ALL_ST=COURTHOUSE - COURTROOM_FL=STORY 3_SCH=A,hourly; !- [J]
Output:Meter:Cumulative,Electricity:Zone:ALL_ST=COURTHOUSE - COURTROOM_FL=STORY 3_SCH=A,hourly; !- [J]
Output:Meter,InteriorLights:Electricity:Zone:ALL_ST=COURTHOUSE - COURTROOM_FL=STORY 3_SCH=A,hourly; !- [J]
Output:Meter:Cumulative,InteriorLights:Electricity:Zone:ALL_ST=COURTHOUSE - COURTROOM_FL=STORY 3_SCH=A,hourly; !- [J]
Output:Meter,Electricity:Zone:ALL_ST=DINING - BAR LOUNGE/LEISURE_FL=STORY 3_SCH=B,hourly; !- [J]
Output:Meter:Cumulative,Electricity:Zone:ALL_ST=DINING - BAR LOUNGE/LEISURE_FL=STORY 3_SCH=B,hourly; !- [J]
Output:Meter,InteriorLights:Electricity:Zone:ALL_ST=DINING - BAR LOUNGE/LEISURE_FL=STORY 3_SCH=B,hourly; !- [J]
Output:Meter:Cumulative,InteriorLights:Electricity:Zone:ALL_ST=DINING - BAR LOUNGE/LEISURE_FL=STORY 3_SCH=B,hourly; !- [J]
Output:Meter,Electricity:Zone:ALL_ST=DINING - FAMILY SPACE_FL=STORY 3_SCH=B,hourly; !- [J]
Output:Meter:Cumulative,Electricity:Zone:ALL_ST=DINING - FAMILY SPACE_FL=STORY 3_SCH=B,hourly; !- [J]
Output:Meter,InteriorLights:Electricity:Zone:ALL_ST=DINING - FAMILY SPACE_FL=STORY 3_SCH=B,hourly; !- [J]
Output:Meter:Cumulative,InteriorLights:Electricity:Zone:ALL_ST=DINING - FAMILY SPACE_FL=STORY 3_SCH=B,hourly; !- [J]
Output:Meter,Electricity:Zone:ALL_ST=DINING - OTHER_FL=STORY 1_SCH=B,hourly; !- [J]
Output:Meter:Cumulative,Electricity:Zone:ALL_ST=DINING - OTHER_FL=STORY 1_SCH=B,hourly; !- [J]
Output:Meter,InteriorLights:Electricity:Zone:ALL_ST=DINING - OTHER_FL=STORY 1_SCH=B,hourly; !- [J]
Output:Meter:Cumulative,InteriorLights:Electricity:Zone:ALL_ST=DINING - OTHER_FL=STORY 1_SCH=B,hourly; !- [J]
Output:Meter,Electricity:Zone:DU_BT=SPACE FUNCTION_ST=DORMITORY - LIVING QUARTERS_FL=STORY 4_SCHG,hourly; !- [J]
Output:Meter:Cumulative,Electricity:Zone:DU_BT=SPACE FUNCTION_ST=DORMITORY - LIVING QUARTERS_FL=STORY 4_SCHG,hourly; !- [J]
Output:Meter,InteriorLights:Electricity:Zone:DU_BT=SPACE FUNCTION_ST=DORMITORY - LIVING QUARTERS_FL=STORY 4_SCHG,hourly; !- [J]
Output:Meter:Cumulative,InteriorLights:Electricity:Zone:DU_BT=SPACE FUNCTION_ST=DORMITORY - LIVING QUARTERS_FL=STORY 4_SCHG,hourly; !- [J]
Output:Meter,Electricity:Zone:ALL_ST=DRESS./FITT. - PERFORMANCE ARTS_FL=STORY 3_SCH=C,hourly; !- [J]
Output:Meter:Cumulative,Electricity:Zone:ALL_ST=DRESS./FITT. - PERFORMANCE ARTS_FL=STORY 3_SCH=C,hourly; !- [J]
Output:Meter,InteriorLights:Electricity:Zone:ALL_ST=DRESS./FITT. - PERFORMANCE ARTS_FL=STORY 3_SCH=C,hourly; !- [J]
Output:Meter:Cumulative,InteriorLights:Electricity:Zone:ALL_ST=DRESS./FITT. - PERFORMANCE ARTS_FL=STORY 3_SCH=C,hourly; !- [J]
Output:Meter,Electricity:Zone:DU_BT=SPACE FUNCTION_ST=DWELLING UNIT(S)_FL=STORY 2_SCHG,hourly; !- [J]
Output:Meter:Cumulative,Electricity:Zone:DU_BT=SPACE FUNCTION_ST=DWELLING UNIT(S)_FL=STORY 2_SCHG,hourly; !- [J]
Output:Meter,InteriorLights:Electricity:Zone:DU_BT=SPACE FUNCTION_ST=DWELLING UNIT(S)_FL=STORY 2_SCHG,hourly; !- [J]
Output:Meter:Cumulative,InteriorLights:Electricity:Zone:DU_BT=SPACE FUNCTION_ST=DWELLING UNIT(S)_FL=STORY 2_SCHG,hourly; !- [J]
Output:Meter,Electricity:Zone:ALL_ST=FIRE STATION - ENGINE ROOM_FL=STORY 1_SCH=H,hourly; !- [J]
Output:Meter:Cumulative,Electricity:Zone:ALL_ST=FIRE STATION - ENGINE ROOM_FL=STORY 1_SCH=H,hourly; !- [J]
Output:Meter,InteriorLights:Electricity:Zone:ALL_ST=FIRE STATION - ENGINE ROOM_FL=STORY 1_SCH=H,hourly; !- [J]
Output:Meter:Cumulative,InteriorLights:Electricity:Zone:ALL_ST=FIRE STATION - ENGINE ROOM_FL=STORY 1_SCH=H,hourly; !- [J]
Output:Meter,Electricity:Zone:DU_BT=SPACE FUNCTION_ST=FIRE STATION - QUARTERS_FL=STORY 4_SCHG,hourly; !- [J]
Output:Meter:Cumulative,Electricity:Zone:DU_BT=SPACE FUNCTION_ST=FIRE STATION - QUARTERS_FL=STORY 4_SCHG,hourly; !- [J]
Output:Meter,InteriorLights:Electricity:Zone:DU_BT=SPACE FUNCTION_ST=FIRE STATION - QUARTERS_FL=STORY 4_SCHG,hourly; !- [J]
Output:Meter:Cumulative,InteriorLights:Electricity:Zone:DU_BT=SPACE FUNCTION_ST=FIRE STATION - QUARTERS_FL=STORY 4_SCHG,hourly; !- [J]
Output:Meter,Electricity:Zone:ALL_ST=FOOD PREPARATION_FL=STORY 2_SCH=B,hourly; !- [J]
Output:Meter:Cumulative,Electricity:Zone:ALL_ST=FOOD PREPARATION_FL=STORY 2_SCH=B,hourly; !- [J]
Output:Meter,InteriorLights:Electricity:Zone:ALL_ST=FOOD PREPARATION_FL=STORY 2_SCH=B,hourly; !- [J]
Output:Meter:Cumulative,InteriorLights:Electricity:Zone:ALL_ST=FOOD PREPARATION_FL=STORY 2_SCH=B,hourly; !- [J]
Output:Meter,Electricity:Zone:ALL_ST=FOOD PREPARATION - VENTED_FL=STORY 4_SCH=B,hourly; !- [J]
Output:Meter:Cumulative,Electricity:Zone:ALL_ST=FOOD PREPARATION - VENTED_FL=STORY 4_SCH=B,hourly; !- [J]
Output:Meter,InteriorLights:Electricity:Zone:ALL_ST=FOOD PREPARATION - VENTED_FL=STORY 4_SCH=B,hourly; !- [J]
Output:Meter:Cumulative,InteriorLights:Electricity:Zone:ALL_ST=FOOD PREPARATION - VENTED_FL=STORY 4_SCH=B,hourly; !- [J]
Output:Meter,Electricity:Zone:ALL_ST=GYM - AUDIENCE_FL=STORY 4_SCH=B,hourly; !- [J]
Output:Meter:Cumulative,Electricity:Zone:ALL_ST=GYM - AUDIENCE_FL=STORY 4_SCH=B,hourly; !- [J]
Output:Meter,InteriorLights:Electricity:Zone:ALL_ST=GYM - AUDIENCE_FL=STORY 4_SCH=B,hourly; !- [J]
Output:Meter:Cumulative,InteriorLights:Electricity:Zone:ALL_ST=GYM - AUDIENCE_FL=STORY 4_SCH=B,hourly; !- [J]
Output:Meter,Electricity:Zone:ALL_ST=GYM - FITNESS_FL=STORY 1_SCH=B,hourly; !- [J]
Output:Meter:Cumulative,Electricity:Zone:ALL_ST=GYM - FITNESS_FL=STORY 1_SCH=B,hourly; !- [J]
Output:Meter,InteriorLights:Electricity:Zone:ALL_ST=GYM - FITNESS_FL=STORY 1_SCH=B,hourly; !- [J]
Output:Meter:Cumulative,InteriorLights:Electricity:Zone:ALL_ST=GYM - FITNESS_FL=STORY 1_SCH=B,hourly; !- [J]
Output:Meter,Electricity:Zone:ALL_ST=GYM - PLAY_FL=STORY 1_SCH=B,hourly; !- [J]
Output:Meter:Cumulative,Electricity:Zone:ALL_ST=GYM - PLAY_FL=STORY 1_SCH=B,hourly; !- [J]
Output:Meter,InteriorLights:Electricity:Zone:ALL_ST=GYM - PLAY_FL=STORY 1_SCH=B,hourly; !- [J]
Output:Meter:Cumulative,InteriorLights:Electricity:Zone:ALL_ST=GYM - PLAY_FL=STORY 1_SCH=B,hourly; !- [J]
Output:Meter,Electricity:Zone:ALL_ST=HOSPITAL - EMERGENCY_FL=STORY 2_SCH=H,hourly; !- [J]
Output:Meter:Cumulative,Electricity:Zone:ALL_ST=HOSPITAL - EMERGENCY_FL=STORY 2_SCH=H,hourly; !- [J]
Output:Meter,InteriorLights:Electricity:Zone:ALL_ST=HOSPITAL - EMERGENCY_FL=STORY 2_SCH=H,hourly; !- [J]
Output:Meter:Cumulative,InteriorLights:Electricity:Zone:ALL_ST=HOSPITAL - EMERGENCY_FL=STORY 2_SCH=H,hourly; !- [J]
Output:Meter,Electricity:Zone:ALL_ST=HOSPITAL - EXAM_FL=STORY 3_SCH=C,hourly; !- [J]
Output:Meter:Cumulative,Electricity:Zone:ALL_ST=HOSPITAL - EXAM_FL=STORY 3_SCH=C,hourly; !- [J]
Output:Meter,InteriorLights:Electricity:Zone:ALL_ST=HOSPITAL - EXAM_FL=STORY 3_SCH=C,hourly; !- [J]
Output:Meter:Cumulative,InteriorLights:Electricity:Zone:ALL_ST=HOSPITAL - EXAM_FL=STORY 3_SCH=C,hourly; !- [J]
Output:Meter,Electricity:Zone:ALL_ST=HOSPITAL - LAUNDRY/WASHING_FL=STORY 1_SCH=C,hourly; !- [J]
Output:Meter:Cumulative,Electricity:Zone:ALL_ST=HOSPITAL - LAUNDRY/WASHING_FL=STORY 1_SCH=C,hourly; !- [J]
Output:Meter,InteriorLights:Electricity:Zone:ALL_ST=HOSPITAL - LAUNDRY/WASHING_FL=STORY 1_SCH=C,hourly; !- [J]
Output:Meter:Cumulative,InteriorLights:Electricity:Zone:ALL_ST=HOSPITAL - LAUNDRY/WASHING_FL=STORY 1_SCH=C,hourly; !- [J]
Output:Meter,Electricity:Zone:ALL_ST=HOSPITAL - LOUNGE/RECREATION_FL=STORY 2_SCH=B,hourly; !- [J]
Output:Meter:Cumulative,Electricity:Zone:ALL_ST=HOSPITAL - LOUNGE/RECREATION_FL=STORY 2_SCH=B,hourly; !- [J]
Output:Meter,InteriorLights:Electricity:Zone:ALL_ST=HOSPITAL - LOUNGE/RECREATION_FL=STORY 2_SCH=B,hourly; !- [J]
Output:Meter:Cumulative,InteriorLights:Electricity:Zone:ALL_ST=HOSPITAL - LOUNGE/RECREATION_FL=STORY 2_SCH=B,hourly; !- [J]
Output:Meter,Electricity:Zone:ALL_ST=HOSPITAL - MEDICAL SUPPLY_FL=STORY 2_SCH=H,hourly; !- [J]
Output:Meter:Cumulative,Electricity:Zone:ALL_ST=HOSPITAL - MEDICAL SUPPLY_FL=STORY 2_SCH=H,hourly; !- [J]
Output:Meter,InteriorLights:Electricity:Zone:ALL_ST=HOSPITAL - MEDICAL SUPPLY_FL=STORY 2_SCH=H,hourly; !- [J]
Output:Meter:Cumulative,InteriorLights:Electricity:Zone:ALL_ST=HOSPITAL - MEDICAL SUPPLY_FL=STORY 2_SCH=H,hourly; !- [J]
Output:Meter,InteriorEquipment:Electricity,hourly; !- [J]
Output:Meter:Cumulative,InteriorEquipment:Electricity,hourly; !- [J]
Output:Meter,InteriorEquipment:Electricity:Zone:ALL_ST=COURTHOUSE - CHAMBERS_FL=STORY 4_SCH=A,hourly; !- [J]
Output:Meter:Cumulative,InteriorEquipment:Electricity:Zone:ALL_ST=COURTHOUSE - CHAMBERS_FL=STORY 4_SCH=A,hourly; !- [J]
Output:Meter,General:InteriorEquipment:Electricity,hourly; !- [J]
Output:Meter:Cumulative,General:InteriorEquipment:Electricity,hourly; !- [J]
Output:Meter,InteriorEquipment:Electricity:Zone:ALL_ST=COURTHOUSE - COURTROOM_FL=STORY 3_SCH=A,hourly; !- [J]
Output:Meter:Cumulative,InteriorEquipment:Electricity:Zone:ALL_ST=COURTHOUSE - COURTROOM_FL=STORY 3_SCH=A,hourly; !- [J]
Output:Meter,InteriorEquipment:Electricity:Zone:ALL_ST=DINING - BAR LOUNGE/LEISURE_FL=STORY 3_SCH=B,hourly; !- [J]
Output:Meter:Cumulative,InteriorEquipment:Electricity:Zone:ALL_ST=DINING - BAR LOUNGE/LEISURE_FL=STORY 3_SCH=B,hourly; !- [J]
Output:Meter,InteriorEquipment:Electricity:Zone:ALL_ST=DINING - FAMILY SPACE_FL=STORY 3_SCH=B,hourly; !- [J]
Output:Meter:Cumulative,InteriorEquipment:Electricity:Zone:ALL_ST=DINING - FAMILY SPACE_FL=STORY 3_SCH=B,hourly; !- [J]
Output:Meter,InteriorEquipment:Electricity:Zone:ALL_ST=DINING - OTHER_FL=STORY 1_SCH=B,hourly; !- [J]
Output:Meter:Cumulative,InteriorEquipment:Electricity:Zone:ALL_ST=DINING - OTHER_FL=STORY 1_SCH=B,hourly; !- [J]
Output:Meter,InteriorEquipment:Electricity:Zone:DU_BT=SPACE FUNCTION_ST=DORMITORY - LIVING QUARTERS_FL=STORY 4_SCHG,hourly; !- [J]
Output:Meter:Cumulative,InteriorEquipment:Electricity:Zone:DU_BT=SPACE FUNCTION_ST=DORMITORY - LIVING QUARTERS_FL=STORY 4_SCHG,hourly; !- [J]
Output:Meter,InteriorEquipment:Electricity:Zone:ALL_ST=DRESS./FITT. - PERFORMANCE ARTS_FL=STORY 3_SCH=C,hourly; !- [J]
Output:Meter:Cumulative,InteriorEquipment:Electricity:Zone:ALL_ST=DRESS./FITT. - PERFORMANCE ARTS_FL=STORY 3_SCH=C,hourly; !- [J]
Output:Meter,InteriorEquipment:Electricity:Zone:DU_BT=SPACE FUNCTION_ST=DWELLING UNIT(S)_FL=STORY 2_SCHG,hourly; !- [J]
Output:Meter:Cumulative,InteriorEquipment:Electricity:Zone:DU_BT=SPACE FUNCTION_ST=DWELLING UNIT(S)_FL=STORY 2_SCHG,hourly; !- [J]
Output:Meter,InteriorEquipment:Electricity:Zone:ALL_ST=FIRE STATION - ENGINE ROOM_FL=STORY 1_SCH=H,hourly; !- [J]
Output:Meter:Cumulative,InteriorEquipment:Electricity:Zone:ALL_ST=FIRE STATION - ENGINE ROOM_FL=STORY 1_SCH=H,hourly; !- [J]
Output:Meter,InteriorEquipment:Electricity:Zone:DU_BT=SPACE FUNCTION_ST=FIRE STATION - QUARTERS_FL=STORY 4_SCHG,hourly; !- [J]
Output:Meter:Cumulative,InteriorEquipment:Electricity:Zone:DU_BT=SPACE FUNCTION_ST=FIRE STATION - QUARTERS_FL=STORY 4_SCHG,hourly; !- [J]
Output:Meter,InteriorEquipment:Electricity:Zone:ALL_ST=FOOD PREPARATION_FL=STORY 2_SCH=B,hourly; !- [J]
Output:Meter:Cumulative,InteriorEquipment:Electricity:Zone:ALL_ST=FOOD PREPARATION_FL=STORY 2_SCH=B,hourly; !- [J]
Output:Meter,InteriorEquipment:Electricity:Zone:ALL_ST=FOOD PREPARATION - VENTED_FL=STORY 4_SCH=B,hourly; !- [J]
Output:Meter:Cumulative,InteriorEquipment:Electricity:Zone:ALL_ST=FOOD PREPARATION - VENTED_FL=STORY 4_SCH=B,hourly; !- [J]
Output:Meter,InteriorEquipment:Electricity:Zone:ALL_ST=GYM - FITNESS_FL=STORY 1_SCH=B,hourly; !- [J]
Output:Meter:Cumulative,InteriorEquipment:Electricity:Zone:ALL_ST=GYM - FITNESS_FL=STORY 1_SCH=B,hourly; !- [J]
Output:Meter,InteriorEquipment:Electricity:Zone:ALL_ST=GYM - PLAY_FL=STORY 1_SCH=B,hourly; !- [J]
Output:Meter:Cumulative,InteriorEquipment:Electricity:Zone:ALL_ST=GYM - PLAY_FL=STORY 1_SCH=B,hourly; !- [J]
Output:Meter,InteriorEquipment:Electricity:Zone:ALL_ST=HOSPITAL - EMERGENCY_FL=STORY 2_SCH=H,hourly; !- [J]
Output:Meter:Cumulative,InteriorEquipment:Electricity:Zone:ALL_ST=HOSPITAL - EMERGENCY_FL=STORY 2_SCH=H,hourly; !- [J]
Output:Meter,InteriorEquipment:Electricity:Zone:ALL_ST=HOSPITAL - EXAM_FL=STORY 3_SCH=C,hourly; !- [J]
Output:Meter:Cumulative,InteriorEquipment:Electricity:Zone:ALL_ST=HOSPITAL - EXAM_FL=STORY 3_SCH=C,hourly; !- [J]
Output:Meter,InteriorEquipment:Electricity:Zone:ALL_ST=HOSPITAL - LAUNDRY/WASHING_FL=STORY 1_SCH=C,hourly; !- [J]
Output:Meter:Cumulative,InteriorEquipment:Electricity:Zone:ALL_ST=HOSPITAL - LAUNDRY/WASHING_FL=STORY 1_SCH=C,hourly; !- [J]
Output:Meter,InteriorEquipment:Electricity:Zone:ALL_ST=HOSPITAL - LOUNGE/RECREATION_FL=STORY 2_SCH=B,hourly; !- [J]
Output:Meter:Cumulative,InteriorEquipment:Electricity:Zone:ALL_ST=HOSPITAL - LOUNGE/RECREATION_FL=STORY 2_SCH=B,hourly; !- [J]
Output:Meter,InteriorEquipment:Electricity:Zone:ALL_ST=HOSPITAL - MEDICAL SUPPLY_FL=STORY 2_SCH=H,hourly; !- [J]
Output:Meter:Cumulative,InteriorEquipment:Electricity:Zone:ALL_ST=HOSPITAL - MEDICAL SUPPLY_FL=STORY 2_SCH=H,hourly; !- [J]
Output:Meter,PlantLoopHeatingDemand:Facility,hourly; !- [J]
Output:Meter:Cumulative,PlantLoopHeatingDemand:Facility,hourly; !- [J]
Output:Meter,PlantLoopHeatingDemand:Plant,hourly; !- [J]
Output:Meter:Cumulative,PlantLoopHeatingDemand:Plant,hourly; !- [J]
Output:Meter,WaterSystems:PlantLoopHeatingDemand,hourly; !- [J]
Output:Meter:Cumulative,WaterSystems:PlantLoopHeatingDemand,hourly; !- [J]
Output:Meter,General:WaterSystems:PlantLoopHeatingDemand,hourly; !- [J]
Output:Meter:Cumulative,General:WaterSystems:PlantLoopHeatingDemand,hourly; !- [J]
Output:Meter,Gas:Facility,hourly; !- [J]
Output:Meter:Cumulative,Gas:Facility,hourly; !- [J]
Output:Meter,Gas:Plant,hourly; !- [J]
Output:Meter:Cumulative,Gas:Plant,hourly; !- [J]
Output:Meter,WaterSystems:Gas,hourly; !- [J]
Output:Meter:Cumulative,WaterSystems:Gas,hourly; !- [J]
Output:Meter,General:WaterSystems:Gas,hourly; !- [J]
Output:Meter:Cumulative,General:WaterSystems:Gas,hourly; !- [J]
Output:Meter,Water:Facility,hourly; !- [m3]
Output:Meter:Cumulative,Water:Facility,hourly; !- [m3]
Output:Meter,Water:Plant,hourly; !- [m3]
Output:Meter:Cumulative,Water:Plant,hourly; !- [m3]
Output:Meter,WaterSystems:Water,hourly; !- [m3]
Output:Meter:Cumulative,WaterSystems:Water,hourly; !- [m3]
Output:Meter,General:WaterSystems:Water,hourly; !- [m3]
Output:Meter:Cumulative,General:WaterSystems:Water,hourly; !- [m3]
Output:Meter,MainsWater:Facility,hourly; !- [m3]
Output:Meter:Cumulative,MainsWater:Facility,hourly; !- [m3]
Output:Meter,MainsWater:Plant,hourly; !- [m3]
Output:Meter:Cumulative,MainsWater:Plant,hourly; !- [m3]
Output:Meter,WaterSystems:MainsWater,hourly; !- [m3]
Output:Meter:Cumulative,WaterSystems:MainsWater,hourly; !- [m3]
Output:Meter,General:WaterSystems:MainsWater,hourly; !- [m3]
Output:Meter:Cumulative,General:WaterSystems:MainsWater,hourly; !- [m3]
Output:Meter,EnergyTransfer:Facility,hourly; !- [J]
Output:Meter:Cumulative,EnergyTransfer:Facility,hourly; !- [J]
Output:Meter,EnergyTransfer:Building,hourly; !- [J]
Output:Meter:Cumulative,EnergyTransfer:Building,hourly; !- [J]
Output:Meter,EnergyTransfer:Zone:ALL_ST=COURTHOUSE - CHAMBERS_FL=STORY 4_SCH=A,hourly; !- [J]
Output:Meter:Cumulative,EnergyTransfer:Zone:ALL_ST=COURTHOUSE - CHAMBERS_FL=STORY 4_SCH=A,hourly; !- [J]
Output:Meter,Heating:EnergyTransfer,hourly; !- [J]
Output:Meter:Cumulative,Heating:EnergyTransfer,hourly; !- [J]
Output:Meter,Heating:EnergyTransfer:Zone:ALL_ST=COURTHOUSE - CHAMBERS_FL=STORY 4_SCH=A,hourly; !- [J]
Output:Meter:Cumulative,Heating:EnergyTransfer:Zone:ALL_ST=COURTHOUSE - CHAMBERS_FL=STORY 4_SCH=A,hourly; !- [J]
Output:Meter,Cooling:EnergyTransfer,hourly; !- [J]
Output:Meter:Cumulative,Cooling:EnergyTransfer,hourly; !- [J]
Output:Meter,Cooling:EnergyTransfer:Zone:ALL_ST=COURTHOUSE - CHAMBERS_FL=STORY 4_SCH=A,hourly; !- [J]
Output:Meter:Cumulative,Cooling:EnergyTransfer:Zone:ALL_ST=COURTHOUSE - CHAMBERS_FL=STORY 4_SCH=A,hourly; !- [J]
Output:Meter,EnergyTransfer:Zone:ALL_ST=COURTHOUSE - COURTROOM_FL=STORY 3_SCH=A,hourly; !- [J]
Output:Meter:Cumulative,EnergyTransfer:Zone:ALL_ST=COURTHOUSE - COURTROOM_FL=STORY 3_SCH=A,hourly; !- [J]
Output:Meter,Heating:EnergyTransfer:Zone:ALL_ST=COURTHOUSE - COURTROOM_FL=STORY 3_SCH=A,hourly; !- [J]
Output:Meter:Cumulative,Heating:EnergyTransfer:Zone:ALL_ST=COURTHOUSE - COURTROOM_FL=STORY 3_SCH=A,hourly; !- [J]
Output:Meter,Cooling:EnergyTransfer:Zone:ALL_ST=COURTHOUSE - COURTROOM_FL=STORY 3_SCH=A,hourly; !- [J]
Output:Meter:Cumulative,Cooling:EnergyTransfer:Zone:ALL_ST=COURTHOUSE - COURTROOM_FL=STORY 3_SCH=A,hourly; !- [J]
Output:Meter,EnergyTransfer:Zone:ALL_ST=DINING - BAR LOUNGE/LEISURE_FL=STORY 3_SCH=B,hourly; !- [J]
Output:Meter:Cumulative,EnergyTransfer:Zone:ALL_ST=DINING - BAR LOUNGE/LEISURE_FL=STORY 3_SCH=B,hourly; !- [J]
Output:Meter,Heating:EnergyTransfer:Zone:ALL_ST=DINING - BAR LOUNGE/LEISURE_FL=STORY 3_SCH=B,hourly; !- [J]
Output:Meter:Cumulative,Heating:EnergyTransfer:Zone:ALL_ST=DINING - BAR LOUNGE/LEISURE_FL=STORY 3_SCH=B,hourly; !- [J]
Output:Meter,Cooling:EnergyTransfer:Zone:ALL_ST=DINING - BAR LOUNGE/LEISURE_FL=STORY 3_SCH=B,hourly; !- [J]
Output:Meter:Cumulative,Cooling:EnergyTransfer:Zone:ALL_ST=DINING - BAR LOUNGE/LEISURE_FL=STORY 3_SCH=B,hourly; !- [J]
Output:Meter,EnergyTransfer:Zone:ALL_ST=DINING - FAMILY SPACE_FL=STORY 3_SCH=B,hourly; !- [J]
Output:Meter:Cumulative,EnergyTransfer:Zone:ALL_ST=DINING - FAMILY SPACE_FL=STORY 3_SCH=B,hourly; !- [J]
Output:Meter,Heating:EnergyTransfer:Zone:ALL_ST=DINING - FAMILY SPACE_FL=STORY 3_SCH=B,hourly; !- [J]
Output:Meter:Cumulative,Heating:EnergyTransfer:Zone:ALL_ST=DINING - FAMILY SPACE_FL=STORY 3_SCH=B,hourly; !- [J]
Output:Meter,Cooling:EnergyTransfer:Zone:ALL_ST=DINING - FAMILY SPACE_FL=STORY 3_SCH=B,hourly; !- [J]
Output:Meter:Cumulative,Cooling:EnergyTransfer:Zone:ALL_ST=DINING - FAMILY SPACE_FL=STORY 3_SCH=B,hourly; !- [J]
Output:Meter,EnergyTransfer:Zone:ALL_ST=DINING - OTHER_FL=STORY 1_SCH=B,hourly; !- [J]
Output:Meter:Cumulative,EnergyTransfer:Zone:ALL_ST=DINING - OTHER_FL=STORY 1_SCH=B,hourly; !- [J]
Output:Meter,Heating:EnergyTransfer:Zone:ALL_ST=DINING - OTHER_FL=STORY 1_SCH=B,hourly; !- [J]
Output:Meter:Cumulative,Heating:EnergyTransfer:Zone:ALL_ST=DINING - OTHER_FL=STORY 1_SCH=B,hourly; !- [J]
Output:Meter,Cooling:EnergyTransfer:Zone:ALL_ST=DINING - OTHER_FL=STORY 1_SCH=B,hourly; !- [J]
Output:Meter:Cumulative,Cooling:EnergyTransfer:Zone:ALL_ST=DINING - OTHER_FL=STORY 1_SCH=B,hourly; !- [J]
Output:Meter,EnergyTransfer:Zone:ALL_ST=DRESS./FITT. - PERFORMANCE ARTS_FL=STORY 3_SCH=C,hourly; !- [J]
Output:Meter:Cumulative,EnergyTransfer:Zone:ALL_ST=DRESS./FITT. - PERFORMANCE ARTS_FL=STORY 3_SCH=C,hourly; !- [J]
Output:Meter,Heating:EnergyTransfer:Zone:ALL_ST=DRESS./FITT. - PERFORMANCE ARTS_FL=STORY 3_SCH=C,hourly; !- [J]
Output:Meter:Cumulative,Heating:EnergyTransfer:Zone:ALL_ST=DRESS./FITT. - PERFORMANCE ARTS_FL=STORY 3_SCH=C,hourly; !- [J]
Output:Meter,Cooling:EnergyTransfer:Zone:ALL_ST=DRESS./FITT. - PERFORMANCE ARTS_FL=STORY 3_SCH=C,hourly; !- [J]
Output:Meter:Cumulative,Cooling:EnergyTransfer:Zone:ALL_ST=DRESS./FITT. - PERFORMANCE ARTS_FL=STORY 3_SCH=C,hourly; !- [J]
Output:Meter,EnergyTransfer:Zone:ALL_ST=FIRE STATION - ENGINE ROOM_FL=STORY 1_SCH=H,hourly; !- [J]
Output:Meter:Cumulative,EnergyTransfer:Zone:ALL_ST=FIRE STATION - ENGINE ROOM_FL=STORY 1_SCH=H,hourly; !- [J]
Output:Meter,Heating:EnergyTransfer:Zone:ALL_ST=FIRE STATION - ENGINE ROOM_FL=STORY 1_SCH=H,hourly; !- [J]
Output:Meter:Cumulative,Heating:EnergyTransfer:Zone:ALL_ST=FIRE STATION - ENGINE ROOM_FL=STORY 1_SCH=H,hourly; !- [J]
Output:Meter,Cooling:EnergyTransfer:Zone:ALL_ST=FIRE STATION - ENGINE ROOM_FL=STORY 1_SCH=H,hourly; !- [J]
Output:Meter:Cumulative,Cooling:EnergyTransfer:Zone:ALL_ST=FIRE STATION - ENGINE ROOM_FL=STORY 1_SCH=H,hourly; !- [J]
Output:Meter,EnergyTransfer:Zone:ALL_ST=FOOD PREPARATION - VENTED_FL=STORY 4_SCH=B,hourly; !- [J]
Output:Meter:Cumulative,EnergyTransfer:Zone:ALL_ST=FOOD PREPARATION - VENTED_FL=STORY 4_SCH=B,hourly; !- [J]
Output:Meter,Heating:EnergyTransfer:Zone:ALL_ST=FOOD PREPARATION - VENTED_FL=STORY 4_SCH=B,hourly; !- [J]
Output:Meter:Cumulative,Heating:EnergyTransfer:Zone:ALL_ST=FOOD PREPARATION - VENTED_FL=STORY 4_SCH=B,hourly; !- [J]
Output:Meter,Cooling:EnergyTransfer:Zone:ALL_ST=FOOD PREPARATION - VENTED_FL=STORY 4_SCH=B,hourly; !- [J]
Output:Meter:Cumulative,Cooling:EnergyTransfer:Zone:ALL_ST=FOOD PREPARATION - VENTED_FL=STORY 4_SCH=B,hourly; !- [J]
Output:Meter,EnergyTransfer:Zone:ALL_ST=FOOD PREPARATION_FL=STORY 2_SCH=B,hourly; !- [J]
Output:Meter:Cumulative,EnergyTransfer:Zone:ALL_ST=FOOD PREPARATION_FL=STORY 2_SCH=B,hourly; !- [J]
Output:Meter,Heating:EnergyTransfer:Zone:ALL_ST=FOOD PREPARATION_FL=STORY 2_SCH=B,hourly; !- [J]
Output:Meter:Cumulative,Heating:EnergyTransfer:Zone:ALL_ST=FOOD PREPARATION_FL=STORY 2_SCH=B,hourly; !- [J]
Output:Meter,Cooling:EnergyTransfer:Zone:ALL_ST=FOOD PREPARATION_FL=STORY 2_SCH=B,hourly; !- [J]
Output:Meter:Cumulative,Cooling:EnergyTransfer:Zone:ALL_ST=FOOD PREPARATION_FL=STORY 2_SCH=B,hourly; !- [J]
Output:Meter,EnergyTransfer:Zone:ALL_ST=GYM - AUDIENCE_FL=STORY 4_SCH=B,hourly; !- [J]
Output:Meter:Cumulative,EnergyTransfer:Zone:ALL_ST=GYM - AUDIENCE_FL=STORY 4_SCH=B,hourly; !- [J]
Output:Meter,Heating:EnergyTransfer:Zone:ALL_ST=GYM - AUDIENCE_FL=STORY 4_SCH=B,hourly; !- [J]
Output:Meter:Cumulative,Heating:EnergyTransfer:Zone:ALL_ST=GYM - AUDIENCE_FL=STORY 4_SCH=B,hourly; !- [J]
Output:Meter,Cooling:EnergyTransfer:Zone:ALL_ST=GYM - AUDIENCE_FL=STORY 4_SCH=B,hourly; !- [J]
Output:Meter:Cumulative,Cooling:EnergyTransfer:Zone:ALL_ST=GYM - AUDIENCE_FL=STORY 4_SCH=B,hourly; !- [J]
Output:Meter,EnergyTransfer:Zone:ALL_ST=GYM - FITNESS_FL=STORY 1_SCH=B,hourly; !- [J]
Output:Meter:Cumulative,EnergyTransfer:Zone:ALL_ST=GYM - FITNESS_FL=STORY 1_SCH=B,hourly; !- [J]
Output:Meter,Heating:EnergyTransfer:Zone:ALL_ST=GYM - FITNESS_FL=STORY 1_SCH=B,hourly; !- [J]
Output:Meter:Cumulative,Heating:EnergyTransfer:Zone:ALL_ST=GYM - FITNESS_FL=STORY 1_SCH=B,hourly; !- [J]
Output:Meter,Cooling:EnergyTransfer:Zone:ALL_ST=GYM - FITNESS_FL=STORY 1_SCH=B,hourly; !- [J]
Output:Meter:Cumulative,Cooling:EnergyTransfer:Zone:ALL_ST=GYM - FITNESS_FL=STORY 1_SCH=B,hourly; !- [J]
Output:Meter,EnergyTransfer:Zone:ALL_ST=GYM - PLAY_FL=STORY 1_SCH=B,hourly; !- [J]
Output:Meter:Cumulative,EnergyTransfer:Zone:ALL_ST=GYM - PLAY_FL=STORY 1_SCH=B,hourly; !- [J]
Output:Meter,Heating:EnergyTransfer:Zone:ALL_ST=GYM - PLAY_FL=STORY 1_SCH=B,hourly; !- [J]
Output:Meter:Cumulative,Heating:EnergyTransfer:Zone:ALL_ST=GYM - PLAY_FL=STORY 1_SCH=B,hourly; !- [J]
Output:Meter,Cooling:EnergyTransfer:Zone:ALL_ST=GYM - PLAY_FL=STORY 1_SCH=B,hourly; !- [J]
Output:Meter:Cumulative,Cooling:EnergyTransfer:Zone:ALL_ST=GYM - PLAY_FL=STORY 1_SCH=B,hourly; !- [J]
Output:Meter,EnergyTransfer:Zone:ALL_ST=HOSPITAL - EMERGENCY_FL=STORY 2_SCH=H,hourly; !- [J]
Output:Meter:Cumulative,EnergyTransfer:Zone:ALL_ST=HOSPITAL - EMERGENCY_FL=STORY 2_SCH=H,hourly; !- [J]
Output:Meter,Heating:EnergyTransfer:Zone:ALL_ST=HOSPITAL - EMERGENCY_FL=STORY 2_SCH=H,hourly; !- [J]
Output:Meter:Cumulative,Heating:EnergyTransfer:Zone:ALL_ST=HOSPITAL - EMERGENCY_FL=STORY 2_SCH=H,hourly; !- [J]
Output:Meter,Cooling:EnergyTransfer:Zone:ALL_ST=HOSPITAL - EMERGENCY_FL=STORY 2_SCH=H,hourly; !- [J]
Output:Meter:Cumulative,Cooling:EnergyTransfer:Zone:ALL_ST=HOSPITAL - EMERGENCY_FL=STORY 2_SCH=H,hourly; !- [J]
Output:Meter,EnergyTransfer:Zone:ALL_ST=HOSPITAL - EXAM_FL=STORY 3_SCH=C,hourly; !- [J]
Output:Meter:Cumulative,EnergyTransfer:Zone:ALL_ST=HOSPITAL - EXAM_FL=STORY 3_SCH=C,hourly; !- [J]
Output:Meter,Heating:EnergyTransfer:Zone:ALL_ST=HOSPITAL - EXAM_FL=STORY 3_SCH=C,hourly; !- [J]
Output:Meter:Cumulative,Heating:EnergyTransfer:Zone:ALL_ST=HOSPITAL - EXAM_FL=STORY 3_SCH=C,hourly; !- [J]
Output:Meter,Cooling:EnergyTransfer:Zone:ALL_ST=HOSPITAL - EXAM_FL=STORY 3_SCH=C,hourly; !- [J]
Output:Meter:Cumulative,Cooling:EnergyTransfer:Zone:ALL_ST=HOSPITAL - EXAM_FL=STORY 3_SCH=C,hourly; !- [J]
Output:Meter,EnergyTransfer:Zone:ALL_ST=HOSPITAL - LAUNDRY/WASHING_FL=STORY 1_SCH=C,hourly; !- [J]
Output:Meter:Cumulative,EnergyTransfer:Zone:ALL_ST=HOSPITAL - LAUNDRY/WASHING_FL=STORY 1_SCH=C,hourly; !- [J]
Output:Meter,Heating:EnergyTransfer:Zone:ALL_ST=HOSPITAL - LAUNDRY/WASHING_FL=STORY 1_SCH=C,hourly; !- [J]
Output:Meter:Cumulative,Heating:EnergyTransfer:Zone:ALL_ST=HOSPITAL - LAUNDRY/WASHING_FL=STORY 1_SCH=C,hourly; !- [J]
Output:Meter,Cooling:EnergyTransfer:Zone:ALL_ST=HOSPITAL - LAUNDRY/WASHING_FL=STORY 1_SCH=C,hourly; !- [J]
Output:Meter:Cumulative,Cooling:EnergyTransfer:Zone:ALL_ST=HOSPITAL - LAUNDRY/WASHING_FL=STORY 1_SCH=C,hourly; !- [J]
Output:Meter,EnergyTransfer:Zone:ALL_ST=HOSPITAL - LOUNGE/RECREATION_FL=STORY 2_SCH=B,hourly; !- [J]
Output:Meter:Cumulative,EnergyTransfer:Zone:ALL_ST=HOSPITAL - LOUNGE/RECREATION_FL=STORY 2_SCH=B,hourly; !- [J]
Output:Meter,Heating:EnergyTransfer:Zone:ALL_ST=HOSPITAL - LOUNGE/RECREATION_FL=STORY 2_SCH=B,hourly; !- [J]
Output:Meter:Cumulative,Heating:EnergyTransfer:Zone:ALL_ST=HOSPITAL - LOUNGE/RECREATION_FL=STORY 2_SCH=B,hourly; !- [J]
Output:Meter,Cooling:EnergyTransfer:Zone:ALL_ST=HOSPITAL - LOUNGE/RECREATION_FL=STORY 2_SCH=B,hourly; !- [J]
Output:Meter:Cumulative,Cooling:EnergyTransfer:Zone:ALL_ST=HOSPITAL - LOUNGE/RECREATION_FL=STORY 2_SCH=B,hourly; !- [J]
Output:Meter,EnergyTransfer:Zone:ALL_ST=HOSPITAL - MEDICAL SUPPLY_FL=STORY 2_SCH=H,hourly; !- [J]
Output:Meter:Cumulative,EnergyTransfer:Zone:ALL_ST=HOSPITAL - MEDICAL SUPPLY_FL=STORY 2_SCH=H,hourly; !- [J]
Output:Meter,Heating:EnergyTransfer:Zone:ALL_ST=HOSPITAL - MEDICAL SUPPLY_FL=STORY 2_SCH=H,hourly; !- [J]
Output:Meter:Cumulative,Heating:EnergyTransfer:Zone:ALL_ST=HOSPITAL - MEDICAL SUPPLY_FL=STORY 2_SCH=H,hourly; !- [J]
Output:Meter,Cooling:EnergyTransfer:Zone:ALL_ST=HOSPITAL - MEDICAL SUPPLY_FL=STORY 2_SCH=H,hourly; !- [J]
Output:Meter:Cumulative,Cooling:EnergyTransfer:Zone:ALL_ST=HOSPITAL - MEDICAL SUPPLY_FL=STORY 2_SCH=H,hourly; !- [J]
Output:Meter,EnergyTransfer:Zone:DU_BT=SPACE FUNCTION_ST=DORMITORY - LIVING QUARTERS_FL=STORY 4_SCHG,hourly; !- [J]
Output:Meter:Cumulative,EnergyTransfer:Zone:DU_BT=SPACE FUNCTION_ST=DORMITORY - LIVING QUARTERS_FL=STORY 4_SCHG,hourly; !- [J]
Output:Meter,Heating:EnergyTransfer:Zone:DU_BT=SPACE FUNCTION_ST=DORMITORY - LIVING QUARTERS_FL=STORY 4_SCHG,hourly; !- [J]
Output:Meter:Cumulative,Heating:EnergyTransfer:Zone:DU_BT=SPACE FUNCTION_ST=DORMITORY - LIVING QUARTERS_FL=STORY 4_SCHG,hourly; !- [J]
Output:Meter,Cooling:EnergyTransfer:Zone:DU_BT=SPACE FUNCTION_ST=DORMITORY - LIVING QUARTERS_FL=STORY 4_SCHG,hourly; !- [J]
Output:Meter:Cumulative,Cooling:EnergyTransfer:Zone:DU_BT=SPACE FUNCTION_ST=DORMITORY - LIVING QUARTERS_FL=STORY 4_SCHG,hourly; !- [J]
Output:Meter,EnergyTransfer:Zone:DU_BT=SPACE FUNCTION_ST=DWELLING UNIT(S)_FL=STORY 2_SCHG,hourly; !- [J]
Output:Meter:Cumulative,EnergyTransfer:Zone:DU_BT=SPACE FUNCTION_ST=DWELLING UNIT(S)_FL=STORY 2_SCHG,hourly; !- [J]
Output:Meter,Heating:EnergyTransfer:Zone:DU_BT=SPACE FUNCTION_ST=DWELLING UNIT(S)_FL=STORY 2_SCHG,hourly; !- [J]
Output:Meter:Cumulative,Heating:EnergyTransfer:Zone:DU_BT=SPACE FUNCTION_ST=DWELLING UNIT(S)_FL=STORY 2_SCHG,hourly; !- [J]
Output:Meter,Cooling:EnergyTransfer:Zone:DU_BT=SPACE FUNCTION_ST=DWELLING UNIT(S)_FL=STORY 2_SCHG,hourly; !- [J]
Output:Meter:Cumulative,Cooling:EnergyTransfer:Zone:DU_BT=SPACE FUNCTION_ST=DWELLING UNIT(S)_FL=STORY 2_SCHG,hourly; !- [J]
Output:Meter,EnergyTransfer:Zone:DU_BT=SPACE FUNCTION_ST=FIRE STATION - QUARTERS_FL=STORY 4_SCHG,hourly; !- [J]
Output:Meter:Cumulative,EnergyTransfer:Zone:DU_BT=SPACE FUNCTION_ST=FIRE STATION - QUARTERS_FL=STORY 4_SCHG,hourly; !- [J]
Output:Meter,Heating:EnergyTransfer:Zone:DU_BT=SPACE FUNCTION_ST=FIRE STATION - QUARTERS_FL=STORY 4_SCHG,hourly; !- [J]
Output:Meter:Cumulative,Heating:EnergyTransfer:Zone:DU_BT=SPACE FUNCTION_ST=FIRE STATION - QUARTERS_FL=STORY 4_SCHG,hourly; !- [J]
Output:Meter,Cooling:EnergyTransfer:Zone:DU_BT=SPACE FUNCTION_ST=FIRE STATION - QUARTERS_FL=STORY 4_SCHG,hourly; !- [J]
Output:Meter:Cumulative,Cooling:EnergyTransfer:Zone:DU_BT=SPACE FUNCTION_ST=FIRE STATION - QUARTERS_FL=STORY 4_SCHG,hourly; !- [J]
Output:Meter,EnergyTransfer:Plant,hourly; !- [J]
Output:Meter:Cumulative,EnergyTransfer:Plant,hourly; !- [J]
Output:Meter,WaterSystems:EnergyTransfer,hourly; !- [J]
Output:Meter:Cumulative,WaterSystems:EnergyTransfer,hourly; !- [J]
Output:Meter,General:WaterSystems:EnergyTransfer,hourly; !- [J]
Output:Meter:Cumulative,General:WaterSystems:EnergyTransfer,hourly; !- [J]
Output:Meter,ElectricityPurchased:Facility,hourly; !- [J]
Output:Meter:Cumulative,ElectricityPurchased:Facility,hourly; !- [J]
Output:Meter,ElectricityPurchased:Plant,hourly; !- [J]
Output:Meter:Cumulative,ElectricityPurchased:Plant,hourly; !- [J]
Output:Meter,Cogeneration:ElectricityPurchased,hourly; !- [J]
Output:Meter:Cumulative,Cogeneration:ElectricityPurchased,hourly; !- [J]
Output:Meter,ElectricitySurplusSold:Facility,hourly; !- [J]
Output:Meter:Cumulative,ElectricitySurplusSold:Facility,hourly; !- [J]
Output:Meter,ElectricitySurplusSold:Plant,hourly; !- [J]
Output:Meter:Cumulative,ElectricitySurplusSold:Plant,hourly; !- [J]
Output:Meter,Cogeneration:ElectricitySurplusSold,hourly; !- [J]
Output:Meter:Cumulative,Cogeneration:ElectricitySurplusSold,hourly; !- [J]
Output:Meter,ElectricityNet:Facility,hourly; !- [J]
Output:Meter:Cumulative,ElectricityNet:Facility,hourly; !- [J]
Output:Meter,ElectricityNet:Plant,hourly; !- [J]
Output:Meter:Cumulative,ElectricityNet:Plant,hourly; !- [J]
Output:Meter,Cogeneration:ElectricityNet,hourly; !- [J]
Output:Meter:Cumulative,Cogeneration:ElectricityNet,hourly; !- [J]
Output:Meter,EnergyTransfer:HVAC,hourly; !- [J]
Output:Meter:Cumulative,EnergyTransfer:HVAC,hourly; !- [J]
Output:Meter,Baseboard:EnergyTransfer,hourly; !- [J]
Output:Meter:Cumulative,Baseboard:EnergyTransfer,hourly; !- [J]
Output:Meter,PlantLoopHeatingDemand:HVAC,hourly; !- [J]
Output:Meter:Cumulative,PlantLoopHeatingDemand:HVAC,hourly; !- [J]
Output:Meter,Baseboard:PlantLoopHeatingDemand,hourly; !- [J]
Output:Meter:Cumulative,Baseboard:PlantLoopHeatingDemand,hourly; !- [J]
Output:Meter,HeatingCoils:EnergyTransfer,hourly; !- [J]
Output:Meter:Cumulative,HeatingCoils:EnergyTransfer,hourly; !- [J]
Output:Meter,HeatingCoils:PlantLoopHeatingDemand,hourly; !- [J]
Output:Meter:Cumulative,HeatingCoils:PlantLoopHeatingDemand,hourly; !- [J]
Output:Meter,CoolingCoils:EnergyTransfer,hourly; !- [J]
Output:Meter:Cumulative,CoolingCoils:EnergyTransfer,hourly; !- [J]
Output:Meter,PlantLoopCoolingDemand:Facility,hourly; !- [J]
Output:Meter:Cumulative,PlantLoopCoolingDemand:Facility,hourly; !- [J]
Output:Meter,PlantLoopCoolingDemand:HVAC,hourly; !- [J]
Output:Meter:Cumulative,PlantLoopCoolingDemand:HVAC,hourly; !- [J]
Output:Meter,CoolingCoils:PlantLoopCoolingDemand,hourly; !- [J]
Output:Meter:Cumulative,CoolingCoils:PlantLoopCoolingDemand,hourly; !- [J]
Output:Meter,Electricity:HVAC,hourly; !- [J]
Output:Meter:Cumulative,Electricity:HVAC,hourly; !- [J]
Output:Meter,Fans:Electricity,hourly; !- [J]
Output:Meter:Cumulative,Fans:Electricity,hourly; !- [J]
Output:Meter,General:Fans:Electricity,hourly; !- [J]
Output:Meter:Cumulative,General:Fans:Electricity,hourly; !- [J]
Output:Meter,Heating:Electricity,hourly; !- [J]
Output:Meter:Cumulative,Heating:Electricity,hourly; !- [J]
Output:Meter,Gas:HVAC,hourly; !- [J]
Output:Meter:Cumulative,Gas:HVAC,hourly; !- [J]
Output:Meter,Heating:Gas,hourly; !- [J]
Output:Meter:Cumulative,Heating:Gas,hourly; !- [J]
Output:Meter,Cooling:Electricity,hourly; !- [J]
Output:Meter:Cumulative,Cooling:Electricity,hourly; !- [J]
Output:Meter,Electricity:Plant,hourly; !- [J]
Output:Meter:Cumulative,Electricity:Plant,hourly; !- [J]
Output:Meter,General:Cooling:Electricity,hourly; !- [J]
Output:Meter:Cumulative,General:Cooling:Electricity,hourly; !- [J]
Output:Meter,Chillers:EnergyTransfer,hourly; !- [J]
Output:Meter:Cumulative,Chillers:EnergyTransfer,hourly; !- [J]
Output:Meter,HeatRejection:EnergyTransfer,hourly; !- [J]
Output:Meter:Cumulative,HeatRejection:EnergyTransfer,hourly; !- [J]
Output:Meter,HeatRejection:Electricity,hourly; !- [J]
Output:Meter:Cumulative,HeatRejection:Electricity,hourly; !- [J]
Output:Meter,General:HeatRejection:Electricity,hourly; !- [J]
Output:Meter:Cumulative,General:HeatRejection:Electricity,hourly; !- [J]
Output:Meter,HeatRejection:Water,hourly; !- [m3]
Output:Meter:Cumulative,HeatRejection:Water,hourly; !- [m3]
Output:Meter,HeatRejection:MainsWater,hourly; !- [m3]
Output:Meter:Cumulative,HeatRejection:MainsWater,hourly; !- [m3]
Output:Meter,Boilers:EnergyTransfer,hourly; !- [J]
Output:Meter:Cumulative,Boilers:EnergyTransfer,hourly; !- [J]
Output:Meter,General:Heating:Gas,hourly; !- [J]
Output:Meter:Cumulative,General:Heating:Gas,hourly; !- [J]
Output:Meter,Boiler Parasitic:Heating:Electricity,hourly; !- [J]
Output:Meter:Cumulative,Boiler Parasitic:Heating:Electricity,hourly; !- [J]
Output:Meter,Pumps:Electricity,hourly; !- [J]
Output:Meter:Cumulative,Pumps:Electricity,hourly; !- [J]
Output:Meter,Carbon Equivalent:Facility,hourly; !- [kg]
Output:Meter:Cumulative,Carbon Equivalent:Facility,hourly; !- [kg]
Output:Meter,CarbonEquivalentEmissions:Carbon Equivalent,hourly; !- [kg]
Output:Meter:Cumulative,CarbonEquivalentEmissions:Carbon Equivalent,hourly; !- [kg]
