Program Version,EnergyPlus, Version 8.9.0-eba93e8e1b, YMD=2019.04.04 17:58
! This file shows details about the branches, nodes, and other
! elements of the flow connections.
! This file is intended for use in "debugging" potential problems
! that may also be detected by the program, but may be more easily
! identified by "eye".
! This file is also intended to support software which draws a
! schematic diagram of the HVAC system.
! ===============================================================
! #Nodes,<Number of Unique Nodes>
 #Nodes,165
! <Node>,<NodeNumber>,<Node Name>,<Node Fluid Type>,<# Times Node Referenced After Definition>
 Node,1,NODE 39,Air,4
 Node,2,NODE 65,Air,4
 Node,3,NODE 115,Air,3
 Node,4,NODE 105,Air,4
 Node,5,NODE 114,Air,3
 Node,6,NODE 52,Air,4
 Node,7,NODE 31,Air,3
 Node,8,NODE 23,Air,3
 Node,9,NODE 30,Air,3
 Node,10,NODE 20,Air,10
 Node,11,NODE 21,Air,3
 Node,12,NODE 102,Air,10
 Node,13,NODE 103,Air,3
 Node,14,NODE 36,Air,10
 Node,15,NODE 37,Air,3
 Node,16,NODE 62,Air,10
 Node,17,NODE 63,Air,3
 Node,18,NODE 49,Air,10
 Node,19,NODE 50,Air,3
 Node,20,NODE 19,Air,3
 Node,21,NODE 29,Air,6
 Node,22,NODE 28,Air,6
 Node,23,NODE 27,Air,8
 Node,24,NODE 101,Air,3
 Node,25,NODE 110,Air,6
 Node,26,NODE 109,Air,6
 Node,27,NODE 108,Air,8
 Node,28,NODE 35,Air,3
 Node,29,NODE 44,Air,6
 Node,30,NODE 43,Air,6
 Node,31,NODE 42,Air,8
 Node,32,NODE 61,Air,3
 Node,33,NODE 70,Air,6
 Node,34,NODE 69,Air,6
 Node,35,NODE 68,Air,8
 Node,36,NODE 48,Air,3
 Node,37,NODE 57,Air,6
 Node,38,NODE 56,Air,6
 Node,39,NODE 55,Air,8
 Node,40,NODE 74,Water,2
 Node,41,NODE 80,Water,1
 Node,42,NODE 76,Water,1
 Node,43,NODE 81,Water,1
 Node,44,NODE 82,Water,1
 Node,45,NODE 83,Water,1
 Node,46,NODE 84,Water,1
 Node,47,NODE 85,Water,1
 Node,48,NODE 86,Water,1
 Node,49,NODE 75,Water,4
 Node,50,NODE 77,Water,2
 Node,51,CHILLED WATER LOOP DEMAND INLET PIPE NODE,Water,1
 Node,52,NODE 79,Water,1
 Node,53,NODE 113,Water,1
 Node,54,CHILLED WATER LOOP DEMAND BYPASS PIPE INLET NODE,Water,1
 Node,55,CHILLED WATER LOOP DEMAND BYPASS PIPE OUTLET NODE,Water,1
 Node,56,CHILLED WATER LOOP DEMAND OUTLET PIPE NODE,Water,1
 Node,57,NODE 78,Water,2
 Node,58,NODE 87,Water,2
 Node,59,NODE 93,Water,1
 Node,60,NODE 89,Water,1
 Node,61,NODE 94,Water,1
 Node,62,NODE 95,Water,1
 Node,63,NODE 96,Water,1
 Node,64,NODE 97,Water,1
 Node,65,NODE 88,Water,4
 Node,66,NODE 90,Water,2
 Node,67,CONDENSER WATER LOOP DEMAND INLET PIPE NODE,Water,1
 Node,68,NODE 92,Water,1
 Node,69,NODE 98,Water,1
 Node,70,NODE 99,Water,1
 Node,71,NODE 100,Water,1
 Node,72,CONDENSER WATER LOOP DEMAND BYPASS PIPE INLET NODE,Water,1
 Node,73,CONDENSER WATER LOOP DEMAND BYPASS PIPE OUTLET NODE,Water,1
 Node,74,CONDENSER WATER LOOP DEMAND OUTLET PIPE NODE,Water,1
 Node,75,NODE 91,Water,2
 Node,76,NODE 2,Water,2
 Node,77,NODE 11,Water,1
 Node,78,NODE 5,Water,1
 Node,79,NODE 12,Water,1
 Node,80,NODE 14,Water,1
 Node,81,NODE 15,Water,1
 Node,82,NODE 16,Water,1
 Node,83,NODE 17,Water,1
 Node,84,NODE 18,Water,1
 Node,85,NODE 3,Water,4
 Node,86,NODE 6,Water,2
 Node,87,HOT WATER LOOP DEMAND INLET PIPE NODE,Water,1
 Node,88,NODE 9,Water,2
 Node,89,NODE 24,Water,1
 Node,90,NODE 32,Water,1
 Node,91,NODE 33,Water,1
 Node,92,NODE 46,Water,1
 Node,93,NODE 47,Water,1
 Node,94,NODE 59,Water,1
 Node,95,NODE 60,Water,1
 Node,96,NODE 72,Water,1
 Node,97,NODE 73,Water,1
 Node,98,NODE 111,Water,1
 Node,99,NODE 112,Water,1
 Node,100,HOT WATER LOOP DEMAND BYPASS PIPE INLET NODE,Water,1
 Node,101,HOT WATER LOOP DEMAND BYPASS PIPE OUTLET NODE,Water,1
 Node,102,HOT WATER LOOP DEMAND OUTLET PIPE NODE,Water,1
 Node,103,NODE 8,Water,2
 Node,104,NODE 117,Water,2
 Node,105,NODE 123,Water,1
 Node,106,NODE 119,Water,1
 Node,107,NODE 124,Water,1
 Node,108,NODE 125,Water,1
 Node,109,NODE 126,Water,1
 Node,110,NODE 128,Water,1
 Node,111,NODE 118,Water,4
 Node,112,NODE 120,Water,2
 Node,113,NODE 129,Water,1
 Node,114,NODE 122,Water,1
 Node,115,NODE 127,Water,1
 Node,116,NODE 131,Water,1
 Node,117,NODE 132,Water,1
 Node,118,NODE 133,Water,1
 Node,119,NODE 134,Water,1
 Node,120,NODE 135,Water,1
 Node,121,NODE 136,Water,1
 Node,122,NODE 137,Water,1
 Node,123,NODE 138,Water,1
 Node,124,NODE 139,Water,1
 Node,125,NODE 140,Water,1
 Node,126,MAIN SERVICE WATER LOOP DEMAND BYPASS PIPE INLET NODE,Water,1
 Node,127,MAIN SERVICE WATER LOOP DEMAND BYPASS PIPE OUTLET NODE,Water,1
 Node,128,NODE 130,Water,1
 Node,129,NODE 121,Water,2
 Node,130,NODE 4,Air,1
 Node,131,NODE 45,Air,1
 Node,132,NODE 13,Air,1
 Node,133,NODE 71,Air,1
 Node,134,NODE 10,Air,1
 Node,135,NODE 116,Air,1
 Node,136,NODE 7,Air,1
 Node,137,NODE 58,Air,1
 Node,138,NODE 1,Air,0
 Node,139,NODE 34,Air,1
 Node,140,NODE 22,Air,2
 Node,141,NODE 104,Air,2
 Node,142,NODE 38,Air,2
 Node,143,NODE 64,Air,2
 Node,144,NODE 51,Air,2
 Node,145,ZONE HVAC FOUR PIPE FAN COIL 1 OA NODE,Air,1
 Node,146,DU_BT=HOTEL_ST=WHOLEBUILDING_FL=STORY 1_SCHF PTAC OA NODE,Air,1
 Node,147,NODE 25,Air,2
 Node,148,NODE 106,Air,2
 Node,149,NODE 40,Air,2
 Node,150,NODE 66,Air,2
 Node,151,NODE 53,Air,2
 Node,152,MODEL OUTDOOR AIR NODE,Air,0
 Node,153,ZONE HVAC FOUR PIPE FAN COIL 1 MIXED AIR NODE,Air,1
 Node,154,ZONE HVAC FOUR PIPE FAN COIL 1 RELIEF AIR NODE,Air,0
 Node,155,DU_BT=HOTEL_ST=WHOLEBUILDING_FL=STORY 1_SCHF PTAC MIXED AIR NODE,Air,1
 Node,156,DU_BT=HOTEL_ST=WHOLEBUILDING_FL=STORY 1_SCHF PTAC RELIEF AIR NODE,Air,0
 Node,157,NODE 26,Air,1
 Node,158,NODE 107,Air,1
 Node,159,NODE 41,Air,1
 Node,160,NODE 67,Air,1
 Node,161,NODE 54,Air,1
 Node,162,ZONE HVAC FOUR PIPE FAN COIL 1 COOLING COIL OUTLET NODE,Air,1
 Node,163,ZONE HVAC FOUR PIPE FAN COIL 1 FAN OUTLET NODE,Air,1
 Node,164,DU_BT=HOTEL_ST=WHOLEBUILDING_FL=STORY 1_SCHF PTAC HEATING COIL OUTLET NODE,Air,1
 Node,165,DU_BT=HOTEL_ST=WHOLEBUILDING_FL=STORY 1_SCHF PTAC COOLING COIL OUTLET NODE,Air,1
! ===============================================================
! Suspicious nodes have 0 references.  It is normal for some nodes, however.
! Listing nodes with 0 references (culled from previous list):
! <Suspicious Node>,<NodeNumber>,<Node Name>,<Node Fluid Type>,<# Times Node Referenced After Definition>
 Suspicious Node,138,NODE 1,Air,0
 Suspicious Node,152,MODEL OUTDOOR AIR NODE,Air,0
 Suspicious Node,154,ZONE HVAC FOUR PIPE FAN COIL 1 RELIEF AIR NODE,Air,0
 Suspicious Node,156,DU_BT=HOTEL_ST=WHOLEBUILDING_FL=STORY 1_SCHF PTAC RELIEF AIR NODE,Air,0
! ===============================================================
! <#Branch Lists>,<Number of Branch Lists>
 #Branch Lists,13
! <Branch List>,<Branch List Count>,<Branch List Name>,<Loop Name>,<Loop Type>,<Number of Branches>
! <Branch>,<Branch Count>,<Branch Name>,<Loop Name>,<Loop Type>,<Branch Inlet Node Name>,<Branch Outlet Node Name>
 Branch List,1,SYS_1_MAKE-UP AIR UNIT SUPPLY BRANCHES,SYS_1_MAKE-UP AIR UNIT,Air,1
   Branch,1,SYS_1_MAKE-UP AIR UNIT MAIN BRANCH,SYS_1_MAKE-UP AIR UNIT,Air,NODE 19,NODE 20
 Branch List,2,SYS_2_MAKE-UP AIR UNIT SUPPLY BRANCHES,SYS_2_MAKE-UP AIR UNIT,Air,1
   Branch,1,SYS_2_MAKE-UP AIR UNIT MAIN BRANCH,SYS_2_MAKE-UP AIR UNIT,Air,NODE 101,NODE 102
 Branch List,3,SYS_3_PSZ ALL_ST=WHOLEBUILDING_FL=STORY 1_SCH=A SUPPLY BRANCHES,SYS_3_PSZ ALL_ST=WHOLEBUILDING_FL=STORY 1_SCH=A,Air,1
   Branch,1,SYS_3_PSZ ALL_ST=WHOLEBUILDING_FL=STORY 1_SCH=A MAIN BRANCH,SYS_3_PSZ ALL_ST=WHOLEBUILDING_FL=STORY 1_SCH=A,Air,NODE 35,NODE 36
 Branch List,4,SYS_3_PSZ ALL_ST=WHOLEBUILDING_FL=STORY 1_SCH=A 1 SUPPLY BRANCHES,SYS_3_PSZ ALL_ST=WHOLEBUILDING_FL=STORY 1_SCH=A 1,Air,1
   Branch,1,SYS_3_PSZ ALL_ST=WHOLEBUILDING_FL=STORY 1_SCH=A 1 MAIN BRANCH,SYS_3_PSZ ALL_ST=WHOLEBUILDING_FL=STORY 1_SCH=A 1,Air,NODE 61,NODE 62
 Branch List,5,SYS_3_PSZ ALL_ST=WHOLEBUILDING_FL=STORY 1_SCH=H SUPPLY BRANCHES,SYS_3_PSZ ALL_ST=WHOLEBUILDING_FL=STORY 1_SCH=H,Air,1
   Branch,1,SYS_3_PSZ ALL_ST=WHOLEBUILDING_FL=STORY 1_SCH=H MAIN BRANCH,SYS_3_PSZ ALL_ST=WHOLEBUILDING_FL=STORY 1_SCH=H,Air,NODE 48,NODE 49
 Branch List,6,CHILLED WATER LOOP SUPPLY BRANCHES,CHILLED WATER LOOP,Plant Supply,5
   Branch,1,CHILLED WATER LOOP SUPPLY INLET BRANCH,CHILLED WATER LOOP,Plant Supply,NODE 74,NODE 80
   Branch,2,CHILLED WATER LOOP SUPPLY BRANCH 1,CHILLED WATER LOOP,Plant Supply,NODE 76,NODE 81
   Branch,3,CHILLED WATER LOOP SUPPLY BRANCH 2,CHILLED WATER LOOP,Plant Supply,NODE 82,NODE 83
   Branch,4,CHILLED WATER LOOP SUPPLY BRANCH 3,CHILLED WATER LOOP,Plant Supply,NODE 84,NODE 85
   Branch,5,CHILLED WATER LOOP SUPPLY OUTLET BRANCH,CHILLED WATER LOOP,Plant Supply,NODE 86,NODE 75
 Branch List,7,CHILLED WATER LOOP DEMAND BRANCHES,CHILLED WATER LOOP,Plant Demand,4
   Branch,1,CHILLED WATER LOOP DEMAND INLET BRANCH,CHILLED WATER LOOP,Plant Demand,NODE 77,CHILLED WATER LOOP DEMAND INLET PIPE NODE
   Branch,2,CHILLED WATER LOOP DEMAND BRANCH 1,CHILLED WATER LOOP,Plant Demand,NODE 79,NODE 113
   Branch,3,CHILLED WATER LOOP DEMAND BYPASS BRANCH,CHILLED WATER LOOP,Plant Demand,CHILLED WATER LOOP DEMAND BYPASS PIPE INLET NODE,CHILLED WATER LOOP DEMAND BYPASS PIPE OUTLET NODE
   Branch,4,CHILLED WATER LOOP DEMAND OUTLET BRANCH,CHILLED WATER LOOP,Plant Demand,CHILLED WATER LOOP DEMAND OUTLET PIPE NODE,NODE 78
 Branch List,8,CONDENSER WATER LOOP SUPPLY BRANCHES,CONDENSER WATER LOOP,Plant Supply,4
   Branch,1,CONDENSER WATER LOOP SUPPLY INLET BRANCH,CONDENSER WATER LOOP,Plant Supply,NODE 87,NODE 93
   Branch,2,CONDENSER WATER LOOP SUPPLY BRANCH 1,CONDENSER WATER LOOP,Plant Supply,NODE 89,NODE 94
   Branch,3,CONDENSER WATER LOOP SUPPLY BRANCH 2,CONDENSER WATER LOOP,Plant Supply,NODE 95,NODE 96
   Branch,4,CONDENSER WATER LOOP SUPPLY OUTLET BRANCH,CONDENSER WATER LOOP,Plant Supply,NODE 97,NODE 88
 Branch List,9,CONDENSER WATER LOOP DEMAND BRANCHES,CONDENSER WATER LOOP,Plant Demand,5
   Branch,1,CONDENSER WATER LOOP DEMAND INLET BRANCH,CONDENSER WATER LOOP,Plant Demand,NODE 90,CONDENSER WATER LOOP DEMAND INLET PIPE NODE
   Branch,2,CONDENSER WATER LOOP DEMAND BRANCH 1,CONDENSER WATER LOOP,Plant Demand,NODE 92,NODE 98
   Branch,3,CONDENSER WATER LOOP DEMAND BRANCH 2,CONDENSER WATER LOOP,Plant Demand,NODE 99,NODE 100
   Branch,4,CONDENSER WATER LOOP DEMAND BYPASS BRANCH,CONDENSER WATER LOOP,Plant Demand,CONDENSER WATER LOOP DEMAND BYPASS PIPE INLET NODE,CONDENSER WATER LOOP DEMAND BYPASS PIPE OUTLET NODE
   Branch,5,CONDENSER WATER LOOP DEMAND OUTLET BRANCH,CONDENSER WATER LOOP,Plant Demand,CONDENSER WATER LOOP DEMAND OUTLET PIPE NODE,NODE 91
 Branch List,10,HOT WATER LOOP SUPPLY BRANCHES,HOT WATER LOOP,Plant Supply,5
   Branch,1,HOT WATER LOOP SUPPLY INLET BRANCH,HOT WATER LOOP,Plant Supply,NODE 2,NODE 11
   Branch,2,HOT WATER LOOP SUPPLY BRANCH 1,HOT WATER LOOP,Plant Supply,NODE 5,NODE 12
   Branch,3,HOT WATER LOOP SUPPLY BRANCH 2,HOT WATER LOOP,Plant Supply,NODE 14,NODE 15
   Branch,4,HOT WATER LOOP SUPPLY BRANCH 3,HOT WATER LOOP,Plant Supply,NODE 16,NODE 17
   Branch,5,HOT WATER LOOP SUPPLY OUTLET BRANCH,HOT WATER LOOP,Plant Supply,NODE 18,NODE 3
 Branch List,11,HOT WATER LOOP DEMAND BRANCHES,HOT WATER LOOP,Plant Demand,9
   Branch,1,HOT WATER LOOP DEMAND INLET BRANCH,HOT WATER LOOP,Plant Demand,NODE 6,HOT WATER LOOP DEMAND INLET PIPE NODE
   Branch,2,HOT WATER LOOP DEMAND BRANCH 1,HOT WATER LOOP,Plant Demand,NODE 9,NODE 24
   Branch,3,HOT WATER LOOP DEMAND BRANCH 2,HOT WATER LOOP,Plant Demand,NODE 32,NODE 33
   Branch,4,HOT WATER LOOP DEMAND BRANCH 3,HOT WATER LOOP,Plant Demand,NODE 46,NODE 47
   Branch,5,HOT WATER LOOP DEMAND BRANCH 4,HOT WATER LOOP,Plant Demand,NODE 59,NODE 60
   Branch,6,HOT WATER LOOP DEMAND BRANCH 5,HOT WATER LOOP,Plant Demand,NODE 72,NODE 73
   Branch,7,HOT WATER LOOP DEMAND BRANCH 6,HOT WATER LOOP,Plant Demand,NODE 111,NODE 112
   Branch,8,HOT WATER LOOP DEMAND BYPASS BRANCH,HOT WATER LOOP,Plant Demand,HOT WATER LOOP DEMAND BYPASS PIPE INLET NODE,HOT WATER LOOP DEMAND BYPASS PIPE OUTLET NODE
   Branch,9,HOT WATER LOOP DEMAND OUTLET BRANCH,HOT WATER LOOP,Plant Demand,HOT WATER LOOP DEMAND OUTLET PIPE NODE,NODE 8
 Branch List,12,MAIN SERVICE WATER LOOP SUPPLY BRANCHES,MAIN SERVICE WATER LOOP,Plant Supply,4
   Branch,1,MAIN SERVICE WATER LOOP SUPPLY INLET BRANCH,MAIN SERVICE WATER LOOP,Plant Supply,NODE 117,NODE 123
   Branch,2,MAIN SERVICE WATER LOOP SUPPLY BRANCH 1,MAIN SERVICE WATER LOOP,Plant Supply,NODE 119,NODE 124
   Branch,3,MAIN SERVICE WATER LOOP SUPPLY BRANCH 2,MAIN SERVICE WATER LOOP,Plant Supply,NODE 125,NODE 126
   Branch,4,MAIN SERVICE WATER LOOP SUPPLY OUTLET BRANCH,MAIN SERVICE WATER LOOP,Plant Supply,NODE 128,NODE 118
 Branch List,13,MAIN SERVICE WATER LOOP DEMAND BRANCHES,MAIN SERVICE WATER LOOP,Plant Demand,9
   Branch,1,MAIN SERVICE WATER LOOP DEMAND INLET BRANCH,MAIN SERVICE WATER LOOP,Plant Demand,NODE 120,NODE 129
   Branch,2,MAIN SERVICE WATER LOOP DEMAND BRANCH 1,MAIN SERVICE WATER LOOP,Plant Demand,NODE 122,NODE 127
   Branch,3,MAIN SERVICE WATER LOOP DEMAND BRANCH 2,MAIN SERVICE WATER LOOP,Plant Demand,NODE 131,NODE 132
   Branch,4,MAIN SERVICE WATER LOOP DEMAND BRANCH 3,MAIN SERVICE WATER LOOP,Plant Demand,NODE 133,NODE 134
   Branch,5,MAIN SERVICE WATER LOOP DEMAND BRANCH 4,MAIN SERVICE WATER LOOP,Plant Demand,NODE 135,NODE 136
   Branch,6,MAIN SERVICE WATER LOOP DEMAND BRANCH 5,MAIN SERVICE WATER LOOP,Plant Demand,NODE 137,NODE 138
   Branch,7,MAIN SERVICE WATER LOOP DEMAND BRANCH 6,MAIN SERVICE WATER LOOP,Plant Demand,NODE 139,NODE 140
   Branch,8,MAIN SERVICE WATER LOOP DEMAND BYPASS BRANCH,MAIN SERVICE WATER LOOP,Plant Demand,MAIN SERVICE WATER LOOP DEMAND BYPASS PIPE INLET NODE,MAIN SERVICE WATER LOOP DEMAND BYPASS PIPE OUTLET NODE
   Branch,9,MAIN SERVICE WATER LOOP DEMAND OUTLET BRANCH,MAIN SERVICE WATER LOOP,Plant Demand,NODE 130,NODE 121
! ===============================================================
! <#Supply Air Paths>,<Number of Supply Air Paths>
 #Supply Air Paths,5
! <Supply Air Path>,<Supply Air Path Count>,<Supply Air Path Name>,<AirLoopHVAC Name>
! <#Components on Supply Air Path>,<Number of Components>
! <Supply Air Path Component>,<Component Count>,<Component Type>,<Component Name>,<AirLoopHVAC Name>
! <#Outlet Nodes on Supply Air Path Component>,<Number of Nodes>
! <Supply Air Path Component Nodes>,<Node Count>,<Component Type>,<Component Name>,<Inlet Node Name>,<Outlet Node Name>,<AirLoopHVAC Name>
 Supply Air Path,1,SYS_1_MAKE-UP AIR UNIT NODE 21 SUPPLY PATH,SYS_1_MAKE-UP AIR UNIT
   #Components on Supply Air Path,1
   Supply Air Path Component,1,AIRLOOPHVAC:ZONESPLITTER,AIR LOOP HVAC ZONE SPLITTER 1,SYS_1_MAKE-UP AIR UNIT
     #Outlet Nodes on Supply Air Path Component,1
     Supply Air Path Component Nodes,1,AIRLOOPHVAC:ZONESPLITTER,AIR LOOP HVAC ZONE SPLITTER 1,NODE 21,NODE 23,SYS_1_MAKE-UP AIR UNIT
! <#Nodes on Supply Air Path>,<Number of Nodes>
! <Supply Air Path Node>,<Node Type>,<Node Count>,<Node Name>,<AirLoopHVAC Name>
#Nodes on Supply Air Path,2
   Supply Air Path Node,Inlet Node,1,NODE 21,SYS_1_MAKE-UP AIR UNIT
   Supply Air Path Node,Outlet Node,2,NODE 23,SYS_1_MAKE-UP AIR UNIT
 Supply Air Path,2,SYS_2_MAKE-UP AIR UNIT NODE 103 SUPPLY PATH,SYS_2_MAKE-UP AIR UNIT
   #Components on Supply Air Path,1
   Supply Air Path Component,1,AIRLOOPHVAC:ZONESPLITTER,AIR LOOP HVAC ZONE SPLITTER 5,SYS_2_MAKE-UP AIR UNIT
     #Outlet Nodes on Supply Air Path Component,1
     Supply Air Path Component Nodes,1,AIRLOOPHVAC:ZONESPLITTER,AIR LOOP HVAC ZONE SPLITTER 5,NODE 103,NODE 105,SYS_2_MAKE-UP AIR UNIT
! <#Nodes on Supply Air Path>,<Number of Nodes>
! <Supply Air Path Node>,<Node Type>,<Node Count>,<Node Name>,<AirLoopHVAC Name>
#Nodes on Supply Air Path,2
   Supply Air Path Node,Inlet Node,1,NODE 103,SYS_2_MAKE-UP AIR UNIT
   Supply Air Path Node,Outlet Node,2,NODE 105,SYS_2_MAKE-UP AIR UNIT
 Supply Air Path,3,SYS_3_PSZ ALL_ST=WHOLEBUILDING_FL=STORY 1_SCH=A NODE 37 SUPPLY PATH,SYS_3_PSZ ALL_ST=WHOLEBUILDING_FL=STORY 1_SCH=A
   #Components on Supply Air Path,1
   Supply Air Path Component,1,AIRLOOPHVAC:ZONESPLITTER,AIR LOOP HVAC ZONE SPLITTER 2,SYS_3_PSZ ALL_ST=WHOLEBUILDING_FL=STORY 1_SCH=A
     #Outlet Nodes on Supply Air Path Component,1
     Supply Air Path Component Nodes,1,AIRLOOPHVAC:ZONESPLITTER,AIR LOOP HVAC ZONE SPLITTER 2,NODE 37,NODE 39,SYS_3_PSZ ALL_ST=WHOLEBUILDING_FL=STORY 1_SCH=A
! <#Nodes on Supply Air Path>,<Number of Nodes>
! <Supply Air Path Node>,<Node Type>,<Node Count>,<Node Name>,<AirLoopHVAC Name>
#Nodes on Supply Air Path,2
   Supply Air Path Node,Inlet Node,1,NODE 37,SYS_3_PSZ ALL_ST=WHOLEBUILDING_FL=STORY 1_SCH=A
   Supply Air Path Node,Outlet Node,2,NODE 39,SYS_3_PSZ ALL_ST=WHOLEBUILDING_FL=STORY 1_SCH=A
 Supply Air Path,4,SYS_3_PSZ ALL_ST=WHOLEBUILDING_FL=STORY 1_SCH=A 1 NODE 63 SUPPLY PATH,SYS_3_PSZ ALL_ST=WHOLEBUILDING_FL=STORY 1_SCH=A 1
   #Components on Supply Air Path,1
   Supply Air Path Component,1,AIRLOOPHVAC:ZONESPLITTER,AIR LOOP HVAC ZONE SPLITTER 4,SYS_3_PSZ ALL_ST=WHOLEBUILDING_FL=STORY 1_SCH=A 1
     #Outlet Nodes on Supply Air Path Component,1
     Supply Air Path Component Nodes,1,AIRLOOPHVAC:ZONESPLITTER,AIR LOOP HVAC ZONE SPLITTER 4,NODE 63,NODE 65,SYS_3_PSZ ALL_ST=WHOLEBUILDING_FL=STORY 1_SCH=A 1
! <#Nodes on Supply Air Path>,<Number of Nodes>
! <Supply Air Path Node>,<Node Type>,<Node Count>,<Node Name>,<AirLoopHVAC Name>
#Nodes on Supply Air Path,2
   Supply Air Path Node,Inlet Node,1,NODE 63,SYS_3_PSZ ALL_ST=WHOLEBUILDING_FL=STORY 1_SCH=A 1
   Supply Air Path Node,Outlet Node,2,NODE 65,SYS_3_PSZ ALL_ST=WHOLEBUILDING_FL=STORY 1_SCH=A 1
 Supply Air Path,5,SYS_3_PSZ ALL_ST=WHOLEBUILDING_FL=STORY 1_SCH=H NODE 50 SUPPLY PATH,SYS_3_PSZ ALL_ST=WHOLEBUILDING_FL=STORY 1_SCH=H
   #Components on Supply Air Path,1
   Supply Air Path Component,1,AIRLOOPHVAC:ZONESPLITTER,AIR LOOP HVAC ZONE SPLITTER 3,SYS_3_PSZ ALL_ST=WHOLEBUILDING_FL=STORY 1_SCH=H
     #Outlet Nodes on Supply Air Path Component,1
     Supply Air Path Component Nodes,1,AIRLOOPHVAC:ZONESPLITTER,AIR LOOP HVAC ZONE SPLITTER 3,NODE 50,NODE 52,SYS_3_PSZ ALL_ST=WHOLEBUILDING_FL=STORY 1_SCH=H
! <#Nodes on Supply Air Path>,<Number of Nodes>
! <Supply Air Path Node>,<Node Type>,<Node Count>,<Node Name>,<AirLoopHVAC Name>
#Nodes on Supply Air Path,2
   Supply Air Path Node,Inlet Node,1,NODE 50,SYS_3_PSZ ALL_ST=WHOLEBUILDING_FL=STORY 1_SCH=H
   Supply Air Path Node,Outlet Node,2,NODE 52,SYS_3_PSZ ALL_ST=WHOLEBUILDING_FL=STORY 1_SCH=H
! ===============================================================
! <#Return Air Paths>,<Number of Return Air Paths>
 #Return Air Paths,5
! <Return Air Path>,<Return Air Path Count>,<Return Air Path Name>,<AirLoopHVAC Name>
! <#Components on Return Air Path>,<Number of Components>
! <Return Air Path Component>,<Component Count>,<Component Type>,<Component Name>,<AirLoopHVAC Name>
! <#Inlet Nodes on Return Air Path Component>,<Number of Nodes>
! <Return Air Path Component Nodes>,<Node Count>,<Component Type>,<Component Name>,<Inlet Node Name>,<Outlet Node Name>,<AirLoopHVAC Name>
 Return Air Path,1,SYS_1_MAKE-UP AIR UNIT RETURN PATH,SYS_1_MAKE-UP AIR UNIT
   #Components on Return Air Path,1
   Return Air Path Component,1,AIRLOOPHVAC:ZONEMIXER,AIR LOOP HVAC ZONE MIXER 1,SYS_1_MAKE-UP AIR UNIT
     #Inlet Nodes on Return Air Path Component,1
     Return Air Path Component Nodes,1,AIRLOOPHVAC:ZONEMIXER,AIR LOOP HVAC ZONE MIXER 1,NODE 34,NODE 22,SYS_1_MAKE-UP AIR UNIT
! <#Nodes on Return Air Path>,<Number of Nodes>
! <Return Air Path Node>,<Node Type>,<Node Count>,<Node Name>,<AirLoopHVAC Name>
   #Nodes on Return Air Path,2
   Return Air Path Node,Outlet Node,1,NODE 22,SYS_1_MAKE-UP AIR UNIT
   Return Air Path Node,Inlet Node,2,NODE 34,SYS_1_MAKE-UP AIR UNIT
 Return Air Path,2,SYS_2_MAKE-UP AIR UNIT RETURN PATH,SYS_2_MAKE-UP AIR UNIT
   #Components on Return Air Path,1
   Return Air Path Component,1,AIRLOOPHVAC:ZONEMIXER,AIR LOOP HVAC ZONE MIXER 5,SYS_2_MAKE-UP AIR UNIT
     #Inlet Nodes on Return Air Path Component,1
     Return Air Path Component Nodes,1,AIRLOOPHVAC:ZONEMIXER,AIR LOOP HVAC ZONE MIXER 5,NODE 116,NODE 104,SYS_2_MAKE-UP AIR UNIT
! <#Nodes on Return Air Path>,<Number of Nodes>
! <Return Air Path Node>,<Node Type>,<Node Count>,<Node Name>,<AirLoopHVAC Name>
   #Nodes on Return Air Path,2
   Return Air Path Node,Outlet Node,1,NODE 104,SYS_2_MAKE-UP AIR UNIT
   Return Air Path Node,Inlet Node,2,NODE 116,SYS_2_MAKE-UP AIR UNIT
 Return Air Path,3,SYS_3_PSZ ALL_ST=WHOLEBUILDING_FL=STORY 1_SCH=A RETURN PATH,SYS_3_PSZ ALL_ST=WHOLEBUILDING_FL=STORY 1_SCH=A
   #Components on Return Air Path,1
   Return Air Path Component,1,AIRLOOPHVAC:ZONEMIXER,AIR LOOP HVAC ZONE MIXER 2,SYS_3_PSZ ALL_ST=WHOLEBUILDING_FL=STORY 1_SCH=A
     #Inlet Nodes on Return Air Path Component,1
     Return Air Path Component Nodes,1,AIRLOOPHVAC:ZONEMIXER,AIR LOOP HVAC ZONE MIXER 2,NODE 45,NODE 38,SYS_3_PSZ ALL_ST=WHOLEBUILDING_FL=STORY 1_SCH=A
! <#Nodes on Return Air Path>,<Number of Nodes>
! <Return Air Path Node>,<Node Type>,<Node Count>,<Node Name>,<AirLoopHVAC Name>
   #Nodes on Return Air Path,2
   Return Air Path Node,Outlet Node,1,NODE 38,SYS_3_PSZ ALL_ST=WHOLEBUILDING_FL=STORY 1_SCH=A
   Return Air Path Node,Inlet Node,2,NODE 45,SYS_3_PSZ ALL_ST=WHOLEBUILDING_FL=STORY 1_SCH=A
 Return Air Path,4,SYS_3_PSZ ALL_ST=WHOLEBUILDING_FL=STORY 1_SCH=A 1 RETURN PATH,SYS_3_PSZ ALL_ST=WHOLEBUILDING_FL=STORY 1_SCH=A 1
   #Components on Return Air Path,1
   Return Air Path Component,1,AIRLOOPHVAC:ZONEMIXER,AIR LOOP HVAC ZONE MIXER 4,SYS_3_PSZ ALL_ST=WHOLEBUILDING_FL=STORY 1_SCH=A 1
     #Inlet Nodes on Return Air Path Component,1
     Return Air Path Component Nodes,1,AIRLOOPHVAC:ZONEMIXER,AIR LOOP HVAC ZONE MIXER 4,NODE 71,NODE 64,SYS_3_PSZ ALL_ST=WHOLEBUILDING_FL=STORY 1_SCH=A 1
! <#Nodes on Return Air Path>,<Number of Nodes>
! <Return Air Path Node>,<Node Type>,<Node Count>,<Node Name>,<AirLoopHVAC Name>
   #Nodes on Return Air Path,2
   Return Air Path Node,Outlet Node,1,NODE 64,SYS_3_PSZ ALL_ST=WHOLEBUILDING_FL=STORY 1_SCH=A 1
   Return Air Path Node,Inlet Node,2,NODE 71,SYS_3_PSZ ALL_ST=WHOLEBUILDING_FL=STORY 1_SCH=A 1
 Return Air Path,5,SYS_3_PSZ ALL_ST=WHOLEBUILDING_FL=STORY 1_SCH=H RETURN PATH,SYS_3_PSZ ALL_ST=WHOLEBUILDING_FL=STORY 1_SCH=H
   #Components on Return Air Path,1
   Return Air Path Component,1,AIRLOOPHVAC:ZONEMIXER,AIR LOOP HVAC ZONE MIXER 3,SYS_3_PSZ ALL_ST=WHOLEBUILDING_FL=STORY 1_SCH=H
     #Inlet Nodes on Return Air Path Component,1
     Return Air Path Component Nodes,1,AIRLOOPHVAC:ZONEMIXER,AIR LOOP HVAC ZONE MIXER 3,NODE 58,NODE 51,SYS_3_PSZ ALL_ST=WHOLEBUILDING_FL=STORY 1_SCH=H
! <#Nodes on Return Air Path>,<Number of Nodes>
! <Return Air Path Node>,<Node Type>,<Node Count>,<Node Name>,<AirLoopHVAC Name>
   #Nodes on Return Air Path,2
   Return Air Path Node,Outlet Node,1,NODE 51,SYS_3_PSZ ALL_ST=WHOLEBUILDING_FL=STORY 1_SCH=H
   Return Air Path Node,Inlet Node,2,NODE 58,SYS_3_PSZ ALL_ST=WHOLEBUILDING_FL=STORY 1_SCH=H
! ===============================================================
! #Outdoor Air Nodes,<Number of Outdoor Air Nodes>
 #Outdoor Air Nodes,8
! <Outdoor Air Node>,<NodeNumber>,<Node Name>
 Outdoor Air Node,145,ZONE HVAC FOUR PIPE FAN COIL 1 OA NODE
 Outdoor Air Node,146,DU_BT=HOTEL_ST=WHOLEBUILDING_FL=STORY 1_SCHF PTAC OA NODE
 Outdoor Air Node,147,NODE 25
 Outdoor Air Node,148,NODE 106
 Outdoor Air Node,149,NODE 40
 Outdoor Air Node,150,NODE 66
 Outdoor Air Node,151,NODE 53
 Outdoor Air Node,152,MODEL OUTDOOR AIR NODE
! ===============================================================
! <#Component Sets>,<Number of Component Sets>
 #Component Sets,83
! <Component Set>,<Component Set Count>,<Parent Object Type>,<Parent Object Name>,<Component Type>,<Component Name>,<Inlet Node ID>,<Outlet Node ID>,<Description>
 Component Set,1,BRANCH,SYS_1_MAKE-UP AIR UNIT MAIN BRANCH,AIRLOOPHVAC:OUTDOORAIRSYSTEM,AIR LOOP HVAC OUTDOOR AIR SYSTEM 1,NODE 19,NODE 29,Air Nodes
 Component Set,2,BRANCH,SYS_1_MAKE-UP AIR UNIT MAIN BRANCH,COILSYSTEM:COOLING:DX,COIL COOLING DX SINGLE SPEED 1 COILSYSTEM,NODE 29,NODE 28,Air Nodes
 Component Set,3,BRANCH,SYS_1_MAKE-UP AIR UNIT MAIN BRANCH,COIL:HEATING:WATER,COIL HEATING WATER 1,NODE 28,NODE 27,Air Nodes
 Component Set,4,BRANCH,SYS_1_MAKE-UP AIR UNIT MAIN BRANCH,FAN:CONSTANTVOLUME,FAN CONSTANT VOLUME 1,NODE 27,NODE 20,Air Nodes
 Component Set,5,BRANCH,SYS_2_MAKE-UP AIR UNIT MAIN BRANCH,AIRLOOPHVAC:OUTDOORAIRSYSTEM,AIR LOOP HVAC OUTDOOR AIR SYSTEM 5,NODE 101,NODE 110,Air Nodes
 Component Set,6,BRANCH,SYS_2_MAKE-UP AIR UNIT MAIN BRANCH,COILSYSTEM:COOLING:DX,COIL COOLING DX SINGLE SPEED 6 COILSYSTEM,NODE 110,NODE 109,Air Nodes
 Component Set,7,BRANCH,SYS_2_MAKE-UP AIR UNIT MAIN BRANCH,COIL:HEATING:FUEL,COIL HEATING GAS 4,NODE 109,NODE 108,Air Nodes
 Component Set,8,BRANCH,SYS_2_MAKE-UP AIR UNIT MAIN BRANCH,FAN:CONSTANTVOLUME,FAN CONSTANT VOLUME 6,NODE 108,NODE 102,Air Nodes
 Component Set,9,BRANCH,SYS_3_PSZ ALL_ST=WHOLEBUILDING_FL=STORY 1_SCH=A MAIN BRANCH,AIRLOOPHVAC:OUTDOORAIRSYSTEM,AIR LOOP HVAC OUTDOOR AIR SYSTEM 2,NODE 35,NODE 44,Air Nodes
 Component Set,10,BRANCH,SYS_3_PSZ ALL_ST=WHOLEBUILDING_FL=STORY 1_SCH=A MAIN BRANCH,COILSYSTEM:COOLING:DX,COIL COOLING DX SINGLE SPEED 3 COILSYSTEM,NODE 44,NODE 43,Air Nodes
 Component Set,11,BRANCH,SYS_3_PSZ ALL_ST=WHOLEBUILDING_FL=STORY 1_SCH=A MAIN BRANCH,COIL:HEATING:FUEL,COIL HEATING GAS 1,NODE 43,NODE 42,Air Nodes
 Component Set,12,BRANCH,SYS_3_PSZ ALL_ST=WHOLEBUILDING_FL=STORY 1_SCH=A MAIN BRANCH,FAN:CONSTANTVOLUME,FAN CONSTANT VOLUME 3,NODE 42,NODE 36,Air Nodes
 Component Set,13,BRANCH,SYS_3_PSZ ALL_ST=WHOLEBUILDING_FL=STORY 1_SCH=A 1 MAIN BRANCH,AIRLOOPHVAC:OUTDOORAIRSYSTEM,AIR LOOP HVAC OUTDOOR AIR SYSTEM 4,NODE 61,NODE 70,Air Nodes
 Component Set,14,BRANCH,SYS_3_PSZ ALL_ST=WHOLEBUILDING_FL=STORY 1_SCH=A 1 MAIN BRANCH,COILSYSTEM:COOLING:DX,COIL COOLING DX SINGLE SPEED 5 COILSYSTEM,NODE 70,NODE 69,Air Nodes
 Component Set,15,BRANCH,SYS_3_PSZ ALL_ST=WHOLEBUILDING_FL=STORY 1_SCH=A 1 MAIN BRANCH,COIL:HEATING:FUEL,COIL HEATING GAS 3,NODE 69,NODE 68,Air Nodes
 Component Set,16,BRANCH,SYS_3_PSZ ALL_ST=WHOLEBUILDING_FL=STORY 1_SCH=A 1 MAIN BRANCH,FAN:CONSTANTVOLUME,FAN CONSTANT VOLUME 5,NODE 68,NODE 62,Air Nodes
 Component Set,17,BRANCH,SYS_3_PSZ ALL_ST=WHOLEBUILDING_FL=STORY 1_SCH=H MAIN BRANCH,AIRLOOPHVAC:OUTDOORAIRSYSTEM,AIR LOOP HVAC OUTDOOR AIR SYSTEM 3,NODE 48,NODE 57,Air Nodes
 Component Set,18,BRANCH,SYS_3_PSZ ALL_ST=WHOLEBUILDING_FL=STORY 1_SCH=H MAIN BRANCH,COILSYSTEM:COOLING:DX,COIL COOLING DX SINGLE SPEED 4 COILSYSTEM,NODE 57,NODE 56,Air Nodes
 Component Set,19,BRANCH,SYS_3_PSZ ALL_ST=WHOLEBUILDING_FL=STORY 1_SCH=H MAIN BRANCH,COIL:HEATING:FUEL,COIL HEATING GAS 2,NODE 56,NODE 55,Air Nodes
 Component Set,20,BRANCH,SYS_3_PSZ ALL_ST=WHOLEBUILDING_FL=STORY 1_SCH=H MAIN BRANCH,FAN:CONSTANTVOLUME,FAN CONSTANT VOLUME 4,NODE 55,NODE 49,Air Nodes
 Component Set,21,BRANCH,CHILLED WATER LOOP SUPPLY INLET BRANCH,PUMP:CONSTANTSPEED,PUMP CONSTANT SPEED 1,NODE 74,NODE 80,Water Nodes
 Component Set,22,BRANCH,CHILLED WATER LOOP SUPPLY BRANCH 1,CHILLER:ELECTRIC:EIR,PRIMARY CHILLER WATERCOOLED SCROLL,NODE 76,NODE 81,Chilled Water Nodes
 Component Set,23,BRANCH,CHILLED WATER LOOP SUPPLY BRANCH 2,CHILLER:ELECTRIC:EIR,SECONDARY CHILLER WATERCOOLED SCROLL,NODE 82,NODE 83,Chilled Water Nodes
 Component Set,24,BRANCH,CHILLED WATER LOOP SUPPLY BRANCH 3,PIPE:ADIABATIC,PIPE ADIABATIC 3,NODE 84,NODE 85,Pipe Nodes
 Component Set,25,BRANCH,CHILLED WATER LOOP SUPPLY OUTLET BRANCH,PIPE:ADIABATIC,PIPE ADIABATIC 4,NODE 86,NODE 75,Pipe Nodes
 Component Set,26,BRANCH,CHILLED WATER LOOP DEMAND INLET BRANCH,PIPE:ADIABATIC,CHILLED WATER LOOP DEMAND INLET PIPE,NODE 77,CHILLED WATER LOOP DEMAND INLET PIPE NODE,Pipe Nodes
 Component Set,27,BRANCH,CHILLED WATER LOOP DEMAND BRANCH 1,COIL:COOLING:WATER,COIL COOLING WATER 1,NODE 79,NODE 113,Water Nodes
 Component Set,28,BRANCH,CHILLED WATER LOOP DEMAND BYPASS BRANCH,PIPE:ADIABATIC,CHILLED WATER LOOP DEMAND BYPASS PIPE,CHILLED WATER LOOP DEMAND BYPASS PIPE INLET NODE,CHILLED WATER LOOP DEMAND BYPASS PIPE OUTLET NODE,Pipe Nodes
 Component Set,29,BRANCH,CHILLED WATER LOOP DEMAND OUTLET BRANCH,PIPE:ADIABATIC,CHILLED WATER LOOP DEMAND OUTLET PIPE,CHILLED WATER LOOP DEMAND OUTLET PIPE NODE,NODE 78,Pipe Nodes
 Component Set,30,BRANCH,CONDENSER WATER LOOP SUPPLY INLET BRANCH,PUMP:CONSTANTSPEED,PUMP CONSTANT SPEED 2,NODE 87,NODE 93,Water Nodes
 Component Set,31,BRANCH,CONDENSER WATER LOOP SUPPLY BRANCH 1,COOLINGTOWER:SINGLESPEED,COOLING TOWER SINGLE SPEED 1,NODE 89,NODE 94,Chilled Water Nodes
 Component Set,32,BRANCH,CONDENSER WATER LOOP SUPPLY BRANCH 2,PIPE:ADIABATIC,PIPE ADIABATIC 5,NODE 95,NODE 96,Pipe Nodes
 Component Set,33,BRANCH,CONDENSER WATER LOOP SUPPLY OUTLET BRANCH,PIPE:ADIABATIC,PIPE ADIABATIC 6,NODE 97,NODE 88,Pipe Nodes
 Component Set,34,BRANCH,CONDENSER WATER LOOP DEMAND INLET BRANCH,PIPE:ADIABATIC,CONDENSER WATER LOOP DEMAND INLET PIPE,NODE 90,CONDENSER WATER LOOP DEMAND INLET PIPE NODE,Pipe Nodes
 Component Set,35,BRANCH,CONDENSER WATER LOOP DEMAND BRANCH 1,CHILLER:ELECTRIC:EIR,PRIMARY CHILLER WATERCOOLED SCROLL,NODE 92,NODE 98,Condenser Water Nodes
 Component Set,36,BRANCH,CONDENSER WATER LOOP DEMAND BRANCH 2,CHILLER:ELECTRIC:EIR,SECONDARY CHILLER WATERCOOLED SCROLL,NODE 99,NODE 100,Condenser Water Nodes
 Component Set,37,BRANCH,CONDENSER WATER LOOP DEMAND BYPASS BRANCH,PIPE:ADIABATIC,CONDENSER WATER LOOP DEMAND BYPASS PIPE,CONDENSER WATER LOOP DEMAND BYPASS PIPE INLET NODE,CONDENSER WATER LOOP DEMAND BYPASS PIPE OUTLET NODE,Pipe Nodes
 Component Set,38,BRANCH,CONDENSER WATER LOOP DEMAND OUTLET BRANCH,PIPE:ADIABATIC,CONDENSER WATER LOOP DEMAND OUTLET PIPE,CONDENSER WATER LOOP DEMAND OUTLET PIPE NODE,NODE 91,Pipe Nodes
 Component Set,39,BRANCH,HOT WATER LOOP SUPPLY INLET BRANCH,PUMP:VARIABLESPEED,PUMP VARIABLE SPEED 1,NODE 2,NODE 11,Water Nodes
 Component Set,40,BRANCH,HOT WATER LOOP SUPPLY BRANCH 1,BOILER:HOTWATER,PRIMARY BOILER,NODE 5,NODE 12,Hot Water Nodes
 Component Set,41,BRANCH,HOT WATER LOOP SUPPLY BRANCH 2,BOILER:HOTWATER,SECONDARY BOILER,NODE 14,NODE 15,Hot Water Nodes
 Component Set,42,BRANCH,HOT WATER LOOP SUPPLY BRANCH 3,PIPE:ADIABATIC,PIPE ADIABATIC 1,NODE 16,NODE 17,Pipe Nodes
 Component Set,43,BRANCH,HOT WATER LOOP SUPPLY OUTLET BRANCH,PIPE:ADIABATIC,PIPE ADIABATIC 2,NODE 18,NODE 3,Pipe Nodes
 Component Set,44,BRANCH,HOT WATER LOOP DEMAND INLET BRANCH,PIPE:ADIABATIC,HOT WATER LOOP DEMAND INLET PIPE,NODE 6,HOT WATER LOOP DEMAND INLET PIPE NODE,Pipe Nodes
 Component Set,45,BRANCH,HOT WATER LOOP DEMAND BRANCH 1,COIL:HEATING:WATER,COIL HEATING WATER 1,NODE 9,NODE 24,Water Nodes
 Component Set,46,BRANCH,HOT WATER LOOP DEMAND BRANCH 2,ZONEHVAC:BASEBOARD:CONVECTIVE:WATER,ZONE HVAC BASEBOARD CONVECTIVE WATER 1,NODE 32,NODE 33,Hot Water Nodes
 Component Set,47,BRANCH,HOT WATER LOOP DEMAND BRANCH 3,ZONEHVAC:BASEBOARD:CONVECTIVE:WATER,ZONE HVAC BASEBOARD CONVECTIVE WATER 2,NODE 46,NODE 47,Hot Water Nodes
 Component Set,48,BRANCH,HOT WATER LOOP DEMAND BRANCH 4,ZONEHVAC:BASEBOARD:CONVECTIVE:WATER,ZONE HVAC BASEBOARD CONVECTIVE WATER 3,NODE 59,NODE 60,Hot Water Nodes
 Component Set,49,BRANCH,HOT WATER LOOP DEMAND BRANCH 5,ZONEHVAC:BASEBOARD:CONVECTIVE:WATER,ZONE HVAC BASEBOARD CONVECTIVE WATER 4,NODE 72,NODE 73,Hot Water Nodes
 Component Set,50,BRANCH,HOT WATER LOOP DEMAND BRANCH 6,COIL:HEATING:WATER,COIL HEATING WATER 2,NODE 111,NODE 112,Water Nodes
 Component Set,51,BRANCH,HOT WATER LOOP DEMAND BYPASS BRANCH,PIPE:ADIABATIC,HOT WATER LOOP DEMAND BYPASS PIPE,HOT WATER LOOP DEMAND BYPASS PIPE INLET NODE,HOT WATER LOOP DEMAND BYPASS PIPE OUTLET NODE,Pipe Nodes
 Component Set,52,BRANCH,HOT WATER LOOP DEMAND OUTLET BRANCH,PIPE:ADIABATIC,HOT WATER LOOP DEMAND OUTLET PIPE,HOT WATER LOOP DEMAND OUTLET PIPE NODE,NODE 8,Pipe Nodes
 Component Set,53,BRANCH,MAIN SERVICE WATER LOOP SUPPLY INLET BRANCH,PUMP:CONSTANTSPEED,SERVICE WATER LOOP PUMP,NODE 117,NODE 123,Water Nodes
 Component Set,54,BRANCH,MAIN SERVICE WATER LOOP SUPPLY BRANCH 1,WATERHEATER:MIXED,259GAL NATURALGAS WATER HEATER - 603KBTU/HR,NODE 119,NODE 124,Use Side Water Nodes
 Component Set,55,BRANCH,MAIN SERVICE WATER LOOP SUPPLY BRANCH 2,PIPE:ADIABATIC,PIPE ADIABATIC 7,NODE 125,NODE 126,Pipe Nodes
 Component Set,56,BRANCH,MAIN SERVICE WATER LOOP SUPPLY OUTLET BRANCH,PIPE:ADIABATIC,PIPE ADIABATIC 9,NODE 128,NODE 118,Pipe Nodes
 Component Set,57,BRANCH,MAIN SERVICE WATER LOOP DEMAND INLET BRANCH,PIPE:ADIABATIC,PIPE ADIABATIC 10,NODE 120,NODE 129,Pipe Nodes
 Component Set,58,BRANCH,MAIN SERVICE WATER LOOP DEMAND BRANCH 1,PIPE:ADIABATIC,PIPE ADIABATIC 8,NODE 122,NODE 127,Pipe Nodes
 Component Set,59,BRANCH,MAIN SERVICE WATER LOOP DEMAND BRANCH 2,WATERUSE:CONNECTIONS,WATER USE CONNECTIONS 1,NODE 131,NODE 132,DHW Nodes
 Component Set,60,BRANCH,MAIN SERVICE WATER LOOP DEMAND BRANCH 3,WATERUSE:CONNECTIONS,WATER USE CONNECTIONS 2,NODE 133,NODE 134,DHW Nodes
 Component Set,61,BRANCH,MAIN SERVICE WATER LOOP DEMAND BRANCH 4,WATERUSE:CONNECTIONS,WATER USE CONNECTIONS 3,NODE 135,NODE 136,DHW Nodes
 Component Set,62,BRANCH,MAIN SERVICE WATER LOOP DEMAND BRANCH 5,WATERUSE:CONNECTIONS,WATER USE CONNECTIONS 4,NODE 137,NODE 138,DHW Nodes
 Component Set,63,BRANCH,MAIN SERVICE WATER LOOP DEMAND BRANCH 6,WATERUSE:CONNECTIONS,WATER USE CONNECTIONS 5,NODE 139,NODE 140,DHW Nodes
 Component Set,64,BRANCH,MAIN SERVICE WATER LOOP DEMAND BYPASS BRANCH,PIPE:ADIABATIC,MAIN SERVICE WATER LOOP DEMAND BYPASS PIPE,MAIN SERVICE WATER LOOP DEMAND BYPASS PIPE INLET NODE,MAIN SERVICE WATER LOOP DEMAND BYPASS PIPE OUTLET NODE,Pipe Nodes
 Component Set,65,BRANCH,MAIN SERVICE WATER LOOP DEMAND OUTLET BRANCH,PIPE:ADIABATIC,PIPE ADIABATIC 11,NODE 130,NODE 121,Pipe Nodes
 Component Set,66,ZONEHVAC:FOURPIPEFANCOIL,ZONE HVAC FOUR PIPE FAN COIL 1,OUTDOORAIR:MIXER,ZONE HVAC FOUR PIPE FAN COIL 1 OA MIXER,ZONE HVAC FOUR PIPE FAN COIL 1 OA NODE,ZONE HVAC FOUR PIPE FAN COIL 1 MIXED AIR NODE,Air Nodes
 Component Set,67,ZONEHVAC:PACKAGEDTERMINALAIRCONDITIONER,DU_BT=HOTEL_ST=WHOLEBUILDING_FL=STORY 1_SCHF PTAC,OUTDOORAIR:MIXER,DU_BT=HOTEL_ST=WHOLEBUILDING_FL=STORY 1_SCHF PTAC OA MIXER,DU_BT=HOTEL_ST=WHOLEBUILDING_FL=STORY 1_SCHF PTAC OA NODE,DU_BT=HOTEL_ST=WHOLEBUILDING_FL=STORY 1_SCHF PTAC MIXED AIR NODE,Air Nodes
 Component Set,68,AIRLOOPHVAC:OUTDOORAIRSYSTEM,AIR LOOP HVAC OUTDOOR AIR SYSTEM 1,OUTDOORAIR:MIXER,AIR LOOP HVAC OUTDOOR AIR SYSTEM 1 OUTDOOR AIR MIXER,NODE 25,NODE 29,Air Nodes
 Component Set,69,AIRLOOPHVAC:OUTDOORAIRSYSTEM,AIR LOOP HVAC OUTDOOR AIR SYSTEM 5,OUTDOORAIR:MIXER,AIR LOOP HVAC OUTDOOR AIR SYSTEM 5 OUTDOOR AIR MIXER,NODE 106,NODE 110,Air Nodes
 Component Set,70,AIRLOOPHVAC:OUTDOORAIRSYSTEM,AIR LOOP HVAC OUTDOOR AIR SYSTEM 2,OUTDOORAIR:MIXER,AIR LOOP HVAC OUTDOOR AIR SYSTEM 2 OUTDOOR AIR MIXER,NODE 40,NODE 44,Air Nodes
 Component Set,71,AIRLOOPHVAC:OUTDOORAIRSYSTEM,AIR LOOP HVAC OUTDOOR AIR SYSTEM 4,OUTDOORAIR:MIXER,AIR LOOP HVAC OUTDOOR AIR SYSTEM 4 OUTDOOR AIR MIXER,NODE 66,NODE 70,Air Nodes
 Component Set,72,AIRLOOPHVAC:OUTDOORAIRSYSTEM,AIR LOOP HVAC OUTDOOR AIR SYSTEM 3,OUTDOORAIR:MIXER,AIR LOOP HVAC OUTDOOR AIR SYSTEM 3 OUTDOOR AIR MIXER,NODE 53,NODE 57,Air Nodes
 Component Set,73,ZONEHVAC:FOURPIPEFANCOIL,ZONE HVAC FOUR PIPE FAN COIL 1,COIL:HEATING:WATER,COIL HEATING WATER 2,ZONE HVAC FOUR PIPE FAN COIL 1 COOLING COIL OUTLET NODE,NODE 115,Air Nodes
 Component Set,74,ZONEHVAC:FOURPIPEFANCOIL,ZONE HVAC FOUR PIPE FAN COIL 1,COIL:COOLING:WATER,COIL COOLING WATER 1,ZONE HVAC FOUR PIPE FAN COIL 1 FAN OUTLET NODE,ZONE HVAC FOUR PIPE FAN COIL 1 COOLING COIL OUTLET NODE,Air Nodes
 Component Set,75,ZONEHVAC:FOURPIPEFANCOIL,ZONE HVAC FOUR PIPE FAN COIL 1,FAN:CONSTANTVOLUME,FAN CONSTANT VOLUME 7,ZONE HVAC FOUR PIPE FAN COIL 1 MIXED AIR NODE,ZONE HVAC FOUR PIPE FAN COIL 1 FAN OUTLET NODE,Air Nodes
 Component Set,76,ZONEHVAC:PACKAGEDTERMINALAIRCONDITIONER,DU_BT=HOTEL_ST=WHOLEBUILDING_FL=STORY 1_SCHF PTAC,FAN:CONSTANTVOLUME,FAN CONSTANT VOLUME 2,DU_BT=HOTEL_ST=WHOLEBUILDING_FL=STORY 1_SCHF PTAC HEATING COIL OUTLET NODE,NODE 31,Air Nodes
 Component Set,77,ZONEHVAC:PACKAGEDTERMINALAIRCONDITIONER,DU_BT=HOTEL_ST=WHOLEBUILDING_FL=STORY 1_SCHF PTAC,COIL:HEATING:ELECTRIC,COIL HEATING ELECTRIC 1,DU_BT=HOTEL_ST=WHOLEBUILDING_FL=STORY 1_SCHF PTAC COOLING COIL OUTLET NODE,DU_BT=HOTEL_ST=WHOLEBUILDING_FL=STORY 1_SCHF PTAC HEATING COIL OUTLET NODE,Air Nodes
 Component Set,78,ZONEHVAC:PACKAGEDTERMINALAIRCONDITIONER,DU_BT=HOTEL_ST=WHOLEBUILDING_FL=STORY 1_SCHF PTAC,COIL:COOLING:DX:SINGLESPEED,COIL COOLING DX SINGLE SPEED 2,DU_BT=HOTEL_ST=WHOLEBUILDING_FL=STORY 1_SCHF PTAC MIXED AIR NODE,DU_BT=HOTEL_ST=WHOLEBUILDING_FL=STORY 1_SCHF PTAC COOLING COIL OUTLET NODE,Air Nodes
 Component Set,79,COILSYSTEM:COOLING:DX,COIL COOLING DX SINGLE SPEED 1 COILSYSTEM,COIL:COOLING:DX:SINGLESPEED,COIL COOLING DX SINGLE SPEED 1,NODE 29,NODE 28,Air Nodes
 Component Set,80,COILSYSTEM:COOLING:DX,COIL COOLING DX SINGLE SPEED 6 COILSYSTEM,COIL:COOLING:DX:SINGLESPEED,COIL COOLING DX SINGLE SPEED 6,NODE 110,NODE 109,Air Nodes
 Component Set,81,COILSYSTEM:COOLING:DX,COIL COOLING DX SINGLE SPEED 3 COILSYSTEM,COIL:COOLING:DX:SINGLESPEED,COIL COOLING DX SINGLE SPEED 3,NODE 44,NODE 43,Air Nodes
 Component Set,82,COILSYSTEM:COOLING:DX,COIL COOLING DX SINGLE SPEED 5 COILSYSTEM,COIL:COOLING:DX:SINGLESPEED,COIL COOLING DX SINGLE SPEED 5,NODE 70,NODE 69,Air Nodes
 Component Set,83,COILSYSTEM:COOLING:DX,COIL COOLING DX SINGLE SPEED 4 COILSYSTEM,COIL:COOLING:DX:SINGLESPEED,COIL COOLING DX SINGLE SPEED 4,NODE 57,NODE 56,Air Nodes
! ===============================================================
! <# Plant Loops>,<Number of Plant Loops>
 #Plant Loops,4
! <Plant Loop>,<Plant Loop Name>,<Loop Type>,<Inlet Node Name>,<Outlet Node Name>,<Branch List>,<Connector List>
! <Plant Loop Connector>,<Connector Type>,<Connector Name>,<Loop Name>,<Loop Type>,<Number of Inlets/Outlets>
! <Plant Loop Connector Branches>,<Connector Node Count>,<Connector Type>,<Connector Name>,<Inlet Branch>,<Outlet Branch>,<Loop Name>,<Loop Type>
! <Plant Loop Connector Nodes>,<Connector Node Count>,<Connector Type>,<Connector Name>,<Inlet Node>,<Outlet Node>,<Loop Name>,<Loop Type>
! <Plant Loop Supply Connection>,<Plant Loop Name>,<Supply Side Outlet Node Name>,<Demand Side Inlet Node Name>
! <Plant Loop Return Connection>,<Plant Loop Name>,<Demand Side Outlet Node Name>,<Supply Side Inlet Node Name>
 Plant Loop,CHILLED WATER LOOP,Demand,NODE 77,NODE 78,CHILLED WATER LOOP DEMAND BRANCHES,CHILLED WATER LOOP DEMAND CONNECTOR LIST
   Plant Loop Connector,Splitter,CHILLED WATER LOOP DEMAND SPLITTER,CHILLED WATER LOOP,Demand,2
     Plant Loop Connector Branches,1,Splitter,CHILLED WATER LOOP DEMAND SPLITTER,CHILLED WATER LOOP DEMAND INLET BRANCH,CHILLED WATER LOOP DEMAND BRANCH 1,CHILLED WATER LOOP,Demand
     Plant Loop Connector Nodes,   1,Splitter,CHILLED WATER LOOP DEMAND SPLITTER,CHILLED WATER LOOP DEMAND INLET PIPE NODE,NODE 79,CHILLED WATER LOOP,Demand
     Plant Loop Connector Branches,2,Splitter,CHILLED WATER LOOP DEMAND SPLITTER,CHILLED WATER LOOP DEMAND INLET BRANCH,CHILLED WATER LOOP DEMAND BYPASS BRANCH,CHILLED WATER LOOP,Demand
     Plant Loop Connector Nodes,   2,Splitter,CHILLED WATER LOOP DEMAND SPLITTER,CHILLED WATER LOOP DEMAND INLET PIPE NODE,CHILLED WATER LOOP DEMAND BYPASS PIPE INLET NODE,CHILLED WATER LOOP,Demand
   Plant Loop Connector,Mixer,CHILLED WATER LOOP DEMAND MIXER,CHILLED WATER LOOP,Demand,2
     Plant Loop Connector Branches,1,Mixer,CHILLED WATER LOOP DEMAND MIXER,CHILLED WATER LOOP DEMAND BRANCH 1,CHILLED WATER LOOP DEMAND OUTLET BRANCH,CHILLED WATER LOOP,Demand
     Plant Loop Connector Nodes,   1,Mixer,CHILLED WATER LOOP DEMAND MIXER,NODE 113,CHILLED WATER LOOP DEMAND OUTLET PIPE NODE,CHILLED WATER LOOP,Demand
     Plant Loop Connector Branches,2,Mixer,CHILLED WATER LOOP DEMAND MIXER,CHILLED WATER LOOP DEMAND BYPASS BRANCH,CHILLED WATER LOOP DEMAND OUTLET BRANCH,CHILLED WATER LOOP,Demand
     Plant Loop Connector Nodes,   2,Mixer,CHILLED WATER LOOP DEMAND MIXER,CHILLED WATER LOOP DEMAND BYPASS PIPE OUTLET NODE,CHILLED WATER LOOP DEMAND OUTLET PIPE NODE,CHILLED WATER LOOP,Demand
 Plant Loop,CHILLED WATER LOOP,Supply,NODE 74,NODE 75,CHILLED WATER LOOP SUPPLY BRANCHES,CHILLED WATER LOOP SUPPLY CONNECTOR LIST
   Plant Loop Connector,Splitter,CHILLED WATER LOOP SUPPLY SPLITTER,CHILLED WATER LOOP,Supply,3
     Plant Loop Connector Branches,1,Splitter,CHILLED WATER LOOP SUPPLY SPLITTER,CHILLED WATER LOOP SUPPLY INLET BRANCH,CHILLED WATER LOOP SUPPLY BRANCH 1,CHILLED WATER LOOP,Supply
     Plant Loop Connector Nodes,   1,Splitter,CHILLED WATER LOOP SUPPLY SPLITTER,NODE 80,NODE 76,CHILLED WATER LOOP,Supply
     Plant Loop Connector Branches,2,Splitter,CHILLED WATER LOOP SUPPLY SPLITTER,CHILLED WATER LOOP SUPPLY INLET BRANCH,CHILLED WATER LOOP SUPPLY BRANCH 2,CHILLED WATER LOOP,Supply
     Plant Loop Connector Nodes,   2,Splitter,CHILLED WATER LOOP SUPPLY SPLITTER,NODE 80,NODE 82,CHILLED WATER LOOP,Supply
     Plant Loop Connector Branches,3,Splitter,CHILLED WATER LOOP SUPPLY SPLITTER,CHILLED WATER LOOP SUPPLY INLET BRANCH,CHILLED WATER LOOP SUPPLY BRANCH 3,CHILLED WATER LOOP,Supply
     Plant Loop Connector Nodes,   3,Splitter,CHILLED WATER LOOP SUPPLY SPLITTER,NODE 80,NODE 84,CHILLED WATER LOOP,Supply
   Plant Loop Connector,Mixer,CHILLED WATER LOOP SUPPLY MIXER,CHILLED WATER LOOP,Supply,3
     Plant Loop Connector Branches,1,Mixer,CHILLED WATER LOOP SUPPLY MIXER,CHILLED WATER LOOP SUPPLY BRANCH 1,CHILLED WATER LOOP SUPPLY OUTLET BRANCH,CHILLED WATER LOOP,Supply
     Plant Loop Connector Nodes,   1,Mixer,CHILLED WATER LOOP SUPPLY MIXER,NODE 81,NODE 86,CHILLED WATER LOOP,Supply
     Plant Loop Connector Branches,2,Mixer,CHILLED WATER LOOP SUPPLY MIXER,CHILLED WATER LOOP SUPPLY BRANCH 2,CHILLED WATER LOOP SUPPLY OUTLET BRANCH,CHILLED WATER LOOP,Supply
     Plant Loop Connector Nodes,   2,Mixer,CHILLED WATER LOOP SUPPLY MIXER,NODE 83,NODE 86,CHILLED WATER LOOP,Supply
     Plant Loop Connector Branches,3,Mixer,CHILLED WATER LOOP SUPPLY MIXER,CHILLED WATER LOOP SUPPLY BRANCH 3,CHILLED WATER LOOP SUPPLY OUTLET BRANCH,CHILLED WATER LOOP,Supply
     Plant Loop Connector Nodes,   3,Mixer,CHILLED WATER LOOP SUPPLY MIXER,NODE 85,NODE 86,CHILLED WATER LOOP,Supply
 Plant Loop Supply Connection,CHILLED WATER LOOP,NODE 75,NODE 77
 Plant Loop Return Connection,CHILLED WATER LOOP,NODE 78,NODE 74
 Plant Loop,CONDENSER WATER LOOP,Demand,NODE 90,NODE 91,CONDENSER WATER LOOP DEMAND BRANCHES,CONDENSER WATER LOOP DEMAND CONNECTOR LIST
   Plant Loop Connector,Splitter,CONDENSER WATER LOOP DEMAND SPLITTER,CONDENSER WATER LOOP,Demand,3
     Plant Loop Connector Branches,1,Splitter,CONDENSER WATER LOOP DEMAND SPLITTER,CONDENSER WATER LOOP DEMAND INLET BRANCH,CONDENSER WATER LOOP DEMAND BRANCH 1,CONDENSER WATER LOOP,Demand
     Plant Loop Connector Nodes,   1,Splitter,CONDENSER WATER LOOP DEMAND SPLITTER,CONDENSER WATER LOOP DEMAND INLET PIPE NODE,NODE 92,CONDENSER WATER LOOP,Demand
     Plant Loop Connector Branches,2,Splitter,CONDENSER WATER LOOP DEMAND SPLITTER,CONDENSER WATER LOOP DEMAND INLET BRANCH,CONDENSER WATER LOOP DEMAND BRANCH 2,CONDENSER WATER LOOP,Demand
     Plant Loop Connector Nodes,   2,Splitter,CONDENSER WATER LOOP DEMAND SPLITTER,CONDENSER WATER LOOP DEMAND INLET PIPE NODE,NODE 99,CONDENSER WATER LOOP,Demand
     Plant Loop Connector Branches,3,Splitter,CONDENSER WATER LOOP DEMAND SPLITTER,CONDENSER WATER LOOP DEMAND INLET BRANCH,CONDENSER WATER LOOP DEMAND BYPASS BRANCH,CONDENSER WATER LOOP,Demand
     Plant Loop Connector Nodes,   3,Splitter,CONDENSER WATER LOOP DEMAND SPLITTER,CONDENSER WATER LOOP DEMAND INLET PIPE NODE,CONDENSER WATER LOOP DEMAND BYPASS PIPE INLET NODE,CONDENSER WATER LOOP,Demand
   Plant Loop Connector,Mixer,CONDENSER WATER LOOP DEMAND MIXER,CONDENSER WATER LOOP,Demand,3
     Plant Loop Connector Branches,1,Mixer,CONDENSER WATER LOOP DEMAND MIXER,CONDENSER WATER LOOP DEMAND BRANCH 1,CONDENSER WATER LOOP DEMAND OUTLET BRANCH,CONDENSER WATER LOOP,Demand
     Plant Loop Connector Nodes,   1,Mixer,CONDENSER WATER LOOP DEMAND MIXER,NODE 98,CONDENSER WATER LOOP DEMAND OUTLET PIPE NODE,CONDENSER WATER LOOP,Demand
     Plant Loop Connector Branches,2,Mixer,CONDENSER WATER LOOP DEMAND MIXER,CONDENSER WATER LOOP DEMAND BRANCH 2,CONDENSER WATER LOOP DEMAND OUTLET BRANCH,CONDENSER WATER LOOP,Demand
     Plant Loop Connector Nodes,   2,Mixer,CONDENSER WATER LOOP DEMAND MIXER,NODE 100,CONDENSER WATER LOOP DEMAND OUTLET PIPE NODE,CONDENSER WATER LOOP,Demand
     Plant Loop Connector Branches,3,Mixer,CONDENSER WATER LOOP DEMAND MIXER,CONDENSER WATER LOOP DEMAND BYPASS BRANCH,CONDENSER WATER LOOP DEMAND OUTLET BRANCH,CONDENSER WATER LOOP,Demand
     Plant Loop Connector Nodes,   3,Mixer,CONDENSER WATER LOOP DEMAND MIXER,CONDENSER WATER LOOP DEMAND BYPASS PIPE OUTLET NODE,CONDENSER WATER LOOP DEMAND OUTLET PIPE NODE,CONDENSER WATER LOOP,Demand
 Plant Loop,CONDENSER WATER LOOP,Supply,NODE 87,NODE 88,CONDENSER WATER LOOP SUPPLY BRANCHES,CONDENSER WATER LOOP SUPPLY CONNECTOR LIST
   Plant Loop Connector,Splitter,CONDENSER WATER LOOP SUPPLY SPLITTER,CONDENSER WATER LOOP,Supply,2
     Plant Loop Connector Branches,1,Splitter,CONDENSER WATER LOOP SUPPLY SPLITTER,CONDENSER WATER LOOP SUPPLY INLET BRANCH,CONDENSER WATER LOOP SUPPLY BRANCH 1,CONDENSER WATER LOOP,Supply
     Plant Loop Connector Nodes,   1,Splitter,CONDENSER WATER LOOP SUPPLY SPLITTER,NODE 93,NODE 89,CONDENSER WATER LOOP,Supply
     Plant Loop Connector Branches,2,Splitter,CONDENSER WATER LOOP SUPPLY SPLITTER,CONDENSER WATER LOOP SUPPLY INLET BRANCH,CONDENSER WATER LOOP SUPPLY BRANCH 2,CONDENSER WATER LOOP,Supply
     Plant Loop Connector Nodes,   2,Splitter,CONDENSER WATER LOOP SUPPLY SPLITTER,NODE 93,NODE 95,CONDENSER WATER LOOP,Supply
   Plant Loop Connector,Mixer,CONDENSER WATER LOOP SUPPLY MIXER,CONDENSER WATER LOOP,Supply,2
     Plant Loop Connector Branches,1,Mixer,CONDENSER WATER LOOP SUPPLY MIXER,CONDENSER WATER LOOP SUPPLY BRANCH 1,CONDENSER WATER LOOP SUPPLY OUTLET BRANCH,CONDENSER WATER LOOP,Supply
     Plant Loop Connector Nodes,   1,Mixer,CONDENSER WATER LOOP SUPPLY MIXER,NODE 94,NODE 97,CONDENSER WATER LOOP,Supply
     Plant Loop Connector Branches,2,Mixer,CONDENSER WATER LOOP SUPPLY MIXER,CONDENSER WATER LOOP SUPPLY BRANCH 2,CONDENSER WATER LOOP SUPPLY OUTLET BRANCH,CONDENSER WATER LOOP,Supply
     Plant Loop Connector Nodes,   2,Mixer,CONDENSER WATER LOOP SUPPLY MIXER,NODE 96,NODE 97,CONDENSER WATER LOOP,Supply
 Plant Loop Supply Connection,CONDENSER WATER LOOP,NODE 88,NODE 90
 Plant Loop Return Connection,CONDENSER WATER LOOP,NODE 91,NODE 87
 Plant Loop,HOT WATER LOOP,Demand,NODE 6,NODE 8,HOT WATER LOOP DEMAND BRANCHES,HOT WATER LOOP DEMAND CONNECTOR LIST
   Plant Loop Connector,Splitter,HOT WATER LOOP DEMAND SPLITTER,HOT WATER LOOP,Demand,7
     Plant Loop Connector Branches,1,Splitter,HOT WATER LOOP DEMAND SPLITTER,HOT WATER LOOP DEMAND INLET BRANCH,HOT WATER LOOP DEMAND BRANCH 1,HOT WATER LOOP,Demand
     Plant Loop Connector Nodes,   1,Splitter,HOT WATER LOOP DEMAND SPLITTER,HOT WATER LOOP DEMAND INLET PIPE NODE,NODE 9,HOT WATER LOOP,Demand
     Plant Loop Connector Branches,2,Splitter,HOT WATER LOOP DEMAND SPLITTER,HOT WATER LOOP DEMAND INLET BRANCH,HOT WATER LOOP DEMAND BRANCH 2,HOT WATER LOOP,Demand
     Plant Loop Connector Nodes,   2,Splitter,HOT WATER LOOP DEMAND SPLITTER,HOT WATER LOOP DEMAND INLET PIPE NODE,NODE 32,HOT WATER LOOP,Demand
     Plant Loop Connector Branches,3,Splitter,HOT WATER LOOP DEMAND SPLITTER,HOT WATER LOOP DEMAND INLET BRANCH,HOT WATER LOOP DEMAND BRANCH 3,HOT WATER LOOP,Demand
     Plant Loop Connector Nodes,   3,Splitter,HOT WATER LOOP DEMAND SPLITTER,HOT WATER LOOP DEMAND INLET PIPE NODE,NODE 46,HOT WATER LOOP,Demand
     Plant Loop Connector Branches,4,Splitter,HOT WATER LOOP DEMAND SPLITTER,HOT WATER LOOP DEMAND INLET BRANCH,HOT WATER LOOP DEMAND BRANCH 4,HOT WATER LOOP,Demand
     Plant Loop Connector Nodes,   4,Splitter,HOT WATER LOOP DEMAND SPLITTER,HOT WATER LOOP DEMAND INLET PIPE NODE,NODE 59,HOT WATER LOOP,Demand
     Plant Loop Connector Branches,5,Splitter,HOT WATER LOOP DEMAND SPLITTER,HOT WATER LOOP DEMAND INLET BRANCH,HOT WATER LOOP DEMAND BRANCH 5,HOT WATER LOOP,Demand
     Plant Loop Connector Nodes,   5,Splitter,HOT WATER LOOP DEMAND SPLITTER,HOT WATER LOOP DEMAND INLET PIPE NODE,NODE 72,HOT WATER LOOP,Demand
     Plant Loop Connector Branches,6,Splitter,HOT WATER LOOP DEMAND SPLITTER,HOT WATER LOOP DEMAND INLET BRANCH,HOT WATER LOOP DEMAND BRANCH 6,HOT WATER LOOP,Demand
     Plant Loop Connector Nodes,   6,Splitter,HOT WATER LOOP DEMAND SPLITTER,HOT WATER LOOP DEMAND INLET PIPE NODE,NODE 111,HOT WATER LOOP,Demand
     Plant Loop Connector Branches,7,Splitter,HOT WATER LOOP DEMAND SPLITTER,HOT WATER LOOP DEMAND INLET BRANCH,HOT WATER LOOP DEMAND BYPASS BRANCH,HOT WATER LOOP,Demand
     Plant Loop Connector Nodes,   7,Splitter,HOT WATER LOOP DEMAND SPLITTER,HOT WATER LOOP DEMAND INLET PIPE NODE,HOT WATER LOOP DEMAND BYPASS PIPE INLET NODE,HOT WATER LOOP,Demand
   Plant Loop Connector,Mixer,HOT WATER LOOP DEMAND MIXER,HOT WATER LOOP,Demand,7
     Plant Loop Connector Branches,1,Mixer,HOT WATER LOOP DEMAND MIXER,HOT WATER LOOP DEMAND BRANCH 1,HOT WATER LOOP DEMAND OUTLET BRANCH,HOT WATER LOOP,Demand
     Plant Loop Connector Nodes,   1,Mixer,HOT WATER LOOP DEMAND MIXER,NODE 24,HOT WATER LOOP DEMAND OUTLET PIPE NODE,HOT WATER LOOP,Demand
     Plant Loop Connector Branches,2,Mixer,HOT WATER LOOP DEMAND MIXER,HOT WATER LOOP DEMAND BRANCH 2,HOT WATER LOOP DEMAND OUTLET BRANCH,HOT WATER LOOP,Demand
     Plant Loop Connector Nodes,   2,Mixer,HOT WATER LOOP DEMAND MIXER,NODE 33,HOT WATER LOOP DEMAND OUTLET PIPE NODE,HOT WATER LOOP,Demand
     Plant Loop Connector Branches,3,Mixer,HOT WATER LOOP DEMAND MIXER,HOT WATER LOOP DEMAND BRANCH 3,HOT WATER LOOP DEMAND OUTLET BRANCH,HOT WATER LOOP,Demand
     Plant Loop Connector Nodes,   3,Mixer,HOT WATER LOOP DEMAND MIXER,NODE 47,HOT WATER LOOP DEMAND OUTLET PIPE NODE,HOT WATER LOOP,Demand
     Plant Loop Connector Branches,4,Mixer,HOT WATER LOOP DEMAND MIXER,HOT WATER LOOP DEMAND BRANCH 4,HOT WATER LOOP DEMAND OUTLET BRANCH,HOT WATER LOOP,Demand
     Plant Loop Connector Nodes,   4,Mixer,HOT WATER LOOP DEMAND MIXER,NODE 60,HOT WATER LOOP DEMAND OUTLET PIPE NODE,HOT WATER LOOP,Demand
     Plant Loop Connector Branches,5,Mixer,HOT WATER LOOP DEMAND MIXER,HOT WATER LOOP DEMAND BRANCH 5,HOT WATER LOOP DEMAND OUTLET BRANCH,HOT WATER LOOP,Demand
     Plant Loop Connector Nodes,   5,Mixer,HOT WATER LOOP DEMAND MIXER,NODE 73,HOT WATER LOOP DEMAND OUTLET PIPE NODE,HOT WATER LOOP,Demand
     Plant Loop Connector Branches,6,Mixer,HOT WATER LOOP DEMAND MIXER,HOT WATER LOOP DEMAND BRANCH 6,HOT WATER LOOP DEMAND OUTLET BRANCH,HOT WATER LOOP,Demand
     Plant Loop Connector Nodes,   6,Mixer,HOT WATER LOOP DEMAND MIXER,NODE 112,HOT WATER LOOP DEMAND OUTLET PIPE NODE,HOT WATER LOOP,Demand
     Plant Loop Connector Branches,7,Mixer,HOT WATER LOOP DEMAND MIXER,HOT WATER LOOP DEMAND BYPASS BRANCH,HOT WATER LOOP DEMAND OUTLET BRANCH,HOT WATER LOOP,Demand
     Plant Loop Connector Nodes,   7,Mixer,HOT WATER LOOP DEMAND MIXER,HOT WATER LOOP DEMAND BYPASS PIPE OUTLET NODE,HOT WATER LOOP DEMAND OUTLET PIPE NODE,HOT WATER LOOP,Demand
 Plant Loop,HOT WATER LOOP,Supply,NODE 2,NODE 3,HOT WATER LOOP SUPPLY BRANCHES,HOT WATER LOOP SUPPLY CONNECTOR LIST
   Plant Loop Connector,Splitter,HOT WATER LOOP SUPPLY SPLITTER,HOT WATER LOOP,Supply,3
     Plant Loop Connector Branches,1,Splitter,HOT WATER LOOP SUPPLY SPLITTER,HOT WATER LOOP SUPPLY INLET BRANCH,HOT WATER LOOP SUPPLY BRANCH 1,HOT WATER LOOP,Supply
     Plant Loop Connector Nodes,   1,Splitter,HOT WATER LOOP SUPPLY SPLITTER,NODE 11,NODE 5,HOT WATER LOOP,Supply
     Plant Loop Connector Branches,2,Splitter,HOT WATER LOOP SUPPLY SPLITTER,HOT WATER LOOP SUPPLY INLET BRANCH,HOT WATER LOOP SUPPLY BRANCH 2,HOT WATER LOOP,Supply
     Plant Loop Connector Nodes,   2,Splitter,HOT WATER LOOP SUPPLY SPLITTER,NODE 11,NODE 14,HOT WATER LOOP,Supply
     Plant Loop Connector Branches,3,Splitter,HOT WATER LOOP SUPPLY SPLITTER,HOT WATER LOOP SUPPLY INLET BRANCH,HOT WATER LOOP SUPPLY BRANCH 3,HOT WATER LOOP,Supply
     Plant Loop Connector Nodes,   3,Splitter,HOT WATER LOOP SUPPLY SPLITTER,NODE 11,NODE 16,HOT WATER LOOP,Supply
   Plant Loop Connector,Mixer,HOT WATER LOOP SUPPLY MIXER,HOT WATER LOOP,Supply,3
     Plant Loop Connector Branches,1,Mixer,HOT WATER LOOP SUPPLY MIXER,HOT WATER LOOP SUPPLY BRANCH 1,HOT WATER LOOP SUPPLY OUTLET BRANCH,HOT WATER LOOP,Supply
     Plant Loop Connector Nodes,   1,Mixer,HOT WATER LOOP SUPPLY MIXER,NODE 12,NODE 18,HOT WATER LOOP,Supply
     Plant Loop Connector Branches,2,Mixer,HOT WATER LOOP SUPPLY MIXER,HOT WATER LOOP SUPPLY BRANCH 2,HOT WATER LOOP SUPPLY OUTLET BRANCH,HOT WATER LOOP,Supply
     Plant Loop Connector Nodes,   2,Mixer,HOT WATER LOOP SUPPLY MIXER,NODE 15,NODE 18,HOT WATER LOOP,Supply
     Plant Loop Connector Branches,3,Mixer,HOT WATER LOOP SUPPLY MIXER,HOT WATER LOOP SUPPLY BRANCH 3,HOT WATER LOOP SUPPLY OUTLET BRANCH,HOT WATER LOOP,Supply
     Plant Loop Connector Nodes,   3,Mixer,HOT WATER LOOP SUPPLY MIXER,NODE 17,NODE 18,HOT WATER LOOP,Supply
 Plant Loop Supply Connection,HOT WATER LOOP,NODE 3,NODE 6
 Plant Loop Return Connection,HOT WATER LOOP,NODE 8,NODE 2
 Plant Loop,MAIN SERVICE WATER LOOP,Demand,NODE 120,NODE 121,MAIN SERVICE WATER LOOP DEMAND BRANCHES,MAIN SERVICE WATER LOOP DEMAND CONNECTOR LIST
   Plant Loop Connector,Splitter,MAIN SERVICE WATER LOOP DEMAND SPLITTER,MAIN SERVICE WATER LOOP,Demand,7
     Plant Loop Connector Branches,1,Splitter,MAIN SERVICE WATER LOOP DEMAND SPLITTER,MAIN SERVICE WATER LOOP DEMAND INLET BRANCH,MAIN SERVICE WATER LOOP DEMAND BRANCH 1,MAIN SERVICE WATER LOOP,Demand
     Plant Loop Connector Nodes,   1,Splitter,MAIN SERVICE WATER LOOP DEMAND SPLITTER,NODE 129,NODE 122,MAIN SERVICE WATER LOOP,Demand
     Plant Loop Connector Branches,2,Splitter,MAIN SERVICE WATER LOOP DEMAND SPLITTER,MAIN SERVICE WATER LOOP DEMAND INLET BRANCH,MAIN SERVICE WATER LOOP DEMAND BRANCH 2,MAIN SERVICE WATER LOOP,Demand
     Plant Loop Connector Nodes,   2,Splitter,MAIN SERVICE WATER LOOP DEMAND SPLITTER,NODE 129,NODE 131,MAIN SERVICE WATER LOOP,Demand
     Plant Loop Connector Branches,3,Splitter,MAIN SERVICE WATER LOOP DEMAND SPLITTER,MAIN SERVICE WATER LOOP DEMAND INLET BRANCH,MAIN SERVICE WATER LOOP DEMAND BRANCH 3,MAIN SERVICE WATER LOOP,Demand
     Plant Loop Connector Nodes,   3,Splitter,MAIN SERVICE WATER LOOP DEMAND SPLITTER,NODE 129,NODE 133,MAIN SERVICE WATER LOOP,Demand
     Plant Loop Connector Branches,4,Splitter,MAIN SERVICE WATER LOOP DEMAND SPLITTER,MAIN SERVICE WATER LOOP DEMAND INLET BRANCH,MAIN SERVICE WATER LOOP DEMAND BRANCH 4,MAIN SERVICE WATER LOOP,Demand
     Plant Loop Connector Nodes,   4,Splitter,MAIN SERVICE WATER LOOP DEMAND SPLITTER,NODE 129,NODE 135,MAIN SERVICE WATER LOOP,Demand
     Plant Loop Connector Branches,5,Splitter,MAIN SERVICE WATER LOOP DEMAND SPLITTER,MAIN SERVICE WATER LOOP DEMAND INLET BRANCH,MAIN SERVICE WATER LOOP DEMAND BRANCH 5,MAIN SERVICE WATER LOOP,Demand
     Plant Loop Connector Nodes,   5,Splitter,MAIN SERVICE WATER LOOP DEMAND SPLITTER,NODE 129,NODE 137,MAIN SERVICE WATER LOOP,Demand
     Plant Loop Connector Branches,6,Splitter,MAIN SERVICE WATER LOOP DEMAND SPLITTER,MAIN SERVICE WATER LOOP DEMAND INLET BRANCH,MAIN SERVICE WATER LOOP DEMAND BRANCH 6,MAIN SERVICE WATER LOOP,Demand
     Plant Loop Connector Nodes,   6,Splitter,MAIN SERVICE WATER LOOP DEMAND SPLITTER,NODE 129,NODE 139,MAIN SERVICE WATER LOOP,Demand
     Plant Loop Connector Branches,7,Splitter,MAIN SERVICE WATER LOOP DEMAND SPLITTER,MAIN SERVICE WATER LOOP DEMAND INLET BRANCH,MAIN SERVICE WATER LOOP DEMAND BYPASS BRANCH,MAIN SERVICE WATER LOOP,Demand
     Plant Loop Connector Nodes,   7,Splitter,MAIN SERVICE WATER LOOP DEMAND SPLITTER,NODE 129,MAIN SERVICE WATER LOOP DEMAND BYPASS PIPE INLET NODE,MAIN SERVICE WATER LOOP,Demand
   Plant Loop Connector,Mixer,MAIN SERVICE WATER LOOP DEMAND MIXER,MAIN SERVICE WATER LOOP,Demand,7
     Plant Loop Connector Branches,1,Mixer,MAIN SERVICE WATER LOOP DEMAND MIXER,MAIN SERVICE WATER LOOP DEMAND BRANCH 1,MAIN SERVICE WATER LOOP DEMAND OUTLET BRANCH,MAIN SERVICE WATER LOOP,Demand
     Plant Loop Connector Nodes,   1,Mixer,MAIN SERVICE WATER LOOP DEMAND MIXER,NODE 127,NODE 130,MAIN SERVICE WATER LOOP,Demand
     Plant Loop Connector Branches,2,Mixer,MAIN SERVICE WATER LOOP DEMAND MIXER,MAIN SERVICE WATER LOOP DEMAND BRANCH 2,MAIN SERVICE WATER LOOP DEMAND OUTLET BRANCH,MAIN SERVICE WATER LOOP,Demand
     Plant Loop Connector Nodes,   2,Mixer,MAIN SERVICE WATER LOOP DEMAND MIXER,NODE 132,NODE 130,MAIN SERVICE WATER LOOP,Demand
     Plant Loop Connector Branches,3,Mixer,MAIN SERVICE WATER LOOP DEMAND MIXER,MAIN SERVICE WATER LOOP DEMAND BRANCH 3,MAIN SERVICE WATER LOOP DEMAND OUTLET BRANCH,MAIN SERVICE WATER LOOP,Demand
     Plant Loop Connector Nodes,   3,Mixer,MAIN SERVICE WATER LOOP DEMAND MIXER,NODE 134,NODE 130,MAIN SERVICE WATER LOOP,Demand
     Plant Loop Connector Branches,4,Mixer,MAIN SERVICE WATER LOOP DEMAND MIXER,MAIN SERVICE WATER LOOP DEMAND BRANCH 4,MAIN SERVICE WATER LOOP DEMAND OUTLET BRANCH,MAIN SERVICE WATER LOOP,Demand
     Plant Loop Connector Nodes,   4,Mixer,MAIN SERVICE WATER LOOP DEMAND MIXER,NODE 136,NODE 130,MAIN SERVICE WATER LOOP,Demand
     Plant Loop Connector Branches,5,Mixer,MAIN SERVICE WATER LOOP DEMAND MIXER,MAIN SERVICE WATER LOOP DEMAND BRANCH 5,MAIN SERVICE WATER LOOP DEMAND OUTLET BRANCH,MAIN SERVICE WATER LOOP,Demand
     Plant Loop Connector Nodes,   5,Mixer,MAIN SERVICE WATER LOOP DEMAND MIXER,NODE 138,NODE 130,MAIN SERVICE WATER LOOP,Demand
     Plant Loop Connector Branches,6,Mixer,MAIN SERVICE WATER LOOP DEMAND MIXER,MAIN SERVICE WATER LOOP DEMAND BRANCH 6,MAIN SERVICE WATER LOOP DEMAND OUTLET BRANCH,MAIN SERVICE WATER LOOP,Demand
     Plant Loop Connector Nodes,   6,Mixer,MAIN SERVICE WATER LOOP DEMAND MIXER,NODE 140,NODE 130,MAIN SERVICE WATER LOOP,Demand
     Plant Loop Connector Branches,7,Mixer,MAIN SERVICE WATER LOOP DEMAND MIXER,MAIN SERVICE WATER LOOP DEMAND BYPASS BRANCH,MAIN SERVICE WATER LOOP DEMAND OUTLET BRANCH,MAIN SERVICE WATER LOOP,Demand
     Plant Loop Connector Nodes,   7,Mixer,MAIN SERVICE WATER LOOP DEMAND MIXER,MAIN SERVICE WATER LOOP DEMAND BYPASS PIPE OUTLET NODE,NODE 130,MAIN SERVICE WATER LOOP,Demand
 Plant Loop,MAIN SERVICE WATER LOOP,Supply,NODE 117,NODE 118,MAIN SERVICE WATER LOOP SUPPLY BRANCHES,MAIN SERVICE WATER LOOP SUPPLY CONNECTOR LIST
   Plant Loop Connector,Splitter,MAIN SERVICE WATER LOOP SUPPLY SPLITTER,MAIN SERVICE WATER LOOP,Supply,2
     Plant Loop Connector Branches,1,Splitter,MAIN SERVICE WATER LOOP SUPPLY SPLITTER,MAIN SERVICE WATER LOOP SUPPLY INLET BRANCH,MAIN SERVICE WATER LOOP SUPPLY BRANCH 1,MAIN SERVICE WATER LOOP,Supply
     Plant Loop Connector Nodes,   1,Splitter,MAIN SERVICE WATER LOOP SUPPLY SPLITTER,NODE 123,NODE 119,MAIN SERVICE WATER LOOP,Supply
     Plant Loop Connector Branches,2,Splitter,MAIN SERVICE WATER LOOP SUPPLY SPLITTER,MAIN SERVICE WATER LOOP SUPPLY INLET BRANCH,MAIN SERVICE WATER LOOP SUPPLY BRANCH 2,MAIN SERVICE WATER LOOP,Supply
     Plant Loop Connector Nodes,   2,Splitter,MAIN SERVICE WATER LOOP SUPPLY SPLITTER,NODE 123,NODE 125,MAIN SERVICE WATER LOOP,Supply
   Plant Loop Connector,Mixer,MAIN SERVICE WATER LOOP SUPPLY MIXER,MAIN SERVICE WATER LOOP,Supply,2
     Plant Loop Connector Branches,1,Mixer,MAIN SERVICE WATER LOOP SUPPLY MIXER,MAIN SERVICE WATER LOOP SUPPLY BRANCH 1,MAIN SERVICE WATER LOOP SUPPLY OUTLET BRANCH,MAIN SERVICE WATER LOOP,Supply
     Plant Loop Connector Nodes,   1,Mixer,MAIN SERVICE WATER LOOP SUPPLY MIXER,NODE 124,NODE 128,MAIN SERVICE WATER LOOP,Supply
     Plant Loop Connector Branches,2,Mixer,MAIN SERVICE WATER LOOP SUPPLY MIXER,MAIN SERVICE WATER LOOP SUPPLY BRANCH 2,MAIN SERVICE WATER LOOP SUPPLY OUTLET BRANCH,MAIN SERVICE WATER LOOP,Supply
     Plant Loop Connector Nodes,   2,Mixer,MAIN SERVICE WATER LOOP SUPPLY MIXER,NODE 126,NODE 128,MAIN SERVICE WATER LOOP,Supply
 Plant Loop Supply Connection,MAIN SERVICE WATER LOOP,NODE 118,NODE 120
 Plant Loop Return Connection,MAIN SERVICE WATER LOOP,NODE 121,NODE 117
! ===============================================================
! <# Condenser Loops>,<Number of Condenser Loops>
 #Condenser Loops,0
! <Condenser Loop>,<Condenser Loop Name>,<Loop Type>,<Inlet Node Name>,<Outlet Node Name>,<Branch List>,<Connector List>
! <Condenser Loop Connector>,<Connector Type>,<Connector Name>,<Loop Name>,<Loop Type>,<Number of Inlets/Outlets>
! <Condenser Loop Connector Branches>,<Connector Node Count>,<Connector Type>,<Connector Name>,<Inlet Branch>,<Outlet Branch>,<Loop Name>,<Loop Type>
! <Condenser Loop Connector Nodes>,<Connector Node Count>,<Connector Type>,<Connector Name>,<Inlet Node>,<Outlet Node>,<Loop Name>,<Loop Type>
! <Condenser Loop Supply Connection>,<Condenser Loop Name>,<Supply Side Outlet Node Name>,<Demand Side Inlet Node Name>
! <Condenser Loop Return Connection>,<Condenser Loop Name>,<Demand Side Outlet Node Name>,<Supply Side Inlet Node Name>
! ===============================================================
! <# Controlled Zones>,<Number of Controlled Zones>
 #Controlled Zones,5
! <Controlled Zone>,<Controlled Zone Name>,<Equip List Name>,<Control List Name>,<Zone Node Name>,<# Inlet Nodes>,<# Exhaust Nodes>,<# Return Nodes>
! <Controlled Zone Inlet>,<Inlet Node Count>,<Controlled Zone Name>,<Supply Air Inlet Node Name>,<SD Sys:Cooling/Heating [DD:Cooling] Inlet Node Name>,<DD Sys:Heating Inlet Node Name>
! <Controlled Zone Exhaust>,<Exhaust Node Count>,<Controlled Zone Name>,<Exhaust Air Node Name>
 Controlled Zone,ALL_ST=WHOLEBUILDING_FL=STORY 1_SCH=A,ALL_ST=WHOLEBUILDING_FL=STORY 1_SCH=A EQUIPMENT LIST,,NODE 4,1,0,1
   Controlled Zone Inlet,1,ALL_ST=WHOLEBUILDING_FL=STORY 1_SCH=A,NODE 39,NODE 39,N/A
   Controlled Zone Return,1,ALL_ST=WHOLEBUILDING_FL=STORY 1_SCH=A,NODE 45
 Controlled Zone,ALL_ST=WHOLEBUILDING_FL=STORY 1_SCH=A 1,ALL_ST=WHOLEBUILDING_FL=STORY 1_SCH=A 1 EQUIPMENT LIST,,NODE 13,1,0,1
   Controlled Zone Inlet,1,ALL_ST=WHOLEBUILDING_FL=STORY 1_SCH=A 1,NODE 65,NODE 65,N/A
   Controlled Zone Return,1,ALL_ST=WHOLEBUILDING_FL=STORY 1_SCH=A 1,NODE 71
 Controlled Zone,ALL_ST=WHOLEBUILDING_FL=STORY 1_SCH=C,ALL_ST=WHOLEBUILDING_FL=STORY 1_SCH=C EQUIPMENT LIST,,NODE 10,2,1,1
   Controlled Zone Inlet,1,ALL_ST=WHOLEBUILDING_FL=STORY 1_SCH=C,NODE 115,Undefined,N/A
   Controlled Zone Inlet,2,ALL_ST=WHOLEBUILDING_FL=STORY 1_SCH=C,NODE 105,NODE 105,N/A
   Controlled Zone Exhaust,1,ALL_ST=WHOLEBUILDING_FL=STORY 1_SCH=C,NODE 114
   Controlled Zone Return,1,ALL_ST=WHOLEBUILDING_FL=STORY 1_SCH=C,NODE 116
 Controlled Zone,ALL_ST=WHOLEBUILDING_FL=STORY 1_SCH=H,ALL_ST=WHOLEBUILDING_FL=STORY 1_SCH=H EQUIPMENT LIST,,NODE 7,1,0,1
   Controlled Zone Inlet,1,ALL_ST=WHOLEBUILDING_FL=STORY 1_SCH=H,NODE 52,NODE 52,N/A
   Controlled Zone Return,1,ALL_ST=WHOLEBUILDING_FL=STORY 1_SCH=H,NODE 58
 Controlled Zone,DU_BT=HOTEL_ST=WHOLEBUILDING_FL=STORY 1_SCHF,DU_BT=HOTEL_ST=WHOLEBUILDING_FL=STORY 1_SCHF EQUIPMENT LIST,,NODE 1,2,1,1
   Controlled Zone Inlet,1,DU_BT=HOTEL_ST=WHOLEBUILDING_FL=STORY 1_SCHF,NODE 31,Undefined,N/A
   Controlled Zone Inlet,2,DU_BT=HOTEL_ST=WHOLEBUILDING_FL=STORY 1_SCHF,NODE 23,NODE 23,N/A
   Controlled Zone Exhaust,1,DU_BT=HOTEL_ST=WHOLEBUILDING_FL=STORY 1_SCHF,NODE 30
   Controlled Zone Return,1,DU_BT=HOTEL_ST=WHOLEBUILDING_FL=STORY 1_SCHF,NODE 34
! ===============================================================
! <#Zone Equipment Lists>,<Number of Zone Equipment Lists>
 #Zone Equipment Lists,5
! <Zone Equipment List>,<Zone Equipment List Count>,<Zone Equipment List Name>,<Zone Name>,<Number of Components>
! <Zone Equipment Component>,<Component Count>,<Component Type>,<Component Name>,<Zone Name>,<Heating Priority>,<Cooling Priority>
 Zone Equipment List,1,ALL_ST=WHOLEBUILDING_FL=STORY 1_SCH=A EQUIPMENT LIST,ALL_ST=WHOLEBUILDING_FL=STORY 1_SCH=A,2
   Zone Equipment Component,1,AIRTERMINAL:SINGLEDUCT:UNCONTROLLED,AIR TERMINAL SINGLE DUCT UNCONTROLLED 2,ALL_ST=WHOLEBUILDING_FL=STORY 1_SCH=A,1,1
   Zone Equipment Component,2,ZONEHVAC:BASEBOARD:CONVECTIVE:WATER,ZONE HVAC BASEBOARD CONVECTIVE WATER 2,ALL_ST=WHOLEBUILDING_FL=STORY 1_SCH=A,2,2
 Zone Equipment List,2,ALL_ST=WHOLEBUILDING_FL=STORY 1_SCH=A 1 EQUIPMENT LIST,ALL_ST=WHOLEBUILDING_FL=STORY 1_SCH=A 1,2
   Zone Equipment Component,1,AIRTERMINAL:SINGLEDUCT:UNCONTROLLED,AIR TERMINAL SINGLE DUCT UNCONTROLLED 4,ALL_ST=WHOLEBUILDING_FL=STORY 1_SCH=A 1,1,1
   Zone Equipment Component,2,ZONEHVAC:BASEBOARD:CONVECTIVE:WATER,ZONE HVAC BASEBOARD CONVECTIVE WATER 4,ALL_ST=WHOLEBUILDING_FL=STORY 1_SCH=A 1,2,2
 Zone Equipment List,3,ALL_ST=WHOLEBUILDING_FL=STORY 1_SCH=C EQUIPMENT LIST,ALL_ST=WHOLEBUILDING_FL=STORY 1_SCH=C,2
   Zone Equipment Component,1,ZONEHVAC:FOURPIPEFANCOIL,ZONE HVAC FOUR PIPE FAN COIL 1,ALL_ST=WHOLEBUILDING_FL=STORY 1_SCH=C,1,1
   Zone Equipment Component,2,AIRTERMINAL:SINGLEDUCT:UNCONTROLLED,AIR TERMINAL SINGLE DUCT UNCONTROLLED 5,ALL_ST=WHOLEBUILDING_FL=STORY 1_SCH=C,2,2
 Zone Equipment List,4,ALL_ST=WHOLEBUILDING_FL=STORY 1_SCH=H EQUIPMENT LIST,ALL_ST=WHOLEBUILDING_FL=STORY 1_SCH=H,2
   Zone Equipment Component,1,AIRTERMINAL:SINGLEDUCT:UNCONTROLLED,AIR TERMINAL SINGLE DUCT UNCONTROLLED 3,ALL_ST=WHOLEBUILDING_FL=STORY 1_SCH=H,1,1
   Zone Equipment Component,2,ZONEHVAC:BASEBOARD:CONVECTIVE:WATER,ZONE HVAC BASEBOARD CONVECTIVE WATER 3,ALL_ST=WHOLEBUILDING_FL=STORY 1_SCH=H,2,2
 Zone Equipment List,5,DU_BT=HOTEL_ST=WHOLEBUILDING_FL=STORY 1_SCHF EQUIPMENT LIST,DU_BT=HOTEL_ST=WHOLEBUILDING_FL=STORY 1_SCHF,3
   Zone Equipment Component,1,ZONEHVAC:PACKAGEDTERMINALAIRCONDITIONER,DU_BT=HOTEL_ST=WHOLEBUILDING_FL=STORY 1_SCHF PTAC,DU_BT=HOTEL_ST=WHOLEBUILDING_FL=STORY 1_SCHF,1,1
   Zone Equipment Component,2,ZONEHVAC:BASEBOARD:CONVECTIVE:WATER,ZONE HVAC BASEBOARD CONVECTIVE WATER 1,DU_BT=HOTEL_ST=WHOLEBUILDING_FL=STORY 1_SCHF,2,2
   Zone Equipment Component,3,AIRTERMINAL:SINGLEDUCT:UNCONTROLLED,AIR TERMINAL SINGLE DUCT UNCONTROLLED 1,DU_BT=HOTEL_ST=WHOLEBUILDING_FL=STORY 1_SCHF,3,3
! ===============================================================
! <#AirLoopHVACs>,<Number of AirLoopHVACs>
 #AirLoopHVACs,5
! <AirLoopHVAC>,<Air Loop Name>,<# Return Nodes>,<# Supply Nodes>,<# Zones Cooled>,<# Zones Heated>,<Outdoor Air Used>
! <AirLoop Return Connections>,<Connection Count>,<AirLoopHVAC Name>,<Zn Eqp Return Node #>,<Zn Eqp Return Node Name>,<AirLoop Return Node #>,<Air Loop Return Node Name>
! <AirLoop Supply Connections>,<Connection Count>,<AirLoopHVAC Name>,<Zn Eqp Supply Node #>,<Zn Eqp Supply Node Name>,<AirLoop Supply Node #>,<Air Loop Supply Node Name>
! <Cooled Zone Info>,<Cooled Zone Count>,<Cooled Zone Name>,<Cooled Zone Inlet Node #>,<Cooled Zone Inlet Node Name>,<AirLoopHVAC Name>
! <Heated Zone Info>,<Heated Zone Count>,<Heated Zone Name>,<Heated Zone Inlet Node #>,<Heated Zone Inlet Node Name>,<AirLoopHVAC Name>
! <Outdoor Air Connections>,<OA Inlet Node #>,<OA Return Air Inlet Node Name>,<OA Outlet Node #>,<OA Mixed Air Outlet Node Name>,<AirLoopHVAC Name>
! <AirLoopHVAC Connector>,<Connector Type>,<Connector Name>,<Loop Name>,<Loop Type>,<Number of Inlets/Outlets>
! <AirLoopHVAC Connector Branches>,<Connector Node Count>,<Connector Type>,<Connector Name>,<Inlet Branch>,<Outlet Branch>,<Loop Name>,<Loop Type>
! <AirLoopHVAC Connector Nodes>,<Connector Node Count>,<Connector Type>,<Connector Name>,<Inlet Node>,<Outlet Node>,<Loop Name>,<Loop Type>
 AirLoopHVAC,SYS_1_MAKE-UP AIR UNIT,1,1,1,0,Yes
   AirLoop Return Connections,1,SYS_1_MAKE-UP AIR UNIT,140,NODE 22,20,NODE 19
   AirLoop Supply Connections,1,SYS_1_MAKE-UP AIR UNIT,11,NODE 21,10,NODE 20
   Cooled Zone Info,1,DU_BT=HOTEL_ST=WHOLEBUILDING_FL=STORY 1_SCHF,8,NODE 23,SYS_1_MAKE-UP AIR UNIT
   Outdoor Air Connections,20,NODE 19,21,NODE 29,SYS_1_MAKE-UP AIR UNIT
 AirLoopHVAC,SYS_2_MAKE-UP AIR UNIT,1,1,1,0,Yes
   AirLoop Return Connections,1,SYS_2_MAKE-UP AIR UNIT,141,NODE 104,24,NODE 101
   AirLoop Supply Connections,1,SYS_2_MAKE-UP AIR UNIT,13,NODE 103,12,NODE 102
   Cooled Zone Info,1,ALL_ST=WHOLEBUILDING_FL=STORY 1_SCH=C,4,NODE 105,SYS_2_MAKE-UP AIR UNIT
   Outdoor Air Connections,24,NODE 101,25,NODE 110,SYS_2_MAKE-UP AIR UNIT
 AirLoopHVAC,SYS_3_PSZ ALL_ST=WHOLEBUILDING_FL=STORY 1_SCH=A,1,1,1,0,Yes
   AirLoop Return Connections,1,SYS_3_PSZ ALL_ST=WHOLEBUILDING_FL=STORY 1_SCH=A,142,NODE 38,28,NODE 35
   AirLoop Supply Connections,1,SYS_3_PSZ ALL_ST=WHOLEBUILDING_FL=STORY 1_SCH=A,15,NODE 37,14,NODE 36
   Cooled Zone Info,1,ALL_ST=WHOLEBUILDING_FL=STORY 1_SCH=A,1,NODE 39,SYS_3_PSZ ALL_ST=WHOLEBUILDING_FL=STORY 1_SCH=A
   Outdoor Air Connections,28,NODE 35,29,NODE 44,SYS_3_PSZ ALL_ST=WHOLEBUILDING_FL=STORY 1_SCH=A
 AirLoopHVAC,SYS_3_PSZ ALL_ST=WHOLEBUILDING_FL=STORY 1_SCH=A 1,1,1,1,0,Yes
   AirLoop Return Connections,1,SYS_3_PSZ ALL_ST=WHOLEBUILDING_FL=STORY 1_SCH=A 1,143,NODE 64,32,NODE 61
   AirLoop Supply Connections,1,SYS_3_PSZ ALL_ST=WHOLEBUILDING_FL=STORY 1_SCH=A 1,17,NODE 63,16,NODE 62
   Cooled Zone Info,1,ALL_ST=WHOLEBUILDING_FL=STORY 1_SCH=A 1,2,NODE 65,SYS_3_PSZ ALL_ST=WHOLEBUILDING_FL=STORY 1_SCH=A 1
   Outdoor Air Connections,32,NODE 61,33,NODE 70,SYS_3_PSZ ALL_ST=WHOLEBUILDING_FL=STORY 1_SCH=A 1
 AirLoopHVAC,SYS_3_PSZ ALL_ST=WHOLEBUILDING_FL=STORY 1_SCH=H,1,1,1,0,Yes
   AirLoop Return Connections,1,SYS_3_PSZ ALL_ST=WHOLEBUILDING_FL=STORY 1_SCH=H,144,NODE 51,36,NODE 48
   AirLoop Supply Connections,1,SYS_3_PSZ ALL_ST=WHOLEBUILDING_FL=STORY 1_SCH=H,19,NODE 50,18,NODE 49
   Cooled Zone Info,1,ALL_ST=WHOLEBUILDING_FL=STORY 1_SCH=H,6,NODE 52,SYS_3_PSZ ALL_ST=WHOLEBUILDING_FL=STORY 1_SCH=H
   Outdoor Air Connections,36,NODE 48,37,NODE 57,SYS_3_PSZ ALL_ST=WHOLEBUILDING_FL=STORY 1_SCH=H
! ===============================================================
! <#Parent Node Connections>,<Number of Parent Node Connections>
 #Parent Node Connections,184
! <Parent Node Connection>,<Node Name>,<Node ObjectType>,<Node ObjectName>,<Node ConnectionType>,<Node FluidStream>
 Parent Node Connection,NODE 19,BRANCH,SYS_1_MAKE-UP AIR UNIT MAIN BRANCH,Inlet,1
 Parent Node Connection,NODE 29,BRANCH,SYS_1_MAKE-UP AIR UNIT MAIN BRANCH,Internal,1
 Parent Node Connection,NODE 28,BRANCH,SYS_1_MAKE-UP AIR UNIT MAIN BRANCH,Internal,1
 Parent Node Connection,NODE 27,BRANCH,SYS_1_MAKE-UP AIR UNIT MAIN BRANCH,Internal,1
 Parent Node Connection,NODE 20,BRANCH,SYS_1_MAKE-UP AIR UNIT MAIN BRANCH,Outlet,1
 Parent Node Connection,NODE 101,BRANCH,SYS_2_MAKE-UP AIR UNIT MAIN BRANCH,Inlet,1
 Parent Node Connection,NODE 110,BRANCH,SYS_2_MAKE-UP AIR UNIT MAIN BRANCH,Internal,1
 Parent Node Connection,NODE 109,BRANCH,SYS_2_MAKE-UP AIR UNIT MAIN BRANCH,Internal,1
 Parent Node Connection,NODE 108,BRANCH,SYS_2_MAKE-UP AIR UNIT MAIN BRANCH,Internal,1
 Parent Node Connection,NODE 102,BRANCH,SYS_2_MAKE-UP AIR UNIT MAIN BRANCH,Outlet,1
 Parent Node Connection,NODE 35,BRANCH,SYS_3_PSZ ALL_ST=WHOLEBUILDING_FL=STORY 1_SCH=A MAIN BRANCH,Inlet,1
 Parent Node Connection,NODE 44,BRANCH,SYS_3_PSZ ALL_ST=WHOLEBUILDING_FL=STORY 1_SCH=A MAIN BRANCH,Internal,1
 Parent Node Connection,NODE 43,BRANCH,SYS_3_PSZ ALL_ST=WHOLEBUILDING_FL=STORY 1_SCH=A MAIN BRANCH,Internal,1
 Parent Node Connection,NODE 42,BRANCH,SYS_3_PSZ ALL_ST=WHOLEBUILDING_FL=STORY 1_SCH=A MAIN BRANCH,Internal,1
 Parent Node Connection,NODE 36,BRANCH,SYS_3_PSZ ALL_ST=WHOLEBUILDING_FL=STORY 1_SCH=A MAIN BRANCH,Outlet,1
 Parent Node Connection,NODE 61,BRANCH,SYS_3_PSZ ALL_ST=WHOLEBUILDING_FL=STORY 1_SCH=A 1 MAIN BRANCH,Inlet,1
 Parent Node Connection,NODE 70,BRANCH,SYS_3_PSZ ALL_ST=WHOLEBUILDING_FL=STORY 1_SCH=A 1 MAIN BRANCH,Internal,1
 Parent Node Connection,NODE 69,BRANCH,SYS_3_PSZ ALL_ST=WHOLEBUILDING_FL=STORY 1_SCH=A 1 MAIN BRANCH,Internal,1
 Parent Node Connection,NODE 68,BRANCH,SYS_3_PSZ ALL_ST=WHOLEBUILDING_FL=STORY 1_SCH=A 1 MAIN BRANCH,Internal,1
 Parent Node Connection,NODE 62,BRANCH,SYS_3_PSZ ALL_ST=WHOLEBUILDING_FL=STORY 1_SCH=A 1 MAIN BRANCH,Outlet,1
 Parent Node Connection,NODE 48,BRANCH,SYS_3_PSZ ALL_ST=WHOLEBUILDING_FL=STORY 1_SCH=H MAIN BRANCH,Inlet,1
 Parent Node Connection,NODE 57,BRANCH,SYS_3_PSZ ALL_ST=WHOLEBUILDING_FL=STORY 1_SCH=H MAIN BRANCH,Internal,1
 Parent Node Connection,NODE 56,BRANCH,SYS_3_PSZ ALL_ST=WHOLEBUILDING_FL=STORY 1_SCH=H MAIN BRANCH,Internal,1
 Parent Node Connection,NODE 55,BRANCH,SYS_3_PSZ ALL_ST=WHOLEBUILDING_FL=STORY 1_SCH=H MAIN BRANCH,Internal,1
 Parent Node Connection,NODE 49,BRANCH,SYS_3_PSZ ALL_ST=WHOLEBUILDING_FL=STORY 1_SCH=H MAIN BRANCH,Outlet,1
 Parent Node Connection,NODE 74,BRANCH,CHILLED WATER LOOP SUPPLY INLET BRANCH,Inlet,1
 Parent Node Connection,NODE 80,BRANCH,CHILLED WATER LOOP SUPPLY INLET BRANCH,Outlet,1
 Parent Node Connection,NODE 76,BRANCH,CHILLED WATER LOOP SUPPLY BRANCH 1,Inlet,1
 Parent Node Connection,NODE 81,BRANCH,CHILLED WATER LOOP SUPPLY BRANCH 1,Outlet,1
 Parent Node Connection,NODE 82,BRANCH,CHILLED WATER LOOP SUPPLY BRANCH 2,Inlet,1
 Parent Node Connection,NODE 83,BRANCH,CHILLED WATER LOOP SUPPLY BRANCH 2,Outlet,1
 Parent Node Connection,NODE 84,BRANCH,CHILLED WATER LOOP SUPPLY BRANCH 3,Inlet,1
 Parent Node Connection,NODE 85,BRANCH,CHILLED WATER LOOP SUPPLY BRANCH 3,Outlet,1
 Parent Node Connection,NODE 86,BRANCH,CHILLED WATER LOOP SUPPLY OUTLET BRANCH,Inlet,1
 Parent Node Connection,NODE 75,BRANCH,CHILLED WATER LOOP SUPPLY OUTLET BRANCH,Outlet,1
 Parent Node Connection,NODE 77,BRANCH,CHILLED WATER LOOP DEMAND INLET BRANCH,Inlet,1
 Parent Node Connection,CHILLED WATER LOOP DEMAND INLET PIPE NODE,BRANCH,CHILLED WATER LOOP DEMAND INLET BRANCH,Outlet,1
 Parent Node Connection,NODE 79,BRANCH,CHILLED WATER LOOP DEMAND BRANCH 1,Inlet,1
 Parent Node Connection,NODE 113,BRANCH,CHILLED WATER LOOP DEMAND BRANCH 1,Outlet,1
 Parent Node Connection,CHILLED WATER LOOP DEMAND BYPASS PIPE INLET NODE,BRANCH,CHILLED WATER LOOP DEMAND BYPASS BRANCH,Inlet,1
 Parent Node Connection,CHILLED WATER LOOP DEMAND BYPASS PIPE OUTLET NODE,BRANCH,CHILLED WATER LOOP DEMAND BYPASS BRANCH,Outlet,1
 Parent Node Connection,CHILLED WATER LOOP DEMAND OUTLET PIPE NODE,BRANCH,CHILLED WATER LOOP DEMAND OUTLET BRANCH,Inlet,1
 Parent Node Connection,NODE 78,BRANCH,CHILLED WATER LOOP DEMAND OUTLET BRANCH,Outlet,1
 Parent Node Connection,NODE 87,BRANCH,CONDENSER WATER LOOP SUPPLY INLET BRANCH,Inlet,1
 Parent Node Connection,NODE 93,BRANCH,CONDENSER WATER LOOP SUPPLY INLET BRANCH,Outlet,1
 Parent Node Connection,NODE 89,BRANCH,CONDENSER WATER LOOP SUPPLY BRANCH 1,Inlet,1
 Parent Node Connection,NODE 94,BRANCH,CONDENSER WATER LOOP SUPPLY BRANCH 1,Outlet,1
 Parent Node Connection,NODE 95,BRANCH,CONDENSER WATER LOOP SUPPLY BRANCH 2,Inlet,1
 Parent Node Connection,NODE 96,BRANCH,CONDENSER WATER LOOP SUPPLY BRANCH 2,Outlet,1
 Parent Node Connection,NODE 97,BRANCH,CONDENSER WATER LOOP SUPPLY OUTLET BRANCH,Inlet,1
 Parent Node Connection,NODE 88,BRANCH,CONDENSER WATER LOOP SUPPLY OUTLET BRANCH,Outlet,1
 Parent Node Connection,NODE 90,BRANCH,CONDENSER WATER LOOP DEMAND INLET BRANCH,Inlet,1
 Parent Node Connection,CONDENSER WATER LOOP DEMAND INLET PIPE NODE,BRANCH,CONDENSER WATER LOOP DEMAND INLET BRANCH,Outlet,1
 Parent Node Connection,NODE 92,BRANCH,CONDENSER WATER LOOP DEMAND BRANCH 1,Inlet,1
 Parent Node Connection,NODE 98,BRANCH,CONDENSER WATER LOOP DEMAND BRANCH 1,Outlet,1
 Parent Node Connection,NODE 99,BRANCH,CONDENSER WATER LOOP DEMAND BRANCH 2,Inlet,1
 Parent Node Connection,NODE 100,BRANCH,CONDENSER WATER LOOP DEMAND BRANCH 2,Outlet,1
 Parent Node Connection,CONDENSER WATER LOOP DEMAND BYPASS PIPE INLET NODE,BRANCH,CONDENSER WATER LOOP DEMAND BYPASS BRANCH,Inlet,1
 Parent Node Connection,CONDENSER WATER LOOP DEMAND BYPASS PIPE OUTLET NODE,BRANCH,CONDENSER WATER LOOP DEMAND BYPASS BRANCH,Outlet,1
 Parent Node Connection,CONDENSER WATER LOOP DEMAND OUTLET PIPE NODE,BRANCH,CONDENSER WATER LOOP DEMAND OUTLET BRANCH,Inlet,1
 Parent Node Connection,NODE 91,BRANCH,CONDENSER WATER LOOP DEMAND OUTLET BRANCH,Outlet,1
 Parent Node Connection,NODE 2,BRANCH,HOT WATER LOOP SUPPLY INLET BRANCH,Inlet,1
 Parent Node Connection,NODE 11,BRANCH,HOT WATER LOOP SUPPLY INLET BRANCH,Outlet,1
 Parent Node Connection,NODE 5,BRANCH,HOT WATER LOOP SUPPLY BRANCH 1,Inlet,1
 Parent Node Connection,NODE 12,BRANCH,HOT WATER LOOP SUPPLY BRANCH 1,Outlet,1
 Parent Node Connection,NODE 14,BRANCH,HOT WATER LOOP SUPPLY BRANCH 2,Inlet,1
 Parent Node Connection,NODE 15,BRANCH,HOT WATER LOOP SUPPLY BRANCH 2,Outlet,1
 Parent Node Connection,NODE 16,BRANCH,HOT WATER LOOP SUPPLY BRANCH 3,Inlet,1
 Parent Node Connection,NODE 17,BRANCH,HOT WATER LOOP SUPPLY BRANCH 3,Outlet,1
 Parent Node Connection,NODE 18,BRANCH,HOT WATER LOOP SUPPLY OUTLET BRANCH,Inlet,1
 Parent Node Connection,NODE 3,BRANCH,HOT WATER LOOP SUPPLY OUTLET BRANCH,Outlet,1
 Parent Node Connection,NODE 6,BRANCH,HOT WATER LOOP DEMAND INLET BRANCH,Inlet,1
 Parent Node Connection,HOT WATER LOOP DEMAND INLET PIPE NODE,BRANCH,HOT WATER LOOP DEMAND INLET BRANCH,Outlet,1
 Parent Node Connection,NODE 9,BRANCH,HOT WATER LOOP DEMAND BRANCH 1,Inlet,1
 Parent Node Connection,NODE 24,BRANCH,HOT WATER LOOP DEMAND BRANCH 1,Outlet,1
 Parent Node Connection,NODE 32,BRANCH,HOT WATER LOOP DEMAND BRANCH 2,Inlet,1
 Parent Node Connection,NODE 33,BRANCH,HOT WATER LOOP DEMAND BRANCH 2,Outlet,1
 Parent Node Connection,NODE 46,BRANCH,HOT WATER LOOP DEMAND BRANCH 3,Inlet,1
 Parent Node Connection,NODE 47,BRANCH,HOT WATER LOOP DEMAND BRANCH 3,Outlet,1
 Parent Node Connection,NODE 59,BRANCH,HOT WATER LOOP DEMAND BRANCH 4,Inlet,1
 Parent Node Connection,NODE 60,BRANCH,HOT WATER LOOP DEMAND BRANCH 4,Outlet,1
 Parent Node Connection,NODE 72,BRANCH,HOT WATER LOOP DEMAND BRANCH 5,Inlet,1
 Parent Node Connection,NODE 73,BRANCH,HOT WATER LOOP DEMAND BRANCH 5,Outlet,1
 Parent Node Connection,NODE 111,BRANCH,HOT WATER LOOP DEMAND BRANCH 6,Inlet,1
 Parent Node Connection,NODE 112,BRANCH,HOT WATER LOOP DEMAND BRANCH 6,Outlet,1
 Parent Node Connection,HOT WATER LOOP DEMAND BYPASS PIPE INLET NODE,BRANCH,HOT WATER LOOP DEMAND BYPASS BRANCH,Inlet,1
 Parent Node Connection,HOT WATER LOOP DEMAND BYPASS PIPE OUTLET NODE,BRANCH,HOT WATER LOOP DEMAND BYPASS BRANCH,Outlet,1
 Parent Node Connection,HOT WATER LOOP DEMAND OUTLET PIPE NODE,BRANCH,HOT WATER LOOP DEMAND OUTLET BRANCH,Inlet,1
 Parent Node Connection,NODE 8,BRANCH,HOT WATER LOOP DEMAND OUTLET BRANCH,Outlet,1
 Parent Node Connection,NODE 117,BRANCH,MAIN SERVICE WATER LOOP SUPPLY INLET BRANCH,Inlet,1
 Parent Node Connection,NODE 123,BRANCH,MAIN SERVICE WATER LOOP SUPPLY INLET BRANCH,Outlet,1
 Parent Node Connection,NODE 119,BRANCH,MAIN SERVICE WATER LOOP SUPPLY BRANCH 1,Inlet,1
 Parent Node Connection,NODE 124,BRANCH,MAIN SERVICE WATER LOOP SUPPLY BRANCH 1,Outlet,1
 Parent Node Connection,NODE 125,BRANCH,MAIN SERVICE WATER LOOP SUPPLY BRANCH 2,Inlet,1
 Parent Node Connection,NODE 126,BRANCH,MAIN SERVICE WATER LOOP SUPPLY BRANCH 2,Outlet,1
 Parent Node Connection,NODE 128,BRANCH,MAIN SERVICE WATER LOOP SUPPLY OUTLET BRANCH,Inlet,1
 Parent Node Connection,NODE 118,BRANCH,MAIN SERVICE WATER LOOP SUPPLY OUTLET BRANCH,Outlet,1
 Parent Node Connection,NODE 120,BRANCH,MAIN SERVICE WATER LOOP DEMAND INLET BRANCH,Inlet,1
 Parent Node Connection,NODE 129,BRANCH,MAIN SERVICE WATER LOOP DEMAND INLET BRANCH,Outlet,1
 Parent Node Connection,NODE 122,BRANCH,MAIN SERVICE WATER LOOP DEMAND BRANCH 1,Inlet,1
 Parent Node Connection,NODE 127,BRANCH,MAIN SERVICE WATER LOOP DEMAND BRANCH 1,Outlet,1
 Parent Node Connection,NODE 131,BRANCH,MAIN SERVICE WATER LOOP DEMAND BRANCH 2,Inlet,1
 Parent Node Connection,NODE 132,BRANCH,MAIN SERVICE WATER LOOP DEMAND BRANCH 2,Outlet,1
 Parent Node Connection,NODE 133,BRANCH,MAIN SERVICE WATER LOOP DEMAND BRANCH 3,Inlet,1
 Parent Node Connection,NODE 134,BRANCH,MAIN SERVICE WATER LOOP DEMAND BRANCH 3,Outlet,1
 Parent Node Connection,NODE 135,BRANCH,MAIN SERVICE WATER LOOP DEMAND BRANCH 4,Inlet,1
 Parent Node Connection,NODE 136,BRANCH,MAIN SERVICE WATER LOOP DEMAND BRANCH 4,Outlet,1
 Parent Node Connection,NODE 137,BRANCH,MAIN SERVICE WATER LOOP DEMAND BRANCH 5,Inlet,1
 Parent Node Connection,NODE 138,BRANCH,MAIN SERVICE WATER LOOP DEMAND BRANCH 5,Outlet,1
 Parent Node Connection,NODE 139,BRANCH,MAIN SERVICE WATER LOOP DEMAND BRANCH 6,Inlet,1
 Parent Node Connection,NODE 140,BRANCH,MAIN SERVICE WATER LOOP DEMAND BRANCH 6,Outlet,1
 Parent Node Connection,MAIN SERVICE WATER LOOP DEMAND BYPASS PIPE INLET NODE,BRANCH,MAIN SERVICE WATER LOOP DEMAND BYPASS BRANCH,Inlet,1
[...]
 Non-Parent Node Connection,NODE 14,CONNECTOR:SPLITTER,HOT WATER LOOP SUPPLY SPLITTER,Outlet,1
 Non-Parent Node Connection,NODE 16,CONNECTOR:SPLITTER,HOT WATER LOOP SUPPLY SPLITTER,Outlet,1
 Non-Parent Node Connection,NODE 18,CONNECTOR:MIXER,HOT WATER LOOP SUPPLY MIXER,Outlet,1
 Non-Parent Node Connection,NODE 12,CONNECTOR:MIXER,HOT WATER LOOP SUPPLY MIXER,Inlet,1
 Non-Parent Node Connection,NODE 15,CONNECTOR:MIXER,HOT WATER LOOP SUPPLY MIXER,Inlet,1
 Non-Parent Node Connection,NODE 17,CONNECTOR:MIXER,HOT WATER LOOP SUPPLY MIXER,Inlet,1
 Non-Parent Node Connection,NODE 129,CONNECTOR:SPLITTER,MAIN SERVICE WATER LOOP DEMAND SPLITTER,Inlet,1
 Non-Parent Node Connection,NODE 122,CONNECTOR:SPLITTER,MAIN SERVICE WATER LOOP DEMAND SPLITTER,Outlet,1
 Non-Parent Node Connection,NODE 131,CONNECTOR:SPLITTER,MAIN SERVICE WATER LOOP DEMAND SPLITTER,Outlet,1
 Non-Parent Node Connection,NODE 133,CONNECTOR:SPLITTER,MAIN SERVICE WATER LOOP DEMAND SPLITTER,Outlet,1
 Non-Parent Node Connection,NODE 135,CONNECTOR:SPLITTER,MAIN SERVICE WATER LOOP DEMAND SPLITTER,Outlet,1
 Non-Parent Node Connection,NODE 137,CONNECTOR:SPLITTER,MAIN SERVICE WATER LOOP DEMAND SPLITTER,Outlet,1
 Non-Parent Node Connection,NODE 139,CONNECTOR:SPLITTER,MAIN SERVICE WATER LOOP DEMAND SPLITTER,Outlet,1
 Non-Parent Node Connection,MAIN SERVICE WATER LOOP DEMAND BYPASS PIPE INLET NODE,CONNECTOR:SPLITTER,MAIN SERVICE WATER LOOP DEMAND SPLITTER,Outlet,1
 Non-Parent Node Connection,NODE 130,CONNECTOR:MIXER,MAIN SERVICE WATER LOOP DEMAND MIXER,Outlet,1
 Non-Parent Node Connection,NODE 127,CONNECTOR:MIXER,MAIN SERVICE WATER LOOP DEMAND MIXER,Inlet,1
 Non-Parent Node Connection,NODE 132,CONNECTOR:MIXER,MAIN SERVICE WATER LOOP DEMAND MIXER,Inlet,1
 Non-Parent Node Connection,NODE 134,CONNECTOR:MIXER,MAIN SERVICE WATER LOOP DEMAND MIXER,Inlet,1
 Non-Parent Node Connection,NODE 136,CONNECTOR:MIXER,MAIN SERVICE WATER LOOP DEMAND MIXER,Inlet,1
 Non-Parent Node Connection,NODE 138,CONNECTOR:MIXER,MAIN SERVICE WATER LOOP DEMAND MIXER,Inlet,1
 Non-Parent Node Connection,NODE 140,CONNECTOR:MIXER,MAIN SERVICE WATER LOOP DEMAND MIXER,Inlet,1
 Non-Parent Node Connection,MAIN SERVICE WATER LOOP DEMAND BYPASS PIPE OUTLET NODE,CONNECTOR:MIXER,MAIN SERVICE WATER LOOP DEMAND MIXER,Inlet,1
 Non-Parent Node Connection,NODE 123,CONNECTOR:SPLITTER,MAIN SERVICE WATER LOOP SUPPLY SPLITTER,Inlet,1
 Non-Parent Node Connection,NODE 119,CONNECTOR:SPLITTER,MAIN SERVICE WATER LOOP SUPPLY SPLITTER,Outlet,1
 Non-Parent Node Connection,NODE 125,CONNECTOR:SPLITTER,MAIN SERVICE WATER LOOP SUPPLY SPLITTER,Outlet,1
 Non-Parent Node Connection,NODE 128,CONNECTOR:MIXER,MAIN SERVICE WATER LOOP SUPPLY MIXER,Outlet,1
 Non-Parent Node Connection,NODE 124,CONNECTOR:MIXER,MAIN SERVICE WATER LOOP SUPPLY MIXER,Inlet,1
 Non-Parent Node Connection,NODE 126,CONNECTOR:MIXER,MAIN SERVICE WATER LOOP SUPPLY MIXER,Inlet,1
 Non-Parent Node Connection,NODE 131,WATERUSE:CONNECTIONS,WATER USE CONNECTIONS 1,Inlet,1
 Non-Parent Node Connection,NODE 132,WATERUSE:CONNECTIONS,WATER USE CONNECTIONS 1,Outlet,1
 Non-Parent Node Connection,NODE 133,WATERUSE:CONNECTIONS,WATER USE CONNECTIONS 2,Inlet,1
 Non-Parent Node Connection,NODE 134,WATERUSE:CONNECTIONS,WATER USE CONNECTIONS 2,Outlet,1
 Non-Parent Node Connection,NODE 135,WATERUSE:CONNECTIONS,WATER USE CONNECTIONS 3,Inlet,1
 Non-Parent Node Connection,NODE 136,WATERUSE:CONNECTIONS,WATER USE CONNECTIONS 3,Outlet,1
 Non-Parent Node Connection,NODE 137,WATERUSE:CONNECTIONS,WATER USE CONNECTIONS 4,Inlet,1
 Non-Parent Node Connection,NODE 138,WATERUSE:CONNECTIONS,WATER USE CONNECTIONS 4,Outlet,1
 Non-Parent Node Connection,NODE 139,WATERUSE:CONNECTIONS,WATER USE CONNECTIONS 5,Inlet,1
 Non-Parent Node Connection,NODE 140,WATERUSE:CONNECTIONS,WATER USE CONNECTIONS 5,Outlet,1
 Non-Parent Node Connection,NODE 21,AIRLOOPHVAC:ZONESPLITTER,AIR LOOP HVAC ZONE SPLITTER 1,Inlet,1
 Non-Parent Node Connection,NODE 23,AIRLOOPHVAC:ZONESPLITTER,AIR LOOP HVAC ZONE SPLITTER 1,Outlet,1
 Non-Parent Node Connection,NODE 103,AIRLOOPHVAC:ZONESPLITTER,AIR LOOP HVAC ZONE SPLITTER 5,Inlet,1
 Non-Parent Node Connection,NODE 105,AIRLOOPHVAC:ZONESPLITTER,AIR LOOP HVAC ZONE SPLITTER 5,Outlet,1
 Non-Parent Node Connection,NODE 37,AIRLOOPHVAC:ZONESPLITTER,AIR LOOP HVAC ZONE SPLITTER 2,Inlet,1
 Non-Parent Node Connection,NODE 39,AIRLOOPHVAC:ZONESPLITTER,AIR LOOP HVAC ZONE SPLITTER 2,Outlet,1
 Non-Parent Node Connection,NODE 63,AIRLOOPHVAC:ZONESPLITTER,AIR LOOP HVAC ZONE SPLITTER 4,Inlet,1
 Non-Parent Node Connection,NODE 65,AIRLOOPHVAC:ZONESPLITTER,AIR LOOP HVAC ZONE SPLITTER 4,Outlet,1
 Non-Parent Node Connection,NODE 50,AIRLOOPHVAC:ZONESPLITTER,AIR LOOP HVAC ZONE SPLITTER 3,Inlet,1
 Non-Parent Node Connection,NODE 52,AIRLOOPHVAC:ZONESPLITTER,AIR LOOP HVAC ZONE SPLITTER 3,Outlet,1
 Non-Parent Node Connection,NODE 39,AIRTERMINAL:SINGLEDUCT:UNCONTROLLED,AIR TERMINAL SINGLE DUCT UNCONTROLLED 2,Outlet,1
 Non-Parent Node Connection,NODE 65,AIRTERMINAL:SINGLEDUCT:UNCONTROLLED,AIR TERMINAL SINGLE DUCT UNCONTROLLED 4,Outlet,1
 Non-Parent Node Connection,NODE 105,AIRTERMINAL:SINGLEDUCT:UNCONTROLLED,AIR TERMINAL SINGLE DUCT UNCONTROLLED 5,Outlet,1
 Non-Parent Node Connection,NODE 52,AIRTERMINAL:SINGLEDUCT:UNCONTROLLED,AIR TERMINAL SINGLE DUCT UNCONTROLLED 3,Outlet,1
 Non-Parent Node Connection,NODE 23,AIRTERMINAL:SINGLEDUCT:UNCONTROLLED,AIR TERMINAL SINGLE DUCT UNCONTROLLED 1,Outlet,1
 Non-Parent Node Connection,NODE 46,ZONEHVAC:BASEBOARD:CONVECTIVE:WATER,ZONE HVAC BASEBOARD CONVECTIVE WATER 2,Inlet,1
 Non-Parent Node Connection,NODE 47,ZONEHVAC:BASEBOARD:CONVECTIVE:WATER,ZONE HVAC BASEBOARD CONVECTIVE WATER 2,Outlet,1
 Non-Parent Node Connection,NODE 72,ZONEHVAC:BASEBOARD:CONVECTIVE:WATER,ZONE HVAC BASEBOARD CONVECTIVE WATER 4,Inlet,1
 Non-Parent Node Connection,NODE 73,ZONEHVAC:BASEBOARD:CONVECTIVE:WATER,ZONE HVAC BASEBOARD CONVECTIVE WATER 4,Outlet,1
 Non-Parent Node Connection,NODE 59,ZONEHVAC:BASEBOARD:CONVECTIVE:WATER,ZONE HVAC BASEBOARD CONVECTIVE WATER 3,Inlet,1
 Non-Parent Node Connection,NODE 60,ZONEHVAC:BASEBOARD:CONVECTIVE:WATER,ZONE HVAC BASEBOARD CONVECTIVE WATER 3,Outlet,1
 Non-Parent Node Connection,NODE 32,ZONEHVAC:BASEBOARD:CONVECTIVE:WATER,ZONE HVAC BASEBOARD CONVECTIVE WATER 1,Inlet,1
 Non-Parent Node Connection,NODE 33,ZONEHVAC:BASEBOARD:CONVECTIVE:WATER,ZONE HVAC BASEBOARD CONVECTIVE WATER 1,Outlet,1
 Non-Parent Node Connection,ZONE HVAC FOUR PIPE FAN COIL 1 MIXED AIR NODE,OUTDOORAIR:MIXER,ZONE HVAC FOUR PIPE FAN COIL 1 OA MIXER,Outlet,1
 Non-Parent Node Connection,ZONE HVAC FOUR PIPE FAN COIL 1 OA NODE,OUTDOORAIR:MIXER,ZONE HVAC FOUR PIPE FAN COIL 1 OA MIXER,Inlet,1
 Non-Parent Node Connection,ZONE HVAC FOUR PIPE FAN COIL 1 RELIEF AIR NODE,OUTDOORAIR:MIXER,ZONE HVAC FOUR PIPE FAN COIL 1 OA MIXER,ReliefAir,1
 Non-Parent Node Connection,NODE 114,OUTDOORAIR:MIXER,ZONE HVAC FOUR PIPE FAN COIL 1 OA MIXER,Inlet,1
 Non-Parent Node Connection,DU_BT=HOTEL_ST=WHOLEBUILDING_FL=STORY 1_SCHF PTAC MIXED AIR NODE,OUTDOORAIR:MIXER,DU_BT=HOTEL_ST=WHOLEBUILDING_FL=STORY 1_SCHF PTAC OA MIXER,Outlet,1
 Non-Parent Node Connection,DU_BT=HOTEL_ST=WHOLEBUILDING_FL=STORY 1_SCHF PTAC OA NODE,OUTDOORAIR:MIXER,DU_BT=HOTEL_ST=WHOLEBUILDING_FL=STORY 1_SCHF PTAC OA MIXER,Inlet,1
 Non-Parent Node Connection,DU_BT=HOTEL_ST=WHOLEBUILDING_FL=STORY 1_SCHF PTAC RELIEF AIR NODE,OUTDOORAIR:MIXER,DU_BT=HOTEL_ST=WHOLEBUILDING_FL=STORY 1_SCHF PTAC OA MIXER,ReliefAir,1
 Non-Parent Node Connection,NODE 30,OUTDOORAIR:MIXER,DU_BT=HOTEL_ST=WHOLEBUILDING_FL=STORY 1_SCHF PTAC OA MIXER,Inlet,1
 Non-Parent Node Connection,NODE 29,OUTDOORAIR:MIXER,AIR LOOP HVAC OUTDOOR AIR SYSTEM 1 OUTDOOR AIR MIXER,Outlet,1
 Non-Parent Node Connection,NODE 25,OUTDOORAIR:MIXER,AIR LOOP HVAC OUTDOOR AIR SYSTEM 1 OUTDOOR AIR MIXER,Inlet,1
 Non-Parent Node Connection,NODE 26,OUTDOORAIR:MIXER,AIR LOOP HVAC OUTDOOR AIR SYSTEM 1 OUTDOOR AIR MIXER,ReliefAir,1
 Non-Parent Node Connection,NODE 19,OUTDOORAIR:MIXER,AIR LOOP HVAC OUTDOOR AIR SYSTEM 1 OUTDOOR AIR MIXER,Inlet,1
 Non-Parent Node Connection,NODE 110,OUTDOORAIR:MIXER,AIR LOOP HVAC OUTDOOR AIR SYSTEM 5 OUTDOOR AIR MIXER,Outlet,1
 Non-Parent Node Connection,NODE 106,OUTDOORAIR:MIXER,AIR LOOP HVAC OUTDOOR AIR SYSTEM 5 OUTDOOR AIR MIXER,Inlet,1
 Non-Parent Node Connection,NODE 107,OUTDOORAIR:MIXER,AIR LOOP HVAC OUTDOOR AIR SYSTEM 5 OUTDOOR AIR MIXER,ReliefAir,1
 Non-Parent Node Connection,NODE 101,OUTDOORAIR:MIXER,AIR LOOP HVAC OUTDOOR AIR SYSTEM 5 OUTDOOR AIR MIXER,Inlet,1
 Non-Parent Node Connection,NODE 44,OUTDOORAIR:MIXER,AIR LOOP HVAC OUTDOOR AIR SYSTEM 2 OUTDOOR AIR MIXER,Outlet,1
 Non-Parent Node Connection,NODE 40,OUTDOORAIR:MIXER,AIR LOOP HVAC OUTDOOR AIR SYSTEM 2 OUTDOOR AIR MIXER,Inlet,1
 Non-Parent Node Connection,NODE 41,OUTDOORAIR:MIXER,AIR LOOP HVAC OUTDOOR AIR SYSTEM 2 OUTDOOR AIR MIXER,ReliefAir,1
 Non-Parent Node Connection,NODE 35,OUTDOORAIR:MIXER,AIR LOOP HVAC OUTDOOR AIR SYSTEM 2 OUTDOOR AIR MIXER,Inlet,1
 Non-Parent Node Connection,NODE 70,OUTDOORAIR:MIXER,AIR LOOP HVAC OUTDOOR AIR SYSTEM 4 OUTDOOR AIR MIXER,Outlet,1
 Non-Parent Node Connection,NODE 66,OUTDOORAIR:MIXER,AIR LOOP HVAC OUTDOOR AIR SYSTEM 4 OUTDOOR AIR MIXER,Inlet,1
 Non-Parent Node Connection,NODE 67,OUTDOORAIR:MIXER,AIR LOOP HVAC OUTDOOR AIR SYSTEM 4 OUTDOOR AIR MIXER,ReliefAir,1
 Non-Parent Node Connection,NODE 61,OUTDOORAIR:MIXER,AIR LOOP HVAC OUTDOOR AIR SYSTEM 4 OUTDOOR AIR MIXER,Inlet,1
 Non-Parent Node Connection,NODE 57,OUTDOORAIR:MIXER,AIR LOOP HVAC OUTDOOR AIR SYSTEM 3 OUTDOOR AIR MIXER,Outlet,1
 Non-Parent Node Connection,NODE 53,OUTDOORAIR:MIXER,AIR LOOP HVAC OUTDOOR AIR SYSTEM 3 OUTDOOR AIR MIXER,Inlet,1
 Non-Parent Node Connection,NODE 54,OUTDOORAIR:MIXER,AIR LOOP HVAC OUTDOOR AIR SYSTEM 3 OUTDOOR AIR MIXER,ReliefAir,1
 Non-Parent Node Connection,NODE 48,OUTDOORAIR:MIXER,AIR LOOP HVAC OUTDOOR AIR SYSTEM 3 OUTDOOR AIR MIXER,Inlet,1
 Non-Parent Node Connection,NODE 111,COIL:HEATING:WATER,COIL HEATING WATER 2,Inlet,2
 Non-Parent Node Connection,NODE 112,COIL:HEATING:WATER,COIL HEATING WATER 2,Outlet,2
 Non-Parent Node Connection,ZONE HVAC FOUR PIPE FAN COIL 1 COOLING COIL OUTLET NODE,COIL:HEATING:WATER,COIL HEATING WATER 2,Inlet,1
 Non-Parent Node Connection,NODE 115,COIL:HEATING:WATER,COIL HEATING WATER 2,Outlet,1
 Non-Parent Node Connection,NODE 9,COIL:HEATING:WATER,COIL HEATING WATER 1,Inlet,2
 Non-Parent Node Connection,NODE 24,COIL:HEATING:WATER,COIL HEATING WATER 1,Outlet,2
 Non-Parent Node Connection,NODE 28,COIL:HEATING:WATER,COIL HEATING WATER 1,Inlet,1
 Non-Parent Node Connection,NODE 27,COIL:HEATING:WATER,COIL HEATING WATER 1,Outlet,1
 Non-Parent Node Connection,NODE 79,COIL:COOLING:WATER,COIL COOLING WATER 1,Inlet,2
 Non-Parent Node Connection,NODE 113,COIL:COOLING:WATER,COIL COOLING WATER 1,Outlet,2
 Non-Parent Node Connection,ZONE HVAC FOUR PIPE FAN COIL 1 FAN OUTLET NODE,COIL:COOLING:WATER,COIL COOLING WATER 1,Inlet,1
 Non-Parent Node Connection,ZONE HVAC FOUR PIPE FAN COIL 1 COOLING COIL OUTLET NODE,COIL:COOLING:WATER,COIL COOLING WATER 1,Outlet,1
 Non-Parent Node Connection,ZONE HVAC FOUR PIPE FAN COIL 1 MIXED AIR NODE,FAN:CONSTANTVOLUME,FAN CONSTANT VOLUME 7,Inlet,1
 Non-Parent Node Connection,ZONE HVAC FOUR PIPE FAN COIL 1 FAN OUTLET NODE,FAN:CONSTANTVOLUME,FAN CONSTANT VOLUME 7,Outlet,1
 Non-Parent Node Connection,DU_BT=HOTEL_ST=WHOLEBUILDING_FL=STORY 1_SCHF PTAC HEATING COIL OUTLET NODE,FAN:CONSTANTVOLUME,FAN CONSTANT VOLUME 2,Inlet,1
 Non-Parent Node Connection,NODE 31,FAN:CONSTANTVOLUME,FAN CONSTANT VOLUME 2,Outlet,1
 Non-Parent Node Connection,NODE 27,FAN:CONSTANTVOLUME,FAN CONSTANT VOLUME 1,Inlet,1
 Non-Parent Node Connection,NODE 20,FAN:CONSTANTVOLUME,FAN CONSTANT VOLUME 1,Outlet,1
 Non-Parent Node Connection,NODE 108,FAN:CONSTANTVOLUME,FAN CONSTANT VOLUME 6,Inlet,1
 Non-Parent Node Connection,NODE 102,FAN:CONSTANTVOLUME,FAN CONSTANT VOLUME 6,Outlet,1
 Non-Parent Node Connection,NODE 42,FAN:CONSTANTVOLUME,FAN CONSTANT VOLUME 3,Inlet,1
 Non-Parent Node Connection,NODE 36,FAN:CONSTANTVOLUME,FAN CONSTANT VOLUME 3,Outlet,1
 Non-Parent Node Connection,NODE 68,FAN:CONSTANTVOLUME,FAN CONSTANT VOLUME 5,Inlet,1
 Non-Parent Node Connection,NODE 62,FAN:CONSTANTVOLUME,FAN CONSTANT VOLUME 5,Outlet,1
 Non-Parent Node Connection,NODE 55,FAN:CONSTANTVOLUME,FAN CONSTANT VOLUME 4,Inlet,1
 Non-Parent Node Connection,NODE 49,FAN:CONSTANTVOLUME,FAN CONSTANT VOLUME 4,Outlet,1
 Non-Parent Node Connection,NODE 27,CONTROLLER:WATERCOIL,CONTROLLER WATER COIL 1,Sensor,1
 Non-Parent Node Connection,NODE 9,CONTROLLER:WATERCOIL,CONTROLLER WATER COIL 1,Actuator,1
 Non-Parent Node Connection,DU_BT=HOTEL_ST=WHOLEBUILDING_FL=STORY 1_SCHF PTAC COOLING COIL OUTLET NODE,COIL:HEATING:ELECTRIC,COIL HEATING ELECTRIC 1,Inlet,1
 Non-Parent Node Connection,DU_BT=HOTEL_ST=WHOLEBUILDING_FL=STORY 1_SCHF PTAC HEATING COIL OUTLET NODE,COIL:HEATING:ELECTRIC,COIL HEATING ELECTRIC 1,Outlet,1
 Non-Parent Node Connection,NODE 109,COIL:HEATING:FUEL,COIL HEATING GAS 4,Inlet,1
 Non-Parent Node Connection,NODE 108,COIL:HEATING:FUEL,COIL HEATING GAS 4,Outlet,1
 Non-Parent Node Connection,NODE 108,COIL:HEATING:FUEL,COIL HEATING GAS 4,Sensor,1
 Non-Parent Node Connection,NODE 43,COIL:HEATING:FUEL,COIL HEATING GAS 1,Inlet,1
 Non-Parent Node Connection,NODE 42,COIL:HEATING:FUEL,COIL HEATING GAS 1,Outlet,1
 Non-Parent Node Connection,NODE 42,COIL:HEATING:FUEL,COIL HEATING GAS 1,Sensor,1
 Non-Parent Node Connection,NODE 69,COIL:HEATING:FUEL,COIL HEATING GAS 3,Inlet,1
 Non-Parent Node Connection,NODE 68,COIL:HEATING:FUEL,COIL HEATING GAS 3,Outlet,1
 Non-Parent Node Connection,NODE 68,COIL:HEATING:FUEL,COIL HEATING GAS 3,Sensor,1
 Non-Parent Node Connection,NODE 56,COIL:HEATING:FUEL,COIL HEATING GAS 2,Inlet,1
 Non-Parent Node Connection,NODE 55,COIL:HEATING:FUEL,COIL HEATING GAS 2,Outlet,1
 Non-Parent Node Connection,NODE 55,COIL:HEATING:FUEL,COIL HEATING GAS 2,Sensor,1
 Non-Parent Node Connection,DU_BT=HOTEL_ST=WHOLEBUILDING_FL=STORY 1_SCHF PTAC MIXED AIR NODE,COIL:COOLING:DX:SINGLESPEED,COIL COOLING DX SINGLE SPEED 2,Inlet,1
 Non-Parent Node Connection,DU_BT=HOTEL_ST=WHOLEBUILDING_FL=STORY 1_SCHF PTAC COOLING COIL OUTLET NODE,COIL:COOLING:DX:SINGLESPEED,COIL COOLING DX SINGLE SPEED 2,Outlet,1
 Non-Parent Node Connection,NODE 29,COIL:COOLING:DX:SINGLESPEED,COIL COOLING DX SINGLE SPEED 1,Inlet,1
 Non-Parent Node Connection,NODE 28,COIL:COOLING:DX:SINGLESPEED,COIL COOLING DX SINGLE SPEED 1,Outlet,1
 Non-Parent Node Connection,NODE 110,COIL:COOLING:DX:SINGLESPEED,COIL COOLING DX SINGLE SPEED 6,Inlet,1
 Non-Parent Node Connection,NODE 109,COIL:COOLING:DX:SINGLESPEED,COIL COOLING DX SINGLE SPEED 6,Outlet,1
 Non-Parent Node Connection,NODE 44,COIL:COOLING:DX:SINGLESPEED,COIL COOLING DX SINGLE SPEED 3,Inlet,1
 Non-Parent Node Connection,NODE 43,COIL:COOLING:DX:SINGLESPEED,COIL COOLING DX SINGLE SPEED 3,Outlet,1
 Non-Parent Node Connection,NODE 70,COIL:COOLING:DX:SINGLESPEED,COIL COOLING DX SINGLE SPEED 5,Inlet,1
 Non-Parent Node Connection,NODE 69,COIL:COOLING:DX:SINGLESPEED,COIL COOLING DX SINGLE SPEED 5,Outlet,1
 Non-Parent Node Connection,NODE 57,COIL:COOLING:DX:SINGLESPEED,COIL COOLING DX SINGLE SPEED 4,Inlet,1
 Non-Parent Node Connection,NODE 56,COIL:COOLING:DX:SINGLESPEED,COIL COOLING DX SINGLE SPEED 4,Outlet,1
 Non-Parent Node Connection,NODE 22,AIRLOOPHVAC:ZONEMIXER,AIR LOOP HVAC ZONE MIXER 1,Outlet,1
 Non-Parent Node Connection,NODE 34,AIRLOOPHVAC:ZONEMIXER,AIR LOOP HVAC ZONE MIXER 1,Inlet,1
 Non-Parent Node Connection,NODE 104,AIRLOOPHVAC:ZONEMIXER,AIR LOOP HVAC ZONE MIXER 5,Outlet,1
 Non-Parent Node Connection,NODE 116,AIRLOOPHVAC:ZONEMIXER,AIR LOOP HVAC ZONE MIXER 5,Inlet,1
 Non-Parent Node Connection,NODE 38,AIRLOOPHVAC:ZONEMIXER,AIR LOOP HVAC ZONE MIXER 2,Outlet,1
 Non-Parent Node Connection,NODE 45,AIRLOOPHVAC:ZONEMIXER,AIR LOOP HVAC ZONE MIXER 2,Inlet,1
 Non-Parent Node Connection,NODE 64,AIRLOOPHVAC:ZONEMIXER,AIR LOOP HVAC ZONE MIXER 4,Outlet,1
 Non-Parent Node Connection,NODE 71,AIRLOOPHVAC:ZONEMIXER,AIR LOOP HVAC ZONE MIXER 4,Inlet,1
 Non-Parent Node Connection,NODE 51,AIRLOOPHVAC:ZONEMIXER,AIR LOOP HVAC ZONE MIXER 3,Outlet,1
 Non-Parent Node Connection,NODE 58,AIRLOOPHVAC:ZONEMIXER,AIR LOOP HVAC ZONE MIXER 3,Inlet,1
 Non-Parent Node Connection,NODE 29,CONTROLLER:OUTDOORAIR,CONTROLLER OUTDOOR AIR 1,Sensor,1
 Non-Parent Node Connection,NODE 25,CONTROLLER:OUTDOORAIR,CONTROLLER OUTDOOR AIR 1,Actuator,1
 Non-Parent Node Connection,NODE 26,CONTROLLER:OUTDOORAIR,CONTROLLER OUTDOOR AIR 1,Actuator,1
 Non-Parent Node Connection,NODE 19,CONTROLLER:OUTDOORAIR,CONTROLLER OUTDOOR AIR 1,Sensor,1
 Non-Parent Node Connection,NODE 110,CONTROLLER:OUTDOORAIR,CONTROLLER OUTDOOR AIR 5,Sensor,1
 Non-Parent Node Connection,NODE 106,CONTROLLER:OUTDOORAIR,CONTROLLER OUTDOOR AIR 5,Actuator,1
 Non-Parent Node Connection,NODE 107,CONTROLLER:OUTDOORAIR,CONTROLLER OUTDOOR AIR 5,Actuator,1
 Non-Parent Node Connection,NODE 101,CONTROLLER:OUTDOORAIR,CONTROLLER OUTDOOR AIR 5,Sensor,1
 Non-Parent Node Connection,NODE 44,CONTROLLER:OUTDOORAIR,CONTROLLER OUTDOOR AIR 2,Sensor,1
 Non-Parent Node Connection,NODE 40,CONTROLLER:OUTDOORAIR,CONTROLLER OUTDOOR AIR 2,Actuator,1
 Non-Parent Node Connection,NODE 41,CONTROLLER:OUTDOORAIR,CONTROLLER OUTDOOR AIR 2,Actuator,1
 Non-Parent Node Connection,NODE 35,CONTROLLER:OUTDOORAIR,CONTROLLER OUTDOOR AIR 2,Sensor,1
 Non-Parent Node Connection,NODE 70,CONTROLLER:OUTDOORAIR,CONTROLLER OUTDOOR AIR 4,Sensor,1
 Non-Parent Node Connection,NODE 66,CONTROLLER:OUTDOORAIR,CONTROLLER OUTDOOR AIR 4,Actuator,1
 Non-Parent Node Connection,NODE 67,CONTROLLER:OUTDOORAIR,CONTROLLER OUTDOOR AIR 4,Actuator,1
 Non-Parent Node Connection,NODE 61,CONTROLLER:OUTDOORAIR,CONTROLLER OUTDOOR AIR 4,Sensor,1
 Non-Parent Node Connection,NODE 57,CONTROLLER:OUTDOORAIR,CONTROLLER OUTDOOR AIR 3,Sensor,1
 Non-Parent Node Connection,NODE 53,CONTROLLER:OUTDOORAIR,CONTROLLER OUTDOOR AIR 3,Actuator,1
 Non-Parent Node Connection,NODE 54,CONTROLLER:OUTDOORAIR,CONTROLLER OUTDOOR AIR 3,Actuator,1
 Non-Parent Node Connection,NODE 48,CONTROLLER:OUTDOORAIR,CONTROLLER OUTDOOR AIR 3,Sensor,1
 Non-Parent Node Connection,NODE 76,CHILLER:ELECTRIC:EIR,PRIMARY CHILLER WATERCOOLED SCROLL,Inlet,1
 Non-Parent Node Connection,NODE 81,CHILLER:ELECTRIC:EIR,PRIMARY CHILLER WATERCOOLED SCROLL,Outlet,1
 Non-Parent Node Connection,NODE 92,CHILLER:ELECTRIC:EIR,PRIMARY CHILLER WATERCOOLED SCROLL,Inlet,2
 Non-Parent Node Connection,NODE 98,CHILLER:ELECTRIC:EIR,PRIMARY CHILLER WATERCOOLED SCROLL,Outlet,2
 Non-Parent Node Connection,NODE 82,CHILLER:ELECTRIC:EIR,SECONDARY CHILLER WATERCOOLED SCROLL,Inlet,1
 Non-Parent Node Connection,NODE 83,CHILLER:ELECTRIC:EIR,SECONDARY CHILLER WATERCOOLED SCROLL,Outlet,1
 Non-Parent Node Connection,NODE 99,CHILLER:ELECTRIC:EIR,SECONDARY CHILLER WATERCOOLED SCROLL,Inlet,2
 Non-Parent Node Connection,NODE 100,CHILLER:ELECTRIC:EIR,SECONDARY CHILLER WATERCOOLED SCROLL,Outlet,2
 Non-Parent Node Connection,NODE 89,COOLINGTOWER:SINGLESPEED,COOLING TOWER SINGLE SPEED 1,Inlet,1
 Non-Parent Node Connection,NODE 94,COOLINGTOWER:SINGLESPEED,COOLING TOWER SINGLE SPEED 1,Outlet,1
 Non-Parent Node Connection,NODE 5,BOILER:HOTWATER,PRIMARY BOILER,Inlet,1
 Non-Parent Node Connection,NODE 12,BOILER:HOTWATER,PRIMARY BOILER,Outlet,1
 Non-Parent Node Connection,NODE 14,BOILER:HOTWATER,SECONDARY BOILER,Inlet,1
 Non-Parent Node Connection,NODE 15,BOILER:HOTWATER,SECONDARY BOILER,Outlet,1
 Non-Parent Node Connection,NODE 2,PUMP:VARIABLESPEED,PUMP VARIABLE SPEED 1,Inlet,1
 Non-Parent Node Connection,NODE 11,PUMP:VARIABLESPEED,PUMP VARIABLE SPEED 1,Outlet,1
 Non-Parent Node Connection,NODE 74,PUMP:CONSTANTSPEED,PUMP CONSTANT SPEED 1,Inlet,1
 Non-Parent Node Connection,NODE 80,PUMP:CONSTANTSPEED,PUMP CONSTANT SPEED 1,Outlet,1
 Non-Parent Node Connection,NODE 87,PUMP:CONSTANTSPEED,PUMP CONSTANT SPEED 2,Inlet,1
 Non-Parent Node Connection,NODE 93,PUMP:CONSTANTSPEED,PUMP CONSTANT SPEED 2,Outlet,1
 Non-Parent Node Connection,NODE 117,PUMP:CONSTANTSPEED,SERVICE WATER LOOP PUMP,Inlet,1
 Non-Parent Node Connection,NODE 123,PUMP:CONSTANTSPEED,SERVICE WATER LOOP PUMP,Outlet,1
