Program Version,EnergyPlus, Version 8.9.0-eba93e8e1b, YMD=2019.04.04 18:00
! <Version>, Version ID
 Version, 8.9
! <Timesteps per Hour>, #TimeSteps, Minutes per TimeStep {minutes}
 Timesteps per Hour,  6, 10
! <System Convergence Limits>, Minimum System TimeStep {minutes}, Max HVAC Iterations, Minimum Plant Iterations, Maximum Plant Iterations
 System Convergence Limits, 1, 20, 2, 8
! <Simulation Control>, Do Zone Sizing, Do System Sizing, Do Plant Sizing, Do Design Days, Do Weather Simulation, Do HVAC Sizing Simulation
 Simulation Control, Yes, Yes, Yes, Yes, No, No
! <Output Reporting Tolerances>, Tolerance for Time Heating Setpoint Not Met, Tolerance for Zone Cooling Setpoint Not Met Time
 Output Reporting Tolerances, 1.000, 1.000, 
! <Site:GroundTemperature:BuildingSurface>,Jan{C},Feb{C},Mar{C},Apr{C},May{C},Jun{C},Jul{C},Aug{C},Sep{C},Oct{C},Nov{C},Dec{C}
 Site:GroundTemperature:BuildingSurface,  19.53,  19.50,  19.54,  19.60,  20.00,  21.64,  22.23,  22.38,  21.45,  20.12,  19.80,  19.63
! <Site:GroundTemperature:FCfactorMethod>,Jan{C},Feb{C},Mar{C},Apr{C},May{C},Jun{C},Jul{C},Aug{C},Sep{C},Oct{C},Nov{C},Dec{C}
 Site:GroundTemperature:FCfactorMethod, -12.27, -13.66, -11.19,  -7.33,   2.77,  10.57,  15.83,  17.43,  14.70,   8.65,   0.56,  -6.95
! <Site:GroundTemperature:Shallow>,Jan{C},Feb{C},Mar{C},Apr{C},May{C},Jun{C},Jul{C},Aug{C},Sep{C},Oct{C},Nov{C},Dec{C}
 Site:GroundTemperature:Shallow,  13.00,  13.00,  13.00,  13.00,  13.00,  13.00,  13.00,  13.00,  13.00,  13.00,  13.00,  13.00
! <Site:GroundTemperature:Deep>,Jan{C},Feb{C},Mar{C},Apr{C},May{C},Jun{C},Jul{C},Aug{C},Sep{C},Oct{C},Nov{C},Dec{C}
 Site:GroundTemperature:Deep,  16.00,  16.00,  16.00,  16.00,  16.00,  16.00,  16.00,  16.00,  16.00,  16.00,  16.00,  16.00
! <Site:GroundReflectance>,Jan{dimensionless},Feb{dimensionless},Mar{dimensionless},Apr{dimensionless},May{dimensionless},Jun{dimensionless},Jul{dimensionless},Aug{dimensionless},Sep{dimensionless},Oct{dimensionless},Nov{dimensionless},Dec{dimensionless}
 Site:GroundReflectance,  0.20,  0.20,  0.20,  0.20,  0.20,  0.20,  0.20,  0.20,  0.20,  0.20,  0.20,  0.20
! <Site:GroundReflectance:SnowModifier>, Normal, Daylighting {dimensionless}
 Site:GroundReflectance:SnowModifier,   1.000,   1.000
! <Site:GroundReflectance:Snow>,Jan{dimensionless},Feb{dimensionless},Mar{dimensionless},Apr{dimensionless},May{dimensionless},Jun{dimensionless},Jul{dimensionless},Aug{dimensionless},Sep{dimensionless},Oct{dimensionless},Nov{dimensionless},Dec{dimensionless}
 Site:GroundReflectance:Snow,  0.20,  0.20,  0.20,  0.20,  0.20,  0.20,  0.20,  0.20,  0.20,  0.20,  0.20,  0.20
! <Site:GroundReflectance:Snow:Daylighting>,Jan{dimensionless},Feb{dimensionless},Mar{dimensionless},Apr{dimensionless},May{dimensionless},Jun{dimensionless},Jul{dimensionless},Aug{dimensionless},Sep{dimensionless},Oct{dimensionless},Nov{dimensionless},Dec{dimensionless}
 Site:GroundReflectance:Snow:Daylighting,  0.20,  0.20,  0.20,  0.20,  0.20,  0.20,  0.20,  0.20,  0.20,  0.20,  0.20,  0.20
! <Environment:Weather Station>,Wind Sensor Height Above Ground {m},Wind Speed Profile Exponent {},Wind Speed Profile Boundary Layer Thickness {m},Air Temperature Sensor Height Above Ground {m},Wind Speed Modifier Coefficient-Internal,Temperature Modifier Coefficient-Internal
Environment:Weather Station,10.000,0.140,270.000,1.500,1.586,9.750E-003
! <Site:Location>, Location Name, Latitude {N+/S- Deg}, Longitude {E+/W- Deg},  Time Zone Number {GMT+/-}, Elevation {m},  Standard Pressure at Elevation {Pa}, Standard RhoAir at Elevation
Site:Location,Fort McMurray AP AB CAN CWEC2016 WMO#=716890,56.65,-111.22,-7.00,369.10,96969,1.1525
! <Building Information>, Building Name,North Axis {deg},Terrain,  Loads Convergence Tolerance Value,Temperature Convergence Tolerance Value,  Solar Distribution,Maximum Number of Warmup Days,Minimum Number of Warmup Days
 Building Information,Building 1,0.000,Suburbs,4.00000E-002,0.40000,FullExterior,25,6
! <Inside Convection Algorithm>, Algorithm {Simple | TARP | CeilingDiffuser | AdaptiveConvectionAlgorithm}
Inside Convection Algorithm,TARP
! <Outside Convection Algorithm>, Algorithm {SimpleCombined | TARP | MoWitt | DOE-2 | AdaptiveConvectionAlgorithm}
Outside Convection Algorithm,TARP
! <Sky Radiance Distribution>, Value {Anisotropic}
Sky Radiance Distribution,Anisotropic
! <Zone Air Solution Algorithm>, Value {ThirdOrderBackwardDifference | AnalyticalSolution | EulerMethod}
 Zone Air Solution Algorithm, ThirdOrderBackwardDifference
! <Zone Air Carbon Dioxide Balance Simulation>, Simulation {Yes/No}, Carbon Dioxide Concentration
 Zone Air Carbon Dioxide Balance Simulation, No,N/A
! <Zone Air Generic Contaminant Balance Simulation>, Simulation {Yes/No}, Generic Contaminant Concentration
 Zone Air Generic Contaminant Balance Simulation, No,N/A
! <Zone Air Mass Flow Balance Simulation>, Enforce Mass Balance, Adjust Zone Mixing, Adjust Zone Infiltration {AddInfiltration | AdjustInfiltration | None}, Infiltration Zones {MixingSourceZonesOnly | AllZones}
 Zone Air Mass Flow Balance Simulation, No,N/A,N/A,N/A
! <HVACSystemRootFindingAlgorithm>, Value {RegulaFalsi | Bisection | BisectionThenRegulaFalsi | RegulaFalsiThenBisection}
 HVACSystemRootFindingAlgorithm, RegulaFalsi
! <Environment:Site Atmospheric Variation>,Wind Speed Profile Exponent {},Wind Speed Profile Boundary Layer Thickness {m},Air Temperature Gradient Coefficient {K/m}
Environment:Site Atmospheric Variation,0.220,370.000,6.500000E-003
! <Surface Geometry>,Starting Corner,Vertex Input Direction,Coordinate System,Daylight Reference Point Coordinate System,Rectangular (Simple) Surface Coordinate System
 Surface Geometry,UpperLeftCorner,Counterclockwise,RelativeCoordinateSystem,RelativeCoordinateSystem,RelativeToZoneOrigin
! <Surface Heat Transfer Algorithm>, Value {CTF - ConductionTransferFunction | EMPD - MoisturePenetrationDepthConductionTransferFunction | CondFD - ConductionFiniteDifference | HAMT - CombinedHeatAndMoistureFiniteElement} - Description,Inside Surface Max Temperature Limit{C}, Surface Convection Coefficient Lower Limit {W/m2-K}, Surface Convection Coefficient Upper Limit {W/m2-K}
Surface Heat Transfer Algorithm, CTF - ConductionTransferFunction,200,0.10,1000.0
! <Shading Summary>, Number of Fixed Detached Shades, Number of Building Detached Shades, Number of Attached Shades
 Shading Summary,0,0,0
! <Zone Summary>, Number of Zones, Number of Zone Surfaces, Number of SubSurfaces
 Zone Summary,5,30,0
! <Zone Information>,Zone Name,North Axis {deg},Origin X-Coordinate {m},Origin Y-Coordinate {m},Origin Z-Coordinate {m},Centroid X-Coordinate {m},Centroid Y-Coordinate {m},Centroid Z-Coordinate {m},Type,Zone Multiplier,Zone List Multiplier,Minimum X {m},Maximum X {m},Minimum Y {m},Maximum Y {m},Minimum Z {m},Maximum Z {m},Ceiling Height {m},Volume {m3},Zone Inside Convection Algorithm {Simple-Detailed-CeilingDiffuser-TrombeWall},Zone Outside Convection Algorithm {Simple-Detailed-Tarp-MoWitt-DOE-2-BLAST}, Floor Area {m2},Exterior Gross Wall Area {m2},Exterior Net Wall Area {m2},Exterior Window Area {m2}, Number of Surfaces, Number of SubSurfaces, Number of Shading SubSurfaces,  Part of Total Building Area
 Zone Information, SP-AUDIENCE SEATING AREA PERMANENT - OTHER-SCH-A-SPACE FUNCTION SYS-3 FLR-1 SCH-A HPLCMT-NORTH ZN,0.0,25.00,75.00,0.00,50.00,89.15,1.90,1,1,1,0.00,100.00,75.00,100.00,0.00,3.80,3.80,7125.00,TARP,TARP,1875.00,0.00,0.00,0.00,6,0,0,Yes
 Zone Information, SP-AUDIENCE SEATING AREA PERMANENT - OTHER-SCH-B-SPACE FUNCTION SYS-3 FLR-1 SCH-B HPLCMT-WEST ZN,0.0,0.00,0.00,0.00,10.85,50.00,1.90,1,1,1,0.00,25.00,0.00,100.00,0.00,3.80,3.80,7125.00,TARP,TARP,1875.00,0.00,0.00,0.00,6,0,0,Yes
 Zone Information, SP-AUDIENCE SEATING AREA PERMANENT - PERFORMING ARTS THEATRE-SPACE FUNCTION SYS-3 FLR-1 SCH-C HPLCMT-CORE ZN,0.0,25.00,25.00,0.00,50.00,50.00,1.90,1,1,1,25.00,75.00,25.00,75.00,0.00,3.80,3.80,9500.00,TARP,TARP,2500.00,0.00,0.00,0.00,6,0,0,Yes
 Zone Information, SP-AUDIENCE SEATING AREA PERMANENT - RELIGIOUS BUILDING-SPACE FUNCTION SYS-3 FLR-1 SCH-I HPLCMT-SOUTH ZN,0.0,0.00,0.00,0.00,50.00,10.85,1.90,1,1,1,0.00,100.00,0.00,25.00,0.00,3.80,3.80,7125.00,TARP,TARP,1875.00,0.00,0.00,0.00,6,0,0,Yes
 Zone Information, SP-AUDIENCE SEATING AREA PERMANENT - SPORTS ARENA-SPACE FUNCTION SYS-3 FLR-1 SCH-B HPLCMT-EAST ZN,0.0,75.00,25.00,0.00,89.15,50.00,1.90,1,1,1,75.00,100.00,0.00,100.00,0.00,3.80,3.80,7125.00,TARP,TARP,1875.00,0.00,0.00,0.00,6,0,0,Yes
! <Zone Internal Gains Nominal>,Zone Name, Floor Area {m2},# Occupants,Area per Occupant {m2/person},Occupant per Area {person/m2},Interior Lighting {W/m2},Electric Load {W/m2},Gas Load {W/m2},Other Load {W/m2},Hot Water Eq {W/m2},Steam Equipment {W/m2},Sum Loads per Area {W/m2},Outdoor Controlled Baseboard Heat
 Zone Internal Gains Nominal, SP-AUDIENCE SEATING AREA PERMANENT - OTHER-SCH-A-SPACE FUNCTION SYS-3 FLR-1 SCH-A HPLCMT-NORTH ZN,1875.00,375.1,4.998,0.200,4.602,1.000,0.000,0.000,0.000,0.000,5.602,No
 Zone Internal Gains Nominal, SP-AUDIENCE SEATING AREA PERMANENT - OTHER-SCH-B-SPACE FUNCTION SYS-3 FLR-1 SCH-B HPLCMT-WEST ZN,1875.00,375.1,4.998,0.200,4.602,1.000,0.000,0.000,0.000,0.000,5.602,No
 Zone Internal Gains Nominal, SP-AUDIENCE SEATING AREA PERMANENT - PERFORMING ARTS THEATRE-SPACE FUNCTION SYS-3 FLR-1 SCH-C HPLCMT-CORE ZN,2500.00,333.5,7.497,0.133,26.210,2.501,0.000,0.000,0.000,0.000,28.710,No
 Zone Internal Gains Nominal, SP-AUDIENCE SEATING AREA PERMANENT - RELIGIOUS BUILDING-SPACE FUNCTION SYS-3 FLR-1 SCH-I HPLCMT-SOUTH ZN,1875.00,375.1,4.998,0.200,16.506,1.000,0.000,0.000,0.000,0.000,17.506,No
 Zone Internal Gains Nominal, SP-AUDIENCE SEATING AREA PERMANENT - SPORTS ARENA-SPACE FUNCTION SYS-3 FLR-1 SCH-B HPLCMT-EAST ZN,1875.00,375.1,4.998,0.200,4.602,0.000,0.000,0.000,0.000,0.000,4.602,No
! <People Internal Gains Nominal>,Name,Schedule Name,Zone Name,Zone Floor Area {m2},# Zone Occupants,Number of People {},People/Floor Area {person/m2},Floor Area per person {m2/person},Fraction Radiant,Fraction Convected,Sensible Fraction Calculation,Activity level,ASHRAE 55 Warnings,Carbon Dioxide Generation Rate,Nominal Minimum Number of People,Nominal Maximum Number of People
 People Internal Gains Nominal, SP-AUDIENCE SEATING AREA PERMANENT - OTHER-SCH-A-SPACE FUNCTION SYS-3 FLR-1 SCH-A HPLCMT-NORTH ZN SPACE FUNCTION AUDIENCE SEATING AREA PERMANENT - OTHER-SCH-A PEOPLE,NECB-A-OCCUPANCY,SP-AUDIENCE SEATING AREA PERMANENT - OTHER-SCH-A-SPACE FUNCTION SYS-3 FLR-1 SCH-A HPLCMT-NORTH ZN,1875.00,375.1,375.1,0.200,4.998,0.300,0.700,AutoCalculate,NECB-ACTIVITY,No,3.8200E-008,0,338
 People Internal Gains Nominal, SP-AUDIENCE SEATING AREA PERMANENT - OTHER-SCH-B-SPACE FUNCTION SYS-3 FLR-1 SCH-B HPLCMT-WEST ZN SPACE FUNCTION AUDIENCE SEATING AREA PERMANENT - OTHER-SCH-B PEOPLE,NECB-B-OCCUPANCY,SP-AUDIENCE SEATING AREA PERMANENT - OTHER-SCH-B-SPACE FUNCTION SYS-3 FLR-1 SCH-B HPLCMT-WEST ZN,1875.00,375.1,375.1,0.200,4.998,0.300,0.700,AutoCalculate,NECB-ACTIVITY,No,3.8200E-008,0,338
 People Internal Gains Nominal, SP-AUDIENCE SEATING AREA PERMANENT - PERFORMING ARTS THEATRE-SPACE FUNCTION SYS-3 FLR-1 SCH-C HPLCMT-CORE ZN SPACE FUNCTION AUDIENCE SEATING AREA PERMANENT - PERFORMING ARTS THEATRE PEOPLE,NECB-C-OCCUPANCY,SP-AUDIENCE SEATING AREA PERMANENT - PERFORMING ARTS THEATRE-SPACE FUNCTION SYS-3 FLR-1 SCH-C HPLCMT-CORE ZN,2500.00,333.5,333.5,0.133,7.497,0.300,0.700,AutoCalculate,NECB-ACTIVITY,No,3.8200E-008,0,300
 People Internal Gains Nominal, SP-AUDIENCE SEATING AREA PERMANENT - RELIGIOUS BUILDING-SPACE FUNCTION SYS-3 FLR-1 SCH-I HPLCMT-SOUTH ZN SPACE FUNCTION AUDIENCE SEATING AREA PERMANENT - RELIGIOUS BUILDING PEOPLE,NECB-I-OCCUPANCY,SP-AUDIENCE SEATING AREA PERMANENT - RELIGIOUS BUILDING-SPACE FUNCTION SYS-3 FLR-1 SCH-I HPLCMT-SOUTH ZN,1875.00,375.1,375.1,0.200,4.998,0.300,0.700,AutoCalculate,NECB-ACTIVITY,No,3.8200E-008,0,300
 People Internal Gains Nominal, SP-AUDIENCE SEATING AREA PERMANENT - SPORTS ARENA-SPACE FUNCTION SYS-3 FLR-1 SCH-B HPLCMT-EAST ZN SPACE FUNCTION AUDIENCE SEATING AREA PERMANENT - SPORTS ARENA PEOPLE,NECB-B-OCCUPANCY,SP-AUDIENCE SEATING AREA PERMANENT - SPORTS ARENA-SPACE FUNCTION SYS-3 FLR-1 SCH-B HPLCMT-EAST ZN,1875.00,375.1,375.1,0.200,4.998,0.300,0.700,AutoCalculate,NECB-ACTIVITY,No,3.8200E-008,0,338
! <Lights Internal Gains Nominal>,Name,Schedule Name,Zone Name,Zone Floor Area {m2},# Zone Occupants,Lighting Level {W},Lights/Floor Area {W/m2},Lights per person {W/person},Fraction Return Air,Fraction Radiant,Fraction Short Wave,Fraction Convected,Fraction Replaceable,End-Use Category,Nominal Minimum Lighting Level {W},Nominal Maximum Lighting Level {W}
 Lights Internal Gains Nominal, SP-AUDIENCE SEATING AREA PERMANENT - OTHER-SCH-A-SPACE FUNCTION SYS-3 FLR-1 SCH-A HPLCMT-NORTH ZN SPACE FUNCTION AUDIENCE SEATING AREA PERMANENT - OTHER-SCH-A LIGHTS,NECB-A-LIGHTING,SP-AUDIENCE SEATING AREA PERMANENT - OTHER-SCH-A-SPACE FUNCTION SYS-3 FLR-1 SCH-A HPLCMT-NORTH ZN,1875.00,375.1,8628.135,4.602,23.000,0.000,0.500,0.200,0.300,1.000,General,431.407,7765.321
 Lights Internal Gains Nominal, SP-AUDIENCE SEATING AREA PERMANENT - OTHER-SCH-B-SPACE FUNCTION SYS-3 FLR-1 SCH-B HPLCMT-WEST ZN SPACE FUNCTION AUDIENCE SEATING AREA PERMANENT - OTHER-SCH-B LIGHTS,NECB-B-LIGHTING,SP-AUDIENCE SEATING AREA PERMANENT - OTHER-SCH-B-SPACE FUNCTION SYS-3 FLR-1 SCH-B HPLCMT-WEST ZN,1875.00,375.1,8628.135,4.602,23.000,0.000,0.500,0.200,0.300,1.000,General,862.813,7765.321
 Lights Internal Gains Nominal, SP-AUDIENCE SEATING AREA PERMANENT - PERFORMING ARTS THEATRE-SPACE FUNCTION SYS-3 FLR-1 SCH-C HPLCMT-CORE ZN SPACE FUNCTION AUDIENCE SEATING AREA PERMANENT - PERFORMING ARTS THEATRE LIGHTS,NECB-C-OCCUPANCY-NECB-C-LIGHTING-0.0-0.0-0.67-LIGHT RULESET,SP-AUDIENCE SEATING AREA PERMANENT - PERFORMING ARTS THEATRE-SPACE FUNCTION SYS-3 FLR-1 SCH-C HPLCMT-CORE ZN,2500.00,333.5,65523.804,26.210,196.500,0.000,0.500,0.200,0.300,1.000,General,3276.190,58971.424
 Lights Internal Gains Nominal, SP-AUDIENCE SEATING AREA PERMANENT - RELIGIOUS BUILDING-SPACE FUNCTION SYS-3 FLR-1 SCH-I HPLCMT-SOUTH ZN SPACE FUNCTION AUDIENCE SEATING AREA PERMANENT - RELIGIOUS BUILDING LIGHTS,NECB-I-OCCUPANCY-NECB-I-LIGHTING-0.3-0.0-0.67-LIGHT RULESET,SP-AUDIENCE SEATING AREA PERMANENT - RELIGIOUS BUILDING-SPACE FUNCTION SYS-3 FLR-1 SCH-I HPLCMT-SOUTH ZN,1875.00,375.1,30948.743,16.506,82.500,0.000,0.500,0.200,0.300,1.000,General,1236.402,27853.869
 Lights Internal Gains Nominal, SP-AUDIENCE SEATING AREA PERMANENT - SPORTS ARENA-SPACE FUNCTION SYS-3 FLR-1 SCH-B HPLCMT-EAST ZN SPACE FUNCTION AUDIENCE SEATING AREA PERMANENT - SPORTS ARENA LIGHTS,NECB-B-LIGHTING,SP-AUDIENCE SEATING AREA PERMANENT - SPORTS ARENA-SPACE FUNCTION SYS-3 FLR-1 SCH-B HPLCMT-EAST ZN,1875.00,375.1,8628.135,4.602,23.000,0.000,0.500,0.200,0.300,1.000,General,862.813,7765.321
! <ElectricEquipment Internal Gains Nominal>,Name,Schedule Name,Zone Name,Zone Floor Area {m2},# Zone Occupants,Equipment Level {W},Equipment/Floor Area {W/m2},Equipment per person {W/person},Fraction Latent,Fraction Radiant,Fraction Lost,Fraction Convected,End-Use SubCategory,Nominal Minimum Equipment Level {W},Nominal Maximum Equipment Level {W}
 ElectricEquipment Internal Gains Nominal, SP-AUDIENCE SEATING AREA PERMANENT - OTHER-SCH-A-SPACE FUNCTION SYS-3 FLR-1 SCH-A HPLCMT-NORTH ZN SPACE FUNCTION AUDIENCE SEATING AREA PERMANENT - OTHER-SCH-A ELEC EQUIP,NECB-A-ELECTRIC-EQUIPMENT,SP-AUDIENCE SEATING AREA PERMANENT - OTHER-SCH-A-SPACE FUNCTION SYS-3 FLR-1 SCH-A HPLCMT-NORTH ZN,1875.00,375.1,1875.681,1.000,5.000,0.000,0.500,0.000,0.500,General,375.136,1688.113
 ElectricEquipment Internal Gains Nominal, SP-AUDIENCE SEATING AREA PERMANENT - OTHER-SCH-B-SPACE FUNCTION SYS-3 FLR-1 SCH-B HPLCMT-WEST ZN SPACE FUNCTION AUDIENCE SEATING AREA PERMANENT - OTHER-SCH-B ELEC EQUIP,NECB-B-ELECTRIC-EQUIPMENT,SP-AUDIENCE SEATING AREA PERMANENT - OTHER-SCH-B-SPACE FUNCTION SYS-3 FLR-1 SCH-B HPLCMT-WEST ZN,1875.00,375.1,1875.681,1.000,5.000,0.000,0.500,0.000,0.500,General,187.568,1688.113
 ElectricEquipment Internal Gains Nominal, SP-AUDIENCE SEATING AREA PERMANENT - PERFORMING ARTS THEATRE-SPACE FUNCTION SYS-3 FLR-1 SCH-C HPLCMT-CORE ZN SPACE FUNCTION AUDIENCE SEATING AREA PERMANENT - PERFORMING ARTS THEATRE ELEC EQUIP,NECB-C-ELECTRIC-EQUIPMENT,SP-AUDIENCE SEATING AREA PERMANENT - PERFORMING ARTS THEATRE-SPACE FUNCTION SYS-3 FLR-1 SCH-C HPLCMT-CORE ZN,2500.00,333.5,6252.271,2.501,18.750,0.000,0.500,0.000,0.500,General,312.614,5627.044
 ElectricEquipment Internal Gains Nominal, SP-AUDIENCE SEATING AREA PERMANENT - RELIGIOUS BUILDING-SPACE FUNCTION SYS-3 FLR-1 SCH-I HPLCMT-SOUTH ZN SPACE FUNCTION AUDIENCE SEATING AREA PERMANENT - RELIGIOUS BUILDING ELEC EQUIP,NECB-I-ELECTRIC-EQUIPMENT,SP-AUDIENCE SEATING AREA PERMANENT - RELIGIOUS BUILDING-SPACE FUNCTION SYS-3 FLR-1 SCH-I HPLCMT-SOUTH ZN,1875.00,375.1,1875.681,1.000,5.000,0.000,0.500,0.000,0.500,General,187.568,1500.545
! <Shadowing/Sun Position Calculations Annual Simulations>, Calculation Method, Value {days}, Allowable Number Figures in Shadow Overlap {}, Polygon Clipping Algorithm, Sky Diffuse Modeling Algorithm, External Shading Calculation Method, Output External Shading Calculation Results, Disable Self-Shading Within Shading Zone Groups, Disable Self-Shading From Shading Zone Groups to Other Zones
Shadowing/Sun Position Calculations Annual Simulations,AverageOverDaysInFrequency,20,15000,SutherlandHodgman,SimpleSkyDiffuseModeling,InternalCalculation,No,No,No
! <Water Heater Information>,Type,Name,Volume {m3},Maximum Capacity {W},Standard Rated Recovery Efficiency, Standard Rated Energy Factor
! <RoomAir Model>, Zone Name, Mixing/Mundt/UCSDDV/UCSDCV/UCSDUFI/UCSDUFE/User Defined
RoomAir Model,SP-AUDIENCE SEATING AREA PERMANENT - OTHER-SCH-A-SPACE FUNCTION SYS-3 FLR-1 SCH-A HPLCMT-NORTH ZN,Mixing/Well-Stirred
RoomAir Model,SP-AUDIENCE SEATING AREA PERMANENT - OTHER-SCH-B-SPACE FUNCTION SYS-3 FLR-1 SCH-B HPLCMT-WEST ZN,Mixing/Well-Stirred
RoomAir Model,SP-AUDIENCE SEATING AREA PERMANENT - PERFORMING ARTS THEATRE-SPACE FUNCTION SYS-3 FLR-1 SCH-C HPLCMT-CORE ZN,Mixing/Well-Stirred
RoomAir Model,SP-AUDIENCE SEATING AREA PERMANENT - RELIGIOUS BUILDING-SPACE FUNCTION SYS-3 FLR-1 SCH-I HPLCMT-SOUTH ZN,Mixing/Well-Stirred
RoomAir Model,SP-AUDIENCE SEATING AREA PERMANENT - SPORTS ARENA-SPACE FUNCTION SYS-3 FLR-1 SCH-B HPLCMT-EAST ZN,Mixing/Well-Stirred
! <AirflowNetwork Model:Control>, No Multizone or Distribution/Multizone with Distribution/Multizone without Distribution/Multizone with Distribution only during Fan Operation
AirflowNetwork Model:Control,NoMultizoneOrDistribution
! <Zone Volume Capacitance Multiplier>, Sensible Heat Capacity Multiplier, Moisture Capacity Multiplier, Carbon Dioxide Capacity Multiplier, Generic Contaminant Capacity Multiplier
Zone Volume Capacitance Multiplier,   1.000 ,   1.000,   1.000,   1.000
! <Load Timesteps in Zone Design Calculation Averaging Window>, Value
 Load Timesteps in Zone Design Calculation Averaging Window,    6
! <Heating Sizing Factor Information>, Sizing Factor ID, Value
 Heating Sizing Factor Information, Global,   1.3000    
 Heating Sizing Factor Information, Zone SP-AUDIENCE SEATING AREA PERMANENT - OTHER-SCH-A-SPACE FUNCTION SYS-3 FLR-1 SCH-A HPLCMT-NORTH ZN,   1.3000    
 Heating Sizing Factor Information, Zone SP-AUDIENCE SEATING AREA PERMANENT - OTHER-SCH-B-SPACE FUNCTION SYS-3 FLR-1 SCH-B HPLCMT-WEST ZN,   1.3000    
 Heating Sizing Factor Information, Zone SP-AUDIENCE SEATING AREA PERMANENT - PERFORMING ARTS THEATRE-SPACE FUNCTION SYS-3 FLR-1 SCH-C HPLCMT-CORE ZN,   1.3000    
 Heating Sizing Factor Information, Zone SP-AUDIENCE SEATING AREA PERMANENT - RELIGIOUS BUILDING-SPACE FUNCTION SYS-3 FLR-1 SCH-I HPLCMT-SOUTH ZN,   1.3000    
 Heating Sizing Factor Information, Zone SP-AUDIENCE SEATING AREA PERMANENT - SPORTS ARENA-SPACE FUNCTION SYS-3 FLR-1 SCH-B HPLCMT-EAST ZN,   1.3000    
! <Cooling Sizing Factor Information>, Sizing Factor ID, Value
 Cooling Sizing Factor Information, Global,   1.1000    
 Cooling Sizing Factor Information, Zone SP-AUDIENCE SEATING AREA PERMANENT - OTHER-SCH-A-SPACE FUNCTION SYS-3 FLR-1 SCH-A HPLCMT-NORTH ZN,   1.1000    
 Cooling Sizing Factor Information, Zone SP-AUDIENCE SEATING AREA PERMANENT - OTHER-SCH-B-SPACE FUNCTION SYS-3 FLR-1 SCH-B HPLCMT-WEST ZN,   1.1000    
 Cooling Sizing Factor Information, Zone SP-AUDIENCE SEATING AREA PERMANENT - PERFORMING ARTS THEATRE-SPACE FUNCTION SYS-3 FLR-1 SCH-C HPLCMT-CORE ZN,   1.1000    
 Cooling Sizing Factor Information, Zone SP-AUDIENCE SEATING AREA PERMANENT - RELIGIOUS BUILDING-SPACE FUNCTION SYS-3 FLR-1 SCH-I HPLCMT-SOUTH ZN,   1.1000    
 Cooling Sizing Factor Information, Zone SP-AUDIENCE SEATING AREA PERMANENT - SPORTS ARENA-SPACE FUNCTION SYS-3 FLR-1 SCH-B HPLCMT-EAST ZN,   1.1000    
! <Zone Sizing Information>, Zone Name, Load Type, Calc Des Load {W}, User Des Load {W}, Calc Des Air Flow Rate {m3/s}, User Des Air Flow Rate {m3/s}, Design Day Name, Date/Time of Peak, Temperature at Peak {C}, Humidity Ratio at Peak {kgWater/kgDryAir}, Floor Area {m2}, # Occupants, Calc Outdoor Air Flow Rate {m3/s}, Calc DOAS Heat Addition Rate {W}
 Zone Sizing Information, SP-AUDIENCE SEATING AREA PERMANENT - OTHER-SCH-A-SPACE FUNCTION SYS-3 FLR-1 SCH-A HPLCMT-NORTH ZN, Cooling, 27610.59846, 30371.65831, 2.13477, 7.14375, FORT MCMURRAY AP ANN CLG .4% CONDNS DB=>MWB, 7/21 15:30:00, 28.52800, 8.76969E-003, 1875.00000, 375.13628, 7.14375, 0.00000
 Zone Sizing Information, SP-AUDIENCE SEATING AREA PERMANENT - OTHER-SCH-A-SPACE FUNCTION SYS-3 FLR-1 SCH-A HPLCMT-NORTH ZN, Heating, 5841.29939, 7593.68920, 0.22202, 7.14375, FORT MCMURRAY AP ANN HTG 99.6% CONDNS DB, 1/21 07:10:00, -36.20000, 1.25811E-004, 1875.00000, 375.13628, 7.14375, 0.00000
 Zone Sizing Information, SP-AUDIENCE SEATING AREA PERMANENT - OTHER-SCH-B-SPACE FUNCTION SYS-3 FLR-1 SCH-B HPLCMT-WEST ZN, Cooling, 27519.50148, 30271.45163, 2.12764, 7.14375, FORT MCMURRAY AP ANN CLG .4% CONDNS DB=>MWB, 7/21 20:10:00, 22.51400, 8.76969E-003, 1875.00000, 375.13628, 7.14375, 0.00000
 Zone Sizing Information, SP-AUDIENCE SEATING AREA PERMANENT - OTHER-SCH-B-SPACE FUNCTION SYS-3 FLR-1 SCH-B HPLCMT-WEST ZN, Heating, 5088.05164, 6614.46713, 0.19479, 7.14375, FORT MCMURRAY AP ANN HTG 99.6% CONDNS DB, 1/21 09:10:00, -36.20000, 1.25811E-004, 1875.00000, 375.13628, 7.14375, 0.00000
 Zone Sizing Information, SP-AUDIENCE SEATING AREA PERMANENT - PERFORMING ARTS THEATRE-SPACE FUNCTION SYS-3 FLR-1 SCH-C HPLCMT-CORE ZN, Cooling, 65500.16622, 72050.18284, 5.06327, 10.28700, FORT MCMURRAY AP ANN CLG .4% CONDNS DB=>MWB, 7/21 17:00:00, 27.16400, 8.76969E-003, 2500.00000, 333.45447, 10.28700, 0.00000
 Zone Sizing Information, SP-AUDIENCE SEATING AREA PERMANENT - PERFORMING ARTS THEATRE-SPACE FUNCTION SYS-3 FLR-1 SCH-C HPLCMT-CORE ZN, Heating, 3062.43066, 3981.15985, 0.11995, 10.28700, FORT MCMURRAY AP ANN HTG 99.6% CONDNS DB, 1/21 08:10:00, -36.20000, 1.25811E-004, 2500.00000, 333.45447, 10.28700, 0.00000
 Zone Sizing Information, SP-AUDIENCE SEATING AREA PERMANENT - RELIGIOUS BUILDING-SPACE FUNCTION SYS-3 FLR-1 SCH-I HPLCMT-SOUTH ZN, Cooling, 40975.89044, 45073.47948, 3.16788, 6.28650, FORT MCMURRAY AP ANN CLG .4% CONDNS DB=>MWB, 7/21 20:40:00, 21.95600, 8.76969E-003, 1875.00000, 375.13628, 6.28650, 0.00000
 Zone Sizing Information, SP-AUDIENCE SEATING AREA PERMANENT - RELIGIOUS BUILDING-SPACE FUNCTION SYS-3 FLR-1 SCH-I HPLCMT-SOUTH ZN, Heating, 0.00000, 0.00000, 0.00000, 6.28650, FORT MCMURRAY AP ANN HTG 99.6% CONDNS DB, , -36.20000, 1.25811E-004, 1875.00000, 375.13628, 6.28650, 0.00000
 Zone Sizing Information, SP-AUDIENCE SEATING AREA PERMANENT - SPORTS ARENA-SPACE FUNCTION SYS-3 FLR-1 SCH-B HPLCMT-EAST ZN, Cooling, 26078.97976, 28686.87774, 2.01629, 11.28713, FORT MCMURRAY AP ANN CLG .4% CONDNS DB=>MWB, 7/21 20:10:00, 22.51400, 8.76969E-003, 1875.00000, 375.13628, 11.28713, 0.00000
 Zone Sizing Information, SP-AUDIENCE SEATING AREA PERMANENT - SPORTS ARENA-SPACE FUNCTION SYS-3 FLR-1 SCH-B HPLCMT-EAST ZN, Heating, 5466.05198, 7105.86758, 0.20846, 11.28713, FORT MCMURRAY AP ANN HTG 99.6% CONDNS DB, 1/21 09:10:00, -36.20000, 1.25811E-004, 1875.00000, 375.13628, 11.28713, 0.00000
! <System Sizing Information>, System Name, Load Type, Peak Load Kind, User Design Capacity, Calc Des Air Flow Rate [m3/s], User Des Air Flow Rate [m3/s], Design Day Name, Date/Time of Peak
 System Sizing Information, SYS_3_PSZ SP-AUDIENCE SEATING AREA PERMANENT - OTHER-SCH-A-SPACE FUNCTION SYS-3 FLR-1 SCH-A HPLCMT-NORTH ZN, Cooling, Sensible, 128469.46, 7.14375, 7.14375, FORT MCMURRAY AP ANN CLG .4% CONDNS DB=>MWB, 7/21 05:00:00
 System Sizing Information, SYS_3_PSZ SP-AUDIENCE SEATING AREA PERMANENT - OTHER-SCH-A-SPACE FUNCTION SYS-3 FLR-1 SCH-A HPLCMT-NORTH ZN, Heating, Sensible, 655253.80, 7.14375, 7.14375, FORT MCMURRAY AP ANN HTG 99.6% CONDNS DB, 1/21 00:10:00
 System Sizing Information, SYS_3_PSZ SP-AUDIENCE SEATING AREA PERMANENT - OTHER-SCH-B-SPACE FUNCTION SYS-3 FLR-1 SCH-B HPLCMT-WEST ZN, Cooling, Sensible, 78713.19, 7.14375, 7.14375, FORT MCMURRAY AP ANN CLG .4% CONDNS DB=>MWB, 7/21 05:00:00
 System Sizing Information, SYS_3_PSZ SP-AUDIENCE SEATING AREA PERMANENT - OTHER-SCH-B-SPACE FUNCTION SYS-3 FLR-1 SCH-B HPLCMT-WEST ZN, Heating, Sensible, 655253.80, 7.14375, 7.14375, FORT MCMURRAY AP ANN HTG 99.6% CONDNS DB, 1/21 00:10:00
 System Sizing Information, SYS_3_PSZ SP-AUDIENCE SEATING AREA PERMANENT - PERFORMING ARTS THEATRE-SPACE FUNCTION SYS-3 FLR-1 SCH-C HPLCMT-CORE ZN, Cooling, Sensible, 168745.72, 10.28700, 10.28700, FORT MCMURRAY AP ANN CLG .4% CONDNS DB=>MWB, 7/21 05:00:00
 System Sizing Information, SYS_3_PSZ SP-AUDIENCE SEATING AREA PERMANENT - PERFORMING ARTS THEATRE-SPACE FUNCTION SYS-3 FLR-1 SCH-C HPLCMT-CORE ZN, Heating, Sensible, 943565.47, 10.28700, 10.28700, FORT MCMURRAY AP ANN HTG 99.6% CONDNS DB, 1/21 00:10:00
 System Sizing Information, SYS_3_PSZ SP-AUDIENCE SEATING AREA PERMANENT - RELIGIOUS BUILDING-SPACE FUNCTION SYS-3 FLR-1 SCH-I HPLCMT-SOUTH ZN, Cooling, Sensible, 65205.03, 6.28650, 6.28650, FORT MCMURRAY AP ANN CLG .4% CONDNS DB=>MWB, 7/21 05:00:00
 System Sizing Information, SYS_3_PSZ SP-AUDIENCE SEATING AREA PERMANENT - RELIGIOUS BUILDING-SPACE FUNCTION SYS-3 FLR-1 SCH-I HPLCMT-SOUTH ZN, Heating, Sensible, 576623.34, 6.28650, 6.28650, FORT MCMURRAY AP ANN HTG 99.6% CONDNS DB, 1/21 00:10:00
 System Sizing Information, SYS_3_PSZ SP-AUDIENCE SEATING AREA PERMANENT - SPORTS ARENA-SPACE FUNCTION SYS-3 FLR-1 SCH-B HPLCMT-EAST ZN, Cooling, Sensible, 124366.84, 11.28713, 11.28713, FORT MCMURRAY AP ANN CLG .4% CONDNS DB=>MWB, 7/21 05:00:00
 System Sizing Information, SYS_3_PSZ SP-AUDIENCE SEATING AREA PERMANENT - SPORTS ARENA-SPACE FUNCTION SYS-3 FLR-1 SCH-B HPLCMT-EAST ZN, Heating, Sensible, 1035301.00, 11.28713, 11.28713, FORT MCMURRAY AP ANN HTG 99.6% CONDNS DB, 1/21 00:10:00
! <Component Sizing Information>, Component Type, Component Name, Input Field Description, Value
 Component Sizing Information, AirTerminal:SingleDuct:Uncontrolled, AIR TERMINAL SINGLE DUCT UNCONTROLLED 1, Design Size Maximum Air Flow Rate [m3/s], 7.14375
 Component Sizing Information, ZoneHVAC:Baseboard:Convective:Water, ZONE HVAC BASEBOARD CONVECTIVE WATER 1, Design Size Maximum Water Flow Rate [m3/s], 1.13418E-004
 Component Sizing Information, ZoneHVAC:Baseboard:Convective:Water, ZONE HVAC BASEBOARD CONVECTIVE WATER 1, Design Size U-Factor Times Area Value [W/K], 150.29728
 Component Sizing Information, AirTerminal:SingleDuct:Uncontrolled, AIR TERMINAL SINGLE DUCT UNCONTROLLED 3, Design Size Maximum Air Flow Rate [m3/s], 7.14375
 Component Sizing Information, ZoneHVAC:Baseboard:Convective:Water, ZONE HVAC BASEBOARD CONVECTIVE WATER 3, Design Size Maximum Water Flow Rate [m3/s], 9.87924E-005
 Component Sizing Information, ZoneHVAC:Baseboard:Convective:Water, ZONE HVAC BASEBOARD CONVECTIVE WATER 3, Design Size U-Factor Times Area Value [W/K], 131.01982
 Component Sizing Information, AirTerminal:SingleDuct:Uncontrolled, AIR TERMINAL SINGLE DUCT UNCONTROLLED 4, Design Size Maximum Air Flow Rate [m3/s], 10.28700
 Component Sizing Information, ZoneHVAC:Baseboard:Convective:Water, ZONE HVAC BASEBOARD CONVECTIVE WATER 4, Design Size Maximum Water Flow Rate [m3/s], 5.94619E-005
 Component Sizing Information, ZoneHVAC:Baseboard:Convective:Water, ZONE HVAC BASEBOARD CONVECTIVE WATER 4, Design Size U-Factor Times Area Value [W/K], 83.66036
 Component Sizing Information, AirTerminal:SingleDuct:Uncontrolled, AIR TERMINAL SINGLE DUCT UNCONTROLLED 5, Design Size Maximum Air Flow Rate [m3/s], 6.28650
 Component Sizing Information, ZoneHVAC:Baseboard:Convective:Water, ZONE HVAC BASEBOARD CONVECTIVE WATER 5, Design Size Maximum Water Flow Rate [m3/s], 0.00000
 Component Sizing Information, ZoneHVAC:Baseboard:Convective:Water, ZONE HVAC BASEBOARD CONVECTIVE WATER 5, Design Size U-Factor Times Area Value [W/K], 0.00000
 Component Sizing Information, AirTerminal:SingleDuct:Uncontrolled, AIR TERMINAL SINGLE DUCT UNCONTROLLED 2, Design Size Maximum Air Flow Rate [m3/s], 11.28713
 Component Sizing Information, ZoneHVAC:Baseboard:Convective:Water, ZONE HVAC BASEBOARD CONVECTIVE WATER 2, Design Size Maximum Water Flow Rate [m3/s], 1.06132E-004
 Component Sizing Information, ZoneHVAC:Baseboard:Convective:Water, ZONE HVAC BASEBOARD CONVECTIVE WATER 2, Design Size U-Factor Times Area Value [W/K], 140.69844
 Component Sizing Information, AirLoopHVAC, SYS_3_PSZ SP-AUDIENCE SEATING AREA PERMANENT - OTHER-SCH-A-SPACE FUNCTION SYS-3 FLR-1 SCH-A HPLCMT-NORTH ZN, Sum of Air Terminal Maximum Heating Flow Rates [m3/s], 7.14375
 Component Sizing Information, AirLoopHVAC, SYS_3_PSZ SP-AUDIENCE SEATING AREA PERMANENT - OTHER-SCH-A-SPACE FUNCTION SYS-3 FLR-1 SCH-A HPLCMT-NORTH ZN, Sum of Air Terminal Minimum Heating Flow Rates [m3/s], 7.14375
 Component Sizing Information, AirLoopHVAC, SYS_3_PSZ SP-AUDIENCE SEATING AREA PERMANENT - OTHER-SCH-A-SPACE FUNCTION SYS-3 FLR-1 SCH-A HPLCMT-NORTH ZN, Sum of Air Terminal Maximum Flow Rates [m3/s], 7.14375
 Component Sizing Information, AirLoopHVAC, SYS_3_PSZ SP-AUDIENCE SEATING AREA PERMANENT - OTHER-SCH-A-SPACE FUNCTION SYS-3 FLR-1 SCH-A HPLCMT-NORTH ZN, Adjusted Heating Design Air Flow Rate [m3/s], 7.14375
 Component Sizing Information, AirLoopHVAC, SYS_3_PSZ SP-AUDIENCE SEATING AREA PERMANENT - OTHER-SCH-A-SPACE FUNCTION SYS-3 FLR-1 SCH-A HPLCMT-NORTH ZN, Adjusted Cooling Design Air Flow Rate [m3/s], 7.14375
 Component Sizing Information, AirLoopHVAC, SYS_3_PSZ SP-AUDIENCE SEATING AREA PERMANENT - OTHER-SCH-A-SPACE FUNCTION SYS-3 FLR-1 SCH-A HPLCMT-NORTH ZN, Adjusted Main Design Air Flow Rate [m3/s], 7.14375
 Component Sizing Information, AirLoopHVAC, SYS_3_PSZ SP-AUDIENCE SEATING AREA PERMANENT - OTHER-SCH-A-SPACE FUNCTION SYS-3 FLR-1 SCH-A HPLCMT-NORTH ZN, User Heating Air Flow Ratio [], 1.00000
 Component Sizing Information, AirLoopHVAC, SYS_3_PSZ SP-AUDIENCE SEATING AREA PERMANENT - OTHER-SCH-A-SPACE FUNCTION SYS-3 FLR-1 SCH-A HPLCMT-NORTH ZN, Calculated Heating Air Flow Ratio [], 1.00000
 Component Sizing Information, AirLoopHVAC, SYS_3_PSZ SP-AUDIENCE SEATING AREA PERMANENT - OTHER-SCH-B-SPACE FUNCTION SYS-3 FLR-1 SCH-B HPLCMT-WEST ZN, Sum of Air Terminal Maximum Heating Flow Rates [m3/s], 7.14375
 Component Sizing Information, AirLoopHVAC, SYS_3_PSZ SP-AUDIENCE SEATING AREA PERMANENT - OTHER-SCH-B-SPACE FUNCTION SYS-3 FLR-1 SCH-B HPLCMT-WEST ZN, Sum of Air Terminal Minimum Heating Flow Rates [m3/s], 7.14375
 Component Sizing Information, AirLoopHVAC, SYS_3_PSZ SP-AUDIENCE SEATING AREA PERMANENT - OTHER-SCH-B-SPACE FUNCTION SYS-3 FLR-1 SCH-B HPLCMT-WEST ZN, Sum of Air Terminal Maximum Flow Rates [m3/s], 7.14375
 Component Sizing Information, AirLoopHVAC, SYS_3_PSZ SP-AUDIENCE SEATING AREA PERMANENT - OTHER-SCH-B-SPACE FUNCTION SYS-3 FLR-1 SCH-B HPLCMT-WEST ZN, Adjusted Heating Design Air Flow Rate [m3/s], 7.14375
 Component Sizing Information, AirLoopHVAC, SYS_3_PSZ SP-AUDIENCE SEATING AREA PERMANENT - OTHER-SCH-B-SPACE FUNCTION SYS-3 FLR-1 SCH-B HPLCMT-WEST ZN, Adjusted Cooling Design Air Flow Rate [m3/s], 7.14375
 Component Sizing Information, AirLoopHVAC, SYS_3_PSZ SP-AUDIENCE SEATING AREA PERMANENT - OTHER-SCH-B-SPACE FUNCTION SYS-3 FLR-1 SCH-B HPLCMT-WEST ZN, Adjusted Main Design Air Flow Rate [m3/s], 7.14375
 Component Sizing Information, AirLoopHVAC, SYS_3_PSZ SP-AUDIENCE SEATING AREA PERMANENT - OTHER-SCH-B-SPACE FUNCTION SYS-3 FLR-1 SCH-B HPLCMT-WEST ZN, User Heating Air Flow Ratio [], 1.00000
 Component Sizing Information, AirLoopHVAC, SYS_3_PSZ SP-AUDIENCE SEATING AREA PERMANENT - OTHER-SCH-B-SPACE FUNCTION SYS-3 FLR-1 SCH-B HPLCMT-WEST ZN, Calculated Heating Air Flow Ratio [], 1.00000
 Component Sizing Information, AirLoopHVAC, SYS_3_PSZ SP-AUDIENCE SEATING AREA PERMANENT - PERFORMING ARTS THEATRE-SPACE FUNCTION SYS-3 FLR-1 SCH-C HPLCMT-CORE ZN, Sum of Air Terminal Maximum Heating Flow Rates [m3/s], 10.28700
 Component Sizing Information, AirLoopHVAC, SYS_3_PSZ SP-AUDIENCE SEATING AREA PERMANENT - PERFORMING ARTS THEATRE-SPACE FUNCTION SYS-3 FLR-1 SCH-C HPLCMT-CORE ZN, Sum of Air Terminal Minimum Heating Flow Rates [m3/s], 10.28700
 Component Sizing Information, AirLoopHVAC, SYS_3_PSZ SP-AUDIENCE SEATING AREA PERMANENT - PERFORMING ARTS THEATRE-SPACE FUNCTION SYS-3 FLR-1 SCH-C HPLCMT-CORE ZN, Sum of Air Terminal Maximum Flow Rates [m3/s], 10.28700
 Component Sizing Information, AirLoopHVAC, SYS_3_PSZ SP-AUDIENCE SEATING AREA PERMANENT - PERFORMING ARTS THEATRE-SPACE FUNCTION SYS-3 FLR-1 SCH-C HPLCMT-CORE ZN, Adjusted Heating Design Air Flow Rate [m3/s], 10.28700
 Component Sizing Information, AirLoopHVAC, SYS_3_PSZ SP-AUDIENCE SEATING AREA PERMANENT - PERFORMING ARTS THEATRE-SPACE FUNCTION SYS-3 FLR-1 SCH-C HPLCMT-CORE ZN, Adjusted Cooling Design Air Flow Rate [m3/s], 10.28700
 Component Sizing Information, AirLoopHVAC, SYS_3_PSZ SP-AUDIENCE SEATING AREA PERMANENT - PERFORMING ARTS THEATRE-SPACE FUNCTION SYS-3 FLR-1 SCH-C HPLCMT-CORE ZN, Adjusted Main Design Air Flow Rate [m3/s], 10.28700
 Component Sizing Information, AirLoopHVAC, SYS_3_PSZ SP-AUDIENCE SEATING AREA PERMANENT - PERFORMING ARTS THEATRE-SPACE FUNCTION SYS-3 FLR-1 SCH-C HPLCMT-CORE ZN, User Heating Air Flow Ratio [], 1.00000
 Component Sizing Information, AirLoopHVAC, SYS_3_PSZ SP-AUDIENCE SEATING AREA PERMANENT - PERFORMING ARTS THEATRE-SPACE FUNCTION SYS-3 FLR-1 SCH-C HPLCMT-CORE ZN, Calculated Heating Air Flow Ratio [], 1.00000
 Component Sizing Information, AirLoopHVAC, SYS_3_PSZ SP-AUDIENCE SEATING AREA PERMANENT - RELIGIOUS BUILDING-SPACE FUNCTION SYS-3 FLR-1 SCH-I HPLCMT-SOUTH ZN, Sum of Air Terminal Maximum Heating Flow Rates [m3/s], 6.28650
 Component Sizing Information, AirLoopHVAC, SYS_3_PSZ SP-AUDIENCE SEATING AREA PERMANENT - RELIGIOUS BUILDING-SPACE FUNCTION SYS-3 FLR-1 SCH-I HPLCMT-SOUTH ZN, Sum of Air Terminal Minimum Heating Flow Rates [m3/s], 6.28650
 Component Sizing Information, AirLoopHVAC, SYS_3_PSZ SP-AUDIENCE SEATING AREA PERMANENT - RELIGIOUS BUILDING-SPACE FUNCTION SYS-3 FLR-1 SCH-I HPLCMT-SOUTH ZN, Sum of Air Terminal Maximum Flow Rates [m3/s], 6.28650
 Component Sizing Information, AirLoopHVAC, SYS_3_PSZ SP-AUDIENCE SEATING AREA PERMANENT - RELIGIOUS BUILDING-SPACE FUNCTION SYS-3 FLR-1 SCH-I HPLCMT-SOUTH ZN, Adjusted Heating Design Air Flow Rate [m3/s], 6.28650
 Component Sizing Information, AirLoopHVAC, SYS_3_PSZ SP-AUDIENCE SEATING AREA PERMANENT - RELIGIOUS BUILDING-SPACE FUNCTION SYS-3 FLR-1 SCH-I HPLCMT-SOUTH ZN, Adjusted Cooling Design Air Flow Rate [m3/s], 6.28650
 Component Sizing Information, AirLoopHVAC, SYS_3_PSZ SP-AUDIENCE SEATING AREA PERMANENT - RELIGIOUS BUILDING-SPACE FUNCTION SYS-3 FLR-1 SCH-I HPLCMT-SOUTH ZN, Adjusted Main Design Air Flow Rate [m3/s], 6.28650
 Component Sizing Information, AirLoopHVAC, SYS_3_PSZ SP-AUDIENCE SEATING AREA PERMANENT - RELIGIOUS BUILDING-SPACE FUNCTION SYS-3 FLR-1 SCH-I HPLCMT-SOUTH ZN, User Heating Air Flow Ratio [], 1.00000
 Component Sizing Information, AirLoopHVAC, SYS_3_PSZ SP-AUDIENCE SEATING AREA PERMANENT - RELIGIOUS BUILDING-SPACE FUNCTION SYS-3 FLR-1 SCH-I HPLCMT-SOUTH ZN, Calculated Heating Air Flow Ratio [], 1.00000
 Component Sizing Information, AirLoopHVAC, SYS_3_PSZ SP-AUDIENCE SEATING AREA PERMANENT - SPORTS ARENA-SPACE FUNCTION SYS-3 FLR-1 SCH-B HPLCMT-EAST ZN, Sum of Air Terminal Maximum Heating Flow Rates [m3/s], 11.28713
 Component Sizing Information, AirLoopHVAC, SYS_3_PSZ SP-AUDIENCE SEATING AREA PERMANENT - SPORTS ARENA-SPACE FUNCTION SYS-3 FLR-1 SCH-B HPLCMT-EAST ZN, Sum of Air Terminal Minimum Heating Flow Rates [m3/s], 11.28713
 Component Sizing Information, AirLoopHVAC, SYS_3_PSZ SP-AUDIENCE SEATING AREA PERMANENT - SPORTS ARENA-SPACE FUNCTION SYS-3 FLR-1 SCH-B HPLCMT-EAST ZN, Sum of Air Terminal Maximum Flow Rates [m3/s], 11.28713
 Component Sizing Information, AirLoopHVAC, SYS_3_PSZ SP-AUDIENCE SEATING AREA PERMANENT - SPORTS ARENA-SPACE FUNCTION SYS-3 FLR-1 SCH-B HPLCMT-EAST ZN, Adjusted Heating Design Air Flow Rate [m3/s], 11.28713
 Component Sizing Information, AirLoopHVAC, SYS_3_PSZ SP-AUDIENCE SEATING AREA PERMANENT - SPORTS ARENA-SPACE FUNCTION SYS-3 FLR-1 SCH-B HPLCMT-EAST ZN, Adjusted Cooling Design Air Flow Rate [m3/s], 11.28713
 Component Sizing Information, AirLoopHVAC, SYS_3_PSZ SP-AUDIENCE SEATING AREA PERMANENT - SPORTS ARENA-SPACE FUNCTION SYS-3 FLR-1 SCH-B HPLCMT-EAST ZN, Adjusted Main Design Air Flow Rate [m3/s], 11.28713
 Component Sizing Information, AirLoopHVAC, SYS_3_PSZ SP-AUDIENCE SEATING AREA PERMANENT - SPORTS ARENA-SPACE FUNCTION SYS-3 FLR-1 SCH-B HPLCMT-EAST ZN, User Heating Air Flow Ratio [], 1.00000
 Component Sizing Information, AirLoopHVAC, SYS_3_PSZ SP-AUDIENCE SEATING AREA PERMANENT - SPORTS ARENA-SPACE FUNCTION SYS-3 FLR-1 SCH-B HPLCMT-EAST ZN, Calculated Heating Air Flow Ratio [], 1.00000
 Component Sizing Information, AirLoopHVAC, SYS_3_PSZ SP-AUDIENCE SEATING AREA PERMANENT - OTHER-SCH-A-SPACE FUNCTION SYS-3 FLR-1 SCH-A HPLCMT-NORTH ZN, Design Supply Air Flow Rate [m3/s], 7.14375
 Component Sizing Information, AirLoopHVAC, SYS_3_PSZ SP-AUDIENCE SEATING AREA PERMANENT - OTHER-SCH-B-SPACE FUNCTION SYS-3 FLR-1 SCH-B HPLCMT-WEST ZN, Design Supply Air Flow Rate [m3/s], 7.14375
 Component Sizing Information, AirLoopHVAC, SYS_3_PSZ SP-AUDIENCE SEATING AREA PERMANENT - PERFORMING ARTS THEATRE-SPACE FUNCTION SYS-3 FLR-1 SCH-C HPLCMT-CORE ZN, Design Supply Air Flow Rate [m3/s], 10.28700
 Component Sizing Information, AirLoopHVAC, SYS_3_PSZ SP-AUDIENCE SEATING AREA PERMANENT - RELIGIOUS BUILDING-SPACE FUNCTION SYS-3 FLR-1 SCH-I HPLCMT-SOUTH ZN, Design Supply Air Flow Rate [m3/s], 6.28650
 Component Sizing Information, AirLoopHVAC, SYS_3_PSZ SP-AUDIENCE SEATING AREA PERMANENT - SPORTS ARENA-SPACE FUNCTION SYS-3 FLR-1 SCH-B HPLCMT-EAST ZN, Design Supply Air Flow Rate [m3/s], 11.28713
!<Controller:MechanicalVentilation>,Name,Availability Schedule Name,Demand Controlled Ventilation {Yes/No},System Outdoor Air Method,Zone Maximum Outdoor Air Fraction,Number of Zones,Zone Name,DSOA Name,DSZAD Name
 Controller:MechanicalVentilation,CONTROLLER MECHANICAL VENTILATION 1,SYS_3_PSZ SP-AUDIENCE SEATING AREA PERMANENT - OTHER-SCH-A-SPACE FUNCTION SYS-3 FLR-1 SCH-A HPLCMT-NORTH ZN OCC SCH,No,ZoneSum,1.00,1,SP-AUDIENCE SEATING AREA PERMANENT - OTHER-SCH-A-SPACE FUNCTION SYS-3 FLR-1 SCH-A HPLCMT-NORTH ZN,SPACE FUNCTION AUDIENCE SEATING AREA PERMANENT - OTHER-SCH-A VENTILATION,SP-AUDIENCE SEATING AREA PERMANENT - OTHER-SCH-A-SPACE FUNCTION SYS-3 FLR-1 SCH-A HPLCMT-NORTH ZN DESIGN SPEC ZONE AIR DIST
 Controller:MechanicalVentilation,CONTROLLER MECHANICAL VENTILATION 3,SYS_3_PSZ SP-AUDIENCE SEATING AREA PERMANENT - OTHER-SCH-B-SPACE FUNCTION SYS-3 FLR-1 SCH-B HPLCMT-WEST ZN OCC SCH,No,ZoneSum,1.00,1,SP-AUDIENCE SEATING AREA PERMANENT - OTHER-SCH-B-SPACE FUNCTION SYS-3 FLR-1 SCH-B HPLCMT-WEST ZN,SPACE FUNCTION AUDIENCE SEATING AREA PERMANENT - OTHER-SCH-B VENTILATION,SP-AUDIENCE SEATING AREA PERMANENT - OTHER-SCH-B-SPACE FUNCTION SYS-3 FLR-1 SCH-B HPLCMT-WEST ZN DESIGN SPEC ZONE AIR DIST
 Controller:MechanicalVentilation,CONTROLLER MECHANICAL VENTILATION 4,SYS_3_PSZ SP-AUDIENCE SEATING AREA PERMANENT - PERFORMING ARTS THEATRE-SPACE FUNCTION SYS-3 FLR-1 SCH-C HPLCMT-CORE ZN OCC SCH,No,ZoneSum,1.00,1,SP-AUDIENCE SEATING AREA PERMANENT - PERFORMING ARTS THEATRE-SPACE FUNCTION SYS-3 FLR-1 SCH-C HPLCMT-CORE ZN,SPACE FUNCTION AUDIENCE SEATING AREA PERMANENT - PERFORMING ARTS THEATRE VENTILATION,SP-AUDIENCE SEATING AREA PERMANENT - PERFORMING ARTS THEATRE-SPACE FUNCTION SYS-3 FLR-1 SCH-C HPLCMT-CORE ZN DESIGN SPEC ZONE AIR DIST
 Controller:MechanicalVentilation,CONTROLLER MECHANICAL VENTILATION 5,SYS_3_PSZ SP-AUDIENCE SEATING AREA PERMANENT - RELIGIOUS BUILDING-SPACE FUNCTION SYS-3 FLR-1 SCH-I HPLCMT-SOUTH ZN OCC SCH,No,ZoneSum,1.00,1,SP-AUDIENCE SEATING AREA PERMANENT - RELIGIOUS BUILDING-SPACE FUNCTION SYS-3 FLR-1 SCH-I HPLCMT-SOUTH ZN,SPACE FUNCTION AUDIENCE SEATING AREA PERMANENT - RELIGIOUS BUILDING VENTILATION,SP-AUDIENCE SEATING AREA PERMANENT - RELIGIOUS BUILDING-SPACE FUNCTION SYS-3 FLR-1 SCH-I HPLCMT-SOUTH ZN DESIGN SPEC ZONE AIR DIST
 Controller:MechanicalVentilation,CONTROLLER MECHANICAL VENTILATION 2,SYS_3_PSZ SP-AUDIENCE SEATING AREA PERMANENT - SPORTS ARENA-SPACE FUNCTION SYS-3 FLR-1 SCH-B HPLCMT-EAST ZN OCC SCH,No,ZoneSum,1.00,1,SP-AUDIENCE SEATING AREA PERMANENT - SPORTS ARENA-SPACE FUNCTION SYS-3 FLR-1 SCH-B HPLCMT-EAST ZN,SPACE FUNCTION AUDIENCE SEATING AREA PERMANENT - SPORTS ARENA VENTILATION,SP-AUDIENCE SEATING AREA PERMANENT - SPORTS ARENA-SPACE FUNCTION SYS-3 FLR-1 SCH-B HPLCMT-EAST ZN DESIGN SPEC ZONE AIR DIST
 Component Sizing Information, Controller:OutdoorAir, CONTROLLER OUTDOOR AIR 1, Maximum Outdoor Air Flow Rate [m3/s], 7.14375
 Component Sizing Information, Controller:OutdoorAir, CONTROLLER OUTDOOR AIR 1, Minimum Outdoor Air Flow Rate [m3/s], 7.14375
 Component Sizing Information, HeatExchanger:AirToAir:SensibleAndLatent, SYS_3_PSZ SP-AUDIENCE SEATING AREA PERMANENT - OTHER-SCH-A-SPACE FUNCTION SYS-3 FLR-1 SCH-A HPLCMT-NORTH ZN ERV, Design Size Nominal Supply Air Flow Rate [m3/s], 7.14375
 Component Sizing Information, Coil:Cooling:DX:SingleSpeed, COIL COOLING DX SINGLE SPEED 1 450KBTU/HR 8.21EER, Design Size Rated Air Flow Rate [m3/s], 7.14375
 Component Sizing Information, Coil:Cooling:DX:SingleSpeed, COIL COOLING DX SINGLE SPEED 1 450KBTU/HR 8.21EER, Design Size Gross Rated Total Cooling Capacity [W], 140848.22120
 Component Sizing Information, Coil:Cooling:DX:SingleSpeed, COIL COOLING DX SINGLE SPEED 1 450KBTU/HR 8.21EER, Design Size Gross Rated Sensible Heat Ratio, 0.77768
! <DX Cooling Coil Standard Rating Information>, Component Type, Component Name, Standard Rating (Net) Cooling Capacity {W}, Standard Rated Net COP {W/W}, EER {Btu/W-h}, SEER {Btu/W-h}, IEER {Btu/W-h}
 DX Cooling Coil Standard Rating Information, Coil:Cooling:DX:SingleSpeed, COIL COOLING DX SINGLE SPEED 1 450KBTU/HR 8.21EER, 135289.8, 2.63, 8.97, 9.48, 9.15
 Component Sizing Information, Coil:Heating:Fuel, COIL HEATING GAS 1, Design Size Nominal Capacity [W], 655253.79960
 Component Sizing Information, Fan:ConstantVolume, FAN CONSTANT VOLUME 1, Design Size Maximum Flow Rate [m3/s], 7.14375
 Component Sizing Information, Controller:OutdoorAir, CONTROLLER OUTDOOR AIR 3, Maximum Outdoor Air Flow Rate [m3/s], 7.14375
 Component Sizing Information, Controller:OutdoorAir, CONTROLLER OUTDOOR AIR 3, Minimum Outdoor Air Flow Rate [m3/s], 7.14375
 Component Sizing Information, HeatExchanger:AirToAir:SensibleAndLatent, SYS_3_PSZ SP-AUDIENCE SEATING AREA PERMANENT - OTHER-SCH-B-SPACE FUNCTION SYS-3 FLR-1 SCH-B HPLCMT-WEST ZN ERV, Design Size Nominal Supply Air Flow Rate [m3/s], 7.14375
 Component Sizing Information, Coil:Cooling:DX:SingleSpeed, COIL COOLING DX SINGLE SPEED 3 404KBTU/HR 8.21EER, Design Size Rated Air Flow Rate [m3/s], 7.14375
 Component Sizing Information, Coil:Cooling:DX:SingleSpeed, COIL COOLING DX SINGLE SPEED 3 404KBTU/HR 8.21EER, Design Size Gross Rated Total Cooling Capacity [W], 118254.42807
 Component Sizing Information, Coil:Cooling:DX:SingleSpeed, COIL COOLING DX SINGLE SPEED 3 404KBTU/HR 8.21EER, Design Size Gross Rated Sensible Heat Ratio, 0.80066
 DX Cooling Coil Standard Rating Information, Coil:Cooling:DX:SingleSpeed, COIL COOLING DX SINGLE SPEED 3 404KBTU/HR 8.21EER, 112701.5, 2.53, 8.64, 9.13, 8.70
 Component Sizing Information, Coil:Heating:Fuel, COIL HEATING GAS 3, Design Size Nominal Capacity [W], 655253.79960
 Component Sizing Information, Fan:ConstantVolume, FAN CONSTANT VOLUME 3, Design Size Maximum Flow Rate [m3/s], 7.14375
 Component Sizing Information, Controller:OutdoorAir, CONTROLLER OUTDOOR AIR 4, Maximum Outdoor Air Flow Rate [m3/s], 10.28700
 Component Sizing Information, Controller:OutdoorAir, CONTROLLER OUTDOOR AIR 4, Minimum Outdoor Air Flow Rate [m3/s], 10.28700
 Component Sizing Information, HeatExchanger:AirToAir:SensibleAndLatent, SYS_3_PSZ SP-AUDIENCE SEATING AREA PERMANENT - PERFORMING ARTS THEATRE-SPACE FUNCTION SYS-3 FLR-1 SCH-C HPLCMT-CORE ZN ERV, Design Size Nominal Supply Air Flow Rate [m3/s], 10.28700
 Component Sizing Information, Coil:Cooling:DX:SingleSpeed, COIL COOLING DX SINGLE SPEED 4 597KBTU/HR 8.21EER, Design Size Rated Air Flow Rate [m3/s], 10.28700
 Component Sizing Information, Coil:Cooling:DX:SingleSpeed, COIL COOLING DX SINGLE SPEED 4 597KBTU/HR 8.21EER, Design Size Gross Rated Total Cooling Capacity [W], 187957.09096
 Component Sizing Information, Coil:Cooling:DX:SingleSpeed, COIL COOLING DX SINGLE SPEED 4 597KBTU/HR 8.21EER, Design Size Gross Rated Sensible Heat Ratio, 0.80009
 DX Cooling Coil Standard Rating Information, Coil:Cooling:DX:SingleSpeed, COIL COOLING DX SINGLE SPEED 4 597KBTU/HR 8.21EER, 179956.5, 2.67, 9.10, 9.62, 9.21
 Component Sizing Information, Coil:Heating:Fuel, COIL HEATING GAS 4, Design Size Nominal Capacity [W], 943565.47143
 Component Sizing Information, Fan:ConstantVolume, FAN CONSTANT VOLUME 4, Design Size Maximum Flow Rate [m3/s], 10.28700
 Component Sizing Information, Controller:OutdoorAir, CONTROLLER OUTDOOR AIR 5, Maximum Outdoor Air Flow Rate [m3/s], 6.28650
 Component Sizing Information, Controller:OutdoorAir, CONTROLLER OUTDOOR AIR 5, Minimum Outdoor Air Flow Rate [m3/s], 6.28650
 Component Sizing Information, HeatExchanger:AirToAir:SensibleAndLatent, SYS_3_PSZ SP-AUDIENCE SEATING AREA PERMANENT - RELIGIOUS BUILDING-SPACE FUNCTION SYS-3 FLR-1 SCH-I HPLCMT-SOUTH ZN ERV, Design Size Nominal Supply Air Flow Rate [m3/s], 6.28650
 Component Sizing Information, Coil:Cooling:DX:SingleSpeed, COIL COOLING DX SINGLE SPEED 5 355KBTU/HR 8.21EER, Design Size Rated Air Flow Rate [m3/s], 6.28650
 Component Sizing Information, Coil:Cooling:DX:SingleSpeed, COIL COOLING DX SINGLE SPEED 5 355KBTU/HR 8.21EER, Design Size Gross Rated Total Cooling Capacity [W], 104063.89671
 Component Sizing Information, Coil:Cooling:DX:SingleSpeed, COIL COOLING DX SINGLE SPEED 5 355KBTU/HR 8.21EER, Design Size Gross Rated Sensible Heat Ratio, 0.80066
 DX Cooling Coil Standard Rating Information, Coil:Cooling:DX:SingleSpeed, COIL COOLING DX SINGLE SPEED 5 355KBTU/HR 8.21EER, 99177.3, 2.51, 8.57, 9.05, 8.63
 Component Sizing Information, Coil:Heating:Fuel, COIL HEATING GAS 5, Design Size Nominal Capacity [W], 576623.34365
 Component Sizing Information, Fan:ConstantVolume, FAN CONSTANT VOLUME 5, Design Size Maximum Flow Rate [m3/s], 6.28650
 Component Sizing Information, Controller:OutdoorAir, CONTROLLER OUTDOOR AIR 2, Maximum Outdoor Air Flow Rate [m3/s], 11.28713
 Component Sizing Information, Controller:OutdoorAir, CONTROLLER OUTDOOR AIR 2, Minimum Outdoor Air Flow Rate [m3/s], 11.28713
 Component Sizing Information, HeatExchanger:AirToAir:SensibleAndLatent, SYS_3_PSZ SP-AUDIENCE SEATING AREA PERMANENT - SPORTS ARENA-SPACE FUNCTION SYS-3 FLR-1 SCH-B HPLCMT-EAST ZN ERV, Design Size Nominal Supply Air Flow Rate [m3/s], 11.28713
 Component Sizing Information, Coil:Cooling:DX:SingleSpeed, COIL COOLING DX SINGLE SPEED 2 638KBTU/HR 8.21EER, Design Size Rated Air Flow Rate [m3/s], 11.28713
 Component Sizing Information, Coil:Cooling:DX:SingleSpeed, COIL COOLING DX SINGLE SPEED 2 638KBTU/HR 8.21EER, Design Size Gross Rated Total Cooling Capacity [W], 186841.99636
 Component Sizing Information, Coil:Cooling:DX:SingleSpeed, COIL COOLING DX SINGLE SPEED 2 638KBTU/HR 8.21EER, Design Size Gross Rated Sensible Heat Ratio, 0.80066
 DX Cooling Coil Standard Rating Information, Coil:Cooling:DX:SingleSpeed, COIL COOLING DX SINGLE SPEED 2 638KBTU/HR 8.21EER, 178068.3, 2.64, 9.02, 9.52, 9.04
 Component Sizing Information, Coil:Heating:Fuel, COIL HEATING GAS 2, Design Size Nominal Capacity [W], 1035301.00338
 Component Sizing Information, Fan:ConstantVolume, FAN CONSTANT VOLUME 2, Design Size Maximum Flow Rate [m3/s], 11.28713
Water Heater Information,WaterHeater:Mixed,143GAL NATURALGAS WATER HEATER - 284KBTU/HR 0.805 THERM EFF,0.5431,83148.8,1.117,0.4292
 Component Sizing Information, PlantLoop, HOT WATER LOOP, Maximum Loop Flow Rate [m3/s], 3.77804E-004
 Component Sizing Information, PlantLoop, HOT WATER LOOP, Plant Loop Volume [m3], 4.53365E-002
 Component Sizing Information, Pump:VariableSpeed, PUMP VARIABLE SPEED 1, Design Flow Rate [m3/s], 3.77804E-004
 Component Sizing Information, Pump:VariableSpeed, PUMP VARIABLE SPEED 1, Design Power Consumption [W], 101.60433
 Component Sizing Information, Boiler:HotWater, PRIMARY BOILER 87KBTU/HR 0.85 AFUE, Design Size Nominal Capacity [W], 25393.10060
 Component Sizing Information, Boiler:HotWater, PRIMARY BOILER 87KBTU/HR 0.85 AFUE, User-Specified Nominal Capacity [W], 25393.10060
 Component Sizing Information, Boiler:HotWater, PRIMARY BOILER 87KBTU/HR 0.85 AFUE, Design Size Design Water Flow Rate [m3/s], 3.77804E-004
 Component Sizing Information, Boiler:HotWater, SECONDARY BOILER 0KBTU/HR 0.85 AFUE, Design Size Nominal Capacity [W], 25393.10060
 Component Sizing Information, Boiler:HotWater, SECONDARY BOILER 0KBTU/HR 0.85 AFUE, User-Specified Nominal Capacity [W], 1.00000E-003
 Component Sizing Information, Boiler:HotWater, SECONDARY BOILER 0KBTU/HR 0.85 AFUE, Design Size Design Water Flow Rate [m3/s], 3.77804E-004
 Component Sizing Information, PlantLoop, MAIN SERVICE WATER LOOP, Maximum Loop Flow Rate [m3/s], 2.29047E-004
 Component Sizing Information, PlantLoop, MAIN SERVICE WATER LOOP, Plant Loop Volume [m3], 2.74856E-002
 Component Sizing Information, Pump:ConstantSpeed, SERVICE WATER LOOP PUMP, Design Flow Rate [m3/s], 2.29047E-004
 Component Sizing Information, Pump:ConstantSpeed, SERVICE WATER LOOP PUMP, Design Power Consumption [W], 12.66551
 Component Sizing Information, WaterHeater:Mixed, 143GAL NATURALGAS WATER HEATER - 284KBTU/HR 0.805 THERM EFF, Use Side Design Flow Rate [m3/s], 2.29047E-004
! <Environment>,Environment Name,Environment Type, Start Date, End Date, Start DayOfWeek, Duration {#days}, Source:Start DayOfWeek,  Use Daylight Saving, Use Holidays, Apply Weekend Holiday Rule,  Use Rain Values, Use Snow Values
! <Environment:Special Days>, Special Day Name, Special Day Type, Source, Start Date, Duration {#days}
! <Environment:Daylight Saving>, Daylight Saving Indicator, Source, Start Date, End Date
! <Environment:WarmupDays>, NumberofWarmupDays
Environment,FORT MCMURRAY AP ANN CLG .4% CONDNS DB=>MWB,SizingPeriod:DesignDay,07/21,07/21,SummerDesignDay,1,N/A,N/A,N/A,N/A,N/A,N/A
Environment:Daylight Saving,No,SizingPeriod:DesignDay
! <Environment:Design Day Data>, Max Dry-Bulb Temp {C}, Temp Range {dC}, Temp Range Ind Type, Hum Ind Value at Max Temp, Hum Ind Type,Pressure {Pa}, Wind Direction {deg CW from N}, Wind Speed {m/s}, Clearness, Rain, Snow
! <Environment:Design Day Misc>,DayOfYear,ASHRAE A Coeff,ASHRAE B Coeff,ASHRAE C Coeff,Solar Constant-Annual Variation,Eq of Time {minutes}, Solar Declination Angle {deg}, Solar Model
Environment:Design Day Data,28.90,12.40,DefaultMultipliers,96969,250,3.7,0.00,No,No
Environment:Design Day Misc,202,1084.4,0.2082,0.1365,1.0,-6.23,20.6,ASHRAETau
Environment:WarmupDays,  8
! <Tabular Report>,Style,Unit Conversion
Tabular Report,HTML,None
! <Warmup Convergence Information>,Zone Name,Environment Type/Name,Average Warmup Temperature Difference {deltaC},Std Dev Warmup Temperature Difference {deltaC},Max Temperature Pass/Fail Convergence,Min Temperature Pass/Fail Convergence,Average Warmup Load Difference {W},Std Dev Warmup Load Difference {W},Heating Load Pass/Fail Convergence,Cooling Load Pass/Fail Convergence
 Warmup Convergence Information,SP-AUDIENCE SEATING AREA PERMANENT - OTHER-SCH-A-SPACE FUNCTION SYS-3 FLR-1 SCH-A HPLCMT-NORTH ZN,SizingPeriod: FORT MCMURRAY AP ANN CLG .4% CONDNS DB=>MWB,5.4315179173E-002,0.1802187696,Pass,Pass,9.3354378662E-002,0.2448015115,Pass,Pass
 Warmup Convergence Information,SP-AUDIENCE SEATING AREA PERMANENT - OTHER-SCH-B-SPACE FUNCTION SYS-3 FLR-1 SCH-B HPLCMT-WEST ZN,SizingPeriod: FORT MCMURRAY AP ANN CLG .4% CONDNS DB=>MWB,5.2119660278E-002,0.1058948503,Pass,Pass,0.1114153010,0.3453106658,Pass,Pass
 Warmup Convergence Information,SP-AUDIENCE SEATING AREA PERMANENT - PERFORMING ARTS THEATRE-SPACE FUNCTION SYS-3 FLR-1 SCH-C HPLCMT-CORE ZN,SizingPeriod: FORT MCMURRAY AP ANN CLG .4% CONDNS DB=>MWB,5.7128053486E-002,0.1798914699,Pass,Pass,0.1403299751,0.5799836794,Pass,Pass
 Warmup Convergence Information,SP-AUDIENCE SEATING AREA PERMANENT - RELIGIOUS BUILDING-SPACE FUNCTION SYS-3 FLR-1 SCH-I HPLCMT-SOUTH ZN,SizingPeriod: FORT MCMURRAY AP ANN CLG .4% CONDNS DB=>MWB,0.1125181663,0.2799704096,Pass,Pass,0.1322529621,0.4328690895,Pass,Pass
 Warmup Convergence Information,SP-AUDIENCE SEATING AREA PERMANENT - SPORTS ARENA-SPACE FUNCTION SYS-3 FLR-1 SCH-B HPLCMT-EAST ZN,SizingPeriod: FORT MCMURRAY AP ANN CLG .4% CONDNS DB=>MWB,5.6219753964E-002,0.1112122048,Pass,Pass,0.9713249386,10.1713497973,Pass,Pass
Environment,FORT MCMURRAY AP ANN HTG 99.6% CONDNS DB,SizingPeriod:DesignDay,01/21,01/21,WinterDesignDay,1,N/A,N/A,N/A,N/A,N/A,N/A
Environment:Daylight Saving,No,SizingPeriod:DesignDay
Environment:Design Day Data,-36.20,0.00,DefaultMultipliers,96969,90,1.0,0.00,No,No
Environment:Design Day Misc, 21,1229.0,0.1415,5.7310E-002,1.0,-11.15,-20.1,ASHRAEClearSky
Environment:WarmupDays,  6
 Warmup Convergence Information,SP-AUDIENCE SEATING AREA PERMANENT - OTHER-SCH-A-SPACE FUNCTION SYS-3 FLR-1 SCH-A HPLCMT-NORTH ZN,SizingPeriod: FORT MCMURRAY AP ANN HTG 99.6% CONDNS DB,5.5556985520E-002,0.3168890827,Pass,Pass,0.3594919910,1.2963529466,Pass,Pass
 Warmup Convergence Information,SP-AUDIENCE SEATING AREA PERMANENT - OTHER-SCH-B-SPACE FUNCTION SYS-3 FLR-1 SCH-B HPLCMT-WEST ZN,SizingPeriod: FORT MCMURRAY AP ANN HTG 99.6% CONDNS DB,5.5557143960E-002,0.3016189146,Pass,Pass,0.6988828614,4.2777150986,Pass,Pass
 Warmup Convergence Information,SP-AUDIENCE SEATING AREA PERMANENT - PERFORMING ARTS THEATRE-SPACE FUNCTION SYS-3 FLR-1 SCH-C HPLCMT-CORE ZN,SizingPeriod: FORT MCMURRAY AP ANN HTG 99.6% CONDNS DB,5.5556845116E-002,0.3170420624,Pass,Pass,0.6617538307,4.5262352141,Pass,Pass
 Warmup Convergence Information,SP-AUDIENCE SEATING AREA PERMANENT - RELIGIOUS BUILDING-SPACE FUNCTION SYS-3 FLR-1 SCH-I HPLCMT-SOUTH ZN,SizingPeriod: FORT MCMURRAY AP ANN HTG 99.6% CONDNS DB,5.5604748725E-002,0.2718662065,Pass,Pass,0.3013956103,1.5046688618,Pass,Pass
 Warmup Convergence Information,SP-AUDIENCE SEATING AREA PERMANENT - SPORTS ARENA-SPACE FUNCTION SYS-3 FLR-1 SCH-B HPLCMT-EAST ZN,SizingPeriod: FORT MCMURRAY AP ANN HTG 99.6% CONDNS DB,5.6243044610E-002,0.3413033323,Pass,Pass,1.1495620775,8.8422118375,Pass,Pass
! <Program Control Information:Threads/Parallel Sims>, Threading Supported,Maximum Number of Threads, Env Set Threads (OMP_NUM_THREADS), EP Env Set Threads (EP_OMP_NUM_THREADS), IDF Set Threads, Number of Threads Used (Interior Radiant Exchange), Number Nominal Surfaces, Number Parallel Sims
Program Control:Threads/Parallel Sims, No,1, N/A, N/A, N/A, N/A, N/A, N/A
End of Data
