Program Version,EnergyPlus, Version 8.9.0-eba93e8e1b, YMD=2019.03.26 18:13,
   ************* Beginning Zone Sizing Calculations
   ** Warning ** ProcessScheduleInput: Schedule:Day:Interval="SCHEDULE DAY 1", Blank Schedule Type Limits Name input -- will not be validated.
   ** Warning ** ProcessScheduleInput: Schedule:Day:Interval="SCHEDULE DAY 10", Blank Schedule Type Limits Name input -- will not be validated.
   ** Warning ** ProcessScheduleInput: Schedule:Day:Interval="SCHEDULE DAY 11", Blank Schedule Type Limits Name input -- will not be validated.
   ** Warning ** ProcessScheduleInput: Schedule:Day:Interval="SCHEDULE DAY 12", Blank Schedule Type Limits Name input -- will not be validated.
   ** Warning ** ProcessScheduleInput: Schedule:Day:Interval="SCHEDULE DAY 13", Blank Schedule Type Limits Name input -- will not be validated.
   ** Warning ** ProcessScheduleInput: Schedule:Day:Interval="SCHEDULE DAY 14", Blank Schedule Type Limits Name input -- will not be validated.
   ** Warning ** ProcessScheduleInput: Schedule:Day:Interval="SCHEDULE DAY 15", Blank Schedule Type Limits Name input -- will not be validated.
   ** Warning ** ProcessScheduleInput: Schedule:Day:Interval="SCHEDULE DAY 16", Blank Schedule Type Limits Name input -- will not be validated.
   ** Warning ** ProcessScheduleInput: Schedule:Day:Interval="SCHEDULE DAY 17", Blank Schedule Type Limits Name input -- will not be validated.
   ** Warning ** ProcessScheduleInput: Schedule:Day:Interval="SCHEDULE DAY 18", Blank Schedule Type Limits Name input -- will not be validated.
   ** Warning ** ProcessScheduleInput: Schedule:Day:Interval="SCHEDULE DAY 19", Blank Schedule Type Limits Name input -- will not be validated.
   ** Warning ** ProcessScheduleInput: Schedule:Day:Interval="SCHEDULE DAY 2", Blank Schedule Type Limits Name input -- will not be validated.
   ** Warning ** ProcessScheduleInput: Schedule:Day:Interval="SCHEDULE DAY 20", Blank Schedule Type Limits Name input -- will not be validated.
   ** Warning ** ProcessScheduleInput: Schedule:Day:Interval="SCHEDULE DAY 21", Blank Schedule Type Limits Name input -- will not be validated.
   ** Warning ** ProcessScheduleInput: Schedule:Day:Interval="SCHEDULE DAY 22", Blank Schedule Type Limits Name input -- will not be validated.
   ** Warning ** ProcessScheduleInput: Schedule:Day:Interval="SCHEDULE DAY 23", Blank Schedule Type Limits Name input -- will not be validated.
   ** Warning ** ProcessScheduleInput: Schedule:Day:Interval="SCHEDULE DAY 24", Blank Schedule Type Limits Name input -- will not be validated.
   ** Warning ** ProcessScheduleInput: Schedule:Day:Interval="SCHEDULE DAY 25", Blank Schedule Type Limits Name input -- will not be validated.
   ** Warning ** ProcessScheduleInput: Schedule:Day:Interval="SCHEDULE DAY 26", Blank Schedule Type Limits Name input -- will not be validated.
   ** Warning ** ProcessScheduleInput: Schedule:Day:Interval="SCHEDULE DAY 27", Blank Schedule Type Limits Name input -- will not be validated.
   ** Warning ** ProcessScheduleInput: Schedule:Day:Interval="SCHEDULE DAY 28", Blank Schedule Type Limits Name input -- will not be validated.
   ** Warning ** ProcessScheduleInput: Schedule:Day:Interval="SCHEDULE DAY 29", Blank Schedule Type Limits Name input -- will not be validated.
   ** Warning ** ProcessScheduleInput: Schedule:Day:Interval="SCHEDULE DAY 30", Blank Schedule Type Limits Name input -- will not be validated.
   ** Warning ** ProcessScheduleInput: Schedule:Day:Interval="SCHEDULE DAY 31", Blank Schedule Type Limits Name input -- will not be validated.
   ** Warning ** ProcessScheduleInput: Schedule:Day:Interval="SCHEDULE DAY 32", Blank Schedule Type Limits Name input -- will not be validated.
   ** Warning ** ProcessScheduleInput: Schedule:Day:Interval="SCHEDULE DAY 33", Blank Schedule Type Limits Name input -- will not be validated.
   ** Warning ** ProcessScheduleInput: Schedule:Day:Interval="SCHEDULE DAY 34", Blank Schedule Type Limits Name input -- will not be validated.
   ** Warning ** ProcessScheduleInput: Schedule:Day:Interval="SCHEDULE DAY 35", Blank Schedule Type Limits Name input -- will not be validated.
   ** Warning ** ProcessScheduleInput: Schedule:Day:Interval="SCHEDULE DAY 36", Blank Schedule Type Limits Name input -- will not be validated.
   ** Warning ** ProcessScheduleInput: Schedule:Day:Interval="SCHEDULE DAY 37", Blank Schedule Type Limits Name input -- will not be validated.
   ** Warning ** ProcessScheduleInput: Schedule:Day:Interval="SCHEDULE DAY 38", Blank Schedule Type Limits Name input -- will not be validated.
   ** Warning ** ProcessScheduleInput: Schedule:Day:Interval="SCHEDULE DAY 39", Blank Schedule Type Limits Name input -- will not be validated.
   ** Warning ** ProcessScheduleInput: Schedule:Day:Interval="SCHEDULE DAY 40", Blank Schedule Type Limits Name input -- will not be validated.
   ** Warning ** ProcessScheduleInput: Schedule:Day:Interval="SCHEDULE DAY 41", Blank Schedule Type Limits Name input -- will not be validated.
   ** Warning ** ProcessScheduleInput: Schedule:Day:Interval="SCHEDULE DAY 42", Blank Schedule Type Limits Name input -- will not be validated.
   ** Warning ** ProcessScheduleInput: Schedule:Day:Interval="SCHEDULE DAY 7", Blank Schedule Type Limits Name input -- will not be validated.
   ** Warning ** ProcessScheduleInput: Schedule:Day:Interval="SCHEDULE DAY 8", Blank Schedule Type Limits Name input -- will not be validated.
   ** Warning ** ProcessScheduleInput: Schedule:Day:Interval="SCHEDULE DAY 9", Blank Schedule Type Limits Name input -- will not be validated.
   ** Warning ** ProcessScheduleInput: Schedule:Year="SCHEDULE RULESET 10", Blank Schedule Type Limits Name input -- will not be validated.
   ** Warning ** ProcessScheduleInput: Schedule:Year="SCHEDULE RULESET 11", Blank Schedule Type Limits Name input -- will not be validated.
   ** Warning ** ProcessScheduleInput: Schedule:Year="SCHEDULE RULESET 12", Blank Schedule Type Limits Name input -- will not be validated.
   ** Warning ** ProcessScheduleInput: Schedule:Year="SCHEDULE RULESET 13", Blank Schedule Type Limits Name input -- will not be validated.
   ** Warning ** ProcessScheduleInput: Schedule:Year="SCHEDULE RULESET 14", Blank Schedule Type Limits Name input -- will not be validated.
   ** Warning ** ProcessScheduleInput: Schedule:Year="SCHEDULE RULESET 15", Blank Schedule Type Limits Name input -- will not be validated.
   ** Warning ** ProcessScheduleInput: Schedule:Year="SCHEDULE RULESET 16", Blank Schedule Type Limits Name input -- will not be validated.
   ** Warning ** ProcessScheduleInput: Schedule:Year="SCHEDULE RULESET 17", Blank Schedule Type Limits Name input -- will not be validated.
   ** Warning ** ProcessScheduleInput: Schedule:Year="SCHEDULE RULESET 18", Blank Schedule Type Limits Name input -- will not be validated.
   ** Warning ** ProcessScheduleInput: Schedule:Year="SCHEDULE RULESET 19", Blank Schedule Type Limits Name input -- will not be validated.
   ** Warning ** ProcessScheduleInput: Schedule:Year="SCHEDULE RULESET 20", Blank Schedule Type Limits Name input -- will not be validated.
   ** Warning ** ProcessScheduleInput: Schedule:Year="SCHEDULE RULESET 21", Blank Schedule Type Limits Name input -- will not be validated.
   ** Warning ** ProcessScheduleInput: Schedule:Year="SCHEDULE RULESET 22", Blank Schedule Type Limits Name input -- will not be validated.
   ** Warning ** ProcessScheduleInput: Schedule:Year="SCHEDULE RULESET 23", Blank Schedule Type Limits Name input -- will not be validated.
   ** Warning ** ProcessScheduleInput: Schedule:Year="SCHEDULE RULESET 24", Blank Schedule Type Limits Name input -- will not be validated.
   ** Warning ** ProcessScheduleInput: Schedule:Year="SCHEDULE RULESET 25", Blank Schedule Type Limits Name input -- will not be validated.
   ** Warning ** ProcessScheduleInput: Schedule:Year="SCHEDULE RULESET 26", Blank Schedule Type Limits Name input -- will not be validated.
   ** Warning ** ProcessScheduleInput: Schedule:Year="SCHEDULE RULESET 27", Blank Schedule Type Limits Name input -- will not be validated.
   ** Warning ** ProcessScheduleInput: Schedule:Year="SCHEDULE RULESET 28", Blank Schedule Type Limits Name input -- will not be validated.
   ** Warning ** ProcessScheduleInput: Schedule:Year="SCHEDULE RULESET 29", Blank Schedule Type Limits Name input -- will not be validated.
   ** Warning ** ProcessScheduleInput: Schedule:Year="SCHEDULE RULESET 3", Blank Schedule Type Limits Name input -- will not be validated.
   ** Warning ** ProcessScheduleInput: Schedule:Year="SCHEDULE RULESET 30", Blank Schedule Type Limits Name input -- will not be validated.
   ** Warning ** ProcessScheduleInput: Schedule:Year="SCHEDULE RULESET 31", Blank Schedule Type Limits Name input -- will not be validated.
   ** Warning ** ProcessScheduleInput: Schedule:Year="SCHEDULE RULESET 32", Blank Schedule Type Limits Name input -- will not be validated.
   ** Warning ** ProcessScheduleInput: Schedule:Year="SCHEDULE RULESET 33", Blank Schedule Type Limits Name input -- will not be validated.
   ** Warning ** ProcessScheduleInput: Schedule:Year="SCHEDULE RULESET 34", Blank Schedule Type Limits Name input -- will not be validated.
   ** Warning ** ProcessScheduleInput: Schedule:Year="SCHEDULE RULESET 35", Blank Schedule Type Limits Name input -- will not be validated.
   ** Warning ** ProcessScheduleInput: Schedule:Year="SCHEDULE RULESET 36", Blank Schedule Type Limits Name input -- will not be validated.
   ** Warning ** ProcessScheduleInput: Schedule:Year="SCHEDULE RULESET 37", Blank Schedule Type Limits Name input -- will not be validated.
   ** Warning ** ProcessScheduleInput: Schedule:Year="SCHEDULE RULESET 38", Blank Schedule Type Limits Name input -- will not be validated.
   ** Warning ** ProcessScheduleInput: Schedule:Year="SCHEDULE RULESET 4", Blank Schedule Type Limits Name input -- will not be validated.
   ** Warning ** ProcessScheduleInput: Schedule:Year="SCHEDULE RULESET 5", Blank Schedule Type Limits Name input -- will not be validated.
   ** Warning ** ProcessScheduleInput: Schedule:Year="SCHEDULE RULESET 6", Blank Schedule Type Limits Name input -- will not be validated.
   ** Warning ** ProcessScheduleInput: Schedule:Year="SCHEDULE RULESET 7", Blank Schedule Type Limits Name input -- will not be validated.
   ** Warning ** ProcessScheduleInput: Schedule:Year="SCHEDULE RULESET 8", Blank Schedule Type Limits Name input -- will not be validated.
   ** Warning ** ProcessScheduleInput: Schedule:Year="SCHEDULE RULESET 9", Blank Schedule Type Limits Name input -- will not be validated.
   ** Warning ** ProcessScheduleInput: Schedule:Constant="ALWAYS OFF DISCRETE", Blank Schedule Type Limits Name input -- will not be validated.
   ** Warning ** ProcessScheduleInput: Schedule:Constant="ALWAYS ON CONTINUOUS", Blank Schedule Type Limits Name input -- will not be validated.
   ** Warning ** CheckUsedConstructions: There are 27 nominally unused constructions in input.
   **   ~~~   ** For explicit details on each unused construction, use Output:Diagnostics,DisplayExtraWarnings;
   ** Warning ** GetInternalHeatGains: People Combination of ZoneList and Object Name generate a name too long.
   **   ~~~   ** Object Name="PERFORMING ARTS THEATRE WHOLEBUILDING PEOPLE".
   **   ~~~   ** ZoneList/Zone Name="SP-WHOLEBUILDING-PERFORMING ARTS THEATRE SYS-3 FLR-4 SCH-C HPLCMT-SOUTH ZN".
   **   ~~~   ** Item length=[118] > Maximum Length=[100]. You may need to shorten the names.
   **   ~~~   ** Shortening the Object Name by [19] characters will assure uniqueness for this ZoneList.
   **   ~~~   ** name that will be used (may be needed in reporting)="SP-WHOLEBUILDING-PERFORMING ARTS THEATRE SYS-3 FLR-4 SCH-C HPLCMT-SOUTH ZN PERFORMING ARTS THEATRE WHOLEBUILDING PEOPLE".
   ** Warning ** GetInternalHeatGains: People Combination of ZoneList and Object Name generate a name too long.
   **   ~~~   ** Object Name="SCHOOL/UNIVERSITY WHOLEBUILDING PEOPLE".
   **   ~~~   ** ZoneList/Zone Name="SP-WHOLEBUILDING-SCHOOL/UNIVERSITY SYS-3 FLR-3 SCH-D HPLCMT-SOUTH ZN".
   **   ~~~   ** Item length=[106] > Maximum Length=[100]. You may need to shorten the names.
   **   ~~~   ** Shortening the Object Name by [7] characters will assure uniqueness for this ZoneList.
   **   ~~~   ** name that will be used (may be needed in reporting)="SP-WHOLEBUILDING-SCHOOL/UNIVERSITY SYS-3 FLR-3 SCH-D HPLCMT-SOUTH ZN SCHOOL/UNIVERSITY WHOLEBUILDING PEOPLE".
   ** Warning ** GetInternalHeatGains: People Combination of ZoneList and Object Name generate a name too long.
   **   ~~~   ** Object Name="SPACE FUNCTION ATRIUM (HEIGHT < 6M)-SCH-A PEOPLE".
   **   ~~~   ** ZoneList/Zone Name="SP-ATRIUM (HEIGHT < 6M)-SCH-A-SPACE FUNCTION SYS-6 FLR-1 SCH-A HPLCMT-NORTH ZN".
   **   ~~~   ** Item length=[126] > Maximum Length=[100]. You may need to shorten the names.
   **   ~~~   ** Shortening the Object Name by [27] characters will assure uniqueness for this ZoneList.
   **   ~~~   ** name that will be used (may be needed in reporting)="SP-ATRIUM (HEIGHT < 6M)-SCH-A-SPACE FUNCTION SYS-6 FLR-1 SCH-A HPLCMT-NORTH ZN SPACE FUNCTION ATRIUM (HEIGHT < 6M)-SCH-A PEOPLE".
   ** Warning ** GetInternalHeatGains: People Combination of ZoneList and Object Name generate a name too long.
   **   ~~~   ** Object Name="SPACE FUNCTION ATRIUM (HEIGHT < 6M)-SCH-B PEOPLE".
   **   ~~~   ** ZoneList/Zone Name="SP-ATRIUM (HEIGHT < 6M)-SCH-B-SPACE FUNCTION SYS-6 FLR-1 SCH-B HPLCMT-SOUTH ZN".
   **   ~~~   ** Item length=[126] > Maximum Length=[100]. You may need to shorten the names.
   **   ~~~   ** Shortening the Object Name by [27] characters will assure uniqueness for this ZoneList.
   **   ~~~   ** name that will be used (may be needed in reporting)="SP-ATRIUM (HEIGHT < 6M)-SCH-B-SPACE FUNCTION SYS-6 FLR-1 SCH-B HPLCMT-SOUTH ZN SPACE FUNCTION ATRIUM (HEIGHT < 6M)-SCH-B PEOPLE".
   ** Warning ** GetInternalHeatGains: People Combination of ZoneList and Object Name generate a name too long.
   **   ~~~   ** Object Name="SPACE FUNCTION ATRIUM (HEIGHT < 6M)-SCH-C PEOPLE".
   **   ~~~   ** ZoneList/Zone Name="SP-ATRIUM (HEIGHT < 6M)-SCH-C-SPACE FUNCTION SYS-6 FLR-1 SCH-C HPLCMT-CORE ZN".
   **   ~~~   ** Item length=[125] > Maximum Length=[100]. You may need to shorten the names.
   **   ~~~   ** Shortening the Object Name by [26] characters will assure uniqueness for this ZoneList.
   **   ~~~   ** name that will be used (may be needed in reporting)="SP-ATRIUM (HEIGHT < 6M)-SCH-C-SPACE FUNCTION SYS-6 FLR-1 SCH-C HPLCMT-CORE ZN SPACE FUNCTION ATRIUM (HEIGHT < 6M)-SCH-C PEOPLE".
   ** Warning ** GetInternalHeatGains: People Combination of ZoneList and Object Name generate a name too long.
   **   ~~~   ** Object Name="SPACE FUNCTION ATRIUM (HEIGHT < 6M)-SCH-D PEOPLE".
   **   ~~~   ** ZoneList/Zone Name="SP-ATRIUM (HEIGHT < 6M)-SCH-D-SPACE FUNCTION SYS-6 FLR-2 SCH-D HPLCMT-WEST ZN".
   **   ~~~   ** Item length=[125] > Maximum Length=[100]. You may need to shorten the names.
   **   ~~~   ** Shortening the Object Name by [26] characters will assure uniqueness for this ZoneList.
   **   ~~~   ** name that will be used (may be needed in reporting)="SP-ATRIUM (HEIGHT < 6M)-SCH-D-SPACE FUNCTION SYS-6 FLR-2 SCH-D HPLCMT-WEST ZN SPACE FUNCTION ATRIUM (HEIGHT < 6M)-SCH-D PEOPLE".
   ** Warning ** GetInternalHeatGains: People Combination of ZoneList and Object Name generate a name too long.
   **   ~~~   ** Object Name="SPACE FUNCTION ATRIUM (HEIGHT < 6M)-SCH-E PEOPLE".
   **   ~~~   ** ZoneList/Zone Name="SP-ATRIUM (HEIGHT < 6M)-SCH-E-SPACE FUNCTION SYS-6 FLR-2 SCH-E HPLCMT-NORTH ZN".
   **   ~~~   ** Item length=[126] > Maximum Length=[100]. You may need to shorten the names.
   **   ~~~   ** Shortening the Object Name by [27] characters will assure uniqueness for this ZoneList.
   **   ~~~   ** name that will be used (may be needed in reporting)="SP-ATRIUM (HEIGHT < 6M)-SCH-E-SPACE FUNCTION SYS-6 FLR-2 SCH-E HPLCMT-NORTH ZN SPACE FUNCTION ATRIUM (HEIGHT < 6M)-SCH-E PEOPLE".
   ** Warning ** GetInternalHeatGains: People Combination of ZoneList and Object Name generate a name too long.
   **   ~~~   ** Object Name="SPACE FUNCTION ATRIUM (HEIGHT < 6M)-SCH-F PEOPLE".
   **   ~~~   ** ZoneList/Zone Name="SP-ATRIUM (HEIGHT < 6M)-SCH-F-SPACE FUNCTION SYS-6 FLR-1 SCH-F HPLCMT-WEST ZN".
   **   ~~~   ** Item length=[125] > Maximum Length=[100]. You may need to shorten the names.
   **   ~~~   ** Shortening the Object Name by [26] characters will assure uniqueness for this ZoneList.
   **   ~~~   ** name that will be used (may be needed in reporting)="SP-ATRIUM (HEIGHT < 6M)-SCH-F-SPACE FUNCTION SYS-6 FLR-1 SCH-F HPLCMT-WEST ZN SPACE FUNCTION ATRIUM (HEIGHT < 6M)-SCH-F PEOPLE".
   ** Warning ** GetInternalHeatGains: People Combination of ZoneList and Object Name generate a name too long.
   **   ~~~   ** Object Name="SPACE FUNCTION ATRIUM (HEIGHT < 6M)-SCH-G PEOPLE".
   **   ~~~   ** ZoneList/Zone Name="SP-ATRIUM (HEIGHT < 6M)-SCH-G-SPACE FUNCTION SYS-6 FLR-2 SCH-G HPLCMT-SOUTH ZN".
   **   ~~~   ** Item length=[126] > Maximum Length=[100]. You may need to shorten the names.
   **   ~~~   ** Shortening the Object Name by [27] characters will assure uniqueness for this ZoneList.
   **   ~~~   ** name that will be used (may be needed in reporting)="SP-ATRIUM (HEIGHT < 6M)-SCH-G-SPACE FUNCTION SYS-6 FLR-2 SCH-G HPLCMT-SOUTH ZN SPACE FUNCTION ATRIUM (HEIGHT < 6M)-SCH-G PEOPLE".
   ** Warning ** GetInternalHeatGains: People Combination of ZoneList and Object Name generate a name too long.
   **   ~~~   ** Object Name="TRANSPORTATION FACILITY WHOLEBUILDING PEOPLE".
   **   ~~~   ** ZoneList/Zone Name="SP-WHOLEBUILDING-TRANSPORTATION FACILITY SYS-6 FLR-2 SCH-H HPLCMT-EAST ZN".
   **   ~~~   ** Item length=[117] > Maximum Length=[100]. You may need to shorten the names.
   **   ~~~   ** Shortening the Object Name by [18] characters will assure uniqueness for this ZoneList.
   **   ~~~   ** name that will be used (may be needed in reporting)="SP-WHOLEBUILDING-TRANSPORTATION FACILITY SYS-6 FLR-2 SCH-H HPLCMT-EAST ZN TRANSPORTATION FACILITY WHOLEBUILDING PEOPLE".
   ** Warning ** GetInternalHeatGains: Lights Combination of ZoneList and Object Name generate a name too long.
   **   ~~~   ** Object Name="PERFORMING ARTS THEATRE WHOLEBUILDING LIGHTS".
   **   ~~~   ** ZoneList/Zone Name="SP-WHOLEBUILDING-PERFORMING ARTS THEATRE SYS-3 FLR-4 SCH-C HPLCMT-SOUTH ZN".
   **   ~~~   ** Item length=[118] > Maximum Length=[100]. You may need to shorten the names.
   **   ~~~   ** Shortening the Object Name by [19] characters will assure uniqueness for this ZoneList.
   **   ~~~   ** name that will be used (may be needed in reporting)="SP-WHOLEBUILDING-PERFORMING ARTS THEATRE SYS-3 FLR-4 SCH-C HPLCMT-SOUTH ZN PERFORMING ARTS THEATRE WHOLEBUILDING LIGHTS".
   ** Warning ** GetInternalHeatGains: Lights Combination of ZoneList and Object Name generate a name too long.
   **   ~~~   ** Object Name="SCHOOL/UNIVERSITY WHOLEBUILDING LIGHTS".
   **   ~~~   ** ZoneList/Zone Name="SP-WHOLEBUILDING-SCHOOL/UNIVERSITY SYS-3 FLR-3 SCH-D HPLCMT-SOUTH ZN".
   **   ~~~   ** Item length=[106] > Maximum Length=[100]. You may need to shorten the names.
   **   ~~~   ** Shortening the Object Name by [7] characters will assure uniqueness for this ZoneList.
   **   ~~~   ** name that will be used (may be needed in reporting)="SP-WHOLEBUILDING-SCHOOL/UNIVERSITY SYS-3 FLR-3 SCH-D HPLCMT-SOUTH ZN SCHOOL/UNIVERSITY WHOLEBUILDING LIGHTS".
   ** Warning ** GetInternalHeatGains: Lights Combination of ZoneList and Object Name generate a name too long.
   **   ~~~   ** Object Name="SPACE FUNCTION ATRIUM (HEIGHT < 6M)-SCH-A LIGHTS".
   **   ~~~   ** ZoneList/Zone Name="SP-ATRIUM (HEIGHT < 6M)-SCH-A-SPACE FUNCTION SYS-6 FLR-1 SCH-A HPLCMT-NORTH ZN".
   **   ~~~   ** Item length=[126] > Maximum Length=[100]. You may need to shorten the names.
   **   ~~~   ** Shortening the Object Name by [27] characters will assure uniqueness for this ZoneList.
   **   ~~~   ** name that will be used (may be needed in reporting)="SP-ATRIUM (HEIGHT < 6M)-SCH-A-SPACE FUNCTION SYS-6 FLR-1 SCH-A HPLCMT-NORTH ZN SPACE FUNCTION ATRIUM (HEIGHT < 6M)-SCH-A LIGHTS".
   ** Warning ** GetInternalHeatGains: Lights Combination of ZoneList and Object Name generate a name too long.
   **   ~~~   ** Object Name="SPACE FUNCTION ATRIUM (HEIGHT < 6M)-SCH-B LIGHTS".
   **   ~~~   ** ZoneList/Zone Name="SP-ATRIUM (HEIGHT < 6M)-SCH-B-SPACE FUNCTION SYS-6 FLR-1 SCH-B HPLCMT-SOUTH ZN".
   **   ~~~   ** Item length=[126] > Maximum Length=[100]. You may need to shorten the names.
   **   ~~~   ** Shortening the Object Name by [27] characters will assure uniqueness for this ZoneList.
   **   ~~~   ** name that will be used (may be needed in reporting)="SP-ATRIUM (HEIGHT < 6M)-SCH-B-SPACE FUNCTION SYS-6 FLR-1 SCH-B HPLCMT-SOUTH ZN SPACE FUNCTION ATRIUM (HEIGHT < 6M)-SCH-B LIGHTS".
   ** Warning ** GetInternalHeatGains: Lights Combination of ZoneList and Object Name generate a name too long.
   **   ~~~   ** Object Name="SPACE FUNCTION ATRIUM (HEIGHT < 6M)-SCH-C LIGHTS".
   **   ~~~   ** ZoneList/Zone Name="SP-ATRIUM (HEIGHT < 6M)-SCH-C-SPACE FUNCTION SYS-6 FLR-1 SCH-C HPLCMT-CORE ZN".
   **   ~~~   ** Item length=[125] > Maximum Length=[100]. You may need to shorten the names.
   **   ~~~   ** Shortening the Object Name by [26] characters will assure uniqueness for this ZoneList.
   **   ~~~   ** name that will be used (may be needed in reporting)="SP-ATRIUM (HEIGHT < 6M)-SCH-C-SPACE FUNCTION SYS-6 FLR-1 SCH-C HPLCMT-CORE ZN SPACE FUNCTION ATRIUM (HEIGHT < 6M)-SCH-C LIGHTS".
   ** Warning ** GetInternalHeatGains: Lights Combination of ZoneList and Object Name generate a name too long.
   **   ~~~   ** Object Name="SPACE FUNCTION ATRIUM (HEIGHT < 6M)-SCH-D LIGHTS".
   **   ~~~   ** ZoneList/Zone Name="SP-ATRIUM (HEIGHT < 6M)-SCH-D-SPACE FUNCTION SYS-6 FLR-2 SCH-D HPLCMT-WEST ZN".
   **   ~~~   ** Item length=[125] > Maximum Length=[100]. You may need to shorten the names.
   **   ~~~   ** Shortening the Object Name by [26] characters will assure uniqueness for this ZoneList.
   **   ~~~   ** name that will be used (may be needed in reporting)="SP-ATRIUM (HEIGHT < 6M)-SCH-D-SPACE FUNCTION SYS-6 FLR-2 SCH-D HPLCMT-WEST ZN SPACE FUNCTION ATRIUM (HEIGHT < 6M)-SCH-D LIGHTS".
   ** Warning ** GetInternalHeatGains: Lights Combination of ZoneList and Object Name generate a name too long.
   **   ~~~   ** Object Name="SPACE FUNCTION ATRIUM (HEIGHT < 6M)-SCH-E LIGHTS".
   **   ~~~   ** ZoneList/Zone Name="SP-ATRIUM (HEIGHT < 6M)-SCH-E-SPACE FUNCTION SYS-6 FLR-2 SCH-E HPLCMT-NORTH ZN".
   **   ~~~   ** Item length=[126] > Maximum Length=[100]. You may need to shorten the names.
   **   ~~~   ** Shortening the Object Name by [27] characters will assure uniqueness for this ZoneList.
   **   ~~~   ** name that will be used (may be needed in reporting)="SP-ATRIUM (HEIGHT < 6M)-SCH-E-SPACE FUNCTION SYS-6 FLR-2 SCH-E HPLCMT-NORTH ZN SPACE FUNCTION ATRIUM (HEIGHT < 6M)-SCH-E LIGHTS".
   ** Warning ** GetInternalHeatGains: Lights Combination of ZoneList and Object Name generate a name too long.
   **   ~~~   ** Object Name="SPACE FUNCTION ATRIUM (HEIGHT < 6M)-SCH-F LIGHTS".
   **   ~~~   ** ZoneList/Zone Name="SP-ATRIUM (HEIGHT < 6M)-SCH-F-SPACE FUNCTION SYS-6 FLR-1 SCH-F HPLCMT-WEST ZN".
   **   ~~~   ** Item length=[125] > Maximum Length=[100]. You may need to shorten the names.
   **   ~~~   ** Shortening the Object Name by [26] characters will assure uniqueness for this ZoneList.
   **   ~~~   ** name that will be used (may be needed in reporting)="SP-ATRIUM (HEIGHT < 6M)-SCH-F-SPACE FUNCTION SYS-6 FLR-1 SCH-F HPLCMT-WEST ZN SPACE FUNCTION ATRIUM (HEIGHT < 6M)-SCH-F LIGHTS".
   ** Warning ** GetInternalHeatGains: Lights Combination of ZoneList and Object Name generate a name too long.
   **   ~~~   ** Object Name="SPACE FUNCTION ATRIUM (HEIGHT < 6M)-SCH-G LIGHTS".
   **   ~~~   ** ZoneList/Zone Name="SP-ATRIUM (HEIGHT < 6M)-SCH-G-SPACE FUNCTION SYS-6 FLR-2 SCH-G HPLCMT-SOUTH ZN".
   **   ~~~   ** Item length=[126] > Maximum Length=[100]. You may need to shorten the names.
   **   ~~~   ** Shortening the Object Name by [27] characters will assure uniqueness for this ZoneList.
   **   ~~~   ** name that will be used (may be needed in reporting)="SP-ATRIUM (HEIGHT < 6M)-SCH-G-SPACE FUNCTION SYS-6 FLR-2 SCH-G HPLCMT-SOUTH ZN SPACE FUNCTION ATRIUM (HEIGHT < 6M)-SCH-G LIGHTS".
   ** Warning ** GetInternalHeatGains: Lights Combination of ZoneList and Object Name generate a name too long.
   **   ~~~   ** Object Name="TRANSPORTATION FACILITY WHOLEBUILDING LIGHTS".
   **   ~~~   ** ZoneList/Zone Name="SP-WHOLEBUILDING-TRANSPORTATION FACILITY SYS-6 FLR-2 SCH-H HPLCMT-EAST ZN".
   **   ~~~   ** Item length=[117] > Maximum Length=[100]. You may need to shorten the names.
   **   ~~~   ** Shortening the Object Name by [18] characters will assure uniqueness for this ZoneList.
   **   ~~~   ** name that will be used (may be needed in reporting)="SP-WHOLEBUILDING-TRANSPORTATION FACILITY SYS-6 FLR-2 SCH-H HPLCMT-EAST ZN TRANSPORTATION FACILITY WHOLEBUILDING LIGHTS".
   ** Warning ** GetInternalHeatGains: ElectricEquipment Combination of ZoneList and Object Name generate a name too long.
   **   ~~~   ** Object Name="PERFORMING ARTS THEATRE WHOLEBUILDING ELEC EQUIP".
   **   ~~~   ** ZoneList/Zone Name="SP-WHOLEBUILDING-PERFORMING ARTS THEATRE SYS-3 FLR-4 SCH-C HPLCMT-SOUTH ZN".
   **   ~~~   ** Item length=[122] > Maximum Length=[100]. You may need to shorten the names.
   **   ~~~   ** Shortening the Object Name by [23] characters will assure uniqueness for this ZoneList.
   **   ~~~   ** name that will be used (may be needed in reporting)="SP-WHOLEBUILDING-PERFORMING ARTS THEATRE SYS-3 FLR-4 SCH-C HPLCMT-SOUTH ZN PERFORMING ARTS THEATRE WHOLEBUILDING ELEC EQUIP".
   ** Warning ** GetInternalHeatGains: ElectricEquipment Combination of ZoneList and Object Name generate a name too long.
   **   ~~~   ** Object Name="POLICE STATION WHOLEBUILDING ELEC EQUIP".
   **   ~~~   ** ZoneList/Zone Name="SP-WHOLEBUILDING-POLICE STATION SYS-3 FLR-4 SCH-H HPLCMT-WEST ZN".
   **   ~~~   ** Item length=[103] > Maximum Length=[100]. You may need to shorten the names.
   **   ~~~   ** Shortening the Object Name by [4] characters will assure uniqueness for this ZoneList.
   **   ~~~   ** name that will be used (may be needed in reporting)="SP-WHOLEBUILDING-POLICE STATION SYS-3 FLR-4 SCH-H HPLCMT-WEST ZN POLICE STATION WHOLEBUILDING ELEC EQUIP".
   ** Warning ** GetInternalHeatGains: ElectricEquipment Combination of ZoneList and Object Name generate a name too long.
   **   ~~~   ** Object Name="SCHOOL/UNIVERSITY WHOLEBUILDING ELEC EQUIP".
   **   ~~~   ** ZoneList/Zone Name="SP-WHOLEBUILDING-SCHOOL/UNIVERSITY SYS-3 FLR-3 SCH-D HPLCMT-SOUTH ZN".
   **   ~~~   ** Item length=[110] > Maximum Length=[100]. You may need to shorten the names.
   **   ~~~   ** Shortening the Object Name by [11] characters will assure uniqueness for this ZoneList.
   **   ~~~   ** name that will be used (may be needed in reporting)="SP-WHOLEBUILDING-SCHOOL/UNIVERSITY SYS-3 FLR-3 SCH-D HPLCMT-SOUTH ZN SCHOOL/UNIVERSITY WHOLEBUILDING ELEC EQUIP".
   ** Warning ** GetInternalHeatGains: ElectricEquipment Combination of ZoneList and Object Name generate a name too long.
   **   ~~~   ** Object Name="SPACE FUNCTION ATRIUM (HEIGHT < 6M)-SCH-A ELEC EQUIP".
   **   ~~~   ** ZoneList/Zone Name="SP-ATRIUM (HEIGHT < 6M)-SCH-A-SPACE FUNCTION SYS-6 FLR-1 SCH-A HPLCMT-NORTH ZN".
   **   ~~~   ** Item length=[130] > Maximum Length=[100]. You may need to shorten the names.
   **   ~~~   ** Shortening the Object Name by [31] characters will assure uniqueness for this ZoneList.
   **   ~~~   ** name that will be used (may be needed in reporting)="SP-ATRIUM (HEIGHT < 6M)-SCH-A-SPACE FUNCTION SYS-6 FLR-1 SCH-A HPLCMT-NORTH ZN SPACE FUNCTION ATRIUM (HEIGHT < 6M)-SCH-A ELEC EQUIP".
   ** Warning ** GetInternalHeatGains: ElectricEquipment Combination of ZoneList and Object Name generate a name too long.
   **   ~~~   ** Object Name="SPACE FUNCTION ATRIUM (HEIGHT < 6M)-SCH-B ELEC EQUIP".
   **   ~~~   ** ZoneList/Zone Name="SP-ATRIUM (HEIGHT < 6M)-SCH-B-SPACE FUNCTION SYS-6 FLR-1 SCH-B HPLCMT-SOUTH ZN".
   **   ~~~   ** Item length=[130] > Maximum Length=[100]. You may need to shorten the names.
   **   ~~~   ** Shortening the Object Name by [31] characters will assure uniqueness for this ZoneList.
   **   ~~~   ** name that will be used (may be needed in reporting)="SP-ATRIUM (HEIGHT < 6M)-SCH-B-SPACE FUNCTION SYS-6 FLR-1 SCH-B HPLCMT-SOUTH ZN SPACE FUNCTION ATRIUM (HEIGHT < 6M)-SCH-B ELEC EQUIP".
   ** Warning ** GetInternalHeatGains: ElectricEquipment Combination of ZoneList and Object Name generate a name too long.
   **   ~~~   ** Object Name="SPACE FUNCTION ATRIUM (HEIGHT < 6M)-SCH-C ELEC EQUIP".
   **   ~~~   ** ZoneList/Zone Name="SP-ATRIUM (HEIGHT < 6M)-SCH-C-SPACE FUNCTION SYS-6 FLR-1 SCH-C HPLCMT-CORE ZN".
   **   ~~~   ** Item length=[129] > Maximum Length=[100]. You may need to shorten the names.
   **   ~~~   ** Shortening the Object Name by [30] characters will assure uniqueness for this ZoneList.
   **   ~~~   ** name that will be used (may be needed in reporting)="SP-ATRIUM (HEIGHT < 6M)-SCH-C-SPACE FUNCTION SYS-6 FLR-1 SCH-C HPLCMT-CORE ZN SPACE FUNCTION ATRIUM (HEIGHT < 6M)-SCH-C ELEC EQUIP".
   ** Warning ** GetInternalHeatGains: ElectricEquipment Combination of ZoneList and Object Name generate a name too long.
   **   ~~~   ** Object Name="SPACE FUNCTION ATRIUM (HEIGHT < 6M)-SCH-D ELEC EQUIP".
   **   ~~~   ** ZoneList/Zone Name="SP-ATRIUM (HEIGHT < 6M)-SCH-D-SPACE FUNCTION SYS-6 FLR-2 SCH-D HPLCMT-WEST ZN".
   **   ~~~   ** Item length=[129] > Maximum Length=[100]. You may need to shorten the names.
   **   ~~~   ** Shortening the Object Name by [30] characters will assure uniqueness for this ZoneList.
   **   ~~~   ** name that will be used (may be needed in reporting)="SP-ATRIUM (HEIGHT < 6M)-SCH-D-SPACE FUNCTION SYS-6 FLR-2 SCH-D HPLCMT-WEST ZN SPACE FUNCTION ATRIUM (HEIGHT < 6M)-SCH-D ELEC EQUIP".
   ** Warning ** GetInternalHeatGains: ElectricEquipment Combination of ZoneList and Object Name generate a name too long.
   **   ~~~   ** Object Name="SPACE FUNCTION ATRIUM (HEIGHT < 6M)-SCH-E ELEC EQUIP".
   **   ~~~   ** ZoneList/Zone Name="SP-ATRIUM (HEIGHT < 6M)-SCH-E-SPACE FUNCTION SYS-6 FLR-2 SCH-E HPLCMT-NORTH ZN".
   **   ~~~   ** Item length=[130] > Maximum Length=[100]. You may need to shorten the names.
   **   ~~~   ** Shortening the Object Name by [31] characters will assure uniqueness for this ZoneList.
   **   ~~~   ** name that will be used (may be needed in reporting)="SP-ATRIUM (HEIGHT < 6M)-SCH-E-SPACE FUNCTION SYS-6 FLR-2 SCH-E HPLCMT-NORTH ZN SPACE FUNCTION ATRIUM (HEIGHT < 6M)-SCH-E ELEC EQUIP".
   ** Warning ** GetInternalHeatGains: ElectricEquipment Combination of ZoneList and Object Name generate a name too long.
   **   ~~~   ** Object Name="SPACE FUNCTION ATRIUM (HEIGHT < 6M)-SCH-F ELEC EQUIP".
   **   ~~~   ** ZoneList/Zone Name="SP-ATRIUM (HEIGHT < 6M)-SCH-F-SPACE FUNCTION SYS-6 FLR-1 SCH-F HPLCMT-WEST ZN".
   **   ~~~   ** Item length=[129] > Maximum Length=[100]. You may need to shorten the names.
   **   ~~~   ** Shortening the Object Name by [30] characters will assure uniqueness for this ZoneList.
   **   ~~~   ** name that will be used (may be needed in reporting)="SP-ATRIUM (HEIGHT < 6M)-SCH-F-SPACE FUNCTION SYS-6 FLR-1 SCH-F HPLCMT-WEST ZN SPACE FUNCTION ATRIUM (HEIGHT < 6M)-SCH-F ELEC EQUIP".
   ** Warning ** GetInternalHeatGains: ElectricEquipment Combination of ZoneList and Object Name generate a name too long.
   **   ~~~   ** Object Name="SPACE FUNCTION ATRIUM (HEIGHT < 6M)-SCH-G ELEC EQUIP".
   **   ~~~   ** ZoneList/Zone Name="SP-ATRIUM (HEIGHT < 6M)-SCH-G-SPACE FUNCTION SYS-6 FLR-2 SCH-G HPLCMT-SOUTH ZN".
   **   ~~~   ** Item length=[130] > Maximum Length=[100]. You may need to shorten the names.
   **   ~~~   ** Shortening the Object Name by [31] characters will assure uniqueness for this ZoneList.
   **   ~~~   ** name that will be used (may be needed in reporting)="SP-ATRIUM (HEIGHT < 6M)-SCH-G-SPACE FUNCTION SYS-6 FLR-2 SCH-G HPLCMT-SOUTH ZN SPACE FUNCTION ATRIUM (HEIGHT < 6M)-SCH-G ELEC EQUIP".
   ** Warning ** GetInternalHeatGains: ElectricEquipment Combination of ZoneList and Object Name generate a name too long.
   **   ~~~   ** Object Name="TRANSPORTATION FACILITY WHOLEBUILDING ELEC EQUIP".
   **   ~~~   ** ZoneList/Zone Name="SP-WHOLEBUILDING-TRANSPORTATION FACILITY SYS-6 FLR-2 SCH-H HPLCMT-EAST ZN".
   **   ~~~   ** Item length=[121] > Maximum Length=[100]. You may need to shorten the names.
   **   ~~~   ** Shortening the Object Name by [22] characters will assure uniqueness for this ZoneList.
   **   ~~~   ** name that will be used (may be needed in reporting)="SP-WHOLEBUILDING-TRANSPORTATION FACILITY SYS-6 FLR-2 SCH-H HPLCMT-EAST ZN TRANSPORTATION FACILITY WHOLEBUILDING ELEC EQUIP".
   ** Warning ** Calculated design heating load for zone=SP-ATRIUM (HEIGHT < 6M)-SCH-B-SPACE FUNCTION SYS-6 FLR-1 SCH-B HPLCMT-SOUTH ZN is zero.
   **   ~~~   ** Check Sizing:Zone and ZoneControl:Thermostat inputs.
   ** Warning ** Calculated design heating load for zone=SP-ATRIUM (HEIGHT < 6M)-SCH-C-SPACE FUNCTION SYS-6 FLR-1 SCH-C HPLCMT-CORE ZN is zero.
   **   ~~~   ** Check Sizing:Zone and ZoneControl:Thermostat inputs.
   ** Warning ** Calculated design heating load for zone=SP-ATRIUM (HEIGHT < 6M)-SCH-F-SPACE FUNCTION SYS-6 FLR-1 SCH-F HPLCMT-WEST ZN is zero.
   **   ~~~   ** Check Sizing:Zone and ZoneControl:Thermostat inputs.
   ** Warning ** Calculated design heating load for zone=SP-WHOLEBUILDING-POST OFFICE SYS-6 FLR-3 SCH-A HPLCMT-CORE ZN is zero.
   **   ~~~   ** Check Sizing:Zone and ZoneControl:Thermostat inputs.
   ** Warning ** Calculated design cooling load for zone=SP-WHOLEBUILDING-STORAGE GARAGE SYS-4 FLR-3 SCH-K HPLCMT-NORTH ZN is zero.
   **   ~~~   ** Check Sizing:Zone and ZoneControl:Thermostat inputs.
   ** Warning ** Calculated design heating load for zone=SP-WHOLEBUILDING-STORAGE GARAGE SYS-4 FLR-3 SCH-K HPLCMT-NORTH ZN is zero.
   **   ~~~   ** Check Sizing:Zone and ZoneControl:Thermostat inputs.
   ** Warning ** Calculated design heating load for zone=SP-WHOLEBUILDING-TRANSPORTATION FACILITY SYS-6 FLR-2 SCH-H HPLCMT-EAST ZN is zero.
   **   ~~~   ** Check Sizing:Zone and ZoneControl:Thermostat inputs.
   ** Warning ** Calculated design heating load for zone=SP-WHOLEBUILDING-WAREHOUSE SYS-4 FLR-1 SCH-A HPLCMT-EAST ZN is zero.
   **   ~~~   ** Check Sizing:Zone and ZoneControl:Thermostat inputs.
   ** Warning ** Calculated design heating load for zone=SP-WHOLEBUILDING-WORKSHOP SYS-3 FLR-2 SCH-A HPLCMT-CORE ZN is zero.
   **   ~~~   ** Check Sizing:Zone and ZoneControl:Thermostat inputs.
   ************* Beginning System Sizing Calculations
   ** Warning ** Since Zone Minimum Air Flow Input Method = CONSTANT, input for Fixed Minimum Air Flow Rate will be ignored.
   **   ~~~   ** Occurs in AirTerminal:SingleDuct:VAV:Reheat = AIR TERMINAL SINGLE DUCT VAV REHEAT 1
   ** Warning ** Since Zone Minimum Air Flow Input Method = CONSTANT, input for Fixed Minimum Air Flow Rate will be ignored.
   **   ~~~   ** Occurs in AirTerminal:SingleDuct:VAV:Reheat = AIR TERMINAL SINGLE DUCT VAV REHEAT 2
   ** Warning ** Since Zone Minimum Air Flow Input Method = CONSTANT, input for Fixed Minimum Air Flow Rate will be ignored.
   **   ~~~   ** Occurs in AirTerminal:SingleDuct:VAV:Reheat = AIR TERMINAL SINGLE DUCT VAV REHEAT 3
   ** Warning ** Since Zone Minimum Air Flow Input Method = CONSTANT, input for Fixed Minimum Air Flow Rate will be ignored.
   **   ~~~   ** Occurs in AirTerminal:SingleDuct:VAV:Reheat = AIR TERMINAL SINGLE DUCT VAV REHEAT 5
   ** Warning ** Since Zone Minimum Air Flow Input Method = CONSTANT, input for Fixed Minimum Air Flow Rate will be ignored.
   **   ~~~   ** Occurs in AirTerminal:SingleDuct:VAV:Reheat = AIR TERMINAL SINGLE DUCT VAV REHEAT 6
   ** Warning ** Since Zone Minimum Air Flow Input Method = CONSTANT, input for Fixed Minimum Air Flow Rate will be ignored.
   **   ~~~   ** Occurs in AirTerminal:SingleDuct:VAV:Reheat = AIR TERMINAL SINGLE DUCT VAV REHEAT 4
   ** Warning ** Since Zone Minimum Air Flow Input Method = CONSTANT, input for Fixed Minimum Air Flow Rate will be ignored.
   **   ~~~   ** Occurs in AirTerminal:SingleDuct:VAV:Reheat = AIR TERMINAL SINGLE DUCT VAV REHEAT 7
   ** Warning ** Since Zone Minimum Air Flow Input Method = CONSTANT, input for Fixed Minimum Air Flow Rate will be ignored.
   **   ~~~   ** Occurs in AirTerminal:SingleDuct:VAV:Reheat = AIR TERMINAL SINGLE DUCT VAV REHEAT 11
   ** Warning ** Since Zone Minimum Air Flow Input Method = CONSTANT, input for Fixed Minimum Air Flow Rate will be ignored.
   **   ~~~   ** Occurs in AirTerminal:SingleDuct:VAV:Reheat = AIR TERMINAL SINGLE DUCT VAV REHEAT 9
   ** Warning ** Since Zone Minimum Air Flow Input Method = CONSTANT, input for Fixed Minimum Air Flow Rate will be ignored.
   **   ~~~   ** Occurs in AirTerminal:SingleDuct:VAV:Reheat = AIR TERMINAL SINGLE DUCT VAV REHEAT 12
   ** Warning ** Since Zone Minimum Air Flow Input Method = CONSTANT, input for Fixed Minimum Air Flow Rate will be ignored.
   **   ~~~   ** Occurs in AirTerminal:SingleDuct:VAV:Reheat = AIR TERMINAL SINGLE DUCT VAV REHEAT 10
   ** Warning ** Since Zone Minimum Air Flow Input Method = CONSTANT, input for Fixed Minimum Air Flow Rate will be ignored.
   **   ~~~   ** Occurs in AirTerminal:SingleDuct:VAV:Reheat = AIR TERMINAL SINGLE DUCT VAV REHEAT 8
   ************* Beginning Plant Sizing Calculations
   ** Warning ** GetDXCoils: Coil:Cooling:DX:SingleSpeed="COIL COOLING DX SINGLE SPEED 8", invalid
   **   ~~~   ** ...Part Load Fraction Correlation Curve Name = CURVE CUBIC 2 has out of range value.
   **   ~~~   ** ...Curve maximum must be <= 1.0, curve max at PLR = 0.99 is 1.015
   **   ~~~   ** ...Setting curve maximum to 1.0 and simulation continues.
   ** Warning ** GetDXCoils: Coil:Cooling:DX:SingleSpeed="COIL COOLING DX SINGLE SPEED 7", invalid
   **   ~~~   ** ...Part Load Fraction Correlation Curve Name = CURVE CUBIC 1 has out of range value.
   **   ~~~   ** ...Curve maximum must be <= 1.0, curve max at PLR = 0.99 is 1.015
   **   ~~~   ** ...Setting curve maximum to 1.0 and simulation continues.
   ** Warning ** The Standard Ratings is calculated for Coil:Cooling:DX:SingleSpeed = COIL COOLING DX SINGLE SPEED 8 but not at the AHRI test condition due to curve out of bound.
   **   ~~~   **  Review the Standard Ratings calculations in the Engineering Reference for this coil type. Also, use Output:Diagnostics, DisplayExtraWarnings for further guidance.
   ** Warning ** The Standard Ratings is calculated for Coil:Cooling:DX:SingleSpeed = COIL COOLING DX SINGLE SPEED 7 but not at the AHRI test condition due to curve out of bound.
   **   ~~~   **  Review the Standard Ratings calculations in the Engineering Reference for this coil type. Also, use Output:Diagnostics, DisplayExtraWarnings for further guidance.
   ** Warning ** SizeWaterCoil: Coil="COIL COOLING WATER 4", Cooling Coil has leaving humidity ratio > entering humidity ratio.
   **   ~~~   **     Wair,in =  8.711552E-003
   **   ~~~   **     Wair,out = 8.768468E-003
   **   ~~~   ** ....coil leaving humidity ratio will be reset to:
   **   ~~~   **     Wair,out = 8.711552E-003
   ** Warning ** GetElectricEIRChillerInput: Chiller:Electric:EIR="PRIMARY CHILLER WATERCOOLED SCROLL"
   **   ~~~   ** Energy input ratio as a function of temperature curve output is not equal to 1.0 (+ or - 10%) at reference conditions.
   **   ~~~   ** Curve output at reference conditions = 0.861
   ** Warning ** GetElectricEIRChillerInput: Chiller:Electric:EIR="SECONDARY CHILLER WATERCOOLED SCROLL"
   **   ~~~   ** Energy input ratio as a function of temperature curve output is not equal to 1.0 (+ or - 10%) at reference conditions.
   **   ~~~   ** Curve output at reference conditions = 0.861
   ** Warning ** Error when autosizing the load for cooling tower = COOLING TOWER SINGLE SPEED 1. Tower Design Range Temperature is different from the Design Loop Delta Temperature.
   **   ~~~   ** Tower Design Range Temperature specified in tower = COOLING TOWER SINGLE SPEED 1
   **   ~~~   ** is inconsistent with Design Loop Delta Temperature specified in Sizing:Plant object = CONDENSER WATER LOOP.
   **   ~~~   ** ..The Design Range Temperature specified in tower is = 5.00
   **   ~~~   ** ..The Design Loop Delta Temperature specified in plant sizing data is = 6.00
   ** Warning ** Error when autosizing the load for cooling tower = COOLING TOWER SINGLE SPEED 1. Tower Design Range Temperature is different from the Design Loop Delta Temperature.
   **   ~~~   ** Tower Design Range Temperature specified in tower = COOLING TOWER SINGLE SPEED 1
   **   ~~~   ** is inconsistent with Design Loop Delta Temperature specified in Sizing:Plant object = CONDENSER WATER LOOP.
   **   ~~~   ** ..The Design Range Temperature specified in tower is = 5.00
   **   ~~~   ** ..The Design Loop Delta Temperature specified in plant sizing data is = 6.00
   ** Warning ** Error when autosizing the load for cooling tower = COOLING TOWER SINGLE SPEED 1. Tower Design Range Temperature is different from the Design Loop Delta Temperature.
   **   ~~~   ** Tower Design Range Temperature specified in tower = COOLING TOWER SINGLE SPEED 1
   **   ~~~   ** is inconsistent with Design Loop Delta Temperature specified in Sizing:Plant object = CONDENSER WATER LOOP.
   **   ~~~   ** ..The Design Range Temperature specified in tower is = 5.00
   **   ~~~   ** ..The Design Loop Delta Temperature specified in plant sizing data is = 6.00
   ** Warning ** Error when autosizing the load for cooling tower = COOLING TOWER SINGLE SPEED 1. Tower Design Range Temperature is different from the Design Loop Delta Temperature.
   **   ~~~   ** Tower Design Range Temperature specified in tower = COOLING TOWER SINGLE SPEED 1
   **   ~~~   ** is inconsistent with Design Loop Delta Temperature specified in Sizing:Plant object = CONDENSER WATER LOOP.
   **   ~~~   ** ..The Design Range Temperature specified in tower is = 5.00
   **   ~~~   ** ..The Design Loop Delta Temperature specified in plant sizing data is = 6.00
   ** Warning ** Error when autosizing the load for cooling tower = COOLING TOWER SINGLE SPEED 1. Tower Design Range Temperature is different from the Design Loop Delta Temperature.
   **   ~~~   ** Tower Design Range Temperature specified in tower = COOLING TOWER SINGLE SPEED 1
   **   ~~~   ** is inconsistent with Design Loop Delta Temperature specified in Sizing:Plant object = CONDENSER WATER LOOP.
   **   ~~~   ** ..The Design Range Temperature specified in tower is = 5.00
   **   ~~~   ** ..The Design Loop Delta Temperature specified in plant sizing data is = 6.00
   ** Warning ** Error when autosizing the load for cooling tower = COOLING TOWER SINGLE SPEED 1. Tower Design Range Temperature is different from the Design Loop Delta Temperature.
   **   ~~~   ** Tower Design Range Temperature specified in tower = COOLING TOWER SINGLE SPEED 1
   **   ~~~   ** is inconsistent with Design Loop Delta Temperature specified in Sizing:Plant object = CONDENSER WATER LOOP.
   **   ~~~   ** ..The Design Range Temperature specified in tower is = 5.00
   **   ~~~   ** ..The Design Loop Delta Temperature specified in plant sizing data is = 6.00
   ** Warning ** Output:Meter: invalid Key Name="DISTRICTCOOLING:FACILITY" - not found.
   ** Warning ** Output:Meter: invalid Key Name="DISTRICTHEATING:FACILITY" - not found.
   ** Warning ** Output:Meter:MeterFileOnly requested for "Electricity:Facility" (TimeStep), already on "Output:Meter". Will report to both eplusout.eso and eplusout.mtr
   ************* Testing Individual Branch Integrity
   ************* All Branches passed integrity testing
   ************* Testing Individual Supply Air Path Integrity
   ************* All Supply Air Paths passed integrity testing
   ************* Testing Individual Return Air Path Integrity
   ************* All Return Air Paths passed integrity testing
   ************* No node connection errors were found.
   ************* Beginning Simulation
   ** Warning ** Output:Table:Monthly requested with SimulationControl Run Simulation for Weather File Run Periods set to No so Output:Table:Monthly will not be generated
   ** Severe  ** CheckWarmupConvergence: Loads Initialization, Zone="SP-ATRIUM (HEIGHT < 6M)-SCH-A-SPACE FUNCTION SYS-6 FLR-1 SCH-A HPLCMT-NORTH ZN" did not converge after 25 warmup days.
   **   ~~~   ** See Warmup Convergence Information in .eio file for details.
   **   ~~~   ** ...Environment(SizingPeriod)="FORT MCMURRAY AP ANN HTG 99.6% CONDNS DB"
   **   ~~~   ** ..Max Temp Comparison = 2.20E-004 vs Temperature Convergence Tolerance=0.40 - Pass Convergence
   **   ~~~   ** ..Min Temp Comparison = 1.90E-002 vs Temperature Convergence Tolerance=0.40 - Pass Convergence
   **   ~~~   ** ..Max Heat Load Comparison = 3.8495E-003 vs Loads Convergence Tolerance=4.00E-002 - Pass Convergence
   **   ~~~   ** ..Max Cool Load Comparison = 0.1858 vs Loads Convergence Tolerance=4.00E-002 - Fail Convergence
   ** Severe  ** CheckWarmupConvergence: Loads Initialization, Zone="SP-ATRIUM (HEIGHT < 6M)-SCH-C-SPACE FUNCTION SYS-6 FLR-1 SCH-C HPLCMT-CORE ZN" did not converge after 25 warmup days.
   **   ~~~   ** ...Environment(SizingPeriod)="FORT MCMURRAY AP ANN HTG 99.6% CONDNS DB"
   **   ~~~   ** ..Max Temp Comparison = 8.02E-003 vs Temperature Convergence Tolerance=0.40 - Pass Convergence
   **   ~~~   ** ..Min Temp Comparison = 2.47E-003 vs Temperature Convergence Tolerance=0.40 - Pass Convergence
   **   ~~~   ** ..Max Heat Load Comparison = 0.0000 vs Loads Convergence Tolerance=4.00E-002 - Pass Convergence
   **   ~~~   ** ..Max Cool Load Comparison = 0.1452 vs Loads Convergence Tolerance=4.00E-002 - Fail Convergence
   ************* Simulation Error Summary *************
   ************* There are 8 unused objects in input.
   ************* Use Output:Diagnostics,DisplayUnusedObjects; to see them.
   ************* There are 9 unused schedules in input.
   ************* There are 9 unused week schedules in input.
   ************* There are 21 unused day schedules in input.
   ************* Use Output:Diagnostics,DisplayUnusedSchedules; to see them.
   *************
   ************* ===== Final Error Summary =====
   ************* The following error categories occurred.  Consider correcting or noting.
   ************* Loads Initialization did not Converge
   ************* ..1) very high thermal mass such as very thick concrete (solution: increase max number of warmup
   ************* ..   days in the BUILDING object);
   ************* ..2) moderate mass and inadequate space conditioning such that the building keeps getting warmer
   ************* ..   and warmer on successive days (solution: add HVAC, check building thermal properties,
   ************* ..   check if infiltration is included, make sure HVAC properly controlled);
   ************* ..3) a soil layer modeled below the concrete slab - (solution remove this layer and read about
   ************* ..   ground temperatures in the Auxiliary Programs document).
   ************* ..4) unreasonable (too small) limits in the BUILDING object for temperature (.4 default) or
   ************* ..   loads tolerances (.04 default)
   ************* Nominally Unused Constructions
   ************* ..The nominally unused constructions warning is provided to alert you to potential conditions that can cause
   ************* ..extra time during simulation. Each construction is calculated by the algorithm indicated in the HeatBalanceAlgorithm
   ************* ..object. You may remove the constructions indicated (when you use the DisplayExtraWarnings option).
   *************
   ************* EnergyPlus Warmup Error Summary. During Warmup: 0 Warning; 2 Severe Errors.
   ************* EnergyPlus Sizing Error Summary. During Sizing: 129 Warning; 0 Severe Errors.
   ************* EnergyPlus Completed Successfully-- 146 Warning; 2 Severe Errors; Elapsed Time=00hr 00min 10.95sec
