Program Version,EnergyPlus, Version 8.9.0-eba93e8e1b, YMD=2019.03.26 18:13
! <Version>, Version ID
 Version, 8.9
! <Timesteps per Hour>, #TimeSteps, Minutes per TimeStep {minutes}
 Timesteps per Hour,  6, 10
! <System Convergence Limits>, Minimum System TimeStep {minutes}, Max HVAC Iterations, Minimum Plant Iterations, Maximum Plant Iterations
 System Convergence Limits, 1, 20, 2, 8
! <Simulation Control>, Do Zone Sizing, Do System Sizing, Do Plant Sizing, Do Design Days, Do Weather Simulation, Do HVAC Sizing Simulation
 Simulation Control, Yes, Yes, Yes, Yes, No, No
! <Output Reporting Tolerances>, Tolerance for Time Heating Setpoint Not Met, Tolerance for Zone Cooling Setpoint Not Met Time
 Output Reporting Tolerances, 1.000, 1.000, 
! <Site:GroundTemperature:BuildingSurface>,Jan{C},Feb{C},Mar{C},Apr{C},May{C},Jun{C},Jul{C},Aug{C},Sep{C},Oct{C},Nov{C},Dec{C}
 Site:GroundTemperature:BuildingSurface,  19.53,  19.50,  19.54,  19.60,  20.00,  21.64,  22.23,  22.38,  21.45,  20.12,  19.80,  19.63
! <Site:GroundTemperature:FCfactorMethod>,Jan{C},Feb{C},Mar{C},Apr{C},May{C},Jun{C},Jul{C},Aug{C},Sep{C},Oct{C},Nov{C},Dec{C}
 Site:GroundTemperature:FCfactorMethod, -12.27, -13.66, -11.19,  -7.33,   2.77,  10.57,  15.83,  17.43,  14.70,   8.65,   0.56,  -6.95
! <Site:GroundTemperature:Shallow>,Jan{C},Feb{C},Mar{C},Apr{C},May{C},Jun{C},Jul{C},Aug{C},Sep{C},Oct{C},Nov{C},Dec{C}
 Site:GroundTemperature:Shallow,  13.00,  13.00,  13.00,  13.00,  13.00,  13.00,  13.00,  13.00,  13.00,  13.00,  13.00,  13.00
! <Site:GroundTemperature:Deep>,Jan{C},Feb{C},Mar{C},Apr{C},May{C},Jun{C},Jul{C},Aug{C},Sep{C},Oct{C},Nov{C},Dec{C}
 Site:GroundTemperature:Deep,  16.00,  16.00,  16.00,  16.00,  16.00,  16.00,  16.00,  16.00,  16.00,  16.00,  16.00,  16.00
! <Site:GroundReflectance>,Jan{dimensionless},Feb{dimensionless},Mar{dimensionless},Apr{dimensionless},May{dimensionless},Jun{dimensionless},Jul{dimensionless},Aug{dimensionless},Sep{dimensionless},Oct{dimensionless},Nov{dimensionless},Dec{dimensionless}
 Site:GroundReflectance,  0.20,  0.20,  0.20,  0.20,  0.20,  0.20,  0.20,  0.20,  0.20,  0.20,  0.20,  0.20
! <Site:GroundReflectance:SnowModifier>, Normal, Daylighting {dimensionless}
 Site:GroundReflectance:SnowModifier,   1.000,   1.000
! <Site:GroundReflectance:Snow>,Jan{dimensionless},Feb{dimensionless},Mar{dimensionless},Apr{dimensionless},May{dimensionless},Jun{dimensionless},Jul{dimensionless},Aug{dimensionless},Sep{dimensionless},Oct{dimensionless},Nov{dimensionless},Dec{dimensionless}
 Site:GroundReflectance:Snow,  0.20,  0.20,  0.20,  0.20,  0.20,  0.20,  0.20,  0.20,  0.20,  0.20,  0.20,  0.20
! <Site:GroundReflectance:Snow:Daylighting>,Jan{dimensionless},Feb{dimensionless},Mar{dimensionless},Apr{dimensionless},May{dimensionless},Jun{dimensionless},Jul{dimensionless},Aug{dimensionless},Sep{dimensionless},Oct{dimensionless},Nov{dimensionless},Dec{dimensionless}
 Site:GroundReflectance:Snow:Daylighting,  0.20,  0.20,  0.20,  0.20,  0.20,  0.20,  0.20,  0.20,  0.20,  0.20,  0.20,  0.20
! <Environment:Weather Station>,Wind Sensor Height Above Ground {m},Wind Speed Profile Exponent {},Wind Speed Profile Boundary Layer Thickness {m},Air Temperature Sensor Height Above Ground {m},Wind Speed Modifier Coefficient-Internal,Temperature Modifier Coefficient-Internal
Environment:Weather Station,10.000,0.140,270.000,1.500,1.586,9.750E-003
! <Site:Location>, Location Name, Latitude {N+/S- Deg}, Longitude {E+/W- Deg},  Time Zone Number {GMT+/-}, Elevation {m},  Standard Pressure at Elevation {Pa}, Standard RhoAir at Elevation
Site:Location,Fort McMurray AP AB CAN CWEC2016 WMO#=716890,56.65,-111.22,-7.00,369.10,96969,1.1525
! <Building Information>, Building Name,North Axis {deg},Terrain,  Loads Convergence Tolerance Value,Temperature Convergence Tolerance Value,  Solar Distribution,Maximum Number of Warmup Days,Minimum Number of Warmup Days
 Building Information,Building 1,0.000,Suburbs,4.00000E-002,0.40000,FullExterior,25,6
! <Inside Convection Algorithm>, Algorithm {Simple | TARP | CeilingDiffuser | AdaptiveConvectionAlgorithm}
Inside Convection Algorithm,TARP
! <Outside Convection Algorithm>, Algorithm {SimpleCombined | TARP | MoWitt | DOE-2 | AdaptiveConvectionAlgorithm}
Outside Convection Algorithm,TARP
! <Sky Radiance Distribution>, Value {Anisotropic}
Sky Radiance Distribution,Anisotropic
! <Zone Air Solution Algorithm>, Value {ThirdOrderBackwardDifference | AnalyticalSolution | EulerMethod}
 Zone Air Solution Algorithm, ThirdOrderBackwardDifference
! <Zone Air Carbon Dioxide Balance Simulation>, Simulation {Yes/No}, Carbon Dioxide Concentration
 Zone Air Carbon Dioxide Balance Simulation, No,N/A
! <Zone Air Generic Contaminant Balance Simulation>, Simulation {Yes/No}, Generic Contaminant Concentration
 Zone Air Generic Contaminant Balance Simulation, No,N/A
! <Zone Air Mass Flow Balance Simulation>, Enforce Mass Balance, Adjust Zone Mixing, Adjust Zone Infiltration {AddInfiltration | AdjustInfiltration | None}, Infiltration Zones {MixingSourceZonesOnly | AllZones}
 Zone Air Mass Flow Balance Simulation, No,N/A,N/A,N/A
! <HVACSystemRootFindingAlgorithm>, Value {RegulaFalsi | Bisection | BisectionThenRegulaFalsi | RegulaFalsiThenBisection}
 HVACSystemRootFindingAlgorithm, RegulaFalsi
! <Environment:Site Atmospheric Variation>,Wind Speed Profile Exponent {},Wind Speed Profile Boundary Layer Thickness {m},Air Temperature Gradient Coefficient {K/m}
Environment:Site Atmospheric Variation,0.220,370.000,6.500000E-003
! <Surface Geometry>,Starting Corner,Vertex Input Direction,Coordinate System,Daylight Reference Point Coordinate System,Rectangular (Simple) Surface Coordinate System
 Surface Geometry,UpperLeftCorner,Counterclockwise,RelativeCoordinateSystem,RelativeCoordinateSystem,RelativeToZoneOrigin
! <Surface Heat Transfer Algorithm>, Value {CTF - ConductionTransferFunction | EMPD - MoisturePenetrationDepthConductionTransferFunction | CondFD - ConductionFiniteDifference | HAMT - CombinedHeatAndMoistureFiniteElement} - Description,Inside Surface Max Temperature Limit{C}, Surface Convection Coefficient Lower Limit {W/m2-K}, Surface Convection Coefficient Upper Limit {W/m2-K}
Surface Heat Transfer Algorithm, CTF - ConductionTransferFunction,200,0.10,1000.0
! <Shading Summary>, Number of Fixed Detached Shades, Number of Building Detached Shades, Number of Attached Shades
 Shading Summary,0,0,0
! <Zone Summary>, Number of Zones, Number of Zone Surfaces, Number of SubSurfaces
 Zone Summary,20,136,16
! <Zone Information>,Zone Name,North Axis {deg},Origin X-Coordinate {m},Origin Y-Coordinate {m},Origin Z-Coordinate {m},Centroid X-Coordinate {m},Centroid Y-Coordinate {m},Centroid Z-Coordinate {m},Type,Zone Multiplier,Zone List Multiplier,Minimum X {m},Maximum X {m},Minimum Y {m},Maximum Y {m},Minimum Z {m},Maximum Z {m},Ceiling Height {m},Volume {m3},Zone Inside Convection Algorithm {Simple-Detailed-CeilingDiffuser-TrombeWall},Zone Outside Convection Algorithm {Simple-Detailed-Tarp-MoWitt-DOE-2-BLAST}, Floor Area {m2},Exterior Gross Wall Area {m2},Exterior Net Wall Area {m2},Exterior Window Area {m2}, Number of Surfaces, Number of SubSurfaces, Number of Shading SubSurfaces,  Part of Total Building Area
 Zone Information, SP-ATRIUM (HEIGHT < 6M)-SCH-A-SPACE FUNCTION SYS-6 FLR-1 SCH-A HPLCMT-NORTH ZN,0.0,25.00,75.00,0.00,50.00,89.15,1.90,1,1,1,0.00,100.00,75.00,100.00,0.00,3.80,3.80,7125.00,TARP,TARP,1875.00,0.00,0.00,0.00,6,0,0,Yes
 Zone Information, SP-ATRIUM (HEIGHT < 6M)-SCH-B-SPACE FUNCTION SYS-6 FLR-1 SCH-B HPLCMT-SOUTH ZN,0.0,0.00,0.00,0.00,50.00,10.85,1.90,1,1,1,0.00,100.00,0.00,25.00,0.00,3.80,3.80,7125.00,TARP,TARP,1875.00,0.00,0.00,0.00,6,0,0,Yes
 Zone Information, SP-ATRIUM (HEIGHT < 6M)-SCH-C-SPACE FUNCTION SYS-6 FLR-1 SCH-C HPLCMT-CORE ZN,0.0,25.00,25.00,0.00,50.00,50.00,1.90,1,1,1,25.00,75.00,25.00,75.00,0.00,3.80,3.80,9500.00,TARP,TARP,2500.00,0.00,0.00,0.00,6,0,0,Yes
 Zone Information, SP-ATRIUM (HEIGHT < 6M)-SCH-D-SPACE FUNCTION SYS-6 FLR-2 SCH-D HPLCMT-WEST ZN,0.0,0.00,0.00,3.80,10.85,50.00,5.70,1,1,1,0.00,25.00,0.00,100.00,3.80,7.60,3.80,7125.00,TARP,TARP,1875.00,380.00,285.00,95.00,6,1,0,Yes
 Zone Information, SP-ATRIUM (HEIGHT < 6M)-SCH-E-SPACE FUNCTION SYS-6 FLR-2 SCH-E HPLCMT-NORTH ZN,0.0,25.00,75.00,3.80,50.00,89.15,5.70,1,1,1,0.00,100.00,75.00,100.00,3.80,7.60,3.80,7125.00,TARP,TARP,1875.00,380.00,285.00,95.00,6,1,0,Yes
 Zone Information, SP-ATRIUM (HEIGHT < 6M)-SCH-F-SPACE FUNCTION SYS-6 FLR-1 SCH-F HPLCMT-WEST ZN,0.0,0.00,0.00,0.00,10.85,50.00,1.90,1,1,1,0.00,25.00,0.00,100.00,0.00,3.80,3.80,7125.00,TARP,TARP,1875.00,0.00,0.00,0.00,6,0,0,Yes
 Zone Information, SP-ATRIUM (HEIGHT < 6M)-SCH-G-SPACE FUNCTION SYS-6 FLR-2 SCH-G HPLCMT-SOUTH ZN,0.0,0.00,0.00,3.80,50.00,10.85,5.70,1,1,1,0.00,100.00,0.00,25.00,3.80,7.60,3.80,7125.00,TARP,TARP,1875.00,380.00,285.00,95.00,6,1,0,Yes
 Zone Information, SP-WHOLEBUILDING-OFFICE SYS-6 FLR-4 SCH-A HPLCMT-EAST ZN,0.0,75.00,25.00,11.40,89.15,50.00,13.30,1,1,1,75.00,100.00,0.00,100.00,11.40,15.20,3.80,7125.00,TARP,TARP,1875.00,380.00,285.00,188.75,6,2,0,Yes
 Zone Information, SP-WHOLEBUILDING-PENITENTIARY SYS-3 FLR-4 SCH-H HPLCMT-NORTH ZN,0.0,25.00,75.00,11.40,50.00,89.15,13.30,1,1,1,0.00,100.00,75.00,100.00,11.40,15.20,3.80,7125.00,TARP,TARP,1875.00,380.00,285.00,188.75,6,2,0,Yes
 Zone Information, SP-WHOLEBUILDING-PERFORMING ARTS THEATRE SYS-3 FLR-4 SCH-C HPLCMT-SOUTH ZN,0.0,0.00,0.00,11.40,50.00,10.85,13.30,1,1,1,0.00,100.00,0.00,25.00,11.40,15.20,3.80,7125.00,TARP,TARP,1875.00,380.00,285.00,188.75,6,2,0,Yes
 Zone Information, SP-WHOLEBUILDING-POLICE STATION SYS-3 FLR-4 SCH-H HPLCMT-WEST ZN,0.0,0.00,0.00,11.40,10.85,50.00,13.30,1,1,1,0.00,25.00,0.00,100.00,11.40,15.20,3.80,7125.00,TARP,TARP,1875.00,380.00,285.00,188.75,6,2,0,Yes
 Zone Information, SP-WHOLEBUILDING-POST OFFICE SYS-6 FLR-3 SCH-A HPLCMT-CORE ZN,0.0,25.00,25.00,7.60,50.00,50.00,9.50,1,1,1,25.00,75.00,25.00,75.00,7.60,11.40,3.80,9500.00,TARP,TARP,2500.00,0.00,0.00,0.00,6,0,0,Yes
 Zone Information, SP-WHOLEBUILDING-RETAIL AREA SYS-6 FLR-4 SCH-C HPLCMT-CORE ZN,0.0,25.00,25.00,11.40,50.00,50.00,13.30,1,1,1,25.00,75.00,25.00,75.00,11.40,15.20,3.80,9500.00,TARP,TARP,2500.00,0.00,0.00,125.00,6,1,0,Yes
 Zone Information, SP-WHOLEBUILDING-SCHOOL/UNIVERSITY SYS-3 FLR-3 SCH-D HPLCMT-SOUTH ZN,0.0,0.00,0.00,7.60,50.00,10.85,9.50,1,1,1,0.00,100.00,0.00,25.00,7.60,11.40,3.80,7125.00,TARP,TARP,1875.00,380.00,285.00,95.00,6,1,0,Yes
 Zone Information, SP-WHOLEBUILDING-SPORTS ARENA SYS-6 FLR-3 SCH-B HPLCMT-EAST ZN,0.0,75.00,25.00,7.60,89.15,50.00,9.50,1,1,1,75.00,100.00,0.00,100.00,7.60,11.40,3.80,7125.00,TARP,TARP,1875.00,380.00,285.00,95.00,6,1,0,Yes
 Zone Information, SP-WHOLEBUILDING-STORAGE GARAGE SYS-4 FLR-3 SCH-K HPLCMT-NORTH ZN,0.0,25.00,75.00,7.60,50.00,89.15,9.50,1,1,1,0.00,100.00,75.00,100.00,7.60,11.40,3.80,7125.00,TARP,TARP,1875.00,380.00,380.00,0.00,6,0,0,Yes
 Zone Information, SP-WHOLEBUILDING-TOWN HALL SYS-3 FLR-3 SCH-D HPLCMT-WEST ZN,0.0,0.00,0.00,7.60,10.85,50.00,9.50,1,1,1,0.00,25.00,0.00,100.00,7.60,11.40,3.80,7125.00,TARP,TARP,1875.00,380.00,285.00,95.00,6,1,0,Yes
 Zone Information, SP-WHOLEBUILDING-TRANSPORTATION FACILITY SYS-6 FLR-2 SCH-H HPLCMT-EAST ZN,0.0,75.00,25.00,3.80,89.15,50.00,5.70,1,1,1,75.00,100.00,0.00,100.00,3.80,7.60,3.80,7125.00,TARP,TARP,1875.00,380.00,285.00,95.00,6,1,0,Yes
 Zone Information, SP-WHOLEBUILDING-WAREHOUSE SYS-4 FLR-1 SCH-A HPLCMT-EAST ZN,0.0,75.00,25.00,0.00,89.15,50.00,1.90,1,1,1,75.00,100.00,0.00,100.00,0.00,3.80,3.80,7125.00,TARP,TARP,1875.00,0.00,0.00,0.00,6,0,0,Yes
 Zone Information, SP-WHOLEBUILDING-WORKSHOP SYS-3 FLR-2 SCH-A HPLCMT-CORE ZN,0.0,25.00,25.00,3.80,50.00,50.00,5.70,1,1,1,25.00,75.00,25.00,75.00,3.80,7.60,3.80,9500.00,TARP,TARP,2500.00,0.00,0.00,0.00,6,0,0,Yes
! <Zone Internal Gains Nominal>,Zone Name, Floor Area {m2},# Occupants,Area per Occupant {m2/person},Occupant per Area {person/m2},Interior Lighting {W/m2},Electric Load {W/m2},Gas Load {W/m2},Other Load {W/m2},Hot Water Eq {W/m2},Steam Equipment {W/m2},Sum Loads per Area {W/m2},Outdoor Controlled Baseboard Heat
 Zone Internal Gains Nominal, SP-ATRIUM (HEIGHT < 6M)-SCH-A-SPACE FUNCTION SYS-6 FLR-1 SCH-A HPLCMT-NORTH ZN,1875.00,187.6,9.996,0.100,1.060,2.501,0.000,0.000,0.000,0.000,3.561,No
 Zone Internal Gains Nominal, SP-ATRIUM (HEIGHT < 6M)-SCH-B-SPACE FUNCTION SYS-6 FLR-1 SCH-B HPLCMT-SOUTH ZN,1875.00,187.6,9.996,0.100,1.060,2.501,0.000,0.000,0.000,0.000,3.561,No
 Zone Internal Gains Nominal, SP-ATRIUM (HEIGHT < 6M)-SCH-C-SPACE FUNCTION SYS-6 FLR-1 SCH-C HPLCMT-CORE ZN,2500.00,250.1,9.996,0.100,1.060,2.501,0.000,0.000,0.000,0.000,3.561,No
 Zone Internal Gains Nominal, SP-ATRIUM (HEIGHT < 6M)-SCH-D-SPACE FUNCTION SYS-6 FLR-2 SCH-D HPLCMT-WEST ZN,1875.00,187.6,9.996,0.100,1.060,2.501,0.000,0.000,0.000,0.000,3.561,No
 Zone Internal Gains Nominal, SP-ATRIUM (HEIGHT < 6M)-SCH-E-SPACE FUNCTION SYS-6 FLR-2 SCH-E HPLCMT-NORTH ZN,1875.00,187.6,9.996,0.100,1.060,2.501,0.000,0.000,0.000,0.000,3.561,No
 Zone Internal Gains Nominal, SP-ATRIUM (HEIGHT < 6M)-SCH-F-SPACE FUNCTION SYS-6 FLR-1 SCH-F HPLCMT-WEST ZN,1875.00,187.6,9.996,0.100,1.060,2.501,0.000,0.000,0.000,0.000,3.561,No
 Zone Internal Gains Nominal, SP-ATRIUM (HEIGHT < 6M)-SCH-G-SPACE FUNCTION SYS-6 FLR-2 SCH-G HPLCMT-SOUTH ZN,1875.00,187.6,9.996,0.100,1.060,2.501,0.000,0.000,0.000,0.000,3.561,No
 Zone Internal Gains Nominal, SP-WHOLEBUILDING-OFFICE SYS-6 FLR-4 SCH-A HPLCMT-EAST ZN,1875.00,75.0,24.991,4.001E-002,8.803,7.503,0.000,0.000,0.000,0.000,16.306,No
 Zone Internal Gains Nominal, SP-WHOLEBUILDING-PENITENTIARY SYS-3 FLR-4 SCH-H HPLCMT-NORTH ZN,1875.00,62.5,29.989,3.335E-002,8.703,2.501,0.000,0.000,0.000,0.000,11.204,No
 Zone Internal Gains Nominal, SP-WHOLEBUILDING-PERFORMING ARTS THEATRE SYS-3 FLR-4 SCH-C HPLCMT-SOUTH ZN,1875.00,234.5,7.997,0.125,14.905,1.000,0.000,0.000,0.000,0.000,15.906,No
 Zone Internal Gains Nominal, SP-WHOLEBUILDING-POLICE STATION SYS-3 FLR-4 SCH-H HPLCMT-WEST ZN,1875.00,75.0,24.991,4.001E-002,9.403,7.503,0.000,0.000,0.000,0.000,16.906,No
 Zone Internal Gains Nominal, SP-WHOLEBUILDING-POST OFFICE SYS-6 FLR-3 SCH-A HPLCMT-CORE ZN,2500.00,100.0,24.991,4.001E-002,9.403,7.503,0.000,0.000,0.000,0.000,16.906,No
 Zone Internal Gains Nominal, SP-WHOLEBUILDING-RETAIL AREA SYS-6 FLR-4 SCH-C HPLCMT-CORE ZN,2500.00,83.4,29.989,3.335E-002,13.505,2.501,0.000,0.000,0.000,0.000,16.006,No
 Zone Internal Gains Nominal, SP-WHOLEBUILDING-SCHOOL/UNIVERSITY SYS-3 FLR-3 SCH-D HPLCMT-SOUTH ZN,1875.00,234.5,7.997,0.125,9.403,5.002,0.000,0.000,0.000,0.000,14.405,No
 Zone Internal Gains Nominal, SP-WHOLEBUILDING-SPORTS ARENA SYS-6 FLR-3 SCH-B HPLCMT-EAST ZN,1875.00,187.6,9.996,0.100,9.804,1.000,0.000,0.000,0.000,0.000,10.804,No
 Zone Internal Gains Nominal, SP-WHOLEBUILDING-STORAGE GARAGE SYS-4 FLR-3 SCH-K HPLCMT-NORTH ZN,1875.00,1.9,999.637,1.000E-003,2.301,0.000,0.000,0.000,0.000,0.000,2.301,No
 Zone Internal Gains Nominal, SP-WHOLEBUILDING-TOWN HALL SYS-3 FLR-3 SCH-D HPLCMT-WEST ZN,1875.00,75.0,24.991,4.001E-002,9.603,7.503,0.000,0.000,0.000,0.000,17.106,No
 Zone Internal Gains Nominal, SP-WHOLEBUILDING-TRANSPORTATION FACILITY SYS-6 FLR-2 SCH-H HPLCMT-EAST ZN,1875.00,125.0,14.995,6.669E-002,7.503,1.000,0.000,0.000,0.000,0.000,8.503,No
 Zone Internal Gains Nominal, SP-WHOLEBUILDING-WAREHOUSE SYS-4 FLR-1 SCH-A HPLCMT-EAST ZN,1875.00,1.3,1499.455,6.669E-004,7.103,1.000,0.000,0.000,0.000,0.000,8.103,No
 Zone Internal Gains Nominal, SP-WHOLEBUILDING-WORKSHOP SYS-3 FLR-2 SCH-A HPLCMT-CORE ZN,2500.00,83.4,29.989,3.335E-002,12.805,10.004,0.000,0.000,0.000,0.000,22.808,No
! <People Internal Gains Nominal>,Name,Schedule Name,Zone Name,Zone Floor Area {m2},# Zone Occupants,Number of People {},People/Floor Area {person/m2},Floor Area per person {m2/person},Fraction Radiant,Fraction Convected,Sensible Fraction Calculation,Activity level,ASHRAE 55 Warnings,Carbon Dioxide Generation Rate,Nominal Minimum Number of People,Nominal Maximum Number of People
 People Internal Gains Nominal, SP-WHOLEBUILDING-OFFICE SYS-6 FLR-4 SCH-A HPLCMT-EAST ZN OFFICE WHOLEBUILDING PEOPLE,NECB-A-OCCUPANCY,SP-WHOLEBUILDING-OFFICE SYS-6 FLR-4 SCH-A HPLCMT-EAST ZN,1875.00,75.0,75.0,4.001E-002,24.991,0.300,0.700,AutoCalculate,NECB-ACTIVITY,No,3.8200E-008,0,68
 People Internal Gains Nominal, SP-WHOLEBUILDING-PENITENTIARY SYS-3 FLR-4 SCH-H HPLCMT-NORTH ZN PENITENTIARY WHOLEBUILDING PEOPLE,NECB-H-OCCUPANCY,SP-WHOLEBUILDING-PENITENTIARY SYS-3 FLR-4 SCH-H HPLCMT-NORTH ZN,1875.00,62.5,62.5,3.335E-002,29.989,0.300,0.700,AutoCalculate,NECB-ACTIVITY,No,3.8200E-008,56,56
 People Internal Gains Nominal, SP-WHOLEBUILDING-PERFORMING ARTS THEATRE SYS-3 FLR-4 SCH-C HPLCMT-SOUTH ZN PERFORMING ARTS THEATRE WHOLEBUILDING PEOPLE,NECB-C-OCCUPANCY,SP-WHOLEBUILDING-PERFORMING ARTS THEATRE SYS-3 FLR-4 SCH-C HPLCMT-SOUTH ZN,1875.00,234.5,234.5,0.125,7.997,0.300,0.700,AutoCalculate,NECB-ACTIVITY,No,3.8200E-008,0,211
 People Internal Gains Nominal, SP-WHOLEBUILDING-POLICE STATION SYS-3 FLR-4 SCH-H HPLCMT-WEST ZN POLICE STATION WHOLEBUILDING PEOPLE,NECB-H-OCCUPANCY,SP-WHOLEBUILDING-POLICE STATION SYS-3 FLR-4 SCH-H HPLCMT-WEST ZN,1875.00,75.0,75.0,4.001E-002,24.991,0.300,0.700,AutoCalculate,NECB-ACTIVITY,No,3.8200E-008,68,68
 People Internal Gains Nominal, SP-WHOLEBUILDING-POST OFFICE SYS-6 FLR-3 SCH-A HPLCMT-CORE ZN POST OFFICE WHOLEBUILDING PEOPLE,NECB-A-OCCUPANCY,SP-WHOLEBUILDING-POST OFFICE SYS-6 FLR-3 SCH-A HPLCMT-CORE ZN,2500.00,100.0,100.0,4.001E-002,24.991,0.300,0.700,AutoCalculate,NECB-ACTIVITY,No,3.8200E-008,0,90
 People Internal Gains Nominal, SP-WHOLEBUILDING-RETAIL AREA SYS-6 FLR-4 SCH-C HPLCMT-CORE ZN RETAIL AREA WHOLEBUILDING PEOPLE,NECB-C-OCCUPANCY,SP-WHOLEBUILDING-RETAIL AREA SYS-6 FLR-4 SCH-C HPLCMT-CORE ZN,2500.00,83.4,83.4,3.335E-002,29.989,0.300,0.700,AutoCalculate,NECB-ACTIVITY,No,3.8200E-008,0,75
 People Internal Gains Nominal, SP-WHOLEBUILDING-SCHOOL/UNIVERSITY SYS-3 FLR-3 SCH-D HPLCMT-SOUTH ZN SCHOOL/UNIVERSITY WHOLEBUILDING PEOPLE,NECB-D-OCCUPANCY,SP-WHOLEBUILDING-SCHOOL/UNIVERSITY SYS-3 FLR-3 SCH-D HPLCMT-SOUTH ZN,1875.00,234.5,234.5,0.125,7.997,0.300,0.700,AutoCalculate,NECB-ACTIVITY,No,3.8200E-008,0,211
 People Internal Gains Nominal, SP-ATRIUM (HEIGHT < 6M)-SCH-A-SPACE FUNCTION SYS-6 FLR-1 SCH-A HPLCMT-NORTH ZN SPACE FUNCTION ATRIUM (HEIGHT < 6M)-SCH-A PEOPLE,NECB-A-OCCUPANCY,SP-ATRIUM (HEIGHT < 6M)-SCH-A-SPACE FUNCTION SYS-6 FLR-1 SCH-A HPLCMT-NORTH ZN,1875.00,187.6,187.6,0.100,9.996,0.300,0.700,AutoCalculate,NECB-ACTIVITY,No,3.8200E-008,0,169
 People Internal Gains Nominal, SP-ATRIUM (HEIGHT < 6M)-SCH-B-SPACE FUNCTION SYS-6 FLR-1 SCH-B HPLCMT-SOUTH ZN SPACE FUNCTION ATRIUM (HEIGHT < 6M)-SCH-B PEOPLE,NECB-B-OCCUPANCY,SP-ATRIUM (HEIGHT < 6M)-SCH-B-SPACE FUNCTION SYS-6 FLR-1 SCH-B HPLCMT-SOUTH ZN,1875.00,187.6,187.6,0.100,9.996,0.300,0.700,AutoCalculate,NECB-ACTIVITY,No,3.8200E-008,0,169
 People Internal Gains Nominal, SP-ATRIUM (HEIGHT < 6M)-SCH-C-SPACE FUNCTION SYS-6 FLR-1 SCH-C HPLCMT-CORE ZN SPACE FUNCTION ATRIUM (HEIGHT < 6M)-SCH-C PEOPLE,NECB-C-OCCUPANCY,SP-ATRIUM (HEIGHT < 6M)-SCH-C-SPACE FUNCTION SYS-6 FLR-1 SCH-C HPLCMT-CORE ZN,2500.00,250.1,250.1,0.100,9.996,0.300,0.700,AutoCalculate,NECB-ACTIVITY,No,3.8200E-008,0,225
 People Internal Gains Nominal, SP-ATRIUM (HEIGHT < 6M)-SCH-D-SPACE FUNCTION SYS-6 FLR-2 SCH-D HPLCMT-WEST ZN SPACE FUNCTION ATRIUM (HEIGHT < 6M)-SCH-D PEOPLE,NECB-D-OCCUPANCY,SP-ATRIUM (HEIGHT < 6M)-SCH-D-SPACE FUNCTION SYS-6 FLR-2 SCH-D HPLCMT-WEST ZN,1875.00,187.6,187.6,0.100,9.996,0.300,0.700,AutoCalculate,NECB-ACTIVITY,No,3.8200E-008,0,169
 People Internal Gains Nominal, SP-ATRIUM (HEIGHT < 6M)-SCH-E-SPACE FUNCTION SYS-6 FLR-2 SCH-E HPLCMT-NORTH ZN SPACE FUNCTION ATRIUM (HEIGHT < 6M)-SCH-E PEOPLE,NECB-E-OCCUPANCY,SP-ATRIUM (HEIGHT < 6M)-SCH-E-SPACE FUNCTION SYS-6 FLR-2 SCH-E HPLCMT-NORTH ZN,1875.00,187.6,187.6,0.100,9.996,0.300,0.700,AutoCalculate,NECB-ACTIVITY,No,3.8200E-008,0,169
 People Internal Gains Nominal, SP-ATRIUM (HEIGHT < 6M)-SCH-F-SPACE FUNCTION SYS-6 FLR-1 SCH-F HPLCMT-WEST ZN SPACE FUNCTION ATRIUM (HEIGHT < 6M)-SCH-F PEOPLE,NECB-F-OCCUPANCY,SP-ATRIUM (HEIGHT < 6M)-SCH-F-SPACE FUNCTION SYS-6 FLR-1 SCH-F HPLCMT-WEST ZN,1875.00,187.6,187.6,0.100,9.996,0.300,0.700,AutoCalculate,NECB-ACTIVITY,No,3.8200E-008,26,118
 People Internal Gains Nominal, SP-ATRIUM (HEIGHT < 6M)-SCH-G-SPACE FUNCTION SYS-6 FLR-2 SCH-G HPLCMT-SOUTH ZN SPACE FUNCTION ATRIUM (HEIGHT < 6M)-SCH-G PEOPLE,NECB-G-OCCUPANCY,SP-ATRIUM (HEIGHT < 6M)-SCH-G-SPACE FUNCTION SYS-6 FLR-2 SCH-G HPLCMT-SOUTH ZN,1875.00,187.6,187.6,0.100,9.996,0.300,0.700,AutoCalculate,NECB-ACTIVITY,No,3.8200E-008,56,169
 People Internal Gains Nominal, SP-WHOLEBUILDING-SPORTS ARENA SYS-6 FLR-3 SCH-B HPLCMT-EAST ZN SPORTS ARENA WHOLEBUILDING PEOPLE,NECB-B-OCCUPANCY,SP-WHOLEBUILDING-SPORTS ARENA SYS-6 FLR-3 SCH-B HPLCMT-EAST ZN,1875.00,187.6,187.6,0.100,9.996,0.300,0.700,AutoCalculate,NECB-ACTIVITY,No,3.8200E-008,0,169
 People Internal Gains Nominal, SP-WHOLEBUILDING-STORAGE GARAGE SYS-4 FLR-3 SCH-K HPLCMT-NORTH ZN STORAGE GARAGE WHOLEBUILDING PEOPLE,NECB-K-OCCUPANCY,SP-WHOLEBUILDING-STORAGE GARAGE SYS-4 FLR-3 SCH-K HPLCMT-NORTH ZN,1875.00,1.9,1.9,1.000E-003,999.637,0.300,0.700,AutoCalculate,NECB-ACTIVITY,No,3.8200E-008,0,2
 People Internal Gains Nominal, SP-WHOLEBUILDING-TOWN HALL SYS-3 FLR-3 SCH-D HPLCMT-WEST ZN TOWN HALL WHOLEBUILDING PEOPLE,NECB-D-OCCUPANCY,SP-WHOLEBUILDING-TOWN HALL SYS-3 FLR-3 SCH-D HPLCMT-WEST ZN,1875.00,75.0,75.0,4.001E-002,24.991,0.300,0.700,AutoCalculate,NECB-ACTIVITY,No,3.8200E-008,0,68
 People Internal Gains Nominal, SP-WHOLEBUILDING-TRANSPORTATION FACILITY SYS-6 FLR-2 SCH-H HPLCMT-EAST ZN TRANSPORTATION FACILITY WHOLEBUILDING PEOPLE,NECB-H-OCCUPANCY,SP-WHOLEBUILDING-TRANSPORTATION FACILITY SYS-6 FLR-2 SCH-H HPLCMT-EAST ZN,1875.00,125.0,125.0,6.669E-002,14.995,0.300,0.700,AutoCalculate,NECB-ACTIVITY,No,3.8200E-008,113,113
 People Internal Gains Nominal, SP-WHOLEBUILDING-WAREHOUSE SYS-4 FLR-1 SCH-A HPLCMT-EAST ZN WAREHOUSE WHOLEBUILDING PEOPLE,NECB-A-OCCUPANCY,SP-WHOLEBUILDING-WAREHOUSE SYS-4 FLR-1 SCH-A HPLCMT-EAST ZN,1875.00,1.3,1.3,6.669E-004,1499.455,0.300,0.700,AutoCalculate,NECB-ACTIVITY,No,3.8200E-008,0,1
 People Internal Gains Nominal, SP-WHOLEBUILDING-WORKSHOP SYS-3 FLR-2 SCH-A HPLCMT-CORE ZN WORKSHOP WHOLEBUILDING PEOPLE,NECB-A-OCCUPANCY,SP-WHOLEBUILDING-WORKSHOP SYS-3 FLR-2 SCH-A HPLCMT-CORE ZN,2500.00,83.4,83.4,3.335E-002,29.989,0.300,0.700,AutoCalculate,NECB-ACTIVITY,No,3.8200E-008,0,75
! <Lights Internal Gains Nominal>,Name,Schedule Name,Zone Name,Zone Floor Area {m2},# Zone Occupants,Lighting Level {W},Lights/Floor Area {W/m2},Lights per person {W/person},Fraction Return Air,Fraction Radiant,Fraction Short Wave,Fraction Convected,Fraction Replaceable,End-Use Category,Nominal Minimum Lighting Level {W},Nominal Maximum Lighting Level {W}
 Lights Internal Gains Nominal, SP-WHOLEBUILDING-OFFICE SYS-6 FLR-4 SCH-A HPLCMT-EAST ZN OFFICE WHOLEBUILDING LIGHTS,NECB-A-OCCUPANCY-NECB-A-LIGHTING-0.0-0.0-0.0-LIGHT RULESET,SP-WHOLEBUILDING-OFFICE SYS-6 FLR-4 SCH-A HPLCMT-EAST ZN,1875.00,75.0,16505.996,8.803,220.000,0.000,0.500,0.200,0.300,1.000,General,825.300,14855.397
 Lights Internal Gains Nominal, SP-WHOLEBUILDING-PENITENTIARY SYS-3 FLR-4 SCH-H HPLCMT-NORTH ZN PENITENTIARY WHOLEBUILDING LIGHTS,NECB-H-OCCUPANCY-NECB-H-LIGHTING-0.0-0.0-0.0-LIGHT RULESET,SP-WHOLEBUILDING-PENITENTIARY SYS-3 FLR-4 SCH-H HPLCMT-NORTH ZN,1875.00,62.5,16318.428,8.703,261.000,0.000,0.500,0.200,0.300,1.000,General,14686.585,14686.585
 Lights Internal Gains Nominal, SP-WHOLEBUILDING-PERFORMING ARTS THEATRE SYS-3 FLR-4 SCH-C HPLCMT-SOUTH ZN PERFORMING ARTS THEATRE WHOLEBUILDING LIGHTS,NECB-C-OCCUPANCY-NECB-C-LIGHTING-0.0-0.0-0.0-LIGHT RULESET,SP-WHOLEBUILDING-PERFORMING ARTS THEATRE SYS-3 FLR-4 SCH-C HPLCMT-SOUTH ZN,1875.00,234.5,27947.653,14.905,119.200,0.000,0.500,0.200,0.300,1.000,General,1397.383,25152.888
 Lights Internal Gains Nominal, SP-WHOLEBUILDING-POLICE STATION SYS-3 FLR-4 SCH-H HPLCMT-WEST ZN POLICE STATION WHOLEBUILDING LIGHTS,NECB-H-OCCUPANCY-NECB-H-LIGHTING-0.0-0.0-0.0-LIGHT RULESET,SP-WHOLEBUILDING-POLICE STATION SYS-3 FLR-4 SCH-H HPLCMT-WEST ZN,1875.00,75.0,17631.405,9.403,235.000,0.000,0.500,0.200,0.300,1.000,General,15868.265,15868.265
 Lights Internal Gains Nominal, SP-WHOLEBUILDING-POST OFFICE SYS-6 FLR-3 SCH-A HPLCMT-CORE ZN POST OFFICE WHOLEBUILDING LIGHTS,NECB-A-OCCUPANCY-NECB-A-LIGHTING-0.0-0.0-0.0-LIGHT RULESET,SP-WHOLEBUILDING-POST OFFICE SYS-6 FLR-3 SCH-A HPLCMT-CORE ZN,2500.00,100.0,23508.540,9.403,235.000,0.000,0.500,0.200,0.300,1.000,General,1175.427,21157.686
 Lights Internal Gains Nominal, SP-WHOLEBUILDING-RETAIL AREA SYS-6 FLR-4 SCH-C HPLCMT-CORE ZN RETAIL AREA WHOLEBUILDING LIGHTS,NECB-C-OCCUPANCY-NECB-C-LIGHTING-0.0-0.0-0.0-LIGHT RULESET,SP-WHOLEBUILDING-RETAIL AREA SYS-6 FLR-4 SCH-C HPLCMT-CORE ZN,2500.00,83.4,33762.265,13.505,405.000,0.000,0.500,0.200,0.300,1.000,General,1688.113,30386.039
 Lights Internal Gains Nominal, SP-WHOLEBUILDING-SCHOOL/UNIVERSITY SYS-3 FLR-3 SCH-D HPLCMT-SOUTH ZN SCHOOL/UNIVERSITY WHOLEBUILDING LIGHTS,NECB-D-OCCUPANCY-NECB-D-LIGHTING-0.0-0.0-0.0-LIGHT RULESET,SP-WHOLEBUILDING-SCHOOL/UNIVERSITY SYS-3 FLR-3 SCH-D HPLCMT-SOUTH ZN,1875.00,234.5,17631.405,9.403,75.200,0.000,0.500,0.200,0.300,1.000,General,881.570,15868.265
 Lights Internal Gains Nominal, SP-ATRIUM (HEIGHT < 6M)-SCH-A-SPACE FUNCTION SYS-6 FLR-1 SCH-A HPLCMT-NORTH ZN SPACE FUNCTION ATRIUM (HEIGHT < 6M)-SCH-A LIGHTS,NECB-A-LIGHTING,SP-ATRIUM (HEIGHT < 6M)-SCH-A-SPACE FUNCTION SYS-6 FLR-1 SCH-A HPLCMT-NORTH ZN,1875.00,187.6,1988.222,1.060,10.600,0.000,0.500,0.200,0.300,1.000,General,99.411,1789.400
 Lights Internal Gains Nominal, SP-ATRIUM (HEIGHT < 6M)-SCH-B-SPACE FUNCTION SYS-6 FLR-1 SCH-B HPLCMT-SOUTH ZN SPACE FUNCTION ATRIUM (HEIGHT < 6M)-SCH-B LIGHTS,NECB-B-LIGHTING,SP-ATRIUM (HEIGHT < 6M)-SCH-B-SPACE FUNCTION SYS-6 FLR-1 SCH-B HPLCMT-SOUTH ZN,1875.00,187.6,1988.222,1.060,10.600,0.000,0.500,0.200,0.300,1.000,General,198.822,1789.400
 Lights Internal Gains Nominal, SP-ATRIUM (HEIGHT < 6M)-SCH-C-SPACE FUNCTION SYS-6 FLR-1 SCH-C HPLCMT-CORE ZN SPACE FUNCTION ATRIUM (HEIGHT < 6M)-SCH-C LIGHTS,NECB-C-LIGHTING,SP-ATRIUM (HEIGHT < 6M)-SCH-C-SPACE FUNCTION SYS-6 FLR-1 SCH-C HPLCMT-CORE ZN,2500.00,250.1,2650.963,1.060,10.600,0.000,0.500,0.200,0.300,1.000,General,132.548,2385.867
 Lights Internal Gains Nominal, SP-ATRIUM (HEIGHT < 6M)-SCH-D-SPACE FUNCTION SYS-6 FLR-2 SCH-D HPLCMT-WEST ZN SPACE FUNCTION ATRIUM (HEIGHT < 6M)-SCH-D LIGHTS,NECB-D-LIGHTING,SP-ATRIUM (HEIGHT < 6M)-SCH-D-SPACE FUNCTION SYS-6 FLR-2 SCH-D HPLCMT-WEST ZN,1875.00,187.6,1988.222,1.060,10.600,0.000,0.500,0.200,0.300,1.000,General,99.411,1789.400
 Lights Internal Gains Nominal, SP-ATRIUM (HEIGHT < 6M)-SCH-E-SPACE FUNCTION SYS-6 FLR-2 SCH-E HPLCMT-NORTH ZN SPACE FUNCTION ATRIUM (HEIGHT < 6M)-SCH-E LIGHTS,NECB-E-LIGHTING,SP-ATRIUM (HEIGHT < 6M)-SCH-E-SPACE FUNCTION SYS-6 FLR-2 SCH-E HPLCMT-NORTH ZN,1875.00,187.6,1988.222,1.060,10.600,0.000,0.500,0.200,0.300,1.000,General,99.411,1789.400
 Lights Internal Gains Nominal, SP-ATRIUM (HEIGHT < 6M)-SCH-F-SPACE FUNCTION SYS-6 FLR-1 SCH-F HPLCMT-WEST ZN SPACE FUNCTION ATRIUM (HEIGHT < 6M)-SCH-F LIGHTS,NECB-F-LIGHTING,SP-ATRIUM (HEIGHT < 6M)-SCH-F-SPACE FUNCTION SYS-6 FLR-1 SCH-F HPLCMT-WEST ZN,1875.00,187.6,1988.222,1.060,10.600,0.000,0.500,0.200,0.300,1.000,General,139.176,1252.580
 Lights Internal Gains Nominal, SP-ATRIUM (HEIGHT < 6M)-SCH-G-SPACE FUNCTION SYS-6 FLR-2 SCH-G HPLCMT-SOUTH ZN SPACE FUNCTION ATRIUM (HEIGHT < 6M)-SCH-G LIGHTS,NECB-G-LIGHTING,SP-ATRIUM (HEIGHT < 6M)-SCH-G-SPACE FUNCTION SYS-6 FLR-2 SCH-G HPLCMT-SOUTH ZN,1875.00,187.6,1988.222,1.060,10.600,0.000,0.500,0.200,0.300,1.000,General,0.000,1789.400
 Lights Internal Gains Nominal, SP-WHOLEBUILDING-SPORTS ARENA SYS-6 FLR-3 SCH-B HPLCMT-EAST ZN SPORTS ARENA WHOLEBUILDING LIGHTS,NECB-B-OCCUPANCY-NECB-B-LIGHTING-0.0-0.0-0.0-LIGHT RULESET,SP-WHOLEBUILDING-SPORTS ARENA SYS-6 FLR-3 SCH-B HPLCMT-EAST ZN,1875.00,187.6,18381.678,9.804,98.000,0.000,0.500,0.200,0.300,1.000,General,1838.168,16543.510
 Lights Internal Gains Nominal, SP-WHOLEBUILDING-STORAGE GARAGE SYS-4 FLR-3 SCH-K HPLCMT-NORTH ZN STORAGE GARAGE WHOLEBUILDING LIGHTS,NECB-K-LIGHTING,SP-WHOLEBUILDING-STORAGE GARAGE SYS-4 FLR-3 SCH-K HPLCMT-NORTH ZN,1875.00,1.9,4314.067,2.301,2300.000,0.000,0.500,0.200,0.300,1.000,General,3882.661,3882.661
 Lights Internal Gains Nominal, SP-WHOLEBUILDING-TOWN HALL SYS-3 FLR-3 SCH-D HPLCMT-WEST ZN TOWN HALL WHOLEBUILDING LIGHTS,NECB-D-OCCUPANCY-NECB-D-LIGHTING-0.0-0.0-0.0-LIGHT RULESET,SP-WHOLEBUILDING-TOWN HALL SYS-3 FLR-3 SCH-D HPLCMT-WEST ZN,1875.00,75.0,18006.542,9.603,240.000,0.000,0.500,0.200,0.300,1.000,General,900.327,16205.887
 Lights Internal Gains Nominal, SP-WHOLEBUILDING-TRANSPORTATION FACILITY SYS-6 FLR-2 SCH-H HPLCMT-EAST ZN TRANSPORTATION FACILITY WHOLEBUILDING LIGHTS,NECB-H-LIGHTING,SP-WHOLEBUILDING-TRANSPORTATION FACILITY SYS-6 FLR-2 SCH-H HPLCMT-EAST ZN,1875.00,125.0,14067.611,7.503,112.500,0.000,0.500,0.200,0.300,1.000,General,12660.850,12660.850
 Lights Internal Gains Nominal, SP-WHOLEBUILDING-WAREHOUSE SYS-4 FLR-1 SCH-A HPLCMT-EAST ZN WAREHOUSE WHOLEBUILDING LIGHTS,NECB-A-LIGHTING,SP-WHOLEBUILDING-WAREHOUSE SYS-4 FLR-1 SCH-A HPLCMT-EAST ZN,1875.00,1.3,13317.338,7.103,10650.000,0.000,0.500,0.200,0.300,1.000,General,665.867,11985.604
 Lights Internal Gains Nominal, SP-WHOLEBUILDING-WORKSHOP SYS-3 FLR-2 SCH-A HPLCMT-CORE ZN WORKSHOP WHOLEBUILDING LIGHTS,NECB-A-OCCUPANCY-NECB-A-LIGHTING-0.0-0.0-0.0-LIGHT RULESET,SP-WHOLEBUILDING-WORKSHOP SYS-3 FLR-2 SCH-A HPLCMT-CORE ZN,2500.00,83.4,32011.629,12.805,384.000,0.000,0.500,0.200,0.300,1.000,General,1600.581,28810.467
! <ElectricEquipment Internal Gains Nominal>,Name,Schedule Name,Zone Name,Zone Floor Area {m2},# Zone Occupants,Equipment Level {W},Equipment/Floor Area {W/m2},Equipment per person {W/person},Fraction Latent,Fraction Radiant,Fraction Lost,Fraction Convected,End-Use SubCategory,Nominal Minimum Equipment Level {W},Nominal Maximum Equipment Level {W}
 ElectricEquipment Internal Gains Nominal, SP-WHOLEBUILDING-OFFICE SYS-6 FLR-4 SCH-A HPLCMT-EAST ZN OFFICE WHOLEBUILDING ELEC EQUIP,NECB-A-ELECTRIC-EQUIPMENT,SP-WHOLEBUILDING-OFFICE SYS-6 FLR-4 SCH-A HPLCMT-EAST ZN,1875.00,75.0,14067.611,7.503,187.500,0.000,0.500,0.000,0.500,General,2813.522,12660.850
 ElectricEquipment Internal Gains Nominal, SP-WHOLEBUILDING-PENITENTIARY SYS-3 FLR-4 SCH-H HPLCMT-NORTH ZN PENITENTIARY WHOLEBUILDING ELEC EQUIP,NECB-H-ELECTRIC-EQUIPMENT,SP-WHOLEBUILDING-PENITENTIARY SYS-3 FLR-4 SCH-H HPLCMT-NORTH ZN,1875.00,62.5,4689.204,2.501,75.000,0.000,0.500,0.000,0.500,General,4220.283,4220.283
 ElectricEquipment Internal Gains Nominal, SP-WHOLEBUILDING-PERFORMING ARTS THEATRE SYS-3 FLR-4 SCH-C HPLCMT-SOUTH ZN PERFORMING ARTS THEATRE WHOLEBUILDING ELEC EQUIP,NECB-C-ELECTRIC-EQUIPMENT,SP-WHOLEBUILDING-PERFORMING ARTS THEATRE SYS-3 FLR-4 SCH-C HPLCMT-SOUTH ZN,1875.00,234.5,1875.681,1.000,8.000,0.000,0.500,0.000,0.500,General,93.784,1688.113
 ElectricEquipment Internal Gains Nominal, SP-WHOLEBUILDING-POLICE STATION SYS-3 FLR-4 SCH-H HPLCMT-WEST ZN POLICE STATION WHOLEBUILDING ELEC EQUIP,NECB-H-ELECTRIC-EQUIPMENT,SP-WHOLEBUILDING-POLICE STATION SYS-3 FLR-4 SCH-H HPLCMT-WEST ZN,1875.00,75.0,14067.611,7.503,187.500,0.000,0.500,0.000,0.500,General,12660.850,12660.850
 ElectricEquipment Internal Gains Nominal, SP-WHOLEBUILDING-POST OFFICE SYS-6 FLR-3 SCH-A HPLCMT-CORE ZN POST OFFICE WHOLEBUILDING ELEC EQUIP,NECB-A-ELECTRIC-EQUIPMENT,SP-WHOLEBUILDING-POST OFFICE SYS-6 FLR-3 SCH-A HPLCMT-CORE ZN,2500.00,100.0,18756.814,7.503,187.500,0.000,0.500,0.000,0.500,General,3751.363,16881.133
 ElectricEquipment Internal Gains Nominal, SP-WHOLEBUILDING-RETAIL AREA SYS-6 FLR-4 SCH-C HPLCMT-CORE ZN RETAIL AREA WHOLEBUILDING ELEC EQUIP,NECB-C-ELECTRIC-EQUIPMENT,SP-WHOLEBUILDING-RETAIL AREA SYS-6 FLR-4 SCH-C HPLCMT-CORE ZN,2500.00,83.4,6252.271,2.501,75.000,0.000,0.500,0.000,0.500,General,312.614,5627.044
 ElectricEquipment Internal Gains Nominal, SP-WHOLEBUILDING-SCHOOL/UNIVERSITY SYS-3 FLR-3 SCH-D HPLCMT-SOUTH ZN SCHOOL/UNIVERSITY WHOLEBUILDING ELEC EQUIP,NECB-D-ELECTRIC-EQUIPMENT,SP-WHOLEBUILDING-SCHOOL/UNIVERSITY SYS-3 FLR-3 SCH-D HPLCMT-SOUTH ZN,1875.00,234.5,9378.407,5.002,40.000,0.000,0.500,0.000,0.500,General,468.920,8440.566
 ElectricEquipment Internal Gains Nominal, SP-ATRIUM (HEIGHT < 6M)-SCH-A-SPACE FUNCTION SYS-6 FLR-1 SCH-A HPLCMT-NORTH ZN SPACE FUNCTION ATRIUM (HEIGHT < 6M)-SCH-A ELEC EQUIP,NECB-A-ELECTRIC-EQUIPMENT,SP-ATRIUM (HEIGHT < 6M)-SCH-A-SPACE FUNCTION SYS-6 FLR-1 SCH-A HPLCMT-NORTH ZN,1875.00,187.6,4689.204,2.501,25.000,0.000,0.500,0.000,0.500,General,937.841,4220.283
 ElectricEquipment Internal Gains Nominal, SP-ATRIUM (HEIGHT < 6M)-SCH-B-SPACE FUNCTION SYS-6 FLR-1 SCH-B HPLCMT-SOUTH ZN SPACE FUNCTION ATRIUM (HEIGHT < 6M)-SCH-B ELEC EQUIP,NECB-B-ELECTRIC-EQUIPMENT,SP-ATRIUM (HEIGHT < 6M)-SCH-B-SPACE FUNCTION SYS-6 FLR-1 SCH-B HPLCMT-SOUTH ZN,1875.00,187.6,4689.204,2.501,25.000,0.000,0.500,0.000,0.500,General,468.920,4220.283
 ElectricEquipment Internal Gains Nominal, SP-ATRIUM (HEIGHT < 6M)-SCH-C-SPACE FUNCTION SYS-6 FLR-1 SCH-C HPLCMT-CORE ZN SPACE FUNCTION ATRIUM (HEIGHT < 6M)-SCH-C ELEC EQUIP,NECB-C-ELECTRIC-EQUIPMENT,SP-ATRIUM (HEIGHT < 6M)-SCH-C-SPACE FUNCTION SYS-6 FLR-1 SCH-C HPLCMT-CORE ZN,2500.00,250.1,6252.271,2.501,25.000,0.000,0.500,0.000,0.500,General,312.614,5627.044
 ElectricEquipment Internal Gains Nominal, SP-ATRIUM (HEIGHT < 6M)-SCH-D-SPACE FUNCTION SYS-6 FLR-2 SCH-D HPLCMT-WEST ZN SPACE FUNCTION ATRIUM (HEIGHT < 6M)-SCH-D ELEC EQUIP,NECB-D-ELECTRIC-EQUIPMENT,SP-ATRIUM (HEIGHT < 6M)-SCH-D-SPACE FUNCTION SYS-6 FLR-2 SCH-D HPLCMT-WEST ZN,1875.00,187.6,4689.204,2.501,25.000,0.000,0.500,0.000,0.500,General,234.460,4220.283
 ElectricEquipment Internal Gains Nominal, SP-ATRIUM (HEIGHT < 6M)-SCH-E-SPACE FUNCTION SYS-6 FLR-2 SCH-E HPLCMT-NORTH ZN SPACE FUNCTION ATRIUM (HEIGHT < 6M)-SCH-E ELEC EQUIP,NECB-E-ELECTRIC-EQUIPMENT,SP-ATRIUM (HEIGHT < 6M)-SCH-E-SPACE FUNCTION SYS-6 FLR-2 SCH-E HPLCMT-NORTH ZN,1875.00,187.6,4689.204,2.501,25.000,0.000,0.500,0.000,0.500,General,234.460,4220.283
 ElectricEquipment Internal Gains Nominal, SP-ATRIUM (HEIGHT < 6M)-SCH-F-SPACE FUNCTION SYS-6 FLR-1 SCH-F HPLCMT-WEST ZN SPACE FUNCTION ATRIUM (HEIGHT < 6M)-SCH-F ELEC EQUIP,NECB-F-ELECTRIC-EQUIPMENT,SP-ATRIUM (HEIGHT < 6M)-SCH-F-SPACE FUNCTION SYS-6 FLR-1 SCH-F HPLCMT-WEST ZN,1875.00,187.6,4689.204,2.501,25.000,0.000,0.500,0.000,0.500,General,328.244,2954.198
 ElectricEquipment Internal Gains Nominal, SP-ATRIUM (HEIGHT < 6M)-SCH-G-SPACE FUNCTION SYS-6 FLR-2 SCH-G HPLCMT-SOUTH ZN SPACE FUNCTION ATRIUM (HEIGHT < 6M)-SCH-G ELEC EQUIP,NECB-G-ELECTRIC-EQUIPMENT,SP-ATRIUM (HEIGHT < 6M)-SCH-G-SPACE FUNCTION SYS-6 FLR-2 SCH-G HPLCMT-SOUTH ZN,1875.00,187.6,4689.204,2.501,25.000,0.000,0.500,0.000,0.500,General,937.841,4220.283
 ElectricEquipment Internal Gains Nominal, SP-WHOLEBUILDING-SPORTS ARENA SYS-6 FLR-3 SCH-B HPLCMT-EAST ZN SPORTS ARENA WHOLEBUILDING ELEC EQUIP,NECB-B-ELECTRIC-EQUIPMENT,SP-WHOLEBUILDING-SPORTS ARENA SYS-6 FLR-3 SCH-B HPLCMT-EAST ZN,1875.00,187.6,1875.681,1.000,10.000,0.000,0.500,0.000,0.500,General,187.568,1688.113
 ElectricEquipment Internal Gains Nominal, SP-WHOLEBUILDING-TOWN HALL SYS-3 FLR-3 SCH-D HPLCMT-WEST ZN TOWN HALL WHOLEBUILDING ELEC EQUIP,NECB-D-ELECTRIC-EQUIPMENT,SP-WHOLEBUILDING-TOWN HALL SYS-3 FLR-3 SCH-D HPLCMT-WEST ZN,1875.00,75.0,14067.611,7.503,187.500,0.000,0.500,0.000,0.500,General,703.381,12660.850
 ElectricEquipment Internal Gains Nominal, SP-WHOLEBUILDING-TRANSPORTATION FACILITY SYS-6 FLR-2 SCH-H HPLCMT-EAST ZN TRANSPORTATION FACILITY WHOLEBUILDING ELEC EQUIP,NECB-H-ELECTRIC-EQUIPMENT,SP-WHOLEBUILDING-TRANSPORTATION FACILITY SYS-6 FLR-2 SCH-H HPLCMT-EAST ZN,1875.00,125.0,1875.681,1.000,15.000,0.000,0.500,0.000,0.500,General,1688.113,1688.113
 ElectricEquipment Internal Gains Nominal, SP-WHOLEBUILDING-WAREHOUSE SYS-4 FLR-1 SCH-A HPLCMT-EAST ZN WAREHOUSE WHOLEBUILDING ELEC EQUIP,NECB-A-ELECTRIC-EQUIPMENT,SP-WHOLEBUILDING-WAREHOUSE SYS-4 FLR-1 SCH-A HPLCMT-EAST ZN,1875.00,1.3,1875.681,1.000,1500.000,0.000,0.500,0.000,0.500,General,375.136,1688.113
 ElectricEquipment Internal Gains Nominal, SP-WHOLEBUILDING-WORKSHOP SYS-3 FLR-2 SCH-A HPLCMT-CORE ZN WORKSHOP WHOLEBUILDING ELEC EQUIP,NECB-A-ELECTRIC-EQUIPMENT,SP-WHOLEBUILDING-WORKSHOP SYS-3 FLR-2 SCH-A HPLCMT-CORE ZN,2500.00,83.4,25009.086,10.004,300.000,0.000,0.500,0.000,0.500,General,5001.817,22508.177
! <Shadowing/Sun Position Calculations Annual Simulations>, Calculation Method, Value {days}, Allowable Number Figures in Shadow Overlap {}, Polygon Clipping Algorithm, Sky Diffuse Modeling Algorithm, External Shading Calculation Method, Output External Shading Calculation Results, Disable Self-Shading Within Shading Zone Groups, Disable Self-Shading From Shading Zone Groups to Other Zones
Shadowing/Sun Position Calculations Annual Simulations,AverageOverDaysInFrequency,20,15000,SutherlandHodgman,SimpleSkyDiffuseModeling,InternalCalculation,No,No,No
! <Water Heater Information>,Type,Name,Volume {m3},Maximum Capacity {W},Standard Rated Recovery Efficiency, Standard Rated Energy Factor
! <ZoneInfiltration Airflow Stats Nominal>,Name,Schedule Name,Zone Name, Zone Floor Area {m2}, # Zone Occupants,Design Volume Flow Rate {m3/s},Volume Flow Rate/Floor Area {m3/s/m2},Volume Flow Rate/Exterior Surface Area {m3/s/m2},ACH - Air Changes per Hour,Equation A - Constant Term Coefficient {},Equation B - Temperature Term Coefficient {1/C},Equation C - Velocity Term Coefficient {s/m}, Equation D - Velocity Squared Term Coefficient {s2/m2}
 ZoneInfiltration Airflow Stats Nominal, ATRIUM (HEIGHT < 6M)-SCH-D-SPACE FUNCTION INFILTRATION,ALWAYS ON DISCRETE,SP-ATRIUM (HEIGHT < 6M)-SCH-D-SPACE FUNCTION SYS-6 FLR-2 SCH-D HPLCMT-WEST ZN,1875.00,187.6,9.500E-002,5.067E-005,2.500E-004,4.800E-002,0.000,0.000,0.224,0.000
 ZoneInfiltration Airflow Stats Nominal, ATRIUM (HEIGHT < 6M)-SCH-E-SPACE FUNCTION INFILTRATION,ALWAYS ON DISCRETE,SP-ATRIUM (HEIGHT < 6M)-SCH-E-SPACE FUNCTION SYS-6 FLR-2 SCH-E HPLCMT-NORTH ZN,1875.00,187.6,9.500E-002,5.067E-005,2.500E-004,4.800E-002,0.000,0.000,0.224,0.000
 ZoneInfiltration Airflow Stats Nominal, ATRIUM (HEIGHT < 6M)-SCH-G-SPACE FUNCTION INFILTRATION,ALWAYS ON DISCRETE,SP-ATRIUM (HEIGHT < 6M)-SCH-G-SPACE FUNCTION SYS-6 FLR-2 SCH-G HPLCMT-SOUTH ZN,1875.00,187.6,9.500E-002,5.067E-005,2.500E-004,4.800E-002,0.000,0.000,0.224,0.000
 ZoneInfiltration Airflow Stats Nominal, WHOLEBUILDING-OFFICE INFILTRATION,ALWAYS ON DISCRETE,SP-WHOLEBUILDING-OFFICE SYS-6 FLR-4 SCH-A HPLCMT-EAST ZN,1875.00,75.0,0.564,3.007E-004,2.500E-004,0.285,0.000,0.000,0.224,0.000
 ZoneInfiltration Airflow Stats Nominal, WHOLEBUILDING-PENITENTIARY INFILTRATION,ALWAYS ON DISCRETE,SP-WHOLEBUILDING-PENITENTIARY SYS-3 FLR-4 SCH-H HPLCMT-NORTH ZN,1875.00,62.5,0.564,3.007E-004,2.500E-004,0.285,0.000,0.000,0.224,0.000
 ZoneInfiltration Airflow Stats Nominal, WHOLEBUILDING-PERFORMING ARTS THEATRE INFILTRATION,ALWAYS ON DISCRETE,SP-WHOLEBUILDING-PERFORMING ARTS THEATRE SYS-3 FLR-4 SCH-C HPLCMT-SOUTH ZN,1875.00,234.5,0.564,3.007E-004,2.500E-004,0.285,0.000,0.000,0.224,0.000
 ZoneInfiltration Airflow Stats Nominal, WHOLEBUILDING-POLICE STATION INFILTRATION,ALWAYS ON DISCRETE,SP-WHOLEBUILDING-POLICE STATION SYS-3 FLR-4 SCH-H HPLCMT-WEST ZN,1875.00,75.0,0.564,3.007E-004,2.500E-004,0.285,0.000,0.000,0.224,0.000
 ZoneInfiltration Airflow Stats Nominal, WHOLEBUILDING-RETAIL AREA INFILTRATION,ALWAYS ON DISCRETE,SP-WHOLEBUILDING-RETAIL AREA SYS-6 FLR-4 SCH-C HPLCMT-CORE ZN,2500.00,83.4,0.625,2.500E-004,2.500E-004,0.237,0.000,0.000,0.224,0.000
 ZoneInfiltration Airflow Stats Nominal, WHOLEBUILDING-SCHOOL/UNIVERSITY INFILTRATION,ALWAYS ON DISCRETE,SP-WHOLEBUILDING-SCHOOL/UNIVERSITY SYS-3 FLR-3 SCH-D HPLCMT-SOUTH ZN,1875.00,234.5,9.500E-002,5.067E-005,2.500E-004,4.800E-002,0.000,0.000,0.224,0.000
 ZoneInfiltration Airflow Stats Nominal, WHOLEBUILDING-SPORTS ARENA INFILTRATION,ALWAYS ON DISCRETE,SP-WHOLEBUILDING-SPORTS ARENA SYS-6 FLR-3 SCH-B HPLCMT-EAST ZN,1875.00,187.6,9.500E-002,5.067E-005,2.500E-004,4.800E-002,0.000,0.000,0.224,0.000
 ZoneInfiltration Airflow Stats Nominal, WHOLEBUILDING-STORAGE GARAGE INFILTRATION,ALWAYS ON DISCRETE,SP-WHOLEBUILDING-STORAGE GARAGE SYS-4 FLR-3 SCH-K HPLCMT-NORTH ZN,1875.00,1.9,9.500E-002,5.067E-005,2.500E-004,4.800E-002,0.000,0.000,0.224,0.000
 ZoneInfiltration Airflow Stats Nominal, WHOLEBUILDING-TOWN HALL INFILTRATION,ALWAYS ON DISCRETE,SP-WHOLEBUILDING-TOWN HALL SYS-3 FLR-3 SCH-D HPLCMT-WEST ZN,1875.00,75.0,9.500E-002,5.067E-005,2.500E-004,4.800E-002,0.000,0.000,0.224,0.000
 ZoneInfiltration Airflow Stats Nominal, WHOLEBUILDING-TRANSPORTATION FACILITY INFILTRATION,ALWAYS ON DISCRETE,SP-WHOLEBUILDING-TRANSPORTATION FACILITY SYS-6 FLR-2 SCH-H HPLCMT-EAST ZN,1875.00,125.0,9.500E-002,5.067E-005,2.500E-004,4.800E-002,0.000,0.000,0.224,0.000
! <AirFlow Model>, Simple
 AirFlow Model, Simple
! <RoomAir Model>, Zone Name, Mixing/Mundt/UCSDDV/UCSDCV/UCSDUFI/UCSDUFE/User Defined
RoomAir Model,SP-ATRIUM (HEIGHT < 6M)-SCH-A-SPACE FUNCTION SYS-6 FLR-1 SCH-A HPLCMT-NORTH ZN,Mixing/Well-Stirred
RoomAir Model,SP-ATRIUM (HEIGHT < 6M)-SCH-B-SPACE FUNCTION SYS-6 FLR-1 SCH-B HPLCMT-SOUTH ZN,Mixing/Well-Stirred
RoomAir Model,SP-ATRIUM (HEIGHT < 6M)-SCH-C-SPACE FUNCTION SYS-6 FLR-1 SCH-C HPLCMT-CORE ZN,Mixing/Well-Stirred
RoomAir Model,SP-ATRIUM (HEIGHT < 6M)-SCH-D-SPACE FUNCTION SYS-6 FLR-2 SCH-D HPLCMT-WEST ZN,Mixing/Well-Stirred
RoomAir Model,SP-ATRIUM (HEIGHT < 6M)-SCH-E-SPACE FUNCTION SYS-6 FLR-2 SCH-E HPLCMT-NORTH ZN,Mixing/Well-Stirred
RoomAir Model,SP-ATRIUM (HEIGHT < 6M)-SCH-F-SPACE FUNCTION SYS-6 FLR-1 SCH-F HPLCMT-WEST ZN,Mixing/Well-Stirred
RoomAir Model,SP-ATRIUM (HEIGHT < 6M)-SCH-G-SPACE FUNCTION SYS-6 FLR-2 SCH-G HPLCMT-SOUTH ZN,Mixing/Well-Stirred
RoomAir Model,SP-WHOLEBUILDING-OFFICE SYS-6 FLR-4 SCH-A HPLCMT-EAST ZN,Mixing/Well-Stirred
RoomAir Model,SP-WHOLEBUILDING-PENITENTIARY SYS-3 FLR-4 SCH-H HPLCMT-NORTH ZN,Mixing/Well-Stirred
RoomAir Model,SP-WHOLEBUILDING-PERFORMING ARTS THEATRE SYS-3 FLR-4 SCH-C HPLCMT-SOUTH ZN,Mixing/Well-Stirred
RoomAir Model,SP-WHOLEBUILDING-POLICE STATION SYS-3 FLR-4 SCH-H HPLCMT-WEST ZN,Mixing/Well-Stirred
RoomAir Model,SP-WHOLEBUILDING-POST OFFICE SYS-6 FLR-3 SCH-A HPLCMT-CORE ZN,Mixing/Well-Stirred
RoomAir Model,SP-WHOLEBUILDING-RETAIL AREA SYS-6 FLR-4 SCH-C HPLCMT-CORE ZN,Mixing/Well-Stirred
RoomAir Model,SP-WHOLEBUILDING-SCHOOL/UNIVERSITY SYS-3 FLR-3 SCH-D HPLCMT-SOUTH ZN,Mixing/Well-Stirred
RoomAir Model,SP-WHOLEBUILDING-SPORTS ARENA SYS-6 FLR-3 SCH-B HPLCMT-EAST ZN,Mixing/Well-Stirred
RoomAir Model,SP-WHOLEBUILDING-STORAGE GARAGE SYS-4 FLR-3 SCH-K HPLCMT-NORTH ZN,Mixing/Well-Stirred
RoomAir Model,SP-WHOLEBUILDING-TOWN HALL SYS-3 FLR-3 SCH-D HPLCMT-WEST ZN,Mixing/Well-Stirred
RoomAir Model,SP-WHOLEBUILDING-TRANSPORTATION FACILITY SYS-6 FLR-2 SCH-H HPLCMT-EAST ZN,Mixing/Well-Stirred
RoomAir Model,SP-WHOLEBUILDING-WAREHOUSE SYS-4 FLR-1 SCH-A HPLCMT-EAST ZN,Mixing/Well-Stirred
RoomAir Model,SP-WHOLEBUILDING-WORKSHOP SYS-3 FLR-2 SCH-A HPLCMT-CORE ZN,Mixing/Well-Stirred
! <AirflowNetwork Model:Control>, No Multizone or Distribution/Multizone with Distribution/Multizone without Distribution/Multizone with Distribution only during Fan Operation
AirflowNetwork Model:Control,NoMultizoneOrDistribution
! <Zone Volume Capacitance Multiplier>, Sensible Heat Capacity Multiplier, Moisture Capacity Multiplier, Carbon Dioxide Capacity Multiplier, Generic Contaminant Capacity Multiplier
Zone Volume Capacitance Multiplier,   1.000 ,   1.000,   1.000,   1.000
! <Load Timesteps in Zone Design Calculation Averaging Window>, Value
 Load Timesteps in Zone Design Calculation Averaging Window,    6
! <Heating Sizing Factor Information>, Sizing Factor ID, Value
 Heating Sizing Factor Information, Global,   1.3000    
 Heating Sizing Factor Information, Zone SP-ATRIUM (HEIGHT < 6M)-SCH-A-SPACE FUNCTION SYS-6 FLR-1 SCH-A HPLCMT-NORTH ZN,   1.3000    
 Heating Sizing Factor Information, Zone SP-ATRIUM (HEIGHT < 6M)-SCH-B-SPACE FUNCTION SYS-6 FLR-1 SCH-B HPLCMT-SOUTH ZN,   1.3000    
 Heating Sizing Factor Information, Zone SP-ATRIUM (HEIGHT < 6M)-SCH-C-SPACE FUNCTION SYS-6 FLR-1 SCH-C HPLCMT-CORE ZN,   1.3000    
 Heating Sizing Factor Information, Zone SP-ATRIUM (HEIGHT < 6M)-SCH-D-SPACE FUNCTION SYS-6 FLR-2 SCH-D HPLCMT-WEST ZN,   1.3000    
 Heating Sizing Factor Information, Zone SP-ATRIUM (HEIGHT < 6M)-SCH-E-SPACE FUNCTION SYS-6 FLR-2 SCH-E HPLCMT-NORTH ZN,   1.3000    
 Heating Sizing Factor Information, Zone SP-ATRIUM (HEIGHT < 6M)-SCH-F-SPACE FUNCTION SYS-6 FLR-1 SCH-F HPLCMT-WEST ZN,   1.3000    
 Heating Sizing Factor Information, Zone SP-ATRIUM (HEIGHT < 6M)-SCH-G-SPACE FUNCTION SYS-6 FLR-2 SCH-G HPLCMT-SOUTH ZN,   1.3000    
 Heating Sizing Factor Information, Zone SP-WHOLEBUILDING-OFFICE SYS-6 FLR-4 SCH-A HPLCMT-EAST ZN,   1.3000    
 Heating Sizing Factor Information, Zone SP-WHOLEBUILDING-PENITENTIARY SYS-3 FLR-4 SCH-H HPLCMT-NORTH ZN,   1.3000    
 Heating Sizing Factor Information, Zone SP-WHOLEBUILDING-PERFORMING ARTS THEATRE SYS-3 FLR-4 SCH-C HPLCMT-SOUTH ZN,   1.3000    
 Heating Sizing Factor Information, Zone SP-WHOLEBUILDING-POLICE STATION SYS-3 FLR-4 SCH-H HPLCMT-WEST ZN,   1.3000    
 Heating Sizing Factor Information, Zone SP-WHOLEBUILDING-POST OFFICE SYS-6 FLR-3 SCH-A HPLCMT-CORE ZN,   1.3000    
 Heating Sizing Factor Information, Zone SP-WHOLEBUILDING-RETAIL AREA SYS-6 FLR-4 SCH-C HPLCMT-CORE ZN,   1.3000    
 Heating Sizing Factor Information, Zone SP-WHOLEBUILDING-SCHOOL/UNIVERSITY SYS-3 FLR-3 SCH-D HPLCMT-SOUTH ZN,   1.3000    
 Heating Sizing Factor Information, Zone SP-WHOLEBUILDING-SPORTS ARENA SYS-6 FLR-3 SCH-B HPLCMT-EAST ZN,   1.3000    
 Heating Sizing Factor Information, Zone SP-WHOLEBUILDING-STORAGE GARAGE SYS-4 FLR-3 SCH-K HPLCMT-NORTH ZN,   1.3000    
 Heating Sizing Factor Information, Zone SP-WHOLEBUILDING-TOWN HALL SYS-3 FLR-3 SCH-D HPLCMT-WEST ZN,   1.3000    
 Heating Sizing Factor Information, Zone SP-WHOLEBUILDING-TRANSPORTATION FACILITY SYS-6 FLR-2 SCH-H HPLCMT-EAST ZN,   1.3000    
 Heating Sizing Factor Information, Zone SP-WHOLEBUILDING-WAREHOUSE SYS-4 FLR-1 SCH-A HPLCMT-EAST ZN,   1.3000    
 Heating Sizing Factor Information, Zone SP-WHOLEBUILDING-WORKSHOP SYS-3 FLR-2 SCH-A HPLCMT-CORE ZN,   1.3000    
! <Cooling Sizing Factor Information>, Sizing Factor ID, Value
 Cooling Sizing Factor Information, Global,   1.1000    
 Cooling Sizing Factor Information, Zone SP-ATRIUM (HEIGHT < 6M)-SCH-A-SPACE FUNCTION SYS-6 FLR-1 SCH-A HPLCMT-NORTH ZN,   1.1000    
 Cooling Sizing Factor Information, Zone SP-ATRIUM (HEIGHT < 6M)-SCH-B-SPACE FUNCTION SYS-6 FLR-1 SCH-B HPLCMT-SOUTH ZN,   1.1000    
 Cooling Sizing Factor Information, Zone SP-ATRIUM (HEIGHT < 6M)-SCH-C-SPACE FUNCTION SYS-6 FLR-1 SCH-C HPLCMT-CORE ZN,   1.1000    
 Cooling Sizing Factor Information, Zone SP-ATRIUM (HEIGHT < 6M)-SCH-D-SPACE FUNCTION SYS-6 FLR-2 SCH-D HPLCMT-WEST ZN,   1.1000    
 Cooling Sizing Factor Information, Zone SP-ATRIUM (HEIGHT < 6M)-SCH-E-SPACE FUNCTION SYS-6 FLR-2 SCH-E HPLCMT-NORTH ZN,   1.1000    
 Cooling Sizing Factor Information, Zone SP-ATRIUM (HEIGHT < 6M)-SCH-F-SPACE FUNCTION SYS-6 FLR-1 SCH-F HPLCMT-WEST ZN,   1.1000    
 Cooling Sizing Factor Information, Zone SP-ATRIUM (HEIGHT < 6M)-SCH-G-SPACE FUNCTION SYS-6 FLR-2 SCH-G HPLCMT-SOUTH ZN,   1.1000    
 Cooling Sizing Factor Information, Zone SP-WHOLEBUILDING-OFFICE SYS-6 FLR-4 SCH-A HPLCMT-EAST ZN,   1.1000    
 Cooling Sizing Factor Information, Zone SP-WHOLEBUILDING-PENITENTIARY SYS-3 FLR-4 SCH-H HPLCMT-NORTH ZN,   1.1000    
 Cooling Sizing Factor Information, Zone SP-WHOLEBUILDING-PERFORMING ARTS THEATRE SYS-3 FLR-4 SCH-C HPLCMT-SOUTH ZN,   1.1000    
 Cooling Sizing Factor Information, Zone SP-WHOLEBUILDING-POLICE STATION SYS-3 FLR-4 SCH-H HPLCMT-WEST ZN,   1.1000    
 Cooling Sizing Factor Information, Zone SP-WHOLEBUILDING-POST OFFICE SYS-6 FLR-3 SCH-A HPLCMT-CORE ZN,   1.1000    
 Cooling Sizing Factor Information, Zone SP-WHOLEBUILDING-RETAIL AREA SYS-6 FLR-4 SCH-C HPLCMT-CORE ZN,   1.1000    
 Cooling Sizing Factor Information, Zone SP-WHOLEBUILDING-SCHOOL/UNIVERSITY SYS-3 FLR-3 SCH-D HPLCMT-SOUTH ZN,   1.1000    
 Cooling Sizing Factor Information, Zone SP-WHOLEBUILDING-SPORTS ARENA SYS-6 FLR-3 SCH-B HPLCMT-EAST ZN,   1.1000    
 Cooling Sizing Factor Information, Zone SP-WHOLEBUILDING-STORAGE GARAGE SYS-4 FLR-3 SCH-K HPLCMT-NORTH ZN,   1.1000    
 Cooling Sizing Factor Information, Zone SP-WHOLEBUILDING-TOWN HALL SYS-3 FLR-3 SCH-D HPLCMT-WEST ZN,   1.1000    
 Cooling Sizing Factor Information, Zone SP-WHOLEBUILDING-TRANSPORTATION FACILITY SYS-6 FLR-2 SCH-H HPLCMT-EAST ZN,   1.1000    
 Cooling Sizing Factor Information, Zone SP-WHOLEBUILDING-WAREHOUSE SYS-4 FLR-1 SCH-A HPLCMT-EAST ZN,   1.1000    
 Cooling Sizing Factor Information, Zone SP-WHOLEBUILDING-WORKSHOP SYS-3 FLR-2 SCH-A HPLCMT-CORE ZN,   1.1000    
! <Zone Sizing Information>, Zone Name, Load Type, Calc Des Load {W}, User Des Load {W}, Calc Des Air Flow Rate {m3/s}, User Des Air Flow Rate {m3/s}, Design Day Name, Date/Time of Peak, Temperature at Peak {C}, Humidity Ratio at Peak {kgWater/kgDryAir}, Floor Area {m2}, # Occupants, Calc Outdoor Air Flow Rate {m3/s}, Calc DOAS Heat Addition Rate {W}
 Zone Sizing Information, SP-ATRIUM (HEIGHT < 6M)-SCH-A-SPACE FUNCTION SYS-6 FLR-1 SCH-A HPLCMT-NORTH ZN, Cooling, 16657.13669, 18322.85036, 1.28760, 1.41636, FORT MCMURRAY AP ANN CLG .4% CONDNS DB=>MWB, 7/21 17:00:00, 27.16400, 8.76969E-003, 1875.00000, 187.56814, 0.57150, 0.00000
 Zone Sizing Information, SP-ATRIUM (HEIGHT < 6M)-SCH-A-SPACE FUNCTION SYS-6 FLR-1 SCH-A HPLCMT-NORTH ZN, Heating, 3266.85994, 4246.91792, 0.13076, 0.57150, FORT MCMURRAY AP ANN HTG 99.6% CONDNS DB, 1/21 08:00:00, -36.20000, 1.25811E-004, 1875.00000, 187.56814, 0.57150, 0.00000
 Zone Sizing Information, SP-ATRIUM (HEIGHT < 6M)-SCH-B-SPACE FUNCTION SYS-6 FLR-1 SCH-B HPLCMT-SOUTH ZN, Cooling, 16878.87265, 18566.75991, 1.30462, 1.43508, FORT MCMURRAY AP ANN CLG .4% CONDNS DB=>MWB, 7/21 20:10:00, 22.51400, 8.76969E-003, 1875.00000, 187.56814, 0.57150, 0.00000
 Zone Sizing Information, SP-ATRIUM (HEIGHT < 6M)-SCH-B-SPACE FUNCTION SYS-6 FLR-1 SCH-B HPLCMT-SOUTH ZN, Heating, 0.00000, 0.00000, 0.00000, 0.57150, FORT MCMURRAY AP ANN HTG 99.6% CONDNS DB, , -36.20000, 1.25811E-004, 1875.00000, 187.56814, 0.57150, 0.00000
 Zone Sizing Information, SP-ATRIUM (HEIGHT < 6M)-SCH-C-SPACE FUNCTION SYS-6 FLR-1 SCH-C HPLCMT-CORE ZN, Cooling, 21832.08095, 24015.28904, 1.68757, 1.85633, FORT MCMURRAY AP ANN CLG .4% CONDNS DB=>MWB, 7/21 17:00:00, 27.16400, 8.76969E-003, 2500.00000, 250.09086, 0.76200, 0.00000
 Zone Sizing Information, SP-ATRIUM (HEIGHT < 6M)-SCH-C-SPACE FUNCTION SYS-6 FLR-1 SCH-C HPLCMT-CORE ZN, Heating, 0.00000, 0.00000, 0.00000, 0.76200, FORT MCMURRAY AP ANN HTG 99.6% CONDNS DB, , -36.20000, 1.25811E-004, 2500.00000, 250.09086, 0.76200, 0.00000
 Zone Sizing Information, SP-ATRIUM (HEIGHT < 6M)-SCH-D-SPACE FUNCTION SYS-6 FLR-2 SCH-D HPLCMT-WEST ZN, Cooling, 32043.23295, 35247.55624, 2.47694, 2.72464, FORT MCMURRAY AP ANN CLG .4% CONDNS DB=>MWB, 7/21 16:10:00, 27.99067, 8.76969E-003, 1875.00000, 187.56814, 0.57150, 0.00000
 Zone Sizing Information, SP-ATRIUM (HEIGHT < 6M)-SCH-D-SPACE FUNCTION SYS-6 FLR-2 SCH-D HPLCMT-WEST ZN, Heating, 19598.00243, 25477.40316, 0.76367, 0.99277, FORT MCMURRAY AP ANN HTG 99.6% CONDNS DB, 1/21 09:00:00, -36.20000, 1.25811E-004, 1875.00000, 187.56814, 0.57150, 0.00000
 Zone Sizing Information, SP-ATRIUM (HEIGHT < 6M)-SCH-E-SPACE FUNCTION SYS-6 FLR-2 SCH-E HPLCMT-NORTH ZN, Cooling, 24566.40347, 27023.04382, 1.89890, 2.08880, FORT MCMURRAY AP ANN CLG .4% CONDNS DB=>MWB, 7/21 16:00:00, 28.15600, 8.76969E-003, 1875.00000, 187.56814, 0.57150, 0.00000
 Zone Sizing Information, SP-ATRIUM (HEIGHT < 6M)-SCH-E-SPACE FUNCTION SYS-6 FLR-2 SCH-E HPLCMT-NORTH ZN, Heating, 21330.92814, 27730.20658, 0.83405, 1.08426, FORT MCMURRAY AP ANN HTG 99.6% CONDNS DB, 1/21 09:00:00, -36.20000, 1.25811E-004, 1875.00000, 187.56814, 0.57150, 0.00000
 Zone Sizing Information, SP-ATRIUM (HEIGHT < 6M)-SCH-F-SPACE FUNCTION SYS-6 FLR-1 SCH-F HPLCMT-WEST ZN, Cooling, 12648.21192, 13913.03311, 0.97756, 1.07532, FORT MCMURRAY AP ANN CLG .4% CONDNS DB=>MWB, 7/21 24:00:00, 18.73200, 8.76969E-003, 1875.00000, 187.56814, 0.57150, 0.00000
 Zone Sizing Information, SP-ATRIUM (HEIGHT < 6M)-SCH-F-SPACE FUNCTION SYS-6 FLR-1 SCH-F HPLCMT-WEST ZN, Heating, 0.00000, 0.00000, 0.00000, 0.57150, FORT MCMURRAY AP ANN HTG 99.6% CONDNS DB, , -36.20000, 1.25811E-004, 1875.00000, 187.56814, 0.57150, 0.00000
 Zone Sizing Information, SP-ATRIUM (HEIGHT < 6M)-SCH-G-SPACE FUNCTION SYS-6 FLR-2 SCH-G HPLCMT-SOUTH ZN, Cooling, 24168.87745, 26585.76520, 1.86810, 2.05491, FORT MCMURRAY AP ANN CLG .4% CONDNS DB=>MWB, 7/21 20:00:00, 22.70000, 8.76969E-003, 1875.00000, 187.56814, 0.57150, 0.00000
 Zone Sizing Information, SP-ATRIUM (HEIGHT < 6M)-SCH-G-SPACE FUNCTION SYS-6 FLR-2 SCH-G HPLCMT-SOUTH ZN, Heating, 3288.02100, 4274.42729, 0.13324, 0.57150, FORT MCMURRAY AP ANN HTG 99.6% CONDNS DB, 1/21 11:20:00, -36.20000, 1.25811E-004, 1875.00000, 187.56814, 0.57150, 0.00000
 Zone Sizing Information, SP-WHOLEBUILDING-OFFICE SYS-6 FLR-4 SCH-A HPLCMT-EAST ZN, Cooling, 78585.29356, 86443.82292, 6.07375, 6.68113, FORT MCMURRAY AP ANN CLG .4% CONDNS DB=>MWB, 7/21 10:20:00, 24.80800, 8.76969E-003, 1875.00000, 75.02726, 0.75248, 0.00000
 Zone Sizing Information, SP-WHOLEBUILDING-OFFICE SYS-6 FLR-4 SCH-A HPLCMT-EAST ZN, Heating, 48125.44868, 62563.08329, 1.91822, 2.49368, FORT MCMURRAY AP ANN HTG 99.6% CONDNS DB, 1/21 08:00:00, -36.20000, 1.25811E-004, 1875.00000, 75.02726, 0.75248, 0.00000
 Zone Sizing Information, SP-WHOLEBUILDING-PENITENTIARY SYS-3 FLR-4 SCH-H HPLCMT-NORTH ZN, Cooling, 64382.41358, 70820.65494, 4.97599, 5.47359, FORT MCMURRAY AP ANN CLG .4% CONDNS DB=>MWB, 7/21 13:40:00, 28.69333, 8.76969E-003, 1875.00000, 62.52271, 0.71438, 0.00000
 Zone Sizing Information, SP-WHOLEBUILDING-PENITENTIARY SYS-3 FLR-4 SCH-H HPLCMT-NORTH ZN, Heating, 38927.68650, 50605.99244, 1.54607, 2.00989, FORT MCMURRAY AP ANN HTG 99.6% CONDNS DB, 1/21 09:00:00, -36.20000, 1.25811E-004, 1875.00000, 62.52271, 0.71438, 0.00000
 Zone Sizing Information, SP-WHOLEBUILDING-PERFORMING ARTS THEATRE SYS-3 FLR-4 SCH-C HPLCMT-SOUTH ZN, Cooling, 92071.10433, 101278.21476, 7.11683, 7.82852, FORT MCMURRAY AP ANN CLG .4% CONDNS DB=>MWB, 7/21 13:30:00, 28.59000, 8.76969E-003, 1875.00000, 234.46018, 1.12395, 0.00000
 Zone Sizing Information, SP-WHOLEBUILDING-PERFORMING ARTS THEATRE SYS-3 FLR-4 SCH-C HPLCMT-SOUTH ZN, Heating, 46551.07654, 60516.39951, 1.73550, 2.25615, FORT MCMURRAY AP ANN HTG 99.6% CONDNS DB, 1/21 08:10:00, -36.20000, 1.25811E-004, 1875.00000, 234.46018, 1.12395, 0.00000
 Zone Sizing Information, SP-WHOLEBUILDING-POLICE STATION SYS-3 FLR-4 SCH-H HPLCMT-WEST ZN, Cooling, 84961.25566, 93457.38123, 6.56658, 7.22324, FORT MCMURRAY AP ANN CLG .4% CONDNS DB=>MWB, 7/21 16:10:00, 27.99067, 8.76969E-003, 1875.00000, 75.02726, 0.75248, 0.00000
 Zone Sizing Information, SP-WHOLEBUILDING-POLICE STATION SYS-3 FLR-4 SCH-H HPLCMT-WEST ZN, Heating, 29369.68730, 38180.59348, 1.15961, 1.50750, FORT MCMURRAY AP ANN HTG 99.6% CONDNS DB, 1/21 09:00:00, -36.20000, 1.25811E-004, 1875.00000, 75.02726, 0.75248, 0.00000
 Zone Sizing Information, SP-WHOLEBUILDING-POST OFFICE SYS-6 FLR-3 SCH-A HPLCMT-CORE ZN, Cooling, 49848.08584, 54832.89442, 3.85273, 4.23800, FORT MCMURRAY AP ANN CLG .4% CONDNS DB=>MWB, 7/21 17:00:00, 27.16400, 8.76969E-003, 2500.00000, 100.03634, 1.87960, 0.00000
 Zone Sizing Information, SP-WHOLEBUILDING-POST OFFICE SYS-6 FLR-3 SCH-A HPLCMT-CORE ZN, Heating, 0.00000, 0.00000, 0.00000, 1.87960, FORT MCMURRAY AP ANN HTG 99.6% CONDNS DB, , -36.20000, 1.25811E-004, 2500.00000, 100.03634, 1.87960, 0.00000
 Zone Sizing Information, SP-WHOLEBUILDING-RETAIL AREA SYS-6 FLR-4 SCH-C HPLCMT-CORE ZN, Cooling, 85572.66677, 94129.93345, 6.61363, 7.27500, FORT MCMURRAY AP ANN CLG .4% CONDNS DB=>MWB, 7/21 13:40:00, 28.69333, 8.76969E-003, 2500.00000, 83.36362, 1.05410, 0.00000
 Zone Sizing Information, SP-WHOLEBUILDING-RETAIL AREA SYS-6 FLR-4 SCH-C HPLCMT-CORE ZN, Heating, 38276.11229, 49758.94597, 1.38155, 1.79602, FORT MCMURRAY AP ANN HTG 99.6% CONDNS DB, 1/21 08:00:00, -36.20000, 1.25811E-004, 2500.00000, 83.36362, 1.05410, 0.00000
 Zone Sizing Information, SP-WHOLEBUILDING-SCHOOL/UNIVERSITY SYS-3 FLR-3 SCH-D HPLCMT-SOUTH ZN, Cooling, 51154.71056, 56270.18162, 3.95434, 4.34977, FORT MCMURRAY AP ANN CLG .4% CONDNS DB=>MWB, 7/21 14:20:00, 28.90000, 8.76969E-003, 1875.00000, 234.46018, 1.40018, 0.00000
 Zone Sizing Information, SP-WHOLEBUILDING-SCHOOL/UNIVERSITY SYS-3 FLR-3 SCH-D HPLCMT-SOUTH ZN, Heating, 24198.98808, 31458.68451, 0.95002, 1.40018, FORT MCMURRAY AP ANN HTG 99.6% CONDNS DB, 1/21 09:00:00, -36.20000, 1.25811E-004, 1875.00000, 234.46018, 1.40018, 0.00000
 Zone Sizing Information, SP-WHOLEBUILDING-SPORTS ARENA SYS-6 FLR-3 SCH-B HPLCMT-EAST ZN, Cooling, 52490.16615, 57739.18277, 3.65574, 4.02132, FORT MCMURRAY AP ANN CLG .4% CONDNS DB=>MWB, 7/21 09:00:00, 22.08000, 8.76969E-003, 1875.00000, 187.56814, 1.23825, 0.00000
 Zone Sizing Information, SP-WHOLEBUILDING-SPORTS ARENA SYS-6 FLR-3 SCH-B HPLCMT-EAST ZN, Heating, 19195.26817, 24953.84862, 0.74759, 1.23825, FORT MCMURRAY AP ANN HTG 99.6% CONDNS DB, 1/21 10:00:00, -36.20000, 1.25811E-004, 1875.00000, 187.56814, 1.23825, 0.00000
 Zone Sizing Information, SP-WHOLEBUILDING-STORAGE GARAGE SYS-4 FLR-3 SCH-K HPLCMT-NORTH ZN, Cooling, 0.00000, 0.00000, 0.00000, 7.14375, FORT MCMURRAY AP ANN CLG .4% CONDNS DB=>MWB, , 28.90000, 8.76969E-003, 1875.00000, 1.87568, 7.14375, 0.00000
 Zone Sizing Information, SP-WHOLEBUILDING-STORAGE GARAGE SYS-4 FLR-3 SCH-K HPLCMT-NORTH ZN, Heating, 0.00000, 0.00000, 0.00000, 7.14375, FORT MCMURRAY AP ANN HTG 99.6% CONDNS DB, , -36.20000, 1.25811E-004, 1875.00000, 1.87568, 7.14375, 0.00000
 Zone Sizing Information, SP-WHOLEBUILDING-TOWN HALL SYS-3 FLR-3 SCH-D HPLCMT-WEST ZN, Cooling, 50285.37015, 55313.90717, 3.88650, 4.27516, FORT MCMURRAY AP ANN CLG .4% CONDNS DB=>MWB, 7/21 16:10:00, 27.99067, 8.76969E-003, 1875.00000, 75.02726, 0.75248, 0.00000
 Zone Sizing Information, SP-WHOLEBUILDING-TOWN HALL SYS-3 FLR-3 SCH-D HPLCMT-WEST ZN, Heating, 22269.82158, 28950.76805, 0.87228, 1.13397, FORT MCMURRAY AP ANN HTG 99.6% CONDNS DB, 1/21 09:00:00, -36.20000, 1.25811E-004, 1875.00000, 75.02726, 0.75248, 0.00000
 Zone Sizing Information, SP-WHOLEBUILDING-TRANSPORTATION FACILITY SYS-6 FLR-2 SCH-H HPLCMT-EAST ZN, Cooling, 38637.80255, 42501.58281, 2.98642, 3.28507, FORT MCMURRAY AP ANN CLG .4% CONDNS DB=>MWB, 7/21 09:20:00, 22.78267, 8.76969E-003, 1875.00000, 125.04543, 1.00965, 0.00000
 Zone Sizing Information, SP-WHOLEBUILDING-TRANSPORTATION FACILITY SYS-6 FLR-2 SCH-H HPLCMT-EAST ZN, Heating, 0.00000, 0.00000, 0.00000, 1.00965, FORT MCMURRAY AP ANN HTG 99.6% CONDNS DB, , -36.20000, 1.25811E-004, 1875.00000, 125.04543, 1.00965, 0.00000
 Zone Sizing Information, SP-WHOLEBUILDING-WAREHOUSE SYS-4 FLR-1 SCH-A HPLCMT-EAST ZN, Cooling, 13702.61759, 15072.87935, 1.05897, 1.16487, FORT MCMURRAY AP ANN CLG .4% CONDNS DB=>MWB, 7/21 12:30:00, 27.78400, 8.76969E-003, 1875.00000, 1.25045, 0.58103, 0.00000
 Zone Sizing Information, SP-WHOLEBUILDING-WAREHOUSE SYS-4 FLR-1 SCH-A HPLCMT-EAST ZN, Heating, 0.00000, 0.00000, 0.00000, 0.58103, FORT MCMURRAY AP ANN HTG 99.6% CONDNS DB, , -36.20000, 1.25811E-004, 1875.00000, 1.25045, 0.58103, 0.00000
 Zone Sizing Information, SP-WHOLEBUILDING-WORKSHOP SYS-3 FLR-2 SCH-A HPLCMT-CORE ZN, Cooling, 45580.18533, 50138.20386, 3.52282, 3.87510, FORT MCMURRAY AP ANN CLG .4% CONDNS DB=>MWB, 7/21 17:00:00, 27.16400, 8.76969E-003, 2500.00000, 83.36362, 2.67970, 0.00000
 Zone Sizing Information, SP-WHOLEBUILDING-WORKSHOP SYS-3 FLR-2 SCH-A HPLCMT-CORE ZN, Heating, 0.00000, 0.00000, 0.00000, 2.67970, FORT MCMURRAY AP ANN HTG 99.6% CONDNS DB, , -36.20000, 1.25811E-004, 2500.00000, 83.36362, 2.67970, 0.00000
! <System Sizing Information>, System Name, Load Type, Peak Load Kind, User Design Capacity, Calc Des Air Flow Rate [m3/s], User Des Air Flow Rate [m3/s], Design Day Name, Date/Time of Peak
 System Sizing Information, SYS_3_PSZ SP-WHOLEBUILDING-PENITENTIARY SYS-3 FLR-4 SCH-H HPLCMT-NORTH ZN, Cooling, Sensible, 73609.17, 5.47359, 5.47359, FORT MCMURRAY AP ANN CLG .4% CONDNS DB=>MWB, 7/21 05:00:00
 System Sizing Information, SYS_3_PSZ SP-WHOLEBUILDING-PENITENTIARY SYS-3 FLR-4 SCH-H HPLCMT-NORTH ZN, Heating, Sensible, 97367.50, 2.00989, 2.00989, FORT MCMURRAY AP ANN HTG 99.6% CONDNS DB, 1/21 09:00:00
 System Sizing Information, SYS_3_PSZ SP-WHOLEBUILDING-PERFORMING ARTS THEATRE SYS-3 FLR-4 SCH-C HPLCMT-SOUTH ZN, Cooling, Sensible, 105689.56, 7.82852, 7.82852, FORT MCMURRAY AP ANN CLG .4% CONDNS DB=>MWB, 7/21 05:00:00
 System Sizing Information, SYS_3_PSZ SP-WHOLEBUILDING-PERFORMING ARTS THEATRE SYS-3 FLR-4 SCH-C HPLCMT-SOUTH ZN, Heating, Sensible, 133041.21, 2.25615, 2.25615, FORT MCMURRAY AP ANN HTG 99.6% CONDNS DB, 1/21 08:30:00
 System Sizing Information, SYS_3_PSZ SP-WHOLEBUILDING-POLICE STATION SYS-3 FLR-4 SCH-H HPLCMT-WEST ZN, Cooling, Sensible, 95490.77, 7.22324, 7.22324, FORT MCMURRAY AP ANN CLG .4% CONDNS DB=>MWB, 7/21 05:00:00
 System Sizing Information, SYS_3_PSZ SP-WHOLEBUILDING-POLICE STATION SYS-3 FLR-4 SCH-H HPLCMT-WEST ZN, Heating, Sensible, 87611.33, 1.50750, 1.50750, FORT MCMURRAY AP ANN HTG 99.6% CONDNS DB, 1/21 09:00:00
 System Sizing Information, SYS_3_PSZ SP-WHOLEBUILDING-SCHOOL/UNIVERSITY SYS-3 FLR-3 SCH-D HPLCMT-SOUTH ZN, Cooling, Sensible, 63350.23, 4.34977, 4.34977, FORT MCMURRAY AP ANN CLG .4% CONDNS DB=>MWB, 7/21 05:00:00
 System Sizing Information, SYS_3_PSZ SP-WHOLEBUILDING-SCHOOL/UNIVERSITY SYS-3 FLR-3 SCH-D HPLCMT-SOUTH ZN, Heating, Sensible, 128429.74, 1.40018, 1.40018, FORT MCMURRAY AP ANN HTG 99.6% CONDNS DB, 1/21 00:10:00
 System Sizing Information, SYS_3_PSZ SP-WHOLEBUILDING-TOWN HALL SYS-3 FLR-3 SCH-D HPLCMT-WEST ZN, Cooling, Sensible, 57937.10, 4.27516, 4.27516, FORT MCMURRAY AP ANN CLG .4% CONDNS DB=>MWB, 7/21 05:00:00
 System Sizing Information, SYS_3_PSZ SP-WHOLEBUILDING-TOWN HALL SYS-3 FLR-3 SCH-D HPLCMT-WEST ZN, Heating, Sensible, 78489.52, 1.13397, 1.13397, FORT MCMURRAY AP ANN HTG 99.6% CONDNS DB, 1/21 09:00:00
 System Sizing Information, SYS_3_PSZ SP-WHOLEBUILDING-WORKSHOP SYS-3 FLR-2 SCH-A HPLCMT-CORE ZN, Cooling, Sensible, 59184.79, 3.87510, 3.87510, FORT MCMURRAY AP ANN CLG .4% CONDNS DB=>MWB, 7/21 05:00:00
 System Sizing Information, SYS_3_PSZ SP-WHOLEBUILDING-WORKSHOP SYS-3 FLR-2 SCH-A HPLCMT-CORE ZN, Heating, Sensible, 245792.98, 2.67970, 2.67970, FORT MCMURRAY AP ANN HTG 99.6% CONDNS DB, 1/21 00:10:00
 System Sizing Information, SYS_4_PSZ_SP-WHOLEBUILDING-STORAGE GARAGE SYS-4 FLR-3 SCH-K HPLCMT-NORTH ZN, Cooling, Sensible, 131547.16, 7.14375, 7.14375, FORT MCMURRAY AP ANN CLG .4% CONDNS DB=>MWB, 7/21 05:00:00
 System Sizing Information, SYS_4_PSZ_SP-WHOLEBUILDING-STORAGE GARAGE SYS-4 FLR-3 SCH-K HPLCMT-NORTH ZN, Heating, Sensible, 655253.80, 7.14375, 7.14375, FORT MCMURRAY AP ANN HTG 99.6% CONDNS DB, 1/21 00:10:00
 System Sizing Information, SYS_4_PSZ_SP-WHOLEBUILDING-WAREHOUSE SYS-4 FLR-1 SCH-A HPLCMT-EAST ZN, Cooling, Sensible, 17386.08, 1.16487, 1.16487, FORT MCMURRAY AP ANN CLG .4% CONDNS DB=>MWB, 7/21 05:00:00
 System Sizing Information, SYS_4_PSZ_SP-WHOLEBUILDING-WAREHOUSE SYS-4 FLR-1 SCH-A HPLCMT-EAST ZN, Heating, Sensible, 53293.98, 0.58103, 0.58103, FORT MCMURRAY AP ANN HTG 99.6% CONDNS DB, 1/21 00:10:00
 System Sizing Information, SYS_6_VAV WITH REHEAT, Cooling, Sensible, 74934.68, 5.78309, 5.78309, FORT MCMURRAY AP ANN CLG .4% CONDNS DB=>MWB, 7/21 00:00:00
 System Sizing Information, SYS_6_VAV WITH REHEAT, Heating, Sensible, 141398.03, 2.47650, 2.47650, FORT MCMURRAY AP ANN HTG 99.6% CONDNS DB, 1/21 00:10:00
 System Sizing Information, SYS_6_VAV WITH REHEAT 1, Cooling, Sensible, 133335.99, 10.15341, 10.15341, FORT MCMURRAY AP ANN CLG .4% CONDNS DB=>MWB, 7/21 00:00:00
 System Sizing Information, SYS_6_VAV WITH REHEAT 1, Heating, Sensible, 146177.26, 3.65819, 3.65819, FORT MCMURRAY AP ANN HTG 99.6% CONDNS DB, 1/21 08:10:00
 System Sizing Information, SYS_6_VAV WITH REHEAT 2, Cooling, Sensible, 107558.84, 8.25932, 8.25932, FORT MCMURRAY AP ANN CLG .4% CONDNS DB=>MWB, 7/21 00:00:00
 System Sizing Information, SYS_6_VAV WITH REHEAT 2, Heating, Sensible, 178016.50, 3.11785, 3.11785, FORT MCMURRAY AP ANN HTG 99.6% CONDNS DB, 1/21 00:10:00
 System Sizing Information, SYS_6_VAV WITH REHEAT 3, Cooling, Sensible, 183711.08, 13.95612, 13.95612, FORT MCMURRAY AP ANN CLG .4% CONDNS DB=>MWB, 7/21 00:00:00
 System Sizing Information, SYS_6_VAV WITH REHEAT 3, Heating, Sensible, 80571.00, 4.28970, 4.28970, FORT MCMURRAY AP ANN HTG 99.6% CONDNS DB, 1/21 21:40:00
! <Component Sizing Information>, Component Type, Component Name, Input Field Description, Value
 Component Sizing Information, AirTerminal:SingleDuct:VAV:Reheat, AIR TERMINAL SINGLE DUCT VAV REHEAT 1, Design Size Maximum Air Flow Rate [m3/s], 1.41636
 Component Sizing Information, AirTerminal:SingleDuct:VAV:Reheat, AIR TERMINAL SINGLE DUCT VAV REHEAT 1, Design Size Constant Minimum Air Flow Fraction, 1.00000
 Component Sizing Information, AirTerminal:SingleDuct:VAV:Reheat, AIR TERMINAL SINGLE DUCT VAV REHEAT 1, User-Specified Constant Minimum Air Flow Fraction, 0.30000
 Component Sizing Information, AirTerminal:SingleDuct:VAV:Reheat, AIR TERMINAL SINGLE DUCT VAV REHEAT 1, Design Size Minimum Air Flow Rate [m3/s], 0.42491
 Component Sizing Information, AirTerminal:SingleDuct:VAV:Reheat, AIR TERMINAL SINGLE DUCT VAV REHEAT 1, Design Size Maximum Flow per Zone Floor Area during Reheat [m3/s-m2], 2.26618E-004
 Component Sizing Information, AirTerminal:SingleDuct:VAV:Reheat, AIR TERMINAL SINGLE DUCT VAV REHEAT 1, Design Size Maximum Flow Fraction during Reheat [], 0.30000
 Component Sizing Information, AirTerminal:SingleDuct:VAV:Reheat, AIR TERMINAL SINGLE DUCT VAV REHEAT 1, Design Size Maximum Reheat Water Flow Rate [m3/s], 1.33092E-004
 Component Sizing Information, AirTerminal:SingleDuct:VAV:Reheat, AIR TERMINAL SINGLE DUCT VAV REHEAT 1, Design Size Reheat Coil Sizing Air Volume Flow Rate [m3/s], 0.42491
 Component Sizing Information, AirTerminal:SingleDuct:VAV:Reheat, AIR TERMINAL SINGLE DUCT VAV REHEAT 1, Design Size Reheat Coil Sizing Inlet Air Temperature [C], 13.10000
 Component Sizing Information, AirTerminal:SingleDuct:VAV:Reheat, AIR TERMINAL SINGLE DUCT VAV REHEAT 1, Design Size Reheat Coil Sizing Inlet Air Humidity Ratio [kgWater/kgDryAir], 8.00000E-003
 Component Sizing Information, Coil:Heating:Water, COIL HEATING WATER 2, Design Size Rated Capacity [W], 8910.93680
 Component Sizing Information, Coil:Heating:Water, COIL HEATING WATER 2, Design Size Maximum Water Flow Rate [m3/s], 1.33092E-004
 Component Sizing Information, Coil:Heating:Water, COIL HEATING WATER 2, Design Size U-Factor Times Area Value [W/K], 178.71806
! <Water Heating Coil Capacity Information>,Component Type,Name,Nominal Total Capacity {W}
Water Heating Coil Capacity Information,Coil:Heating:Water,COIL HEATING WATER 2,8362.63
 Component Sizing Information, ZoneHVAC:Baseboard:Convective:Water, ZONE HVAC BASEBOARD CONVECTIVE WATER 9, Design Size Maximum Water Flow Rate [m3/s], 6.34312E-005
 Component Sizing Information, ZoneHVAC:Baseboard:Convective:Water, ZONE HVAC BASEBOARD CONVECTIVE WATER 9, Design Size U-Factor Times Area Value [W/K], 128.23785
 Component Sizing Information, AirTerminal:SingleDuct:VAV:Reheat, AIR TERMINAL SINGLE DUCT VAV REHEAT 2, Design Size Maximum Air Flow Rate [m3/s], 1.43508
 Component Sizing Information, AirTerminal:SingleDuct:VAV:Reheat, AIR TERMINAL SINGLE DUCT VAV REHEAT 2, Design Size Constant Minimum Air Flow Fraction, 0.99559
 Component Sizing Information, AirTerminal:SingleDuct:VAV:Reheat, AIR TERMINAL SINGLE DUCT VAV REHEAT 2, User-Specified Constant Minimum Air Flow Fraction, 0.30000
 Component Sizing Information, AirTerminal:SingleDuct:VAV:Reheat, AIR TERMINAL SINGLE DUCT VAV REHEAT 2, Design Size Minimum Air Flow Rate [m3/s], 0.43052
 Component Sizing Information, AirTerminal:SingleDuct:VAV:Reheat, AIR TERMINAL SINGLE DUCT VAV REHEAT 2, Design Size Maximum Flow per Zone Floor Area during Reheat [m3/s-m2], 2.29613E-004
 Component Sizing Information, AirTerminal:SingleDuct:VAV:Reheat, AIR TERMINAL SINGLE DUCT VAV REHEAT 2, Design Size Maximum Flow Fraction during Reheat [], 0.30000
 Component Sizing Information, AirTerminal:SingleDuct:VAV:Reheat, AIR TERMINAL SINGLE DUCT VAV REHEAT 2, Design Size Maximum Reheat Water Flow Rate [m3/s], 6.84009E-005
 Component Sizing Information, AirTerminal:SingleDuct:VAV:Reheat, AIR TERMINAL SINGLE DUCT VAV REHEAT 2, Design Size Reheat Coil Sizing Air Volume Flow Rate [m3/s], 0.43052
 Component Sizing Information, AirTerminal:SingleDuct:VAV:Reheat, AIR TERMINAL SINGLE DUCT VAV REHEAT 2, Design Size Reheat Coil Sizing Inlet Air Temperature [C], 13.10000
 Component Sizing Information, AirTerminal:SingleDuct:VAV:Reheat, AIR TERMINAL SINGLE DUCT VAV REHEAT 2, Design Size Reheat Coil Sizing Inlet Air Humidity Ratio [kgWater/kgDryAir], 8.00000E-003
 Component Sizing Information, Coil:Heating:Water, COIL HEATING WATER 3, Design Size Rated Capacity [W], 4579.65452
 Component Sizing Information, Coil:Heating:Water, COIL HEATING WATER 3, Design Size Maximum Water Flow Rate [m3/s], 6.84009E-005
 Component Sizing Information, Coil:Heating:Water, COIL HEATING WATER 3, Design Size U-Factor Times Area Value [W/K], 82.57269
Water Heating Coil Capacity Information,Coil:Heating:Water,COIL HEATING WATER 3,4294.06
 Component Sizing Information, ZoneHVAC:Baseboard:Convective:Water, ZONE HVAC BASEBOARD CONVECTIVE WATER 10, Design Size Maximum Water Flow Rate [m3/s], 0.00000
 Component Sizing Information, ZoneHVAC:Baseboard:Convective:Water, ZONE HVAC BASEBOARD CONVECTIVE WATER 10, Design Size U-Factor Times Area Value [W/K], 0.00000
 Component Sizing Information, AirTerminal:SingleDuct:VAV:Reheat, AIR TERMINAL SINGLE DUCT VAV REHEAT 3, Design Size Maximum Air Flow Rate [m3/s], 1.85633
 Component Sizing Information, AirTerminal:SingleDuct:VAV:Reheat, AIR TERMINAL SINGLE DUCT VAV REHEAT 3, Design Size Constant Minimum Air Flow Fraction, 1.00000
 Component Sizing Information, AirTerminal:SingleDuct:VAV:Reheat, AIR TERMINAL SINGLE DUCT VAV REHEAT 3, User-Specified Constant Minimum Air Flow Fraction, 0.30000
 Component Sizing Information, AirTerminal:SingleDuct:VAV:Reheat, AIR TERMINAL SINGLE DUCT VAV REHEAT 3, Design Size Minimum Air Flow Rate [m3/s], 0.55690
 Component Sizing Information, AirTerminal:SingleDuct:VAV:Reheat, AIR TERMINAL SINGLE DUCT VAV REHEAT 3, Design Size Maximum Flow per Zone Floor Area during Reheat [m3/s-m2], 2.22759E-004
 Component Sizing Information, AirTerminal:SingleDuct:VAV:Reheat, AIR TERMINAL SINGLE DUCT VAV REHEAT 3, Design Size Maximum Flow Fraction during Reheat [], 0.30000
 Component Sizing Information, AirTerminal:SingleDuct:VAV:Reheat, AIR TERMINAL SINGLE DUCT VAV REHEAT 3, Design Size Maximum Reheat Water Flow Rate [m3/s], 8.84787E-005
 Component Sizing Information, AirTerminal:SingleDuct:VAV:Reheat, AIR TERMINAL SINGLE DUCT VAV REHEAT 3, Design Size Reheat Coil Sizing Air Volume Flow Rate [m3/s], 0.55690
 Component Sizing Information, AirTerminal:SingleDuct:VAV:Reheat, AIR TERMINAL SINGLE DUCT VAV REHEAT 3, Design Size Reheat Coil Sizing Inlet Air Temperature [C], 13.10000
 Component Sizing Information, AirTerminal:SingleDuct:VAV:Reheat, AIR TERMINAL SINGLE DUCT VAV REHEAT 3, Design Size Reheat Coil Sizing Inlet Air Humidity Ratio [kgWater/kgDryAir], 8.00000E-003
 Component Sizing Information, Coil:Heating:Water, COIL HEATING WATER 4, Design Size Rated Capacity [W], 5923.93026
 Component Sizing Information, Coil:Heating:Water, COIL HEATING WATER 4, Design Size Maximum Water Flow Rate [m3/s], 8.84787E-005
 Component Sizing Information, Coil:Heating:Water, COIL HEATING WATER 4, Design Size U-Factor Times Area Value [W/K], 106.81043
Water Heating Coil Capacity Information,Coil:Heating:Water,COIL HEATING WATER 4,5554.51
 Component Sizing Information, ZoneHVAC:Baseboard:Convective:Water, ZONE HVAC BASEBOARD CONVECTIVE WATER 11, Design Size Maximum Water Flow Rate [m3/s], 0.00000
 Component Sizing Information, ZoneHVAC:Baseboard:Convective:Water, ZONE HVAC BASEBOARD CONVECTIVE WATER 11, Design Size U-Factor Times Area Value [W/K], 0.00000
 Component Sizing Information, AirTerminal:SingleDuct:VAV:Reheat, AIR TERMINAL SINGLE DUCT VAV REHEAT 5, Design Size Maximum Air Flow Rate [m3/s], 2.72464
 Component Sizing Information, AirTerminal:SingleDuct:VAV:Reheat, AIR TERMINAL SINGLE DUCT VAV REHEAT 5, Design Size Constant Minimum Air Flow Fraction, 0.52438
 Component Sizing Information, AirTerminal:SingleDuct:VAV:Reheat, AIR TERMINAL SINGLE DUCT VAV REHEAT 5, User-Specified Constant Minimum Air Flow Fraction, 0.30000
 Component Sizing Information, AirTerminal:SingleDuct:VAV:Reheat, AIR TERMINAL SINGLE DUCT VAV REHEAT 5, Design Size Minimum Air Flow Rate [m3/s], 0.81739
 Component Sizing Information, AirTerminal:SingleDuct:VAV:Reheat, AIR TERMINAL SINGLE DUCT VAV REHEAT 5, Design Size Maximum Flow per Zone Floor Area during Reheat [m3/s-m2], 4.35942E-004
 Component Sizing Information, AirTerminal:SingleDuct:VAV:Reheat, AIR TERMINAL SINGLE DUCT VAV REHEAT 5, Design Size Maximum Flow Fraction during Reheat [], 0.30000
 Component Sizing Information, AirTerminal:SingleDuct:VAV:Reheat, AIR TERMINAL SINGLE DUCT VAV REHEAT 5, Design Size Maximum Reheat Water Flow Rate [m3/s], 5.46192E-004
 Component Sizing Information, AirTerminal:SingleDuct:VAV:Reheat, AIR TERMINAL SINGLE DUCT VAV REHEAT 5, Design Size Reheat Coil Sizing Air Volume Flow Rate [m3/s], 0.99277
 Component Sizing Information, AirTerminal:SingleDuct:VAV:Reheat, AIR TERMINAL SINGLE DUCT VAV REHEAT 5, Design Size Reheat Coil Sizing Inlet Air Temperature [C], 13.10000
 Component Sizing Information, AirTerminal:SingleDuct:VAV:Reheat, AIR TERMINAL SINGLE DUCT VAV REHEAT 5, Design Size Reheat Coil Sizing Inlet Air Humidity Ratio [kgWater/kgDryAir], 8.00000E-003
 Component Sizing Information, Coil:Heating:Water, COIL HEATING WATER 7, Design Size Rated Capacity [W], 36569.31346
 Component Sizing Information, Coil:Heating:Water, COIL HEATING WATER 7, Design Size Maximum Water Flow Rate [m3/s], 5.46192E-004
 Component Sizing Information, Coil:Heating:Water, COIL HEATING WATER 7, Design Size U-Factor Times Area Value [W/K], 839.49057
Water Heating Coil Capacity Information,Coil:Heating:Water,COIL HEATING WATER 7,32557.95
 Component Sizing Information, ZoneHVAC:Baseboard:Convective:Water, ZONE HVAC BASEBOARD CONVECTIVE WATER 13, Design Size Maximum Water Flow Rate [m3/s], 3.80526E-004
 Component Sizing Information, ZoneHVAC:Baseboard:Convective:Water, ZONE HVAC BASEBOARD CONVECTIVE WATER 13, Design Size U-Factor Times Area Value [W/K], 772.30616
 Component Sizing Information, AirTerminal:SingleDuct:VAV:Reheat, AIR TERMINAL SINGLE DUCT VAV REHEAT 6, Design Size Maximum Air Flow Rate [m3/s], 2.08880
 Component Sizing Information, AirTerminal:SingleDuct:VAV:Reheat, AIR TERMINAL SINGLE DUCT VAV REHEAT 6, Design Size Constant Minimum Air Flow Fraction, 0.68401
 Component Sizing Information, AirTerminal:SingleDuct:VAV:Reheat, AIR TERMINAL SINGLE DUCT VAV REHEAT 6, User-Specified Constant Minimum Air Flow Fraction, 0.30000
 Component Sizing Information, AirTerminal:SingleDuct:VAV:Reheat, AIR TERMINAL SINGLE DUCT VAV REHEAT 6, Design Size Minimum Air Flow Rate [m3/s], 0.62664
 Component Sizing Information, AirTerminal:SingleDuct:VAV:Reheat, AIR TERMINAL SINGLE DUCT VAV REHEAT 6, Design Size Maximum Flow per Zone Floor Area during Reheat [m3/s-m2], 3.34207E-004
 Component Sizing Information, AirTerminal:SingleDuct:VAV:Reheat, AIR TERMINAL SINGLE DUCT VAV REHEAT 6, Design Size Maximum Flow Fraction during Reheat [], 0.30000
 Component Sizing Information, AirTerminal:SingleDuct:VAV:Reheat, AIR TERMINAL SINGLE DUCT VAV REHEAT 6, Design Size Maximum Reheat Water Flow Rate [m3/s], 5.95004E-004
 Component Sizing Information, AirTerminal:SingleDuct:VAV:Reheat, AIR TERMINAL SINGLE DUCT VAV REHEAT 6, Design Size Reheat Coil Sizing Air Volume Flow Rate [m3/s], 1.08426
 Component Sizing Information, AirTerminal:SingleDuct:VAV:Reheat, AIR TERMINAL SINGLE DUCT VAV REHEAT 6, Design Size Reheat Coil Sizing Inlet Air Temperature [C], 13.10000
 Component Sizing Information, AirTerminal:SingleDuct:VAV:Reheat, AIR TERMINAL SINGLE DUCT VAV REHEAT 6, Design Size Reheat Coil Sizing Inlet Air Humidity Ratio [kgWater/kgDryAir], 8.00000E-003
 Component Sizing Information, Coil:Heating:Water, COIL HEATING WATER 8, Design Size Rated Capacity [W], 39837.37540
 Component Sizing Information, Coil:Heating:Water, COIL HEATING WATER 8, Design Size Maximum Water Flow Rate [m3/s], 5.95004E-004
 Component Sizing Information, Coil:Heating:Water, COIL HEATING WATER 8, Design Size U-Factor Times Area Value [W/K], 913.62557
Water Heating Coil Capacity Information,Coil:Heating:Water,COIL HEATING WATER 8,31317.37
 Component Sizing Information, ZoneHVAC:Baseboard:Convective:Water, ZONE HVAC BASEBOARD CONVECTIVE WATER 14, Design Size Maximum Water Flow Rate [m3/s], 4.14173E-004
 Component Sizing Information, ZoneHVAC:Baseboard:Convective:Water, ZONE HVAC BASEBOARD CONVECTIVE WATER 14, Design Size U-Factor Times Area Value [W/K], 840.84158
 Component Sizing Information, AirTerminal:SingleDuct:VAV:Reheat, AIR TERMINAL SINGLE DUCT VAV REHEAT 4, Design Size Maximum Air Flow Rate [m3/s], 1.07532
 Component Sizing Information, AirTerminal:SingleDuct:VAV:Reheat, AIR TERMINAL SINGLE DUCT VAV REHEAT 4, Design Size Constant Minimum Air Flow Fraction, 1.00000
 Component Sizing Information, AirTerminal:SingleDuct:VAV:Reheat, AIR TERMINAL SINGLE DUCT VAV REHEAT 4, User-Specified Constant Minimum Air Flow Fraction, 0.30000
 Component Sizing Information, AirTerminal:SingleDuct:VAV:Reheat, AIR TERMINAL SINGLE DUCT VAV REHEAT 4, Design Size Minimum Air Flow Rate [m3/s], 0.32260
 Component Sizing Information, AirTerminal:SingleDuct:VAV:Reheat, AIR TERMINAL SINGLE DUCT VAV REHEAT 4, Design Size Maximum Flow per Zone Floor Area during Reheat [m3/s-m2], 1.72051E-004
 Component Sizing Information, AirTerminal:SingleDuct:VAV:Reheat, AIR TERMINAL SINGLE DUCT VAV REHEAT 4, Design Size Maximum Flow Fraction during Reheat [], 0.30000
 Component Sizing Information, AirTerminal:SingleDuct:VAV:Reheat, AIR TERMINAL SINGLE DUCT VAV REHEAT 4, Design Size Maximum Reheat Water Flow Rate [m3/s], 5.12533E-005
 Component Sizing Information, AirTerminal:SingleDuct:VAV:Reheat, AIR TERMINAL SINGLE DUCT VAV REHEAT 4, Design Size Reheat Coil Sizing Air Volume Flow Rate [m3/s], 0.32260
 Component Sizing Information, AirTerminal:SingleDuct:VAV:Reheat, AIR TERMINAL SINGLE DUCT VAV REHEAT 4, Design Size Reheat Coil Sizing Inlet Air Temperature [C], 13.10000
 Component Sizing Information, AirTerminal:SingleDuct:VAV:Reheat, AIR TERMINAL SINGLE DUCT VAV REHEAT 4, Design Size Reheat Coil Sizing Inlet Air Humidity Ratio [kgWater/kgDryAir], 8.00000E-003
 Component Sizing Information, Coil:Heating:Water, COIL HEATING WATER 5, Design Size Rated Capacity [W], 3431.56788
 Component Sizing Information, Coil:Heating:Water, COIL HEATING WATER 5, Design Size Maximum Water Flow Rate [m3/s], 5.12533E-005
 Component Sizing Information, Coil:Heating:Water, COIL HEATING WATER 5, Design Size U-Factor Times Area Value [W/K], 61.87231
Water Heating Coil Capacity Information,Coil:Heating:Water,COIL HEATING WATER 5,3217.57
 Component Sizing Information, ZoneHVAC:Baseboard:Convective:Water, ZONE HVAC BASEBOARD CONVECTIVE WATER 12, Design Size Maximum Water Flow Rate [m3/s], 0.00000
 Component Sizing Information, ZoneHVAC:Baseboard:Convective:Water, ZONE HVAC BASEBOARD CONVECTIVE WATER 12, Design Size U-Factor Times Area Value [W/K], 0.00000
 Component Sizing Information, AirTerminal:SingleDuct:VAV:Reheat, AIR TERMINAL SINGLE DUCT VAV REHEAT 7, Design Size Maximum Air Flow Rate [m3/s], 2.05491
 Component Sizing Information, AirTerminal:SingleDuct:VAV:Reheat, AIR TERMINAL SINGLE DUCT VAV REHEAT 7, Design Size Constant Minimum Air Flow Fraction, 0.69529
[...]
 Component Sizing Information, Fan:VariableVolume, SYS6 SUPPLY FAN 2, Design Size Maximum Flow Rate [m3/s], 8.25932
 Component Sizing Information, Controller:WaterCoil, CONTROLLER WATER COIL 14, Maximum Actuated Flow [m3/s], 5.54537E-003
 Component Sizing Information, Controller:WaterCoil, CONTROLLER WATER COIL 14, Controller Convergence Tolerance, 8.58717E-005
 Component Sizing Information, Controller:WaterCoil, CONTROLLER WATER COIL 13, Maximum Actuated Flow [m3/s], 2.11300E-003
 Component Sizing Information, Controller:WaterCoil, CONTROLLER WATER COIL 13, Controller Convergence Tolerance, 2.25362E-004
 Component Sizing Information, Fan:VariableVolume, SYS6 RETURN FAN 3, Design Size Maximum Flow Rate [m3/s], 13.95612
 Component Sizing Information, Controller:OutdoorAir, CONTROLLER OUTDOOR AIR 12, Maximum Outdoor Air Flow Rate [m3/s], 13.95612
 Component Sizing Information, Controller:OutdoorAir, CONTROLLER OUTDOOR AIR 12, Minimum Outdoor Air Flow Rate [m3/s], 1.80658
 Component Sizing Information, Coil:Cooling:Water, COIL COOLING WATER 4, Design Size Design Coil Load [W], 239206.05597
 Component Sizing Information, Coil:Cooling:Water, COIL COOLING WATER 4, Design Size Design Water Flow Rate [m3/s], 9.49779E-003
 Component Sizing Information, Coil:Cooling:Water, COIL COOLING WATER 4, Design Size Design Air Flow Rate [m3/s], 13.95612
 Component Sizing Information, Coil:Cooling:Water, COIL COOLING WATER 4, Design Size Design Inlet Air Temperature [C], 24.36612
 Component Sizing Information, Coil:Cooling:Water, COIL COOLING WATER 4, Design Size Design Inlet Water Temperature [C], 7.00000
 Component Sizing Information, Coil:Cooling:Water, COIL COOLING WATER 4, Design Size Design Outlet Air Temperature [C], 13.00000
 Component Sizing Information, Coil:Cooling:Water, COIL COOLING WATER 4, Design Size Design Inlet Air Humidity Ratio, 8.71155E-003
 Component Sizing Information, Coil:Cooling:Water, COIL COOLING WATER 4, Design Size Design Outlet Air Humidity Ratio, 8.71155E-003
Water Cooling Coil Capacity Information,Coil:Cooling:Water,COIL COOLING WATER 4,326473.95,227541.74,98932.21,0.70,39130.73,396.89
 Component Sizing Information, Coil:Heating:Water, COIL HEATING WATER 14, Design Size Rated Capacity [W], 81506.21638
 Component Sizing Information, Coil:Heating:Water, COIL HEATING WATER 14, Design Size Maximum Water Flow Rate [m3/s], 1.21736E-003
 Component Sizing Information, Coil:Heating:Water, COIL HEATING WATER 14, Design Size U-Factor Times Area Value [W/K], 1244.26830
Water Heating Coil Capacity Information,Coil:Heating:Water,COIL HEATING WATER 14,62550.06
 Component Sizing Information, Fan:VariableVolume, SYS6 SUPPLY FAN 3, Design Size Maximum Flow Rate [m3/s], 13.95612
 Component Sizing Information, Controller:WaterCoil, CONTROLLER WATER COIL 18, Maximum Actuated Flow [m3/s], 9.49779E-003
 Component Sizing Information, Controller:WaterCoil, CONTROLLER WATER COIL 18, Controller Convergence Tolerance, 5.01370E-005
 Component Sizing Information, Controller:WaterCoil, CONTROLLER WATER COIL 17, Maximum Actuated Flow [m3/s], 1.21736E-003
 Component Sizing Information, Controller:WaterCoil, CONTROLLER WATER COIL 17, Controller Convergence Tolerance, 3.91166E-004
Water Heater Information,WaterHeater:Mixed,748GAL NATURALGAS WATER HEATER - 505KBTU/HR,2.8319,147971.2,0.248,0.7231
 Component Sizing Information, PlantLoop, CHILLED WATER LOOP, Maximum Loop Flow Rate [m3/s], 2.73470E-002
 Component Sizing Information, PlantLoop, CHILLED WATER LOOP, Plant Loop Volume [m3], 3.28164
 Component Sizing Information, Pump:ConstantSpeed, PUMP CONSTANT SPEED 1, Design Flow Rate [m3/s], 2.73470E-002
 Component Sizing Information, Pump:ConstantSpeed, PUMP CONSTANT SPEED 1, Design Power Consumption [W], 6986.80251
 Component Sizing Information, Chiller:Electric:EIR, PRIMARY CHILLER WATERCOOLED SCROLL, Design Size Reference Chilled Water Flow Rate [m3/s], 2.73470E-002
 Component Sizing Information, Chiller:Electric:EIR, PRIMARY CHILLER WATERCOOLED SCROLL, Design Size Reference Capacity [W], 688733.96111
 Component Sizing Information, Chiller:Electric:EIR, PRIMARY CHILLER WATERCOOLED SCROLL, Design Size Reference Condenser Fluid Flow Rate [m3/s], 3.24587E-002
! <Chiller Standard Rating Information>, Component Type, Component Name, IPLV in SI Units {W/W}, IPLV in IP Units {Btu/W-h}
 Chiller Standard Rating Information, Chiller:Electric:EIR, PRIMARY CHILLER WATERCOOLED SCROLL, 7.88, 26.88
 Component Sizing Information, Chiller:Electric:EIR, SECONDARY CHILLER WATERCOOLED SCROLL, Design Size Reference Chilled Water Flow Rate [m3/s], 2.73470E-002
 Component Sizing Information, Chiller:Electric:EIR, SECONDARY CHILLER WATERCOOLED SCROLL, Design Size Reference Capacity [W], 688733.96111
 Component Sizing Information, Chiller:Electric:EIR, SECONDARY CHILLER WATERCOOLED SCROLL, Design Size Reference Condenser Fluid Flow Rate [m3/s], 3.24587E-002
 Chiller Standard Rating Information, Chiller:Electric:EIR, SECONDARY CHILLER WATERCOOLED SCROLL, 7.88, 26.88
 Component Sizing Information, PlantLoop, CONDENSER WATER LOOP, Maximum Loop Flow Rate [m3/s], 6.49174E-002
 Component Sizing Information, PlantLoop, CONDENSER WATER LOOP, Plant Loop Volume [m3], 7.79009
 Component Sizing Information, Pump:ConstantSpeed, PUMP CONSTANT SPEED 2, Design Flow Rate [m3/s], 6.49174E-002
 Component Sizing Information, Pump:ConstantSpeed, PUMP CONSTANT SPEED 2, Design Power Consumption [W], 16585.57410
 Component Sizing Information, CoolingTower:SingleSpeed, COOLING TOWER SINGLE SPEED 1, Design Water Flow Rate [m3/s], 6.49174E-002
 Component Sizing Information, CoolingTower:SingleSpeed, COOLING TOWER SINGLE SPEED 1, Fan Power at Design Air Flow Rate [W], 14243.99793
 Component Sizing Information, CoolingTower:SingleSpeed, COOLING TOWER SINGLE SPEED 1, Design Air Flow Rate [m3/s], 39.16814
 Component Sizing Information, CoolingTower:SingleSpeed, COOLING TOWER SINGLE SPEED 1, U-Factor Times Area Value at Design Air Flow Rate [W/C], 69943.84335
 Component Sizing Information, CoolingTower:SingleSpeed, COOLING TOWER SINGLE SPEED 1, Free Convection Regime Air Flow Rate [m3/s], 3.91681
 Component Sizing Information, CoolingTower:SingleSpeed, COOLING TOWER SINGLE SPEED 1, Free Convection U-Factor Times Area Value [W/K], 6994.38434
 Component Sizing Information, PlantLoop, HOT WATER LOOP, Maximum Loop Flow Rate [m3/s], 1.81373E-002
 Component Sizing Information, PlantLoop, HOT WATER LOOP, Plant Loop Volume [m3], 2.17647
 Component Sizing Information, Pump:VariableSpeed, PUMP VARIABLE SPEED 1, Design Flow Rate [m3/s], 1.81373E-002
 Component Sizing Information, Pump:VariableSpeed, PUMP VARIABLE SPEED 1, Design Power Consumption [W], 4633.84156
 Component Sizing Information, Boiler:HotWater, PRIMARY BOILER, Design Size Nominal Capacity [W], 1219048.84642
 Component Sizing Information, Boiler:HotWater, PRIMARY BOILER, Design Size Design Water Flow Rate [m3/s], 1.81373E-002
 Component Sizing Information, Boiler:HotWater, SECONDARY BOILER, Design Size Nominal Capacity [W], 1219048.84642
 Component Sizing Information, Boiler:HotWater, SECONDARY BOILER, Design Size Design Water Flow Rate [m3/s], 1.81373E-002
 Component Sizing Information, PlantLoop, MAIN SERVICE WATER LOOP, Maximum Loop Flow Rate [m3/s], 5.92479E-004
 Component Sizing Information, PlantLoop, MAIN SERVICE WATER LOOP, Plant Loop Volume [m3], 7.10975E-002
 Component Sizing Information, Pump:ConstantSpeed, SERVICE WATER LOOP PUMP, Design Flow Rate [m3/s], 5.92479E-004
 Component Sizing Information, Pump:ConstantSpeed, SERVICE WATER LOOP PUMP, Design Power Consumption [W], 104.81464
 Component Sizing Information, WaterHeater:Mixed, 748GAL NATURALGAS WATER HEATER - 505KBTU/HR, Use Side Design Flow Rate [m3/s], 5.92479E-004
! <Environment>,Environment Name,Environment Type, Start Date, End Date, Start DayOfWeek, Duration {#days}, Source:Start DayOfWeek,  Use Daylight Saving, Use Holidays, Apply Weekend Holiday Rule,  Use Rain Values, Use Snow Values
! <Environment:Special Days>, Special Day Name, Special Day Type, Source, Start Date, Duration {#days}
! <Environment:Daylight Saving>, Daylight Saving Indicator, Source, Start Date, End Date
! <Environment:WarmupDays>, NumberofWarmupDays
Environment,FORT MCMURRAY AP ANN CLG .4% CONDNS DB=>MWB,SizingPeriod:DesignDay,07/21,07/21,SummerDesignDay,1,N/A,N/A,N/A,N/A,N/A,N/A
Environment:Daylight Saving,No,SizingPeriod:DesignDay
! <Environment:Design Day Data>, Max Dry-Bulb Temp {C}, Temp Range {dC}, Temp Range Ind Type, Hum Ind Value at Max Temp, Hum Ind Type,Pressure {Pa}, Wind Direction {deg CW from N}, Wind Speed {m/s}, Clearness, Rain, Snow
! <Environment:Design Day Misc>,DayOfYear,ASHRAE A Coeff,ASHRAE B Coeff,ASHRAE C Coeff,Solar Constant-Annual Variation,Eq of Time {minutes}, Solar Declination Angle {deg}, Solar Model
Environment:Design Day Data,28.90,12.40,DefaultMultipliers,96969,250,3.7,0.00,No,No
Environment:Design Day Misc,202,1084.4,0.2082,0.1365,1.0,-6.23,20.6,ASHRAETau
Environment:WarmupDays,  6
! <Tabular Report>,Style,Unit Conversion
Tabular Report,HTML,None
! <Warmup Convergence Information>,Zone Name,Environment Type/Name,Average Warmup Temperature Difference {deltaC},Std Dev Warmup Temperature Difference {deltaC},Max Temperature Pass/Fail Convergence,Min Temperature Pass/Fail Convergence,Average Warmup Load Difference {W},Std Dev Warmup Load Difference {W},Heating Load Pass/Fail Convergence,Cooling Load Pass/Fail Convergence
 Warmup Convergence Information,SP-ATRIUM (HEIGHT < 6M)-SCH-A-SPACE FUNCTION SYS-6 FLR-1 SCH-A HPLCMT-NORTH ZN,SizingPeriod: FORT MCMURRAY AP ANN CLG .4% CONDNS DB=>MWB,1.4691980654E-002,4.4394566304E-002,Pass,Pass,2.3521330050E-002,9.8899440235E-002,Pass,Pass
 Warmup Convergence Information,SP-ATRIUM (HEIGHT < 6M)-SCH-B-SPACE FUNCTION SYS-6 FLR-1 SCH-B HPLCMT-SOUTH ZN,SizingPeriod: FORT MCMURRAY AP ANN CLG .4% CONDNS DB=>MWB,9.9516165292E-003,2.2206626121E-002,Pass,Pass,2.5537562503E-002,8.5913165532E-002,Pass,Pass
 Warmup Convergence Information,SP-ATRIUM (HEIGHT < 6M)-SCH-C-SPACE FUNCTION SYS-6 FLR-1 SCH-C HPLCMT-CORE ZN,SizingPeriod: FORT MCMURRAY AP ANN CLG .4% CONDNS DB=>MWB,1.2219281794E-002,2.5063233526E-002,Pass,Pass,1.4584635220E-002,5.7454135357E-002,Pass,Pass
 Warmup Convergence Information,SP-ATRIUM (HEIGHT < 6M)-SCH-D-SPACE FUNCTION SYS-6 FLR-2 SCH-D HPLCMT-WEST ZN,SizingPeriod: FORT MCMURRAY AP ANN CLG .4% CONDNS DB=>MWB,7.0107374728E-003,1.8489245761E-002,Pass,Pass,1.9996404772E-002,4.9468105203E-002,Pass,Pass
 Warmup Convergence Information,SP-ATRIUM (HEIGHT < 6M)-SCH-E-SPACE FUNCTION SYS-6 FLR-2 SCH-E HPLCMT-NORTH ZN,SizingPeriod: FORT MCMURRAY AP ANN CLG .4% CONDNS DB=>MWB,1.6513713077E-002,3.4899833726E-002,Pass,Pass,1.8424103457E-002,7.8550874477E-002,Pass,Pass
 Warmup Convergence Information,SP-ATRIUM (HEIGHT < 6M)-SCH-F-SPACE FUNCTION SYS-6 FLR-1 SCH-F HPLCMT-WEST ZN,SizingPeriod: FORT MCMURRAY AP ANN CLG .4% CONDNS DB=>MWB,1.1637032818E-004,3.1436099000E-004,Pass,Pass,1.5074876057E-002,4.3226580590E-002,Pass,Pass
 Warmup Convergence Information,SP-ATRIUM (HEIGHT < 6M)-SCH-G-SPACE FUNCTION SYS-6 FLR-2 SCH-G HPLCMT-SOUTH ZN,SizingPeriod: FORT MCMURRAY AP ANN CLG .4% CONDNS DB=>MWB,4.4927900123E-005,1.3091930914E-004,Pass,Pass,1.4284470868E-002,3.0931421220E-002,Pass,Pass
 Warmup Convergence Information,SP-WHOLEBUILDING-OFFICE SYS-6 FLR-4 SCH-A HPLCMT-EAST ZN,SizingPeriod: FORT MCMURRAY AP ANN CLG .4% CONDNS DB=>MWB,5.1111895241E-002,6.9774914217E-002,Pass,Pass,2.0198834404E-002,3.6655879134E-002,Pass,Pass
 Warmup Convergence Information,SP-WHOLEBUILDING-PENITENTIARY SYS-3 FLR-4 SCH-H HPLCMT-NORTH ZN,SizingPeriod: FORT MCMURRAY AP ANN CLG .4% CONDNS DB=>MWB,6.7393026055E-005,1.3566235788E-004,Pass,Pass,2.0530998057E-002,1.3785655012E-002,Pass,Pass
 Warmup Convergence Information,SP-WHOLEBUILDING-PERFORMING ARTS THEATRE SYS-3 FLR-4 SCH-C HPLCMT-SOUTH ZN,SizingPeriod: FORT MCMURRAY AP ANN CLG .4% CONDNS DB=>MWB,2.8939288893E-002,4.5694925297E-002,Pass,Pass,7.0226055020E-002,0.3752680509,Pass,Pass
 Warmup Convergence Information,SP-WHOLEBUILDING-POLICE STATION SYS-3 FLR-4 SCH-H HPLCMT-WEST ZN,SizingPeriod: FORT MCMURRAY AP ANN CLG .4% CONDNS DB=>MWB,3.6184852537E-005,7.3672383290E-005,Pass,Pass,1.7092104766E-002,1.2687795587E-002,Pass,Pass
 Warmup Convergence Information,SP-WHOLEBUILDING-POST OFFICE SYS-6 FLR-3 SCH-A HPLCMT-CORE ZN,SizingPeriod: FORT MCMURRAY AP ANN CLG .4% CONDNS DB=>MWB,1.8869925520E-002,4.2751594001E-002,Pass,Pass,1.9746795183E-002,7.0979782715E-002,Pass,Pass
 Warmup Convergence Information,SP-WHOLEBUILDING-RETAIL AREA SYS-6 FLR-4 SCH-C HPLCMT-CORE ZN,SizingPeriod: FORT MCMURRAY AP ANN CLG .4% CONDNS DB=>MWB,4.9389782045E-002,9.4781212383E-002,Pass,Pass,1.9243734330E-002,3.1585359435E-002,Pass,Pass
 Warmup Convergence Information,SP-WHOLEBUILDING-SCHOOL/UNIVERSITY SYS-3 FLR-3 SCH-D HPLCMT-SOUTH ZN,SizingPeriod: FORT MCMURRAY AP ANN CLG .4% CONDNS DB=>MWB,1.5595378150E-002,4.0876917690E-002,Pass,Pass,3.6033933023E-002,0.1347025587,Pass,Pass
 Warmup Convergence Information,SP-WHOLEBUILDING-SPORTS ARENA SYS-6 FLR-3 SCH-B HPLCMT-EAST ZN,SizingPeriod: FORT MCMURRAY AP ANN CLG .4% CONDNS DB=>MWB,2.3395890135E-002,6.0791414008E-002,Pass,Pass,2.1953871138E-002,6.5778379939E-002,Pass,Pass
 Warmup Convergence Information,SP-WHOLEBUILDING-STORAGE GARAGE SYS-4 FLR-3 SCH-K HPLCMT-NORTH ZN,SizingPeriod: FORT MCMURRAY AP ANN CLG .4% CONDNS DB=>MWB,0.1044590250,6.4590627280E-002,Pass,Pass,0.1489836809,0.4550744689,Pass,Pass
 Warmup Convergence Information,SP-WHOLEBUILDING-TOWN HALL SYS-3 FLR-3 SCH-D HPLCMT-WEST ZN,SizingPeriod: FORT MCMURRAY AP ANN CLG .4% CONDNS DB=>MWB,2.7672443955E-002,0.1132299788,Pass,Pass,5.4174098686E-002,0.2514106250,Pass,Pass
 Warmup Convergence Information,SP-WHOLEBUILDING-TRANSPORTATION FACILITY SYS-6 FLR-2 SCH-H HPLCMT-EAST ZN,SizingPeriod: FORT MCMURRAY AP ANN CLG .4% CONDNS DB=>MWB,4.6925609761E-005,1.5593405573E-004,Pass,Pass,6.8103024672E-003,7.4455024714E-003,Pass,Pass
 Warmup Convergence Information,SP-WHOLEBUILDING-WAREHOUSE SYS-4 FLR-1 SCH-A HPLCMT-EAST ZN,SizingPeriod: FORT MCMURRAY AP ANN CLG .4% CONDNS DB=>MWB,1.0262172279E-002,2.5539091112E-002,Pass,Pass,4.0891901926E-002,0.2620518719,Pass,Pass
 Warmup Convergence Information,SP-WHOLEBUILDING-WORKSHOP SYS-3 FLR-2 SCH-A HPLCMT-CORE ZN,SizingPeriod: FORT MCMURRAY AP ANN CLG .4% CONDNS DB=>MWB,2.3282989164E-002,4.1609590319E-002,Pass,Pass,3.2739075556E-002,0.1300462617,Pass,Pass
Environment,FORT MCMURRAY AP ANN HTG 99.6% CONDNS DB,SizingPeriod:DesignDay,01/21,01/21,WinterDesignDay,1,N/A,N/A,N/A,N/A,N/A,N/A
Environment:Daylight Saving,No,SizingPeriod:DesignDay
Environment:Design Day Data,-36.20,0.00,DefaultMultipliers,96969,90,1.0,0.00,No,No
Environment:Design Day Misc, 21,1229.0,0.1415,5.7310E-002,1.0,-11.15,-20.1,ASHRAEClearSky
Environment:WarmupDays, 25
 Warmup Convergence Information,SP-ATRIUM (HEIGHT < 6M)-SCH-A-SPACE FUNCTION SYS-6 FLR-1 SCH-A HPLCMT-NORTH ZN,SizingPeriod: FORT MCMURRAY AP ANN HTG 99.6% CONDNS DB,5.5938237921E-002,0.1243598513,Pass,Pass,0.2282326614,0.8820430051,Pass,Fail
 Warmup Convergence Information,SP-ATRIUM (HEIGHT < 6M)-SCH-B-SPACE FUNCTION SYS-6 FLR-1 SCH-B HPLCMT-SOUTH ZN,SizingPeriod: FORT MCMURRAY AP ANN HTG 99.6% CONDNS DB,8.8028566069E-002,8.4155940331E-002,Pass,Pass,0.1008029474,0.2637944261,Pass,Pass
 Warmup Convergence Information,SP-ATRIUM (HEIGHT < 6M)-SCH-C-SPACE FUNCTION SYS-6 FLR-1 SCH-C HPLCMT-CORE ZN,SizingPeriod: FORT MCMURRAY AP ANN HTG 99.6% CONDNS DB,5.6821552263E-002,6.8749426067E-002,Pass,Pass,0.1016726613,0.2792118608,Pass,Fail
 Warmup Convergence Information,SP-ATRIUM (HEIGHT < 6M)-SCH-D-SPACE FUNCTION SYS-6 FLR-2 SCH-D HPLCMT-WEST ZN,SizingPeriod: FORT MCMURRAY AP ANN HTG 99.6% CONDNS DB,5.6890054062E-002,0.2187821455,Pass,Pass,7.8733532248E-002,0.2186239881,Pass,Pass
 Warmup Convergence Information,SP-ATRIUM (HEIGHT < 6M)-SCH-E-SPACE FUNCTION SYS-6 FLR-2 SCH-E HPLCMT-NORTH ZN,SizingPeriod: FORT MCMURRAY AP ANN HTG 99.6% CONDNS DB,5.6507523496E-002,0.2293150771,Pass,Pass,0.2295530731,1.0399117605,Pass,Pass
 Warmup Convergence Information,SP-ATRIUM (HEIGHT < 6M)-SCH-F-SPACE FUNCTION SYS-6 FLR-1 SCH-F HPLCMT-WEST ZN,SizingPeriod: FORT MCMURRAY AP ANN HTG 99.6% CONDNS DB,5.3501457049E-002,5.9190186542E-002,Pass,Pass,6.7230893997E-002,0.1699100123,Pass,Pass
 Warmup Convergence Information,SP-ATRIUM (HEIGHT < 6M)-SCH-G-SPACE FUNCTION SYS-6 FLR-2 SCH-G HPLCMT-SOUTH ZN,SizingPeriod: FORT MCMURRAY AP ANN HTG 99.6% CONDNS DB,4.1730529305E-002,8.1919550915E-002,Pass,Pass,9.8919264692E-002,0.2040529057,Pass,Pass
 Warmup Convergence Information,SP-WHOLEBUILDING-OFFICE SYS-6 FLR-4 SCH-A HPLCMT-EAST ZN,SizingPeriod: FORT MCMURRAY AP ANN HTG 99.6% CONDNS DB,5.6233597212E-002,0.2787801937,Pass,Pass,5.5519570635E-002,0.1610777720,Pass,Pass
 Warmup Convergence Information,SP-WHOLEBUILDING-PENITENTIARY SYS-3 FLR-4 SCH-H HPLCMT-NORTH ZN,SizingPeriod: FORT MCMURRAY AP ANN HTG 99.6% CONDNS DB,5.5694769900E-002,0.3159421319,Pass,Pass,0.1754201245,1.4306467164,Pass,Pass
 Warmup Convergence Information,SP-WHOLEBUILDING-PERFORMING ARTS THEATRE SYS-3 FLR-4 SCH-C HPLCMT-SOUTH ZN,SizingPeriod: FORT MCMURRAY AP ANN HTG 99.6% CONDNS DB,5.5575149375E-002,0.3271533219,Pass,Pass,4.3600829432E-002,0.1334012454,Pass,Pass
 Warmup Convergence Information,SP-WHOLEBUILDING-POLICE STATION SYS-3 FLR-4 SCH-H HPLCMT-WEST ZN,SizingPeriod: FORT MCMURRAY AP ANN HTG 99.6% CONDNS DB,5.5580303847E-002,0.3128157494,Pass,Pass,0.2485027786,1.0131721281,Pass,Pass
 Warmup Convergence Information,SP-WHOLEBUILDING-POST OFFICE SYS-6 FLR-3 SCH-A HPLCMT-CORE ZN,SizingPeriod: FORT MCMURRAY AP ANN HTG 99.6% CONDNS DB,5.8064080199E-002,8.4397727285E-002,Pass,Pass,0.1103915638,0.3205854613,Pass,Pass
 Warmup Convergence Information,SP-WHOLEBUILDING-RETAIL AREA SYS-6 FLR-4 SCH-C HPLCMT-CORE ZN,SizingPeriod: FORT MCMURRAY AP ANN HTG 99.6% CONDNS DB,5.5988723020E-002,0.2427015836,Pass,Pass,5.4115458890E-002,0.1476870287,Pass,Pass
 Warmup Convergence Information,SP-WHOLEBUILDING-SCHOOL/UNIVERSITY SYS-3 FLR-3 SCH-D HPLCMT-SOUTH ZN,SizingPeriod: FORT MCMURRAY AP ANN HTG 99.6% CONDNS DB,5.5569422432E-002,0.2771267209,Pass,Pass,0.6310146686,2.7545143970,Pass,Pass
 Warmup Convergence Information,SP-WHOLEBUILDING-SPORTS ARENA SYS-6 FLR-3 SCH-B HPLCMT-EAST ZN,SizingPeriod: FORT MCMURRAY AP ANN HTG 99.6% CONDNS DB,5.6673185353E-002,0.2299458599,Pass,Pass,1.1918735356,7.9955155138,Pass,Pass
 Warmup Convergence Information,SP-WHOLEBUILDING-STORAGE GARAGE SYS-4 FLR-3 SCH-K HPLCMT-NORTH ZN,SizingPeriod: FORT MCMURRAY AP ANN HTG 99.6% CONDNS DB,5.3303379811E-003,2.7817059342E-003,Pass,Pass,2.7123829580E-003,1.4213226920E-003,Pass,Pass
 Warmup Convergence Information,SP-WHOLEBUILDING-TOWN HALL SYS-3 FLR-3 SCH-D HPLCMT-WEST ZN,SizingPeriod: FORT MCMURRAY AP ANN HTG 99.6% CONDNS DB,5.5563464679E-002,0.2739071874,Pass,Pass,0.5227761173,3.7109046767,Pass,Pass
 Warmup Convergence Information,SP-WHOLEBUILDING-TRANSPORTATION FACILITY SYS-6 FLR-2 SCH-H HPLCMT-EAST ZN,SizingPeriod: FORT MCMURRAY AP ANN HTG 99.6% CONDNS DB,3.6042481083E-002,7.8446999265E-002,Pass,Pass,0.5936842679,3.1165827128,Pass,Pass
 Warmup Convergence Information,SP-WHOLEBUILDING-WAREHOUSE SYS-4 FLR-1 SCH-A HPLCMT-EAST ZN,SizingPeriod: FORT MCMURRAY AP ANN HTG 99.6% CONDNS DB,4.1310649849E-002,0.1376054404,Pass,Pass,0.2689430000,0.9296855234,Pass,Pass
 Warmup Convergence Information,SP-WHOLEBUILDING-WORKSHOP SYS-3 FLR-2 SCH-A HPLCMT-CORE ZN,SizingPeriod: FORT MCMURRAY AP ANN HTG 99.6% CONDNS DB,5.3177214404E-002,0.2115906677,Pass,Pass,0.2180825299,0.9100221719,Pass,Pass
! <Program Control Information:Threads/Parallel Sims>, Threading Supported,Maximum Number of Threads, Env Set Threads (OMP_NUM_THREADS), EP Env Set Threads (EP_OMP_NUM_THREADS), IDF Set Threads, Number of Threads Used (Interior Radiant Exchange), Number Nominal Surfaces, Number Parallel Sims
Program Control:Threads/Parallel Sims, No,1, N/A, N/A, N/A, N/A, N/A, N/A
End of Data
