Program Version,EnergyPlus, Version 8.9.0-eba93e8e1b, YMD=2019.03.26 18:13
! This file shows details about the branches, nodes, and other
! elements of the flow connections.
! This file is intended for use in "debugging" potential problems
! that may also be detected by the program, but may be more easily
! identified by "eye".
! This file is also intended to support software which draws a
! schematic diagram of the HVAC system.
! ===============================================================
! #Nodes,<Number of Unique Nodes>
 #Nodes,367
! <Node>,<NodeNumber>,<Node Name>,<Node Fluid Type>,<# Times Node Referenced After Definition>
 Node,1,NODE 168,Air,4
 Node,2,NODE 186,Air,4
 Node,3,NODE 193,Air,4
 Node,4,NODE 209,Air,4
 Node,5,NODE 228,Air,4
 Node,6,NODE 200,Air,4
 Node,7,NODE 235,Air,4
 Node,8,NODE 279,Air,4
 Node,9,NODE 89,Air,4
 Node,10,NODE 76,Air,4
 Node,11,NODE 102,Air,4
 Node,12,NODE 251,Air,4
 Node,13,NODE 298,Air,4
 Node,14,NODE 63,Air,4
 Node,15,NODE 270,Air,4
 Node,16,NODE 128,Air,4
 Node,17,NODE 50,Air,4
 Node,18,NODE 242,Air,4
 Node,19,NODE 115,Air,4
 Node,20,NODE 38,Air,4
 Node,21,NODE 86,Air,10
 Node,22,NODE 87,Air,3
 Node,23,NODE 73,Air,10
 Node,24,NODE 74,Air,3
 Node,25,NODE 99,Air,10
 Node,26,NODE 100,Air,3
 Node,27,NODE 60,Air,10
 Node,28,NODE 61,Air,3
 Node,29,NODE 47,Air,10
 Node,30,NODE 48,Air,3
 Node,31,NODE 35,Air,10
 Node,32,NODE 36,Air,3
 Node,33,NODE 125,Air,10
 Node,34,NODE 126,Air,3
 Node,35,NODE 112,Air,10
 Node,36,NODE 113,Air,3
 Node,37,NODE 165,Air,12
 Node,38,NODE 166,Air,3
 Node,39,NODE 206,Air,12
 Node,40,NODE 207,Air,3
 Node,41,NODE 248,Air,12
 Node,42,NODE 249,Air,3
 Node,43,NODE 276,Air,12
 Node,44,NODE 277,Air,3
 Node,45,NODE 85,Air,3
 Node,46,NODE 94,Air,6
 Node,47,NODE 93,Air,6
 Node,48,NODE 92,Air,8
 Node,49,NODE 72,Air,3
 Node,50,NODE 81,Air,6
 Node,51,NODE 80,Air,6
 Node,52,NODE 79,Air,8
 Node,53,NODE 98,Air,3
 Node,54,NODE 107,Air,6
 Node,55,NODE 106,Air,6
 Node,56,NODE 105,Air,8
 Node,57,NODE 59,Air,3
 Node,58,NODE 68,Air,6
 Node,59,NODE 67,Air,6
 Node,60,NODE 66,Air,8
 Node,61,NODE 46,Air,3
 Node,62,NODE 55,Air,6
 Node,63,NODE 54,Air,6
 Node,64,NODE 53,Air,8
 Node,65,NODE 34,Air,3
 Node,66,NODE 43,Air,6
 Node,67,NODE 42,Air,6
 Node,68,NODE 41,Air,8
 Node,69,NODE 124,Air,3
 Node,70,NODE 133,Air,6
 Node,71,NODE 132,Air,6
 Node,72,NODE 131,Air,8
 Node,73,NODE 111,Air,3
 Node,74,NODE 120,Air,6
 Node,75,NODE 119,Air,6
 Node,76,NODE 118,Air,8
 Node,77,NODE 164,Air,2
 Node,78,NODE 177,Air,5
 Node,79,NODE 176,Air,5
 Node,80,NODE 175,Air,5
 Node,81,NODE 174,Air,9
 Node,82,NODE 205,Air,2
 Node,83,NODE 219,Air,5
 Node,84,NODE 218,Air,5
 Node,85,NODE 217,Air,5
 Node,86,NODE 216,Air,9
 Node,87,NODE 247,Air,2
 Node,88,NODE 261,Air,5
 Node,89,NODE 260,Air,5
 Node,90,NODE 259,Air,5
 Node,91,NODE 258,Air,9
 Node,92,NODE 275,Air,2
 Node,93,NODE 289,Air,5
 Node,94,NODE 288,Air,5
 Node,95,NODE 287,Air,5
 Node,96,NODE 286,Air,9
 Node,97,NODE 137,Water,2
 Node,98,NODE 143,Water,1
 Node,99,NODE 139,Water,1
 Node,100,NODE 144,Water,1
 Node,101,NODE 145,Water,1
 Node,102,NODE 146,Water,1
 Node,103,NODE 147,Water,1
 Node,104,NODE 148,Water,1
 Node,105,NODE 149,Water,1
 Node,106,NODE 138,Water,4
 Node,107,NODE 140,Water,2
 Node,108,CHILLED WATER LOOP DEMAND INLET PIPE NODE,Water,1
 Node,109,NODE 142,Water,2
 Node,110,NODE 171,Water,1
 Node,111,NODE 212,Water,2
 Node,112,NODE 213,Water,1
 Node,113,NODE 254,Water,2
 Node,114,NODE 255,Water,1
 Node,115,NODE 282,Water,2
 Node,116,NODE 283,Water,1
 Node,117,CHILLED WATER LOOP DEMAND BYPASS PIPE INLET NODE,Water,1
 Node,118,CHILLED WATER LOOP DEMAND BYPASS PIPE OUTLET NODE,Water,1
 Node,119,CHILLED WATER LOOP DEMAND OUTLET PIPE NODE,Water,1
 Node,120,NODE 141,Water,2
 Node,121,NODE 150,Water,2
 Node,122,NODE 156,Water,1
 Node,123,NODE 152,Water,1
 Node,124,NODE 157,Water,1
 Node,125,NODE 158,Water,1
 Node,126,NODE 159,Water,1
 Node,127,NODE 160,Water,1
 Node,128,NODE 151,Water,4
 Node,129,NODE 153,Water,2
 Node,130,CONDENSER WATER LOOP DEMAND INLET PIPE NODE,Water,1
 Node,131,NODE 155,Water,1
 Node,132,NODE 161,Water,1
 Node,133,NODE 162,Water,1
 Node,134,NODE 163,Water,1
 Node,135,CONDENSER WATER LOOP DEMAND BYPASS PIPE INLET NODE,Water,1
 Node,136,CONDENSER WATER LOOP DEMAND BYPASS PIPE OUTLET NODE,Water,1
 Node,137,CONDENSER WATER LOOP DEMAND OUTLET PIPE NODE,Water,1
 Node,138,NODE 154,Water,2
 Node,139,NODE 21,Water,2
 Node,140,NODE 27,Water,1
 Node,141,NODE 23,Water,1
 Node,142,NODE 28,Water,1
 Node,143,NODE 29,Water,1
 Node,144,NODE 30,Water,1
 Node,145,NODE 31,Water,1
 Node,146,NODE 32,Water,1
 Node,147,NODE 33,Water,1
 Node,148,NODE 22,Water,4
 Node,149,NODE 24,Water,2
 Node,150,HOT WATER LOOP DEMAND INLET PIPE NODE,Water,1
 Node,151,NODE 26,Water,1
 Node,152,NODE 45,Water,1
 Node,153,NODE 57,Water,1
 Node,154,NODE 58,Water,1
 Node,155,NODE 70,Water,1
 Node,156,NODE 71,Water,1
 Node,157,NODE 83,Water,1
 Node,158,NODE 84,Water,1
 Node,159,NODE 96,Water,1
 Node,160,NODE 97,Water,1
 Node,161,NODE 109,Water,1
 Node,162,NODE 110,Water,1
 Node,163,NODE 122,Water,1
 Node,164,NODE 123,Water,1
 Node,165,NODE 135,Water,1
 Node,166,NODE 136,Water,1
 Node,167,NODE 169,Water,2
 Node,168,NODE 170,Water,1
 Node,169,NODE 178,Water,1
 Node,170,NODE 179,Water,1
 Node,171,NODE 182,Water,1
 Node,172,NODE 183,Water,1
 Node,173,NODE 184,Water,1
 Node,174,NODE 185,Water,1
 Node,175,NODE 189,Water,1
 Node,176,NODE 190,Water,1
 Node,177,NODE 191,Water,1
 Node,178,NODE 192,Water,1
 Node,179,NODE 196,Water,1
 Node,180,NODE 197,Water,1
 Node,181,NODE 198,Water,1
 Node,182,NODE 199,Water,1
 Node,183,NODE 203,Water,1
 Node,184,NODE 204,Water,1
 Node,185,NODE 210,Water,2
 Node,186,NODE 211,Water,1
 Node,187,NODE 220,Water,1
 Node,188,NODE 221,Water,1
 Node,189,NODE 224,Water,1
 Node,190,NODE 225,Water,1
 Node,191,NODE 226,Water,1
 Node,192,NODE 227,Water,1
 Node,193,NODE 231,Water,1
 Node,194,NODE 232,Water,1
 Node,195,NODE 233,Water,1
 Node,196,NODE 234,Water,1
 Node,197,NODE 238,Water,1
 Node,198,NODE 239,Water,1
 Node,199,NODE 240,Water,1
 Node,200,NODE 241,Water,1
 Node,201,NODE 245,Water,1
 Node,202,NODE 246,Water,1
 Node,203,NODE 252,Water,2
 Node,204,NODE 253,Water,1
 Node,205,NODE 262,Water,1
 Node,206,NODE 263,Water,1
 Node,207,NODE 266,Water,1
 Node,208,NODE 267,Water,1
 Node,209,NODE 268,Water,1
 Node,210,NODE 269,Water,1
 Node,211,NODE 273,Water,1
 Node,212,NODE 274,Water,1
 Node,213,NODE 280,Water,2
 Node,214,NODE 281,Water,1
 Node,215,NODE 290,Water,1
 Node,216,NODE 291,Water,1
 Node,217,NODE 294,Water,1
 Node,218,NODE 295,Water,1
 Node,219,NODE 296,Water,1
 Node,220,NODE 297,Water,1
 Node,221,NODE 301,Water,1
 Node,222,NODE 302,Water,1
 Node,223,HOT WATER LOOP DEMAND BYPASS PIPE INLET NODE,Water,1
 Node,224,HOT WATER LOOP DEMAND BYPASS PIPE OUTLET NODE,Water,1
 Node,225,HOT WATER LOOP DEMAND OUTLET PIPE NODE,Water,1
 Node,226,NODE 25,Water,2
 Node,227,NODE 303,Water,2
 Node,228,NODE 309,Water,1
 Node,229,NODE 305,Water,1
 Node,230,NODE 310,Water,1
 Node,231,NODE 311,Water,1
 Node,232,NODE 312,Water,1
 Node,233,NODE 314,Water,1
 Node,234,NODE 304,Water,4
 Node,235,NODE 306,Water,2
 Node,236,NODE 315,Water,1
 Node,237,NODE 308,Water,1
 Node,238,NODE 313,Water,1
 Node,239,NODE 317,Water,1
 Node,240,NODE 318,Water,1
 Node,241,NODE 319,Water,1
 Node,242,NODE 320,Water,1
 Node,243,NODE 321,Water,1
 Node,244,NODE 322,Water,1
 Node,245,NODE 323,Water,1
 Node,246,NODE 324,Water,1
 Node,247,NODE 325,Water,1
 Node,248,NODE 326,Water,1
 Node,249,NODE 327,Water,1
 Node,250,NODE 328,Water,1
 Node,251,NODE 329,Water,1
 Node,252,NODE 330,Water,1
 Node,253,NODE 331,Water,1
 Node,254,NODE 332,Water,1
 Node,255,NODE 333,Water,1
 Node,256,NODE 334,Water,1
 Node,257,NODE 335,Water,1
 Node,258,NODE 336,Water,1
 Node,259,NODE 337,Water,1
 Node,260,NODE 338,Water,1
 Node,261,NODE 339,Water,1
 Node,262,NODE 340,Water,1
 Node,263,MAIN SERVICE WATER LOOP DEMAND BYPASS PIPE INLET NODE,Water,1
 Node,264,MAIN SERVICE WATER LOOP DEMAND BYPASS PIPE OUTLET NODE,Water,1
 Node,265,NODE 316,Water,1
 Node,266,NODE 307,Water,2
 Node,267,NODE 9,Air,0
 Node,268,NODE 180,Air,1
 Node,269,NODE 10,Air,0
 Node,270,NODE 187,Air,1
 Node,271,NODE 11,Air,0
 Node,272,NODE 194,Air,1
 Node,273,NODE 13,Air,0
 Node,274,NODE 222,Air,1
 Node,275,NODE 14,Air,0
 Node,276,NODE 229,Air,1
 Node,277,NODE 12,Air,0
 Node,278,NODE 201,Air,1
 Node,279,NODE 15,Air,0
 Node,280,NODE 236,Air,1
 Node,281,NODE 19,Air,0
 Node,282,NODE 292,Air,1
 Node,283,NODE 5,Air,1
 Node,284,NODE 95,Air,1
 Node,285,NODE 4,Air,1
 Node,286,NODE 82,Air,1
 Node,287,NODE 6,Air,1
 Node,288,NODE 108,Air,1
 Node,289,NODE 17,Air,0
 Node,290,NODE 264,Air,1
 Node,291,NODE 20,Air,0
 Node,292,NODE 299,Air,1
 Node,293,NODE 3,Air,1
 Node,294,NODE 69,Air,1
 Node,295,NODE 18,Air,0
 Node,296,NODE 271,Air,1
 Node,297,NODE 8,Air,1
 Node,298,NODE 134,Air,1
 Node,299,NODE 2,Air,1
 Node,300,NODE 56,Air,1
 Node,301,NODE 16,Air,0
 Node,302,NODE 243,Air,1
 Node,303,NODE 7,Air,1
 Node,304,NODE 121,Air,1
 Node,305,NODE 1,Air,1
 Node,306,NODE 44,Air,1
 Node,307,NODE 88,Air,2
 Node,308,NODE 75,Air,2
 Node,309,NODE 101,Air,2
 Node,310,NODE 62,Air,2
 Node,311,NODE 49,Air,2
 Node,312,NODE 37,Air,2
 Node,313,NODE 127,Air,2
 Node,314,NODE 114,Air,2
 Node,315,NODE 167,Air,2
 Node,316,NODE 208,Air,2
 Node,317,NODE 250,Air,2
 Node,318,NODE 278,Air,2
 Node,319,NODE 90,Air,2
 Node,320,NODE 77,Air,2
 Node,321,NODE 103,Air,2
 Node,322,NODE 64,Air,2
 Node,323,NODE 51,Air,2
 Node,324,NODE 39,Air,2
 Node,325,NODE 129,Air,2
 Node,326,NODE 116,Air,2
 Node,327,NODE 172,Air,2
 Node,328,NODE 214,Air,2
 Node,329,NODE 256,Air,2
 Node,330,NODE 284,Air,2
 Node,331,MODEL OUTDOOR AIR NODE,Air,0
 Node,332,NODE 181,Air,1
 Node,333,NODE 188,Air,1
 Node,334,NODE 195,Air,1
 Node,335,NODE 202,Air,1
 Node,336,NODE 223,Air,1
 Node,337,NODE 230,Air,1
 Node,338,NODE 237,Air,1
 Node,339,NODE 244,Air,1
 Node,340,NODE 265,Air,1
 Node,341,NODE 272,Air,1
 Node,342,NODE 293,Air,1
 Node,343,NODE 300,Air,1
 Node,344,AIR TERMINAL SINGLE DUCT VAV REHEAT 1 DAMPER OUTLET,Air,1
 Node,345,AIR TERMINAL SINGLE DUCT VAV REHEAT 2 DAMPER OUTLET,Air,1
 Node,346,AIR TERMINAL SINGLE DUCT VAV REHEAT 3 DAMPER OUTLET,Air,1
 Node,347,AIR TERMINAL SINGLE DUCT VAV REHEAT 5 DAMPER OUTLET,Air,1
 Node,348,AIR TERMINAL SINGLE DUCT VAV REHEAT 6 DAMPER OUTLET,Air,1
 Node,349,AIR TERMINAL SINGLE DUCT VAV REHEAT 4 DAMPER OUTLET,Air,1
 Node,350,AIR TERMINAL SINGLE DUCT VAV REHEAT 7 DAMPER OUTLET,Air,1
 Node,351,AIR TERMINAL SINGLE DUCT VAV REHEAT 11 DAMPER OUTLET,Air,1
 Node,352,AIR TERMINAL SINGLE DUCT VAV REHEAT 9 DAMPER OUTLET,Air,1
 Node,353,AIR TERMINAL SINGLE DUCT VAV REHEAT 12 DAMPER OUTLET,Air,1
 Node,354,AIR TERMINAL SINGLE DUCT VAV REHEAT 10 DAMPER OUTLET,Air,1
 Node,355,AIR TERMINAL SINGLE DUCT VAV REHEAT 8 DAMPER OUTLET,Air,1
 Node,356,NODE 91,Air,1
 Node,357,NODE 78,Air,1
 Node,358,NODE 104,Air,1
 Node,359,NODE 65,Air,1
 Node,360,NODE 52,Air,1
 Node,361,NODE 40,Air,1
 Node,362,NODE 130,Air,1
 Node,363,NODE 117,Air,1
 Node,364,NODE 173,Air,1
 Node,365,NODE 215,Air,1
 Node,366,NODE 257,Air,1
 Node,367,NODE 285,Air,1
! ===============================================================
! Suspicious nodes have 0 references.  It is normal for some nodes, however.
! Listing nodes with 0 references (culled from previous list):
! <Suspicious Node>,<NodeNumber>,<Node Name>,<Node Fluid Type>,<# Times Node Referenced After Definition>
 Suspicious Node,267,NODE 9,Air,0
 Suspicious Node,269,NODE 10,Air,0
 Suspicious Node,271,NODE 11,Air,0
 Suspicious Node,273,NODE 13,Air,0
 Suspicious Node,275,NODE 14,Air,0
 Suspicious Node,277,NODE 12,Air,0
 Suspicious Node,279,NODE 15,Air,0
 Suspicious Node,281,NODE 19,Air,0
 Suspicious Node,289,NODE 17,Air,0
 Suspicious Node,291,NODE 20,Air,0
 Suspicious Node,295,NODE 18,Air,0
 Suspicious Node,301,NODE 16,Air,0
 Suspicious Node,331,MODEL OUTDOOR AIR NODE,Air,0
! ===============================================================
! <#Branch Lists>,<Number of Branch Lists>
 #Branch Lists,20
! <Branch List>,<Branch List Count>,<Branch List Name>,<Loop Name>,<Loop Type>,<Number of Branches>
! <Branch>,<Branch Count>,<Branch Name>,<Loop Name>,<Loop Type>,<Branch Inlet Node Name>,<Branch Outlet Node Name>
 Branch List,1,SYS_3_PSZ SP-WHOLEBUILDING-PENITENTIARY SYS-3 FLR-4 SCH-H HPLCMT-NORTH ZN SUPPLY BRANCHES,SYS_3_PSZ SP-WHOLEBUILDING-PENITENTIARY SYS-3 FLR-4 SCH-H HPLCMT-NORTH ZN,Air,1
   Branch,1,SYS_3_PSZ SP-WHOLEBUILDING-PENITENTIARY SYS-3 FLR-4 SCH-H HPLCMT-NORTH ZN MAIN BRANCH,SYS_3_PSZ SP-WHOLEBUILDING-PENITENTIARY SYS-3 FLR-4 SCH-H HPLCMT-NORTH ZN,Air,NODE 85,NODE 86
 Branch List,2,SYS_3_PSZ SP-WHOLEBUILDING-PERFORMING ARTS THEATRE SYS-3 FLR-4 SCH-C HPLCMT-SOUTH ZN SUPPLY BRANCHES,SYS_3_PSZ SP-WHOLEBUILDING-PERFORMING ARTS THEATRE SYS-3 FLR-4 SCH-C HPLCMT-SOUTH ZN,Air,1
   Branch,1,SYS_3_PSZ SP-WHOLEBUILDING-PERFORMING ARTS THEATRE SYS-3 FLR-4 SCH-C HPLCMT-SOUTH ZN MAIN BRANCH,SYS_3_PSZ SP-WHOLEBUILDING-PERFORMING ARTS THEATRE SYS-3 FLR-4 SCH-C HPLCMT-SOUTH ZN,Air,NODE 72,NODE 73
 Branch List,3,SYS_3_PSZ SP-WHOLEBUILDING-POLICE STATION SYS-3 FLR-4 SCH-H HPLCMT-WEST ZN SUPPLY BRANCHES,SYS_3_PSZ SP-WHOLEBUILDING-POLICE STATION SYS-3 FLR-4 SCH-H HPLCMT-WEST ZN,Air,1
   Branch,1,SYS_3_PSZ SP-WHOLEBUILDING-POLICE STATION SYS-3 FLR-4 SCH-H HPLCMT-WEST ZN MAIN BRANCH,SYS_3_PSZ SP-WHOLEBUILDING-POLICE STATION SYS-3 FLR-4 SCH-H HPLCMT-WEST ZN,Air,NODE 98,NODE 99
 Branch List,4,SYS_3_PSZ SP-WHOLEBUILDING-SCHOOL/UNIVERSITY SYS-3 FLR-3 SCH-D HPLCMT-SOUTH ZN SUPPLY BRANCHES,SYS_3_PSZ SP-WHOLEBUILDING-SCHOOL/UNIVERSITY SYS-3 FLR-3 SCH-D HPLCMT-SOUTH ZN,Air,1
   Branch,1,SYS_3_PSZ SP-WHOLEBUILDING-SCHOOL/UNIVERSITY SYS-3 FLR-3 SCH-D HPLCMT-SOUTH ZN MAIN BRANCH,SYS_3_PSZ SP-WHOLEBUILDING-SCHOOL/UNIVERSITY SYS-3 FLR-3 SCH-D HPLCMT-SOUTH ZN,Air,NODE 59,NODE 60
 Branch List,5,SYS_3_PSZ SP-WHOLEBUILDING-TOWN HALL SYS-3 FLR-3 SCH-D HPLCMT-WEST ZN SUPPLY BRANCHES,SYS_3_PSZ SP-WHOLEBUILDING-TOWN HALL SYS-3 FLR-3 SCH-D HPLCMT-WEST ZN,Air,1
   Branch,1,SYS_3_PSZ SP-WHOLEBUILDING-TOWN HALL SYS-3 FLR-3 SCH-D HPLCMT-WEST ZN MAIN BRANCH,SYS_3_PSZ SP-WHOLEBUILDING-TOWN HALL SYS-3 FLR-3 SCH-D HPLCMT-WEST ZN,Air,NODE 46,NODE 47
 Branch List,6,SYS_3_PSZ SP-WHOLEBUILDING-WORKSHOP SYS-3 FLR-2 SCH-A HPLCMT-CORE ZN SUPPLY BRANCHES,SYS_3_PSZ SP-WHOLEBUILDING-WORKSHOP SYS-3 FLR-2 SCH-A HPLCMT-CORE ZN,Air,1
   Branch,1,SYS_3_PSZ SP-WHOLEBUILDING-WORKSHOP SYS-3 FLR-2 SCH-A HPLCMT-CORE ZN MAIN BRANCH,SYS_3_PSZ SP-WHOLEBUILDING-WORKSHOP SYS-3 FLR-2 SCH-A HPLCMT-CORE ZN,Air,NODE 34,NODE 35
 Branch List,7,SYS_4_PSZ_SP-WHOLEBUILDING-STORAGE GARAGE SYS-4 FLR-3 SCH-K HPLCMT-NORTH ZN SUPPLY BRANCHES,SYS_4_PSZ_SP-WHOLEBUILDING-STORAGE GARAGE SYS-4 FLR-3 SCH-K HPLCMT-NORTH ZN,Air,1
   Branch,1,SYS_4_PSZ_SP-WHOLEBUILDING-STORAGE GARAGE SYS-4 FLR-3 SCH-K HPLCMT-NORTH ZN MAIN BRANCH,SYS_4_PSZ_SP-WHOLEBUILDING-STORAGE GARAGE SYS-4 FLR-3 SCH-K HPLCMT-NORTH ZN,Air,NODE 124,NODE 125
 Branch List,8,SYS_4_PSZ_SP-WHOLEBUILDING-WAREHOUSE SYS-4 FLR-1 SCH-A HPLCMT-EAST ZN SUPPLY BRANCHES,SYS_4_PSZ_SP-WHOLEBUILDING-WAREHOUSE SYS-4 FLR-1 SCH-A HPLCMT-EAST ZN,Air,1
   Branch,1,SYS_4_PSZ_SP-WHOLEBUILDING-WAREHOUSE SYS-4 FLR-1 SCH-A HPLCMT-EAST ZN MAIN BRANCH,SYS_4_PSZ_SP-WHOLEBUILDING-WAREHOUSE SYS-4 FLR-1 SCH-A HPLCMT-EAST ZN,Air,NODE 111,NODE 112
 Branch List,9,SYS_6_VAV WITH REHEAT SUPPLY BRANCHES,SYS_6_VAV WITH REHEAT,Air,1
   Branch,1,SYS_6_VAV WITH REHEAT MAIN BRANCH,SYS_6_VAV WITH REHEAT,Air,NODE 164,NODE 165
 Branch List,10,SYS_6_VAV WITH REHEAT 1 SUPPLY BRANCHES,SYS_6_VAV WITH REHEAT 1,Air,1
   Branch,1,SYS_6_VAV WITH REHEAT 1 MAIN BRANCH,SYS_6_VAV WITH REHEAT 1,Air,NODE 205,NODE 206
 Branch List,11,SYS_6_VAV WITH REHEAT 2 SUPPLY BRANCHES,SYS_6_VAV WITH REHEAT 2,Air,1
   Branch,1,SYS_6_VAV WITH REHEAT 2 MAIN BRANCH,SYS_6_VAV WITH REHEAT 2,Air,NODE 247,NODE 248
 Branch List,12,SYS_6_VAV WITH REHEAT 3 SUPPLY BRANCHES,SYS_6_VAV WITH REHEAT 3,Air,1
   Branch,1,SYS_6_VAV WITH REHEAT 3 MAIN BRANCH,SYS_6_VAV WITH REHEAT 3,Air,NODE 275,NODE 276
 Branch List,13,CHILLED WATER LOOP SUPPLY BRANCHES,CHILLED WATER LOOP,Plant Supply,5
   Branch,1,CHILLED WATER LOOP SUPPLY INLET BRANCH,CHILLED WATER LOOP,Plant Supply,NODE 137,NODE 143
   Branch,2,CHILLED WATER LOOP SUPPLY BRANCH 1,CHILLED WATER LOOP,Plant Supply,NODE 139,NODE 144
   Branch,3,CHILLED WATER LOOP SUPPLY BRANCH 2,CHILLED WATER LOOP,Plant Supply,NODE 145,NODE 146
   Branch,4,CHILLED WATER LOOP SUPPLY BRANCH 3,CHILLED WATER LOOP,Plant Supply,NODE 147,NODE 148
   Branch,5,CHILLED WATER LOOP SUPPLY OUTLET BRANCH,CHILLED WATER LOOP,Plant Supply,NODE 149,NODE 138
 Branch List,14,CHILLED WATER LOOP DEMAND BRANCHES,CHILLED WATER LOOP,Plant Demand,7
   Branch,1,CHILLED WATER LOOP DEMAND INLET BRANCH,CHILLED WATER LOOP,Plant Demand,NODE 140,CHILLED WATER LOOP DEMAND INLET PIPE NODE
   Branch,2,CHILLED WATER LOOP DEMAND BRANCH 1,CHILLED WATER LOOP,Plant Demand,NODE 142,NODE 171
   Branch,3,CHILLED WATER LOOP DEMAND BRANCH 2,CHILLED WATER LOOP,Plant Demand,NODE 212,NODE 213
   Branch,4,CHILLED WATER LOOP DEMAND BRANCH 3,CHILLED WATER LOOP,Plant Demand,NODE 254,NODE 255
   Branch,5,CHILLED WATER LOOP DEMAND BRANCH 4,CHILLED WATER LOOP,Plant Demand,NODE 282,NODE 283
   Branch,6,CHILLED WATER LOOP DEMAND BYPASS BRANCH,CHILLED WATER LOOP,Plant Demand,CHILLED WATER LOOP DEMAND BYPASS PIPE INLET NODE,CHILLED WATER LOOP DEMAND BYPASS PIPE OUTLET NODE
   Branch,7,CHILLED WATER LOOP DEMAND OUTLET BRANCH,CHILLED WATER LOOP,Plant Demand,CHILLED WATER LOOP DEMAND OUTLET PIPE NODE,NODE 141
 Branch List,15,CONDENSER WATER LOOP SUPPLY BRANCHES,CONDENSER WATER LOOP,Plant Supply,4
   Branch,1,CONDENSER WATER LOOP SUPPLY INLET BRANCH,CONDENSER WATER LOOP,Plant Supply,NODE 150,NODE 156
   Branch,2,CONDENSER WATER LOOP SUPPLY BRANCH 1,CONDENSER WATER LOOP,Plant Supply,NODE 152,NODE 157
   Branch,3,CONDENSER WATER LOOP SUPPLY BRANCH 2,CONDENSER WATER LOOP,Plant Supply,NODE 158,NODE 159
   Branch,4,CONDENSER WATER LOOP SUPPLY OUTLET BRANCH,CONDENSER WATER LOOP,Plant Supply,NODE 160,NODE 151
 Branch List,16,CONDENSER WATER LOOP DEMAND BRANCHES,CONDENSER WATER LOOP,Plant Demand,5
   Branch,1,CONDENSER WATER LOOP DEMAND INLET BRANCH,CONDENSER WATER LOOP,Plant Demand,NODE 153,CONDENSER WATER LOOP DEMAND INLET PIPE NODE
   Branch,2,CONDENSER WATER LOOP DEMAND BRANCH 1,CONDENSER WATER LOOP,Plant Demand,NODE 155,NODE 161
   Branch,3,CONDENSER WATER LOOP DEMAND BRANCH 2,CONDENSER WATER LOOP,Plant Demand,NODE 162,NODE 163
   Branch,4,CONDENSER WATER LOOP DEMAND BYPASS BRANCH,CONDENSER WATER LOOP,Plant Demand,CONDENSER WATER LOOP DEMAND BYPASS PIPE INLET NODE,CONDENSER WATER LOOP DEMAND BYPASS PIPE OUTLET NODE
   Branch,5,CONDENSER WATER LOOP DEMAND OUTLET BRANCH,CONDENSER WATER LOOP,Plant Demand,CONDENSER WATER LOOP DEMAND OUTLET PIPE NODE,NODE 154
 Branch List,17,HOT WATER LOOP SUPPLY BRANCHES,HOT WATER LOOP,Plant Supply,5
   Branch,1,HOT WATER LOOP SUPPLY INLET BRANCH,HOT WATER LOOP,Plant Supply,NODE 21,NODE 27
   Branch,2,HOT WATER LOOP SUPPLY BRANCH 1,HOT WATER LOOP,Plant Supply,NODE 23,NODE 28
   Branch,3,HOT WATER LOOP SUPPLY BRANCH 2,HOT WATER LOOP,Plant Supply,NODE 29,NODE 30
   Branch,4,HOT WATER LOOP SUPPLY BRANCH 3,HOT WATER LOOP,Plant Supply,NODE 31,NODE 32
   Branch,5,HOT WATER LOOP SUPPLY OUTLET BRANCH,HOT WATER LOOP,Plant Supply,NODE 33,NODE 22
 Branch List,18,HOT WATER LOOP DEMAND BRANCHES,HOT WATER LOOP,Plant Demand,39
   Branch,1,HOT WATER LOOP DEMAND INLET BRANCH,HOT WATER LOOP,Plant Demand,NODE 24,HOT WATER LOOP DEMAND INLET PIPE NODE
   Branch,2,HOT WATER LOOP DEMAND BRANCH 1,HOT WATER LOOP,Plant Demand,NODE 26,NODE 45
   Branch,3,HOT WATER LOOP DEMAND BRANCH 2,HOT WATER LOOP,Plant Demand,NODE 57,NODE 58
   Branch,4,HOT WATER LOOP DEMAND BRANCH 3,HOT WATER LOOP,Plant Demand,NODE 70,NODE 71
   Branch,5,HOT WATER LOOP DEMAND BRANCH 4,HOT WATER LOOP,Plant Demand,NODE 83,NODE 84
   Branch,6,HOT WATER LOOP DEMAND BRANCH 5,HOT WATER LOOP,Plant Demand,NODE 96,NODE 97
   Branch,7,HOT WATER LOOP DEMAND BRANCH 6,HOT WATER LOOP,Plant Demand,NODE 109,NODE 110
   Branch,8,HOT WATER LOOP DEMAND BRANCH 7,HOT WATER LOOP,Plant Demand,NODE 122,NODE 123
   Branch,9,HOT WATER LOOP DEMAND BRANCH 8,HOT WATER LOOP,Plant Demand,NODE 135,NODE 136
   Branch,10,HOT WATER LOOP DEMAND BRANCH 9,HOT WATER LOOP,Plant Demand,NODE 169,NODE 170
   Branch,11,HOT WATER LOOP DEMAND BRANCH 10,HOT WATER LOOP,Plant Demand,NODE 178,NODE 179
   Branch,12,HOT WATER LOOP DEMAND BRANCH 11,HOT WATER LOOP,Plant Demand,NODE 182,NODE 183
   Branch,13,HOT WATER LOOP DEMAND BRANCH 12,HOT WATER LOOP,Plant Demand,NODE 184,NODE 185
   Branch,14,HOT WATER LOOP DEMAND BRANCH 13,HOT WATER LOOP,Plant Demand,NODE 189,NODE 190
   Branch,15,HOT WATER LOOP DEMAND BRANCH 14,HOT WATER LOOP,Plant Demand,NODE 191,NODE 192
   Branch,16,HOT WATER LOOP DEMAND BRANCH 15,HOT WATER LOOP,Plant Demand,NODE 196,NODE 197
   Branch,17,HOT WATER LOOP DEMAND BRANCH 16,HOT WATER LOOP,Plant Demand,NODE 198,NODE 199
   Branch,18,HOT WATER LOOP DEMAND BRANCH 17,HOT WATER LOOP,Plant Demand,NODE 203,NODE 204
   Branch,19,HOT WATER LOOP DEMAND BRANCH 18,HOT WATER LOOP,Plant Demand,NODE 210,NODE 211
   Branch,20,HOT WATER LOOP DEMAND BRANCH 19,HOT WATER LOOP,Plant Demand,NODE 220,NODE 221
   Branch,21,HOT WATER LOOP DEMAND BRANCH 20,HOT WATER LOOP,Plant Demand,NODE 224,NODE 225
   Branch,22,HOT WATER LOOP DEMAND BRANCH 21,HOT WATER LOOP,Plant Demand,NODE 226,NODE 227
   Branch,23,HOT WATER LOOP DEMAND BRANCH 22,HOT WATER LOOP,Plant Demand,NODE 231,NODE 232
   Branch,24,HOT WATER LOOP DEMAND BRANCH 23,HOT WATER LOOP,Plant Demand,NODE 233,NODE 234
   Branch,25,HOT WATER LOOP DEMAND BRANCH 24,HOT WATER LOOP,Plant Demand,NODE 238,NODE 239
   Branch,26,HOT WATER LOOP DEMAND BRANCH 25,HOT WATER LOOP,Plant Demand,NODE 240,NODE 241
   Branch,27,HOT WATER LOOP DEMAND BRANCH 26,HOT WATER LOOP,Plant Demand,NODE 245,NODE 246
   Branch,28,HOT WATER LOOP DEMAND BRANCH 27,HOT WATER LOOP,Plant Demand,NODE 252,NODE 253
   Branch,29,HOT WATER LOOP DEMAND BRANCH 28,HOT WATER LOOP,Plant Demand,NODE 262,NODE 263
   Branch,30,HOT WATER LOOP DEMAND BRANCH 29,HOT WATER LOOP,Plant Demand,NODE 266,NODE 267
   Branch,31,HOT WATER LOOP DEMAND BRANCH 30,HOT WATER LOOP,Plant Demand,NODE 268,NODE 269
   Branch,32,HOT WATER LOOP DEMAND BRANCH 31,HOT WATER LOOP,Plant Demand,NODE 273,NODE 274
   Branch,33,HOT WATER LOOP DEMAND BRANCH 32,HOT WATER LOOP,Plant Demand,NODE 280,NODE 281
   Branch,34,HOT WATER LOOP DEMAND BRANCH 33,HOT WATER LOOP,Plant Demand,NODE 290,NODE 291
   Branch,35,HOT WATER LOOP DEMAND BRANCH 34,HOT WATER LOOP,Plant Demand,NODE 294,NODE 295
   Branch,36,HOT WATER LOOP DEMAND BRANCH 35,HOT WATER LOOP,Plant Demand,NODE 296,NODE 297
   Branch,37,HOT WATER LOOP DEMAND BRANCH 36,HOT WATER LOOP,Plant Demand,NODE 301,NODE 302
   Branch,38,HOT WATER LOOP DEMAND BYPASS BRANCH,HOT WATER LOOP,Plant Demand,HOT WATER LOOP DEMAND BYPASS PIPE INLET NODE,HOT WATER LOOP DEMAND BYPASS PIPE OUTLET NODE
   Branch,39,HOT WATER LOOP DEMAND OUTLET BRANCH,HOT WATER LOOP,Plant Demand,HOT WATER LOOP DEMAND OUTLET PIPE NODE,NODE 25
 Branch List,19,MAIN SERVICE WATER LOOP SUPPLY BRANCHES,MAIN SERVICE WATER LOOP,Plant Supply,4
   Branch,1,MAIN SERVICE WATER LOOP SUPPLY INLET BRANCH,MAIN SERVICE WATER LOOP,Plant Supply,NODE 303,NODE 309
   Branch,2,MAIN SERVICE WATER LOOP SUPPLY BRANCH 1,MAIN SERVICE WATER LOOP,Plant Supply,NODE 305,NODE 310
   Branch,3,MAIN SERVICE WATER LOOP SUPPLY BRANCH 2,MAIN SERVICE WATER LOOP,Plant Supply,NODE 311,NODE 312
   Branch,4,MAIN SERVICE WATER LOOP SUPPLY OUTLET BRANCH,MAIN SERVICE WATER LOOP,Plant Supply,NODE 314,NODE 304
 Branch List,20,MAIN SERVICE WATER LOOP DEMAND BRANCHES,MAIN SERVICE WATER LOOP,Plant Demand,16
   Branch,1,MAIN SERVICE WATER LOOP DEMAND INLET BRANCH,MAIN SERVICE WATER LOOP,Plant Demand,NODE 306,NODE 315
   Branch,2,MAIN SERVICE WATER LOOP DEMAND BRANCH 1,MAIN SERVICE WATER LOOP,Plant Demand,NODE 308,NODE 313
   Branch,3,MAIN SERVICE WATER LOOP DEMAND BRANCH 2,MAIN SERVICE WATER LOOP,Plant Demand,NODE 317,NODE 318
   Branch,4,MAIN SERVICE WATER LOOP DEMAND BRANCH 3,MAIN SERVICE WATER LOOP,Plant Demand,NODE 319,NODE 320
   Branch,5,MAIN SERVICE WATER LOOP DEMAND BRANCH 4,MAIN SERVICE WATER LOOP,Plant Demand,NODE 321,NODE 322
   Branch,6,MAIN SERVICE WATER LOOP DEMAND BRANCH 5,MAIN SERVICE WATER LOOP,Plant Demand,NODE 323,NODE 324
   Branch,7,MAIN SERVICE WATER LOOP DEMAND BRANCH 6,MAIN SERVICE WATER LOOP,Plant Demand,NODE 325,NODE 326
   Branch,8,MAIN SERVICE WATER LOOP DEMAND BRANCH 7,MAIN SERVICE WATER LOOP,Plant Demand,NODE 327,NODE 328
   Branch,9,MAIN SERVICE WATER LOOP DEMAND BRANCH 8,MAIN SERVICE WATER LOOP,Plant Demand,NODE 329,NODE 330
   Branch,10,MAIN SERVICE WATER LOOP DEMAND BRANCH 9,MAIN SERVICE WATER LOOP,Plant Demand,NODE 331,NODE 332
   Branch,11,MAIN SERVICE WATER LOOP DEMAND BRANCH 10,MAIN SERVICE WATER LOOP,Plant Demand,NODE 333,NODE 334
   Branch,12,MAIN SERVICE WATER LOOP DEMAND BRANCH 11,MAIN SERVICE WATER LOOP,Plant Demand,NODE 335,NODE 336
   Branch,13,MAIN SERVICE WATER LOOP DEMAND BRANCH 12,MAIN SERVICE WATER LOOP,Plant Demand,NODE 337,NODE 338
   Branch,14,MAIN SERVICE WATER LOOP DEMAND BRANCH 13,MAIN SERVICE WATER LOOP,Plant Demand,NODE 339,NODE 340
   Branch,15,MAIN SERVICE WATER LOOP DEMAND BYPASS BRANCH,MAIN SERVICE WATER LOOP,Plant Demand,MAIN SERVICE WATER LOOP DEMAND BYPASS PIPE INLET NODE,MAIN SERVICE WATER LOOP DEMAND BYPASS PIPE OUTLET NODE
   Branch,16,MAIN SERVICE WATER LOOP DEMAND OUTLET BRANCH,MAIN SERVICE WATER LOOP,Plant Demand,NODE 316,NODE 307
! ===============================================================
! <#Supply Air Paths>,<Number of Supply Air Paths>
 #Supply Air Paths,12
! <Supply Air Path>,<Supply Air Path Count>,<Supply Air Path Name>,<AirLoopHVAC Name>
! <#Components on Supply Air Path>,<Number of Components>
! <Supply Air Path Component>,<Component Count>,<Component Type>,<Component Name>,<AirLoopHVAC Name>
! <#Outlet Nodes on Supply Air Path Component>,<Number of Nodes>
! <Supply Air Path Component Nodes>,<Node Count>,<Component Type>,<Component Name>,<Inlet Node Name>,<Outlet Node Name>,<AirLoopHVAC Name>
 Supply Air Path,1,SYS_3_PSZ SP-WHOLEBUILDING-PENITENTIARY SYS-3 FLR-4 SCH-H HPLCMT-NORTH ZN NODE 87 SUPPLY PATH,SYS_3_PSZ SP-WHOLEBUILDING-PENITENTIARY SYS-3 FLR-4 SCH-H HPLCMT-NORTH ZN
   #Components on Supply Air Path,1
   Supply Air Path Component,1,AIRLOOPHVAC:ZONESPLITTER,AIR LOOP HVAC ZONE SPLITTER 5,SYS_3_PSZ SP-WHOLEBUILDING-PENITENTIARY SYS-3 FLR-4 SCH-H HPLCMT-NORTH ZN
     #Outlet Nodes on Supply Air Path Component,1
     Supply Air Path Component Nodes,1,AIRLOOPHVAC:ZONESPLITTER,AIR LOOP HVAC ZONE SPLITTER 5,NODE 87,NODE 89,SYS_3_PSZ SP-WHOLEBUILDING-PENITENTIARY SYS-3 FLR-4 SCH-H HPLCMT-NORTH ZN
! <#Nodes on Supply Air Path>,<Number of Nodes>
! <Supply Air Path Node>,<Node Type>,<Node Count>,<Node Name>,<AirLoopHVAC Name>
#Nodes on Supply Air Path,2
   Supply Air Path Node,Inlet Node,1,NODE 87,SYS_3_PSZ SP-WHOLEBUILDING-PENITENTIARY SYS-3 FLR-4 SCH-H HPLCMT-NORTH ZN
   Supply Air Path Node,Outlet Node,2,NODE 89,SYS_3_PSZ SP-WHOLEBUILDING-PENITENTIARY SYS-3 FLR-4 SCH-H HPLCMT-NORTH ZN
 Supply Air Path,2,SYS_3_PSZ SP-WHOLEBUILDING-PERFORMING ARTS THEATRE SYS-3 FLR-4 SCH-C HPLCMT-SOUTH ZN NODE 74 SUPPLY PATH,SYS_3_PSZ SP-WHOLEBUILDING-PERFORMING ARTS THEATRE SYS-3 FLR-4 SCH-C HPLCMT-SOUTH ZN
   #Components on Supply Air Path,1
   Supply Air Path Component,1,AIRLOOPHVAC:ZONESPLITTER,AIR LOOP HVAC ZONE SPLITTER 4,SYS_3_PSZ SP-WHOLEBUILDING-PERFORMING ARTS THEATRE SYS-3 FLR-4 SCH-C HPLCMT-SOUTH ZN
     #Outlet Nodes on Supply Air Path Component,1
     Supply Air Path Component Nodes,1,AIRLOOPHVAC:ZONESPLITTER,AIR LOOP HVAC ZONE SPLITTER 4,NODE 74,NODE 76,SYS_3_PSZ SP-WHOLEBUILDING-PERFORMING ARTS THEATRE SYS-3 FLR-4 SCH-C HPLCMT-SOUTH ZN
! <#Nodes on Supply Air Path>,<Number of Nodes>
! <Supply Air Path Node>,<Node Type>,<Node Count>,<Node Name>,<AirLoopHVAC Name>
#Nodes on Supply Air Path,2
   Supply Air Path Node,Inlet Node,1,NODE 74,SYS_3_PSZ SP-WHOLEBUILDING-PERFORMING ARTS THEATRE SYS-3 FLR-4 SCH-C HPLCMT-SOUTH ZN
   Supply Air Path Node,Outlet Node,2,NODE 76,SYS_3_PSZ SP-WHOLEBUILDING-PERFORMING ARTS THEATRE SYS-3 FLR-4 SCH-C HPLCMT-SOUTH ZN
 Supply Air Path,3,SYS_3_PSZ SP-WHOLEBUILDING-POLICE STATION SYS-3 FLR-4 SCH-H HPLCMT-WEST ZN NODE 100 SUPPLY PATH,SYS_3_PSZ SP-WHOLEBUILDING-POLICE STATION SYS-3 FLR-4 SCH-H HPLCMT-WEST ZN
   #Components on Supply Air Path,1
   Supply Air Path Component,1,AIRLOOPHVAC:ZONESPLITTER,AIR LOOP HVAC ZONE SPLITTER 6,SYS_3_PSZ SP-WHOLEBUILDING-POLICE STATION SYS-3 FLR-4 SCH-H HPLCMT-WEST ZN
     #Outlet Nodes on Supply Air Path Component,1
     Supply Air Path Component Nodes,1,AIRLOOPHVAC:ZONESPLITTER,AIR LOOP HVAC ZONE SPLITTER 6,NODE 100,NODE 102,SYS_3_PSZ SP-WHOLEBUILDING-POLICE STATION SYS-3 FLR-4 SCH-H HPLCMT-WEST ZN
! <#Nodes on Supply Air Path>,<Number of Nodes>
! <Supply Air Path Node>,<Node Type>,<Node Count>,<Node Name>,<AirLoopHVAC Name>
#Nodes on Supply Air Path,2
   Supply Air Path Node,Inlet Node,1,NODE 100,SYS_3_PSZ SP-WHOLEBUILDING-POLICE STATION SYS-3 FLR-4 SCH-H HPLCMT-WEST ZN
   Supply Air Path Node,Outlet Node,2,NODE 102,SYS_3_PSZ SP-WHOLEBUILDING-POLICE STATION SYS-3 FLR-4 SCH-H HPLCMT-WEST ZN
 Supply Air Path,4,SYS_3_PSZ SP-WHOLEBUILDING-SCHOOL/UNIVERSITY SYS-3 FLR-3 SCH-D HPLCMT-SOUTH ZN NODE 61 SUPPLY PATH,SYS_3_PSZ SP-WHOLEBUILDING-SCHOOL/UNIVERSITY SYS-3 FLR-3 SCH-D HPLCMT-SOUTH ZN
   #Components on Supply Air Path,1
   Supply Air Path Component,1,AIRLOOPHVAC:ZONESPLITTER,AIR LOOP HVAC ZONE SPLITTER 3,SYS_3_PSZ SP-WHOLEBUILDING-SCHOOL/UNIVERSITY SYS-3 FLR-3 SCH-D HPLCMT-SOUTH ZN
     #Outlet Nodes on Supply Air Path Component,1
     Supply Air Path Component Nodes,1,AIRLOOPHVAC:ZONESPLITTER,AIR LOOP HVAC ZONE SPLITTER 3,NODE 61,NODE 63,SYS_3_PSZ SP-WHOLEBUILDING-SCHOOL/UNIVERSITY SYS-3 FLR-3 SCH-D HPLCMT-SOUTH ZN
! <#Nodes on Supply Air Path>,<Number of Nodes>
! <Supply Air Path Node>,<Node Type>,<Node Count>,<Node Name>,<AirLoopHVAC Name>
#Nodes on Supply Air Path,2
   Supply Air Path Node,Inlet Node,1,NODE 61,SYS_3_PSZ SP-WHOLEBUILDING-SCHOOL/UNIVERSITY SYS-3 FLR-3 SCH-D HPLCMT-SOUTH ZN
   Supply Air Path Node,Outlet Node,2,NODE 63,SYS_3_PSZ SP-WHOLEBUILDING-SCHOOL/UNIVERSITY SYS-3 FLR-3 SCH-D HPLCMT-SOUTH ZN
 Supply Air Path,5,SYS_3_PSZ SP-WHOLEBUILDING-TOWN HALL SYS-3 FLR-3 SCH-D HPLCMT-WEST ZN NODE 48 SUPPLY PATH,SYS_3_PSZ SP-WHOLEBUILDING-TOWN HALL SYS-3 FLR-3 SCH-D HPLCMT-WEST ZN
   #Components on Supply Air Path,1
   Supply Air Path Component,1,AIRLOOPHVAC:ZONESPLITTER,AIR LOOP HVAC ZONE SPLITTER 2,SYS_3_PSZ SP-WHOLEBUILDING-TOWN HALL SYS-3 FLR-3 SCH-D HPLCMT-WEST ZN
     #Outlet Nodes on Supply Air Path Component,1
     Supply Air Path Component Nodes,1,AIRLOOPHVAC:ZONESPLITTER,AIR LOOP HVAC ZONE SPLITTER 2,NODE 48,NODE 50,SYS_3_PSZ SP-WHOLEBUILDING-TOWN HALL SYS-3 FLR-3 SCH-D HPLCMT-WEST ZN
! <#Nodes on Supply Air Path>,<Number of Nodes>
! <Supply Air Path Node>,<Node Type>,<Node Count>,<Node Name>,<AirLoopHVAC Name>
#Nodes on Supply Air Path,2
   Supply Air Path Node,Inlet Node,1,NODE 48,SYS_3_PSZ SP-WHOLEBUILDING-TOWN HALL SYS-3 FLR-3 SCH-D HPLCMT-WEST ZN
   Supply Air Path Node,Outlet Node,2,NODE 50,SYS_3_PSZ SP-WHOLEBUILDING-TOWN HALL SYS-3 FLR-3 SCH-D HPLCMT-WEST ZN
 Supply Air Path,6,SYS_3_PSZ SP-WHOLEBUILDING-WORKSHOP SYS-3 FLR-2 SCH-A HPLCMT-CORE ZN NODE 36 SUPPLY PATH,SYS_3_PSZ SP-WHOLEBUILDING-WORKSHOP SYS-3 FLR-2 SCH-A HPLCMT-CORE ZN
   #Components on Supply Air Path,1
   Supply Air Path Component,1,AIRLOOPHVAC:ZONESPLITTER,AIR LOOP HVAC ZONE SPLITTER 1,SYS_3_PSZ SP-WHOLEBUILDING-WORKSHOP SYS-3 FLR-2 SCH-A HPLCMT-CORE ZN
     #Outlet Nodes on Supply Air Path Component,1
     Supply Air Path Component Nodes,1,AIRLOOPHVAC:ZONESPLITTER,AIR LOOP HVAC ZONE SPLITTER 1,NODE 36,NODE 38,SYS_3_PSZ SP-WHOLEBUILDING-WORKSHOP SYS-3 FLR-2 SCH-A HPLCMT-CORE ZN
! <#Nodes on Supply Air Path>,<Number of Nodes>
! <Supply Air Path Node>,<Node Type>,<Node Count>,<Node Name>,<AirLoopHVAC Name>
#Nodes on Supply Air Path,2
   Supply Air Path Node,Inlet Node,1,NODE 36,SYS_3_PSZ SP-WHOLEBUILDING-WORKSHOP SYS-3 FLR-2 SCH-A HPLCMT-CORE ZN
   Supply Air Path Node,Outlet Node,2,NODE 38,SYS_3_PSZ SP-WHOLEBUILDING-WORKSHOP SYS-3 FLR-2 SCH-A HPLCMT-CORE ZN
 Supply Air Path,7,SYS_4_PSZ_SP-WHOLEBUILDING-STORAGE GARAGE SYS-4 FLR-3 SCH-K HPLCMT-NORTH ZN NODE 126 SUPPLY PATH,SYS_4_PSZ_SP-WHOLEBUILDING-STORAGE GARAGE SYS-4 FLR-3 SCH-K HPLCMT-NORTH ZN
   #Components on Supply Air Path,1
   Supply Air Path Component,1,AIRLOOPHVAC:ZONESPLITTER,AIR LOOP HVAC ZONE SPLITTER 8,SYS_4_PSZ_SP-WHOLEBUILDING-STORAGE GARAGE SYS-4 FLR-3 SCH-K HPLCMT-NORTH ZN
     #Outlet Nodes on Supply Air Path Component,1
     Supply Air Path Component Nodes,1,AIRLOOPHVAC:ZONESPLITTER,AIR LOOP HVAC ZONE SPLITTER 8,NODE 126,NODE 128,SYS_4_PSZ_SP-WHOLEBUILDING-STORAGE GARAGE SYS-4 FLR-3 SCH-K HPLCMT-NORTH ZN
! <#Nodes on Supply Air Path>,<Number of Nodes>
! <Supply Air Path Node>,<Node Type>,<Node Count>,<Node Name>,<AirLoopHVAC Name>
#Nodes on Supply Air Path,2
   Supply Air Path Node,Inlet Node,1,NODE 126,SYS_4_PSZ_SP-WHOLEBUILDING-STORAGE GARAGE SYS-4 FLR-3 SCH-K HPLCMT-NORTH ZN
   Supply Air Path Node,Outlet Node,2,NODE 128,SYS_4_PSZ_SP-WHOLEBUILDING-STORAGE GARAGE SYS-4 FLR-3 SCH-K HPLCMT-NORTH ZN
 Supply Air Path,8,SYS_4_PSZ_SP-WHOLEBUILDING-WAREHOUSE SYS-4 FLR-1 SCH-A HPLCMT-EAST ZN NODE 113 SUPPLY PATH,SYS_4_PSZ_SP-WHOLEBUILDING-WAREHOUSE SYS-4 FLR-1 SCH-A HPLCMT-EAST ZN
   #Components on Supply Air Path,1
   Supply Air Path Component,1,AIRLOOPHVAC:ZONESPLITTER,AIR LOOP HVAC ZONE SPLITTER 7,SYS_4_PSZ_SP-WHOLEBUILDING-WAREHOUSE SYS-4 FLR-1 SCH-A HPLCMT-EAST ZN
     #Outlet Nodes on Supply Air Path Component,1
     Supply Air Path Component Nodes,1,AIRLOOPHVAC:ZONESPLITTER,AIR LOOP HVAC ZONE SPLITTER 7,NODE 113,NODE 115,SYS_4_PSZ_SP-WHOLEBUILDING-WAREHOUSE SYS-4 FLR-1 SCH-A HPLCMT-EAST ZN
! <#Nodes on Supply Air Path>,<Number of Nodes>
! <Supply Air Path Node>,<Node Type>,<Node Count>,<Node Name>,<AirLoopHVAC Name>
#Nodes on Supply Air Path,2
   Supply Air Path Node,Inlet Node,1,NODE 113,SYS_4_PSZ_SP-WHOLEBUILDING-WAREHOUSE SYS-4 FLR-1 SCH-A HPLCMT-EAST ZN
   Supply Air Path Node,Outlet Node,2,NODE 115,SYS_4_PSZ_SP-WHOLEBUILDING-WAREHOUSE SYS-4 FLR-1 SCH-A HPLCMT-EAST ZN
 Supply Air Path,9,SYS_6_VAV WITH REHEAT NODE 166 SUPPLY PATH,SYS_6_VAV WITH REHEAT
   #Components on Supply Air Path,1
   Supply Air Path Component,1,AIRLOOPHVAC:ZONESPLITTER,AIR LOOP HVAC ZONE SPLITTER 9,SYS_6_VAV WITH REHEAT
     #Outlet Nodes on Supply Air Path Component,4
     Supply Air Path Component Nodes,1,AIRLOOPHVAC:ZONESPLITTER,AIR LOOP HVAC ZONE SPLITTER 9,NODE 166,NODE 181,SYS_6_VAV WITH REHEAT
     Supply Air Path Component Nodes,2,AIRLOOPHVAC:ZONESPLITTER,AIR LOOP HVAC ZONE SPLITTER 9,NODE 166,NODE 188,SYS_6_VAV WITH REHEAT
     Supply Air Path Component Nodes,3,AIRLOOPHVAC:ZONESPLITTER,AIR LOOP HVAC ZONE SPLITTER 9,NODE 166,NODE 195,SYS_6_VAV WITH REHEAT
     Supply Air Path Component Nodes,4,AIRLOOPHVAC:ZONESPLITTER,AIR LOOP HVAC ZONE SPLITTER 9,NODE 166,NODE 202,SYS_6_VAV WITH REHEAT
! <#Nodes on Supply Air Path>,<Number of Nodes>
! <Supply Air Path Node>,<Node Type>,<Node Count>,<Node Name>,<AirLoopHVAC Name>
#Nodes on Supply Air Path,5
   Supply Air Path Node,Inlet Node,1,NODE 166,SYS_6_VAV WITH REHEAT
   Supply Air Path Node,Outlet Node,2,NODE 181,SYS_6_VAV WITH REHEAT
   Supply Air Path Node,Outlet Node,3,NODE 188,SYS_6_VAV WITH REHEAT
   Supply Air Path Node,Outlet Node,4,NODE 195,SYS_6_VAV WITH REHEAT
   Supply Air Path Node,Outlet Node,5,NODE 202,SYS_6_VAV WITH REHEAT
 Supply Air Path,10,SYS_6_VAV WITH REHEAT 1 NODE 207 SUPPLY PATH,SYS_6_VAV WITH REHEAT 1
   #Components on Supply Air Path,1
   Supply Air Path Component,1,AIRLOOPHVAC:ZONESPLITTER,AIR LOOP HVAC ZONE SPLITTER 10,SYS_6_VAV WITH REHEAT 1
     #Outlet Nodes on Supply Air Path Component,4
     Supply Air Path Component Nodes,1,AIRLOOPHVAC:ZONESPLITTER,AIR LOOP HVAC ZONE SPLITTER 10,NODE 207,NODE 223,SYS_6_VAV WITH REHEAT 1
     Supply Air Path Component Nodes,2,AIRLOOPHVAC:ZONESPLITTER,AIR LOOP HVAC ZONE SPLITTER 10,NODE 207,NODE 230,SYS_6_VAV WITH REHEAT 1
     Supply Air Path Component Nodes,3,AIRLOOPHVAC:ZONESPLITTER,AIR LOOP HVAC ZONE SPLITTER 10,NODE 207,NODE 237,SYS_6_VAV WITH REHEAT 1
     Supply Air Path Component Nodes,4,AIRLOOPHVAC:ZONESPLITTER,AIR LOOP HVAC ZONE SPLITTER 10,NODE 207,NODE 244,SYS_6_VAV WITH REHEAT 1
! <#Nodes on Supply Air Path>,<Number of Nodes>
! <Supply Air Path Node>,<Node Type>,<Node Count>,<Node Name>,<AirLoopHVAC Name>
#Nodes on Supply Air Path,5
   Supply Air Path Node,Inlet Node,1,NODE 207,SYS_6_VAV WITH REHEAT 1
   Supply Air Path Node,Outlet Node,2,NODE 223,SYS_6_VAV WITH REHEAT 1
   Supply Air Path Node,Outlet Node,3,NODE 230,SYS_6_VAV WITH REHEAT 1
   Supply Air Path Node,Outlet Node,4,NODE 237,SYS_6_VAV WITH REHEAT 1
   Supply Air Path Node,Outlet Node,5,NODE 244,SYS_6_VAV WITH REHEAT 1
 Supply Air Path,11,SYS_6_VAV WITH REHEAT 2 NODE 249 SUPPLY PATH,SYS_6_VAV WITH REHEAT 2
   #Components on Supply Air Path,1
   Supply Air Path Component,1,AIRLOOPHVAC:ZONESPLITTER,AIR LOOP HVAC ZONE SPLITTER 11,SYS_6_VAV WITH REHEAT 2
     #Outlet Nodes on Supply Air Path Component,2
     Supply Air Path Component Nodes,1,AIRLOOPHVAC:ZONESPLITTER,AIR LOOP HVAC ZONE SPLITTER 11,NODE 249,NODE 265,SYS_6_VAV WITH REHEAT 2
     Supply Air Path Component Nodes,2,AIRLOOPHVAC:ZONESPLITTER,AIR LOOP HVAC ZONE SPLITTER 11,NODE 249,NODE 272,SYS_6_VAV WITH REHEAT 2
! <#Nodes on Supply Air Path>,<Number of Nodes>
! <Supply Air Path Node>,<Node Type>,<Node Count>,<Node Name>,<AirLoopHVAC Name>
#Nodes on Supply Air Path,3
   Supply Air Path Node,Inlet Node,1,NODE 249,SYS_6_VAV WITH REHEAT 2
   Supply Air Path Node,Outlet Node,2,NODE 265,SYS_6_VAV WITH REHEAT 2
   Supply Air Path Node,Outlet Node,3,NODE 272,SYS_6_VAV WITH REHEAT 2
 Supply Air Path,12,SYS_6_VAV WITH REHEAT 3 NODE 277 SUPPLY PATH,SYS_6_VAV WITH REHEAT 3
   #Components on Supply Air Path,1
   Supply Air Path Component,1,AIRLOOPHVAC:ZONESPLITTER,AIR LOOP HVAC ZONE SPLITTER 12,SYS_6_VAV WITH REHEAT 3
     #Outlet Nodes on Supply Air Path Component,2
     Supply Air Path Component Nodes,1,AIRLOOPHVAC:ZONESPLITTER,AIR LOOP HVAC ZONE SPLITTER 12,NODE 277,NODE 293,SYS_6_VAV WITH REHEAT 3
     Supply Air Path Component Nodes,2,AIRLOOPHVAC:ZONESPLITTER,AIR LOOP HVAC ZONE SPLITTER 12,NODE 277,NODE 300,SYS_6_VAV WITH REHEAT 3
! <#Nodes on Supply Air Path>,<Number of Nodes>
! <Supply Air Path Node>,<Node Type>,<Node Count>,<Node Name>,<AirLoopHVAC Name>
#Nodes on Supply Air Path,3
   Supply Air Path Node,Inlet Node,1,NODE 277,SYS_6_VAV WITH REHEAT 3
   Supply Air Path Node,Outlet Node,2,NODE 293,SYS_6_VAV WITH REHEAT 3
   Supply Air Path Node,Outlet Node,3,NODE 300,SYS_6_VAV WITH REHEAT 3
! ===============================================================
! <#Return Air Paths>,<Number of Return Air Paths>
 #Return Air Paths,12
! <Return Air Path>,<Return Air Path Count>,<Return Air Path Name>,<AirLoopHVAC Name>
! <#Components on Return Air Path>,<Number of Components>
! <Return Air Path Component>,<Component Count>,<Component Type>,<Component Name>,<AirLoopHVAC Name>
! <#Inlet Nodes on Return Air Path Component>,<Number of Nodes>
! <Return Air Path Component Nodes>,<Node Count>,<Component Type>,<Component Name>,<Inlet Node Name>,<Outlet Node Name>,<AirLoopHVAC Name>
 Return Air Path,1,SYS_3_PSZ SP-WHOLEBUILDING-PENITENTIARY SYS-3 FLR-4 SCH-H HPLCMT-NORTH ZN RETURN PATH,SYS_3_PSZ SP-WHOLEBUILDING-PENITENTIARY SYS-3 FLR-4 SCH-H HPLCMT-NORTH ZN
   #Components on Return Air Path,1
   Return Air Path Component,1,AIRLOOPHVAC:ZONEMIXER,AIR LOOP HVAC ZONE MIXER 5,SYS_3_PSZ SP-WHOLEBUILDING-PENITENTIARY SYS-3 FLR-4 SCH-H HPLCMT-NORTH ZN
     #Inlet Nodes on Return Air Path Component,1
     Return Air Path Component Nodes,1,AIRLOOPHVAC:ZONEMIXER,AIR LOOP HVAC ZONE MIXER 5,NODE 95,NODE 88,SYS_3_PSZ SP-WHOLEBUILDING-PENITENTIARY SYS-3 FLR-4 SCH-H HPLCMT-NORTH ZN
! <#Nodes on Return Air Path>,<Number of Nodes>
! <Return Air Path Node>,<Node Type>,<Node Count>,<Node Name>,<AirLoopHVAC Name>
   #Nodes on Return Air Path,2
   Return Air Path Node,Outlet Node,1,NODE 88,SYS_3_PSZ SP-WHOLEBUILDING-PENITENTIARY SYS-3 FLR-4 SCH-H HPLCMT-NORTH ZN
   Return Air Path Node,Inlet Node,2,NODE 95,SYS_3_PSZ SP-WHOLEBUILDING-PENITENTIARY SYS-3 FLR-4 SCH-H HPLCMT-NORTH ZN
 Return Air Path,2,SYS_3_PSZ SP-WHOLEBUILDING-PERFORMING ARTS THEATRE SYS-3 FLR-4 SCH-C HPLCMT-SOUTH ZN RETURN PATH,SYS_3_PSZ SP-WHOLEBUILDING-PERFORMING ARTS THEATRE SYS-3 FLR-4 SCH-C HPLCMT-SOUTH ZN
   #Components on Return Air Path,1
   Return Air Path Component,1,AIRLOOPHVAC:ZONEMIXER,AIR LOOP HVAC ZONE MIXER 4,SYS_3_PSZ SP-WHOLEBUILDING-PERFORMING ARTS THEATRE SYS-3 FLR-4 SCH-C HPLCMT-SOUTH ZN
     #Inlet Nodes on Return Air Path Component,1
     Return Air Path Component Nodes,1,AIRLOOPHVAC:ZONEMIXER,AIR LOOP HVAC ZONE MIXER 4,NODE 82,NODE 75,SYS_3_PSZ SP-WHOLEBUILDING-PERFORMING ARTS THEATRE SYS-3 FLR-4 SCH-C HPLCMT-SOUTH ZN
! <#Nodes on Return Air Path>,<Number of Nodes>
! <Return Air Path Node>,<Node Type>,<Node Count>,<Node Name>,<AirLoopHVAC Name>
   #Nodes on Return Air Path,2
   Return Air Path Node,Outlet Node,1,NODE 75,SYS_3_PSZ SP-WHOLEBUILDING-PERFORMING ARTS THEATRE SYS-3 FLR-4 SCH-C HPLCMT-SOUTH ZN
   Return Air Path Node,Inlet Node,2,NODE 82,SYS_3_PSZ SP-WHOLEBUILDING-PERFORMING ARTS THEATRE SYS-3 FLR-4 SCH-C HPLCMT-SOUTH ZN
 Return Air Path,3,SYS_3_PSZ SP-WHOLEBUILDING-POLICE STATION SYS-3 FLR-4 SCH-H HPLCMT-WEST ZN RETURN PATH,SYS_3_PSZ SP-WHOLEBUILDING-POLICE STATION SYS-3 FLR-4 SCH-H HPLCMT-WEST ZN
   #Components on Return Air Path,1
   Return Air Path Component,1,AIRLOOPHVAC:ZONEMIXER,AIR LOOP HVAC ZONE MIXER 6,SYS_3_PSZ SP-WHOLEBUILDING-POLICE STATION SYS-3 FLR-4 SCH-H HPLCMT-WEST ZN
     #Inlet Nodes on Return Air Path Component,1
     Return Air Path Component Nodes,1,AIRLOOPHVAC:ZONEMIXER,AIR LOOP HVAC ZONE MIXER 6,NODE 108,NODE 101,SYS_3_PSZ SP-WHOLEBUILDING-POLICE STATION SYS-3 FLR-4 SCH-H HPLCMT-WEST ZN
! <#Nodes on Return Air Path>,<Number of Nodes>
! <Return Air Path Node>,<Node Type>,<Node Count>,<Node Name>,<AirLoopHVAC Name>
   #Nodes on Return Air Path,2
   Return Air Path Node,Outlet Node,1,NODE 101,SYS_3_PSZ SP-WHOLEBUILDING-POLICE STATION SYS-3 FLR-4 SCH-H HPLCMT-WEST ZN
   Return Air Path Node,Inlet Node,2,NODE 108,SYS_3_PSZ SP-WHOLEBUILDING-POLICE STATION SYS-3 FLR-4 SCH-H HPLCMT-WEST ZN
 Return Air Path,4,SYS_3_PSZ SP-WHOLEBUILDING-SCHOOL/UNIVERSITY SYS-3 FLR-3 SCH-D HPLCMT-SOUTH ZN RETURN PATH,SYS_3_PSZ SP-WHOLEBUILDING-SCHOOL/UNIVERSITY SYS-3 FLR-3 SCH-D HPLCMT-SOUTH ZN
   #Components on Return Air Path,1
   Return Air Path Component,1,AIRLOOPHVAC:ZONEMIXER,AIR LOOP HVAC ZONE MIXER 3,SYS_3_PSZ SP-WHOLEBUILDING-SCHOOL/UNIVERSITY SYS-3 FLR-3 SCH-D HPLCMT-SOUTH ZN
     #Inlet Nodes on Return Air Path Component,1
     Return Air Path Component Nodes,1,AIRLOOPHVAC:ZONEMIXER,AIR LOOP HVAC ZONE MIXER 3,NODE 69,NODE 62,SYS_3_PSZ SP-WHOLEBUILDING-SCHOOL/UNIVERSITY SYS-3 FLR-3 SCH-D HPLCMT-SOUTH ZN
! <#Nodes on Return Air Path>,<Number of Nodes>
! <Return Air Path Node>,<Node Type>,<Node Count>,<Node Name>,<AirLoopHVAC Name>
   #Nodes on Return Air Path,2
   Return Air Path Node,Outlet Node,1,NODE 62,SYS_3_PSZ SP-WHOLEBUILDING-SCHOOL/UNIVERSITY SYS-3 FLR-3 SCH-D HPLCMT-SOUTH ZN
   Return Air Path Node,Inlet Node,2,NODE 69,SYS_3_PSZ SP-WHOLEBUILDING-SCHOOL/UNIVERSITY SYS-3 FLR-3 SCH-D HPLCMT-SOUTH ZN
 Return Air Path,5,SYS_3_PSZ SP-WHOLEBUILDING-TOWN HALL SYS-3 FLR-3 SCH-D HPLCMT-WEST ZN RETURN PATH,SYS_3_PSZ SP-WHOLEBUILDING-TOWN HALL SYS-3 FLR-3 SCH-D HPLCMT-WEST ZN
   #Components on Return Air Path,1
   Return Air Path Component,1,AIRLOOPHVAC:ZONEMIXER,AIR LOOP HVAC ZONE MIXER 2,SYS_3_PSZ SP-WHOLEBUILDING-TOWN HALL SYS-3 FLR-3 SCH-D HPLCMT-WEST ZN
     #Inlet Nodes on Return Air Path Component,1
     Return Air Path Component Nodes,1,AIRLOOPHVAC:ZONEMIXER,AIR LOOP HVAC ZONE MIXER 2,NODE 56,NODE 49,SYS_3_PSZ SP-WHOLEBUILDING-TOWN HALL SYS-3 FLR-3 SCH-D HPLCMT-WEST ZN
! <#Nodes on Return Air Path>,<Number of Nodes>
! <Return Air Path Node>,<Node Type>,<Node Count>,<Node Name>,<AirLoopHVAC Name>
   #Nodes on Return Air Path,2
   Return Air Path Node,Outlet Node,1,NODE 49,SYS_3_PSZ SP-WHOLEBUILDING-TOWN HALL SYS-3 FLR-3 SCH-D HPLCMT-WEST ZN
   Return Air Path Node,Inlet Node,2,NODE 56,SYS_3_PSZ SP-WHOLEBUILDING-TOWN HALL SYS-3 FLR-3 SCH-D HPLCMT-WEST ZN
 Return Air Path,6,SYS_3_PSZ SP-WHOLEBUILDING-WORKSHOP SYS-3 FLR-2 SCH-A HPLCMT-CORE ZN RETURN PATH,SYS_3_PSZ SP-WHOLEBUILDING-WORKSHOP SYS-3 FLR-2 SCH-A HPLCMT-CORE ZN
   #Components on Return Air Path,1
   Return Air Path Component,1,AIRLOOPHVAC:ZONEMIXER,AIR LOOP HVAC ZONE MIXER 1,SYS_3_PSZ SP-WHOLEBUILDING-WORKSHOP SYS-3 FLR-2 SCH-A HPLCMT-CORE ZN
     #Inlet Nodes on Return Air Path Component,1
     Return Air Path Component Nodes,1,AIRLOOPHVAC:ZONEMIXER,AIR LOOP HVAC ZONE MIXER 1,NODE 44,NODE 37,SYS_3_PSZ SP-WHOLEBUILDING-WORKSHOP SYS-3 FLR-2 SCH-A HPLCMT-CORE ZN
! <#Nodes on Return Air Path>,<Number of Nodes>
! <Return Air Path Node>,<Node Type>,<Node Count>,<Node Name>,<AirLoopHVAC Name>
   #Nodes on Return Air Path,2
   Return Air Path Node,Outlet Node,1,NODE 37,SYS_3_PSZ SP-WHOLEBUILDING-WORKSHOP SYS-3 FLR-2 SCH-A HPLCMT-CORE ZN
   Return Air Path Node,Inlet Node,2,NODE 44,SYS_3_PSZ SP-WHOLEBUILDING-WORKSHOP SYS-3 FLR-2 SCH-A HPLCMT-CORE ZN
 Return Air Path,7,SYS_4_PSZ_SP-WHOLEBUILDING-STORAGE GARAGE SYS-4 FLR-3 SCH-K HPLCMT-NORTH ZN RETURN PATH,SYS_4_PSZ_SP-WHOLEBUILDING-STORAGE GARAGE SYS-4 FLR-3 SCH-K HPLCMT-NORTH ZN
   #Components on Return Air Path,1
   Return Air Path Component,1,AIRLOOPHVAC:ZONEMIXER,AIR LOOP HVAC ZONE MIXER 8,SYS_4_PSZ_SP-WHOLEBUILDING-STORAGE GARAGE SYS-4 FLR-3 SCH-K HPLCMT-NORTH ZN
     #Inlet Nodes on Return Air Path Component,1
     Return Air Path Component Nodes,1,AIRLOOPHVAC:ZONEMIXER,AIR LOOP HVAC ZONE MIXER 8,NODE 134,NODE 127,SYS_4_PSZ_SP-WHOLEBUILDING-STORAGE GARAGE SYS-4 FLR-3 SCH-K HPLCMT-NORTH ZN
! <#Nodes on Return Air Path>,<Number of Nodes>
! <Return Air Path Node>,<Node Type>,<Node Count>,<Node Name>,<AirLoopHVAC Name>
   #Nodes on Return Air Path,2
   Return Air Path Node,Outlet Node,1,NODE 127,SYS_4_PSZ_SP-WHOLEBUILDING-STORAGE GARAGE SYS-4 FLR-3 SCH-K HPLCMT-NORTH ZN
   Return Air Path Node,Inlet Node,2,NODE 134,SYS_4_PSZ_SP-WHOLEBUILDING-STORAGE GARAGE SYS-4 FLR-3 SCH-K HPLCMT-NORTH ZN
 Return Air Path,8,SYS_4_PSZ_SP-WHOLEBUILDING-WAREHOUSE SYS-4 FLR-1 SCH-A HPLCMT-EAST ZN RETURN PATH,SYS_4_PSZ_SP-WHOLEBUILDING-WAREHOUSE SYS-4 FLR-1 SCH-A HPLCMT-EAST ZN
   #Components on Return Air Path,1
   Return Air Path Component,1,AIRLOOPHVAC:ZONEMIXER,AIR LOOP HVAC ZONE MIXER 7,SYS_4_PSZ_SP-WHOLEBUILDING-WAREHOUSE SYS-4 FLR-1 SCH-A HPLCMT-EAST ZN
     #Inlet Nodes on Return Air Path Component,1
     Return Air Path Component Nodes,1,AIRLOOPHVAC:ZONEMIXER,AIR LOOP HVAC ZONE MIXER 7,NODE 121,NODE 114,SYS_4_PSZ_SP-WHOLEBUILDING-WAREHOUSE SYS-4 FLR-1 SCH-A HPLCMT-EAST ZN
! <#Nodes on Return Air Path>,<Number of Nodes>
! <Return Air Path Node>,<Node Type>,<Node Count>,<Node Name>,<AirLoopHVAC Name>
   #Nodes on Return Air Path,2
   Return Air Path Node,Outlet Node,1,NODE 114,SYS_4_PSZ_SP-WHOLEBUILDING-WAREHOUSE SYS-4 FLR-1 SCH-A HPLCMT-EAST ZN
   Return Air Path Node,Inlet Node,2,NODE 121,SYS_4_PSZ_SP-WHOLEBUILDING-WAREHOUSE SYS-4 FLR-1 SCH-A HPLCMT-EAST ZN
 Return Air Path,9,SYS_6_VAV WITH REHEAT RETURN PATH,SYS_6_VAV WITH REHEAT
   #Components on Return Air Path,1
   Return Air Path Component,1,AIRLOOPHVAC:ZONEMIXER,AIR LOOP HVAC ZONE MIXER 9,SYS_6_VAV WITH REHEAT
     #Inlet Nodes on Return Air Path Component,4
     Return Air Path Component Nodes,1,AIRLOOPHVAC:ZONEMIXER,AIR LOOP HVAC ZONE MIXER 9,NODE 180,NODE 167,SYS_6_VAV WITH REHEAT
     Return Air Path Component Nodes,2,AIRLOOPHVAC:ZONEMIXER,AIR LOOP HVAC ZONE MIXER 9,NODE 187,NODE 167,SYS_6_VAV WITH REHEAT
     Return Air Path Component Nodes,3,AIRLOOPHVAC:ZONEMIXER,AIR LOOP HVAC ZONE MIXER 9,NODE 194,NODE 167,SYS_6_VAV WITH REHEAT
     Return Air Path Component Nodes,4,AIRLOOPHVAC:ZONEMIXER,AIR LOOP HVAC ZONE MIXER 9,NODE 201,NODE 167,SYS_6_VAV WITH REHEAT
! <#Nodes on Return Air Path>,<Number of Nodes>
! <Return Air Path Node>,<Node Type>,<Node Count>,<Node Name>,<AirLoopHVAC Name>
   #Nodes on Return Air Path,5
   Return Air Path Node,Outlet Node,1,NODE 167,SYS_6_VAV WITH REHEAT
   Return Air Path Node,Inlet Node,2,NODE 180,SYS_6_VAV WITH REHEAT
   Return Air Path Node,Inlet Node,3,NODE 187,SYS_6_VAV WITH REHEAT
   Return Air Path Node,Inlet Node,4,NODE 194,SYS_6_VAV WITH REHEAT
   Return Air Path Node,Inlet Node,5,NODE 201,SYS_6_VAV WITH REHEAT
 Return Air Path,10,SYS_6_VAV WITH REHEAT 1 RETURN PATH,SYS_6_VAV WITH REHEAT 1
   #Components on Return Air Path,1
   Return Air Path Component,1,AIRLOOPHVAC:ZONEMIXER,AIR LOOP HVAC ZONE MIXER 10,SYS_6_VAV WITH REHEAT 1
     #Inlet Nodes on Return Air Path Component,4
     Return Air Path Component Nodes,1,AIRLOOPHVAC:ZONEMIXER,AIR LOOP HVAC ZONE MIXER 10,NODE 222,NODE 208,SYS_6_VAV WITH REHEAT 1
     Return Air Path Component Nodes,2,AIRLOOPHVAC:ZONEMIXER,AIR LOOP HVAC ZONE MIXER 10,NODE 229,NODE 208,SYS_6_VAV WITH REHEAT 1
     Return Air Path Component Nodes,3,AIRLOOPHVAC:ZONEMIXER,AIR LOOP HVAC ZONE MIXER 10,NODE 236,NODE 208,SYS_6_VAV WITH REHEAT 1
     Return Air Path Component Nodes,4,AIRLOOPHVAC:ZONEMIXER,AIR LOOP HVAC ZONE MIXER 10,NODE 243,NODE 208,SYS_6_VAV WITH REHEAT 1
! <#Nodes on Return Air Path>,<Number of Nodes>
! <Return Air Path Node>,<Node Type>,<Node Count>,<Node Name>,<AirLoopHVAC Name>
   #Nodes on Return Air Path,5
   Return Air Path Node,Outlet Node,1,NODE 208,SYS_6_VAV WITH REHEAT 1
   Return Air Path Node,Inlet Node,2,NODE 222,SYS_6_VAV WITH REHEAT 1
   Return Air Path Node,Inlet Node,3,NODE 229,SYS_6_VAV WITH REHEAT 1
   Return Air Path Node,Inlet Node,4,NODE 236,SYS_6_VAV WITH REHEAT 1
   Return Air Path Node,Inlet Node,5,NODE 243,SYS_6_VAV WITH REHEAT 1
 Return Air Path,11,SYS_6_VAV WITH REHEAT 2 RETURN PATH,SYS_6_VAV WITH REHEAT 2
   #Components on Return Air Path,1
   Return Air Path Component,1,AIRLOOPHVAC:ZONEMIXER,AIR LOOP HVAC ZONE MIXER 11,SYS_6_VAV WITH REHEAT 2
     #Inlet Nodes on Return Air Path Component,2
     Return Air Path Component Nodes,1,AIRLOOPHVAC:ZONEMIXER,AIR LOOP HVAC ZONE MIXER 11,NODE 264,NODE 250,SYS_6_VAV WITH REHEAT 2
     Return Air Path Component Nodes,2,AIRLOOPHVAC:ZONEMIXER,AIR LOOP HVAC ZONE MIXER 11,NODE 271,NODE 250,SYS_6_VAV WITH REHEAT 2
! <#Nodes on Return Air Path>,<Number of Nodes>
! <Return Air Path Node>,<Node Type>,<Node Count>,<Node Name>,<AirLoopHVAC Name>
   #Nodes on Return Air Path,3
   Return Air Path Node,Outlet Node,1,NODE 250,SYS_6_VAV WITH REHEAT 2
   Return Air Path Node,Inlet Node,2,NODE 264,SYS_6_VAV WITH REHEAT 2
   Return Air Path Node,Inlet Node,3,NODE 271,SYS_6_VAV WITH REHEAT 2
 Return Air Path,12,SYS_6_VAV WITH REHEAT 3 RETURN PATH,SYS_6_VAV WITH REHEAT 3
   #Components on Return Air Path,1
   Return Air Path Component,1,AIRLOOPHVAC:ZONEMIXER,AIR LOOP HVAC ZONE MIXER 12,SYS_6_VAV WITH REHEAT 3
     #Inlet Nodes on Return Air Path Component,2
     Return Air Path Component Nodes,1,AIRLOOPHVAC:ZONEMIXER,AIR LOOP HVAC ZONE MIXER 12,NODE 292,NODE 278,SYS_6_VAV WITH REHEAT 3
     Return Air Path Component Nodes,2,AIRLOOPHVAC:ZONEMIXER,AIR LOOP HVAC ZONE MIXER 12,NODE 299,NODE 278,SYS_6_VAV WITH REHEAT 3
! <#Nodes on Return Air Path>,<Number of Nodes>
! <Return Air Path Node>,<Node Type>,<Node Count>,<Node Name>,<AirLoopHVAC Name>
   #Nodes on Return Air Path,3
   Return Air Path Node,Outlet Node,1,NODE 278,SYS_6_VAV WITH REHEAT 3
   Return Air Path Node,Inlet Node,2,NODE 292,SYS_6_VAV WITH REHEAT 3
   Return Air Path Node,Inlet Node,3,NODE 299,SYS_6_VAV WITH REHEAT 3
! ===============================================================
! #Outdoor Air Nodes,<Number of Outdoor Air Nodes>
 #Outdoor Air Nodes,13
! <Outdoor Air Node>,<NodeNumber>,<Node Name>
 Outdoor Air Node,319,NODE 90
 Outdoor Air Node,320,NODE 77
 Outdoor Air Node,321,NODE 103
 Outdoor Air Node,322,NODE 64
 Outdoor Air Node,323,NODE 51
 Outdoor Air Node,324,NODE 39
 Outdoor Air Node,325,NODE 129
 Outdoor Air Node,326,NODE 116
 Outdoor Air Node,327,NODE 172
 Outdoor Air Node,328,NODE 214
 Outdoor Air Node,329,NODE 256
 Outdoor Air Node,330,NODE 284
 Outdoor Air Node,331,MODEL OUTDOOR AIR NODE
! ===============================================================
! <#Component Sets>,<Number of Component Sets>
 #Component Sets,181
! <Component Set>,<Component Set Count>,<Parent Object Type>,<Parent Object Name>,<Component Type>,<Component Name>,<Inlet Node ID>,<Outlet Node ID>,<Description>
 Component Set,1,BRANCH,SYS_3_PSZ SP-WHOLEBUILDING-PENITENTIARY SYS-3 FLR-4 SCH-H HPLCMT-NORTH ZN MAIN BRANCH,AIRLOOPHVAC:OUTDOORAIRSYSTEM,AIR LOOP HVAC OUTDOOR AIR SYSTEM 5,NODE 85,NODE 94,Air Nodes
 Component Set,2,BRANCH,SYS_3_PSZ SP-WHOLEBUILDING-PENITENTIARY SYS-3 FLR-4 SCH-H HPLCMT-NORTH ZN MAIN BRANCH,COILSYSTEM:COOLING:DX,COIL COOLING DX SINGLE SPEED 5 COILSYSTEM,NODE 94,NODE 93,Air Nodes
 Component Set,3,BRANCH,SYS_3_PSZ SP-WHOLEBUILDING-PENITENTIARY SYS-3 FLR-4 SCH-H HPLCMT-NORTH ZN MAIN BRANCH,COIL:HEATING:FUEL,COIL HEATING GAS 5,NODE 93,NODE 92,Air Nodes
 Component Set,4,BRANCH,SYS_3_PSZ SP-WHOLEBUILDING-PENITENTIARY SYS-3 FLR-4 SCH-H HPLCMT-NORTH ZN MAIN BRANCH,FAN:CONSTANTVOLUME,FAN CONSTANT VOLUME 5,NODE 92,NODE 86,Air Nodes
 Component Set,5,BRANCH,SYS_3_PSZ SP-WHOLEBUILDING-PERFORMING ARTS THEATRE SYS-3 FLR-4 SCH-C HPLCMT-SOUTH ZN MAIN BRANCH,AIRLOOPHVAC:OUTDOORAIRSYSTEM,AIR LOOP HVAC OUTDOOR AIR SYSTEM 4,NODE 72,NODE 81,Air Nodes
 Component Set,6,BRANCH,SYS_3_PSZ SP-WHOLEBUILDING-PERFORMING ARTS THEATRE SYS-3 FLR-4 SCH-C HPLCMT-SOUTH ZN MAIN BRANCH,COILSYSTEM:COOLING:DX,COIL COOLING DX SINGLE SPEED 4 COILSYSTEM,NODE 81,NODE 80,Air Nodes
 Component Set,7,BRANCH,SYS_3_PSZ SP-WHOLEBUILDING-PERFORMING ARTS THEATRE SYS-3 FLR-4 SCH-C HPLCMT-SOUTH ZN MAIN BRANCH,COIL:HEATING:FUEL,COIL HEATING GAS 4,NODE 80,NODE 79,Air Nodes
 Component Set,8,BRANCH,SYS_3_PSZ SP-WHOLEBUILDING-PERFORMING ARTS THEATRE SYS-3 FLR-4 SCH-C HPLCMT-SOUTH ZN MAIN BRANCH,FAN:CONSTANTVOLUME,FAN CONSTANT VOLUME 4,NODE 79,NODE 73,Air Nodes
 Component Set,9,BRANCH,SYS_3_PSZ SP-WHOLEBUILDING-POLICE STATION SYS-3 FLR-4 SCH-H HPLCMT-WEST ZN MAIN BRANCH,AIRLOOPHVAC:OUTDOORAIRSYSTEM,AIR LOOP HVAC OUTDOOR AIR SYSTEM 6,NODE 98,NODE 107,Air Nodes
 Component Set,10,BRANCH,SYS_3_PSZ SP-WHOLEBUILDING-POLICE STATION SYS-3 FLR-4 SCH-H HPLCMT-WEST ZN MAIN BRANCH,COILSYSTEM:COOLING:DX,COIL COOLING DX SINGLE SPEED 6 COILSYSTEM,NODE 107,NODE 106,Air Nodes
 Component Set,11,BRANCH,SYS_3_PSZ SP-WHOLEBUILDING-POLICE STATION SYS-3 FLR-4 SCH-H HPLCMT-WEST ZN MAIN BRANCH,COIL:HEATING:FUEL,COIL HEATING GAS 6,NODE 106,NODE 105,Air Nodes
 Component Set,12,BRANCH,SYS_3_PSZ SP-WHOLEBUILDING-POLICE STATION SYS-3 FLR-4 SCH-H HPLCMT-WEST ZN MAIN BRANCH,FAN:CONSTANTVOLUME,FAN CONSTANT VOLUME 6,NODE 105,NODE 99,Air Nodes
 Component Set,13,BRANCH,SYS_3_PSZ SP-WHOLEBUILDING-SCHOOL/UNIVERSITY SYS-3 FLR-3 SCH-D HPLCMT-SOUTH ZN MAIN BRANCH,AIRLOOPHVAC:OUTDOORAIRSYSTEM,AIR LOOP HVAC OUTDOOR AIR SYSTEM 3,NODE 59,NODE 68,Air Nodes
 Component Set,14,BRANCH,SYS_3_PSZ SP-WHOLEBUILDING-SCHOOL/UNIVERSITY SYS-3 FLR-3 SCH-D HPLCMT-SOUTH ZN MAIN BRANCH,COILSYSTEM:COOLING:DX,COIL COOLING DX SINGLE SPEED 3 COILSYSTEM,NODE 68,NODE 67,Air Nodes
 Component Set,15,BRANCH,SYS_3_PSZ SP-WHOLEBUILDING-SCHOOL/UNIVERSITY SYS-3 FLR-3 SCH-D HPLCMT-SOUTH ZN MAIN BRANCH,COIL:HEATING:FUEL,COIL HEATING GAS 3,NODE 67,NODE 66,Air Nodes
 Component Set,16,BRANCH,SYS_3_PSZ SP-WHOLEBUILDING-SCHOOL/UNIVERSITY SYS-3 FLR-3 SCH-D HPLCMT-SOUTH ZN MAIN BRANCH,FAN:CONSTANTVOLUME,FAN CONSTANT VOLUME 3,NODE 66,NODE 60,Air Nodes
 Component Set,17,BRANCH,SYS_3_PSZ SP-WHOLEBUILDING-TOWN HALL SYS-3 FLR-3 SCH-D HPLCMT-WEST ZN MAIN BRANCH,AIRLOOPHVAC:OUTDOORAIRSYSTEM,AIR LOOP HVAC OUTDOOR AIR SYSTEM 2,NODE 46,NODE 55,Air Nodes
 Component Set,18,BRANCH,SYS_3_PSZ SP-WHOLEBUILDING-TOWN HALL SYS-3 FLR-3 SCH-D HPLCMT-WEST ZN MAIN BRANCH,COILSYSTEM:COOLING:DX,COIL COOLING DX SINGLE SPEED 2 COILSYSTEM,NODE 55,NODE 54,Air Nodes
 Component Set,19,BRANCH,SYS_3_PSZ SP-WHOLEBUILDING-TOWN HALL SYS-3 FLR-3 SCH-D HPLCMT-WEST ZN MAIN BRANCH,COIL:HEATING:FUEL,COIL HEATING GAS 2,NODE 54,NODE 53,Air Nodes
 Component Set,20,BRANCH,SYS_3_PSZ SP-WHOLEBUILDING-TOWN HALL SYS-3 FLR-3 SCH-D HPLCMT-WEST ZN MAIN BRANCH,FAN:CONSTANTVOLUME,FAN CONSTANT VOLUME 2,NODE 53,NODE 47,Air Nodes
 Component Set,21,BRANCH,SYS_3_PSZ SP-WHOLEBUILDING-WORKSHOP SYS-3 FLR-2 SCH-A HPLCMT-CORE ZN MAIN BRANCH,AIRLOOPHVAC:OUTDOORAIRSYSTEM,AIR LOOP HVAC OUTDOOR AIR SYSTEM 1,NODE 34,NODE 43,Air Nodes
 Component Set,22,BRANCH,SYS_3_PSZ SP-WHOLEBUILDING-WORKSHOP SYS-3 FLR-2 SCH-A HPLCMT-CORE ZN MAIN BRANCH,COILSYSTEM:COOLING:DX,COIL COOLING DX SINGLE SPEED 1 COILSYSTEM,NODE 43,NODE 42,Air Nodes
 Component Set,23,BRANCH,SYS_3_PSZ SP-WHOLEBUILDING-WORKSHOP SYS-3 FLR-2 SCH-A HPLCMT-CORE ZN MAIN BRANCH,COIL:HEATING:FUEL,COIL HEATING GAS 1,NODE 42,NODE 41,Air Nodes
 Component Set,24,BRANCH,SYS_3_PSZ SP-WHOLEBUILDING-WORKSHOP SYS-3 FLR-2 SCH-A HPLCMT-CORE ZN MAIN BRANCH,FAN:CONSTANTVOLUME,FAN CONSTANT VOLUME 1,NODE 41,NODE 35,Air Nodes
 Component Set,25,BRANCH,SYS_4_PSZ_SP-WHOLEBUILDING-STORAGE GARAGE SYS-4 FLR-3 SCH-K HPLCMT-NORTH ZN MAIN BRANCH,AIRLOOPHVAC:OUTDOORAIRSYSTEM,AIR LOOP HVAC OUTDOOR AIR SYSTEM 8,NODE 124,NODE 133,Air Nodes
 Component Set,26,BRANCH,SYS_4_PSZ_SP-WHOLEBUILDING-STORAGE GARAGE SYS-4 FLR-3 SCH-K HPLCMT-NORTH ZN MAIN BRANCH,COILSYSTEM:COOLING:DX,COIL COOLING DX SINGLE SPEED 8 COILSYSTEM,NODE 133,NODE 132,Air Nodes
 Component Set,27,BRANCH,SYS_4_PSZ_SP-WHOLEBUILDING-STORAGE GARAGE SYS-4 FLR-3 SCH-K HPLCMT-NORTH ZN MAIN BRANCH,COIL:HEATING:FUEL,COIL HEATING GAS 8,NODE 132,NODE 131,Air Nodes
 Component Set,28,BRANCH,SYS_4_PSZ_SP-WHOLEBUILDING-STORAGE GARAGE SYS-4 FLR-3 SCH-K HPLCMT-NORTH ZN MAIN BRANCH,FAN:CONSTANTVOLUME,FAN CONSTANT VOLUME 8,NODE 131,NODE 125,Air Nodes
 Component Set,29,BRANCH,SYS_4_PSZ_SP-WHOLEBUILDING-WAREHOUSE SYS-4 FLR-1 SCH-A HPLCMT-EAST ZN MAIN BRANCH,AIRLOOPHVAC:OUTDOORAIRSYSTEM,AIR LOOP HVAC OUTDOOR AIR SYSTEM 7,NODE 111,NODE 120,Air Nodes
 Component Set,30,BRANCH,SYS_4_PSZ_SP-WHOLEBUILDING-WAREHOUSE SYS-4 FLR-1 SCH-A HPLCMT-EAST ZN MAIN BRANCH,COILSYSTEM:COOLING:DX,COIL COOLING DX SINGLE SPEED 7 COILSYSTEM,NODE 120,NODE 119,Air Nodes
 Component Set,31,BRANCH,SYS_4_PSZ_SP-WHOLEBUILDING-WAREHOUSE SYS-4 FLR-1 SCH-A HPLCMT-EAST ZN MAIN BRANCH,COIL:HEATING:FUEL,COIL HEATING GAS 7,NODE 119,NODE 118,Air Nodes
 Component Set,32,BRANCH,SYS_4_PSZ_SP-WHOLEBUILDING-WAREHOUSE SYS-4 FLR-1 SCH-A HPLCMT-EAST ZN MAIN BRANCH,FAN:CONSTANTVOLUME,FAN CONSTANT VOLUME 7,NODE 118,NODE 112,Air Nodes
 Component Set,33,BRANCH,SYS_6_VAV WITH REHEAT MAIN BRANCH,FAN:VARIABLEVOLUME,SYS6 RETURN FAN,NODE 164,NODE 177,Air Nodes
 Component Set,34,BRANCH,SYS_6_VAV WITH REHEAT MAIN BRANCH,AIRLOOPHVAC:OUTDOORAIRSYSTEM,AIR LOOP HVAC OUTDOOR AIR SYSTEM 9,NODE 177,NODE 176,Air Nodes
 Component Set,35,BRANCH,SYS_6_VAV WITH REHEAT MAIN BRANCH,COIL:COOLING:WATER,COIL COOLING WATER 1,NODE 176,NODE 175,Air Nodes
 Component Set,36,BRANCH,SYS_6_VAV WITH REHEAT MAIN BRANCH,COIL:HEATING:WATER,COIL HEATING WATER 1,NODE 175,NODE 174,Air Nodes
 Component Set,37,BRANCH,SYS_6_VAV WITH REHEAT MAIN BRANCH,FAN:VARIABLEVOLUME,SYS6 SUPPLY FAN,NODE 174,NODE 165,Air Nodes
 Component Set,38,BRANCH,SYS_6_VAV WITH REHEAT 1 MAIN BRANCH,FAN:VARIABLEVOLUME,SYS6 RETURN FAN 1,NODE 205,NODE 219,Air Nodes
 Component Set,39,BRANCH,SYS_6_VAV WITH REHEAT 1 MAIN BRANCH,AIRLOOPHVAC:OUTDOORAIRSYSTEM,AIR LOOP HVAC OUTDOOR AIR SYSTEM 10,NODE 219,NODE 218,Air Nodes
 Component Set,40,BRANCH,SYS_6_VAV WITH REHEAT 1 MAIN BRANCH,COIL:COOLING:WATER,COIL COOLING WATER 2,NODE 218,NODE 217,Air Nodes
 Component Set,41,BRANCH,SYS_6_VAV WITH REHEAT 1 MAIN BRANCH,COIL:HEATING:WATER,COIL HEATING WATER 6,NODE 217,NODE 216,Air Nodes
 Component Set,42,BRANCH,SYS_6_VAV WITH REHEAT 1 MAIN BRANCH,FAN:VARIABLEVOLUME,SYS6 SUPPLY FAN 1,NODE 216,NODE 206,Air Nodes
 Component Set,43,BRANCH,SYS_6_VAV WITH REHEAT 2 MAIN BRANCH,FAN:VARIABLEVOLUME,SYS6 RETURN FAN 2,NODE 247,NODE 261,Air Nodes
 Component Set,44,BRANCH,SYS_6_VAV WITH REHEAT 2 MAIN BRANCH,AIRLOOPHVAC:OUTDOORAIRSYSTEM,AIR LOOP HVAC OUTDOOR AIR SYSTEM 11,NODE 261,NODE 260,Air Nodes
 Component Set,45,BRANCH,SYS_6_VAV WITH REHEAT 2 MAIN BRANCH,COIL:COOLING:WATER,COIL COOLING WATER 3,NODE 260,NODE 259,Air Nodes
 Component Set,46,BRANCH,SYS_6_VAV WITH REHEAT 2 MAIN BRANCH,COIL:HEATING:WATER,COIL HEATING WATER 11,NODE 259,NODE 258,Air Nodes
 Component Set,47,BRANCH,SYS_6_VAV WITH REHEAT 2 MAIN BRANCH,FAN:VARIABLEVOLUME,SYS6 SUPPLY FAN 2,NODE 258,NODE 248,Air Nodes
 Component Set,48,BRANCH,SYS_6_VAV WITH REHEAT 3 MAIN BRANCH,FAN:VARIABLEVOLUME,SYS6 RETURN FAN 3,NODE 275,NODE 289,Air Nodes
 Component Set,49,BRANCH,SYS_6_VAV WITH REHEAT 3 MAIN BRANCH,AIRLOOPHVAC:OUTDOORAIRSYSTEM,AIR LOOP HVAC OUTDOOR AIR SYSTEM 12,NODE 289,NODE 288,Air Nodes
 Component Set,50,BRANCH,SYS_6_VAV WITH REHEAT 3 MAIN BRANCH,COIL:COOLING:WATER,COIL COOLING WATER 4,NODE 288,NODE 287,Air Nodes
 Component Set,51,BRANCH,SYS_6_VAV WITH REHEAT 3 MAIN BRANCH,COIL:HEATING:WATER,COIL HEATING WATER 14,NODE 287,NODE 286,Air Nodes
 Component Set,52,BRANCH,SYS_6_VAV WITH REHEAT 3 MAIN BRANCH,FAN:VARIABLEVOLUME,SYS6 SUPPLY FAN 3,NODE 286,NODE 276,Air Nodes
 Component Set,53,BRANCH,CHILLED WATER LOOP SUPPLY INLET BRANCH,PUMP:CONSTANTSPEED,PUMP CONSTANT SPEED 1,NODE 137,NODE 143,Water Nodes
 Component Set,54,BRANCH,CHILLED WATER LOOP SUPPLY BRANCH 1,CHILLER:ELECTRIC:EIR,PRIMARY CHILLER WATERCOOLED SCROLL,NODE 139,NODE 144,Chilled Water Nodes
 Component Set,55,BRANCH,CHILLED WATER LOOP SUPPLY BRANCH 2,CHILLER:ELECTRIC:EIR,SECONDARY CHILLER WATERCOOLED SCROLL,NODE 145,NODE 146,Chilled Water Nodes
 Component Set,56,BRANCH,CHILLED WATER LOOP SUPPLY BRANCH 3,PIPE:ADIABATIC,PIPE ADIABATIC 3,NODE 147,NODE 148,Pipe Nodes
 Component Set,57,BRANCH,CHILLED WATER LOOP SUPPLY OUTLET BRANCH,PIPE:ADIABATIC,PIPE ADIABATIC 4,NODE 149,NODE 138,Pipe Nodes
 Component Set,58,BRANCH,CHILLED WATER LOOP DEMAND INLET BRANCH,PIPE:ADIABATIC,CHILLED WATER LOOP DEMAND INLET PIPE,NODE 140,CHILLED WATER LOOP DEMAND INLET PIPE NODE,Pipe Nodes
 Component Set,59,BRANCH,CHILLED WATER LOOP DEMAND BRANCH 1,COIL:COOLING:WATER,COIL COOLING WATER 1,NODE 142,NODE 171,Water Nodes
 Component Set,60,BRANCH,CHILLED WATER LOOP DEMAND BRANCH 2,COIL:COOLING:WATER,COIL COOLING WATER 2,NODE 212,NODE 213,Water Nodes
 Component Set,61,BRANCH,CHILLED WATER LOOP DEMAND BRANCH 3,COIL:COOLING:WATER,COIL COOLING WATER 3,NODE 254,NODE 255,Water Nodes
 Component Set,62,BRANCH,CHILLED WATER LOOP DEMAND BRANCH 4,COIL:COOLING:WATER,COIL COOLING WATER 4,NODE 282,NODE 283,Water Nodes
 Component Set,63,BRANCH,CHILLED WATER LOOP DEMAND BYPASS BRANCH,PIPE:ADIABATIC,CHILLED WATER LOOP DEMAND BYPASS PIPE,CHILLED WATER LOOP DEMAND BYPASS PIPE INLET NODE,CHILLED WATER LOOP DEMAND BYPASS PIPE OUTLET NODE,Pipe Nodes
 Component Set,64,BRANCH,CHILLED WATER LOOP DEMAND OUTLET BRANCH,PIPE:ADIABATIC,CHILLED WATER LOOP DEMAND OUTLET PIPE,CHILLED WATER LOOP DEMAND OUTLET PIPE NODE,NODE 141,Pipe Nodes
 Component Set,65,BRANCH,CONDENSER WATER LOOP SUPPLY INLET BRANCH,PUMP:CONSTANTSPEED,PUMP CONSTANT SPEED 2,NODE 150,NODE 156,Water Nodes
 Component Set,66,BRANCH,CONDENSER WATER LOOP SUPPLY BRANCH 1,COOLINGTOWER:SINGLESPEED,COOLING TOWER SINGLE SPEED 1,NODE 152,NODE 157,Chilled Water Nodes
 Component Set,67,BRANCH,CONDENSER WATER LOOP SUPPLY BRANCH 2,PIPE:ADIABATIC,PIPE ADIABATIC 5,NODE 158,NODE 159,Pipe Nodes
 Component Set,68,BRANCH,CONDENSER WATER LOOP SUPPLY OUTLET BRANCH,PIPE:ADIABATIC,PIPE ADIABATIC 6,NODE 160,NODE 151,Pipe Nodes
 Component Set,69,BRANCH,CONDENSER WATER LOOP DEMAND INLET BRANCH,PIPE:ADIABATIC,CONDENSER WATER LOOP DEMAND INLET PIPE,NODE 153,CONDENSER WATER LOOP DEMAND INLET PIPE NODE,Pipe Nodes
 Component Set,70,BRANCH,CONDENSER WATER LOOP DEMAND BRANCH 1,CHILLER:ELECTRIC:EIR,PRIMARY CHILLER WATERCOOLED SCROLL,NODE 155,NODE 161,Condenser Water Nodes
 Component Set,71,BRANCH,CONDENSER WATER LOOP DEMAND BRANCH 2,CHILLER:ELECTRIC:EIR,SECONDARY CHILLER WATERCOOLED SCROLL,NODE 162,NODE 163,Condenser Water Nodes
 Component Set,72,BRANCH,CONDENSER WATER LOOP DEMAND BYPASS BRANCH,PIPE:ADIABATIC,CONDENSER WATER LOOP DEMAND BYPASS PIPE,CONDENSER WATER LOOP DEMAND BYPASS PIPE INLET NODE,CONDENSER WATER LOOP DEMAND BYPASS PIPE OUTLET NODE,Pipe Nodes
 Component Set,73,BRANCH,CONDENSER WATER LOOP DEMAND OUTLET BRANCH,PIPE:ADIABATIC,CONDENSER WATER LOOP DEMAND OUTLET PIPE,CONDENSER WATER LOOP DEMAND OUTLET PIPE NODE,NODE 154,Pipe Nodes
 Component Set,74,BRANCH,HOT WATER LOOP SUPPLY INLET BRANCH,PUMP:VARIABLESPEED,PUMP VARIABLE SPEED 1,NODE 21,NODE 27,Water Nodes
 Component Set,75,BRANCH,HOT WATER LOOP SUPPLY BRANCH 1,BOILER:HOTWATER,PRIMARY BOILER,NODE 23,NODE 28,Hot Water Nodes
 Component Set,76,BRANCH,HOT WATER LOOP SUPPLY BRANCH 2,BOILER:HOTWATER,SECONDARY BOILER,NODE 29,NODE 30,Hot Water Nodes
 Component Set,77,BRANCH,HOT WATER LOOP SUPPLY BRANCH 3,PIPE:ADIABATIC,PIPE ADIABATIC 1,NODE 31,NODE 32,Pipe Nodes
 Component Set,78,BRANCH,HOT WATER LOOP SUPPLY OUTLET BRANCH,PIPE:ADIABATIC,PIPE ADIABATIC 2,NODE 33,NODE 22,Pipe Nodes
 Component Set,79,BRANCH,HOT WATER LOOP DEMAND INLET BRANCH,PIPE:ADIABATIC,HOT WATER LOOP DEMAND INLET PIPE,NODE 24,HOT WATER LOOP DEMAND INLET PIPE NODE,Pipe Nodes
 Component Set,80,BRANCH,HOT WATER LOOP DEMAND BRANCH 1,ZONEHVAC:BASEBOARD:CONVECTIVE:WATER,ZONE HVAC BASEBOARD CONVECTIVE WATER 1,NODE 26,NODE 45,Hot Water Nodes
 Component Set,81,BRANCH,HOT WATER LOOP DEMAND BRANCH 2,ZONEHVAC:BASEBOARD:CONVECTIVE:WATER,ZONE HVAC BASEBOARD CONVECTIVE WATER 2,NODE 57,NODE 58,Hot Water Nodes
 Component Set,82,BRANCH,HOT WATER LOOP DEMAND BRANCH 3,ZONEHVAC:BASEBOARD:CONVECTIVE:WATER,ZONE HVAC BASEBOARD CONVECTIVE WATER 3,NODE 70,NODE 71,Hot Water Nodes
 Component Set,83,BRANCH,HOT WATER LOOP DEMAND BRANCH 4,ZONEHVAC:BASEBOARD:CONVECTIVE:WATER,ZONE HVAC BASEBOARD CONVECTIVE WATER 4,NODE 83,NODE 84,Hot Water Nodes
 Component Set,84,BRANCH,HOT WATER LOOP DEMAND BRANCH 5,ZONEHVAC:BASEBOARD:CONVECTIVE:WATER,ZONE HVAC BASEBOARD CONVECTIVE WATER 5,NODE 96,NODE 97,Hot Water Nodes
 Component Set,85,BRANCH,HOT WATER LOOP DEMAND BRANCH 6,ZONEHVAC:BASEBOARD:CONVECTIVE:WATER,ZONE HVAC BASEBOARD CONVECTIVE WATER 6,NODE 109,NODE 110,Hot Water Nodes
 Component Set,86,BRANCH,HOT WATER LOOP DEMAND BRANCH 7,ZONEHVAC:BASEBOARD:CONVECTIVE:WATER,ZONE HVAC BASEBOARD CONVECTIVE WATER 7,NODE 122,NODE 123,Hot Water Nodes
 Component Set,87,BRANCH,HOT WATER LOOP DEMAND BRANCH 8,ZONEHVAC:BASEBOARD:CONVECTIVE:WATER,ZONE HVAC BASEBOARD CONVECTIVE WATER 8,NODE 135,NODE 136,Hot Water Nodes
 Component Set,88,BRANCH,HOT WATER LOOP DEMAND BRANCH 9,COIL:HEATING:WATER,COIL HEATING WATER 1,NODE 169,NODE 170,Water Nodes
 Component Set,89,BRANCH,HOT WATER LOOP DEMAND BRANCH 10,COIL:HEATING:WATER,COIL HEATING WATER 2,NODE 178,NODE 179,Water Nodes
 Component Set,90,BRANCH,HOT WATER LOOP DEMAND BRANCH 11,ZONEHVAC:BASEBOARD:CONVECTIVE:WATER,ZONE HVAC BASEBOARD CONVECTIVE WATER 9,NODE 182,NODE 183,Hot Water Nodes
 Component Set,91,BRANCH,HOT WATER LOOP DEMAND BRANCH 12,COIL:HEATING:WATER,COIL HEATING WATER 3,NODE 184,NODE 185,Water Nodes
 Component Set,92,BRANCH,HOT WATER LOOP DEMAND BRANCH 13,ZONEHVAC:BASEBOARD:CONVECTIVE:WATER,ZONE HVAC BASEBOARD CONVECTIVE WATER 10,NODE 189,NODE 190,Hot Water Nodes
 Component Set,93,BRANCH,HOT WATER LOOP DEMAND BRANCH 14,COIL:HEATING:WATER,COIL HEATING WATER 4,NODE 191,NODE 192,Water Nodes
 Component Set,94,BRANCH,HOT WATER LOOP DEMAND BRANCH 15,ZONEHVAC:BASEBOARD:CONVECTIVE:WATER,ZONE HVAC BASEBOARD CONVECTIVE WATER 11,NODE 196,NODE 197,Hot Water Nodes
 Component Set,95,BRANCH,HOT WATER LOOP DEMAND BRANCH 16,COIL:HEATING:WATER,COIL HEATING WATER 5,NODE 198,NODE 199,Water Nodes
 Component Set,96,BRANCH,HOT WATER LOOP DEMAND BRANCH 17,ZONEHVAC:BASEBOARD:CONVECTIVE:WATER,ZONE HVAC BASEBOARD CONVECTIVE WATER 12,NODE 203,NODE 204,Hot Water Nodes
 Component Set,97,BRANCH,HOT WATER LOOP DEMAND BRANCH 18,COIL:HEATING:WATER,COIL HEATING WATER 6,NODE 210,NODE 211,Water Nodes
 Component Set,98,BRANCH,HOT WATER LOOP DEMAND BRANCH 19,COIL:HEATING:WATER,COIL HEATING WATER 7,NODE 220,NODE 221,Water Nodes
 Component Set,99,BRANCH,HOT WATER LOOP DEMAND BRANCH 20,ZONEHVAC:BASEBOARD:CONVECTIVE:WATER,ZONE HVAC BASEBOARD CONVECTIVE WATER 13,NODE 224,NODE 225,Hot Water Nodes
 Component Set,100,BRANCH,HOT WATER LOOP DEMAND BRANCH 21,COIL:HEATING:WATER,COIL HEATING WATER 8,NODE 226,NODE 227,Water Nodes
 Component Set,101,BRANCH,HOT WATER LOOP DEMAND BRANCH 22,ZONEHVAC:BASEBOARD:CONVECTIVE:WATER,ZONE HVAC BASEBOARD CONVECTIVE WATER 14,NODE 231,NODE 232,Hot Water Nodes
 Component Set,102,BRANCH,HOT WATER LOOP DEMAND BRANCH 23,COIL:HEATING:WATER,COIL HEATING WATER 9,NODE 233,NODE 234,Water Nodes
 Component Set,103,BRANCH,HOT WATER LOOP DEMAND BRANCH 24,ZONEHVAC:BASEBOARD:CONVECTIVE:WATER,ZONE HVAC BASEBOARD CONVECTIVE WATER 15,NODE 238,NODE 239,Hot Water Nodes
 Component Set,104,BRANCH,HOT WATER LOOP DEMAND BRANCH 25,COIL:HEATING:WATER,COIL HEATING WATER 10,NODE 240,NODE 241,Water Nodes
 Component Set,105,BRANCH,HOT WATER LOOP DEMAND BRANCH 26,ZONEHVAC:BASEBOARD:CONVECTIVE:WATER,ZONE HVAC BASEBOARD CONVECTIVE WATER 16,NODE 245,NODE 246,Hot Water Nodes
 Component Set,106,BRANCH,HOT WATER LOOP DEMAND BRANCH 27,COIL:HEATING:WATER,COIL HEATING WATER 11,NODE 252,NODE 253,Water Nodes
 Component Set,107,BRANCH,HOT WATER LOOP DEMAND BRANCH 28,COIL:HEATING:WATER,COIL HEATING WATER 12,NODE 262,NODE 263,Water Nodes
 Component Set,108,BRANCH,HOT WATER LOOP DEMAND BRANCH 29,ZONEHVAC:BASEBOARD:CONVECTIVE:WATER,ZONE HVAC BASEBOARD CONVECTIVE WATER 17,NODE 266,NODE 267,Hot Water Nodes
 Component Set,109,BRANCH,HOT WATER LOOP DEMAND BRANCH 30,COIL:HEATING:WATER,COIL HEATING WATER 13,NODE 268,NODE 269,Water Nodes
 Component Set,110,BRANCH,HOT WATER LOOP DEMAND BRANCH 31,ZONEHVAC:BASEBOARD:CONVECTIVE:WATER,ZONE HVAC BASEBOARD CONVECTIVE WATER 18,NODE 273,NODE 274,Hot Water Nodes
 Component Set,111,BRANCH,HOT WATER LOOP DEMAND BRANCH 32,COIL:HEATING:WATER,COIL HEATING WATER 14,NODE 280,NODE 281,Water Nodes
 Component Set,112,BRANCH,HOT WATER LOOP DEMAND BRANCH 33,COIL:HEATING:WATER,COIL HEATING WATER 15,NODE 290,NODE 291,Water Nodes
 Component Set,113,BRANCH,HOT WATER LOOP DEMAND BRANCH 34,ZONEHVAC:BASEBOARD:CONVECTIVE:WATER,ZONE HVAC BASEBOARD CONVECTIVE WATER 19,NODE 294,NODE 295,Hot Water Nodes
 Component Set,114,BRANCH,HOT WATER LOOP DEMAND BRANCH 35,COIL:HEATING:WATER,COIL HEATING WATER 16,NODE 296,NODE 297,Water Nodes
 Component Set,115,BRANCH,HOT WATER LOOP DEMAND BRANCH 36,ZONEHVAC:BASEBOARD:CONVECTIVE:WATER,ZONE HVAC BASEBOARD CONVECTIVE WATER 20,NODE 301,NODE 302,Hot Water Nodes
 Component Set,116,BRANCH,HOT WATER LOOP DEMAND BYPASS BRANCH,PIPE:ADIABATIC,HOT WATER LOOP DEMAND BYPASS PIPE,HOT WATER LOOP DEMAND BYPASS PIPE INLET NODE,HOT WATER LOOP DEMAND BYPASS PIPE OUTLET NODE,Pipe Nodes
 Component Set,117,BRANCH,HOT WATER LOOP DEMAND OUTLET BRANCH,PIPE:ADIABATIC,HOT WATER LOOP DEMAND OUTLET PIPE,HOT WATER LOOP DEMAND OUTLET PIPE NODE,NODE 25,Pipe Nodes
 Component Set,118,BRANCH,MAIN SERVICE WATER LOOP SUPPLY INLET BRANCH,PUMP:CONSTANTSPEED,SERVICE WATER LOOP PUMP,NODE 303,NODE 309,Water Nodes
 Component Set,119,BRANCH,MAIN SERVICE WATER LOOP SUPPLY BRANCH 1,WATERHEATER:MIXED,748GAL NATURALGAS WATER HEATER - 505KBTU/HR,NODE 305,NODE 310,Use Side Water Nodes
 Component Set,120,BRANCH,MAIN SERVICE WATER LOOP SUPPLY BRANCH 2,PIPE:ADIABATIC,PIPE ADIABATIC 7,NODE 311,NODE 312,Pipe Nodes
 Component Set,121,BRANCH,MAIN SERVICE WATER LOOP SUPPLY OUTLET BRANCH,PIPE:ADIABATIC,PIPE ADIABATIC 9,NODE 314,NODE 304,Pipe Nodes
 Component Set,122,BRANCH,MAIN SERVICE WATER LOOP DEMAND INLET BRANCH,PIPE:ADIABATIC,PIPE ADIABATIC 10,NODE 306,NODE 315,Pipe Nodes
 Component Set,123,BRANCH,MAIN SERVICE WATER LOOP DEMAND BRANCH 1,PIPE:ADIABATIC,PIPE ADIABATIC 8,NODE 308,NODE 313,Pipe Nodes
 Component Set,124,BRANCH,MAIN SERVICE WATER LOOP DEMAND BRANCH 2,WATERUSE:CONNECTIONS,WATER USE CONNECTIONS 1,NODE 317,NODE 318,DHW Nodes
 Component Set,125,BRANCH,MAIN SERVICE WATER LOOP DEMAND BRANCH 3,WATERUSE:CONNECTIONS,WATER USE CONNECTIONS 2,NODE 319,NODE 320,DHW Nodes
 Component Set,126,BRANCH,MAIN SERVICE WATER LOOP DEMAND BRANCH 4,WATERUSE:CONNECTIONS,WATER USE CONNECTIONS 3,NODE 321,NODE 322,DHW Nodes
 Component Set,127,BRANCH,MAIN SERVICE WATER LOOP DEMAND BRANCH 5,WATERUSE:CONNECTIONS,WATER USE CONNECTIONS 4,NODE 323,NODE 324,DHW Nodes
 Component Set,128,BRANCH,MAIN SERVICE WATER LOOP DEMAND BRANCH 6,WATERUSE:CONNECTIONS,WATER USE CONNECTIONS 5,NODE 325,NODE 326,DHW Nodes
 Component Set,129,BRANCH,MAIN SERVICE WATER LOOP DEMAND BRANCH 7,WATERUSE:CONNECTIONS,WATER USE CONNECTIONS 6,NODE 327,NODE 328,DHW Nodes
 Component Set,130,BRANCH,MAIN SERVICE WATER LOOP DEMAND BRANCH 8,WATERUSE:CONNECTIONS,WATER USE CONNECTIONS 7,NODE 329,NODE 330,DHW Nodes
 Component Set,131,BRANCH,MAIN SERVICE WATER LOOP DEMAND BRANCH 9,WATERUSE:CONNECTIONS,WATER USE CONNECTIONS 8,NODE 331,NODE 332,DHW Nodes
 Component Set,132,BRANCH,MAIN SERVICE WATER LOOP DEMAND BRANCH 10,WATERUSE:CONNECTIONS,WATER USE CONNECTIONS 9,NODE 333,NODE 334,DHW Nodes
 Component Set,133,BRANCH,MAIN SERVICE WATER LOOP DEMAND BRANCH 11,WATERUSE:CONNECTIONS,WATER USE CONNECTIONS 10,NODE 335,NODE 336,DHW Nodes
 Component Set,134,BRANCH,MAIN SERVICE WATER LOOP DEMAND BRANCH 12,WATERUSE:CONNECTIONS,WATER USE CONNECTIONS 11,NODE 337,NODE 338,DHW Nodes
 Component Set,135,BRANCH,MAIN SERVICE WATER LOOP DEMAND BRANCH 13,WATERUSE:CONNECTIONS,WATER USE CONNECTIONS 12,NODE 339,NODE 340,DHW Nodes
 Component Set,136,BRANCH,MAIN SERVICE WATER LOOP DEMAND BYPASS BRANCH,PIPE:ADIABATIC,MAIN SERVICE WATER LOOP DEMAND BYPASS PIPE,MAIN SERVICE WATER LOOP DEMAND BYPASS PIPE INLET NODE,MAIN SERVICE WATER LOOP DEMAND BYPASS PIPE OUTLET NODE,Pipe Nodes
 Component Set,137,BRANCH,MAIN SERVICE WATER LOOP DEMAND OUTLET BRANCH,PIPE:ADIABATIC,PIPE ADIABATIC 11,NODE 316,NODE 307,Pipe Nodes
 Component Set,138,ZONEHVAC:AIRDISTRIBUTIONUNIT,ADU AIR TERMINAL SINGLE DUCT VAV REHEAT 1,AIRTERMINAL:SINGLEDUCT:VAV:REHEAT,AIR TERMINAL SINGLE DUCT VAV REHEAT 1,NODE 181,NODE 168,Air Nodes
 Component Set,139,ZONEHVAC:AIRDISTRIBUTIONUNIT,ADU AIR TERMINAL SINGLE DUCT VAV REHEAT 2,AIRTERMINAL:SINGLEDUCT:VAV:REHEAT,AIR TERMINAL SINGLE DUCT VAV REHEAT 2,NODE 188,NODE 186,Air Nodes
 Component Set,140,ZONEHVAC:AIRDISTRIBUTIONUNIT,ADU AIR TERMINAL SINGLE DUCT VAV REHEAT 3,AIRTERMINAL:SINGLEDUCT:VAV:REHEAT,AIR TERMINAL SINGLE DUCT VAV REHEAT 3,NODE 195,NODE 193,Air Nodes
 Component Set,141,ZONEHVAC:AIRDISTRIBUTIONUNIT,ADU AIR TERMINAL SINGLE DUCT VAV REHEAT 5,AIRTERMINAL:SINGLEDUCT:VAV:REHEAT,AIR TERMINAL SINGLE DUCT VAV REHEAT 5,NODE 223,NODE 209,Air Nodes
 Component Set,142,ZONEHVAC:AIRDISTRIBUTIONUNIT,ADU AIR TERMINAL SINGLE DUCT VAV REHEAT 6,AIRTERMINAL:SINGLEDUCT:VAV:REHEAT,AIR TERMINAL SINGLE DUCT VAV REHEAT 6,NODE 230,NODE 228,Air Nodes
 Component Set,143,ZONEHVAC:AIRDISTRIBUTIONUNIT,ADU AIR TERMINAL SINGLE DUCT VAV REHEAT 4,AIRTERMINAL:SINGLEDUCT:VAV:REHEAT,AIR TERMINAL SINGLE DUCT VAV REHEAT 4,NODE 202,NODE 200,Air Nodes
 Component Set,144,ZONEHVAC:AIRDISTRIBUTIONUNIT,ADU AIR TERMINAL SINGLE DUCT VAV REHEAT 7,AIRTERMINAL:SINGLEDUCT:VAV:REHEAT,AIR TERMINAL SINGLE DUCT VAV REHEAT 7,NODE 237,NODE 235,Air Nodes
 Component Set,145,ZONEHVAC:AIRDISTRIBUTIONUNIT,ADU AIR TERMINAL SINGLE DUCT VAV REHEAT 11,AIRTERMINAL:SINGLEDUCT:VAV:REHEAT,AIR TERMINAL SINGLE DUCT VAV REHEAT 11,NODE 293,NODE 279,Air Nodes
 Component Set,146,ZONEHVAC:AIRDISTRIBUTIONUNIT,ADU AIR TERMINAL SINGLE DUCT VAV REHEAT 9,AIRTERMINAL:SINGLEDUCT:VAV:REHEAT,AIR TERMINAL SINGLE DUCT VAV REHEAT 9,NODE 265,NODE 251,Air Nodes
 Component Set,147,ZONEHVAC:AIRDISTRIBUTIONUNIT,ADU AIR TERMINAL SINGLE DUCT VAV REHEAT 12,AIRTERMINAL:SINGLEDUCT:VAV:REHEAT,AIR TERMINAL SINGLE DUCT VAV REHEAT 12,NODE 300,NODE 298,Air Nodes
 Component Set,148,ZONEHVAC:AIRDISTRIBUTIONUNIT,ADU AIR TERMINAL SINGLE DUCT VAV REHEAT 10,AIRTERMINAL:SINGLEDUCT:VAV:REHEAT,AIR TERMINAL SINGLE DUCT VAV REHEAT 10,NODE 272,NODE 270,Air Nodes
 Component Set,149,ZONEHVAC:AIRDISTRIBUTIONUNIT,ADU AIR TERMINAL SINGLE DUCT VAV REHEAT 8,AIRTERMINAL:SINGLEDUCT:VAV:REHEAT,AIR TERMINAL SINGLE DUCT VAV REHEAT 8,NODE 244,NODE 242,Air Nodes
 Component Set,150,AIRTERMINAL:SINGLEDUCT:VAV:REHEAT,AIR TERMINAL SINGLE DUCT VAV REHEAT 1,COIL:HEATING:WATER,COIL HEATING WATER 2,AIR TERMINAL SINGLE DUCT VAV REHEAT 1 DAMPER OUTLET,NODE 168,Air Nodes
 Component Set,151,AIRTERMINAL:SINGLEDUCT:VAV:REHEAT,AIR TERMINAL SINGLE DUCT VAV REHEAT 2,COIL:HEATING:WATER,COIL HEATING WATER 3,AIR TERMINAL SINGLE DUCT VAV REHEAT 2 DAMPER OUTLET,NODE 186,Air Nodes
 Component Set,152,AIRTERMINAL:SINGLEDUCT:VAV:REHEAT,AIR TERMINAL SINGLE DUCT VAV REHEAT 3,COIL:HEATING:WATER,COIL HEATING WATER 4,AIR TERMINAL SINGLE DUCT VAV REHEAT 3 DAMPER OUTLET,NODE 193,Air Nodes
 Component Set,153,AIRTERMINAL:SINGLEDUCT:VAV:REHEAT,AIR TERMINAL SINGLE DUCT VAV REHEAT 5,COIL:HEATING:WATER,COIL HEATING WATER 7,AIR TERMINAL SINGLE DUCT VAV REHEAT 5 DAMPER OUTLET,NODE 209,Air Nodes
 Component Set,154,AIRTERMINAL:SINGLEDUCT:VAV:REHEAT,AIR TERMINAL SINGLE DUCT VAV REHEAT 6,COIL:HEATING:WATER,COIL HEATING WATER 8,AIR TERMINAL SINGLE DUCT VAV REHEAT 6 DAMPER OUTLET,NODE 228,Air Nodes
 Component Set,155,AIRTERMINAL:SINGLEDUCT:VAV:REHEAT,AIR TERMINAL SINGLE DUCT VAV REHEAT 4,COIL:HEATING:WATER,COIL HEATING WATER 5,AIR TERMINAL SINGLE DUCT VAV REHEAT 4 DAMPER OUTLET,NODE 200,Air Nodes
 Component Set,156,AIRTERMINAL:SINGLEDUCT:VAV:REHEAT,AIR TERMINAL SINGLE DUCT VAV REHEAT 7,COIL:HEATING:WATER,COIL HEATING WATER 9,AIR TERMINAL SINGLE DUCT VAV REHEAT 7 DAMPER OUTLET,NODE 235,Air Nodes
 Component Set,157,AIRTERMINAL:SINGLEDUCT:VAV:REHEAT,AIR TERMINAL SINGLE DUCT VAV REHEAT 11,COIL:HEATING:WATER,COIL HEATING WATER 15,AIR TERMINAL SINGLE DUCT VAV REHEAT 11 DAMPER OUTLET,NODE 279,Air Nodes
 Component Set,158,AIRTERMINAL:SINGLEDUCT:VAV:REHEAT,AIR TERMINAL SINGLE DUCT VAV REHEAT 9,COIL:HEATING:WATER,COIL HEATING WATER 12,AIR TERMINAL SINGLE DUCT VAV REHEAT 9 DAMPER OUTLET,NODE 251,Air Nodes
 Component Set,159,AIRTERMINAL:SINGLEDUCT:VAV:REHEAT,AIR TERMINAL SINGLE DUCT VAV REHEAT 12,COIL:HEATING:WATER,COIL HEATING WATER 16,AIR TERMINAL SINGLE DUCT VAV REHEAT 12 DAMPER OUTLET,NODE 298,Air Nodes
 Component Set,160,AIRTERMINAL:SINGLEDUCT:VAV:REHEAT,AIR TERMINAL SINGLE DUCT VAV REHEAT 10,COIL:HEATING:WATER,COIL HEATING WATER 13,AIR TERMINAL SINGLE DUCT VAV REHEAT 10 DAMPER OUTLET,NODE 270,Air Nodes
 Component Set,161,AIRTERMINAL:SINGLEDUCT:VAV:REHEAT,AIR TERMINAL SINGLE DUCT VAV REHEAT 8,COIL:HEATING:WATER,COIL HEATING WATER 10,AIR TERMINAL SINGLE DUCT VAV REHEAT 8 DAMPER OUTLET,NODE 242,Air Nodes
 Component Set,162,AIRLOOPHVAC:OUTDOORAIRSYSTEM,AIR LOOP HVAC OUTDOOR AIR SYSTEM 5,OUTDOORAIR:MIXER,AIR LOOP HVAC OUTDOOR AIR SYSTEM 5 OUTDOOR AIR MIXER,NODE 90,NODE 94,Air Nodes
 Component Set,163,AIRLOOPHVAC:OUTDOORAIRSYSTEM,AIR LOOP HVAC OUTDOOR AIR SYSTEM 4,OUTDOORAIR:MIXER,AIR LOOP HVAC OUTDOOR AIR SYSTEM 4 OUTDOOR AIR MIXER,NODE 77,NODE 81,Air Nodes
 Component Set,164,AIRLOOPHVAC:OUTDOORAIRSYSTEM,AIR LOOP HVAC OUTDOOR AIR SYSTEM 6,OUTDOORAIR:MIXER,AIR LOOP HVAC OUTDOOR AIR SYSTEM 6 OUTDOOR AIR MIXER,NODE 103,NODE 107,Air Nodes
 Component Set,165,AIRLOOPHVAC:OUTDOORAIRSYSTEM,AIR LOOP HVAC OUTDOOR AIR SYSTEM 3,OUTDOORAIR:MIXER,AIR LOOP HVAC OUTDOOR AIR SYSTEM 3 OUTDOOR AIR MIXER,NODE 64,NODE 68,Air Nodes
 Component Set,166,AIRLOOPHVAC:OUTDOORAIRSYSTEM,AIR LOOP HVAC OUTDOOR AIR SYSTEM 2,OUTDOORAIR:MIXER,AIR LOOP HVAC OUTDOOR AIR SYSTEM 2 OUTDOOR AIR MIXER,NODE 51,NODE 55,Air Nodes
 Component Set,167,AIRLOOPHVAC:OUTDOORAIRSYSTEM,AIR LOOP HVAC OUTDOOR AIR SYSTEM 1,OUTDOORAIR:MIXER,AIR LOOP HVAC OUTDOOR AIR SYSTEM 1 OUTDOOR AIR MIXER,NODE 39,NODE 43,Air Nodes
 Component Set,168,AIRLOOPHVAC:OUTDOORAIRSYSTEM,AIR LOOP HVAC OUTDOOR AIR SYSTEM 8,OUTDOORAIR:MIXER,AIR LOOP HVAC OUTDOOR AIR SYSTEM 8 OUTDOOR AIR MIXER,NODE 129,NODE 133,Air Nodes
[...]
 Non-Parent Node Connection,NODE 167,AIRLOOPHVAC:ZONEMIXER,AIR LOOP HVAC ZONE MIXER 9,Outlet,1
 Non-Parent Node Connection,NODE 180,AIRLOOPHVAC:ZONEMIXER,AIR LOOP HVAC ZONE MIXER 9,Inlet,1
 Non-Parent Node Connection,NODE 187,AIRLOOPHVAC:ZONEMIXER,AIR LOOP HVAC ZONE MIXER 9,Inlet,1
 Non-Parent Node Connection,NODE 194,AIRLOOPHVAC:ZONEMIXER,AIR LOOP HVAC ZONE MIXER 9,Inlet,1
 Non-Parent Node Connection,NODE 201,AIRLOOPHVAC:ZONEMIXER,AIR LOOP HVAC ZONE MIXER 9,Inlet,1
 Non-Parent Node Connection,NODE 208,AIRLOOPHVAC:ZONEMIXER,AIR LOOP HVAC ZONE MIXER 10,Outlet,1
 Non-Parent Node Connection,NODE 222,AIRLOOPHVAC:ZONEMIXER,AIR LOOP HVAC ZONE MIXER 10,Inlet,1
 Non-Parent Node Connection,NODE 229,AIRLOOPHVAC:ZONEMIXER,AIR LOOP HVAC ZONE MIXER 10,Inlet,1
 Non-Parent Node Connection,NODE 236,AIRLOOPHVAC:ZONEMIXER,AIR LOOP HVAC ZONE MIXER 10,Inlet,1
 Non-Parent Node Connection,NODE 243,AIRLOOPHVAC:ZONEMIXER,AIR LOOP HVAC ZONE MIXER 10,Inlet,1
 Non-Parent Node Connection,NODE 250,AIRLOOPHVAC:ZONEMIXER,AIR LOOP HVAC ZONE MIXER 11,Outlet,1
 Non-Parent Node Connection,NODE 264,AIRLOOPHVAC:ZONEMIXER,AIR LOOP HVAC ZONE MIXER 11,Inlet,1
 Non-Parent Node Connection,NODE 271,AIRLOOPHVAC:ZONEMIXER,AIR LOOP HVAC ZONE MIXER 11,Inlet,1
 Non-Parent Node Connection,NODE 278,AIRLOOPHVAC:ZONEMIXER,AIR LOOP HVAC ZONE MIXER 12,Outlet,1
 Non-Parent Node Connection,NODE 292,AIRLOOPHVAC:ZONEMIXER,AIR LOOP HVAC ZONE MIXER 12,Inlet,1
 Non-Parent Node Connection,NODE 299,AIRLOOPHVAC:ZONEMIXER,AIR LOOP HVAC ZONE MIXER 12,Inlet,1
 Non-Parent Node Connection,NODE 94,OUTDOORAIR:MIXER,AIR LOOP HVAC OUTDOOR AIR SYSTEM 5 OUTDOOR AIR MIXER,Outlet,1
 Non-Parent Node Connection,NODE 90,OUTDOORAIR:MIXER,AIR LOOP HVAC OUTDOOR AIR SYSTEM 5 OUTDOOR AIR MIXER,Inlet,1
 Non-Parent Node Connection,NODE 91,OUTDOORAIR:MIXER,AIR LOOP HVAC OUTDOOR AIR SYSTEM 5 OUTDOOR AIR MIXER,ReliefAir,1
 Non-Parent Node Connection,NODE 85,OUTDOORAIR:MIXER,AIR LOOP HVAC OUTDOOR AIR SYSTEM 5 OUTDOOR AIR MIXER,Inlet,1
 Non-Parent Node Connection,NODE 81,OUTDOORAIR:MIXER,AIR LOOP HVAC OUTDOOR AIR SYSTEM 4 OUTDOOR AIR MIXER,Outlet,1
 Non-Parent Node Connection,NODE 77,OUTDOORAIR:MIXER,AIR LOOP HVAC OUTDOOR AIR SYSTEM 4 OUTDOOR AIR MIXER,Inlet,1
 Non-Parent Node Connection,NODE 78,OUTDOORAIR:MIXER,AIR LOOP HVAC OUTDOOR AIR SYSTEM 4 OUTDOOR AIR MIXER,ReliefAir,1
 Non-Parent Node Connection,NODE 72,OUTDOORAIR:MIXER,AIR LOOP HVAC OUTDOOR AIR SYSTEM 4 OUTDOOR AIR MIXER,Inlet,1
 Non-Parent Node Connection,NODE 107,OUTDOORAIR:MIXER,AIR LOOP HVAC OUTDOOR AIR SYSTEM 6 OUTDOOR AIR MIXER,Outlet,1
 Non-Parent Node Connection,NODE 103,OUTDOORAIR:MIXER,AIR LOOP HVAC OUTDOOR AIR SYSTEM 6 OUTDOOR AIR MIXER,Inlet,1
 Non-Parent Node Connection,NODE 104,OUTDOORAIR:MIXER,AIR LOOP HVAC OUTDOOR AIR SYSTEM 6 OUTDOOR AIR MIXER,ReliefAir,1
 Non-Parent Node Connection,NODE 98,OUTDOORAIR:MIXER,AIR LOOP HVAC OUTDOOR AIR SYSTEM 6 OUTDOOR AIR MIXER,Inlet,1
 Non-Parent Node Connection,NODE 68,OUTDOORAIR:MIXER,AIR LOOP HVAC OUTDOOR AIR SYSTEM 3 OUTDOOR AIR MIXER,Outlet,1
 Non-Parent Node Connection,NODE 64,OUTDOORAIR:MIXER,AIR LOOP HVAC OUTDOOR AIR SYSTEM 3 OUTDOOR AIR MIXER,Inlet,1
 Non-Parent Node Connection,NODE 65,OUTDOORAIR:MIXER,AIR LOOP HVAC OUTDOOR AIR SYSTEM 3 OUTDOOR AIR MIXER,ReliefAir,1
 Non-Parent Node Connection,NODE 59,OUTDOORAIR:MIXER,AIR LOOP HVAC OUTDOOR AIR SYSTEM 3 OUTDOOR AIR MIXER,Inlet,1
 Non-Parent Node Connection,NODE 55,OUTDOORAIR:MIXER,AIR LOOP HVAC OUTDOOR AIR SYSTEM 2 OUTDOOR AIR MIXER,Outlet,1
 Non-Parent Node Connection,NODE 51,OUTDOORAIR:MIXER,AIR LOOP HVAC OUTDOOR AIR SYSTEM 2 OUTDOOR AIR MIXER,Inlet,1
 Non-Parent Node Connection,NODE 52,OUTDOORAIR:MIXER,AIR LOOP HVAC OUTDOOR AIR SYSTEM 2 OUTDOOR AIR MIXER,ReliefAir,1
 Non-Parent Node Connection,NODE 46,OUTDOORAIR:MIXER,AIR LOOP HVAC OUTDOOR AIR SYSTEM 2 OUTDOOR AIR MIXER,Inlet,1
 Non-Parent Node Connection,NODE 43,OUTDOORAIR:MIXER,AIR LOOP HVAC OUTDOOR AIR SYSTEM 1 OUTDOOR AIR MIXER,Outlet,1
 Non-Parent Node Connection,NODE 39,OUTDOORAIR:MIXER,AIR LOOP HVAC OUTDOOR AIR SYSTEM 1 OUTDOOR AIR MIXER,Inlet,1
 Non-Parent Node Connection,NODE 40,OUTDOORAIR:MIXER,AIR LOOP HVAC OUTDOOR AIR SYSTEM 1 OUTDOOR AIR MIXER,ReliefAir,1
 Non-Parent Node Connection,NODE 34,OUTDOORAIR:MIXER,AIR LOOP HVAC OUTDOOR AIR SYSTEM 1 OUTDOOR AIR MIXER,Inlet,1
 Non-Parent Node Connection,NODE 133,OUTDOORAIR:MIXER,AIR LOOP HVAC OUTDOOR AIR SYSTEM 8 OUTDOOR AIR MIXER,Outlet,1
 Non-Parent Node Connection,NODE 129,OUTDOORAIR:MIXER,AIR LOOP HVAC OUTDOOR AIR SYSTEM 8 OUTDOOR AIR MIXER,Inlet,1
 Non-Parent Node Connection,NODE 130,OUTDOORAIR:MIXER,AIR LOOP HVAC OUTDOOR AIR SYSTEM 8 OUTDOOR AIR MIXER,ReliefAir,1
 Non-Parent Node Connection,NODE 124,OUTDOORAIR:MIXER,AIR LOOP HVAC OUTDOOR AIR SYSTEM 8 OUTDOOR AIR MIXER,Inlet,1
 Non-Parent Node Connection,NODE 120,OUTDOORAIR:MIXER,AIR LOOP HVAC OUTDOOR AIR SYSTEM 7 OUTDOOR AIR MIXER,Outlet,1
 Non-Parent Node Connection,NODE 116,OUTDOORAIR:MIXER,AIR LOOP HVAC OUTDOOR AIR SYSTEM 7 OUTDOOR AIR MIXER,Inlet,1
 Non-Parent Node Connection,NODE 117,OUTDOORAIR:MIXER,AIR LOOP HVAC OUTDOOR AIR SYSTEM 7 OUTDOOR AIR MIXER,ReliefAir,1
 Non-Parent Node Connection,NODE 111,OUTDOORAIR:MIXER,AIR LOOP HVAC OUTDOOR AIR SYSTEM 7 OUTDOOR AIR MIXER,Inlet,1
 Non-Parent Node Connection,NODE 176,OUTDOORAIR:MIXER,AIR LOOP HVAC OUTDOOR AIR SYSTEM 9 OUTDOOR AIR MIXER,Outlet,1
 Non-Parent Node Connection,NODE 172,OUTDOORAIR:MIXER,AIR LOOP HVAC OUTDOOR AIR SYSTEM 9 OUTDOOR AIR MIXER,Inlet,1
 Non-Parent Node Connection,NODE 173,OUTDOORAIR:MIXER,AIR LOOP HVAC OUTDOOR AIR SYSTEM 9 OUTDOOR AIR MIXER,ReliefAir,1
 Non-Parent Node Connection,NODE 177,OUTDOORAIR:MIXER,AIR LOOP HVAC OUTDOOR AIR SYSTEM 9 OUTDOOR AIR MIXER,Inlet,1
 Non-Parent Node Connection,NODE 218,OUTDOORAIR:MIXER,AIR LOOP HVAC OUTDOOR AIR SYSTEM 10 OUTDOOR AIR MIXER,Outlet,1
 Non-Parent Node Connection,NODE 214,OUTDOORAIR:MIXER,AIR LOOP HVAC OUTDOOR AIR SYSTEM 10 OUTDOOR AIR MIXER,Inlet,1
 Non-Parent Node Connection,NODE 215,OUTDOORAIR:MIXER,AIR LOOP HVAC OUTDOOR AIR SYSTEM 10 OUTDOOR AIR MIXER,ReliefAir,1
 Non-Parent Node Connection,NODE 219,OUTDOORAIR:MIXER,AIR LOOP HVAC OUTDOOR AIR SYSTEM 10 OUTDOOR AIR MIXER,Inlet,1
 Non-Parent Node Connection,NODE 260,OUTDOORAIR:MIXER,AIR LOOP HVAC OUTDOOR AIR SYSTEM 11 OUTDOOR AIR MIXER,Outlet,1
 Non-Parent Node Connection,NODE 256,OUTDOORAIR:MIXER,AIR LOOP HVAC OUTDOOR AIR SYSTEM 11 OUTDOOR AIR MIXER,Inlet,1
 Non-Parent Node Connection,NODE 257,OUTDOORAIR:MIXER,AIR LOOP HVAC OUTDOOR AIR SYSTEM 11 OUTDOOR AIR MIXER,ReliefAir,1
 Non-Parent Node Connection,NODE 261,OUTDOORAIR:MIXER,AIR LOOP HVAC OUTDOOR AIR SYSTEM 11 OUTDOOR AIR MIXER,Inlet,1
 Non-Parent Node Connection,NODE 288,OUTDOORAIR:MIXER,AIR LOOP HVAC OUTDOOR AIR SYSTEM 12 OUTDOOR AIR MIXER,Outlet,1
 Non-Parent Node Connection,NODE 284,OUTDOORAIR:MIXER,AIR LOOP HVAC OUTDOOR AIR SYSTEM 12 OUTDOOR AIR MIXER,Inlet,1
 Non-Parent Node Connection,NODE 285,OUTDOORAIR:MIXER,AIR LOOP HVAC OUTDOOR AIR SYSTEM 12 OUTDOOR AIR MIXER,ReliefAir,1
 Non-Parent Node Connection,NODE 289,OUTDOORAIR:MIXER,AIR LOOP HVAC OUTDOOR AIR SYSTEM 12 OUTDOOR AIR MIXER,Inlet,1
 Non-Parent Node Connection,NODE 92,FAN:CONSTANTVOLUME,FAN CONSTANT VOLUME 5,Inlet,1
 Non-Parent Node Connection,NODE 86,FAN:CONSTANTVOLUME,FAN CONSTANT VOLUME 5,Outlet,1
 Non-Parent Node Connection,NODE 79,FAN:CONSTANTVOLUME,FAN CONSTANT VOLUME 4,Inlet,1
 Non-Parent Node Connection,NODE 73,FAN:CONSTANTVOLUME,FAN CONSTANT VOLUME 4,Outlet,1
 Non-Parent Node Connection,NODE 105,FAN:CONSTANTVOLUME,FAN CONSTANT VOLUME 6,Inlet,1
 Non-Parent Node Connection,NODE 99,FAN:CONSTANTVOLUME,FAN CONSTANT VOLUME 6,Outlet,1
 Non-Parent Node Connection,NODE 66,FAN:CONSTANTVOLUME,FAN CONSTANT VOLUME 3,Inlet,1
 Non-Parent Node Connection,NODE 60,FAN:CONSTANTVOLUME,FAN CONSTANT VOLUME 3,Outlet,1
 Non-Parent Node Connection,NODE 53,FAN:CONSTANTVOLUME,FAN CONSTANT VOLUME 2,Inlet,1
 Non-Parent Node Connection,NODE 47,FAN:CONSTANTVOLUME,FAN CONSTANT VOLUME 2,Outlet,1
 Non-Parent Node Connection,NODE 41,FAN:CONSTANTVOLUME,FAN CONSTANT VOLUME 1,Inlet,1
 Non-Parent Node Connection,NODE 35,FAN:CONSTANTVOLUME,FAN CONSTANT VOLUME 1,Outlet,1
 Non-Parent Node Connection,NODE 131,FAN:CONSTANTVOLUME,FAN CONSTANT VOLUME 8,Inlet,1
 Non-Parent Node Connection,NODE 125,FAN:CONSTANTVOLUME,FAN CONSTANT VOLUME 8,Outlet,1
 Non-Parent Node Connection,NODE 118,FAN:CONSTANTVOLUME,FAN CONSTANT VOLUME 7,Inlet,1
 Non-Parent Node Connection,NODE 112,FAN:CONSTANTVOLUME,FAN CONSTANT VOLUME 7,Outlet,1
 Non-Parent Node Connection,NODE 164,FAN:VARIABLEVOLUME,SYS6 RETURN FAN,Inlet,1
 Non-Parent Node Connection,NODE 177,FAN:VARIABLEVOLUME,SYS6 RETURN FAN,Outlet,1
 Non-Parent Node Connection,NODE 174,FAN:VARIABLEVOLUME,SYS6 SUPPLY FAN,Inlet,1
 Non-Parent Node Connection,NODE 165,FAN:VARIABLEVOLUME,SYS6 SUPPLY FAN,Outlet,1
 Non-Parent Node Connection,NODE 205,FAN:VARIABLEVOLUME,SYS6 RETURN FAN 1,Inlet,1
 Non-Parent Node Connection,NODE 219,FAN:VARIABLEVOLUME,SYS6 RETURN FAN 1,Outlet,1
 Non-Parent Node Connection,NODE 216,FAN:VARIABLEVOLUME,SYS6 SUPPLY FAN 1,Inlet,1
 Non-Parent Node Connection,NODE 206,FAN:VARIABLEVOLUME,SYS6 SUPPLY FAN 1,Outlet,1
 Non-Parent Node Connection,NODE 247,FAN:VARIABLEVOLUME,SYS6 RETURN FAN 2,Inlet,1
 Non-Parent Node Connection,NODE 261,FAN:VARIABLEVOLUME,SYS6 RETURN FAN 2,Outlet,1
 Non-Parent Node Connection,NODE 258,FAN:VARIABLEVOLUME,SYS6 SUPPLY FAN 2,Inlet,1
 Non-Parent Node Connection,NODE 248,FAN:VARIABLEVOLUME,SYS6 SUPPLY FAN 2,Outlet,1
 Non-Parent Node Connection,NODE 275,FAN:VARIABLEVOLUME,SYS6 RETURN FAN 3,Inlet,1
 Non-Parent Node Connection,NODE 289,FAN:VARIABLEVOLUME,SYS6 RETURN FAN 3,Outlet,1
 Non-Parent Node Connection,NODE 286,FAN:VARIABLEVOLUME,SYS6 SUPPLY FAN 3,Inlet,1
 Non-Parent Node Connection,NODE 276,FAN:VARIABLEVOLUME,SYS6 SUPPLY FAN 3,Outlet,1
 Non-Parent Node Connection,NODE 94,CONTROLLER:OUTDOORAIR,CONTROLLER OUTDOOR AIR 5,Sensor,1
 Non-Parent Node Connection,NODE 90,CONTROLLER:OUTDOORAIR,CONTROLLER OUTDOOR AIR 5,Actuator,1
 Non-Parent Node Connection,NODE 91,CONTROLLER:OUTDOORAIR,CONTROLLER OUTDOOR AIR 5,Actuator,1
 Non-Parent Node Connection,NODE 85,CONTROLLER:OUTDOORAIR,CONTROLLER OUTDOOR AIR 5,Sensor,1
 Non-Parent Node Connection,NODE 81,CONTROLLER:OUTDOORAIR,CONTROLLER OUTDOOR AIR 4,Sensor,1
 Non-Parent Node Connection,NODE 77,CONTROLLER:OUTDOORAIR,CONTROLLER OUTDOOR AIR 4,Actuator,1
 Non-Parent Node Connection,NODE 78,CONTROLLER:OUTDOORAIR,CONTROLLER OUTDOOR AIR 4,Actuator,1
 Non-Parent Node Connection,NODE 72,CONTROLLER:OUTDOORAIR,CONTROLLER OUTDOOR AIR 4,Sensor,1
 Non-Parent Node Connection,NODE 107,CONTROLLER:OUTDOORAIR,CONTROLLER OUTDOOR AIR 6,Sensor,1
 Non-Parent Node Connection,NODE 103,CONTROLLER:OUTDOORAIR,CONTROLLER OUTDOOR AIR 6,Actuator,1
 Non-Parent Node Connection,NODE 104,CONTROLLER:OUTDOORAIR,CONTROLLER OUTDOOR AIR 6,Actuator,1
 Non-Parent Node Connection,NODE 98,CONTROLLER:OUTDOORAIR,CONTROLLER OUTDOOR AIR 6,Sensor,1
 Non-Parent Node Connection,NODE 68,CONTROLLER:OUTDOORAIR,CONTROLLER OUTDOOR AIR 3,Sensor,1
 Non-Parent Node Connection,NODE 64,CONTROLLER:OUTDOORAIR,CONTROLLER OUTDOOR AIR 3,Actuator,1
 Non-Parent Node Connection,NODE 65,CONTROLLER:OUTDOORAIR,CONTROLLER OUTDOOR AIR 3,Actuator,1
 Non-Parent Node Connection,NODE 59,CONTROLLER:OUTDOORAIR,CONTROLLER OUTDOOR AIR 3,Sensor,1
 Non-Parent Node Connection,NODE 55,CONTROLLER:OUTDOORAIR,CONTROLLER OUTDOOR AIR 2,Sensor,1
 Non-Parent Node Connection,NODE 51,CONTROLLER:OUTDOORAIR,CONTROLLER OUTDOOR AIR 2,Actuator,1
 Non-Parent Node Connection,NODE 52,CONTROLLER:OUTDOORAIR,CONTROLLER OUTDOOR AIR 2,Actuator,1
 Non-Parent Node Connection,NODE 46,CONTROLLER:OUTDOORAIR,CONTROLLER OUTDOOR AIR 2,Sensor,1
 Non-Parent Node Connection,NODE 43,CONTROLLER:OUTDOORAIR,CONTROLLER OUTDOOR AIR 1,Sensor,1
 Non-Parent Node Connection,NODE 39,CONTROLLER:OUTDOORAIR,CONTROLLER OUTDOOR AIR 1,Actuator,1
 Non-Parent Node Connection,NODE 40,CONTROLLER:OUTDOORAIR,CONTROLLER OUTDOOR AIR 1,Actuator,1
 Non-Parent Node Connection,NODE 34,CONTROLLER:OUTDOORAIR,CONTROLLER OUTDOOR AIR 1,Sensor,1
 Non-Parent Node Connection,NODE 133,CONTROLLER:OUTDOORAIR,CONTROLLER OUTDOOR AIR 8,Sensor,1
 Non-Parent Node Connection,NODE 129,CONTROLLER:OUTDOORAIR,CONTROLLER OUTDOOR AIR 8,Actuator,1
 Non-Parent Node Connection,NODE 130,CONTROLLER:OUTDOORAIR,CONTROLLER OUTDOOR AIR 8,Actuator,1
 Non-Parent Node Connection,NODE 124,CONTROLLER:OUTDOORAIR,CONTROLLER OUTDOOR AIR 8,Sensor,1
 Non-Parent Node Connection,NODE 120,CONTROLLER:OUTDOORAIR,CONTROLLER OUTDOOR AIR 7,Sensor,1
 Non-Parent Node Connection,NODE 116,CONTROLLER:OUTDOORAIR,CONTROLLER OUTDOOR AIR 7,Actuator,1
 Non-Parent Node Connection,NODE 117,CONTROLLER:OUTDOORAIR,CONTROLLER OUTDOOR AIR 7,Actuator,1
 Non-Parent Node Connection,NODE 111,CONTROLLER:OUTDOORAIR,CONTROLLER OUTDOOR AIR 7,Sensor,1
 Non-Parent Node Connection,NODE 176,CONTROLLER:OUTDOORAIR,CONTROLLER OUTDOOR AIR 9,Sensor,1
 Non-Parent Node Connection,NODE 172,CONTROLLER:OUTDOORAIR,CONTROLLER OUTDOOR AIR 9,Actuator,1
 Non-Parent Node Connection,NODE 173,CONTROLLER:OUTDOORAIR,CONTROLLER OUTDOOR AIR 9,Actuator,1
 Non-Parent Node Connection,NODE 177,CONTROLLER:OUTDOORAIR,CONTROLLER OUTDOOR AIR 9,Sensor,1
 Non-Parent Node Connection,NODE 218,CONTROLLER:OUTDOORAIR,CONTROLLER OUTDOOR AIR 10,Sensor,1
 Non-Parent Node Connection,NODE 214,CONTROLLER:OUTDOORAIR,CONTROLLER OUTDOOR AIR 10,Actuator,1
 Non-Parent Node Connection,NODE 215,CONTROLLER:OUTDOORAIR,CONTROLLER OUTDOOR AIR 10,Actuator,1
 Non-Parent Node Connection,NODE 219,CONTROLLER:OUTDOORAIR,CONTROLLER OUTDOOR AIR 10,Sensor,1
 Non-Parent Node Connection,NODE 260,CONTROLLER:OUTDOORAIR,CONTROLLER OUTDOOR AIR 11,Sensor,1
 Non-Parent Node Connection,NODE 256,CONTROLLER:OUTDOORAIR,CONTROLLER OUTDOOR AIR 11,Actuator,1
 Non-Parent Node Connection,NODE 257,CONTROLLER:OUTDOORAIR,CONTROLLER OUTDOOR AIR 11,Actuator,1
 Non-Parent Node Connection,NODE 261,CONTROLLER:OUTDOORAIR,CONTROLLER OUTDOOR AIR 11,Sensor,1
 Non-Parent Node Connection,NODE 288,CONTROLLER:OUTDOORAIR,CONTROLLER OUTDOOR AIR 12,Sensor,1
 Non-Parent Node Connection,NODE 284,CONTROLLER:OUTDOORAIR,CONTROLLER OUTDOOR AIR 12,Actuator,1
 Non-Parent Node Connection,NODE 285,CONTROLLER:OUTDOORAIR,CONTROLLER OUTDOOR AIR 12,Actuator,1
 Non-Parent Node Connection,NODE 289,CONTROLLER:OUTDOORAIR,CONTROLLER OUTDOOR AIR 12,Sensor,1
 Non-Parent Node Connection,NODE 94,COIL:COOLING:DX:SINGLESPEED,COIL COOLING DX SINGLE SPEED 5,Inlet,1
 Non-Parent Node Connection,NODE 93,COIL:COOLING:DX:SINGLESPEED,COIL COOLING DX SINGLE SPEED 5,Outlet,1
 Non-Parent Node Connection,NODE 81,COIL:COOLING:DX:SINGLESPEED,COIL COOLING DX SINGLE SPEED 4,Inlet,1
 Non-Parent Node Connection,NODE 80,COIL:COOLING:DX:SINGLESPEED,COIL COOLING DX SINGLE SPEED 4,Outlet,1
 Non-Parent Node Connection,NODE 107,COIL:COOLING:DX:SINGLESPEED,COIL COOLING DX SINGLE SPEED 6,Inlet,1
 Non-Parent Node Connection,NODE 106,COIL:COOLING:DX:SINGLESPEED,COIL COOLING DX SINGLE SPEED 6,Outlet,1
 Non-Parent Node Connection,NODE 68,COIL:COOLING:DX:SINGLESPEED,COIL COOLING DX SINGLE SPEED 3,Inlet,1
 Non-Parent Node Connection,NODE 67,COIL:COOLING:DX:SINGLESPEED,COIL COOLING DX SINGLE SPEED 3,Outlet,1
 Non-Parent Node Connection,NODE 55,COIL:COOLING:DX:SINGLESPEED,COIL COOLING DX SINGLE SPEED 2,Inlet,1
 Non-Parent Node Connection,NODE 54,COIL:COOLING:DX:SINGLESPEED,COIL COOLING DX SINGLE SPEED 2,Outlet,1
 Non-Parent Node Connection,NODE 43,COIL:COOLING:DX:SINGLESPEED,COIL COOLING DX SINGLE SPEED 1,Inlet,1
 Non-Parent Node Connection,NODE 42,COIL:COOLING:DX:SINGLESPEED,COIL COOLING DX SINGLE SPEED 1,Outlet,1
 Non-Parent Node Connection,NODE 133,COIL:COOLING:DX:SINGLESPEED,COIL COOLING DX SINGLE SPEED 8,Inlet,1
 Non-Parent Node Connection,NODE 132,COIL:COOLING:DX:SINGLESPEED,COIL COOLING DX SINGLE SPEED 8,Outlet,1
 Non-Parent Node Connection,NODE 120,COIL:COOLING:DX:SINGLESPEED,COIL COOLING DX SINGLE SPEED 7,Inlet,1
 Non-Parent Node Connection,NODE 119,COIL:COOLING:DX:SINGLESPEED,COIL COOLING DX SINGLE SPEED 7,Outlet,1
 Non-Parent Node Connection,NODE 93,COIL:HEATING:FUEL,COIL HEATING GAS 5,Inlet,1
 Non-Parent Node Connection,NODE 92,COIL:HEATING:FUEL,COIL HEATING GAS 5,Outlet,1
 Non-Parent Node Connection,NODE 92,COIL:HEATING:FUEL,COIL HEATING GAS 5,Sensor,1
 Non-Parent Node Connection,NODE 80,COIL:HEATING:FUEL,COIL HEATING GAS 4,Inlet,1
 Non-Parent Node Connection,NODE 79,COIL:HEATING:FUEL,COIL HEATING GAS 4,Outlet,1
 Non-Parent Node Connection,NODE 79,COIL:HEATING:FUEL,COIL HEATING GAS 4,Sensor,1
 Non-Parent Node Connection,NODE 106,COIL:HEATING:FUEL,COIL HEATING GAS 6,Inlet,1
 Non-Parent Node Connection,NODE 105,COIL:HEATING:FUEL,COIL HEATING GAS 6,Outlet,1
 Non-Parent Node Connection,NODE 105,COIL:HEATING:FUEL,COIL HEATING GAS 6,Sensor,1
 Non-Parent Node Connection,NODE 67,COIL:HEATING:FUEL,COIL HEATING GAS 3,Inlet,1
 Non-Parent Node Connection,NODE 66,COIL:HEATING:FUEL,COIL HEATING GAS 3,Outlet,1
 Non-Parent Node Connection,NODE 66,COIL:HEATING:FUEL,COIL HEATING GAS 3,Sensor,1
 Non-Parent Node Connection,NODE 54,COIL:HEATING:FUEL,COIL HEATING GAS 2,Inlet,1
 Non-Parent Node Connection,NODE 53,COIL:HEATING:FUEL,COIL HEATING GAS 2,Outlet,1
 Non-Parent Node Connection,NODE 53,COIL:HEATING:FUEL,COIL HEATING GAS 2,Sensor,1
 Non-Parent Node Connection,NODE 42,COIL:HEATING:FUEL,COIL HEATING GAS 1,Inlet,1
 Non-Parent Node Connection,NODE 41,COIL:HEATING:FUEL,COIL HEATING GAS 1,Outlet,1
 Non-Parent Node Connection,NODE 41,COIL:HEATING:FUEL,COIL HEATING GAS 1,Sensor,1
 Non-Parent Node Connection,NODE 132,COIL:HEATING:FUEL,COIL HEATING GAS 8,Inlet,1
 Non-Parent Node Connection,NODE 131,COIL:HEATING:FUEL,COIL HEATING GAS 8,Outlet,1
 Non-Parent Node Connection,NODE 131,COIL:HEATING:FUEL,COIL HEATING GAS 8,Sensor,1
 Non-Parent Node Connection,NODE 119,COIL:HEATING:FUEL,COIL HEATING GAS 7,Inlet,1
 Non-Parent Node Connection,NODE 118,COIL:HEATING:FUEL,COIL HEATING GAS 7,Outlet,1
 Non-Parent Node Connection,NODE 118,COIL:HEATING:FUEL,COIL HEATING GAS 7,Sensor,1
 Non-Parent Node Connection,NODE 139,CHILLER:ELECTRIC:EIR,PRIMARY CHILLER WATERCOOLED SCROLL,Inlet,1
 Non-Parent Node Connection,NODE 144,CHILLER:ELECTRIC:EIR,PRIMARY CHILLER WATERCOOLED SCROLL,Outlet,1
 Non-Parent Node Connection,NODE 155,CHILLER:ELECTRIC:EIR,PRIMARY CHILLER WATERCOOLED SCROLL,Inlet,2
 Non-Parent Node Connection,NODE 161,CHILLER:ELECTRIC:EIR,PRIMARY CHILLER WATERCOOLED SCROLL,Outlet,2
 Non-Parent Node Connection,NODE 145,CHILLER:ELECTRIC:EIR,SECONDARY CHILLER WATERCOOLED SCROLL,Inlet,1
 Non-Parent Node Connection,NODE 146,CHILLER:ELECTRIC:EIR,SECONDARY CHILLER WATERCOOLED SCROLL,Outlet,1
 Non-Parent Node Connection,NODE 162,CHILLER:ELECTRIC:EIR,SECONDARY CHILLER WATERCOOLED SCROLL,Inlet,2
 Non-Parent Node Connection,NODE 163,CHILLER:ELECTRIC:EIR,SECONDARY CHILLER WATERCOOLED SCROLL,Outlet,2
 Non-Parent Node Connection,NODE 152,COOLINGTOWER:SINGLESPEED,COOLING TOWER SINGLE SPEED 1,Inlet,1
 Non-Parent Node Connection,NODE 157,COOLINGTOWER:SINGLESPEED,COOLING TOWER SINGLE SPEED 1,Outlet,1
 Non-Parent Node Connection,NODE 23,BOILER:HOTWATER,PRIMARY BOILER,Inlet,1
 Non-Parent Node Connection,NODE 28,BOILER:HOTWATER,PRIMARY BOILER,Outlet,1
 Non-Parent Node Connection,NODE 29,BOILER:HOTWATER,SECONDARY BOILER,Inlet,1
 Non-Parent Node Connection,NODE 30,BOILER:HOTWATER,SECONDARY BOILER,Outlet,1
 Non-Parent Node Connection,NODE 21,PUMP:VARIABLESPEED,PUMP VARIABLE SPEED 1,Inlet,1
 Non-Parent Node Connection,NODE 27,PUMP:VARIABLESPEED,PUMP VARIABLE SPEED 1,Outlet,1
 Non-Parent Node Connection,NODE 137,PUMP:CONSTANTSPEED,PUMP CONSTANT SPEED 1,Inlet,1
 Non-Parent Node Connection,NODE 143,PUMP:CONSTANTSPEED,PUMP CONSTANT SPEED 1,Outlet,1
 Non-Parent Node Connection,NODE 150,PUMP:CONSTANTSPEED,PUMP CONSTANT SPEED 2,Inlet,1
 Non-Parent Node Connection,NODE 156,PUMP:CONSTANTSPEED,PUMP CONSTANT SPEED 2,Outlet,1
 Non-Parent Node Connection,NODE 303,PUMP:CONSTANTSPEED,SERVICE WATER LOOP PUMP,Inlet,1
 Non-Parent Node Connection,NODE 309,PUMP:CONSTANTSPEED,SERVICE WATER LOOP PUMP,Outlet,1
