Program Version,EnergyPlus, Version 8.9.0-eba93e8e1b, YMD=2019.04.04 18:00
! This file shows details about the branches, nodes, and other
! elements of the flow connections.
! This file is intended for use in "debugging" potential problems
! that may also be detected by the program, but may be more easily
! identified by "eye".
! This file is also intended to support software which draws a
! schematic diagram of the HVAC system.
! ===============================================================
! #Nodes,<Number of Unique Nodes>
 #Nodes,120
! <Node>,<NodeNumber>,<Node Name>,<Node Fluid Type>,<# Times Node Referenced After Definition>
 Node,1,NODE 45,Air,4
 Node,2,NODE 58,Air,4
 Node,3,NODE 31,Air,3
 Node,4,NODE 23,Air,3
 Node,5,NODE 30,Air,3
 Node,6,NODE 36,Air,3
 Node,7,NODE 39,Air,3
 Node,8,NODE 35,Air,3
 Node,9,NODE 71,Air,4
 Node,10,NODE 20,Air,10
 Node,11,NODE 21,Air,3
 Node,12,NODE 42,Air,10
 Node,13,NODE 43,Air,3
 Node,14,NODE 55,Air,10
 Node,15,NODE 56,Air,3
 Node,16,NODE 68,Air,10
 Node,17,NODE 69,Air,3
 Node,18,NODE 19,Air,3
 Node,19,NODE 29,Air,6
 Node,20,NODE 28,Air,6
 Node,21,NODE 27,Air,8
 Node,22,NODE 41,Air,3
 Node,23,NODE 50,Air,6
 Node,24,NODE 49,Air,6
 Node,25,NODE 48,Air,8
 Node,26,NODE 54,Air,3
 Node,27,NODE 63,Air,6
 Node,28,NODE 62,Air,6
 Node,29,NODE 61,Air,8
 Node,30,NODE 67,Air,3
 Node,31,NODE 76,Air,6
 Node,32,NODE 75,Air,6
 Node,33,NODE 74,Air,8
 Node,34,NODE 6,Water,2
 Node,35,NODE 12,Water,1
 Node,36,NODE 8,Water,1
 Node,37,NODE 13,Water,1
 Node,38,NODE 14,Water,1
 Node,39,NODE 15,Water,1
 Node,40,NODE 16,Water,1
 Node,41,NODE 17,Water,1
 Node,42,NODE 18,Water,1
 Node,43,NODE 7,Water,4
 Node,44,NODE 9,Water,2
 Node,45,HOT WATER LOOP DEMAND INLET PIPE NODE,Water,1
 Node,46,NODE 11,Water,2
 Node,47,NODE 24,Water,1
 Node,48,NODE 32,Water,1
 Node,49,NODE 33,Water,1
 Node,50,NODE 37,Water,1
 Node,51,NODE 38,Water,1
 Node,52,NODE 52,Water,1
 Node,53,NODE 53,Water,1
 Node,54,NODE 65,Water,1
 Node,55,NODE 66,Water,1
 Node,56,NODE 78,Water,1
 Node,57,NODE 79,Water,1
 Node,58,HOT WATER LOOP DEMAND BYPASS PIPE INLET NODE,Water,1
 Node,59,HOT WATER LOOP DEMAND BYPASS PIPE OUTLET NODE,Water,1
 Node,60,HOT WATER LOOP DEMAND OUTLET PIPE NODE,Water,1
 Node,61,NODE 10,Water,2
 Node,62,NODE 80,Water,2
 Node,63,NODE 86,Water,1
 Node,64,NODE 82,Water,1
 Node,65,NODE 87,Water,1
 Node,66,NODE 88,Water,1
 Node,67,NODE 89,Water,1
 Node,68,NODE 91,Water,1
 Node,69,NODE 81,Water,4
 Node,70,NODE 83,Water,2
 Node,71,NODE 92,Water,1
 Node,72,NODE 85,Water,1
 Node,73,NODE 90,Water,1
 Node,74,NODE 94,Water,1
 Node,75,NODE 95,Water,1
 Node,76,NODE 96,Water,1
 Node,77,NODE 97,Water,1
 Node,78,NODE 98,Water,1
 Node,79,NODE 99,Water,1
 Node,80,NODE 100,Water,1
 Node,81,NODE 101,Water,1
 Node,82,NODE 102,Water,1
 Node,83,NODE 103,Water,1
 Node,84,MAIN SERVICE WATER LOOP DEMAND BYPASS PIPE INLET NODE,Water,1
 Node,85,MAIN SERVICE WATER LOOP DEMAND BYPASS PIPE OUTLET NODE,Water,1
 Node,86,NODE 93,Water,1
 Node,87,NODE 84,Water,2
 Node,88,NODE 3,Air,1
 Node,89,NODE 51,Air,1
 Node,90,NODE 4,Air,1
 Node,91,NODE 64,Air,1
 Node,92,NODE 1,Air,0
 Node,93,NODE 34,Air,1
 Node,94,NODE 2,Air,0
 Node,95,NODE 40,Air,1
 Node,96,NODE 5,Air,1
 Node,97,NODE 77,Air,1
 Node,98,NODE 22,Air,2
 Node,99,NODE 44,Air,2
 Node,100,NODE 57,Air,2
 Node,101,NODE 70,Air,2
 Node,102,SP-DWELLING UNITS GENERAL-SPACE FUNCTION SYS-1 FLR-1 SCH-G HPLCMT-NORTH ZN PTAC OA NODE,Air,1
 Node,103,SP-DWELLING UNITS LONG-TERM-SPACE FUNCTION SYS-1 FLR-1 SCH-J HPLCMT-WEST ZN PTAC OA NODE,Air,1
 Node,104,NODE 25,Air,2
 Node,105,NODE 46,Air,2
 Node,106,NODE 59,Air,2
 Node,107,NODE 72,Air,2
 Node,108,MODEL OUTDOOR AIR NODE,Air,0
 Node,109,SP-DWELLING UNITS GENERAL-SPACE FUNCTION SYS-1 FLR-1 SCH-G HPLCMT-NORTH ZN PTAC MIXED AIR NODE,Air,1
 Node,110,SP-DWELLING UNITS GENERAL-SPACE FUNCTION SYS-1 FLR-1 SCH-G HPLCMT-NORTH ZN PTAC RELIEF AIR NODE,Air,0
 Node,111,SP-DWELLING UNITS LONG-TERM-SPACE FUNCTION SYS-1 FLR-1 SCH-J HPLCMT-WEST ZN PTAC MIXED AIR NODE,Air,1
 Node,112,SP-DWELLING UNITS LONG-TERM-SPACE FUNCTION SYS-1 FLR-1 SCH-J HPLCMT-WEST ZN PTAC RELIEF AIR NODE,Air,0
 Node,113,NODE 26,Air,1
 Node,114,NODE 47,Air,1
 Node,115,NODE 60,Air,1
 Node,116,NODE 73,Air,1
 Node,117,SP-DWELLING UNITS GENERAL-SPACE FUNCTION SYS-1 FLR-1 SCH-G HPLCMT-NORTH ZN PTAC HEATING COIL OUTLET NODE,Air,1
 Node,118,SP-DWELLING UNITS LONG-TERM-SPACE FUNCTION SYS-1 FLR-1 SCH-J HPLCMT-WEST ZN PTAC HEATING COIL OUTLET NODE,Air,1
 Node,119,SP-DWELLING UNITS GENERAL-SPACE FUNCTION SYS-1 FLR-1 SCH-G HPLCMT-NORTH ZN PTAC COOLING COIL OUTLET NODE,Air,1
 Node,120,SP-DWELLING UNITS LONG-TERM-SPACE FUNCTION SYS-1 FLR-1 SCH-J HPLCMT-WEST ZN PTAC COOLING COIL OUTLET NODE,Air,1
! ===============================================================
! Suspicious nodes have 0 references.  It is normal for some nodes, however.
! Listing nodes with 0 references (culled from previous list):
! <Suspicious Node>,<NodeNumber>,<Node Name>,<Node Fluid Type>,<# Times Node Referenced After Definition>
 Suspicious Node,92,NODE 1,Air,0
 Suspicious Node,94,NODE 2,Air,0
 Suspicious Node,108,MODEL OUTDOOR AIR NODE,Air,0
 Suspicious Node,110,SP-DWELLING UNITS GENERAL-SPACE FUNCTION SYS-1 FLR-1 SCH-G HPLCMT-NORTH ZN PTAC RELIEF AIR NODE,Air,0
 Suspicious Node,112,SP-DWELLING UNITS LONG-TERM-SPACE FUNCTION SYS-1 FLR-1 SCH-J HPLCMT-WEST ZN PTAC RELIEF AIR NODE,Air,0
! ===============================================================
! <#Branch Lists>,<Number of Branch Lists>
 #Branch Lists,8
! <Branch List>,<Branch List Count>,<Branch List Name>,<Loop Name>,<Loop Type>,<Number of Branches>
! <Branch>,<Branch Count>,<Branch Name>,<Loop Name>,<Loop Type>,<Branch Inlet Node Name>,<Branch Outlet Node Name>
 Branch List,1,SYS_1_MAKE-UP AIR UNIT SUPPLY BRANCHES,SYS_1_MAKE-UP AIR UNIT,Air,1
   Branch,1,SYS_1_MAKE-UP AIR UNIT MAIN BRANCH,SYS_1_MAKE-UP AIR UNIT,Air,NODE 19,NODE 20
 Branch List,2,SYS_3_PSZ SP-CONVENTION CENTRE EXHIBIT SPACE-SPACE FUNCTION SYS-3 FLR-1 SCH-C HPLCMT-SOUTH ZN SUPPLY BRANCHES,SYS_3_PSZ SP-CONVENTION CENTRE EXHIBIT SPACE-SPACE FUNCTION SYS-3 FLR-1 SCH-C HPLCMT-SOUTH ZN,Air,1
   Branch,1,SYS_3_PSZ SP-CONVENTION CENTRE EXHIBIT SPACE-SPACE FUNCTION SYS-3 FLR-1 SCH-C HPLCMT-SOUTH ZN MAIN BRANCH,SYS_3_PSZ SP-CONVENTION CENTRE EXHIBIT SPACE-SPACE FUNCTION SYS-3 FLR-1 SCH-C HPLCMT-SOUTH ZN,Air,NODE 41,NODE 42
 Branch List,3,SYS_3_PSZ SP-DORMITORY LIVING QUARTERS-SPACE FUNCTION SYS-3 FLR-1 SCH-G HPLCMT-EAST ZN SUPPLY BRANCHES,SYS_3_PSZ SP-DORMITORY LIVING QUARTERS-SPACE FUNCTION SYS-3 FLR-1 SCH-G HPLCMT-EAST ZN,Air,1
   Branch,1,SYS_3_PSZ SP-DORMITORY LIVING QUARTERS-SPACE FUNCTION SYS-3 FLR-1 SCH-G HPLCMT-EAST ZN MAIN BRANCH,SYS_3_PSZ SP-DORMITORY LIVING QUARTERS-SPACE FUNCTION SYS-3 FLR-1 SCH-G HPLCMT-EAST ZN,Air,NODE 54,NODE 55
 Branch List,4,SYS_3_PSZ SP-WORKSHOP-SPACE FUNCTION SYS-3 FLR-1 SCH-A HPLCMT-CORE ZN SUPPLY BRANCHES,SYS_3_PSZ SP-WORKSHOP-SPACE FUNCTION SYS-3 FLR-1 SCH-A HPLCMT-CORE ZN,Air,1
   Branch,1,SYS_3_PSZ SP-WORKSHOP-SPACE FUNCTION SYS-3 FLR-1 SCH-A HPLCMT-CORE ZN MAIN BRANCH,SYS_3_PSZ SP-WORKSHOP-SPACE FUNCTION SYS-3 FLR-1 SCH-A HPLCMT-CORE ZN,Air,NODE 67,NODE 68
 Branch List,5,HOT WATER LOOP SUPPLY BRANCHES,HOT WATER LOOP,Plant Supply,5
   Branch,1,HOT WATER LOOP SUPPLY INLET BRANCH,HOT WATER LOOP,Plant Supply,NODE 6,NODE 12
   Branch,2,HOT WATER LOOP SUPPLY BRANCH 1,HOT WATER LOOP,Plant Supply,NODE 8,NODE 13
   Branch,3,HOT WATER LOOP SUPPLY BRANCH 2,HOT WATER LOOP,Plant Supply,NODE 14,NODE 15
   Branch,4,HOT WATER LOOP SUPPLY BRANCH 3,HOT WATER LOOP,Plant Supply,NODE 16,NODE 17
   Branch,5,HOT WATER LOOP SUPPLY OUTLET BRANCH,HOT WATER LOOP,Plant Supply,NODE 18,NODE 7
 Branch List,6,HOT WATER LOOP DEMAND BRANCHES,HOT WATER LOOP,Plant Demand,9
   Branch,1,HOT WATER LOOP DEMAND INLET BRANCH,HOT WATER LOOP,Plant Demand,NODE 9,HOT WATER LOOP DEMAND INLET PIPE NODE
   Branch,2,HOT WATER LOOP DEMAND BRANCH 1,HOT WATER LOOP,Plant Demand,NODE 11,NODE 24
   Branch,3,HOT WATER LOOP DEMAND BRANCH 2,HOT WATER LOOP,Plant Demand,NODE 32,NODE 33
   Branch,4,HOT WATER LOOP DEMAND BRANCH 3,HOT WATER LOOP,Plant Demand,NODE 37,NODE 38
   Branch,5,HOT WATER LOOP DEMAND BRANCH 4,HOT WATER LOOP,Plant Demand,NODE 52,NODE 53
   Branch,6,HOT WATER LOOP DEMAND BRANCH 5,HOT WATER LOOP,Plant Demand,NODE 65,NODE 66
   Branch,7,HOT WATER LOOP DEMAND BRANCH 6,HOT WATER LOOP,Plant Demand,NODE 78,NODE 79
   Branch,8,HOT WATER LOOP DEMAND BYPASS BRANCH,HOT WATER LOOP,Plant Demand,HOT WATER LOOP DEMAND BYPASS PIPE INLET NODE,HOT WATER LOOP DEMAND BYPASS PIPE OUTLET NODE
   Branch,9,HOT WATER LOOP DEMAND OUTLET BRANCH,HOT WATER LOOP,Plant Demand,HOT WATER LOOP DEMAND OUTLET PIPE NODE,NODE 10
 Branch List,7,MAIN SERVICE WATER LOOP SUPPLY BRANCHES,MAIN SERVICE WATER LOOP,Plant Supply,4
   Branch,1,MAIN SERVICE WATER LOOP SUPPLY INLET BRANCH,MAIN SERVICE WATER LOOP,Plant Supply,NODE 80,NODE 86
   Branch,2,MAIN SERVICE WATER LOOP SUPPLY BRANCH 1,MAIN SERVICE WATER LOOP,Plant Supply,NODE 82,NODE 87
   Branch,3,MAIN SERVICE WATER LOOP SUPPLY BRANCH 2,MAIN SERVICE WATER LOOP,Plant Supply,NODE 88,NODE 89
   Branch,4,MAIN SERVICE WATER LOOP SUPPLY OUTLET BRANCH,MAIN SERVICE WATER LOOP,Plant Supply,NODE 91,NODE 81
 Branch List,8,MAIN SERVICE WATER LOOP DEMAND BRANCHES,MAIN SERVICE WATER LOOP,Plant Demand,9
   Branch,1,MAIN SERVICE WATER LOOP DEMAND INLET BRANCH,MAIN SERVICE WATER LOOP,Plant Demand,NODE 83,NODE 92
   Branch,2,MAIN SERVICE WATER LOOP DEMAND BRANCH 1,MAIN SERVICE WATER LOOP,Plant Demand,NODE 85,NODE 90
   Branch,3,MAIN SERVICE WATER LOOP DEMAND BRANCH 2,MAIN SERVICE WATER LOOP,Plant Demand,NODE 94,NODE 95
   Branch,4,MAIN SERVICE WATER LOOP DEMAND BRANCH 3,MAIN SERVICE WATER LOOP,Plant Demand,NODE 96,NODE 97
   Branch,5,MAIN SERVICE WATER LOOP DEMAND BRANCH 4,MAIN SERVICE WATER LOOP,Plant Demand,NODE 98,NODE 99
   Branch,6,MAIN SERVICE WATER LOOP DEMAND BRANCH 5,MAIN SERVICE WATER LOOP,Plant Demand,NODE 100,NODE 101
   Branch,7,MAIN SERVICE WATER LOOP DEMAND BRANCH 6,MAIN SERVICE WATER LOOP,Plant Demand,NODE 102,NODE 103
   Branch,8,MAIN SERVICE WATER LOOP DEMAND BYPASS BRANCH,MAIN SERVICE WATER LOOP,Plant Demand,MAIN SERVICE WATER LOOP DEMAND BYPASS PIPE INLET NODE,MAIN SERVICE WATER LOOP DEMAND BYPASS PIPE OUTLET NODE
   Branch,9,MAIN SERVICE WATER LOOP DEMAND OUTLET BRANCH,MAIN SERVICE WATER LOOP,Plant Demand,NODE 93,NODE 84
! ===============================================================
! <#Supply Air Paths>,<Number of Supply Air Paths>
 #Supply Air Paths,4
! <Supply Air Path>,<Supply Air Path Count>,<Supply Air Path Name>,<AirLoopHVAC Name>
! <#Components on Supply Air Path>,<Number of Components>
! <Supply Air Path Component>,<Component Count>,<Component Type>,<Component Name>,<AirLoopHVAC Name>
! <#Outlet Nodes on Supply Air Path Component>,<Number of Nodes>
! <Supply Air Path Component Nodes>,<Node Count>,<Component Type>,<Component Name>,<Inlet Node Name>,<Outlet Node Name>,<AirLoopHVAC Name>
 Supply Air Path,1,SYS_1_MAKE-UP AIR UNIT NODE 21 SUPPLY PATH,SYS_1_MAKE-UP AIR UNIT
   #Components on Supply Air Path,1
   Supply Air Path Component,1,AIRLOOPHVAC:ZONESPLITTER,AIR LOOP HVAC ZONE SPLITTER 1,SYS_1_MAKE-UP AIR UNIT
     #Outlet Nodes on Supply Air Path Component,2
     Supply Air Path Component Nodes,1,AIRLOOPHVAC:ZONESPLITTER,AIR LOOP HVAC ZONE SPLITTER 1,NODE 21,NODE 23,SYS_1_MAKE-UP AIR UNIT
     Supply Air Path Component Nodes,2,AIRLOOPHVAC:ZONESPLITTER,AIR LOOP HVAC ZONE SPLITTER 1,NODE 21,NODE 39,SYS_1_MAKE-UP AIR UNIT
! <#Nodes on Supply Air Path>,<Number of Nodes>
! <Supply Air Path Node>,<Node Type>,<Node Count>,<Node Name>,<AirLoopHVAC Name>
#Nodes on Supply Air Path,3
   Supply Air Path Node,Inlet Node,1,NODE 21,SYS_1_MAKE-UP AIR UNIT
   Supply Air Path Node,Outlet Node,2,NODE 23,SYS_1_MAKE-UP AIR UNIT
   Supply Air Path Node,Outlet Node,3,NODE 39,SYS_1_MAKE-UP AIR UNIT
 Supply Air Path,2,SYS_3_PSZ SP-CONVENTION CENTRE EXHIBIT SPACE-SPACE FUNCTION SYS-3 FLR-1 SCH-C HPLCMT-SOUTH ZN NODE 43 SUPPLY PATH,SYS_3_PSZ SP-CONVENTION CENTRE EXHIBIT SPACE-SPACE FUNCTION SYS-3 FLR-1 SCH-C HPLCMT-SOUTH ZN
   #Components on Supply Air Path,1
   Supply Air Path Component,1,AIRLOOPHVAC:ZONESPLITTER,AIR LOOP HVAC ZONE SPLITTER 2,SYS_3_PSZ SP-CONVENTION CENTRE EXHIBIT SPACE-SPACE FUNCTION SYS-3 FLR-1 SCH-C HPLCMT-SOUTH ZN
     #Outlet Nodes on Supply Air Path Component,1
     Supply Air Path Component Nodes,1,AIRLOOPHVAC:ZONESPLITTER,AIR LOOP HVAC ZONE SPLITTER 2,NODE 43,NODE 45,SYS_3_PSZ SP-CONVENTION CENTRE EXHIBIT SPACE-SPACE FUNCTION SYS-3 FLR-1 SCH-C HPLCMT-SOUTH ZN
! <#Nodes on Supply Air Path>,<Number of Nodes>
! <Supply Air Path Node>,<Node Type>,<Node Count>,<Node Name>,<AirLoopHVAC Name>
#Nodes on Supply Air Path,2
   Supply Air Path Node,Inlet Node,1,NODE 43,SYS_3_PSZ SP-CONVENTION CENTRE EXHIBIT SPACE-SPACE FUNCTION SYS-3 FLR-1 SCH-C HPLCMT-SOUTH ZN
   Supply Air Path Node,Outlet Node,2,NODE 45,SYS_3_PSZ SP-CONVENTION CENTRE EXHIBIT SPACE-SPACE FUNCTION SYS-3 FLR-1 SCH-C HPLCMT-SOUTH ZN
 Supply Air Path,3,SYS_3_PSZ SP-DORMITORY LIVING QUARTERS-SPACE FUNCTION SYS-3 FLR-1 SCH-G HPLCMT-EAST ZN NODE 56 SUPPLY PATH,SYS_3_PSZ SP-DORMITORY LIVING QUARTERS-SPACE FUNCTION SYS-3 FLR-1 SCH-G HPLCMT-EAST ZN
   #Components on Supply Air Path,1
   Supply Air Path Component,1,AIRLOOPHVAC:ZONESPLITTER,AIR LOOP HVAC ZONE SPLITTER 3,SYS_3_PSZ SP-DORMITORY LIVING QUARTERS-SPACE FUNCTION SYS-3 FLR-1 SCH-G HPLCMT-EAST ZN
     #Outlet Nodes on Supply Air Path Component,1
     Supply Air Path Component Nodes,1,AIRLOOPHVAC:ZONESPLITTER,AIR LOOP HVAC ZONE SPLITTER 3,NODE 56,NODE 58,SYS_3_PSZ SP-DORMITORY LIVING QUARTERS-SPACE FUNCTION SYS-3 FLR-1 SCH-G HPLCMT-EAST ZN
! <#Nodes on Supply Air Path>,<Number of Nodes>
! <Supply Air Path Node>,<Node Type>,<Node Count>,<Node Name>,<AirLoopHVAC Name>
#Nodes on Supply Air Path,2
   Supply Air Path Node,Inlet Node,1,NODE 56,SYS_3_PSZ SP-DORMITORY LIVING QUARTERS-SPACE FUNCTION SYS-3 FLR-1 SCH-G HPLCMT-EAST ZN
   Supply Air Path Node,Outlet Node,2,NODE 58,SYS_3_PSZ SP-DORMITORY LIVING QUARTERS-SPACE FUNCTION SYS-3 FLR-1 SCH-G HPLCMT-EAST ZN
 Supply Air Path,4,SYS_3_PSZ SP-WORKSHOP-SPACE FUNCTION SYS-3 FLR-1 SCH-A HPLCMT-CORE ZN NODE 69 SUPPLY PATH,SYS_3_PSZ SP-WORKSHOP-SPACE FUNCTION SYS-3 FLR-1 SCH-A HPLCMT-CORE ZN
   #Components on Supply Air Path,1
   Supply Air Path Component,1,AIRLOOPHVAC:ZONESPLITTER,AIR LOOP HVAC ZONE SPLITTER 4,SYS_3_PSZ SP-WORKSHOP-SPACE FUNCTION SYS-3 FLR-1 SCH-A HPLCMT-CORE ZN
     #Outlet Nodes on Supply Air Path Component,1
     Supply Air Path Component Nodes,1,AIRLOOPHVAC:ZONESPLITTER,AIR LOOP HVAC ZONE SPLITTER 4,NODE 69,NODE 71,SYS_3_PSZ SP-WORKSHOP-SPACE FUNCTION SYS-3 FLR-1 SCH-A HPLCMT-CORE ZN
! <#Nodes on Supply Air Path>,<Number of Nodes>
! <Supply Air Path Node>,<Node Type>,<Node Count>,<Node Name>,<AirLoopHVAC Name>
#Nodes on Supply Air Path,2
   Supply Air Path Node,Inlet Node,1,NODE 69,SYS_3_PSZ SP-WORKSHOP-SPACE FUNCTION SYS-3 FLR-1 SCH-A HPLCMT-CORE ZN
   Supply Air Path Node,Outlet Node,2,NODE 71,SYS_3_PSZ SP-WORKSHOP-SPACE FUNCTION SYS-3 FLR-1 SCH-A HPLCMT-CORE ZN
! ===============================================================
! <#Return Air Paths>,<Number of Return Air Paths>
 #Return Air Paths,4
! <Return Air Path>,<Return Air Path Count>,<Return Air Path Name>,<AirLoopHVAC Name>
! <#Components on Return Air Path>,<Number of Components>
! <Return Air Path Component>,<Component Count>,<Component Type>,<Component Name>,<AirLoopHVAC Name>
! <#Inlet Nodes on Return Air Path Component>,<Number of Nodes>
! <Return Air Path Component Nodes>,<Node Count>,<Component Type>,<Component Name>,<Inlet Node Name>,<Outlet Node Name>,<AirLoopHVAC Name>
 Return Air Path,1,SYS_1_MAKE-UP AIR UNIT RETURN PATH,SYS_1_MAKE-UP AIR UNIT
   #Components on Return Air Path,1
   Return Air Path Component,1,AIRLOOPHVAC:ZONEMIXER,AIR LOOP HVAC ZONE MIXER 1,SYS_1_MAKE-UP AIR UNIT
     #Inlet Nodes on Return Air Path Component,2
     Return Air Path Component Nodes,1,AIRLOOPHVAC:ZONEMIXER,AIR LOOP HVAC ZONE MIXER 1,NODE 34,NODE 22,SYS_1_MAKE-UP AIR UNIT
     Return Air Path Component Nodes,2,AIRLOOPHVAC:ZONEMIXER,AIR LOOP HVAC ZONE MIXER 1,NODE 40,NODE 22,SYS_1_MAKE-UP AIR UNIT
! <#Nodes on Return Air Path>,<Number of Nodes>
! <Return Air Path Node>,<Node Type>,<Node Count>,<Node Name>,<AirLoopHVAC Name>
   #Nodes on Return Air Path,3
   Return Air Path Node,Outlet Node,1,NODE 22,SYS_1_MAKE-UP AIR UNIT
   Return Air Path Node,Inlet Node,2,NODE 34,SYS_1_MAKE-UP AIR UNIT
   Return Air Path Node,Inlet Node,3,NODE 40,SYS_1_MAKE-UP AIR UNIT
 Return Air Path,2,SYS_3_PSZ SP-CONVENTION CENTRE EXHIBIT SPACE-SPACE FUNCTION SYS-3 FLR-1 SCH-C HPLCMT-SOUTH ZN RETURN PATH,SYS_3_PSZ SP-CONVENTION CENTRE EXHIBIT SPACE-SPACE FUNCTION SYS-3 FLR-1 SCH-C HPLCMT-SOUTH ZN
   #Components on Return Air Path,1
   Return Air Path Component,1,AIRLOOPHVAC:ZONEMIXER,AIR LOOP HVAC ZONE MIXER 2,SYS_3_PSZ SP-CONVENTION CENTRE EXHIBIT SPACE-SPACE FUNCTION SYS-3 FLR-1 SCH-C HPLCMT-SOUTH ZN
     #Inlet Nodes on Return Air Path Component,1
     Return Air Path Component Nodes,1,AIRLOOPHVAC:ZONEMIXER,AIR LOOP HVAC ZONE MIXER 2,NODE 51,NODE 44,SYS_3_PSZ SP-CONVENTION CENTRE EXHIBIT SPACE-SPACE FUNCTION SYS-3 FLR-1 SCH-C HPLCMT-SOUTH ZN
! <#Nodes on Return Air Path>,<Number of Nodes>
! <Return Air Path Node>,<Node Type>,<Node Count>,<Node Name>,<AirLoopHVAC Name>
   #Nodes on Return Air Path,2
   Return Air Path Node,Outlet Node,1,NODE 44,SYS_3_PSZ SP-CONVENTION CENTRE EXHIBIT SPACE-SPACE FUNCTION SYS-3 FLR-1 SCH-C HPLCMT-SOUTH ZN
   Return Air Path Node,Inlet Node,2,NODE 51,SYS_3_PSZ SP-CONVENTION CENTRE EXHIBIT SPACE-SPACE FUNCTION SYS-3 FLR-1 SCH-C HPLCMT-SOUTH ZN
 Return Air Path,3,SYS_3_PSZ SP-DORMITORY LIVING QUARTERS-SPACE FUNCTION SYS-3 FLR-1 SCH-G HPLCMT-EAST ZN RETURN PATH,SYS_3_PSZ SP-DORMITORY LIVING QUARTERS-SPACE FUNCTION SYS-3 FLR-1 SCH-G HPLCMT-EAST ZN
   #Components on Return Air Path,1
   Return Air Path Component,1,AIRLOOPHVAC:ZONEMIXER,AIR LOOP HVAC ZONE MIXER 3,SYS_3_PSZ SP-DORMITORY LIVING QUARTERS-SPACE FUNCTION SYS-3 FLR-1 SCH-G HPLCMT-EAST ZN
     #Inlet Nodes on Return Air Path Component,1
     Return Air Path Component Nodes,1,AIRLOOPHVAC:ZONEMIXER,AIR LOOP HVAC ZONE MIXER 3,NODE 64,NODE 57,SYS_3_PSZ SP-DORMITORY LIVING QUARTERS-SPACE FUNCTION SYS-3 FLR-1 SCH-G HPLCMT-EAST ZN
! <#Nodes on Return Air Path>,<Number of Nodes>
! <Return Air Path Node>,<Node Type>,<Node Count>,<Node Name>,<AirLoopHVAC Name>
   #Nodes on Return Air Path,2
   Return Air Path Node,Outlet Node,1,NODE 57,SYS_3_PSZ SP-DORMITORY LIVING QUARTERS-SPACE FUNCTION SYS-3 FLR-1 SCH-G HPLCMT-EAST ZN
   Return Air Path Node,Inlet Node,2,NODE 64,SYS_3_PSZ SP-DORMITORY LIVING QUARTERS-SPACE FUNCTION SYS-3 FLR-1 SCH-G HPLCMT-EAST ZN
 Return Air Path,4,SYS_3_PSZ SP-WORKSHOP-SPACE FUNCTION SYS-3 FLR-1 SCH-A HPLCMT-CORE ZN RETURN PATH,SYS_3_PSZ SP-WORKSHOP-SPACE FUNCTION SYS-3 FLR-1 SCH-A HPLCMT-CORE ZN
   #Components on Return Air Path,1
   Return Air Path Component,1,AIRLOOPHVAC:ZONEMIXER,AIR LOOP HVAC ZONE MIXER 4,SYS_3_PSZ SP-WORKSHOP-SPACE FUNCTION SYS-3 FLR-1 SCH-A HPLCMT-CORE ZN
     #Inlet Nodes on Return Air Path Component,1
     Return Air Path Component Nodes,1,AIRLOOPHVAC:ZONEMIXER,AIR LOOP HVAC ZONE MIXER 4,NODE 77,NODE 70,SYS_3_PSZ SP-WORKSHOP-SPACE FUNCTION SYS-3 FLR-1 SCH-A HPLCMT-CORE ZN
! <#Nodes on Return Air Path>,<Number of Nodes>
! <Return Air Path Node>,<Node Type>,<Node Count>,<Node Name>,<AirLoopHVAC Name>
   #Nodes on Return Air Path,2
   Return Air Path Node,Outlet Node,1,NODE 70,SYS_3_PSZ SP-WORKSHOP-SPACE FUNCTION SYS-3 FLR-1 SCH-A HPLCMT-CORE ZN
   Return Air Path Node,Inlet Node,2,NODE 77,SYS_3_PSZ SP-WORKSHOP-SPACE FUNCTION SYS-3 FLR-1 SCH-A HPLCMT-CORE ZN
! ===============================================================
! #Outdoor Air Nodes,<Number of Outdoor Air Nodes>
 #Outdoor Air Nodes,7
! <Outdoor Air Node>,<NodeNumber>,<Node Name>
 Outdoor Air Node,102,SP-DWELLING UNITS GENERAL-SPACE FUNCTION SYS-1 FLR-1 SCH-G HPLCMT-NORTH ZN PTAC OA NODE
 Outdoor Air Node,103,SP-DWELLING UNITS LONG-TERM-SPACE FUNCTION SYS-1 FLR-1 SCH-J HPLCMT-WEST ZN PTAC OA NODE
 Outdoor Air Node,104,NODE 25
 Outdoor Air Node,105,NODE 46
 Outdoor Air Node,106,NODE 59
 Outdoor Air Node,107,NODE 72
 Outdoor Air Node,108,MODEL OUTDOOR AIR NODE
! ===============================================================
! <#Component Sets>,<Number of Component Sets>
 #Component Sets,59
! <Component Set>,<Component Set Count>,<Parent Object Type>,<Parent Object Name>,<Component Type>,<Component Name>,<Inlet Node ID>,<Outlet Node ID>,<Description>
 Component Set,1,BRANCH,SYS_1_MAKE-UP AIR UNIT MAIN BRANCH,AIRLOOPHVAC:OUTDOORAIRSYSTEM,AIR LOOP HVAC OUTDOOR AIR SYSTEM 1,NODE 19,NODE 29,Air Nodes
 Component Set,2,BRANCH,SYS_1_MAKE-UP AIR UNIT MAIN BRANCH,COILSYSTEM:COOLING:DX,COIL COOLING DX SINGLE SPEED 1 COILSYSTEM,NODE 29,NODE 28,Air Nodes
 Component Set,3,BRANCH,SYS_1_MAKE-UP AIR UNIT MAIN BRANCH,COIL:HEATING:WATER,COIL HEATING WATER 1,NODE 28,NODE 27,Air Nodes
 Component Set,4,BRANCH,SYS_1_MAKE-UP AIR UNIT MAIN BRANCH,FAN:CONSTANTVOLUME,FAN CONSTANT VOLUME 1,NODE 27,NODE 20,Air Nodes
 Component Set,5,BRANCH,SYS_3_PSZ SP-CONVENTION CENTRE EXHIBIT SPACE-SPACE FUNCTION SYS-3 FLR-1 SCH-C HPLCMT-SOUTH ZN MAIN BRANCH,AIRLOOPHVAC:OUTDOORAIRSYSTEM,AIR LOOP HVAC OUTDOOR AIR SYSTEM 2,NODE 41,NODE 50,Air Nodes
 Component Set,6,BRANCH,SYS_3_PSZ SP-CONVENTION CENTRE EXHIBIT SPACE-SPACE FUNCTION SYS-3 FLR-1 SCH-C HPLCMT-SOUTH ZN MAIN BRANCH,COILSYSTEM:COOLING:DX,COIL COOLING DX SINGLE SPEED 4 COILSYSTEM,NODE 50,NODE 49,Air Nodes
 Component Set,7,BRANCH,SYS_3_PSZ SP-CONVENTION CENTRE EXHIBIT SPACE-SPACE FUNCTION SYS-3 FLR-1 SCH-C HPLCMT-SOUTH ZN MAIN BRANCH,COIL:HEATING:FUEL,COIL HEATING GAS 1,NODE 49,NODE 48,Air Nodes
 Component Set,8,BRANCH,SYS_3_PSZ SP-CONVENTION CENTRE EXHIBIT SPACE-SPACE FUNCTION SYS-3 FLR-1 SCH-C HPLCMT-SOUTH ZN MAIN BRANCH,FAN:CONSTANTVOLUME,FAN CONSTANT VOLUME 4,NODE 48,NODE 42,Air Nodes
 Component Set,9,BRANCH,SYS_3_PSZ SP-DORMITORY LIVING QUARTERS-SPACE FUNCTION SYS-3 FLR-1 SCH-G HPLCMT-EAST ZN MAIN BRANCH,AIRLOOPHVAC:OUTDOORAIRSYSTEM,AIR LOOP HVAC OUTDOOR AIR SYSTEM 3,NODE 54,NODE 63,Air Nodes
 Component Set,10,BRANCH,SYS_3_PSZ SP-DORMITORY LIVING QUARTERS-SPACE FUNCTION SYS-3 FLR-1 SCH-G HPLCMT-EAST ZN MAIN BRANCH,COILSYSTEM:COOLING:DX,COIL COOLING DX SINGLE SPEED 5 COILSYSTEM,NODE 63,NODE 62,Air Nodes
 Component Set,11,BRANCH,SYS_3_PSZ SP-DORMITORY LIVING QUARTERS-SPACE FUNCTION SYS-3 FLR-1 SCH-G HPLCMT-EAST ZN MAIN BRANCH,COIL:HEATING:FUEL,COIL HEATING GAS 2,NODE 62,NODE 61,Air Nodes
 Component Set,12,BRANCH,SYS_3_PSZ SP-DORMITORY LIVING QUARTERS-SPACE FUNCTION SYS-3 FLR-1 SCH-G HPLCMT-EAST ZN MAIN BRANCH,FAN:CONSTANTVOLUME,FAN CONSTANT VOLUME 5,NODE 61,NODE 55,Air Nodes
 Component Set,13,BRANCH,SYS_3_PSZ SP-WORKSHOP-SPACE FUNCTION SYS-3 FLR-1 SCH-A HPLCMT-CORE ZN MAIN BRANCH,AIRLOOPHVAC:OUTDOORAIRSYSTEM,AIR LOOP HVAC OUTDOOR AIR SYSTEM 4,NODE 67,NODE 76,Air Nodes
 Component Set,14,BRANCH,SYS_3_PSZ SP-WORKSHOP-SPACE FUNCTION SYS-3 FLR-1 SCH-A HPLCMT-CORE ZN MAIN BRANCH,COILSYSTEM:COOLING:DX,COIL COOLING DX SINGLE SPEED 6 COILSYSTEM,NODE 76,NODE 75,Air Nodes
 Component Set,15,BRANCH,SYS_3_PSZ SP-WORKSHOP-SPACE FUNCTION SYS-3 FLR-1 SCH-A HPLCMT-CORE ZN MAIN BRANCH,COIL:HEATING:FUEL,COIL HEATING GAS 3,NODE 75,NODE 74,Air Nodes
 Component Set,16,BRANCH,SYS_3_PSZ SP-WORKSHOP-SPACE FUNCTION SYS-3 FLR-1 SCH-A HPLCMT-CORE ZN MAIN BRANCH,FAN:CONSTANTVOLUME,FAN CONSTANT VOLUME 6,NODE 74,NODE 68,Air Nodes
 Component Set,17,BRANCH,HOT WATER LOOP SUPPLY INLET BRANCH,PUMP:VARIABLESPEED,PUMP VARIABLE SPEED 1,NODE 6,NODE 12,Water Nodes
 Component Set,18,BRANCH,HOT WATER LOOP SUPPLY BRANCH 1,BOILER:HOTWATER,PRIMARY BOILER,NODE 8,NODE 13,Hot Water Nodes
 Component Set,19,BRANCH,HOT WATER LOOP SUPPLY BRANCH 2,BOILER:HOTWATER,SECONDARY BOILER,NODE 14,NODE 15,Hot Water Nodes
 Component Set,20,BRANCH,HOT WATER LOOP SUPPLY BRANCH 3,PIPE:ADIABATIC,PIPE ADIABATIC 1,NODE 16,NODE 17,Pipe Nodes
 Component Set,21,BRANCH,HOT WATER LOOP SUPPLY OUTLET BRANCH,PIPE:ADIABATIC,PIPE ADIABATIC 2,NODE 18,NODE 7,Pipe Nodes
 Component Set,22,BRANCH,HOT WATER LOOP DEMAND INLET BRANCH,PIPE:ADIABATIC,HOT WATER LOOP DEMAND INLET PIPE,NODE 9,HOT WATER LOOP DEMAND INLET PIPE NODE,Pipe Nodes
 Component Set,23,BRANCH,HOT WATER LOOP DEMAND BRANCH 1,COIL:HEATING:WATER,COIL HEATING WATER 1,NODE 11,NODE 24,Water Nodes
 Component Set,24,BRANCH,HOT WATER LOOP DEMAND BRANCH 2,ZONEHVAC:BASEBOARD:CONVECTIVE:WATER,ZONE HVAC BASEBOARD CONVECTIVE WATER 1,NODE 32,NODE 33,Hot Water Nodes
 Component Set,25,BRANCH,HOT WATER LOOP DEMAND BRANCH 3,ZONEHVAC:BASEBOARD:CONVECTIVE:WATER,ZONE HVAC BASEBOARD CONVECTIVE WATER 2,NODE 37,NODE 38,Hot Water Nodes
 Component Set,26,BRANCH,HOT WATER LOOP DEMAND BRANCH 4,ZONEHVAC:BASEBOARD:CONVECTIVE:WATER,ZONE HVAC BASEBOARD CONVECTIVE WATER 3,NODE 52,NODE 53,Hot Water Nodes
 Component Set,27,BRANCH,HOT WATER LOOP DEMAND BRANCH 5,ZONEHVAC:BASEBOARD:CONVECTIVE:WATER,ZONE HVAC BASEBOARD CONVECTIVE WATER 4,NODE 65,NODE 66,Hot Water Nodes
 Component Set,28,BRANCH,HOT WATER LOOP DEMAND BRANCH 6,ZONEHVAC:BASEBOARD:CONVECTIVE:WATER,ZONE HVAC BASEBOARD CONVECTIVE WATER 5,NODE 78,NODE 79,Hot Water Nodes
 Component Set,29,BRANCH,HOT WATER LOOP DEMAND BYPASS BRANCH,PIPE:ADIABATIC,HOT WATER LOOP DEMAND BYPASS PIPE,HOT WATER LOOP DEMAND BYPASS PIPE INLET NODE,HOT WATER LOOP DEMAND BYPASS PIPE OUTLET NODE,Pipe Nodes
 Component Set,30,BRANCH,HOT WATER LOOP DEMAND OUTLET BRANCH,PIPE:ADIABATIC,HOT WATER LOOP DEMAND OUTLET PIPE,HOT WATER LOOP DEMAND OUTLET PIPE NODE,NODE 10,Pipe Nodes
 Component Set,31,BRANCH,MAIN SERVICE WATER LOOP SUPPLY INLET BRANCH,PUMP:CONSTANTSPEED,SERVICE WATER LOOP PUMP,NODE 80,NODE 86,Water Nodes
 Component Set,32,BRANCH,MAIN SERVICE WATER LOOP SUPPLY BRANCH 1,WATERHEATER:MIXED,422GAL NATURALGAS WATER HEATER - 850KBTU/HR,NODE 82,NODE 87,Use Side Water Nodes
 Component Set,33,BRANCH,MAIN SERVICE WATER LOOP SUPPLY BRANCH 2,PIPE:ADIABATIC,PIPE ADIABATIC 3,NODE 88,NODE 89,Pipe Nodes
 Component Set,34,BRANCH,MAIN SERVICE WATER LOOP SUPPLY OUTLET BRANCH,PIPE:ADIABATIC,PIPE ADIABATIC 5,NODE 91,NODE 81,Pipe Nodes
 Component Set,35,BRANCH,MAIN SERVICE WATER LOOP DEMAND INLET BRANCH,PIPE:ADIABATIC,PIPE ADIABATIC 6,NODE 83,NODE 92,Pipe Nodes
 Component Set,36,BRANCH,MAIN SERVICE WATER LOOP DEMAND BRANCH 1,PIPE:ADIABATIC,PIPE ADIABATIC 4,NODE 85,NODE 90,Pipe Nodes
 Component Set,37,BRANCH,MAIN SERVICE WATER LOOP DEMAND BRANCH 2,WATERUSE:CONNECTIONS,WATER USE CONNECTIONS 1,NODE 94,NODE 95,DHW Nodes
 Component Set,38,BRANCH,MAIN SERVICE WATER LOOP DEMAND BRANCH 3,WATERUSE:CONNECTIONS,WATER USE CONNECTIONS 2,NODE 96,NODE 97,DHW Nodes
 Component Set,39,BRANCH,MAIN SERVICE WATER LOOP DEMAND BRANCH 4,WATERUSE:CONNECTIONS,WATER USE CONNECTIONS 3,NODE 98,NODE 99,DHW Nodes
 Component Set,40,BRANCH,MAIN SERVICE WATER LOOP DEMAND BRANCH 5,WATERUSE:CONNECTIONS,WATER USE CONNECTIONS 4,NODE 100,NODE 101,DHW Nodes
 Component Set,41,BRANCH,MAIN SERVICE WATER LOOP DEMAND BRANCH 6,WATERUSE:CONNECTIONS,WATER USE CONNECTIONS 5,NODE 102,NODE 103,DHW Nodes
 Component Set,42,BRANCH,MAIN SERVICE WATER LOOP DEMAND BYPASS BRANCH,PIPE:ADIABATIC,MAIN SERVICE WATER LOOP DEMAND BYPASS PIPE,MAIN SERVICE WATER LOOP DEMAND BYPASS PIPE INLET NODE,MAIN SERVICE WATER LOOP DEMAND BYPASS PIPE OUTLET NODE,Pipe Nodes
 Component Set,43,BRANCH,MAIN SERVICE WATER LOOP DEMAND OUTLET BRANCH,PIPE:ADIABATIC,PIPE ADIABATIC 7,NODE 93,NODE 84,Pipe Nodes
 Component Set,44,ZONEHVAC:PACKAGEDTERMINALAIRCONDITIONER,SP-DWELLING UNITS GENERAL-SPACE FUNCTION SYS-1 FLR-1 SCH-G HPLCMT-NORTH ZN PTAC,OUTDOORAIR:MIXER,SP-DWELLING UNITS GENERAL-SPACE FUNCTION SYS-1 FLR-1 SCH-G HPLCMT-NORTH ZN PTAC OA MIXER,SP-DWELLING UNITS GENERAL-SPACE FUNCTION SYS-1 FLR-1 SCH-G HPLCMT-NORTH ZN PTAC OA NODE,SP-DWELLING UNITS GENERAL-SPACE FUNCTION SYS-1 FLR-1 SCH-G HPLCMT-NORTH ZN PTAC MIXED AIR NODE,Air Nodes
 Component Set,45,ZONEHVAC:PACKAGEDTERMINALAIRCONDITIONER,SP-DWELLING UNITS LONG-TERM-SPACE FUNCTION SYS-1 FLR-1 SCH-J HPLCMT-WEST ZN PTAC,OUTDOORAIR:MIXER,SP-DWELLING UNITS LONG-TERM-SPACE FUNCTION SYS-1 FLR-1 SCH-J HPLCMT-WEST ZN PTAC OA MIXER,SP-DWELLING UNITS LONG-TERM-SPACE FUNCTION SYS-1 FLR-1 SCH-J HPLCMT-WEST ZN PTAC OA NODE,SP-DWELLING UNITS LONG-TERM-SPACE FUNCTION SYS-1 FLR-1 SCH-J HPLCMT-WEST ZN PTAC MIXED AIR NODE,Air Nodes
 Component Set,46,AIRLOOPHVAC:OUTDOORAIRSYSTEM,AIR LOOP HVAC OUTDOOR AIR SYSTEM 1,OUTDOORAIR:MIXER,AIR LOOP HVAC OUTDOOR AIR SYSTEM 1 OUTDOOR AIR MIXER,NODE 25,NODE 29,Air Nodes
 Component Set,47,AIRLOOPHVAC:OUTDOORAIRSYSTEM,AIR LOOP HVAC OUTDOOR AIR SYSTEM 2,OUTDOORAIR:MIXER,AIR LOOP HVAC OUTDOOR AIR SYSTEM 2 OUTDOOR AIR MIXER,NODE 46,NODE 50,Air Nodes
 Component Set,48,AIRLOOPHVAC:OUTDOORAIRSYSTEM,AIR LOOP HVAC OUTDOOR AIR SYSTEM 3,OUTDOORAIR:MIXER,AIR LOOP HVAC OUTDOOR AIR SYSTEM 3 OUTDOOR AIR MIXER,NODE 59,NODE 63,Air Nodes
 Component Set,49,AIRLOOPHVAC:OUTDOORAIRSYSTEM,AIR LOOP HVAC OUTDOOR AIR SYSTEM 4,OUTDOORAIR:MIXER,AIR LOOP HVAC OUTDOOR AIR SYSTEM 4 OUTDOOR AIR MIXER,NODE 72,NODE 76,Air Nodes
 Component Set,50,ZONEHVAC:PACKAGEDTERMINALAIRCONDITIONER,SP-DWELLING UNITS GENERAL-SPACE FUNCTION SYS-1 FLR-1 SCH-G HPLCMT-NORTH ZN PTAC,FAN:CONSTANTVOLUME,FAN CONSTANT VOLUME 2,SP-DWELLING UNITS GENERAL-SPACE FUNCTION SYS-1 FLR-1 SCH-G HPLCMT-NORTH ZN PTAC HEATING COIL OUTLET NODE,NODE 31,Air Nodes
 Component Set,51,ZONEHVAC:PACKAGEDTERMINALAIRCONDITIONER,SP-DWELLING UNITS LONG-TERM-SPACE FUNCTION SYS-1 FLR-1 SCH-J HPLCMT-WEST ZN PTAC,FAN:CONSTANTVOLUME,FAN CONSTANT VOLUME 3,SP-DWELLING UNITS LONG-TERM-SPACE FUNCTION SYS-1 FLR-1 SCH-J HPLCMT-WEST ZN PTAC HEATING COIL OUTLET NODE,NODE 36,Air Nodes
 Component Set,52,ZONEHVAC:PACKAGEDTERMINALAIRCONDITIONER,SP-DWELLING UNITS GENERAL-SPACE FUNCTION SYS-1 FLR-1 SCH-G HPLCMT-NORTH ZN PTAC,COIL:HEATING:ELECTRIC,COIL HEATING ELECTRIC 1,SP-DWELLING UNITS GENERAL-SPACE FUNCTION SYS-1 FLR-1 SCH-G HPLCMT-NORTH ZN PTAC COOLING COIL OUTLET NODE,SP-DWELLING UNITS GENERAL-SPACE FUNCTION SYS-1 FLR-1 SCH-G HPLCMT-NORTH ZN PTAC HEATING COIL OUTLET NODE,Air Nodes
 Component Set,53,ZONEHVAC:PACKAGEDTERMINALAIRCONDITIONER,SP-DWELLING UNITS LONG-TERM-SPACE FUNCTION SYS-1 FLR-1 SCH-J HPLCMT-WEST ZN PTAC,COIL:HEATING:ELECTRIC,COIL HEATING ELECTRIC 2,SP-DWELLING UNITS LONG-TERM-SPACE FUNCTION SYS-1 FLR-1 SCH-J HPLCMT-WEST ZN PTAC COOLING COIL OUTLET NODE,SP-DWELLING UNITS LONG-TERM-SPACE FUNCTION SYS-1 FLR-1 SCH-J HPLCMT-WEST ZN PTAC HEATING COIL OUTLET NODE,Air Nodes
 Component Set,54,ZONEHVAC:PACKAGEDTERMINALAIRCONDITIONER,SP-DWELLING UNITS GENERAL-SPACE FUNCTION SYS-1 FLR-1 SCH-G HPLCMT-NORTH ZN PTAC,COIL:COOLING:DX:SINGLESPEED,COIL COOLING DX SINGLE SPEED 2,SP-DWELLING UNITS GENERAL-SPACE FUNCTION SYS-1 FLR-1 SCH-G HPLCMT-NORTH ZN PTAC MIXED AIR NODE,SP-DWELLING UNITS GENERAL-SPACE FUNCTION SYS-1 FLR-1 SCH-G HPLCMT-NORTH ZN PTAC COOLING COIL OUTLET NODE,Air Nodes
 Component Set,55,ZONEHVAC:PACKAGEDTERMINALAIRCONDITIONER,SP-DWELLING UNITS LONG-TERM-SPACE FUNCTION SYS-1 FLR-1 SCH-J HPLCMT-WEST ZN PTAC,COIL:COOLING:DX:SINGLESPEED,COIL COOLING DX SINGLE SPEED 3,SP-DWELLING UNITS LONG-TERM-SPACE FUNCTION SYS-1 FLR-1 SCH-J HPLCMT-WEST ZN PTAC MIXED AIR NODE,SP-DWELLING UNITS LONG-TERM-SPACE FUNCTION SYS-1 FLR-1 SCH-J HPLCMT-WEST ZN PTAC COOLING COIL OUTLET NODE,Air Nodes
 Component Set,56,COILSYSTEM:COOLING:DX,COIL COOLING DX SINGLE SPEED 1 COILSYSTEM,COIL:COOLING:DX:SINGLESPEED,COIL COOLING DX SINGLE SPEED 1,NODE 29,NODE 28,Air Nodes
 Component Set,57,COILSYSTEM:COOLING:DX,COIL COOLING DX SINGLE SPEED 4 COILSYSTEM,COIL:COOLING:DX:SINGLESPEED,COIL COOLING DX SINGLE SPEED 4,NODE 50,NODE 49,Air Nodes
 Component Set,58,COILSYSTEM:COOLING:DX,COIL COOLING DX SINGLE SPEED 5 COILSYSTEM,COIL:COOLING:DX:SINGLESPEED,COIL COOLING DX SINGLE SPEED 5,NODE 63,NODE 62,Air Nodes
 Component Set,59,COILSYSTEM:COOLING:DX,COIL COOLING DX SINGLE SPEED 6 COILSYSTEM,COIL:COOLING:DX:SINGLESPEED,COIL COOLING DX SINGLE SPEED 6,NODE 76,NODE 75,Air Nodes
! ===============================================================
! <# Plant Loops>,<Number of Plant Loops>
 #Plant Loops,2
! <Plant Loop>,<Plant Loop Name>,<Loop Type>,<Inlet Node Name>,<Outlet Node Name>,<Branch List>,<Connector List>
! <Plant Loop Connector>,<Connector Type>,<Connector Name>,<Loop Name>,<Loop Type>,<Number of Inlets/Outlets>
! <Plant Loop Connector Branches>,<Connector Node Count>,<Connector Type>,<Connector Name>,<Inlet Branch>,<Outlet Branch>,<Loop Name>,<Loop Type>
! <Plant Loop Connector Nodes>,<Connector Node Count>,<Connector Type>,<Connector Name>,<Inlet Node>,<Outlet Node>,<Loop Name>,<Loop Type>
! <Plant Loop Supply Connection>,<Plant Loop Name>,<Supply Side Outlet Node Name>,<Demand Side Inlet Node Name>
! <Plant Loop Return Connection>,<Plant Loop Name>,<Demand Side Outlet Node Name>,<Supply Side Inlet Node Name>
 Plant Loop,HOT WATER LOOP,Demand,NODE 9,NODE 10,HOT WATER LOOP DEMAND BRANCHES,HOT WATER LOOP DEMAND CONNECTOR LIST
   Plant Loop Connector,Splitter,HOT WATER LOOP DEMAND SPLITTER,HOT WATER LOOP,Demand,7
     Plant Loop Connector Branches,1,Splitter,HOT WATER LOOP DEMAND SPLITTER,HOT WATER LOOP DEMAND INLET BRANCH,HOT WATER LOOP DEMAND BRANCH 1,HOT WATER LOOP,Demand
     Plant Loop Connector Nodes,   1,Splitter,HOT WATER LOOP DEMAND SPLITTER,HOT WATER LOOP DEMAND INLET PIPE NODE,NODE 11,HOT WATER LOOP,Demand
     Plant Loop Connector Branches,2,Splitter,HOT WATER LOOP DEMAND SPLITTER,HOT WATER LOOP DEMAND INLET BRANCH,HOT WATER LOOP DEMAND BRANCH 2,HOT WATER LOOP,Demand
     Plant Loop Connector Nodes,   2,Splitter,HOT WATER LOOP DEMAND SPLITTER,HOT WATER LOOP DEMAND INLET PIPE NODE,NODE 32,HOT WATER LOOP,Demand
     Plant Loop Connector Branches,3,Splitter,HOT WATER LOOP DEMAND SPLITTER,HOT WATER LOOP DEMAND INLET BRANCH,HOT WATER LOOP DEMAND BRANCH 3,HOT WATER LOOP,Demand
     Plant Loop Connector Nodes,   3,Splitter,HOT WATER LOOP DEMAND SPLITTER,HOT WATER LOOP DEMAND INLET PIPE NODE,NODE 37,HOT WATER LOOP,Demand
     Plant Loop Connector Branches,4,Splitter,HOT WATER LOOP DEMAND SPLITTER,HOT WATER LOOP DEMAND INLET BRANCH,HOT WATER LOOP DEMAND BRANCH 4,HOT WATER LOOP,Demand
     Plant Loop Connector Nodes,   4,Splitter,HOT WATER LOOP DEMAND SPLITTER,HOT WATER LOOP DEMAND INLET PIPE NODE,NODE 52,HOT WATER LOOP,Demand
     Plant Loop Connector Branches,5,Splitter,HOT WATER LOOP DEMAND SPLITTER,HOT WATER LOOP DEMAND INLET BRANCH,HOT WATER LOOP DEMAND BRANCH 5,HOT WATER LOOP,Demand
     Plant Loop Connector Nodes,   5,Splitter,HOT WATER LOOP DEMAND SPLITTER,HOT WATER LOOP DEMAND INLET PIPE NODE,NODE 65,HOT WATER LOOP,Demand
     Plant Loop Connector Branches,6,Splitter,HOT WATER LOOP DEMAND SPLITTER,HOT WATER LOOP DEMAND INLET BRANCH,HOT WATER LOOP DEMAND BRANCH 6,HOT WATER LOOP,Demand
     Plant Loop Connector Nodes,   6,Splitter,HOT WATER LOOP DEMAND SPLITTER,HOT WATER LOOP DEMAND INLET PIPE NODE,NODE 78,HOT WATER LOOP,Demand
     Plant Loop Connector Branches,7,Splitter,HOT WATER LOOP DEMAND SPLITTER,HOT WATER LOOP DEMAND INLET BRANCH,HOT WATER LOOP DEMAND BYPASS BRANCH,HOT WATER LOOP,Demand
     Plant Loop Connector Nodes,   7,Splitter,HOT WATER LOOP DEMAND SPLITTER,HOT WATER LOOP DEMAND INLET PIPE NODE,HOT WATER LOOP DEMAND BYPASS PIPE INLET NODE,HOT WATER LOOP,Demand
   Plant Loop Connector,Mixer,HOT WATER LOOP DEMAND MIXER,HOT WATER LOOP,Demand,7
     Plant Loop Connector Branches,1,Mixer,HOT WATER LOOP DEMAND MIXER,HOT WATER LOOP DEMAND BRANCH 1,HOT WATER LOOP DEMAND OUTLET BRANCH,HOT WATER LOOP,Demand
     Plant Loop Connector Nodes,   1,Mixer,HOT WATER LOOP DEMAND MIXER,NODE 24,HOT WATER LOOP DEMAND OUTLET PIPE NODE,HOT WATER LOOP,Demand
     Plant Loop Connector Branches,2,Mixer,HOT WATER LOOP DEMAND MIXER,HOT WATER LOOP DEMAND BRANCH 2,HOT WATER LOOP DEMAND OUTLET BRANCH,HOT WATER LOOP,Demand
     Plant Loop Connector Nodes,   2,Mixer,HOT WATER LOOP DEMAND MIXER,NODE 33,HOT WATER LOOP DEMAND OUTLET PIPE NODE,HOT WATER LOOP,Demand
     Plant Loop Connector Branches,3,Mixer,HOT WATER LOOP DEMAND MIXER,HOT WATER LOOP DEMAND BRANCH 3,HOT WATER LOOP DEMAND OUTLET BRANCH,HOT WATER LOOP,Demand
     Plant Loop Connector Nodes,   3,Mixer,HOT WATER LOOP DEMAND MIXER,NODE 38,HOT WATER LOOP DEMAND OUTLET PIPE NODE,HOT WATER LOOP,Demand
     Plant Loop Connector Branches,4,Mixer,HOT WATER LOOP DEMAND MIXER,HOT WATER LOOP DEMAND BRANCH 4,HOT WATER LOOP DEMAND OUTLET BRANCH,HOT WATER LOOP,Demand
     Plant Loop Connector Nodes,   4,Mixer,HOT WATER LOOP DEMAND MIXER,NODE 53,HOT WATER LOOP DEMAND OUTLET PIPE NODE,HOT WATER LOOP,Demand
     Plant Loop Connector Branches,5,Mixer,HOT WATER LOOP DEMAND MIXER,HOT WATER LOOP DEMAND BRANCH 5,HOT WATER LOOP DEMAND OUTLET BRANCH,HOT WATER LOOP,Demand
     Plant Loop Connector Nodes,   5,Mixer,HOT WATER LOOP DEMAND MIXER,NODE 66,HOT WATER LOOP DEMAND OUTLET PIPE NODE,HOT WATER LOOP,Demand
     Plant Loop Connector Branches,6,Mixer,HOT WATER LOOP DEMAND MIXER,HOT WATER LOOP DEMAND BRANCH 6,HOT WATER LOOP DEMAND OUTLET BRANCH,HOT WATER LOOP,Demand
     Plant Loop Connector Nodes,   6,Mixer,HOT WATER LOOP DEMAND MIXER,NODE 79,HOT WATER LOOP DEMAND OUTLET PIPE NODE,HOT WATER LOOP,Demand
     Plant Loop Connector Branches,7,Mixer,HOT WATER LOOP DEMAND MIXER,HOT WATER LOOP DEMAND BYPASS BRANCH,HOT WATER LOOP DEMAND OUTLET BRANCH,HOT WATER LOOP,Demand
     Plant Loop Connector Nodes,   7,Mixer,HOT WATER LOOP DEMAND MIXER,HOT WATER LOOP DEMAND BYPASS PIPE OUTLET NODE,HOT WATER LOOP DEMAND OUTLET PIPE NODE,HOT WATER LOOP,Demand
 Plant Loop,HOT WATER LOOP,Supply,NODE 6,NODE 7,HOT WATER LOOP SUPPLY BRANCHES,HOT WATER LOOP SUPPLY CONNECTOR LIST
   Plant Loop Connector,Splitter,HOT WATER LOOP SUPPLY SPLITTER,HOT WATER LOOP,Supply,3
     Plant Loop Connector Branches,1,Splitter,HOT WATER LOOP SUPPLY SPLITTER,HOT WATER LOOP SUPPLY INLET BRANCH,HOT WATER LOOP SUPPLY BRANCH 1,HOT WATER LOOP,Supply
     Plant Loop Connector Nodes,   1,Splitter,HOT WATER LOOP SUPPLY SPLITTER,NODE 12,NODE 8,HOT WATER LOOP,Supply
     Plant Loop Connector Branches,2,Splitter,HOT WATER LOOP SUPPLY SPLITTER,HOT WATER LOOP SUPPLY INLET BRANCH,HOT WATER LOOP SUPPLY BRANCH 2,HOT WATER LOOP,Supply
     Plant Loop Connector Nodes,   2,Splitter,HOT WATER LOOP SUPPLY SPLITTER,NODE 12,NODE 14,HOT WATER LOOP,Supply
     Plant Loop Connector Branches,3,Splitter,HOT WATER LOOP SUPPLY SPLITTER,HOT WATER LOOP SUPPLY INLET BRANCH,HOT WATER LOOP SUPPLY BRANCH 3,HOT WATER LOOP,Supply
     Plant Loop Connector Nodes,   3,Splitter,HOT WATER LOOP SUPPLY SPLITTER,NODE 12,NODE 16,HOT WATER LOOP,Supply
   Plant Loop Connector,Mixer,HOT WATER LOOP SUPPLY MIXER,HOT WATER LOOP,Supply,3
     Plant Loop Connector Branches,1,Mixer,HOT WATER LOOP SUPPLY MIXER,HOT WATER LOOP SUPPLY BRANCH 1,HOT WATER LOOP SUPPLY OUTLET BRANCH,HOT WATER LOOP,Supply
     Plant Loop Connector Nodes,   1,Mixer,HOT WATER LOOP SUPPLY MIXER,NODE 13,NODE 18,HOT WATER LOOP,Supply
     Plant Loop Connector Branches,2,Mixer,HOT WATER LOOP SUPPLY MIXER,HOT WATER LOOP SUPPLY BRANCH 2,HOT WATER LOOP SUPPLY OUTLET BRANCH,HOT WATER LOOP,Supply
     Plant Loop Connector Nodes,   2,Mixer,HOT WATER LOOP SUPPLY MIXER,NODE 15,NODE 18,HOT WATER LOOP,Supply
     Plant Loop Connector Branches,3,Mixer,HOT WATER LOOP SUPPLY MIXER,HOT WATER LOOP SUPPLY BRANCH 3,HOT WATER LOOP SUPPLY OUTLET BRANCH,HOT WATER LOOP,Supply
     Plant Loop Connector Nodes,   3,Mixer,HOT WATER LOOP SUPPLY MIXER,NODE 17,NODE 18,HOT WATER LOOP,Supply
 Plant Loop Supply Connection,HOT WATER LOOP,NODE 7,NODE 9
 Plant Loop Return Connection,HOT WATER LOOP,NODE 10,NODE 6
 Plant Loop,MAIN SERVICE WATER LOOP,Demand,NODE 83,NODE 84,MAIN SERVICE WATER LOOP DEMAND BRANCHES,MAIN SERVICE WATER LOOP DEMAND CONNECTOR LIST
   Plant Loop Connector,Splitter,MAIN SERVICE WATER LOOP DEMAND SPLITTER,MAIN SERVICE WATER LOOP,Demand,7
     Plant Loop Connector Branches,1,Splitter,MAIN SERVICE WATER LOOP DEMAND SPLITTER,MAIN SERVICE WATER LOOP DEMAND INLET BRANCH,MAIN SERVICE WATER LOOP DEMAND BRANCH 1,MAIN SERVICE WATER LOOP,Demand
     Plant Loop Connector Nodes,   1,Splitter,MAIN SERVICE WATER LOOP DEMAND SPLITTER,NODE 92,NODE 85,MAIN SERVICE WATER LOOP,Demand
     Plant Loop Connector Branches,2,Splitter,MAIN SERVICE WATER LOOP DEMAND SPLITTER,MAIN SERVICE WATER LOOP DEMAND INLET BRANCH,MAIN SERVICE WATER LOOP DEMAND BRANCH 2,MAIN SERVICE WATER LOOP,Demand
     Plant Loop Connector Nodes,   2,Splitter,MAIN SERVICE WATER LOOP DEMAND SPLITTER,NODE 92,NODE 94,MAIN SERVICE WATER LOOP,Demand
     Plant Loop Connector Branches,3,Splitter,MAIN SERVICE WATER LOOP DEMAND SPLITTER,MAIN SERVICE WATER LOOP DEMAND INLET BRANCH,MAIN SERVICE WATER LOOP DEMAND BRANCH 3,MAIN SERVICE WATER LOOP,Demand
     Plant Loop Connector Nodes,   3,Splitter,MAIN SERVICE WATER LOOP DEMAND SPLITTER,NODE 92,NODE 96,MAIN SERVICE WATER LOOP,Demand
     Plant Loop Connector Branches,4,Splitter,MAIN SERVICE WATER LOOP DEMAND SPLITTER,MAIN SERVICE WATER LOOP DEMAND INLET BRANCH,MAIN SERVICE WATER LOOP DEMAND BRANCH 4,MAIN SERVICE WATER LOOP,Demand
     Plant Loop Connector Nodes,   4,Splitter,MAIN SERVICE WATER LOOP DEMAND SPLITTER,NODE 92,NODE 98,MAIN SERVICE WATER LOOP,Demand
     Plant Loop Connector Branches,5,Splitter,MAIN SERVICE WATER LOOP DEMAND SPLITTER,MAIN SERVICE WATER LOOP DEMAND INLET BRANCH,MAIN SERVICE WATER LOOP DEMAND BRANCH 5,MAIN SERVICE WATER LOOP,Demand
     Plant Loop Connector Nodes,   5,Splitter,MAIN SERVICE WATER LOOP DEMAND SPLITTER,NODE 92,NODE 100,MAIN SERVICE WATER LOOP,Demand
     Plant Loop Connector Branches,6,Splitter,MAIN SERVICE WATER LOOP DEMAND SPLITTER,MAIN SERVICE WATER LOOP DEMAND INLET BRANCH,MAIN SERVICE WATER LOOP DEMAND BRANCH 6,MAIN SERVICE WATER LOOP,Demand
     Plant Loop Connector Nodes,   6,Splitter,MAIN SERVICE WATER LOOP DEMAND SPLITTER,NODE 92,NODE 102,MAIN SERVICE WATER LOOP,Demand
     Plant Loop Connector Branches,7,Splitter,MAIN SERVICE WATER LOOP DEMAND SPLITTER,MAIN SERVICE WATER LOOP DEMAND INLET BRANCH,MAIN SERVICE WATER LOOP DEMAND BYPASS BRANCH,MAIN SERVICE WATER LOOP,Demand
     Plant Loop Connector Nodes,   7,Splitter,MAIN SERVICE WATER LOOP DEMAND SPLITTER,NODE 92,MAIN SERVICE WATER LOOP DEMAND BYPASS PIPE INLET NODE,MAIN SERVICE WATER LOOP,Demand
   Plant Loop Connector,Mixer,MAIN SERVICE WATER LOOP DEMAND MIXER,MAIN SERVICE WATER LOOP,Demand,7
     Plant Loop Connector Branches,1,Mixer,MAIN SERVICE WATER LOOP DEMAND MIXER,MAIN SERVICE WATER LOOP DEMAND BRANCH 1,MAIN SERVICE WATER LOOP DEMAND OUTLET BRANCH,MAIN SERVICE WATER LOOP,Demand
     Plant Loop Connector Nodes,   1,Mixer,MAIN SERVICE WATER LOOP DEMAND MIXER,NODE 90,NODE 93,MAIN SERVICE WATER LOOP,Demand
     Plant Loop Connector Branches,2,Mixer,MAIN SERVICE WATER LOOP DEMAND MIXER,MAIN SERVICE WATER LOOP DEMAND BRANCH 2,MAIN SERVICE WATER LOOP DEMAND OUTLET BRANCH,MAIN SERVICE WATER LOOP,Demand
     Plant Loop Connector Nodes,   2,Mixer,MAIN SERVICE WATER LOOP DEMAND MIXER,NODE 95,NODE 93,MAIN SERVICE WATER LOOP,Demand
     Plant Loop Connector Branches,3,Mixer,MAIN SERVICE WATER LOOP DEMAND MIXER,MAIN SERVICE WATER LOOP DEMAND BRANCH 3,MAIN SERVICE WATER LOOP DEMAND OUTLET BRANCH,MAIN SERVICE WATER LOOP,Demand
     Plant Loop Connector Nodes,   3,Mixer,MAIN SERVICE WATER LOOP DEMAND MIXER,NODE 97,NODE 93,MAIN SERVICE WATER LOOP,Demand
     Plant Loop Connector Branches,4,Mixer,MAIN SERVICE WATER LOOP DEMAND MIXER,MAIN SERVICE WATER LOOP DEMAND BRANCH 4,MAIN SERVICE WATER LOOP DEMAND OUTLET BRANCH,MAIN SERVICE WATER LOOP,Demand
     Plant Loop Connector Nodes,   4,Mixer,MAIN SERVICE WATER LOOP DEMAND MIXER,NODE 99,NODE 93,MAIN SERVICE WATER LOOP,Demand
     Plant Loop Connector Branches,5,Mixer,MAIN SERVICE WATER LOOP DEMAND MIXER,MAIN SERVICE WATER LOOP DEMAND BRANCH 5,MAIN SERVICE WATER LOOP DEMAND OUTLET BRANCH,MAIN SERVICE WATER LOOP,Demand
     Plant Loop Connector Nodes,   5,Mixer,MAIN SERVICE WATER LOOP DEMAND MIXER,NODE 101,NODE 93,MAIN SERVICE WATER LOOP,Demand
     Plant Loop Connector Branches,6,Mixer,MAIN SERVICE WATER LOOP DEMAND MIXER,MAIN SERVICE WATER LOOP DEMAND BRANCH 6,MAIN SERVICE WATER LOOP DEMAND OUTLET BRANCH,MAIN SERVICE WATER LOOP,Demand
     Plant Loop Connector Nodes,   6,Mixer,MAIN SERVICE WATER LOOP DEMAND MIXER,NODE 103,NODE 93,MAIN SERVICE WATER LOOP,Demand
     Plant Loop Connector Branches,7,Mixer,MAIN SERVICE WATER LOOP DEMAND MIXER,MAIN SERVICE WATER LOOP DEMAND BYPASS BRANCH,MAIN SERVICE WATER LOOP DEMAND OUTLET BRANCH,MAIN SERVICE WATER LOOP,Demand
     Plant Loop Connector Nodes,   7,Mixer,MAIN SERVICE WATER LOOP DEMAND MIXER,MAIN SERVICE WATER LOOP DEMAND BYPASS PIPE OUTLET NODE,NODE 93,MAIN SERVICE WATER LOOP,Demand
 Plant Loop,MAIN SERVICE WATER LOOP,Supply,NODE 80,NODE 81,MAIN SERVICE WATER LOOP SUPPLY BRANCHES,MAIN SERVICE WATER LOOP SUPPLY CONNECTOR LIST
   Plant Loop Connector,Splitter,MAIN SERVICE WATER LOOP SUPPLY SPLITTER,MAIN SERVICE WATER LOOP,Supply,2
     Plant Loop Connector Branches,1,Splitter,MAIN SERVICE WATER LOOP SUPPLY SPLITTER,MAIN SERVICE WATER LOOP SUPPLY INLET BRANCH,MAIN SERVICE WATER LOOP SUPPLY BRANCH 1,MAIN SERVICE WATER LOOP,Supply
     Plant Loop Connector Nodes,   1,Splitter,MAIN SERVICE WATER LOOP SUPPLY SPLITTER,NODE 86,NODE 82,MAIN SERVICE WATER LOOP,Supply
     Plant Loop Connector Branches,2,Splitter,MAIN SERVICE WATER LOOP SUPPLY SPLITTER,MAIN SERVICE WATER LOOP SUPPLY INLET BRANCH,MAIN SERVICE WATER LOOP SUPPLY BRANCH 2,MAIN SERVICE WATER LOOP,Supply
     Plant Loop Connector Nodes,   2,Splitter,MAIN SERVICE WATER LOOP SUPPLY SPLITTER,NODE 86,NODE 88,MAIN SERVICE WATER LOOP,Supply
   Plant Loop Connector,Mixer,MAIN SERVICE WATER LOOP SUPPLY MIXER,MAIN SERVICE WATER LOOP,Supply,2
     Plant Loop Connector Branches,1,Mixer,MAIN SERVICE WATER LOOP SUPPLY MIXER,MAIN SERVICE WATER LOOP SUPPLY BRANCH 1,MAIN SERVICE WATER LOOP SUPPLY OUTLET BRANCH,MAIN SERVICE WATER LOOP,Supply
     Plant Loop Connector Nodes,   1,Mixer,MAIN SERVICE WATER LOOP SUPPLY MIXER,NODE 87,NODE 91,MAIN SERVICE WATER LOOP,Supply
     Plant Loop Connector Branches,2,Mixer,MAIN SERVICE WATER LOOP SUPPLY MIXER,MAIN SERVICE WATER LOOP SUPPLY BRANCH 2,MAIN SERVICE WATER LOOP SUPPLY OUTLET BRANCH,MAIN SERVICE WATER LOOP,Supply
     Plant Loop Connector Nodes,   2,Mixer,MAIN SERVICE WATER LOOP SUPPLY MIXER,NODE 89,NODE 91,MAIN SERVICE WATER LOOP,Supply
 Plant Loop Supply Connection,MAIN SERVICE WATER LOOP,NODE 81,NODE 83
 Plant Loop Return Connection,MAIN SERVICE WATER LOOP,NODE 84,NODE 80
! ===============================================================
! <# Condenser Loops>,<Number of Condenser Loops>
 #Condenser Loops,0
! <Condenser Loop>,<Condenser Loop Name>,<Loop Type>,<Inlet Node Name>,<Outlet Node Name>,<Branch List>,<Connector List>
! <Condenser Loop Connector>,<Connector Type>,<Connector Name>,<Loop Name>,<Loop Type>,<Number of Inlets/Outlets>
! <Condenser Loop Connector Branches>,<Connector Node Count>,<Connector Type>,<Connector Name>,<Inlet Branch>,<Outlet Branch>,<Loop Name>,<Loop Type>
! <Condenser Loop Connector Nodes>,<Connector Node Count>,<Connector Type>,<Connector Name>,<Inlet Node>,<Outlet Node>,<Loop Name>,<Loop Type>
! <Condenser Loop Supply Connection>,<Condenser Loop Name>,<Supply Side Outlet Node Name>,<Demand Side Inlet Node Name>
! <Condenser Loop Return Connection>,<Condenser Loop Name>,<Demand Side Outlet Node Name>,<Supply Side Inlet Node Name>
! ===============================================================
! <# Controlled Zones>,<Number of Controlled Zones>
 #Controlled Zones,5
! <Controlled Zone>,<Controlled Zone Name>,<Equip List Name>,<Control List Name>,<Zone Node Name>,<# Inlet Nodes>,<# Exhaust Nodes>,<# Return Nodes>
! <Controlled Zone Inlet>,<Inlet Node Count>,<Controlled Zone Name>,<Supply Air Inlet Node Name>,<SD Sys:Cooling/Heating [DD:Cooling] Inlet Node Name>,<DD Sys:Heating Inlet Node Name>
! <Controlled Zone Exhaust>,<Exhaust Node Count>,<Controlled Zone Name>,<Exhaust Air Node Name>
 Controlled Zone,SP-CONVENTION CENTRE EXHIBIT SPACE-SPACE FUNCTION SYS-3 FLR-1 SCH-C HPLCMT-SOUTH ZN,SP-CONVENTION CENTRE EXHIBIT SPACE-SPACE FUNCTION SYS-3 FLR-1 SCH-C HPLCMT-SOUTH ZN EQUIPMENT LIST,,NODE 3,1,0,1
   Controlled Zone Inlet,1,SP-CONVENTION CENTRE EXHIBIT SPACE-SPACE FUNCTION SYS-3 FLR-1 SCH-C HPLCMT-SOUTH ZN,NODE 45,NODE 45,N/A
   Controlled Zone Return,1,SP-CONVENTION CENTRE EXHIBIT SPACE-SPACE FUNCTION SYS-3 FLR-1 SCH-C HPLCMT-SOUTH ZN,NODE 51
 Controlled Zone,SP-DORMITORY LIVING QUARTERS-SPACE FUNCTION SYS-3 FLR-1 SCH-G HPLCMT-EAST ZN,SP-DORMITORY LIVING QUARTERS-SPACE FUNCTION SYS-3 FLR-1 SCH-G HPLCMT-EAST ZN EQUIPMENT LIST,,NODE 4,1,0,1
   Controlled Zone Inlet,1,SP-DORMITORY LIVING QUARTERS-SPACE FUNCTION SYS-3 FLR-1 SCH-G HPLCMT-EAST ZN,NODE 58,NODE 58,N/A
   Controlled Zone Return,1,SP-DORMITORY LIVING QUARTERS-SPACE FUNCTION SYS-3 FLR-1 SCH-G HPLCMT-EAST ZN,NODE 64
 Controlled Zone,SP-DWELLING UNITS GENERAL-SPACE FUNCTION SYS-1 FLR-1 SCH-G HPLCMT-NORTH ZN,SP-DWELLING UNITS GENERAL-SPACE FUNCTION SYS-1 FLR-1 SCH-G HPLCMT-NORTH ZN EQUIPMENT LIST,,NODE 1,2,1,1
   Controlled Zone Inlet,1,SP-DWELLING UNITS GENERAL-SPACE FUNCTION SYS-1 FLR-1 SCH-G HPLCMT-NORTH ZN,NODE 31,Undefined,N/A
   Controlled Zone Inlet,2,SP-DWELLING UNITS GENERAL-SPACE FUNCTION SYS-1 FLR-1 SCH-G HPLCMT-NORTH ZN,NODE 23,NODE 23,N/A
   Controlled Zone Exhaust,1,SP-DWELLING UNITS GENERAL-SPACE FUNCTION SYS-1 FLR-1 SCH-G HPLCMT-NORTH ZN,NODE 30
   Controlled Zone Return,1,SP-DWELLING UNITS GENERAL-SPACE FUNCTION SYS-1 FLR-1 SCH-G HPLCMT-NORTH ZN,NODE 34
 Controlled Zone,SP-DWELLING UNITS LONG-TERM-SPACE FUNCTION SYS-1 FLR-1 SCH-J HPLCMT-WEST ZN,SP-DWELLING UNITS LONG-TERM-SPACE FUNCTION SYS-1 FLR-1 SCH-J HPLCMT-WEST ZN EQUIPMENT LIST,,NODE 2,2,1,1
   Controlled Zone Inlet,1,SP-DWELLING UNITS LONG-TERM-SPACE FUNCTION SYS-1 FLR-1 SCH-J HPLCMT-WEST ZN,NODE 36,Undefined,N/A
   Controlled Zone Inlet,2,SP-DWELLING UNITS LONG-TERM-SPACE FUNCTION SYS-1 FLR-1 SCH-J HPLCMT-WEST ZN,NODE 39,NODE 39,N/A
   Controlled Zone Exhaust,1,SP-DWELLING UNITS LONG-TERM-SPACE FUNCTION SYS-1 FLR-1 SCH-J HPLCMT-WEST ZN,NODE 35
   Controlled Zone Return,1,SP-DWELLING UNITS LONG-TERM-SPACE FUNCTION SYS-1 FLR-1 SCH-J HPLCMT-WEST ZN,NODE 40
 Controlled Zone,SP-WORKSHOP-SPACE FUNCTION SYS-3 FLR-1 SCH-A HPLCMT-CORE ZN,SP-WORKSHOP-SPACE FUNCTION SYS-3 FLR-1 SCH-A HPLCMT-CORE ZN EQUIPMENT LIST,,NODE 5,1,0,1
   Controlled Zone Inlet,1,SP-WORKSHOP-SPACE FUNCTION SYS-3 FLR-1 SCH-A HPLCMT-CORE ZN,NODE 71,NODE 71,N/A
   Controlled Zone Return,1,SP-WORKSHOP-SPACE FUNCTION SYS-3 FLR-1 SCH-A HPLCMT-CORE ZN,NODE 77
! ===============================================================
! <#Zone Equipment Lists>,<Number of Zone Equipment Lists>
 #Zone Equipment Lists,5
! <Zone Equipment List>,<Zone Equipment List Count>,<Zone Equipment List Name>,<Zone Name>,<Number of Components>
! <Zone Equipment Component>,<Component Count>,<Component Type>,<Component Name>,<Zone Name>,<Heating Priority>,<Cooling Priority>
 Zone Equipment List,1,SP-CONVENTION CENTRE EXHIBIT SPACE-SPACE FUNCTION SYS-3 FLR-1 SCH-C HPLCMT-SOUTH ZN EQUIPMENT LIST,SP-CONVENTION CENTRE EXHIBIT SPACE-SPACE FUNCTION SYS-3 FLR-1 SCH-C HPLCMT-SOUTH ZN,2
   Zone Equipment Component,1,AIRTERMINAL:SINGLEDUCT:UNCONTROLLED,AIR TERMINAL SINGLE DUCT UNCONTROLLED 3,SP-CONVENTION CENTRE EXHIBIT SPACE-SPACE FUNCTION SYS-3 FLR-1 SCH-C HPLCMT-SOUTH ZN,1,1
   Zone Equipment Component,2,ZONEHVAC:BASEBOARD:CONVECTIVE:WATER,ZONE HVAC BASEBOARD CONVECTIVE WATER 3,SP-CONVENTION CENTRE EXHIBIT SPACE-SPACE FUNCTION SYS-3 FLR-1 SCH-C HPLCMT-SOUTH ZN,2,2
 Zone Equipment List,2,SP-DORMITORY LIVING QUARTERS-SPACE FUNCTION SYS-3 FLR-1 SCH-G HPLCMT-EAST ZN EQUIPMENT LIST,SP-DORMITORY LIVING QUARTERS-SPACE FUNCTION SYS-3 FLR-1 SCH-G HPLCMT-EAST ZN,2
   Zone Equipment Component,1,AIRTERMINAL:SINGLEDUCT:UNCONTROLLED,AIR TERMINAL SINGLE DUCT UNCONTROLLED 4,SP-DORMITORY LIVING QUARTERS-SPACE FUNCTION SYS-3 FLR-1 SCH-G HPLCMT-EAST ZN,1,1
   Zone Equipment Component,2,ZONEHVAC:BASEBOARD:CONVECTIVE:WATER,ZONE HVAC BASEBOARD CONVECTIVE WATER 4,SP-DORMITORY LIVING QUARTERS-SPACE FUNCTION SYS-3 FLR-1 SCH-G HPLCMT-EAST ZN,2,2
 Zone Equipment List,3,SP-DWELLING UNITS GENERAL-SPACE FUNCTION SYS-1 FLR-1 SCH-G HPLCMT-NORTH ZN EQUIPMENT LIST,SP-DWELLING UNITS GENERAL-SPACE FUNCTION SYS-1 FLR-1 SCH-G HPLCMT-NORTH ZN,3
   Zone Equipment Component,1,ZONEHVAC:PACKAGEDTERMINALAIRCONDITIONER,SP-DWELLING UNITS GENERAL-SPACE FUNCTION SYS-1 FLR-1 SCH-G HPLCMT-NORTH ZN PTAC,SP-DWELLING UNITS GENERAL-SPACE FUNCTION SYS-1 FLR-1 SCH-G HPLCMT-NORTH ZN,1,1
   Zone Equipment Component,2,ZONEHVAC:BASEBOARD:CONVECTIVE:WATER,ZONE HVAC BASEBOARD CONVECTIVE WATER 1,SP-DWELLING UNITS GENERAL-SPACE FUNCTION SYS-1 FLR-1 SCH-G HPLCMT-NORTH ZN,2,2
   Zone Equipment Component,3,AIRTERMINAL:SINGLEDUCT:UNCONTROLLED,AIR TERMINAL SINGLE DUCT UNCONTROLLED 1,SP-DWELLING UNITS GENERAL-SPACE FUNCTION SYS-1 FLR-1 SCH-G HPLCMT-NORTH ZN,3,3
 Zone Equipment List,4,SP-DWELLING UNITS LONG-TERM-SPACE FUNCTION SYS-1 FLR-1 SCH-J HPLCMT-WEST ZN EQUIPMENT LIST,SP-DWELLING UNITS LONG-TERM-SPACE FUNCTION SYS-1 FLR-1 SCH-J HPLCMT-WEST ZN,3
   Zone Equipment Component,1,ZONEHVAC:PACKAGEDTERMINALAIRCONDITIONER,SP-DWELLING UNITS LONG-TERM-SPACE FUNCTION SYS-1 FLR-1 SCH-J HPLCMT-WEST ZN PTAC,SP-DWELLING UNITS LONG-TERM-SPACE FUNCTION SYS-1 FLR-1 SCH-J HPLCMT-WEST ZN,1,1
   Zone Equipment Component,2,ZONEHVAC:BASEBOARD:CONVECTIVE:WATER,ZONE HVAC BASEBOARD CONVECTIVE WATER 2,SP-DWELLING UNITS LONG-TERM-SPACE FUNCTION SYS-1 FLR-1 SCH-J HPLCMT-WEST ZN,2,2
   Zone Equipment Component,3,AIRTERMINAL:SINGLEDUCT:UNCONTROLLED,AIR TERMINAL SINGLE DUCT UNCONTROLLED 2,SP-DWELLING UNITS LONG-TERM-SPACE FUNCTION SYS-1 FLR-1 SCH-J HPLCMT-WEST ZN,3,3
 Zone Equipment List,5,SP-WORKSHOP-SPACE FUNCTION SYS-3 FLR-1 SCH-A HPLCMT-CORE ZN EQUIPMENT LIST,SP-WORKSHOP-SPACE FUNCTION SYS-3 FLR-1 SCH-A HPLCMT-CORE ZN,2
   Zone Equipment Component,1,AIRTERMINAL:SINGLEDUCT:UNCONTROLLED,AIR TERMINAL SINGLE DUCT UNCONTROLLED 5,SP-WORKSHOP-SPACE FUNCTION SYS-3 FLR-1 SCH-A HPLCMT-CORE ZN,1,1
   Zone Equipment Component,2,ZONEHVAC:BASEBOARD:CONVECTIVE:WATER,ZONE HVAC BASEBOARD CONVECTIVE WATER 5,SP-WORKSHOP-SPACE FUNCTION SYS-3 FLR-1 SCH-A HPLCMT-CORE ZN,2,2
! ===============================================================
! <#AirLoopHVACs>,<Number of AirLoopHVACs>
 #AirLoopHVACs,4
! <AirLoopHVAC>,<Air Loop Name>,<# Return Nodes>,<# Supply Nodes>,<# Zones Cooled>,<# Zones Heated>,<Outdoor Air Used>
! <AirLoop Return Connections>,<Connection Count>,<AirLoopHVAC Name>,<Zn Eqp Return Node #>,<Zn Eqp Return Node Name>,<AirLoop Return Node #>,<Air Loop Return Node Name>
! <AirLoop Supply Connections>,<Connection Count>,<AirLoopHVAC Name>,<Zn Eqp Supply Node #>,<Zn Eqp Supply Node Name>,<AirLoop Supply Node #>,<Air Loop Supply Node Name>
! <Cooled Zone Info>,<Cooled Zone Count>,<Cooled Zone Name>,<Cooled Zone Inlet Node #>,<Cooled Zone Inlet Node Name>,<AirLoopHVAC Name>
! <Heated Zone Info>,<Heated Zone Count>,<Heated Zone Name>,<Heated Zone Inlet Node #>,<Heated Zone Inlet Node Name>,<AirLoopHVAC Name>
! <Outdoor Air Connections>,<OA Inlet Node #>,<OA Return Air Inlet Node Name>,<OA Outlet Node #>,<OA Mixed Air Outlet Node Name>,<AirLoopHVAC Name>
! <AirLoopHVAC Connector>,<Connector Type>,<Connector Name>,<Loop Name>,<Loop Type>,<Number of Inlets/Outlets>
! <AirLoopHVAC Connector Branches>,<Connector Node Count>,<Connector Type>,<Connector Name>,<Inlet Branch>,<Outlet Branch>,<Loop Name>,<Loop Type>
! <AirLoopHVAC Connector Nodes>,<Connector Node Count>,<Connector Type>,<Connector Name>,<Inlet Node>,<Outlet Node>,<Loop Name>,<Loop Type>
 AirLoopHVAC,SYS_1_MAKE-UP AIR UNIT,1,1,2,0,Yes
   AirLoop Return Connections,1,SYS_1_MAKE-UP AIR UNIT,98,NODE 22,18,NODE 19
   AirLoop Supply Connections,1,SYS_1_MAKE-UP AIR UNIT,11,NODE 21,10,NODE 20
   Cooled Zone Info,1,SP-DWELLING UNITS GENERAL-SPACE FUNCTION SYS-1 FLR-1 SCH-G HPLCMT-NORTH ZN,4,NODE 23,SYS_1_MAKE-UP AIR UNIT
   Cooled Zone Info,2,SP-DWELLING UNITS LONG-TERM-SPACE FUNCTION SYS-1 FLR-1 SCH-J HPLCMT-WEST ZN,7,NODE 39,SYS_1_MAKE-UP AIR UNIT
   Outdoor Air Connections,18,NODE 19,19,NODE 29,SYS_1_MAKE-UP AIR UNIT
 AirLoopHVAC,SYS_3_PSZ SP-CONVENTION CENTRE EXHIBIT SPACE-SPACE FUNCTION SYS-3 FLR-1 SCH-C HPLCMT-SOUTH ZN,1,1,1,0,Yes
   AirLoop Return Connections,1,SYS_3_PSZ SP-CONVENTION CENTRE EXHIBIT SPACE-SPACE FUNCTION SYS-3 FLR-1 SCH-C HPLCMT-SOUTH ZN,99,NODE 44,22,NODE 41
   AirLoop Supply Connections,1,SYS_3_PSZ SP-CONVENTION CENTRE EXHIBIT SPACE-SPACE FUNCTION SYS-3 FLR-1 SCH-C HPLCMT-SOUTH ZN,13,NODE 43,12,NODE 42
   Cooled Zone Info,1,SP-CONVENTION CENTRE EXHIBIT SPACE-SPACE FUNCTION SYS-3 FLR-1 SCH-C HPLCMT-SOUTH ZN,1,NODE 45,SYS_3_PSZ SP-CONVENTION CENTRE EXHIBIT SPACE-SPACE FUNCTION SYS-3 FLR-1 SCH-C HPLCMT-SOUTH ZN
   Outdoor Air Connections,22,NODE 41,23,NODE 50,SYS_3_PSZ SP-CONVENTION CENTRE EXHIBIT SPACE-SPACE FUNCTION SYS-3 FLR-1 SCH-C HPLCMT-SOUTH ZN
 AirLoopHVAC,SYS_3_PSZ SP-DORMITORY LIVING QUARTERS-SPACE FUNCTION SYS-3 FLR-1 SCH-G HPLCMT-EAST ZN,1,1,1,0,Yes
   AirLoop Return Connections,1,SYS_3_PSZ SP-DORMITORY LIVING QUARTERS-SPACE FUNCTION SYS-3 FLR-1 SCH-G HPLCMT-EAST ZN,100,NODE 57,26,NODE 54
   AirLoop Supply Connections,1,SYS_3_PSZ SP-DORMITORY LIVING QUARTERS-SPACE FUNCTION SYS-3 FLR-1 SCH-G HPLCMT-EAST ZN,15,NODE 56,14,NODE 55
   Cooled Zone Info,1,SP-DORMITORY LIVING QUARTERS-SPACE FUNCTION SYS-3 FLR-1 SCH-G HPLCMT-EAST ZN,2,NODE 58,SYS_3_PSZ SP-DORMITORY LIVING QUARTERS-SPACE FUNCTION SYS-3 FLR-1 SCH-G HPLCMT-EAST ZN
   Outdoor Air Connections,26,NODE 54,27,NODE 63,SYS_3_PSZ SP-DORMITORY LIVING QUARTERS-SPACE FUNCTION SYS-3 FLR-1 SCH-G HPLCMT-EAST ZN
 AirLoopHVAC,SYS_3_PSZ SP-WORKSHOP-SPACE FUNCTION SYS-3 FLR-1 SCH-A HPLCMT-CORE ZN,1,1,1,0,Yes
   AirLoop Return Connections,1,SYS_3_PSZ SP-WORKSHOP-SPACE FUNCTION SYS-3 FLR-1 SCH-A HPLCMT-CORE ZN,101,NODE 70,30,NODE 67
   AirLoop Supply Connections,1,SYS_3_PSZ SP-WORKSHOP-SPACE FUNCTION SYS-3 FLR-1 SCH-A HPLCMT-CORE ZN,17,NODE 69,16,NODE 68
   Cooled Zone Info,1,SP-WORKSHOP-SPACE FUNCTION SYS-3 FLR-1 SCH-A HPLCMT-CORE ZN,9,NODE 71,SYS_3_PSZ SP-WORKSHOP-SPACE FUNCTION SYS-3 FLR-1 SCH-A HPLCMT-CORE ZN
   Outdoor Air Connections,30,NODE 67,31,NODE 76,SYS_3_PSZ SP-WORKSHOP-SPACE FUNCTION SYS-3 FLR-1 SCH-A HPLCMT-CORE ZN
! ===============================================================
! <#Parent Node Connections>,<Number of Parent Node Connections>
 #Parent Node Connections,124
! <Parent Node Connection>,<Node Name>,<Node ObjectType>,<Node ObjectName>,<Node ConnectionType>,<Node FluidStream>
 Parent Node Connection,NODE 19,BRANCH,SYS_1_MAKE-UP AIR UNIT MAIN BRANCH,Inlet,1
 Parent Node Connection,NODE 29,BRANCH,SYS_1_MAKE-UP AIR UNIT MAIN BRANCH,Internal,1
 Parent Node Connection,NODE 28,BRANCH,SYS_1_MAKE-UP AIR UNIT MAIN BRANCH,Internal,1
 Parent Node Connection,NODE 27,BRANCH,SYS_1_MAKE-UP AIR UNIT MAIN BRANCH,Internal,1
 Parent Node Connection,NODE 20,BRANCH,SYS_1_MAKE-UP AIR UNIT MAIN BRANCH,Outlet,1
 Parent Node Connection,NODE 41,BRANCH,SYS_3_PSZ SP-CONVENTION CENTRE EXHIBIT SPACE-SPACE FUNCTION SYS-3 FLR-1 SCH-C HPLCMT-SOUTH ZN MAIN BRANCH,Inlet,1
 Parent Node Connection,NODE 50,BRANCH,SYS_3_PSZ SP-CONVENTION CENTRE EXHIBIT SPACE-SPACE FUNCTION SYS-3 FLR-1 SCH-C HPLCMT-SOUTH ZN MAIN BRANCH,Internal,1
 Parent Node Connection,NODE 49,BRANCH,SYS_3_PSZ SP-CONVENTION CENTRE EXHIBIT SPACE-SPACE FUNCTION SYS-3 FLR-1 SCH-C HPLCMT-SOUTH ZN MAIN BRANCH,Internal,1
 Parent Node Connection,NODE 48,BRANCH,SYS_3_PSZ SP-CONVENTION CENTRE EXHIBIT SPACE-SPACE FUNCTION SYS-3 FLR-1 SCH-C HPLCMT-SOUTH ZN MAIN BRANCH,Internal,1
 Parent Node Connection,NODE 42,BRANCH,SYS_3_PSZ SP-CONVENTION CENTRE EXHIBIT SPACE-SPACE FUNCTION SYS-3 FLR-1 SCH-C HPLCMT-SOUTH ZN MAIN BRANCH,Outlet,1
 Parent Node Connection,NODE 54,BRANCH,SYS_3_PSZ SP-DORMITORY LIVING QUARTERS-SPACE FUNCTION SYS-3 FLR-1 SCH-G HPLCMT-EAST ZN MAIN BRANCH,Inlet,1
 Parent Node Connection,NODE 63,BRANCH,SYS_3_PSZ SP-DORMITORY LIVING QUARTERS-SPACE FUNCTION SYS-3 FLR-1 SCH-G HPLCMT-EAST ZN MAIN BRANCH,Internal,1
 Parent Node Connection,NODE 62,BRANCH,SYS_3_PSZ SP-DORMITORY LIVING QUARTERS-SPACE FUNCTION SYS-3 FLR-1 SCH-G HPLCMT-EAST ZN MAIN BRANCH,Internal,1
 Parent Node Connection,NODE 61,BRANCH,SYS_3_PSZ SP-DORMITORY LIVING QUARTERS-SPACE FUNCTION SYS-3 FLR-1 SCH-G HPLCMT-EAST ZN MAIN BRANCH,Internal,1
 Parent Node Connection,NODE 55,BRANCH,SYS_3_PSZ SP-DORMITORY LIVING QUARTERS-SPACE FUNCTION SYS-3 FLR-1 SCH-G HPLCMT-EAST ZN MAIN BRANCH,Outlet,1
 Parent Node Connection,NODE 67,BRANCH,SYS_3_PSZ SP-WORKSHOP-SPACE FUNCTION SYS-3 FLR-1 SCH-A HPLCMT-CORE ZN MAIN BRANCH,Inlet,1
 Parent Node Connection,NODE 76,BRANCH,SYS_3_PSZ SP-WORKSHOP-SPACE FUNCTION SYS-3 FLR-1 SCH-A HPLCMT-CORE ZN MAIN BRANCH,Internal,1
 Parent Node Connection,NODE 75,BRANCH,SYS_3_PSZ SP-WORKSHOP-SPACE FUNCTION SYS-3 FLR-1 SCH-A HPLCMT-CORE ZN MAIN BRANCH,Internal,1
 Parent Node Connection,NODE 74,BRANCH,SYS_3_PSZ SP-WORKSHOP-SPACE FUNCTION SYS-3 FLR-1 SCH-A HPLCMT-CORE ZN MAIN BRANCH,Internal,1
 Parent Node Connection,NODE 68,BRANCH,SYS_3_PSZ SP-WORKSHOP-SPACE FUNCTION SYS-3 FLR-1 SCH-A HPLCMT-CORE ZN MAIN BRANCH,Outlet,1
 Parent Node Connection,NODE 6,BRANCH,HOT WATER LOOP SUPPLY INLET BRANCH,Inlet,1
 Parent Node Connection,NODE 12,BRANCH,HOT WATER LOOP SUPPLY INLET BRANCH,Outlet,1
 Parent Node Connection,NODE 8,BRANCH,HOT WATER LOOP SUPPLY BRANCH 1,Inlet,1
 Parent Node Connection,NODE 13,BRANCH,HOT WATER LOOP SUPPLY BRANCH 1,Outlet,1
 Parent Node Connection,NODE 14,BRANCH,HOT WATER LOOP SUPPLY BRANCH 2,Inlet,1
 Parent Node Connection,NODE 15,BRANCH,HOT WATER LOOP SUPPLY BRANCH 2,Outlet,1
 Parent Node Connection,NODE 16,BRANCH,HOT WATER LOOP SUPPLY BRANCH 3,Inlet,1
 Parent Node Connection,NODE 17,BRANCH,HOT WATER LOOP SUPPLY BRANCH 3,Outlet,1
 Parent Node Connection,NODE 18,BRANCH,HOT WATER LOOP SUPPLY OUTLET BRANCH,Inlet,1
 Parent Node Connection,NODE 7,BRANCH,HOT WATER LOOP SUPPLY OUTLET BRANCH,Outlet,1
 Parent Node Connection,NODE 9,BRANCH,HOT WATER LOOP DEMAND INLET BRANCH,Inlet,1
 Parent Node Connection,HOT WATER LOOP DEMAND INLET PIPE NODE,BRANCH,HOT WATER LOOP DEMAND INLET BRANCH,Outlet,1
 Parent Node Connection,NODE 11,BRANCH,HOT WATER LOOP DEMAND BRANCH 1,Inlet,1
 Parent Node Connection,NODE 24,BRANCH,HOT WATER LOOP DEMAND BRANCH 1,Outlet,1
 Parent Node Connection,NODE 32,BRANCH,HOT WATER LOOP DEMAND BRANCH 2,Inlet,1
 Parent Node Connection,NODE 33,BRANCH,HOT WATER LOOP DEMAND BRANCH 2,Outlet,1
 Parent Node Connection,NODE 37,BRANCH,HOT WATER LOOP DEMAND BRANCH 3,Inlet,1
 Parent Node Connection,NODE 38,BRANCH,HOT WATER LOOP DEMAND BRANCH 3,Outlet,1
 Parent Node Connection,NODE 52,BRANCH,HOT WATER LOOP DEMAND BRANCH 4,Inlet,1
 Parent Node Connection,NODE 53,BRANCH,HOT WATER LOOP DEMAND BRANCH 4,Outlet,1
 Parent Node Connection,NODE 65,BRANCH,HOT WATER LOOP DEMAND BRANCH 5,Inlet,1
 Parent Node Connection,NODE 66,BRANCH,HOT WATER LOOP DEMAND BRANCH 5,Outlet,1
 Parent Node Connection,NODE 78,BRANCH,HOT WATER LOOP DEMAND BRANCH 6,Inlet,1
 Parent Node Connection,NODE 79,BRANCH,HOT WATER LOOP DEMAND BRANCH 6,Outlet,1
 Parent Node Connection,HOT WATER LOOP DEMAND BYPASS PIPE INLET NODE,BRANCH,HOT WATER LOOP DEMAND BYPASS BRANCH,Inlet,1
 Parent Node Connection,HOT WATER LOOP DEMAND BYPASS PIPE OUTLET NODE,BRANCH,HOT WATER LOOP DEMAND BYPASS BRANCH,Outlet,1
 Parent Node Connection,HOT WATER LOOP DEMAND OUTLET PIPE NODE,BRANCH,HOT WATER LOOP DEMAND OUTLET BRANCH,Inlet,1
 Parent Node Connection,NODE 10,BRANCH,HOT WATER LOOP DEMAND OUTLET BRANCH,Outlet,1
 Parent Node Connection,NODE 80,BRANCH,MAIN SERVICE WATER LOOP SUPPLY INLET BRANCH,Inlet,1
 Parent Node Connection,NODE 86,BRANCH,MAIN SERVICE WATER LOOP SUPPLY INLET BRANCH,Outlet,1
 Parent Node Connection,NODE 82,BRANCH,MAIN SERVICE WATER LOOP SUPPLY BRANCH 1,Inlet,1
 Parent Node Connection,NODE 87,BRANCH,MAIN SERVICE WATER LOOP SUPPLY BRANCH 1,Outlet,1
 Parent Node Connection,NODE 88,BRANCH,MAIN SERVICE WATER LOOP SUPPLY BRANCH 2,Inlet,1
 Parent Node Connection,NODE 89,BRANCH,MAIN SERVICE WATER LOOP SUPPLY BRANCH 2,Outlet,1
 Parent Node Connection,NODE 91,BRANCH,MAIN SERVICE WATER LOOP SUPPLY OUTLET BRANCH,Inlet,1
 Parent Node Connection,NODE 81,BRANCH,MAIN SERVICE WATER LOOP SUPPLY OUTLET BRANCH,Outlet,1
 Parent Node Connection,NODE 83,BRANCH,MAIN SERVICE WATER LOOP DEMAND INLET BRANCH,Inlet,1
 Parent Node Connection,NODE 92,BRANCH,MAIN SERVICE WATER LOOP DEMAND INLET BRANCH,Outlet,1
 Parent Node Connection,NODE 85,BRANCH,MAIN SERVICE WATER LOOP DEMAND BRANCH 1,Inlet,1
 Parent Node Connection,NODE 90,BRANCH,MAIN SERVICE WATER LOOP DEMAND BRANCH 1,Outlet,1
 Parent Node Connection,NODE 94,BRANCH,MAIN SERVICE WATER LOOP DEMAND BRANCH 2,Inlet,1
 Parent Node Connection,NODE 95,BRANCH,MAIN SERVICE WATER LOOP DEMAND BRANCH 2,Outlet,1
 Parent Node Connection,NODE 96,BRANCH,MAIN SERVICE WATER LOOP DEMAND BRANCH 3,Inlet,1
 Parent Node Connection,NODE 97,BRANCH,MAIN SERVICE WATER LOOP DEMAND BRANCH 3,Outlet,1
 Parent Node Connection,NODE 98,BRANCH,MAIN SERVICE WATER LOOP DEMAND BRANCH 4,Inlet,1
 Parent Node Connection,NODE 99,BRANCH,MAIN SERVICE WATER LOOP DEMAND BRANCH 4,Outlet,1
 Parent Node Connection,NODE 100,BRANCH,MAIN SERVICE WATER LOOP DEMAND BRANCH 5,Inlet,1
 Parent Node Connection,NODE 101,BRANCH,MAIN SERVICE WATER LOOP DEMAND BRANCH 5,Outlet,1
 Parent Node Connection,NODE 102,BRANCH,MAIN SERVICE WATER LOOP DEMAND BRANCH 6,Inlet,1
 Parent Node Connection,NODE 103,BRANCH,MAIN SERVICE WATER LOOP DEMAND BRANCH 6,Outlet,1
 Parent Node Connection,MAIN SERVICE WATER LOOP DEMAND BYPASS PIPE INLET NODE,BRANCH,MAIN SERVICE WATER LOOP DEMAND BYPASS BRANCH,Inlet,1
 Parent Node Connection,MAIN SERVICE WATER LOOP DEMAND BYPASS PIPE OUTLET NODE,BRANCH,MAIN SERVICE WATER LOOP DEMAND BYPASS BRANCH,Outlet,1
 Parent Node Connection,NODE 93,BRANCH,MAIN SERVICE WATER LOOP DEMAND OUTLET BRANCH,Inlet,1
 Parent Node Connection,NODE 84,BRANCH,MAIN SERVICE WATER LOOP DEMAND OUTLET BRANCH,Outlet,1
 Parent Node Connection,NODE 21,AIRLOOPHVAC:SUPPLYPATH,SYS_1_MAKE-UP AIR UNIT NODE 21 SUPPLY PATH,Inlet,1
 Parent Node Connection,NODE 43,AIRLOOPHVAC:SUPPLYPATH,SYS_3_PSZ SP-CONVENTION CENTRE EXHIBIT SPACE-SPACE FUNCTION SYS-3 FLR-1 SCH-C HPLCMT-SOUTH ZN NODE 43 SUPPLY PATH,Inlet,1
 Parent Node Connection,NODE 56,AIRLOOPHVAC:SUPPLYPATH,SYS_3_PSZ SP-DORMITORY LIVING QUARTERS-SPACE FUNCTION SYS-3 FLR-1 SCH-G HPLCMT-EAST ZN NODE 56 SUPPLY PATH,Inlet,1
 Parent Node Connection,NODE 69,AIRLOOPHVAC:SUPPLYPATH,SYS_3_PSZ SP-WORKSHOP-SPACE FUNCTION SYS-3 FLR-1 SCH-A HPLCMT-CORE ZN NODE 69 SUPPLY PATH,Inlet,1
 Parent Node Connection,NODE 22,AIRLOOPHVAC:RETURNPATH,SYS_1_MAKE-UP AIR UNIT RETURN PATH,Outlet,1
 Parent Node Connection,NODE 44,AIRLOOPHVAC:RETURNPATH,SYS_3_PSZ SP-CONVENTION CENTRE EXHIBIT SPACE-SPACE FUNCTION SYS-3 FLR-1 SCH-C HPLCMT-SOUTH ZN RETURN PATH,Outlet,1
 Parent Node Connection,NODE 57,AIRLOOPHVAC:RETURNPATH,SYS_3_PSZ SP-DORMITORY LIVING QUARTERS-SPACE FUNCTION SYS-3 FLR-1 SCH-G HPLCMT-EAST ZN RETURN PATH,Outlet,1
 Parent Node Connection,NODE 70,AIRLOOPHVAC:RETURNPATH,SYS_3_PSZ SP-WORKSHOP-SPACE FUNCTION SYS-3 FLR-1 SCH-A HPLCMT-CORE ZN RETURN PATH,Outlet,1
 Parent Node Connection,NODE 6,PLANTLOOP,HOT WATER LOOP,Inlet,1
 Parent Node Connection,NODE 7,PLANTLOOP,HOT WATER LOOP,Outlet,1
 Parent Node Connection,NODE 9,PLANTLOOP,HOT WATER LOOP,Inlet,1
 Parent Node Connection,NODE 10,PLANTLOOP,HOT WATER LOOP,Outlet,1
 Parent Node Connection,NODE 7,PLANTLOOP,HOT WATER LOOP,Sensor,1
 Parent Node Connection,NODE 80,PLANTLOOP,MAIN SERVICE WATER LOOP,Inlet,1
 Parent Node Connection,NODE 81,PLANTLOOP,MAIN SERVICE WATER LOOP,Outlet,1
 Parent Node Connection,NODE 83,PLANTLOOP,MAIN SERVICE WATER LOOP,Inlet,1
 Parent Node Connection,NODE 84,PLANTLOOP,MAIN SERVICE WATER LOOP,Outlet,1
 Parent Node Connection,NODE 81,PLANTLOOP,MAIN SERVICE WATER LOOP,Sensor,1
 Parent Node Connection,NODE 30,ZONEHVAC:PACKAGEDTERMINALAIRCONDITIONER,SP-DWELLING UNITS GENERAL-SPACE FUNCTION SYS-1 FLR-1 SCH-G HPLCMT-NORTH ZN PTAC,Inlet,1
 Parent Node Connection,NODE 31,ZONEHVAC:PACKAGEDTERMINALAIRCONDITIONER,SP-DWELLING UNITS GENERAL-SPACE FUNCTION SYS-1 FLR-1 SCH-G HPLCMT-NORTH ZN PTAC,Outlet,1
 Parent Node Connection,NODE 35,ZONEHVAC:PACKAGEDTERMINALAIRCONDITIONER,SP-DWELLING UNITS LONG-TERM-SPACE FUNCTION SYS-1 FLR-1 SCH-J HPLCMT-WEST ZN PTAC,Inlet,1
 Parent Node Connection,NODE 36,ZONEHVAC:PACKAGEDTERMINALAIRCONDITIONER,SP-DWELLING UNITS LONG-TERM-SPACE FUNCTION SYS-1 FLR-1 SCH-J HPLCMT-WEST ZN PTAC,Outlet,1
 Parent Node Connection,NODE 19,AIRLOOPHVAC,SYS_1_MAKE-UP AIR UNIT,Inlet,1
 Parent Node Connection,NODE 22,AIRLOOPHVAC,SYS_1_MAKE-UP AIR UNIT,Outlet,1
 Parent Node Connection,NODE 21,AIRLOOPHVAC,SYS_1_MAKE-UP AIR UNIT,Inlet,1
 Parent Node Connection,NODE 20,AIRLOOPHVAC,SYS_1_MAKE-UP AIR UNIT,Outlet,1
 Parent Node Connection,NODE 41,AIRLOOPHVAC,SYS_3_PSZ SP-CONVENTION CENTRE EXHIBIT SPACE-SPACE FUNCTION SYS-3 FLR-1 SCH-C HPLCMT-SOUTH ZN,Inlet,1
 Parent Node Connection,NODE 44,AIRLOOPHVAC,SYS_3_PSZ SP-CONVENTION CENTRE EXHIBIT SPACE-SPACE FUNCTION SYS-3 FLR-1 SCH-C HPLCMT-SOUTH ZN,Outlet,1
 Parent Node Connection,NODE 43,AIRLOOPHVAC,SYS_3_PSZ SP-CONVENTION CENTRE EXHIBIT SPACE-SPACE FUNCTION SYS-3 FLR-1 SCH-C HPLCMT-SOUTH ZN,Inlet,1
 Parent Node Connection,NODE 42,AIRLOOPHVAC,SYS_3_PSZ SP-CONVENTION CENTRE EXHIBIT SPACE-SPACE FUNCTION SYS-3 FLR-1 SCH-C HPLCMT-SOUTH ZN,Outlet,1
 Parent Node Connection,NODE 54,AIRLOOPHVAC,SYS_3_PSZ SP-DORMITORY LIVING QUARTERS-SPACE FUNCTION SYS-3 FLR-1 SCH-G HPLCMT-EAST ZN,Inlet,1
 Parent Node Connection,NODE 57,AIRLOOPHVAC,SYS_3_PSZ SP-DORMITORY LIVING QUARTERS-SPACE FUNCTION SYS-3 FLR-1 SCH-G HPLCMT-EAST ZN,Outlet,1
 Parent Node Connection,NODE 56,AIRLOOPHVAC,SYS_3_PSZ SP-DORMITORY LIVING QUARTERS-SPACE FUNCTION SYS-3 FLR-1 SCH-G HPLCMT-EAST ZN,Inlet,1
 Parent Node Connection,NODE 55,AIRLOOPHVAC,SYS_3_PSZ SP-DORMITORY LIVING QUARTERS-SPACE FUNCTION SYS-3 FLR-1 SCH-G HPLCMT-EAST ZN,Outlet,1
 Parent Node Connection,NODE 67,AIRLOOPHVAC,SYS_3_PSZ SP-WORKSHOP-SPACE FUNCTION SYS-3 FLR-1 SCH-A HPLCMT-CORE ZN,Inlet,1
 Parent Node Connection,NODE 70,AIRLOOPHVAC,SYS_3_PSZ SP-WORKSHOP-SPACE FUNCTION SYS-3 FLR-1 SCH-A HPLCMT-CORE ZN,Outlet,1
 Parent Node Connection,NODE 69,AIRLOOPHVAC,SYS_3_PSZ SP-WORKSHOP-SPACE FUNCTION SYS-3 FLR-1 SCH-A HPLCMT-CORE ZN,Inlet,1
 Parent Node Connection,NODE 68,AIRLOOPHVAC,SYS_3_PSZ SP-WORKSHOP-SPACE FUNCTION SYS-3 FLR-1 SCH-A HPLCMT-CORE ZN,Outlet,1
 Parent Node Connection,NODE 29,COILSYSTEM:COOLING:DX,COIL COOLING DX SINGLE SPEED 1 COILSYSTEM,Inlet,1
 Parent Node Connection,NODE 28,COILSYSTEM:COOLING:DX,COIL COOLING DX SINGLE SPEED 1 COILSYSTEM,Outlet,1
 Parent Node Connection,NODE 28,COILSYSTEM:COOLING:DX,COIL COOLING DX SINGLE SPEED 1 COILSYSTEM,Sensor,1
 Parent Node Connection,NODE 50,COILSYSTEM:COOLING:DX,COIL COOLING DX SINGLE SPEED 4 COILSYSTEM,Inlet,1
 Parent Node Connection,NODE 49,COILSYSTEM:COOLING:DX,COIL COOLING DX SINGLE SPEED 4 COILSYSTEM,Outlet,1
 Parent Node Connection,NODE 49,COILSYSTEM:COOLING:DX,COIL COOLING DX SINGLE SPEED 4 COILSYSTEM,Sensor,1
 Parent Node Connection,NODE 63,COILSYSTEM:COOLING:DX,COIL COOLING DX SINGLE SPEED 5 COILSYSTEM,Inlet,1
 Parent Node Connection,NODE 62,COILSYSTEM:COOLING:DX,COIL COOLING DX SINGLE SPEED 5 COILSYSTEM,Outlet,1
 Parent Node Connection,NODE 62,COILSYSTEM:COOLING:DX,COIL COOLING DX SINGLE SPEED 5 COILSYSTEM,Sensor,1
 Parent Node Connection,NODE 76,COILSYSTEM:COOLING:DX,COIL COOLING DX SINGLE SPEED 6 COILSYSTEM,Inlet,1
 Parent Node Connection,NODE 75,COILSYSTEM:COOLING:DX,COIL COOLING DX SINGLE SPEED 6 COILSYSTEM,Outlet,1
 Parent Node Connection,NODE 75,COILSYSTEM:COOLING:DX,COIL COOLING DX SINGLE SPEED 6 COILSYSTEM,Sensor,1
! ===============================================================
! <#Non-Parent Node Connections>,<Number of Non-Parent Node Connections>
 #Non-Parent Node Connections,278
! <Non-Parent Node Connection>,<Node Name>,<Node ObjectType>,<Node ObjectName>,<Node ConnectionType>,<Node FluidStream>
 Non-Parent Node Connection,NODE 3,ZONEHVAC:EQUIPMENTCONNECTIONS,SP-CONVENTION CENTRE EXHIBIT SPACE-SPACE FUNCTION SYS-3 FLR-1 SCH-C HPLCMT-SOUTH ZN,ZoneNode,1
 Non-Parent Node Connection,NODE 45,ZONEHVAC:EQUIPMENTCONNECTIONS,SP-CONVENTION CENTRE EXHIBIT SPACE-SPACE FUNCTION SYS-3 FLR-1 SCH-C HPLCMT-SOUTH ZN,ZoneInlet,1
 Non-Parent Node Connection,NODE 51,ZONEHVAC:EQUIPMENTCONNECTIONS,SP-CONVENTION CENTRE EXHIBIT SPACE-SPACE FUNCTION SYS-3 FLR-1 SCH-C HPLCMT-SOUTH ZN,ZoneReturn,1
 Non-Parent Node Connection,NODE 4,ZONEHVAC:EQUIPMENTCONNECTIONS,SP-DORMITORY LIVING QUARTERS-SPACE FUNCTION SYS-3 FLR-1 SCH-G HPLCMT-EAST ZN,ZoneNode,1
 Non-Parent Node Connection,NODE 58,ZONEHVAC:EQUIPMENTCONNECTIONS,SP-DORMITORY LIVING QUARTERS-SPACE FUNCTION SYS-3 FLR-1 SCH-G HPLCMT-EAST ZN,ZoneInlet,1
 Non-Parent Node Connection,NODE 64,ZONEHVAC:EQUIPMENTCONNECTIONS,SP-DORMITORY LIVING QUARTERS-SPACE FUNCTION SYS-3 FLR-1 SCH-G HPLCMT-EAST ZN,ZoneReturn,1
 Non-Parent Node Connection,NODE 1,ZONEHVAC:EQUIPMENTCONNECTIONS,SP-DWELLING UNITS GENERAL-SPACE FUNCTION SYS-1 FLR-1 SCH-G HPLCMT-NORTH ZN,ZoneNode,1
 Non-Parent Node Connection,NODE 31,ZONEHVAC:EQUIPMENTCONNECTIONS,SP-DWELLING UNITS GENERAL-SPACE FUNCTION SYS-1 FLR-1 SCH-G HPLCMT-NORTH ZN,ZoneInlet,1
 Non-Parent Node Connection,NODE 23,ZONEHVAC:EQUIPMENTCONNECTIONS,SP-DWELLING UNITS GENERAL-SPACE FUNCTION SYS-1 FLR-1 SCH-G HPLCMT-NORTH ZN,ZoneInlet,1
 Non-Parent Node Connection,NODE 30,ZONEHVAC:EQUIPMENTCONNECTIONS,SP-DWELLING UNITS GENERAL-SPACE FUNCTION SYS-1 FLR-1 SCH-G HPLCMT-NORTH ZN,ZoneExhaust,1
 Non-Parent Node Connection,NODE 34,ZONEHVAC:EQUIPMENTCONNECTIONS,SP-DWELLING UNITS GENERAL-SPACE FUNCTION SYS-1 FLR-1 SCH-G HPLCMT-NORTH ZN,ZoneReturn,1
 Non-Parent Node Connection,NODE 2,ZONEHVAC:EQUIPMENTCONNECTIONS,SP-DWELLING UNITS LONG-TERM-SPACE FUNCTION SYS-1 FLR-1 SCH-J HPLCMT-WEST ZN,ZoneNode,1
 Non-Parent Node Connection,NODE 36,ZONEHVAC:EQUIPMENTCONNECTIONS,SP-DWELLING UNITS LONG-TERM-SPACE FUNCTION SYS-1 FLR-1 SCH-J HPLCMT-WEST ZN,ZoneInlet,1
 Non-Parent Node Connection,NODE 39,ZONEHVAC:EQUIPMENTCONNECTIONS,SP-DWELLING UNITS LONG-TERM-SPACE FUNCTION SYS-1 FLR-1 SCH-J HPLCMT-WEST ZN,ZoneInlet,1
 Non-Parent Node Connection,NODE 35,ZONEHVAC:EQUIPMENTCONNECTIONS,SP-DWELLING UNITS LONG-TERM-SPACE FUNCTION SYS-1 FLR-1 SCH-J HPLCMT-WEST ZN,ZoneExhaust,1
 Non-Parent Node Connection,NODE 40,ZONEHVAC:EQUIPMENTCONNECTIONS,SP-DWELLING UNITS LONG-TERM-SPACE FUNCTION SYS-1 FLR-1 SCH-J HPLCMT-WEST ZN,ZoneReturn,1
 Non-Parent Node Connection,NODE 5,ZONEHVAC:EQUIPMENTCONNECTIONS,SP-WORKSHOP-SPACE FUNCTION SYS-3 FLR-1 SCH-A HPLCMT-CORE ZN,ZoneNode,1
 Non-Parent Node Connection,NODE 71,ZONEHVAC:EQUIPMENTCONNECTIONS,SP-WORKSHOP-SPACE FUNCTION SYS-3 FLR-1 SCH-A HPLCMT-CORE ZN,ZoneInlet,1
 Non-Parent Node Connection,NODE 77,ZONEHVAC:EQUIPMENTCONNECTIONS,SP-WORKSHOP-SPACE FUNCTION SYS-3 FLR-1 SCH-A HPLCMT-CORE ZN,ZoneReturn,1
 Non-Parent Node Connection,NODE 82,WATERHEATER:MIXED,422GAL NATURALGAS WATER HEATER - 850KBTU/HR,Inlet,1
 Non-Parent Node Connection,NODE 87,WATERHEATER:MIXED,422GAL NATURALGAS WATER HEATER - 850KBTU/HR,Outlet,1
 Non-Parent Node Connection,SP-DWELLING UNITS GENERAL-SPACE FUNCTION SYS-1 FLR-1 SCH-G HPLCMT-NORTH ZN PTAC OA NODE,OUTDOORAIR:NODELIST,OutdoorAir:NodeList,OutdoorAir,1
 Non-Parent Node Connection,SP-DWELLING UNITS LONG-TERM-SPACE FUNCTION SYS-1 FLR-1 SCH-J HPLCMT-WEST ZN PTAC OA NODE,OUTDOORAIR:NODELIST,OutdoorAir:NodeList,OutdoorAir,2
 Non-Parent Node Connection,NODE 25,OUTDOORAIR:NODELIST,OutdoorAir:NodeList,OutdoorAir,3
 Non-Parent Node Connection,NODE 46,OUTDOORAIR:NODELIST,OutdoorAir:NodeList,OutdoorAir,4
 Non-Parent Node Connection,NODE 59,OUTDOORAIR:NODELIST,OutdoorAir:NodeList,OutdoorAir,5
 Non-Parent Node Connection,NODE 72,OUTDOORAIR:NODELIST,OutdoorAir:NodeList,OutdoorAir,6
 Non-Parent Node Connection,MODEL OUTDOOR AIR NODE,OUTDOORAIR:NODE,OutdoorAir:Node,OutdoorAir,7
 Non-Parent Node Connection,NODE 20,SETPOINTMANAGER:SCHEDULED,SETPOINT MANAGER SCHEDULED 1,Setpoint,1
 Non-Parent Node Connection,NODE 81,SETPOINTMANAGER:SCHEDULED,SERVICE HOT WATER SETPOINT MANAGER,Setpoint,1
 Non-Parent Node Connection,NODE 7,SETPOINTMANAGER:OUTDOORAIRRESET,SETPOINT MANAGER OUTDOOR AIR RESET 1,Setpoint,1
 Non-Parent Node Connection,NODE 3,SETPOINTMANAGER:SINGLEZONE:REHEAT,SETPOINT MANAGER SINGLE ZONE REHEAT 1,Sensor,1
 Non-Parent Node Connection,NODE 45,SETPOINTMANAGER:SINGLEZONE:REHEAT,SETPOINT MANAGER SINGLE ZONE REHEAT 1,Sensor,1
 Non-Parent Node Connection,NODE 42,SETPOINTMANAGER:SINGLEZONE:REHEAT,SETPOINT MANAGER SINGLE ZONE REHEAT 1,Setpoint,1
 Non-Parent Node Connection,NODE 4,SETPOINTMANAGER:SINGLEZONE:REHEAT,SETPOINT MANAGER SINGLE ZONE REHEAT 2,Sensor,1
 Non-Parent Node Connection,NODE 58,SETPOINTMANAGER:SINGLEZONE:REHEAT,SETPOINT MANAGER SINGLE ZONE REHEAT 2,Sensor,1
 Non-Parent Node Connection,NODE 55,SETPOINTMANAGER:SINGLEZONE:REHEAT,SETPOINT MANAGER SINGLE ZONE REHEAT 2,Setpoint,1
 Non-Parent Node Connection,NODE 5,SETPOINTMANAGER:SINGLEZONE:REHEAT,SETPOINT MANAGER SINGLE ZONE REHEAT 3,Sensor,1
 Non-Parent Node Connection,NODE 71,SETPOINTMANAGER:SINGLEZONE:REHEAT,SETPOINT MANAGER SINGLE ZONE REHEAT 3,Sensor,1
 Non-Parent Node Connection,NODE 68,SETPOINTMANAGER:SINGLEZONE:REHEAT,SETPOINT MANAGER SINGLE ZONE REHEAT 3,Setpoint,1
 Non-Parent Node Connection,NODE 20,SETPOINTMANAGER:MIXEDAIR,NODE 29 OS DEFAULT SPM,Sensor,1
 Non-Parent Node Connection,NODE 27,SETPOINTMANAGER:MIXEDAIR,NODE 29 OS DEFAULT SPM,Sensor,1
 Non-Parent Node Connection,NODE 29,SETPOINTMANAGER:MIXEDAIR,NODE 29 OS DEFAULT SPM,Setpoint,1
 Non-Parent Node Connection,NODE 20,SETPOINTMANAGER:MIXEDAIR,NODE 28 OS DEFAULT SPM,Sensor,1
 Non-Parent Node Connection,NODE 27,SETPOINTMANAGER:MIXEDAIR,NODE 28 OS DEFAULT SPM,Sensor,1
 Non-Parent Node Connection,NODE 28,SETPOINTMANAGER:MIXEDAIR,NODE 28 OS DEFAULT SPM,Setpoint,1
 Non-Parent Node Connection,NODE 20,SETPOINTMANAGER:MIXEDAIR,NODE 27 OS DEFAULT SPM,Sensor,1
 Non-Parent Node Connection,NODE 27,SETPOINTMANAGER:MIXEDAIR,NODE 27 OS DEFAULT SPM,Sensor,1
 Non-Parent Node Connection,NODE 27,SETPOINTMANAGER:MIXEDAIR,NODE 27 OS DEFAULT SPM,Setpoint,1
 Non-Parent Node Connection,NODE 42,SETPOINTMANAGER:MIXEDAIR,NODE 50 OS DEFAULT SPM,Sensor,1
 Non-Parent Node Connection,NODE 48,SETPOINTMANAGER:MIXEDAIR,NODE 50 OS DEFAULT SPM,Sensor,1
 Non-Parent Node Connection,NODE 50,SETPOINTMANAGER:MIXEDAIR,NODE 50 OS DEFAULT SPM,Setpoint,1
 Non-Parent Node Connection,NODE 42,SETPOINTMANAGER:MIXEDAIR,NODE 49 OS DEFAULT SPM,Sensor,1
 Non-Parent Node Connection,NODE 48,SETPOINTMANAGER:MIXEDAIR,NODE 49 OS DEFAULT SPM,Sensor,1
 Non-Parent Node Connection,NODE 49,SETPOINTMANAGER:MIXEDAIR,NODE 49 OS DEFAULT SPM,Setpoint,1
 Non-Parent Node Connection,NODE 42,SETPOINTMANAGER:MIXEDAIR,NODE 48 OS DEFAULT SPM,Sensor,1
 Non-Parent Node Connection,NODE 48,SETPOINTMANAGER:MIXEDAIR,NODE 48 OS DEFAULT SPM,Sensor,1
 Non-Parent Node Connection,NODE 48,SETPOINTMANAGER:MIXEDAIR,NODE 48 OS DEFAULT SPM,Setpoint,1
 Non-Parent Node Connection,NODE 55,SETPOINTMANAGER:MIXEDAIR,NODE 63 OS DEFAULT SPM,Sensor,1
 Non-Parent Node Connection,NODE 61,SETPOINTMANAGER:MIXEDAIR,NODE 63 OS DEFAULT SPM,Sensor,1
 Non-Parent Node Connection,NODE 63,SETPOINTMANAGER:MIXEDAIR,NODE 63 OS DEFAULT SPM,Setpoint,1
 Non-Parent Node Connection,NODE 55,SETPOINTMANAGER:MIXEDAIR,NODE 62 OS DEFAULT SPM,Sensor,1
 Non-Parent Node Connection,NODE 61,SETPOINTMANAGER:MIXEDAIR,NODE 62 OS DEFAULT SPM,Sensor,1
 Non-Parent Node Connection,NODE 62,SETPOINTMANAGER:MIXEDAIR,NODE 62 OS DEFAULT SPM,Setpoint,1
 Non-Parent Node Connection,NODE 55,SETPOINTMANAGER:MIXEDAIR,NODE 61 OS DEFAULT SPM,Sensor,1
 Non-Parent Node Connection,NODE 61,SETPOINTMANAGER:MIXEDAIR,NODE 61 OS DEFAULT SPM,Sensor,1
 Non-Parent Node Connection,NODE 61,SETPOINTMANAGER:MIXEDAIR,NODE 61 OS DEFAULT SPM,Setpoint,1
 Non-Parent Node Connection,NODE 68,SETPOINTMANAGER:MIXEDAIR,NODE 76 OS DEFAULT SPM,Sensor,1
 Non-Parent Node Connection,NODE 74,SETPOINTMANAGER:MIXEDAIR,NODE 76 OS DEFAULT SPM,Sensor,1
 Non-Parent Node Connection,NODE 76,SETPOINTMANAGER:MIXEDAIR,NODE 76 OS DEFAULT SPM,Setpoint,1
 Non-Parent Node Connection,NODE 68,SETPOINTMANAGER:MIXEDAIR,NODE 75 OS DEFAULT SPM,Sensor,1
[...]
 Non-Parent Node Connection,MAIN SERVICE WATER LOOP DEMAND BYPASS PIPE OUTLET NODE,PIPE:ADIABATIC,MAIN SERVICE WATER LOOP DEMAND BYPASS PIPE,Outlet,1
 Non-Parent Node Connection,NODE 93,PIPE:ADIABATIC,PIPE ADIABATIC 7,Inlet,1
 Non-Parent Node Connection,NODE 84,PIPE:ADIABATIC,PIPE ADIABATIC 7,Outlet,1
 Non-Parent Node Connection,HOT WATER LOOP DEMAND INLET PIPE NODE,CONNECTOR:SPLITTER,HOT WATER LOOP DEMAND SPLITTER,Inlet,1
 Non-Parent Node Connection,NODE 11,CONNECTOR:SPLITTER,HOT WATER LOOP DEMAND SPLITTER,Outlet,1
 Non-Parent Node Connection,NODE 32,CONNECTOR:SPLITTER,HOT WATER LOOP DEMAND SPLITTER,Outlet,1
 Non-Parent Node Connection,NODE 37,CONNECTOR:SPLITTER,HOT WATER LOOP DEMAND SPLITTER,Outlet,1
 Non-Parent Node Connection,NODE 52,CONNECTOR:SPLITTER,HOT WATER LOOP DEMAND SPLITTER,Outlet,1
 Non-Parent Node Connection,NODE 65,CONNECTOR:SPLITTER,HOT WATER LOOP DEMAND SPLITTER,Outlet,1
 Non-Parent Node Connection,NODE 78,CONNECTOR:SPLITTER,HOT WATER LOOP DEMAND SPLITTER,Outlet,1
 Non-Parent Node Connection,HOT WATER LOOP DEMAND BYPASS PIPE INLET NODE,CONNECTOR:SPLITTER,HOT WATER LOOP DEMAND SPLITTER,Outlet,1
 Non-Parent Node Connection,HOT WATER LOOP DEMAND OUTLET PIPE NODE,CONNECTOR:MIXER,HOT WATER LOOP DEMAND MIXER,Outlet,1
 Non-Parent Node Connection,NODE 24,CONNECTOR:MIXER,HOT WATER LOOP DEMAND MIXER,Inlet,1
 Non-Parent Node Connection,NODE 33,CONNECTOR:MIXER,HOT WATER LOOP DEMAND MIXER,Inlet,1
 Non-Parent Node Connection,NODE 38,CONNECTOR:MIXER,HOT WATER LOOP DEMAND MIXER,Inlet,1
 Non-Parent Node Connection,NODE 53,CONNECTOR:MIXER,HOT WATER LOOP DEMAND MIXER,Inlet,1
 Non-Parent Node Connection,NODE 66,CONNECTOR:MIXER,HOT WATER LOOP DEMAND MIXER,Inlet,1
 Non-Parent Node Connection,NODE 79,CONNECTOR:MIXER,HOT WATER LOOP DEMAND MIXER,Inlet,1
 Non-Parent Node Connection,HOT WATER LOOP DEMAND BYPASS PIPE OUTLET NODE,CONNECTOR:MIXER,HOT WATER LOOP DEMAND MIXER,Inlet,1
 Non-Parent Node Connection,NODE 12,CONNECTOR:SPLITTER,HOT WATER LOOP SUPPLY SPLITTER,Inlet,1
 Non-Parent Node Connection,NODE 8,CONNECTOR:SPLITTER,HOT WATER LOOP SUPPLY SPLITTER,Outlet,1
 Non-Parent Node Connection,NODE 14,CONNECTOR:SPLITTER,HOT WATER LOOP SUPPLY SPLITTER,Outlet,1
 Non-Parent Node Connection,NODE 16,CONNECTOR:SPLITTER,HOT WATER LOOP SUPPLY SPLITTER,Outlet,1
 Non-Parent Node Connection,NODE 18,CONNECTOR:MIXER,HOT WATER LOOP SUPPLY MIXER,Outlet,1
 Non-Parent Node Connection,NODE 13,CONNECTOR:MIXER,HOT WATER LOOP SUPPLY MIXER,Inlet,1
 Non-Parent Node Connection,NODE 15,CONNECTOR:MIXER,HOT WATER LOOP SUPPLY MIXER,Inlet,1
 Non-Parent Node Connection,NODE 17,CONNECTOR:MIXER,HOT WATER LOOP SUPPLY MIXER,Inlet,1
 Non-Parent Node Connection,NODE 92,CONNECTOR:SPLITTER,MAIN SERVICE WATER LOOP DEMAND SPLITTER,Inlet,1
 Non-Parent Node Connection,NODE 85,CONNECTOR:SPLITTER,MAIN SERVICE WATER LOOP DEMAND SPLITTER,Outlet,1
 Non-Parent Node Connection,NODE 94,CONNECTOR:SPLITTER,MAIN SERVICE WATER LOOP DEMAND SPLITTER,Outlet,1
 Non-Parent Node Connection,NODE 96,CONNECTOR:SPLITTER,MAIN SERVICE WATER LOOP DEMAND SPLITTER,Outlet,1
 Non-Parent Node Connection,NODE 98,CONNECTOR:SPLITTER,MAIN SERVICE WATER LOOP DEMAND SPLITTER,Outlet,1
 Non-Parent Node Connection,NODE 100,CONNECTOR:SPLITTER,MAIN SERVICE WATER LOOP DEMAND SPLITTER,Outlet,1
 Non-Parent Node Connection,NODE 102,CONNECTOR:SPLITTER,MAIN SERVICE WATER LOOP DEMAND SPLITTER,Outlet,1
 Non-Parent Node Connection,MAIN SERVICE WATER LOOP DEMAND BYPASS PIPE INLET NODE,CONNECTOR:SPLITTER,MAIN SERVICE WATER LOOP DEMAND SPLITTER,Outlet,1
 Non-Parent Node Connection,NODE 93,CONNECTOR:MIXER,MAIN SERVICE WATER LOOP DEMAND MIXER,Outlet,1
 Non-Parent Node Connection,NODE 90,CONNECTOR:MIXER,MAIN SERVICE WATER LOOP DEMAND MIXER,Inlet,1
 Non-Parent Node Connection,NODE 95,CONNECTOR:MIXER,MAIN SERVICE WATER LOOP DEMAND MIXER,Inlet,1
 Non-Parent Node Connection,NODE 97,CONNECTOR:MIXER,MAIN SERVICE WATER LOOP DEMAND MIXER,Inlet,1
 Non-Parent Node Connection,NODE 99,CONNECTOR:MIXER,MAIN SERVICE WATER LOOP DEMAND MIXER,Inlet,1
 Non-Parent Node Connection,NODE 101,CONNECTOR:MIXER,MAIN SERVICE WATER LOOP DEMAND MIXER,Inlet,1
 Non-Parent Node Connection,NODE 103,CONNECTOR:MIXER,MAIN SERVICE WATER LOOP DEMAND MIXER,Inlet,1
 Non-Parent Node Connection,MAIN SERVICE WATER LOOP DEMAND BYPASS PIPE OUTLET NODE,CONNECTOR:MIXER,MAIN SERVICE WATER LOOP DEMAND MIXER,Inlet,1
 Non-Parent Node Connection,NODE 86,CONNECTOR:SPLITTER,MAIN SERVICE WATER LOOP SUPPLY SPLITTER,Inlet,1
 Non-Parent Node Connection,NODE 82,CONNECTOR:SPLITTER,MAIN SERVICE WATER LOOP SUPPLY SPLITTER,Outlet,1
 Non-Parent Node Connection,NODE 88,CONNECTOR:SPLITTER,MAIN SERVICE WATER LOOP SUPPLY SPLITTER,Outlet,1
 Non-Parent Node Connection,NODE 91,CONNECTOR:MIXER,MAIN SERVICE WATER LOOP SUPPLY MIXER,Outlet,1
 Non-Parent Node Connection,NODE 87,CONNECTOR:MIXER,MAIN SERVICE WATER LOOP SUPPLY MIXER,Inlet,1
 Non-Parent Node Connection,NODE 89,CONNECTOR:MIXER,MAIN SERVICE WATER LOOP SUPPLY MIXER,Inlet,1
 Non-Parent Node Connection,NODE 94,WATERUSE:CONNECTIONS,WATER USE CONNECTIONS 1,Inlet,1
 Non-Parent Node Connection,NODE 95,WATERUSE:CONNECTIONS,WATER USE CONNECTIONS 1,Outlet,1
 Non-Parent Node Connection,NODE 96,WATERUSE:CONNECTIONS,WATER USE CONNECTIONS 2,Inlet,1
 Non-Parent Node Connection,NODE 97,WATERUSE:CONNECTIONS,WATER USE CONNECTIONS 2,Outlet,1
 Non-Parent Node Connection,NODE 98,WATERUSE:CONNECTIONS,WATER USE CONNECTIONS 3,Inlet,1
 Non-Parent Node Connection,NODE 99,WATERUSE:CONNECTIONS,WATER USE CONNECTIONS 3,Outlet,1
 Non-Parent Node Connection,NODE 100,WATERUSE:CONNECTIONS,WATER USE CONNECTIONS 4,Inlet,1
 Non-Parent Node Connection,NODE 101,WATERUSE:CONNECTIONS,WATER USE CONNECTIONS 4,Outlet,1
 Non-Parent Node Connection,NODE 102,WATERUSE:CONNECTIONS,WATER USE CONNECTIONS 5,Inlet,1
 Non-Parent Node Connection,NODE 103,WATERUSE:CONNECTIONS,WATER USE CONNECTIONS 5,Outlet,1
 Non-Parent Node Connection,NODE 21,AIRLOOPHVAC:ZONESPLITTER,AIR LOOP HVAC ZONE SPLITTER 1,Inlet,1
 Non-Parent Node Connection,NODE 23,AIRLOOPHVAC:ZONESPLITTER,AIR LOOP HVAC ZONE SPLITTER 1,Outlet,1
 Non-Parent Node Connection,NODE 39,AIRLOOPHVAC:ZONESPLITTER,AIR LOOP HVAC ZONE SPLITTER 1,Outlet,1
 Non-Parent Node Connection,NODE 43,AIRLOOPHVAC:ZONESPLITTER,AIR LOOP HVAC ZONE SPLITTER 2,Inlet,1
 Non-Parent Node Connection,NODE 45,AIRLOOPHVAC:ZONESPLITTER,AIR LOOP HVAC ZONE SPLITTER 2,Outlet,1
 Non-Parent Node Connection,NODE 56,AIRLOOPHVAC:ZONESPLITTER,AIR LOOP HVAC ZONE SPLITTER 3,Inlet,1
 Non-Parent Node Connection,NODE 58,AIRLOOPHVAC:ZONESPLITTER,AIR LOOP HVAC ZONE SPLITTER 3,Outlet,1
 Non-Parent Node Connection,NODE 69,AIRLOOPHVAC:ZONESPLITTER,AIR LOOP HVAC ZONE SPLITTER 4,Inlet,1
 Non-Parent Node Connection,NODE 71,AIRLOOPHVAC:ZONESPLITTER,AIR LOOP HVAC ZONE SPLITTER 4,Outlet,1
 Non-Parent Node Connection,NODE 45,AIRTERMINAL:SINGLEDUCT:UNCONTROLLED,AIR TERMINAL SINGLE DUCT UNCONTROLLED 3,Outlet,1
 Non-Parent Node Connection,NODE 58,AIRTERMINAL:SINGLEDUCT:UNCONTROLLED,AIR TERMINAL SINGLE DUCT UNCONTROLLED 4,Outlet,1
 Non-Parent Node Connection,NODE 23,AIRTERMINAL:SINGLEDUCT:UNCONTROLLED,AIR TERMINAL SINGLE DUCT UNCONTROLLED 1,Outlet,1
 Non-Parent Node Connection,NODE 39,AIRTERMINAL:SINGLEDUCT:UNCONTROLLED,AIR TERMINAL SINGLE DUCT UNCONTROLLED 2,Outlet,1
 Non-Parent Node Connection,NODE 71,AIRTERMINAL:SINGLEDUCT:UNCONTROLLED,AIR TERMINAL SINGLE DUCT UNCONTROLLED 5,Outlet,1
 Non-Parent Node Connection,NODE 52,ZONEHVAC:BASEBOARD:CONVECTIVE:WATER,ZONE HVAC BASEBOARD CONVECTIVE WATER 3,Inlet,1
 Non-Parent Node Connection,NODE 53,ZONEHVAC:BASEBOARD:CONVECTIVE:WATER,ZONE HVAC BASEBOARD CONVECTIVE WATER 3,Outlet,1
 Non-Parent Node Connection,NODE 65,ZONEHVAC:BASEBOARD:CONVECTIVE:WATER,ZONE HVAC BASEBOARD CONVECTIVE WATER 4,Inlet,1
 Non-Parent Node Connection,NODE 66,ZONEHVAC:BASEBOARD:CONVECTIVE:WATER,ZONE HVAC BASEBOARD CONVECTIVE WATER 4,Outlet,1
 Non-Parent Node Connection,NODE 32,ZONEHVAC:BASEBOARD:CONVECTIVE:WATER,ZONE HVAC BASEBOARD CONVECTIVE WATER 1,Inlet,1
 Non-Parent Node Connection,NODE 33,ZONEHVAC:BASEBOARD:CONVECTIVE:WATER,ZONE HVAC BASEBOARD CONVECTIVE WATER 1,Outlet,1
 Non-Parent Node Connection,NODE 37,ZONEHVAC:BASEBOARD:CONVECTIVE:WATER,ZONE HVAC BASEBOARD CONVECTIVE WATER 2,Inlet,1
 Non-Parent Node Connection,NODE 38,ZONEHVAC:BASEBOARD:CONVECTIVE:WATER,ZONE HVAC BASEBOARD CONVECTIVE WATER 2,Outlet,1
 Non-Parent Node Connection,NODE 78,ZONEHVAC:BASEBOARD:CONVECTIVE:WATER,ZONE HVAC BASEBOARD CONVECTIVE WATER 5,Inlet,1
 Non-Parent Node Connection,NODE 79,ZONEHVAC:BASEBOARD:CONVECTIVE:WATER,ZONE HVAC BASEBOARD CONVECTIVE WATER 5,Outlet,1
 Non-Parent Node Connection,SP-DWELLING UNITS GENERAL-SPACE FUNCTION SYS-1 FLR-1 SCH-G HPLCMT-NORTH ZN PTAC MIXED AIR NODE,OUTDOORAIR:MIXER,SP-DWELLING UNITS GENERAL-SPACE FUNCTION SYS-1 FLR-1 SCH-G HPLCMT-NORTH ZN PTAC OA MIXER,Outlet,1
 Non-Parent Node Connection,SP-DWELLING UNITS GENERAL-SPACE FUNCTION SYS-1 FLR-1 SCH-G HPLCMT-NORTH ZN PTAC OA NODE,OUTDOORAIR:MIXER,SP-DWELLING UNITS GENERAL-SPACE FUNCTION SYS-1 FLR-1 SCH-G HPLCMT-NORTH ZN PTAC OA MIXER,Inlet,1
 Non-Parent Node Connection,SP-DWELLING UNITS GENERAL-SPACE FUNCTION SYS-1 FLR-1 SCH-G HPLCMT-NORTH ZN PTAC RELIEF AIR NODE,OUTDOORAIR:MIXER,SP-DWELLING UNITS GENERAL-SPACE FUNCTION SYS-1 FLR-1 SCH-G HPLCMT-NORTH ZN PTAC OA MIXER,ReliefAir,1
 Non-Parent Node Connection,NODE 30,OUTDOORAIR:MIXER,SP-DWELLING UNITS GENERAL-SPACE FUNCTION SYS-1 FLR-1 SCH-G HPLCMT-NORTH ZN PTAC OA MIXER,Inlet,1
 Non-Parent Node Connection,SP-DWELLING UNITS LONG-TERM-SPACE FUNCTION SYS-1 FLR-1 SCH-J HPLCMT-WEST ZN PTAC MIXED AIR NODE,OUTDOORAIR:MIXER,SP-DWELLING UNITS LONG-TERM-SPACE FUNCTION SYS-1 FLR-1 SCH-J HPLCMT-WEST ZN PTAC OA MIXER,Outlet,1
 Non-Parent Node Connection,SP-DWELLING UNITS LONG-TERM-SPACE FUNCTION SYS-1 FLR-1 SCH-J HPLCMT-WEST ZN PTAC OA NODE,OUTDOORAIR:MIXER,SP-DWELLING UNITS LONG-TERM-SPACE FUNCTION SYS-1 FLR-1 SCH-J HPLCMT-WEST ZN PTAC OA MIXER,Inlet,1
 Non-Parent Node Connection,SP-DWELLING UNITS LONG-TERM-SPACE FUNCTION SYS-1 FLR-1 SCH-J HPLCMT-WEST ZN PTAC RELIEF AIR NODE,OUTDOORAIR:MIXER,SP-DWELLING UNITS LONG-TERM-SPACE FUNCTION SYS-1 FLR-1 SCH-J HPLCMT-WEST ZN PTAC OA MIXER,ReliefAir,1
 Non-Parent Node Connection,NODE 35,OUTDOORAIR:MIXER,SP-DWELLING UNITS LONG-TERM-SPACE FUNCTION SYS-1 FLR-1 SCH-J HPLCMT-WEST ZN PTAC OA MIXER,Inlet,1
 Non-Parent Node Connection,NODE 29,OUTDOORAIR:MIXER,AIR LOOP HVAC OUTDOOR AIR SYSTEM 1 OUTDOOR AIR MIXER,Outlet,1
 Non-Parent Node Connection,NODE 25,OUTDOORAIR:MIXER,AIR LOOP HVAC OUTDOOR AIR SYSTEM 1 OUTDOOR AIR MIXER,Inlet,1
 Non-Parent Node Connection,NODE 26,OUTDOORAIR:MIXER,AIR LOOP HVAC OUTDOOR AIR SYSTEM 1 OUTDOOR AIR MIXER,ReliefAir,1
 Non-Parent Node Connection,NODE 19,OUTDOORAIR:MIXER,AIR LOOP HVAC OUTDOOR AIR SYSTEM 1 OUTDOOR AIR MIXER,Inlet,1
 Non-Parent Node Connection,NODE 50,OUTDOORAIR:MIXER,AIR LOOP HVAC OUTDOOR AIR SYSTEM 2 OUTDOOR AIR MIXER,Outlet,1
 Non-Parent Node Connection,NODE 46,OUTDOORAIR:MIXER,AIR LOOP HVAC OUTDOOR AIR SYSTEM 2 OUTDOOR AIR MIXER,Inlet,1
 Non-Parent Node Connection,NODE 47,OUTDOORAIR:MIXER,AIR LOOP HVAC OUTDOOR AIR SYSTEM 2 OUTDOOR AIR MIXER,ReliefAir,1
 Non-Parent Node Connection,NODE 41,OUTDOORAIR:MIXER,AIR LOOP HVAC OUTDOOR AIR SYSTEM 2 OUTDOOR AIR MIXER,Inlet,1
 Non-Parent Node Connection,NODE 63,OUTDOORAIR:MIXER,AIR LOOP HVAC OUTDOOR AIR SYSTEM 3 OUTDOOR AIR MIXER,Outlet,1
 Non-Parent Node Connection,NODE 59,OUTDOORAIR:MIXER,AIR LOOP HVAC OUTDOOR AIR SYSTEM 3 OUTDOOR AIR MIXER,Inlet,1
 Non-Parent Node Connection,NODE 60,OUTDOORAIR:MIXER,AIR LOOP HVAC OUTDOOR AIR SYSTEM 3 OUTDOOR AIR MIXER,ReliefAir,1
 Non-Parent Node Connection,NODE 54,OUTDOORAIR:MIXER,AIR LOOP HVAC OUTDOOR AIR SYSTEM 3 OUTDOOR AIR MIXER,Inlet,1
 Non-Parent Node Connection,NODE 76,OUTDOORAIR:MIXER,AIR LOOP HVAC OUTDOOR AIR SYSTEM 4 OUTDOOR AIR MIXER,Outlet,1
 Non-Parent Node Connection,NODE 72,OUTDOORAIR:MIXER,AIR LOOP HVAC OUTDOOR AIR SYSTEM 4 OUTDOOR AIR MIXER,Inlet,1
 Non-Parent Node Connection,NODE 73,OUTDOORAIR:MIXER,AIR LOOP HVAC OUTDOOR AIR SYSTEM 4 OUTDOOR AIR MIXER,ReliefAir,1
 Non-Parent Node Connection,NODE 67,OUTDOORAIR:MIXER,AIR LOOP HVAC OUTDOOR AIR SYSTEM 4 OUTDOOR AIR MIXER,Inlet,1
 Non-Parent Node Connection,SP-DWELLING UNITS GENERAL-SPACE FUNCTION SYS-1 FLR-1 SCH-G HPLCMT-NORTH ZN PTAC HEATING COIL OUTLET NODE,FAN:CONSTANTVOLUME,FAN CONSTANT VOLUME 2,Inlet,1
 Non-Parent Node Connection,NODE 31,FAN:CONSTANTVOLUME,FAN CONSTANT VOLUME 2,Outlet,1
 Non-Parent Node Connection,SP-DWELLING UNITS LONG-TERM-SPACE FUNCTION SYS-1 FLR-1 SCH-J HPLCMT-WEST ZN PTAC HEATING COIL OUTLET NODE,FAN:CONSTANTVOLUME,FAN CONSTANT VOLUME 3,Inlet,1
 Non-Parent Node Connection,NODE 36,FAN:CONSTANTVOLUME,FAN CONSTANT VOLUME 3,Outlet,1
 Non-Parent Node Connection,NODE 27,FAN:CONSTANTVOLUME,FAN CONSTANT VOLUME 1,Inlet,1
 Non-Parent Node Connection,NODE 20,FAN:CONSTANTVOLUME,FAN CONSTANT VOLUME 1,Outlet,1
 Non-Parent Node Connection,NODE 48,FAN:CONSTANTVOLUME,FAN CONSTANT VOLUME 4,Inlet,1
 Non-Parent Node Connection,NODE 42,FAN:CONSTANTVOLUME,FAN CONSTANT VOLUME 4,Outlet,1
 Non-Parent Node Connection,NODE 61,FAN:CONSTANTVOLUME,FAN CONSTANT VOLUME 5,Inlet,1
 Non-Parent Node Connection,NODE 55,FAN:CONSTANTVOLUME,FAN CONSTANT VOLUME 5,Outlet,1
 Non-Parent Node Connection,NODE 74,FAN:CONSTANTVOLUME,FAN CONSTANT VOLUME 6,Inlet,1
 Non-Parent Node Connection,NODE 68,FAN:CONSTANTVOLUME,FAN CONSTANT VOLUME 6,Outlet,1
 Non-Parent Node Connection,SP-DWELLING UNITS GENERAL-SPACE FUNCTION SYS-1 FLR-1 SCH-G HPLCMT-NORTH ZN PTAC COOLING COIL OUTLET NODE,COIL:HEATING:ELECTRIC,COIL HEATING ELECTRIC 1,Inlet,1
 Non-Parent Node Connection,SP-DWELLING UNITS GENERAL-SPACE FUNCTION SYS-1 FLR-1 SCH-G HPLCMT-NORTH ZN PTAC HEATING COIL OUTLET NODE,COIL:HEATING:ELECTRIC,COIL HEATING ELECTRIC 1,Outlet,1
 Non-Parent Node Connection,SP-DWELLING UNITS LONG-TERM-SPACE FUNCTION SYS-1 FLR-1 SCH-J HPLCMT-WEST ZN PTAC COOLING COIL OUTLET NODE,COIL:HEATING:ELECTRIC,COIL HEATING ELECTRIC 2,Inlet,1
 Non-Parent Node Connection,SP-DWELLING UNITS LONG-TERM-SPACE FUNCTION SYS-1 FLR-1 SCH-J HPLCMT-WEST ZN PTAC HEATING COIL OUTLET NODE,COIL:HEATING:ELECTRIC,COIL HEATING ELECTRIC 2,Outlet,1
 Non-Parent Node Connection,NODE 49,COIL:HEATING:FUEL,COIL HEATING GAS 1,Inlet,1
 Non-Parent Node Connection,NODE 48,COIL:HEATING:FUEL,COIL HEATING GAS 1,Outlet,1
 Non-Parent Node Connection,NODE 48,COIL:HEATING:FUEL,COIL HEATING GAS 1,Sensor,1
 Non-Parent Node Connection,NODE 62,COIL:HEATING:FUEL,COIL HEATING GAS 2,Inlet,1
 Non-Parent Node Connection,NODE 61,COIL:HEATING:FUEL,COIL HEATING GAS 2,Outlet,1
 Non-Parent Node Connection,NODE 61,COIL:HEATING:FUEL,COIL HEATING GAS 2,Sensor,1
 Non-Parent Node Connection,NODE 75,COIL:HEATING:FUEL,COIL HEATING GAS 3,Inlet,1
 Non-Parent Node Connection,NODE 74,COIL:HEATING:FUEL,COIL HEATING GAS 3,Outlet,1
 Non-Parent Node Connection,NODE 74,COIL:HEATING:FUEL,COIL HEATING GAS 3,Sensor,1
 Non-Parent Node Connection,SP-DWELLING UNITS GENERAL-SPACE FUNCTION SYS-1 FLR-1 SCH-G HPLCMT-NORTH ZN PTAC MIXED AIR NODE,COIL:COOLING:DX:SINGLESPEED,COIL COOLING DX SINGLE SPEED 2,Inlet,1
 Non-Parent Node Connection,SP-DWELLING UNITS GENERAL-SPACE FUNCTION SYS-1 FLR-1 SCH-G HPLCMT-NORTH ZN PTAC COOLING COIL OUTLET NODE,COIL:COOLING:DX:SINGLESPEED,COIL COOLING DX SINGLE SPEED 2,Outlet,1
 Non-Parent Node Connection,SP-DWELLING UNITS LONG-TERM-SPACE FUNCTION SYS-1 FLR-1 SCH-J HPLCMT-WEST ZN PTAC MIXED AIR NODE,COIL:COOLING:DX:SINGLESPEED,COIL COOLING DX SINGLE SPEED 3,Inlet,1
 Non-Parent Node Connection,SP-DWELLING UNITS LONG-TERM-SPACE FUNCTION SYS-1 FLR-1 SCH-J HPLCMT-WEST ZN PTAC COOLING COIL OUTLET NODE,COIL:COOLING:DX:SINGLESPEED,COIL COOLING DX SINGLE SPEED 3,Outlet,1
 Non-Parent Node Connection,NODE 29,COIL:COOLING:DX:SINGLESPEED,COIL COOLING DX SINGLE SPEED 1,Inlet,1
 Non-Parent Node Connection,NODE 28,COIL:COOLING:DX:SINGLESPEED,COIL COOLING DX SINGLE SPEED 1,Outlet,1
 Non-Parent Node Connection,NODE 50,COIL:COOLING:DX:SINGLESPEED,COIL COOLING DX SINGLE SPEED 4,Inlet,1
 Non-Parent Node Connection,NODE 49,COIL:COOLING:DX:SINGLESPEED,COIL COOLING DX SINGLE SPEED 4,Outlet,1
 Non-Parent Node Connection,NODE 63,COIL:COOLING:DX:SINGLESPEED,COIL COOLING DX SINGLE SPEED 5,Inlet,1
 Non-Parent Node Connection,NODE 62,COIL:COOLING:DX:SINGLESPEED,COIL COOLING DX SINGLE SPEED 5,Outlet,1
 Non-Parent Node Connection,NODE 76,COIL:COOLING:DX:SINGLESPEED,COIL COOLING DX SINGLE SPEED 6,Inlet,1
 Non-Parent Node Connection,NODE 75,COIL:COOLING:DX:SINGLESPEED,COIL COOLING DX SINGLE SPEED 6,Outlet,1
 Non-Parent Node Connection,NODE 22,AIRLOOPHVAC:ZONEMIXER,AIR LOOP HVAC ZONE MIXER 1,Outlet,1
 Non-Parent Node Connection,NODE 34,AIRLOOPHVAC:ZONEMIXER,AIR LOOP HVAC ZONE MIXER 1,Inlet,1
 Non-Parent Node Connection,NODE 40,AIRLOOPHVAC:ZONEMIXER,AIR LOOP HVAC ZONE MIXER 1,Inlet,1
 Non-Parent Node Connection,NODE 44,AIRLOOPHVAC:ZONEMIXER,AIR LOOP HVAC ZONE MIXER 2,Outlet,1
 Non-Parent Node Connection,NODE 51,AIRLOOPHVAC:ZONEMIXER,AIR LOOP HVAC ZONE MIXER 2,Inlet,1
 Non-Parent Node Connection,NODE 57,AIRLOOPHVAC:ZONEMIXER,AIR LOOP HVAC ZONE MIXER 3,Outlet,1
 Non-Parent Node Connection,NODE 64,AIRLOOPHVAC:ZONEMIXER,AIR LOOP HVAC ZONE MIXER 3,Inlet,1
 Non-Parent Node Connection,NODE 70,AIRLOOPHVAC:ZONEMIXER,AIR LOOP HVAC ZONE MIXER 4,Outlet,1
 Non-Parent Node Connection,NODE 77,AIRLOOPHVAC:ZONEMIXER,AIR LOOP HVAC ZONE MIXER 4,Inlet,1
 Non-Parent Node Connection,NODE 11,COIL:HEATING:WATER,COIL HEATING WATER 1,Inlet,2
 Non-Parent Node Connection,NODE 24,COIL:HEATING:WATER,COIL HEATING WATER 1,Outlet,2
 Non-Parent Node Connection,NODE 28,COIL:HEATING:WATER,COIL HEATING WATER 1,Inlet,1
 Non-Parent Node Connection,NODE 27,COIL:HEATING:WATER,COIL HEATING WATER 1,Outlet,1
 Non-Parent Node Connection,NODE 27,CONTROLLER:WATERCOIL,CONTROLLER WATER COIL 1,Sensor,1
 Non-Parent Node Connection,NODE 11,CONTROLLER:WATERCOIL,CONTROLLER WATER COIL 1,Actuator,1
 Non-Parent Node Connection,NODE 29,CONTROLLER:OUTDOORAIR,CONTROLLER OUTDOOR AIR 1,Sensor,1
 Non-Parent Node Connection,NODE 25,CONTROLLER:OUTDOORAIR,CONTROLLER OUTDOOR AIR 1,Actuator,1
 Non-Parent Node Connection,NODE 26,CONTROLLER:OUTDOORAIR,CONTROLLER OUTDOOR AIR 1,Actuator,1
 Non-Parent Node Connection,NODE 19,CONTROLLER:OUTDOORAIR,CONTROLLER OUTDOOR AIR 1,Sensor,1
 Non-Parent Node Connection,NODE 50,CONTROLLER:OUTDOORAIR,CONTROLLER OUTDOOR AIR 2,Sensor,1
 Non-Parent Node Connection,NODE 46,CONTROLLER:OUTDOORAIR,CONTROLLER OUTDOOR AIR 2,Actuator,1
 Non-Parent Node Connection,NODE 47,CONTROLLER:OUTDOORAIR,CONTROLLER OUTDOOR AIR 2,Actuator,1
 Non-Parent Node Connection,NODE 41,CONTROLLER:OUTDOORAIR,CONTROLLER OUTDOOR AIR 2,Sensor,1
 Non-Parent Node Connection,NODE 63,CONTROLLER:OUTDOORAIR,CONTROLLER OUTDOOR AIR 3,Sensor,1
 Non-Parent Node Connection,NODE 59,CONTROLLER:OUTDOORAIR,CONTROLLER OUTDOOR AIR 3,Actuator,1
 Non-Parent Node Connection,NODE 60,CONTROLLER:OUTDOORAIR,CONTROLLER OUTDOOR AIR 3,Actuator,1
 Non-Parent Node Connection,NODE 54,CONTROLLER:OUTDOORAIR,CONTROLLER OUTDOOR AIR 3,Sensor,1
 Non-Parent Node Connection,NODE 76,CONTROLLER:OUTDOORAIR,CONTROLLER OUTDOOR AIR 4,Sensor,1
 Non-Parent Node Connection,NODE 72,CONTROLLER:OUTDOORAIR,CONTROLLER OUTDOOR AIR 4,Actuator,1
 Non-Parent Node Connection,NODE 73,CONTROLLER:OUTDOORAIR,CONTROLLER OUTDOOR AIR 4,Actuator,1
 Non-Parent Node Connection,NODE 67,CONTROLLER:OUTDOORAIR,CONTROLLER OUTDOOR AIR 4,Sensor,1
 Non-Parent Node Connection,NODE 8,BOILER:HOTWATER,PRIMARY BOILER,Inlet,1
 Non-Parent Node Connection,NODE 13,BOILER:HOTWATER,PRIMARY BOILER,Outlet,1
 Non-Parent Node Connection,NODE 14,BOILER:HOTWATER,SECONDARY BOILER,Inlet,1
 Non-Parent Node Connection,NODE 15,BOILER:HOTWATER,SECONDARY BOILER,Outlet,1
 Non-Parent Node Connection,NODE 6,PUMP:VARIABLESPEED,PUMP VARIABLE SPEED 1,Inlet,1
 Non-Parent Node Connection,NODE 12,PUMP:VARIABLESPEED,PUMP VARIABLE SPEED 1,Outlet,1
 Non-Parent Node Connection,NODE 80,PUMP:CONSTANTSPEED,SERVICE WATER LOOP PUMP,Inlet,1
 Non-Parent Node Connection,NODE 86,PUMP:CONSTANTSPEED,SERVICE WATER LOOP PUMP,Outlet,1
