{
   "completed_at" : "20190328T142432Z",
   "completed_status" : "Success",
   "created_at" : "20190328T142426Z",
   "current_step" : 0,
   "eplusout_err" : "Program Version,EnergyPlus, Version 8.9.0-eba93e8e1b, YMD=2019.03.28 14:24,\n   ************* Beginning Zone Sizing Calculations\n   ** Warning ** ProcessScheduleInput: Schedule:Day:Interval=\"SCHEDULE DAY 1\", Blank Schedule Type Limits Name input -- will not be validated.\n   ** Warning ** ProcessScheduleInput: Schedule:Day:Interval=\"SCHEDULE DAY 2\", Blank Schedule Type Limits Name input -- will not be validated.\n   ** Warning ** ProcessScheduleInput: Schedule:Constant=\"ALWAYS OFF DISCRETE\", Blank Schedule Type Limits Name input -- will not be validated.\n   ** Warning ** ProcessScheduleInput: Schedule:Constant=\"ALWAYS ON CONTINUOUS\", Blank Schedule Type Limits Name input -- will not be validated.\n   ** Warning ** CheckUsedConstructions: There are 27 nominally unused constructions in input.\n   **   ~~~   ** For explicit details on each unused construction, use Output:Diagnostics,DisplayExtraWarnings;\n   ** Warning ** GetInternalHeatGains: People Combination of ZoneList and Object Name generate a name too long.\n   **   ~~~   ** Object Name=\"SPACE FUNCTION STORAGE ROOM <= 5 M2 <= 100 M2-SCH-A PEOPLE\".\n   **   ~~~   ** ZoneList/Zone Name=\"STORAGE ROOM <= 5 M2 <= 100 M2-SCH-A-SPACE FUNCTION ZN\".\n   **   ~~~   ** Item length=[112] > Maximum Length=[100]. You may need to shorten the names.\n   **   ~~~   ** Shortening the Object Name by [13] characters will assure uniqueness for this ZoneList.\n   **   ~~~   ** name that will be used (may be needed in reporting)=\"STORAGE ROOM <= 5 M2 <= 100 M2-SCH-A-SPACE FUNCTION ZN SPACE FUNCTION STORAGE ROOM <= 5 M2 <= 100 M2-SCH-A PEOPLE\".\n   ** Warning ** GetInternalHeatGains: People Combination of ZoneList and Object Name generate a name too long.\n   **   ~~~   ** Object Name=\"SPACE FUNCTION STORAGE ROOM <= 5 M2 <= 100 M2-SCH-B PEOPLE\".\n   **   ~~~   ** ZoneList/Zone Name=\"STORAGE ROOM <= 5 M2 <= 100 M2-SCH-B-SPACE FUNCTION ZN\".\n   **   ~~~   ** Item length=[112] > Maximum Length=[100]. You may need to shorten the names.\n   **   ~~~   ** Shortening the Object Name by [13] characters will assure uniqueness for this ZoneList.\n   **   ~~~   ** name that will be used (may be needed in reporting)=\"STORAGE ROOM <= 5 M2 <= 100 M2-SCH-B-SPACE FUNCTION ZN SPACE FUNCTION STORAGE ROOM <= 5 M2 <= 100 M2-SCH-B PEOPLE\".\n   ** Warning ** GetInternalHeatGains: People Combination of ZoneList and Object Name generate a name too long.\n   **   ~~~   ** Object Name=\"SPACE FUNCTION STORAGE ROOM <= 5 M2 <= 100 M2-SCH-C PEOPLE\".\n   **   ~~~   ** ZoneList/Zone Name=\"STORAGE ROOM <= 5 M2 <= 100 M2-SCH-C-SPACE FUNCTION ZN\".\n   **   ~~~   ** Item length=[112] > Maximum Length=[100]. You may need to shorten the names.\n   **   ~~~   ** Shortening the Object Name by [13] characters will assure uniqueness for this ZoneList.\n   **   ~~~   ** name that will be used (may be needed in reporting)=\"STORAGE ROOM <= 5 M2 <= 100 M2-SCH-C-SPACE FUNCTION ZN SPACE FUNCTION STORAGE ROOM <= 5 M2 <= 100 M2-SCH-C PEOPLE\".\n   ** Warning ** GetInternalHeatGains: People Combination of ZoneList and Object Name generate a name too long.\n   **   ~~~   ** Object Name=\"SPACE FUNCTION STORAGE ROOM <= 5 M2 <= 100 M2-SCH-D PEOPLE\".\n   **   ~~~   ** ZoneList/Zone Name=\"STORAGE ROOM <= 5 M2 <= 100 M2-SCH-D-SPACE FUNCTION ZN\".\n   **   ~~~   ** Item length=[112] > Maximum Length=[100]. You may need to shorten the names.\n   **   ~~~   ** Shortening the Object Name by [13] characters will assure uniqueness for this ZoneList.\n   **   ~~~   ** name that will be used (may be needed in reporting)=\"STORAGE ROOM <= 5 M2 <= 100 M2-SCH-D-SPACE FUNCTION ZN SPACE FUNCTION STORAGE ROOM <= 5 M2 <= 100 M2-SCH-D PEOPLE\".\n   ** Warning ** GetInternalHeatGains: People Combination of ZoneList and Object Name generate a name too long.\n   **   ~~~   ** Object Name=\"SPACE FUNCTION STORAGE ROOM <= 5 M2 <= 100 M2-SCH-E PEOPLE\".\n   **   ~~~   ** ZoneList/Zone Name=\"STORAGE ROOM <= 5 M2 <= 100 M2-SCH-E-SPACE FUNCTION ZN\".\n   **   ~~~   ** Item length=[112] > Maximum Length=[100]. You may need to shorten the names.\n   **   ~~~   ** Shortening the Object Name by [13] characters will assure uniqueness for this ZoneList.\n   **   ~~~   ** name that will be used (may be needed in reporting)=\"STORAGE ROOM <= 5 M2 <= 100 M2-SCH-E-SPACE FUNCTION ZN SPACE FUNCTION STORAGE ROOM <= 5 M2 <= 100 M2-SCH-E PEOPLE\".\n   ** Warning ** GetInternalHeatGains: People Combination of ZoneList and Object Name generate a name too long.\n   **   ~~~   ** Object Name=\"SPACE FUNCTION STORAGE ROOM <= 5 M2 <= 100 M2-SCH-F PEOPLE\".\n   **   ~~~   ** ZoneList/Zone Name=\"STORAGE ROOM <= 5 M2 <= 100 M2-SCH-F-SPACE FUNCTION ZN\".\n   **   ~~~   ** Item length=[112] > Maximum Length=[100]. You may need to shorten the names.\n   **   ~~~   ** Shortening the Object Name by [13] characters will assure uniqueness for this ZoneList.\n   **   ~~~   ** name that will be used (may be needed in reporting)=\"STORAGE ROOM <= 5 M2 <= 100 M2-SCH-F-SPACE FUNCTION ZN SPACE FUNCTION STORAGE ROOM <= 5 M2 <= 100 M2-SCH-F PEOPLE\".\n   ** Warning ** GetInternalHeatGains: People Combination of ZoneList and Object Name generate a name too long.\n   **   ~~~   ** Object Name=\"SPACE FUNCTION STORAGE ROOM <= 5 M2 <= 100 M2-SCH-G PEOPLE\".\n   **   ~~~   ** ZoneList/Zone Name=\"STORAGE ROOM <= 5 M2 <= 100 M2-SCH-G-SPACE FUNCTION ZN\".\n   **   ~~~   ** Item length=[112] > Maximum Length=[100]. You may need to shorten the names.\n   **   ~~~   ** Shortening the Object Name by [13] characters will assure uniqueness for this ZoneList.\n   **   ~~~   ** name that will be used (may be needed in reporting)=\"STORAGE ROOM <= 5 M2 <= 100 M2-SCH-G-SPACE FUNCTION ZN SPACE FUNCTION STORAGE ROOM <= 5 M2 <= 100 M2-SCH-G PEOPLE\".\n   ** Warning ** GetInternalHeatGains: People Combination of ZoneList and Object Name generate a name too long.\n   **   ~~~   ** Object Name=\"SPACE FUNCTION STORAGE ROOM <= 5 M2 <= 100 M2-SCH-H PEOPLE\".\n   **   ~~~   ** ZoneList/Zone Name=\"STORAGE ROOM <= 5 M2 <= 100 M2-SCH-H-SPACE FUNCTION ZN\".\n   **   ~~~   ** Item length=[112] > Maximum Length=[100]. You may need to shorten the names.\n   **   ~~~   ** Shortening the Object Name by [13] characters will assure uniqueness for this ZoneList.\n   **   ~~~   ** name that will be used (may be needed in reporting)=\"STORAGE ROOM <= 5 M2 <= 100 M2-SCH-H-SPACE FUNCTION ZN SPACE FUNCTION STORAGE ROOM <= 5 M2 <= 100 M2-SCH-H PEOPLE\".\n   ** Warning ** GetInternalHeatGains: Lights Combination of ZoneList and Object Name generate a name too long.\n   **   ~~~   ** Object Name=\"SPACE FUNCTION STORAGE ROOM <= 5 M2 <= 100 M2-SCH-A LIGHTS\".\n   **   ~~~   ** ZoneList/Zone Name=\"STORAGE ROOM <= 5 M2 <= 100 M2-SCH-A-SPACE FUNCTION ZN\".\n   **   ~~~   ** Item length=[112] > Maximum Length=[100]. You may need to shorten the names.\n   **   ~~~   ** Shortening the Object Name by [13] characters will assure uniqueness for this ZoneList.\n   **   ~~~   ** name that will be used (may be needed in reporting)=\"STORAGE ROOM <= 5 M2 <= 100 M2-SCH-A-SPACE FUNCTION ZN SPACE FUNCTION STORAGE ROOM <= 5 M2 <= 100 M2-SCH-A LIGHTS\".\n   ** Warning ** GetInternalHeatGains: Lights Combination of ZoneList and Object Name generate a name too long.\n   **   ~~~   ** Object Name=\"SPACE FUNCTION STORAGE ROOM <= 5 M2 <= 100 M2-SCH-B LIGHTS\".\n   **   ~~~   ** ZoneList/Zone Name=\"STORAGE ROOM <= 5 M2 <= 100 M2-SCH-B-SPACE FUNCTION ZN\".\n   **   ~~~   ** Item length=[112] > Maximum Length=[100]. You may need to shorten the names.\n   **   ~~~   ** Shortening the Object Name by [13] characters will assure uniqueness for this ZoneList.\n   **   ~~~   ** name that will be used (may be needed in reporting)=\"STORAGE ROOM <= 5 M2 <= 100 M2-SCH-B-SPACE FUNCTION ZN SPACE FUNCTION STORAGE ROOM <= 5 M2 <= 100 M2-SCH-B LIGHTS\".\n   ** Warning ** GetInternalHeatGains: Lights Combination of ZoneList and Object Name generate a name too long.\n   **   ~~~   ** Object Name=\"SPACE FUNCTION STORAGE ROOM <= 5 M2 <= 100 M2-SCH-C LIGHTS\".\n   **   ~~~   ** ZoneList/Zone Name=\"STORAGE ROOM <= 5 M2 <= 100 M2-SCH-C-SPACE FUNCTION ZN\".\n   **   ~~~   ** Item length=[112] > Maximum Length=[100]. You may need to shorten the names.\n   **   ~~~   ** Shortening the Object Name by [13] characters will assure uniqueness for this ZoneList.\n   **   ~~~   ** name that will be used (may be needed in reporting)=\"STORAGE ROOM <= 5 M2 <= 100 M2-SCH-C-SPACE FUNCTION ZN SPACE FUNCTION STORAGE ROOM <= 5 M2 <= 100 M2-SCH-C LIGHTS\".\n   ** Warning ** GetInternalHeatGains: Lights Combination of ZoneList and Object Name generate a name too long.\n   **   ~~~   ** Object Name=\"SPACE FUNCTION STORAGE ROOM <= 5 M2 <= 100 M2-SCH-D LIGHTS\".\n   **   ~~~   ** ZoneList/Zone Name=\"STORAGE ROOM <= 5 M2 <= 100 M2-SCH-D-SPACE FUNCTION ZN\".\n   **   ~~~   ** Item length=[112] > Maximum Length=[100]. You may need to shorten the names.\n   **   ~~~   ** Shortening the Object Name by [13] characters will assure uniqueness for this ZoneList.\n   **   ~~~   ** name that will be used (may be needed in reporting)=\"STORAGE ROOM <= 5 M2 <= 100 M2-SCH-D-SPACE FUNCTION ZN SPACE FUNCTION STORAGE ROOM <= 5 M2 <= 100 M2-SCH-D LIGHTS\".\n   ** Warning ** GetInternalHeatGains: Lights Combination of ZoneList and Object Name generate a name too long.\n   **   ~~~   ** Object Name=\"SPACE FUNCTION STORAGE ROOM <= 5 M2 <= 100 M2-SCH-E LIGHTS\".\n   **   ~~~   ** ZoneList/Zone Name=\"STORAGE ROOM <= 5 M2 <= 100 M2-SCH-E-SPACE FUNCTION ZN\".\n   **   ~~~   ** Item length=[112] > Maximum Length=[100]. You may need to shorten the names.\n   **   ~~~   ** Shortening the Object Name by [13] characters will assure uniqueness for this ZoneList.\n   **   ~~~   ** name that will be used (may be needed in reporting)=\"STORAGE ROOM <= 5 M2 <= 100 M2-SCH-E-SPACE FUNCTION ZN SPACE FUNCTION STORAGE ROOM <= 5 M2 <= 100 M2-SCH-E LIGHTS\".\n   ** Warning ** GetInternalHeatGains: Lights Combination of ZoneList and Object Name generate a name too long.\n   **   ~~~   ** Object Name=\"SPACE FUNCTION STORAGE ROOM <= 5 M2 <= 100 M2-SCH-F LIGHTS\".\n   **   ~~~   ** ZoneList/Zone Name=\"STORAGE ROOM <= 5 M2 <= 100 M2-SCH-F-SPACE FUNCTION ZN\".\n   **   ~~~   ** Item length=[112] > Maximum Length=[100]. You may need to shorten the names.\n   **   ~~~   ** Shortening the Object Name by [13] characters will assure uniqueness for this ZoneList.\n   **   ~~~   ** name that will be used (may be needed in reporting)=\"STORAGE ROOM <= 5 M2 <= 100 M2-SCH-F-SPACE FUNCTION ZN SPACE FUNCTION STORAGE ROOM <= 5 M2 <= 100 M2-SCH-F LIGHTS\".\n   ** Warning ** GetInternalHeatGains: Lights Combination of ZoneList and Object Name generate a name too long.\n   **   ~~~   ** Object Name=\"SPACE FUNCTION STORAGE ROOM <= 5 M2 <= 100 M2-SCH-G LIGHTS\".\n   **   ~~~   ** ZoneList/Zone Name=\"STORAGE ROOM <= 5 M2 <= 100 M2-SCH-G-SPACE FUNCTION ZN\".\n   **   ~~~   ** Item length=[112] > Maximum Length=[100]. You may need to shorten the names.\n   **   ~~~   ** Shortening the Object Name by [13] characters will assure uniqueness for this ZoneList.\n   **   ~~~   ** name that will be used (may be needed in reporting)=\"STORAGE ROOM <= 5 M2 <= 100 M2-SCH-G-SPACE FUNCTION ZN SPACE FUNCTION STORAGE ROOM <= 5 M2 <= 100 M2-SCH-G LIGHTS\".\n   ** Warning ** GetInternalHeatGains: Lights Combination of ZoneList and Object Name generate a name too long.\n   **   ~~~   ** Object Name=\"SPACE FUNCTION STORAGE ROOM <= 5 M2 <= 100 M2-SCH-H LIGHTS\".\n   **   ~~~   ** ZoneList/Zone Name=\"STORAGE ROOM <= 5 M2 <= 100 M2-SCH-H-SPACE FUNCTION ZN\".\n   **   ~~~   ** Item length=[112] > Maximum Length=[100]. You may need to shorten the names.\n   **   ~~~   ** Shortening the Object Name by [13] characters will assure uniqueness for this ZoneList.\n   **   ~~~   ** name that will be used (may be needed in reporting)=\"STORAGE ROOM <= 5 M2 <= 100 M2-SCH-H-SPACE FUNCTION ZN SPACE FUNCTION STORAGE ROOM <= 5 M2 <= 100 M2-SCH-H LIGHTS\".\n   ** Warning ** Calculated design cooling load for zone=STORAGE GARAGE INTERIOR-SPACE FUNCTION ZN is zero.\n   **   ~~~   ** Check Sizing:Zone and ZoneControl:Thermostat inputs.\n   ** Warning ** Calculated design heating load for zone=STORAGE GARAGE INTERIOR-SPACE FUNCTION ZN is zero.\n   **   ~~~   ** Check Sizing:Zone and ZoneControl:Thermostat inputs.\n   ** Warning ** Calculated design heating load for zone=STORAGE ROOM < 5 M2-SCH-B-SPACE FUNCTION ZN is zero.\n   **   ~~~   ** Check Sizing:Zone and ZoneControl:Thermostat inputs.\n   ** Warning ** Calculated design heating load for zone=STORAGE ROOM < 5 M2-SCH-I-SPACE FUNCTION ZN is zero.\n   **   ~~~   ** Check Sizing:Zone and ZoneControl:Thermostat inputs.\n   ** Warning ** Calculated design heating load for zone=STORAGE ROOM < 5 M2-SCH-J-SPACE FUNCTION ZN is zero.\n   **   ~~~   ** Check Sizing:Zone and ZoneControl:Thermostat inputs.\n   ** Warning ** Calculated design cooling load for zone=STORAGE ROOM < 5 M2-SCH-K-SPACE FUNCTION ZN is zero.\n   **   ~~~   ** Check Sizing:Zone and ZoneControl:Thermostat inputs.\n   ** Warning ** Calculated design heating load for zone=STORAGE ROOM < 5 M2-SCH-K-SPACE FUNCTION ZN is zero.\n   **   ~~~   ** Check Sizing:Zone and ZoneControl:Thermostat inputs.\n   ** Warning ** Calculated design heating load for zone=STORAGE ROOM <= 5 M2 <= 100 M2-SCH-D-SPACE FUNCTION ZN is zero.\n   **   ~~~   ** Check Sizing:Zone and ZoneControl:Thermostat inputs.\n   ** Warning ** Output:Meter: invalid Key Name=\"GAS:FACILITY\" - not found.\n   ** Warning ** Output:Meter:MeterFileOnly: invalid Key Name=\"GAS:FACILITY\" - not found.\n   ** Warning ** Output:Meter:MeterFileOnly requested for \"Electricity:Facility\" (TimeStep), already on \"Output:Meter\". Will report to both eplusout.eso and eplusout.mtr\n   ************* Testing Individual Branch Integrity\n   ************* All Branches passed integrity testing\n   ************* Testing Individual Supply Air Path Integrity\n   ************* All Supply Air Paths passed integrity testing\n   ************* Testing Individual Return Air Path Integrity\n   ************* All Return Air Paths passed integrity testing\n   ************* No node connection errors were found.\n   ************* Beginning Simulation\n   ** Warning ** Output:Table:Monthly requested with SimulationControl Run Simulation for Weather File Run Periods set to No so Output:Table:Monthly will not be generated\n   ************* Simulation Error Summary *************\n   ************* There are 8 unused objects in input.\n   ************* Use Output:Diagnostics,DisplayUnusedObjects; to see them.\n   ************* There are 6 unused schedules in input.\n   ************* There are 6 unused week schedules in input.\n   ************* There are 9 unused day schedules in input.\n   ************* Use Output:Diagnostics,DisplayUnusedSchedules; to see them.\n   *************\n   ************* ===== Final Error Summary =====\n   ************* The following error categories occurred.  Consider correcting or noting.\n   ************* Nominally Unused Constructions\n   ************* ..The nominally unused constructions warning is provided to alert you to potential conditions that can cause\n   ************* ..extra time during simulation. Each construction is calculated by the algorithm indicated in the HeatBalanceAlgorithm\n   ************* ..object. You may remove the constructions indicated (when you use the DisplayExtraWarnings option).\n   *************\n   ************* EnergyPlus Warmup Error Summary. During Warmup: 0 Warning; 0 Severe Errors.\n   ************* EnergyPlus Sizing Error Summary. During Sizing: 29 Warning; 0 Severe Errors.\n   ************* EnergyPlus Completed Successfully-- 33 Warning; 0 Severe Errors; Elapsed Time=00hr 00min  2.43sec\n",
   "hash" : "33795E1D",
   "seed_file" : "in.osm",
   "started_at" : "20190328T142428Z",
   "steps" : [],
   "updated_at" : "20190328T142432Z",
   "weather_file" : "in.epw"
}
