Program Version,EnergyPlus, Version 8.9.0-eba93e8e1b, YMD=2019.03.19 18:39
! <Version>, Version ID
 Version, 8.9
! <Timesteps per Hour>, #TimeSteps, Minutes per TimeStep {minutes}
 Timesteps per Hour,  6, 10
! <System Convergence Limits>, Minimum System TimeStep {minutes}, Max HVAC Iterations, Minimum Plant Iterations, Maximum Plant Iterations
 System Convergence Limits, 1, 20, 2, 8
! <Simulation Control>, Do Zone Sizing, Do System Sizing, Do Plant Sizing, Do Design Days, Do Weather Simulation, Do HVAC Sizing Simulation
 Simulation Control, Yes, No, No, Yes, No, No
! <Output Reporting Tolerances>, Tolerance for Time Heating Setpoint Not Met, Tolerance for Zone Cooling Setpoint Not Met Time
 Output Reporting Tolerances, 0.200, 0.200, 
! <Site:GroundTemperature:BuildingSurface>,Jan{C},Feb{C},Mar{C},Apr{C},May{C},Jun{C},Jul{C},Aug{C},Sep{C},Oct{C},Nov{C},Dec{C}
 Site:GroundTemperature:BuildingSurface,  19.53,  19.50,  19.54,  19.60,  20.00,  21.64,  22.23,  22.38,  21.45,  20.12,  19.80,  19.63
! <Site:GroundTemperature:FCfactorMethod>,Jan{C},Feb{C},Mar{C},Apr{C},May{C},Jun{C},Jul{C},Aug{C},Sep{C},Oct{C},Nov{C},Dec{C}
 Site:GroundTemperature:FCfactorMethod, -12.27, -13.66, -11.19,  -7.33,   2.77,  10.57,  15.83,  17.43,  14.70,   8.65,   0.56,  -6.95
! <Site:GroundTemperature:Shallow>,Jan{C},Feb{C},Mar{C},Apr{C},May{C},Jun{C},Jul{C},Aug{C},Sep{C},Oct{C},Nov{C},Dec{C}
 Site:GroundTemperature:Shallow,  13.00,  13.00,  13.00,  13.00,  13.00,  13.00,  13.00,  13.00,  13.00,  13.00,  13.00,  13.00
! <Site:GroundTemperature:Deep>,Jan{C},Feb{C},Mar{C},Apr{C},May{C},Jun{C},Jul{C},Aug{C},Sep{C},Oct{C},Nov{C},Dec{C}
 Site:GroundTemperature:Deep,  16.00,  16.00,  16.00,  16.00,  16.00,  16.00,  16.00,  16.00,  16.00,  16.00,  16.00,  16.00
! <Site:GroundReflectance>,Jan{dimensionless},Feb{dimensionless},Mar{dimensionless},Apr{dimensionless},May{dimensionless},Jun{dimensionless},Jul{dimensionless},Aug{dimensionless},Sep{dimensionless},Oct{dimensionless},Nov{dimensionless},Dec{dimensionless}
 Site:GroundReflectance,  0.20,  0.20,  0.20,  0.20,  0.20,  0.20,  0.20,  0.20,  0.20,  0.20,  0.20,  0.20
! <Site:GroundReflectance:SnowModifier>, Normal, Daylighting {dimensionless}
 Site:GroundReflectance:SnowModifier,   1.000,   1.000
! <Site:GroundReflectance:Snow>,Jan{dimensionless},Feb{dimensionless},Mar{dimensionless},Apr{dimensionless},May{dimensionless},Jun{dimensionless},Jul{dimensionless},Aug{dimensionless},Sep{dimensionless},Oct{dimensionless},Nov{dimensionless},Dec{dimensionless}
 Site:GroundReflectance:Snow,  0.20,  0.20,  0.20,  0.20,  0.20,  0.20,  0.20,  0.20,  0.20,  0.20,  0.20,  0.20
! <Site:GroundReflectance:Snow:Daylighting>,Jan{dimensionless},Feb{dimensionless},Mar{dimensionless},Apr{dimensionless},May{dimensionless},Jun{dimensionless},Jul{dimensionless},Aug{dimensionless},Sep{dimensionless},Oct{dimensionless},Nov{dimensionless},Dec{dimensionless}
 Site:GroundReflectance:Snow:Daylighting,  0.20,  0.20,  0.20,  0.20,  0.20,  0.20,  0.20,  0.20,  0.20,  0.20,  0.20,  0.20
! <Environment:Weather Station>,Wind Sensor Height Above Ground {m},Wind Speed Profile Exponent {},Wind Speed Profile Boundary Layer Thickness {m},Air Temperature Sensor Height Above Ground {m},Wind Speed Modifier Coefficient-Internal,Temperature Modifier Coefficient-Internal
Environment:Weather Station,10.000,0.140,270.000,1.500,1.586,9.750E-003
! <Site:Location>, Location Name, Latitude {N+/S- Deg}, Longitude {E+/W- Deg},  Time Zone Number {GMT+/-}, Elevation {m},  Standard Pressure at Elevation {Pa}, Standard RhoAir at Elevation
Site:Location,Fort McMurray AP AB CAN CWEC2016 WMO#=716890,56.65,-111.22,-7.00,369.10,96969,1.1525
! <Building Information>, Building Name,North Axis {deg},Terrain,  Loads Convergence Tolerance Value,Temperature Convergence Tolerance Value,  Solar Distribution,Maximum Number of Warmup Days,Minimum Number of Warmup Days
 Building Information,Building 1,0.000,Suburbs,4.00000E-002,0.40000,FullExterior,25,6
! <Inside Convection Algorithm>, Algorithm {Simple | TARP | CeilingDiffuser | AdaptiveConvectionAlgorithm}
Inside Convection Algorithm,TARP
! <Outside Convection Algorithm>, Algorithm {SimpleCombined | TARP | MoWitt | DOE-2 | AdaptiveConvectionAlgorithm}
Outside Convection Algorithm,TARP
! <Sky Radiance Distribution>, Value {Anisotropic}
Sky Radiance Distribution,Anisotropic
! <Zone Air Solution Algorithm>, Value {ThirdOrderBackwardDifference | AnalyticalSolution | EulerMethod}
 Zone Air Solution Algorithm, ThirdOrderBackwardDifference
! <Zone Air Carbon Dioxide Balance Simulation>, Simulation {Yes/No}, Carbon Dioxide Concentration
 Zone Air Carbon Dioxide Balance Simulation, No,N/A
! <Zone Air Generic Contaminant Balance Simulation>, Simulation {Yes/No}, Generic Contaminant Concentration
 Zone Air Generic Contaminant Balance Simulation, No,N/A
! <Zone Air Mass Flow Balance Simulation>, Enforce Mass Balance, Adjust Zone Mixing, Adjust Zone Infiltration {AddInfiltration | AdjustInfiltration | None}, Infiltration Zones {MixingSourceZonesOnly | AllZones}
 Zone Air Mass Flow Balance Simulation, No,N/A,N/A,N/A
! <HVACSystemRootFindingAlgorithm>, Value {RegulaFalsi | Bisection | BisectionThenRegulaFalsi | RegulaFalsiThenBisection}
 HVACSystemRootFindingAlgorithm, RegulaFalsi
! <Environment:Site Atmospheric Variation>,Wind Speed Profile Exponent {},Wind Speed Profile Boundary Layer Thickness {m},Air Temperature Gradient Coefficient {K/m}
Environment:Site Atmospheric Variation,0.220,370.000,6.500000E-003
! <Surface Geometry>,Starting Corner,Vertex Input Direction,Coordinate System,Daylight Reference Point Coordinate System,Rectangular (Simple) Surface Coordinate System
 Surface Geometry,UpperLeftCorner,Counterclockwise,RelativeCoordinateSystem,RelativeCoordinateSystem,RelativeToZoneOrigin
! <Surface Heat Transfer Algorithm>, Value {CTF - ConductionTransferFunction | EMPD - MoisturePenetrationDepthConductionTransferFunction | CondFD - ConductionFiniteDifference | HAMT - CombinedHeatAndMoistureFiniteElement} - Description,Inside Surface Max Temperature Limit{C}, Surface Convection Coefficient Lower Limit {W/m2-K}, Surface Convection Coefficient Upper Limit {W/m2-K}
Surface Heat Transfer Algorithm, CTF - ConductionTransferFunction,200,0.10,1000.0
! <Shading Summary>, Number of Fixed Detached Shades, Number of Building Detached Shades, Number of Attached Shades
 Shading Summary,0,0,0
! <Zone Summary>, Number of Zones, Number of Zone Surfaces, Number of SubSurfaces
 Zone Summary,20,137,17
! <Zone Information>,Zone Name,North Axis {deg},Origin X-Coordinate {m},Origin Y-Coordinate {m},Origin Z-Coordinate {m},Centroid X-Coordinate {m},Centroid Y-Coordinate {m},Centroid Z-Coordinate {m},Type,Zone Multiplier,Zone List Multiplier,Minimum X {m},Maximum X {m},Minimum Y {m},Maximum Y {m},Minimum Z {m},Maximum Z {m},Ceiling Height {m},Volume {m3},Zone Inside Convection Algorithm {Simple-Detailed-CeilingDiffuser-TrombeWall},Zone Outside Convection Algorithm {Simple-Detailed-Tarp-MoWitt-DOE-2-BLAST}, Floor Area {m2},Exterior Gross Wall Area {m2},Exterior Net Wall Area {m2},Exterior Window Area {m2}, Number of Surfaces, Number of SubSurfaces, Number of Shading SubSurfaces,  Part of Total Building Area
 Zone Information, GYM - FITNESS-SPACE FUNCTION ZN,0.0,0.00,0.00,11.40,50.00,10.85,13.30,1,1,1,0.00,100.00,0.00,25.00,11.40,15.20,3.80,7125.00,TARP,TARP,1875.00,380.00,285.00,188.75,6,2,0,Yes
 Zone Information, GYM - PLAY-SPACE FUNCTION ZN,0.0,75.00,25.00,11.40,89.15,50.00,13.30,1,1,1,75.00,100.00,0.00,100.00,11.40,15.20,3.80,7125.00,TARP,TARP,1875.00,380.00,285.00,188.75,6,2,0,Yes
 Zone Information, HOSPITAL - EMERGENCY-SPACE FUNCTION ZN,0.0,0.00,0.00,11.40,10.85,50.00,13.30,1,1,1,0.00,25.00,0.00,100.00,11.40,15.20,3.80,7125.00,TARP,TARP,1875.00,380.00,285.00,188.75,6,2,0,Yes
 Zone Information, HOSPITAL - EXAM-SPACE FUNCTION ZN,0.0,25.00,75.00,7.60,50.00,89.15,9.50,1,1,1,0.00,100.00,75.00,100.00,7.60,11.40,3.80,7125.00,TARP,TARP,1875.00,380.00,285.00,95.00,6,1,0,Yes
 Zone Information, HOSPITAL - LAUNDRY/WASHING-SPACE FUNCTION ZN,0.0,0.00,0.00,7.60,10.85,50.00,9.50,1,1,1,0.00,25.00,0.00,100.00,7.60,11.40,3.80,7125.00,TARP,TARP,1875.00,380.00,285.00,95.00,6,1,0,Yes
 Zone Information, HOSPITAL - LOUNGE/RECREATION-SPACE FUNCTION ZN,0.0,25.00,75.00,11.40,50.00,89.15,13.30,1,1,1,0.00,100.00,75.00,100.00,11.40,15.20,3.80,7125.00,TARP,TARP,1875.00,380.00,285.00,188.75,6,2,0,Yes
 Zone Information, HOSPITAL - MEDICAL SUPPLY - OCCSENS-SPACE FUNCTION ZN,0.0,0.00,0.00,0.00,10.85,50.00,1.90,1,1,1,0.00,25.00,0.00,100.00,0.00,3.80,3.80,7125.00,TARP,TARP,1875.00,0.00,0.00,0.00,6,0,0,Yes
 Zone Information, HOSPITAL - MEDICAL SUPPLY-SPACE FUNCTION ZN,0.0,0.00,0.00,7.60,50.00,10.85,9.50,1,1,1,0.00,100.00,0.00,25.00,7.60,11.40,3.80,7125.00,TARP,TARP,1875.00,380.00,285.00,95.00,6,1,0,Yes
 Zone Information, HOSPITAL - NURSERY-SPACE FUNCTION ZN,0.0,75.00,25.00,7.60,89.15,50.00,9.50,1,1,1,75.00,100.00,0.00,100.00,7.60,11.40,3.80,7125.00,TARP,TARP,1875.00,380.00,285.00,95.00,6,1,0,Yes
 Zone Information, HOSPITAL - NURSES STATION-SPACE FUNCTION ZN,0.0,25.00,75.00,0.00,50.00,89.15,1.90,1,1,1,0.00,100.00,75.00,100.00,0.00,3.80,3.80,7125.00,TARP,TARP,1875.00,0.00,0.00,0.00,6,0,0,Yes
 Zone Information, HOSPITAL - OPERATING ROOM-SPACE FUNCTION ZN,0.0,25.00,25.00,11.40,50.00,50.00,13.30,1,1,1,25.00,75.00,25.00,75.00,11.40,15.20,3.80,9500.00,TARP,TARP,2500.00,0.00,0.00,125.00,6,1,0,Yes
 Zone Information, HOSPITAL - PATIENT ROOM-SPACE FUNCTION ZN,0.0,75.00,25.00,0.00,89.15,50.00,1.90,1,1,1,75.00,100.00,0.00,100.00,0.00,3.80,3.80,7125.00,TARP,TARP,1875.00,0.00,0.00,0.00,6,0,0,Yes
 Zone Information, HOSPITAL - PHARMACY-SPACE FUNCTION ZN,0.0,0.00,0.00,0.00,50.00,10.85,1.90,1,1,1,0.00,100.00,0.00,25.00,0.00,3.80,3.80,7125.00,TARP,TARP,1875.00,0.00,0.00,0.00,6,0,0,Yes
 Zone Information, HOSPITAL - PHYSICAL THERAPY-SPACE FUNCTION ZN,0.0,25.00,25.00,0.00,50.00,50.00,1.90,1,1,1,25.00,75.00,25.00,75.00,0.00,3.80,3.80,9500.00,TARP,TARP,2500.00,0.00,0.00,0.00,6,0,0,Yes
 Zone Information, HOSPITAL - RADIOLOGY/IMAGING-SPACE FUNCTION ZN,0.0,0.00,0.00,3.80,10.85,50.00,5.70,1,1,1,0.00,25.00,0.00,100.00,3.80,7.60,3.80,7125.00,TARP,TARP,1875.00,380.00,285.00,95.00,6,1,0,Yes
 Zone Information, HOSPITAL - RECOVERY-SPACE FUNCTION ZN,0.0,75.00,25.00,3.80,89.15,50.00,5.70,1,1,1,75.00,100.00,0.00,100.00,3.80,7.60,3.80,7125.00,TARP,TARP,1875.00,380.00,285.00,95.00,6,1,0,Yes
 Zone Information, HOSPITAL CORR. < 2.4M-SCH-A-SPACE FUNCTION ZN,0.0,25.00,75.00,3.80,50.00,89.15,5.70,1,1,1,0.00,100.00,75.00,100.00,3.80,7.60,3.80,7125.00,TARP,TARP,1875.00,380.00,285.00,95.00,6,1,0,Yes
 Zone Information, HOSPITAL CORR. < 2.4M-SCH-B-SPACE FUNCTION ZN,0.0,0.00,0.00,3.80,50.00,10.85,5.70,1,1,1,0.00,100.00,0.00,25.00,3.80,7.60,3.80,7125.00,TARP,TARP,1875.00,380.00,285.00,95.00,6,1,0,Yes
 Zone Information, HOSPITAL CORR. < 2.4M-SCH-C-SPACE FUNCTION ZN,0.0,25.00,25.00,7.60,50.00,50.00,9.50,1,1,1,25.00,75.00,25.00,75.00,7.60,11.40,3.80,9500.00,TARP,TARP,2500.00,0.00,0.00,0.00,6,0,0,Yes
 Zone Information, HOSPITAL CORR. < 2.4M-SCH-D-SPACE FUNCTION ZN,0.0,25.00,25.00,3.80,50.00,50.00,5.70,1,1,1,25.00,75.00,25.00,75.00,3.80,7.60,3.80,9500.00,TARP,TARP,2500.00,0.00,0.00,0.00,6,0,0,Yes
! <Zone Internal Gains Nominal>,Zone Name, Floor Area {m2},# Occupants,Area per Occupant {m2/person},Occupant per Area {person/m2},Interior Lighting {W/m2},Electric Load {W/m2},Gas Load {W/m2},Other Load {W/m2},Hot Water Eq {W/m2},Steam Equipment {W/m2},Sum Loads per Area {W/m2},Outdoor Controlled Baseboard Heat
 Zone Internal Gains Nominal, GYM - FITNESS-SPACE FUNCTION ZN,1875.00,375.0,5.000,0.200,9.800,1.000,0.000,0.000,0.000,0.000,10.800,No
 Zone Internal Gains Nominal, GYM - PLAY-SPACE FUNCTION ZN,1875.00,375.0,5.000,0.200,12.900,1.500,0.000,0.000,0.000,0.000,14.400,No
 Zone Internal Gains Nominal, HOSPITAL - EMERGENCY-SPACE FUNCTION ZN,1875.00,93.8,19.979,5.005E-002,24.300,10.000,0.000,0.000,0.000,0.000,34.300,No
 Zone Internal Gains Nominal, HOSPITAL - EXAM-SPACE FUNCTION ZN,1875.00,93.8,19.979,5.005E-002,17.900,10.000,0.000,0.000,0.000,0.000,27.900,No
 Zone Internal Gains Nominal, HOSPITAL - LAUNDRY/WASHING-SPACE FUNCTION ZN,1875.00,93.8,19.979,5.005E-002,8.000,20.000,0.000,0.000,0.000,0.000,28.000,No
 Zone Internal Gains Nominal, HOSPITAL - LOUNGE/RECREATION-SPACE FUNCTION ZN,1875.00,187.5,10.000,10.000E-002,11.500,1.000,0.000,0.000,0.000,0.000,12.500,No
 Zone Internal Gains Nominal, HOSPITAL - MEDICAL SUPPLY - OCCSENS-SPACE FUNCTION ZN,1875.00,93.8,19.979,5.005E-002,12.330,1.000,0.000,0.000,0.000,0.000,13.330,No
 Zone Internal Gains Nominal, HOSPITAL - MEDICAL SUPPLY-SPACE FUNCTION ZN,1875.00,93.8,19.979,5.005E-002,13.700,1.000,0.000,0.000,0.000,0.000,14.700,No
 Zone Internal Gains Nominal, HOSPITAL - NURSERY-SPACE FUNCTION ZN,1875.00,93.8,19.979,5.005E-002,9.500,10.000,0.000,0.000,0.000,0.000,19.500,No
 Zone Internal Gains Nominal, HOSPITAL - NURSES STATION-SPACE FUNCTION ZN,1875.00,93.8,19.979,5.005E-002,9.400,2.500,0.000,0.000,0.000,0.000,11.900,No
 Zone Internal Gains Nominal, HOSPITAL - OPERATING ROOM-SPACE FUNCTION ZN,2500.00,125.1,19.979,5.005E-002,20.300,10.000,0.000,0.000,0.000,0.000,30.300,No
 Zone Internal Gains Nominal, HOSPITAL - PATIENT ROOM-SPACE FUNCTION ZN,1875.00,93.8,19.979,5.005E-002,6.700,10.000,0.000,0.000,0.000,0.000,16.700,No
 Zone Internal Gains Nominal, HOSPITAL - PHARMACY-SPACE FUNCTION ZN,1875.00,93.8,19.979,5.005E-002,12.300,2.500,0.000,0.000,0.000,0.000,14.800,No
 Zone Internal Gains Nominal, HOSPITAL - PHYSICAL THERAPY-SPACE FUNCTION ZN,2500.00,125.1,19.979,5.005E-002,9.800,10.000,0.000,0.000,0.000,0.000,19.800,No
 Zone Internal Gains Nominal, HOSPITAL - RADIOLOGY/IMAGING-SPACE FUNCTION ZN,1875.00,93.8,19.979,5.005E-002,14.200,10.000,0.000,0.000,0.000,0.000,24.200,No
 Zone Internal Gains Nominal, HOSPITAL - RECOVERY-SPACE FUNCTION ZN,1875.00,93.8,19.979,5.005E-002,12.400,10.000,0.000,0.000,0.000,0.000,22.400,No
 Zone Internal Gains Nominal, HOSPITAL CORR. < 2.4M-SCH-A-SPACE FUNCTION ZN,1875.00,18.8,99.896,1.001E-002,11.700,0.000,0.000,0.000,0.000,0.000,11.700,No
 Zone Internal Gains Nominal, HOSPITAL CORR. < 2.4M-SCH-B-SPACE FUNCTION ZN,1875.00,18.8,99.896,1.001E-002,11.700,0.000,0.000,0.000,0.000,0.000,11.700,No
 Zone Internal Gains Nominal, HOSPITAL CORR. < 2.4M-SCH-C-SPACE FUNCTION ZN,2500.00,25.0,99.896,1.001E-002,11.700,0.000,0.000,0.000,0.000,0.000,11.700,No
 Zone Internal Gains Nominal, HOSPITAL CORR. < 2.4M-SCH-D-SPACE FUNCTION ZN,2500.00,25.0,99.896,1.001E-002,11.700,0.000,0.000,0.000,0.000,0.000,11.700,No
! <People Internal Gains Nominal>,Name,Schedule Name,Zone Name,Zone Floor Area {m2},# Zone Occupants,Number of People {},People/Floor Area {person/m2},Floor Area per person {m2/person},Fraction Radiant,Fraction Convected,Sensible Fraction Calculation,Activity level,ASHRAE 55 Warnings,Carbon Dioxide Generation Rate,Nominal Minimum Number of People,Nominal Maximum Number of People
 People Internal Gains Nominal, GYM - FITNESS-SPACE FUNCTION ZN SPACE FUNCTION GYM - FITNESS PEOPLE,NECB-B-OCCUPANCY,GYM - FITNESS-SPACE FUNCTION ZN,1875.00,375.0,375.0,0.200,5.000,0.300,0.700,AutoCalculate,NECB-ACTIVITY,No,3.8200E-008,0,337
 People Internal Gains Nominal, GYM - PLAY-SPACE FUNCTION ZN SPACE FUNCTION GYM - PLAY PEOPLE,NECB-B-OCCUPANCY,GYM - PLAY-SPACE FUNCTION ZN,1875.00,375.0,375.0,0.200,5.000,0.300,0.700,AutoCalculate,NECB-ACTIVITY,No,3.8200E-008,0,337
 People Internal Gains Nominal, HOSPITAL - EMERGENCY-SPACE FUNCTION ZN SPACE FUNCTION HOSPITAL - EMERGENCY PEOPLE,NECB-H-OCCUPANCY,HOSPITAL - EMERGENCY-SPACE FUNCTION ZN,1875.00,93.8,93.8,5.005E-002,19.979,0.300,0.700,AutoCalculate,NECB-ACTIVITY,No,3.8200E-008,84,84
 People Internal Gains Nominal, HOSPITAL - EXAM-SPACE FUNCTION ZN SPACE FUNCTION HOSPITAL - EXAM PEOPLE,NECB-C-OCCUPANCY,HOSPITAL - EXAM-SPACE FUNCTION ZN,1875.00,93.8,93.8,5.005E-002,19.979,0.300,0.700,AutoCalculate,NECB-ACTIVITY,No,3.8200E-008,0,84
 People Internal Gains Nominal, HOSPITAL - LAUNDRY/WASHING-SPACE FUNCTION ZN SPACE FUNCTION HOSPITAL - LAUNDRY/WASHING PEOPLE,NECB-C-OCCUPANCY,HOSPITAL - LAUNDRY/WASHING-SPACE FUNCTION ZN,1875.00,93.8,93.8,5.005E-002,19.979,0.300,0.700,AutoCalculate,NECB-ACTIVITY,No,3.8200E-008,0,84
 People Internal Gains Nominal, HOSPITAL - LOUNGE/RECREATION-SPACE FUNCTION ZN SPACE FUNCTION HOSPITAL - LOUNGE/RECREATION PEOPLE,NECB-B-OCCUPANCY,HOSPITAL - LOUNGE/RECREATION-SPACE FUNCTION ZN,1875.00,187.5,187.5,10.000E-002,10.000,0.300,0.700,AutoCalculate,NECB-ACTIVITY,No,3.8200E-008,0,169
 People Internal Gains Nominal, HOSPITAL - MEDICAL SUPPLY-SPACE FUNCTION ZN SPACE FUNCTION HOSPITAL - MEDICAL SUPPLY PEOPLE,NECB-H-OCCUPANCY,HOSPITAL - MEDICAL SUPPLY-SPACE FUNCTION ZN,1875.00,93.8,93.8,5.005E-002,19.979,0.300,0.700,AutoCalculate,NECB-ACTIVITY,No,3.8200E-008,84,84
 People Internal Gains Nominal, HOSPITAL - MEDICAL SUPPLY - OCCSENS-SPACE FUNCTION ZN SPACE FUNCTION HOSPITAL - MEDICAL SUPPLY - OCCSENS PEOPLE,NECB-H-OCCUPANCY,HOSPITAL - MEDICAL SUPPLY - OCCSENS-SPACE FUNCTION ZN,1875.00,93.8,93.8,5.005E-002,19.979,0.300,0.700,AutoCalculate,NECB-ACTIVITY,No,3.8200E-008,84,84
 People Internal Gains Nominal, HOSPITAL - NURSERY-SPACE FUNCTION ZN SPACE FUNCTION HOSPITAL - NURSERY PEOPLE,NECB-H-OCCUPANCY,HOSPITAL - NURSERY-SPACE FUNCTION ZN,1875.00,93.8,93.8,5.005E-002,19.979,0.300,0.700,AutoCalculate,NECB-ACTIVITY,No,3.8200E-008,84,84
 People Internal Gains Nominal, HOSPITAL - NURSES STATION-SPACE FUNCTION ZN SPACE FUNCTION HOSPITAL - NURSES STATION PEOPLE,NECB-H-OCCUPANCY,HOSPITAL - NURSES STATION-SPACE FUNCTION ZN,1875.00,93.8,93.8,5.005E-002,19.979,0.300,0.700,AutoCalculate,NECB-ACTIVITY,No,3.8200E-008,84,84
 People Internal Gains Nominal, HOSPITAL - OPERATING ROOM-SPACE FUNCTION ZN SPACE FUNCTION HOSPITAL - OPERATING ROOM PEOPLE,NECB-H-OCCUPANCY,HOSPITAL - OPERATING ROOM-SPACE FUNCTION ZN,2500.00,125.1,125.1,5.005E-002,19.979,0.300,0.700,AutoCalculate,NECB-ACTIVITY,No,3.8200E-008,113,113
 People Internal Gains Nominal, HOSPITAL - PATIENT ROOM-SPACE FUNCTION ZN SPACE FUNCTION HOSPITAL - PATIENT ROOM PEOPLE,NECB-H-OCCUPANCY,HOSPITAL - PATIENT ROOM-SPACE FUNCTION ZN,1875.00,93.8,93.8,5.005E-002,19.979,0.300,0.700,AutoCalculate,NECB-ACTIVITY,No,3.8200E-008,84,84
 People Internal Gains Nominal, HOSPITAL - PHARMACY-SPACE FUNCTION ZN SPACE FUNCTION HOSPITAL - PHARMACY PEOPLE,NECB-C-OCCUPANCY,HOSPITAL - PHARMACY-SPACE FUNCTION ZN,1875.00,93.8,93.8,5.005E-002,19.979,0.300,0.700,AutoCalculate,NECB-ACTIVITY,No,3.8200E-008,0,84
 People Internal Gains Nominal, HOSPITAL - PHYSICAL THERAPY-SPACE FUNCTION ZN SPACE FUNCTION HOSPITAL - PHYSICAL THERAPY PEOPLE,NECB-C-OCCUPANCY,HOSPITAL - PHYSICAL THERAPY-SPACE FUNCTION ZN,2500.00,125.1,125.1,5.005E-002,19.979,0.300,0.700,AutoCalculate,NECB-ACTIVITY,No,3.8200E-008,0,113
 People Internal Gains Nominal, HOSPITAL - RADIOLOGY/IMAGING-SPACE FUNCTION ZN SPACE FUNCTION HOSPITAL - RADIOLOGY/IMAGING PEOPLE,NECB-H-OCCUPANCY,HOSPITAL - RADIOLOGY/IMAGING-SPACE FUNCTION ZN,1875.00,93.8,93.8,5.005E-002,19.979,0.300,0.700,AutoCalculate,NECB-ACTIVITY,No,3.8200E-008,84,84
 People Internal Gains Nominal, HOSPITAL - RECOVERY-SPACE FUNCTION ZN SPACE FUNCTION HOSPITAL - RECOVERY PEOPLE,NECB-H-OCCUPANCY,HOSPITAL - RECOVERY-SPACE FUNCTION ZN,1875.00,93.8,93.8,5.005E-002,19.979,0.300,0.700,AutoCalculate,NECB-ACTIVITY,No,3.8200E-008,84,84
 People Internal Gains Nominal, HOSPITAL CORR. < 2.4M-SCH-A-SPACE FUNCTION ZN SPACE FUNCTION HOSPITAL CORR. < 2.4M-SCH-A PEOPLE,NECB-A-OCCUPANCY,HOSPITAL CORR. < 2.4M-SCH-A-SPACE FUNCTION ZN,1875.00,18.8,18.8,1.001E-002,99.896,0.300,0.700,AutoCalculate,NECB-ACTIVITY,No,3.8200E-008,0,17
 People Internal Gains Nominal, HOSPITAL CORR. < 2.4M-SCH-B-SPACE FUNCTION ZN SPACE FUNCTION HOSPITAL CORR. < 2.4M-SCH-B PEOPLE,NECB-B-OCCUPANCY,HOSPITAL CORR. < 2.4M-SCH-B-SPACE FUNCTION ZN,1875.00,18.8,18.8,1.001E-002,99.896,0.300,0.700,AutoCalculate,NECB-ACTIVITY,No,3.8200E-008,0,17
 People Internal Gains Nominal, HOSPITAL CORR. < 2.4M-SCH-C-SPACE FUNCTION ZN SPACE FUNCTION HOSPITAL CORR. < 2.4M-SCH-C PEOPLE,NECB-C-OCCUPANCY,HOSPITAL CORR. < 2.4M-SCH-C-SPACE FUNCTION ZN,2500.00,25.0,25.0,1.001E-002,99.896,0.300,0.700,AutoCalculate,NECB-ACTIVITY,No,3.8200E-008,0,23
 People Internal Gains Nominal, HOSPITAL CORR. < 2.4M-SCH-D-SPACE FUNCTION ZN SPACE FUNCTION HOSPITAL CORR. < 2.4M-SCH-D PEOPLE,NECB-D-OCCUPANCY,HOSPITAL CORR. < 2.4M-SCH-D-SPACE FUNCTION ZN,2500.00,25.0,25.0,1.001E-002,99.896,0.300,0.700,AutoCalculate,NECB-ACTIVITY,No,3.8200E-008,0,23
! <Lights Internal Gains Nominal>,Name,Schedule Name,Zone Name,Zone Floor Area {m2},# Zone Occupants,Lighting Level {W},Lights/Floor Area {W/m2},Lights per person {W/person},Fraction Return Air,Fraction Radiant,Fraction Short Wave,Fraction Convected,Fraction Replaceable,End-Use Category,Nominal Minimum Lighting Level {W},Nominal Maximum Lighting Level {W}
 Lights Internal Gains Nominal, GYM - FITNESS-SPACE FUNCTION ZN SPACE FUNCTION GYM - FITNESS LIGHTS,NECB-B-LIGHTING,GYM - FITNESS-SPACE FUNCTION ZN,1875.00,375.0,18374.847,9.800,49.001,0.000,0.500,0.200,0.300,1.000,General,1837.485,16537.362
 Lights Internal Gains Nominal, GYM - PLAY-SPACE FUNCTION ZN SPACE FUNCTION GYM - PLAY LIGHTS,NECB-B-LIGHTING,GYM - PLAY-SPACE FUNCTION ZN,1875.00,375.0,24187.299,12.900,64.502,0.000,0.500,0.200,0.300,1.000,General,2418.730,21768.569
 Lights Internal Gains Nominal, HOSPITAL - EMERGENCY-SPACE FUNCTION ZN SPACE FUNCTION HOSPITAL - EMERGENCY LIGHTS,NECB-H-LIGHTING,HOSPITAL - EMERGENCY-SPACE FUNCTION ZN,1875.00,93.8,45562.121,24.300,485.489,0.000,0.500,0.200,0.300,1.000,General,41005.909,41005.909
 Lights Internal Gains Nominal, HOSPITAL - EXAM-SPACE FUNCTION ZN SPACE FUNCTION HOSPITAL - EXAM LIGHTS,NECB-C-LIGHTING,HOSPITAL - EXAM-SPACE FUNCTION ZN,1875.00,93.8,33562.221,17.900,357.624,0.000,0.500,0.200,0.300,1.000,General,1678.111,30205.999
 Lights Internal Gains Nominal, HOSPITAL - LAUNDRY/WASHING-SPACE FUNCTION ZN SPACE FUNCTION HOSPITAL - LAUNDRY/WASHING LIGHTS,NECB-C-LIGHTING,HOSPITAL - LAUNDRY/WASHING-SPACE FUNCTION ZN,1875.00,93.8,14999.875,8.000,159.832,0.000,0.500,0.200,0.300,1.000,General,749.994,13499.888
 Lights Internal Gains Nominal, HOSPITAL - LOUNGE/RECREATION-SPACE FUNCTION ZN SPACE FUNCTION HOSPITAL - LOUNGE/RECREATION LIGHTS,NECB-B-LIGHTING,HOSPITAL - LOUNGE/RECREATION-SPACE FUNCTION ZN,1875.00,187.5,21562.321,11.500,115.003,0.000,0.500,0.200,0.300,1.000,General,2156.232,19406.088
 Lights Internal Gains Nominal, HOSPITAL - MEDICAL SUPPLY-SPACE FUNCTION ZN SPACE FUNCTION HOSPITAL - MEDICAL SUPPLY LIGHTS,NECB-H-LIGHTING,HOSPITAL - MEDICAL SUPPLY-SPACE FUNCTION ZN,1875.00,93.8,25687.286,13.700,273.712,0.000,0.500,0.200,0.300,1.000,General,23118.558,23118.558
 Lights Internal Gains Nominal, HOSPITAL - MEDICAL SUPPLY - OCCSENS-SPACE FUNCTION ZN SPACE FUNCTION HOSPITAL - MEDICAL SUPPLY - OCCSENS LIGHTS,NECB-H-LIGHTING,HOSPITAL - MEDICAL SUPPLY - OCCSENS-SPACE FUNCTION ZN,1875.00,93.8,23118.558,12.330,246.341,0.000,0.500,0.200,0.300,1.000,General,20806.702,20806.702
 Lights Internal Gains Nominal, HOSPITAL - NURSERY-SPACE FUNCTION ZN SPACE FUNCTION HOSPITAL - NURSERY LIGHTS,NECB-H-LIGHTING,HOSPITAL - NURSERY-SPACE FUNCTION ZN,1875.00,93.8,17812.352,9.500,189.800,0.000,0.500,0.200,0.300,1.000,General,16031.117,16031.117
 Lights Internal Gains Nominal, HOSPITAL - NURSES STATION-SPACE FUNCTION ZN SPACE FUNCTION HOSPITAL - NURSES STATION LIGHTS,NECB-H-LIGHTING,HOSPITAL - NURSES STATION-SPACE FUNCTION ZN,1875.00,93.8,17624.853,9.400,187.802,0.000,0.500,0.200,0.300,1.000,General,15862.368,15862.368
 Lights Internal Gains Nominal, HOSPITAL - OPERATING ROOM-SPACE FUNCTION ZN SPACE FUNCTION HOSPITAL - OPERATING ROOM LIGHTS,NECB-H-LIGHTING,HOSPITAL - OPERATING ROOM-SPACE FUNCTION ZN,2500.00,125.1,50749.578,20.300,405.573,0.000,0.500,0.200,0.300,1.000,General,45674.620,45674.620
 Lights Internal Gains Nominal, HOSPITAL - PATIENT ROOM-SPACE FUNCTION ZN SPACE FUNCTION HOSPITAL - PATIENT ROOM LIGHTS,NECB-H-LIGHTING,HOSPITAL - PATIENT ROOM-SPACE FUNCTION ZN,1875.00,93.8,12562.395,6.700,133.859,0.000,0.500,0.200,0.300,1.000,General,11306.156,11306.156
 Lights Internal Gains Nominal, HOSPITAL - PHARMACY-SPACE FUNCTION ZN SPACE FUNCTION HOSPITAL - PHARMACY LIGHTS,NECB-C-LIGHTING,HOSPITAL - PHARMACY-SPACE FUNCTION ZN,1875.00,93.8,23062.308,12.300,245.741,0.000,0.500,0.200,0.300,1.000,General,1153.115,20756.077
 Lights Internal Gains Nominal, HOSPITAL - PHYSICAL THERAPY-SPACE FUNCTION ZN SPACE FUNCTION HOSPITAL - PHYSICAL THERAPY LIGHTS,NECB-C-LIGHTING,HOSPITAL - PHYSICAL THERAPY-SPACE FUNCTION ZN,2500.00,125.1,24499.796,9.800,195.794,0.000,0.500,0.200,0.300,1.000,General,1224.990,22049.816
 Lights Internal Gains Nominal, HOSPITAL - RADIOLOGY/IMAGING-SPACE FUNCTION ZN SPACE FUNCTION HOSPITAL - RADIOLOGY/IMAGING LIGHTS,NECB-H-LIGHTING,HOSPITAL - RADIOLOGY/IMAGING-SPACE FUNCTION ZN,1875.00,93.8,26624.778,14.200,283.702,0.000,0.500,0.200,0.300,1.000,General,23962.301,23962.301
 Lights Internal Gains Nominal, HOSPITAL - RECOVERY-SPACE FUNCTION ZN SPACE FUNCTION HOSPITAL - RECOVERY LIGHTS,NECB-H-LIGHTING,HOSPITAL - RECOVERY-SPACE FUNCTION ZN,1875.00,93.8,23249.807,12.400,247.739,0.000,0.500,0.200,0.300,1.000,General,20924.826,20924.826
 Lights Internal Gains Nominal, HOSPITAL CORR. < 2.4M-SCH-A-SPACE FUNCTION ZN SPACE FUNCTION HOSPITAL CORR. < 2.4M-SCH-A LIGHTS,NECB-A-LIGHTING,HOSPITAL CORR. < 2.4M-SCH-A-SPACE FUNCTION ZN,1875.00,18.8,21937.317,11.700,1168.770,0.000,0.500,0.200,0.300,1.000,General,1096.866,19743.586
 Lights Internal Gains Nominal, HOSPITAL CORR. < 2.4M-SCH-B-SPACE FUNCTION ZN SPACE FUNCTION HOSPITAL CORR. < 2.4M-SCH-B LIGHTS,NECB-B-LIGHTING,HOSPITAL CORR. < 2.4M-SCH-B-SPACE FUNCTION ZN,1875.00,18.8,21937.317,11.700,1168.770,0.000,0.500,0.200,0.300,1.000,General,2193.732,19743.586
 Lights Internal Gains Nominal, HOSPITAL CORR. < 2.4M-SCH-C-SPACE FUNCTION ZN SPACE FUNCTION HOSPITAL CORR. < 2.4M-SCH-C LIGHTS,NECB-C-LIGHTING,HOSPITAL CORR. < 2.4M-SCH-C-SPACE FUNCTION ZN,2500.00,25.0,29249.757,11.700,1168.770,0.000,0.500,0.200,0.300,1.000,General,1462.488,26324.781
 Lights Internal Gains Nominal, HOSPITAL CORR. < 2.4M-SCH-D-SPACE FUNCTION ZN SPACE FUNCTION HOSPITAL CORR. < 2.4M-SCH-D LIGHTS,NECB-D-LIGHTING,HOSPITAL CORR. < 2.4M-SCH-D-SPACE FUNCTION ZN,2500.00,25.0,29249.757,11.700,1168.770,0.000,0.500,0.200,0.300,1.000,General,1462.488,26324.781
! <ElectricEquipment Internal Gains Nominal>,Name,Schedule Name,Zone Name,Zone Floor Area {m2},# Zone Occupants,Equipment Level {W},Equipment/Floor Area {W/m2},Equipment per person {W/person},Fraction Latent,Fraction Radiant,Fraction Lost,Fraction Convected,End-Use SubCategory,Nominal Minimum Equipment Level {W},Nominal Maximum Equipment Level {W}
 ElectricEquipment Internal Gains Nominal, GYM - FITNESS-SPACE FUNCTION ZN SPACE FUNCTION GYM - FITNESS ELEC EQUIP,NECB-B-ELECTRIC-EQUIPMENT,GYM - FITNESS-SPACE FUNCTION ZN,1875.00,375.0,1874.984,1.000,5.000,0.000,0.500,0.000,0.500,General,187.498,1687.486
 ElectricEquipment Internal Gains Nominal, GYM - PLAY-SPACE FUNCTION ZN SPACE FUNCTION GYM - PLAY ELEC EQUIP,NECB-B-ELECTRIC-EQUIPMENT,GYM - PLAY-SPACE FUNCTION ZN,1875.00,375.0,2812.477,1.500,7.500,0.000,0.500,0.000,0.500,General,281.248,2531.229
 ElectricEquipment Internal Gains Nominal, HOSPITAL - EMERGENCY-SPACE FUNCTION ZN SPACE FUNCTION HOSPITAL - EMERGENCY ELEC EQUIP,NECB-H-ELECTRIC-EQUIPMENT,HOSPITAL - EMERGENCY-SPACE FUNCTION ZN,1875.00,93.8,18749.844,10.000,199.790,0.000,0.500,0.000,0.500,General,16874.860,16874.860
 ElectricEquipment Internal Gains Nominal, HOSPITAL - EXAM-SPACE FUNCTION ZN SPACE FUNCTION HOSPITAL - EXAM ELEC EQUIP,NECB-C-ELECTRIC-EQUIPMENT,HOSPITAL - EXAM-SPACE FUNCTION ZN,1875.00,93.8,18749.844,10.000,199.790,0.000,0.500,0.000,0.500,General,937.492,16874.860
 ElectricEquipment Internal Gains Nominal, HOSPITAL - LAUNDRY/WASHING-SPACE FUNCTION ZN SPACE FUNCTION HOSPITAL - LAUNDRY/WASHING ELEC EQUIP,NECB-C-ELECTRIC-EQUIPMENT,HOSPITAL - LAUNDRY/WASHING-SPACE FUNCTION ZN,1875.00,93.8,37499.688,20.000,399.580,0.000,0.500,0.000,0.500,General,1874.984,33749.719
 ElectricEquipment Internal Gains Nominal, HOSPITAL - LOUNGE/RECREATION-SPACE FUNCTION ZN SPACE FUNCTION HOSPITAL - LOUNGE/RECREATION ELEC EQUIP,NECB-B-ELECTRIC-EQUIPMENT,HOSPITAL - LOUNGE/RECREATION-SPACE FUNCTION ZN,1875.00,187.5,1874.984,1.000,10.000,0.000,0.500,0.000,0.500,General,187.498,1687.486
 ElectricEquipment Internal Gains Nominal, HOSPITAL - MEDICAL SUPPLY-SPACE FUNCTION ZN SPACE FUNCTION HOSPITAL - MEDICAL SUPPLY ELEC EQUIP,NECB-H-ELECTRIC-EQUIPMENT,HOSPITAL - MEDICAL SUPPLY-SPACE FUNCTION ZN,1875.00,93.8,1874.984,1.000,19.979,0.000,0.500,0.000,0.500,General,1687.486,1687.486
 ElectricEquipment Internal Gains Nominal, HOSPITAL - MEDICAL SUPPLY - OCCSENS-SPACE FUNCTION ZN SPACE FUNCTION HOSPITAL - MEDICAL SUPPLY - OCCSENS ELEC EQUIP,NECB-H-ELECTRIC-EQUIPMENT,HOSPITAL - MEDICAL SUPPLY - OCCSENS-SPACE FUNCTION ZN,1875.00,93.8,1874.984,1.000,19.979,0.000,0.500,0.000,0.500,General,1687.486,1687.486
 ElectricEquipment Internal Gains Nominal, HOSPITAL - NURSERY-SPACE FUNCTION ZN SPACE FUNCTION HOSPITAL - NURSERY ELEC EQUIP,NECB-H-ELECTRIC-EQUIPMENT,HOSPITAL - NURSERY-SPACE FUNCTION ZN,1875.00,93.8,18749.844,10.000,199.790,0.000,0.500,0.000,0.500,General,16874.860,16874.860
 ElectricEquipment Internal Gains Nominal, HOSPITAL - NURSES STATION-SPACE FUNCTION ZN SPACE FUNCTION HOSPITAL - NURSES STATION ELEC EQUIP,NECB-H-ELECTRIC-EQUIPMENT,HOSPITAL - NURSES STATION-SPACE FUNCTION ZN,1875.00,93.8,4687.461,2.500,49.947,0.000,0.500,0.000,0.500,General,4218.715,4218.715
 ElectricEquipment Internal Gains Nominal, HOSPITAL - OPERATING ROOM-SPACE FUNCTION ZN SPACE FUNCTION HOSPITAL - OPERATING ROOM ELEC EQUIP,NECB-H-ELECTRIC-EQUIPMENT,HOSPITAL - OPERATING ROOM-SPACE FUNCTION ZN,2500.00,125.1,24999.792,10.000,199.790,0.000,0.500,0.000,0.500,General,22499.813,22499.813
 ElectricEquipment Internal Gains Nominal, HOSPITAL - PATIENT ROOM-SPACE FUNCTION ZN SPACE FUNCTION HOSPITAL - PATIENT ROOM ELEC EQUIP,NECB-H-ELECTRIC-EQUIPMENT,HOSPITAL - PATIENT ROOM-SPACE FUNCTION ZN,1875.00,93.8,18749.844,10.000,199.790,0.000,0.500,0.000,0.500,General,16874.860,16874.860
 ElectricEquipment Internal Gains Nominal, HOSPITAL - PHARMACY-SPACE FUNCTION ZN SPACE FUNCTION HOSPITAL - PHARMACY ELEC EQUIP,NECB-C-ELECTRIC-EQUIPMENT,HOSPITAL - PHARMACY-SPACE FUNCTION ZN,1875.00,93.8,4687.461,2.500,49.947,0.000,0.500,0.000,0.500,General,234.373,4218.715
 ElectricEquipment Internal Gains Nominal, HOSPITAL - PHYSICAL THERAPY-SPACE FUNCTION ZN SPACE FUNCTION HOSPITAL - PHYSICAL THERAPY ELEC EQUIP,NECB-C-ELECTRIC-EQUIPMENT,HOSPITAL - PHYSICAL THERAPY-SPACE FUNCTION ZN,2500.00,125.1,24999.792,10.000,199.790,0.000,0.500,0.000,0.500,General,1249.990,22499.813
 ElectricEquipment Internal Gains Nominal, HOSPITAL - RADIOLOGY/IMAGING-SPACE FUNCTION ZN SPACE FUNCTION HOSPITAL - RADIOLOGY/IMAGING ELEC EQUIP,NECB-H-ELECTRIC-EQUIPMENT,HOSPITAL - RADIOLOGY/IMAGING-SPACE FUNCTION ZN,1875.00,93.8,18749.844,10.000,199.790,0.000,0.500,0.000,0.500,General,16874.860,16874.860
 ElectricEquipment Internal Gains Nominal, HOSPITAL - RECOVERY-SPACE FUNCTION ZN SPACE FUNCTION HOSPITAL - RECOVERY ELEC EQUIP,NECB-H-ELECTRIC-EQUIPMENT,HOSPITAL - RECOVERY-SPACE FUNCTION ZN,1875.00,93.8,18749.844,10.000,199.790,0.000,0.500,0.000,0.500,General,16874.860,16874.860
! <Shadowing/Sun Position Calculations Annual Simulations>, Calculation Method, Value {days}, Allowable Number Figures in Shadow Overlap {}, Polygon Clipping Algorithm, Sky Diffuse Modeling Algorithm, External Shading Calculation Method, Output External Shading Calculation Results, Disable Self-Shading Within Shading Zone Groups, Disable Self-Shading From Shading Zone Groups to Other Zones
Shadowing/Sun Position Calculations Annual Simulations,AverageOverDaysInFrequency,20,15000,SutherlandHodgman,SimpleSkyDiffuseModeling,InternalCalculation,No,No,No
! <ZoneInfiltration Airflow Stats Nominal>,Name,Schedule Name,Zone Name, Zone Floor Area {m2}, # Zone Occupants,Design Volume Flow Rate {m3/s},Volume Flow Rate/Floor Area {m3/s/m2},Volume Flow Rate/Exterior Surface Area {m3/s/m2},ACH - Air Changes per Hour,Equation A - Constant Term Coefficient {},Equation B - Temperature Term Coefficient {1/C},Equation C - Velocity Term Coefficient {s/m}, Equation D - Velocity Squared Term Coefficient {s2/m2}
 ZoneInfiltration Airflow Stats Nominal, GYM - FITNESS-SPACE FUNCTION INFILTRATION,ALWAYS ON DISCRETE,GYM - FITNESS-SPACE FUNCTION ZN,1875.00,375.0,0.564,3.007E-004,2.500E-004,0.285,0.000,0.000,0.224,0.000
 ZoneInfiltration Airflow Stats Nominal, GYM - PLAY-SPACE FUNCTION INFILTRATION,ALWAYS ON DISCRETE,GYM - PLAY-SPACE FUNCTION ZN,1875.00,375.0,0.564,3.007E-004,2.500E-004,0.285,0.000,0.000,0.224,0.000
 ZoneInfiltration Airflow Stats Nominal, HOSPITAL - EMERGENCY-SPACE FUNCTION INFILTRATION,ALWAYS ON DISCRETE,HOSPITAL - EMERGENCY-SPACE FUNCTION ZN,1875.00,93.8,0.564,3.007E-004,2.500E-004,0.285,0.000,0.000,0.224,0.000
 ZoneInfiltration Airflow Stats Nominal, HOSPITAL - EXAM-SPACE FUNCTION INFILTRATION,ALWAYS ON DISCRETE,HOSPITAL - EXAM-SPACE FUNCTION ZN,1875.00,93.8,9.500E-002,5.067E-005,2.500E-004,4.800E-002,0.000,0.000,0.224,0.000
 ZoneInfiltration Airflow Stats Nominal, HOSPITAL - LAUNDRY/WASHING-SPACE FUNCTION INFILTRATION,ALWAYS ON DISCRETE,HOSPITAL - LAUNDRY/WASHING-SPACE FUNCTION ZN,1875.00,93.8,9.500E-002,5.067E-005,2.500E-004,4.800E-002,0.000,0.000,0.224,0.000
 ZoneInfiltration Airflow Stats Nominal, HOSPITAL - LOUNGE/RECREATION-SPACE FUNCTION INFILTRATION,ALWAYS ON DISCRETE,HOSPITAL - LOUNGE/RECREATION-SPACE FUNCTION ZN,1875.00,187.5,0.564,3.007E-004,2.500E-004,0.285,0.000,0.000,0.224,0.000
 ZoneInfiltration Airflow Stats Nominal, HOSPITAL - MEDICAL SUPPLY-SPACE FUNCTION INFILTRATION,ALWAYS ON DISCRETE,HOSPITAL - MEDICAL SUPPLY-SPACE FUNCTION ZN,1875.00,93.8,9.500E-002,5.067E-005,2.500E-004,4.800E-002,0.000,0.000,0.224,0.000
 ZoneInfiltration Airflow Stats Nominal, HOSPITAL - NURSERY-SPACE FUNCTION INFILTRATION,ALWAYS ON DISCRETE,HOSPITAL - NURSERY-SPACE FUNCTION ZN,1875.00,93.8,9.500E-002,5.067E-005,2.500E-004,4.800E-002,0.000,0.000,0.224,0.000
 ZoneInfiltration Airflow Stats Nominal, HOSPITAL - OPERATING ROOM-SPACE FUNCTION INFILTRATION,ALWAYS ON DISCRETE,HOSPITAL - OPERATING ROOM-SPACE FUNCTION ZN,2500.00,125.1,0.625,2.500E-004,2.500E-004,0.237,0.000,0.000,0.224,0.000
 ZoneInfiltration Airflow Stats Nominal, HOSPITAL - RADIOLOGY/IMAGING-SPACE FUNCTION INFILTRATION,ALWAYS ON DISCRETE,HOSPITAL - RADIOLOGY/IMAGING-SPACE FUNCTION ZN,1875.00,93.8,9.500E-002,5.067E-005,2.500E-004,4.800E-002,0.000,0.000,0.224,0.000
 ZoneInfiltration Airflow Stats Nominal, HOSPITAL - RECOVERY-SPACE FUNCTION INFILTRATION,ALWAYS ON DISCRETE,HOSPITAL - RECOVERY-SPACE FUNCTION ZN,1875.00,93.8,9.500E-002,5.067E-005,2.500E-004,4.800E-002,0.000,0.000,0.224,0.000
 ZoneInfiltration Airflow Stats Nominal, HOSPITAL CORR. < 2.4M-SCH-A-SPACE FUNCTION INFILTRATION,ALWAYS ON DISCRETE,HOSPITAL CORR. < 2.4M-SCH-A-SPACE FUNCTION ZN,1875.00,18.8,9.500E-002,5.067E-005,2.500E-004,4.800E-002,0.000,0.000,0.224,0.000
 ZoneInfiltration Airflow Stats Nominal, HOSPITAL CORR. < 2.4M-SCH-B-SPACE FUNCTION INFILTRATION,ALWAYS ON DISCRETE,HOSPITAL CORR. < 2.4M-SCH-B-SPACE FUNCTION ZN,1875.00,18.8,9.500E-002,5.067E-005,2.500E-004,4.800E-002,0.000,0.000,0.224,0.000
! <AirFlow Model>, Simple
 AirFlow Model, Simple
! <RoomAir Model>, Zone Name, Mixing/Mundt/UCSDDV/UCSDCV/UCSDUFI/UCSDUFE/User Defined
RoomAir Model,GYM - FITNESS-SPACE FUNCTION ZN,Mixing/Well-Stirred
RoomAir Model,GYM - PLAY-SPACE FUNCTION ZN,Mixing/Well-Stirred
RoomAir Model,HOSPITAL - EMERGENCY-SPACE FUNCTION ZN,Mixing/Well-Stirred
RoomAir Model,HOSPITAL - EXAM-SPACE FUNCTION ZN,Mixing/Well-Stirred
RoomAir Model,HOSPITAL - LAUNDRY/WASHING-SPACE FUNCTION ZN,Mixing/Well-Stirred
RoomAir Model,HOSPITAL - LOUNGE/RECREATION-SPACE FUNCTION ZN,Mixing/Well-Stirred
RoomAir Model,HOSPITAL - MEDICAL SUPPLY - OCCSENS-SPACE FUNCTION ZN,Mixing/Well-Stirred
RoomAir Model,HOSPITAL - MEDICAL SUPPLY-SPACE FUNCTION ZN,Mixing/Well-Stirred
RoomAir Model,HOSPITAL - NURSERY-SPACE FUNCTION ZN,Mixing/Well-Stirred
RoomAir Model,HOSPITAL - NURSES STATION-SPACE FUNCTION ZN,Mixing/Well-Stirred
RoomAir Model,HOSPITAL - OPERATING ROOM-SPACE FUNCTION ZN,Mixing/Well-Stirred
RoomAir Model,HOSPITAL - PATIENT ROOM-SPACE FUNCTION ZN,Mixing/Well-Stirred
RoomAir Model,HOSPITAL - PHARMACY-SPACE FUNCTION ZN,Mixing/Well-Stirred
RoomAir Model,HOSPITAL - PHYSICAL THERAPY-SPACE FUNCTION ZN,Mixing/Well-Stirred
RoomAir Model,HOSPITAL - RADIOLOGY/IMAGING-SPACE FUNCTION ZN,Mixing/Well-Stirred
RoomAir Model,HOSPITAL - RECOVERY-SPACE FUNCTION ZN,Mixing/Well-Stirred
RoomAir Model,HOSPITAL CORR. < 2.4M-SCH-A-SPACE FUNCTION ZN,Mixing/Well-Stirred
RoomAir Model,HOSPITAL CORR. < 2.4M-SCH-B-SPACE FUNCTION ZN,Mixing/Well-Stirred
RoomAir Model,HOSPITAL CORR. < 2.4M-SCH-C-SPACE FUNCTION ZN,Mixing/Well-Stirred
RoomAir Model,HOSPITAL CORR. < 2.4M-SCH-D-SPACE FUNCTION ZN,Mixing/Well-Stirred
! <AirflowNetwork Model:Control>, No Multizone or Distribution/Multizone with Distribution/Multizone without Distribution/Multizone with Distribution only during Fan Operation
AirflowNetwork Model:Control,NoMultizoneOrDistribution
! <Zone Volume Capacitance Multiplier>, Sensible Heat Capacity Multiplier, Moisture Capacity Multiplier, Carbon Dioxide Capacity Multiplier, Generic Contaminant Capacity Multiplier
Zone Volume Capacitance Multiplier,   1.000 ,   1.000,   1.000,   1.000
! <Load Timesteps in Zone Design Calculation Averaging Window>, Value
 Load Timesteps in Zone Design Calculation Averaging Window,    6
! <Heating Sizing Factor Information>, Sizing Factor ID, Value
 Heating Sizing Factor Information, Global,   1.2500    
 Heating Sizing Factor Information, Zone GYM - FITNESS-SPACE FUNCTION ZN,   1.2500    
 Heating Sizing Factor Information, Zone GYM - PLAY-SPACE FUNCTION ZN,   1.2500    
 Heating Sizing Factor Information, Zone HOSPITAL - EMERGENCY-SPACE FUNCTION ZN,   1.2500    
 Heating Sizing Factor Information, Zone HOSPITAL - EXAM-SPACE FUNCTION ZN,   1.2500    
 Heating Sizing Factor Information, Zone HOSPITAL - LAUNDRY/WASHING-SPACE FUNCTION ZN,   1.2500    
 Heating Sizing Factor Information, Zone HOSPITAL - LOUNGE/RECREATION-SPACE FUNCTION ZN,   1.2500    
 Heating Sizing Factor Information, Zone HOSPITAL - MEDICAL SUPPLY - OCCSENS-SPACE FUNCTION ZN,   1.2500    
 Heating Sizing Factor Information, Zone HOSPITAL - MEDICAL SUPPLY-SPACE FUNCTION ZN,   1.2500    
 Heating Sizing Factor Information, Zone HOSPITAL - NURSERY-SPACE FUNCTION ZN,   1.2500    
 Heating Sizing Factor Information, Zone HOSPITAL - NURSES STATION-SPACE FUNCTION ZN,   1.2500    
 Heating Sizing Factor Information, Zone HOSPITAL - OPERATING ROOM-SPACE FUNCTION ZN,   1.2500    
 Heating Sizing Factor Information, Zone HOSPITAL - PATIENT ROOM-SPACE FUNCTION ZN,   1.2500    
 Heating Sizing Factor Information, Zone HOSPITAL - PHARMACY-SPACE FUNCTION ZN,   1.2500    
 Heating Sizing Factor Information, Zone HOSPITAL - PHYSICAL THERAPY-SPACE FUNCTION ZN,   1.2500    
 Heating Sizing Factor Information, Zone HOSPITAL - RADIOLOGY/IMAGING-SPACE FUNCTION ZN,   1.2500    
 Heating Sizing Factor Information, Zone HOSPITAL - RECOVERY-SPACE FUNCTION ZN,   1.2500    
 Heating Sizing Factor Information, Zone HOSPITAL CORR. < 2.4M-SCH-A-SPACE FUNCTION ZN,   1.2500    
 Heating Sizing Factor Information, Zone HOSPITAL CORR. < 2.4M-SCH-B-SPACE FUNCTION ZN,   1.2500    
 Heating Sizing Factor Information, Zone HOSPITAL CORR. < 2.4M-SCH-C-SPACE FUNCTION ZN,   1.2500    
 Heating Sizing Factor Information, Zone HOSPITAL CORR. < 2.4M-SCH-D-SPACE FUNCTION ZN,   1.2500    
! <Cooling Sizing Factor Information>, Sizing Factor ID, Value
 Cooling Sizing Factor Information, Global,   1.1500    
 Cooling Sizing Factor Information, Zone GYM - FITNESS-SPACE FUNCTION ZN,   1.1500    
 Cooling Sizing Factor Information, Zone GYM - PLAY-SPACE FUNCTION ZN,   1.1500    
 Cooling Sizing Factor Information, Zone HOSPITAL - EMERGENCY-SPACE FUNCTION ZN,   1.1500    
 Cooling Sizing Factor Information, Zone HOSPITAL - EXAM-SPACE FUNCTION ZN,   1.1500    
 Cooling Sizing Factor Information, Zone HOSPITAL - LAUNDRY/WASHING-SPACE FUNCTION ZN,   1.1500    
 Cooling Sizing Factor Information, Zone HOSPITAL - LOUNGE/RECREATION-SPACE FUNCTION ZN,   1.1500    
 Cooling Sizing Factor Information, Zone HOSPITAL - MEDICAL SUPPLY - OCCSENS-SPACE FUNCTION ZN,   1.1500    
 Cooling Sizing Factor Information, Zone HOSPITAL - MEDICAL SUPPLY-SPACE FUNCTION ZN,   1.1500    
 Cooling Sizing Factor Information, Zone HOSPITAL - NURSERY-SPACE FUNCTION ZN,   1.1500    
 Cooling Sizing Factor Information, Zone HOSPITAL - NURSES STATION-SPACE FUNCTION ZN,   1.1500    
 Cooling Sizing Factor Information, Zone HOSPITAL - OPERATING ROOM-SPACE FUNCTION ZN,   1.1500    
 Cooling Sizing Factor Information, Zone HOSPITAL - PATIENT ROOM-SPACE FUNCTION ZN,   1.1500    
 Cooling Sizing Factor Information, Zone HOSPITAL - PHARMACY-SPACE FUNCTION ZN,   1.1500    
 Cooling Sizing Factor Information, Zone HOSPITAL - PHYSICAL THERAPY-SPACE FUNCTION ZN,   1.1500    
 Cooling Sizing Factor Information, Zone HOSPITAL - RADIOLOGY/IMAGING-SPACE FUNCTION ZN,   1.1500    
 Cooling Sizing Factor Information, Zone HOSPITAL - RECOVERY-SPACE FUNCTION ZN,   1.1500    
 Cooling Sizing Factor Information, Zone HOSPITAL CORR. < 2.4M-SCH-A-SPACE FUNCTION ZN,   1.1500    
 Cooling Sizing Factor Information, Zone HOSPITAL CORR. < 2.4M-SCH-B-SPACE FUNCTION ZN,   1.1500    
 Cooling Sizing Factor Information, Zone HOSPITAL CORR. < 2.4M-SCH-C-SPACE FUNCTION ZN,   1.1500    
 Cooling Sizing Factor Information, Zone HOSPITAL CORR. < 2.4M-SCH-D-SPACE FUNCTION ZN,   1.1500    
! <Zone Sizing Information>, Zone Name, Load Type, Calc Des Load {W}, User Des Load {W}, Calc Des Air Flow Rate {m3/s}, User Des Air Flow Rate {m3/s}, Design Day Name, Date/Time of Peak, Temperature at Peak {C}, Humidity Ratio at Peak {kgWater/kgDryAir}, Floor Area {m2}, # Occupants, Calc Outdoor Air Flow Rate {m3/s}, Calc DOAS Heat Addition Rate {W}
 Zone Sizing Information, GYM - FITNESS-SPACE FUNCTION ZN, Cooling, 98768.49667, 113583.77117, 8.39921, 9.65909, FORT MCMURRAY AP ANN CLG .4% CONDNS DB=>MWB, 7/21 13:10:00, 28.38333, 8.76969E-003, 1875.00000, 374.98773, 8.19150, 0.00000
 Zone Sizing Information, GYM - FITNESS-SPACE FUNCTION ZN, Heating, 33524.63201, 41905.79002, 1.54333, 8.19150, FORT MCMURRAY AP ANN HTG 99.6% CONDNS DB, 1/21 10:00:00, -36.20000, 1.25811E-004, 1875.00000, 374.98773, 8.19150, 0.00000
 Zone Sizing Information, GYM - PLAY-SPACE FUNCTION ZN, Cooling, 92995.04368, 106944.30023, 6.78241, 7.79977, FORT MCMURRAY AP ANN CLG .4% CONDNS DB=>MWB, 7/21 09:00:00, 22.08000, 8.76969E-003, 1875.00000, 374.98773, 2.85750, 0.00000
 Zone Sizing Information, GYM - PLAY-SPACE FUNCTION ZN, Heating, 32202.25938, 40252.82422, 1.42552, 2.85750, FORT MCMURRAY AP ANN HTG 99.6% CONDNS DB, 1/21 09:30:00, -36.20000, 1.25811E-004, 1875.00000, 374.98773, 2.85750, 0.00000
 Zone Sizing Information, HOSPITAL - EMERGENCY-SPACE FUNCTION ZN, Cooling, 113235.50985, 130220.83632, 9.62724, 11.07133, FORT MCMURRAY AP ANN CLG .4% CONDNS DB=>MWB, 7/21 16:10:00, 27.99067, 8.76969E-003, 1875.00000, 93.84784, 5.71500, 0.00000
 Zone Sizing Information, HOSPITAL - EMERGENCY-SPACE FUNCTION ZN, Heating, 0.00000, 0.00000, 0.00000, 5.71500, FORT MCMURRAY AP ANN HTG 99.6% CONDNS DB, , -36.20000, 1.25811E-004, 1875.00000, 93.84784, 5.71500, 0.00000
 Zone Sizing Information, HOSPITAL - EXAM-SPACE FUNCTION ZN, Cooling, 53264.43811, 61254.10383, 4.52845, 5.20772, FORT MCMURRAY AP ANN CLG .4% CONDNS DB=>MWB, 7/21 17:00:00, 27.16400, 8.76969E-003, 1875.00000, 93.84784, 2.85750, 0.00000
 Zone Sizing Information, HOSPITAL - EXAM-SPACE FUNCTION ZN, Heating, 5119.95447, 6399.94308, 0.22641, 2.85750, FORT MCMURRAY AP ANN HTG 99.6% CONDNS DB, 1/21 08:10:00, -36.20000, 1.25811E-004, 1875.00000, 93.84784, 2.85750, 0.00000
 Zone Sizing Information, HOSPITAL - LAUNDRY/WASHING-SPACE FUNCTION ZN, Cooling, 79224.82543, 91108.54925, 6.73557, 7.74590, FORT MCMURRAY AP ANN CLG .4% CONDNS DB=>MWB, 7/21 18:00:00, 25.92400, 8.76969E-003, 1875.00000, 93.84784, 4.28625, 0.00000
 Zone Sizing Information, HOSPITAL - LAUNDRY/WASHING-SPACE FUNCTION ZN, Heating, 0.00000, 0.00000, 0.00000, 4.28625, FORT MCMURRAY AP ANN HTG 99.6% CONDNS DB, , -36.20000, 1.25811E-004, 1875.00000, 93.84784, 4.28625, 0.00000
 Zone Sizing Information, HOSPITAL - LOUNGE/RECREATION-SPACE FUNCTION ZN, Cooling, 74450.70077, 85618.30589, 6.33024, 7.27978, FORT MCMURRAY AP ANN CLG .4% CONDNS DB=>MWB, 7/21 13:20:00, 28.48667, 8.76969E-003, 1875.00000, 187.49386, 2.38125, 0.00000
 Zone Sizing Information, HOSPITAL - LOUNGE/RECREATION-SPACE FUNCTION ZN, Heating, 38093.50750, 47616.88438, 1.75905, 2.38125, FORT MCMURRAY AP ANN HTG 99.6% CONDNS DB, 1/21 10:00:00, -36.20000, 1.25811E-004, 1875.00000, 187.49386, 2.38125, 0.00000
 Zone Sizing Information, HOSPITAL - MEDICAL SUPPLY - OCCSENS-SPACE FUNCTION ZN, Cooling, 29097.20613, 33461.78705, 2.47386, 2.85750, FORT MCMURRAY AP ANN CLG .4% CONDNS DB=>MWB, 7/21 20:40:00, 21.95600, 8.76969E-003, 1875.00000, 93.84784, 2.85750, 0.00000
 Zone Sizing Information, HOSPITAL - MEDICAL SUPPLY - OCCSENS-SPACE FUNCTION ZN, Heating, 0.00000, 0.00000, 0.00000, 2.85750, FORT MCMURRAY AP ANN HTG 99.6% CONDNS DB, , -36.20000, 1.25811E-004, 1875.00000, 93.84784, 2.85750, 0.00000
 Zone Sizing Information, HOSPITAL - MEDICAL SUPPLY-SPACE FUNCTION ZN, Cooling, 49278.40077, 56670.16088, 4.18965, 4.81810, FORT MCMURRAY AP ANN CLG .4% CONDNS DB=>MWB, 7/21 14:20:00, 28.90000, 8.76969E-003, 1875.00000, 93.84784, 2.85750, 0.00000
 Zone Sizing Information, HOSPITAL - MEDICAL SUPPLY-SPACE FUNCTION ZN, Heating, 0.00000, 0.00000, 0.00000, 2.85750, FORT MCMURRAY AP ANN HTG 99.6% CONDNS DB, , -36.20000, 1.25811E-004, 1875.00000, 93.84784, 2.85750, 0.00000
 Zone Sizing Information, HOSPITAL - NURSERY-SPACE FUNCTION ZN, Cooling, 60675.38931, 69776.69770, 5.15862, 5.93242, FORT MCMURRAY AP ANN CLG .4% CONDNS DB=>MWB, 7/21 09:40:00, 23.48533, 8.76969E-003, 1875.00000, 93.84784, 2.85750, 0.00000
 Zone Sizing Information, HOSPITAL - NURSERY-SPACE FUNCTION ZN, Heating, 0.00000, 0.00000, 0.00000, 2.85750, FORT MCMURRAY AP ANN HTG 99.6% CONDNS DB, , -36.20000, 1.25811E-004, 1875.00000, 93.84784, 2.85750, 0.00000
 Zone Sizing Information, HOSPITAL - NURSES STATION-SPACE FUNCTION ZN, Cooling, 23226.88599, 26710.91888, 1.97464, 2.85750, FORT MCMURRAY AP ANN CLG .4% CONDNS DB=>MWB, 7/21 06:50:00, 17.47133, 8.76969E-003, 1875.00000, 93.84784, 2.85750, 0.00000
 Zone Sizing Information, HOSPITAL - NURSES STATION-SPACE FUNCTION ZN, Heating, 0.00000, 0.00000, 0.00000, 2.85750, FORT MCMURRAY AP ANN HTG 99.6% CONDNS DB, , -36.20000, 1.25811E-004, 1875.00000, 93.84784, 2.85750, 0.00000
 Zone Sizing Information, HOSPITAL - OPERATING ROOM-SPACE FUNCTION ZN, Cooling, 116579.58617, 134066.52409, 9.91157, 11.43000, FORT MCMURRAY AP ANN CLG .4% CONDNS DB=>MWB, 7/21 13:40:00, 28.69333, 8.76969E-003, 2500.00000, 125.13046, 11.43000, 0.00000
 Zone Sizing Information, HOSPITAL - OPERATING ROOM-SPACE FUNCTION ZN, Heating, 0.00000, 0.00000, 0.00000, 11.43000, FORT MCMURRAY AP ANN HTG 99.6% CONDNS DB, , -36.20000, 1.25811E-004, 2500.00000, 125.13046, 11.43000, 0.00000
 Zone Sizing Information, HOSPITAL - PATIENT ROOM-SPACE FUNCTION ZN, Cooling, 33508.61496, 38534.90720, 2.84892, 3.27626, FORT MCMURRAY AP ANN CLG .4% CONDNS DB=>MWB, 7/21 12:10:00, 27.45333, 8.76969E-003, 1875.00000, 93.84784, 2.85750, 0.00000
 Zone Sizing Information, HOSPITAL - PATIENT ROOM-SPACE FUNCTION ZN, Heating, 0.00000, 0.00000, 0.00000, 2.85750, FORT MCMURRAY AP ANN HTG 99.6% CONDNS DB, , -36.20000, 1.25811E-004, 1875.00000, 93.84784, 2.85750, 0.00000
 Zone Sizing Information, HOSPITAL - PHARMACY-SPACE FUNCTION ZN, Cooling, 26765.16686, 30779.94189, 2.27554, 4.28625, FORT MCMURRAY AP ANN CLG .4% CONDNS DB=>MWB, 7/21 17:00:00, 27.16400, 8.76969E-003, 1875.00000, 93.84784, 4.28625, 0.00000
 Zone Sizing Information, HOSPITAL - PHARMACY-SPACE FUNCTION ZN, Heating, 0.00000, 0.00000, 0.00000, 4.28625, FORT MCMURRAY AP ANN HTG 99.6% CONDNS DB, , -36.20000, 1.25811E-004, 1875.00000, 93.84784, 4.28625, 0.00000
 Zone Sizing Information, HOSPITAL - PHYSICAL THERAPY-SPACE FUNCTION ZN, Cooling, 40668.69720, 46769.00178, 3.45760, 5.71500, FORT MCMURRAY AP ANN CLG .4% CONDNS DB=>MWB, 7/21 17:00:00, 27.16400, 8.76969E-003, 2500.00000, 125.13046, 5.71500, 0.00000
 Zone Sizing Information, HOSPITAL - PHYSICAL THERAPY-SPACE FUNCTION ZN, Heating, 0.00000, 0.00000, 0.00000, 5.71500, FORT MCMURRAY AP ANN HTG 99.6% CONDNS DB, , -36.20000, 1.25811E-004, 2500.00000, 125.13046, 5.71500, 0.00000
 Zone Sizing Information, HOSPITAL - RADIOLOGY/IMAGING-SPACE FUNCTION ZN, Cooling, 62938.50455, 72379.28024, 5.35103, 6.15368, FORT MCMURRAY AP ANN CLG .4% CONDNS DB=>MWB, 7/21 18:10:00, 25.61400, 8.76969E-003, 1875.00000, 93.84784, 4.28625, 0.00000
 Zone Sizing Information, HOSPITAL - RADIOLOGY/IMAGING-SPACE FUNCTION ZN, Heating, 0.00000, 0.00000, 0.00000, 4.28625, FORT MCMURRAY AP ANN HTG 99.6% CONDNS DB, , -36.20000, 1.25811E-004, 1875.00000, 93.84784, 4.28625, 0.00000
 Zone Sizing Information, HOSPITAL - RECOVERY-SPACE FUNCTION ZN, Cooling, 57298.79937, 65893.61928, 4.87147, 8.57250, FORT MCMURRAY AP ANN CLG .4% CONDNS DB=>MWB, 7/21 09:20:00, 22.78267, 8.76969E-003, 1875.00000, 93.84784, 8.57250, 0.00000
 Zone Sizing Information, HOSPITAL - RECOVERY-SPACE FUNCTION ZN, Heating, 0.00000, 0.00000, 0.00000, 8.57250, FORT MCMURRAY AP ANN HTG 99.6% CONDNS DB, , -36.20000, 1.25811E-004, 1875.00000, 93.84784, 8.57250, 0.00000
 Zone Sizing Information, HOSPITAL CORR. < 2.4M-SCH-A-SPACE FUNCTION ZN, Cooling, 26247.40482, 30184.51554, 2.23136, 2.56606, FORT MCMURRAY AP ANN CLG .4% CONDNS DB=>MWB, 7/21 16:00:00, 28.15600, 8.76969E-003, 1875.00000, 18.76957, 1.42875, 0.00000
 Zone Sizing Information, HOSPITAL CORR. < 2.4M-SCH-A-SPACE FUNCTION ZN, Heating, 0.00000, 0.00000, 0.00000, 1.42875, FORT MCMURRAY AP ANN HTG 99.6% CONDNS DB, , -36.20000, 1.25811E-004, 1875.00000, 18.76957, 1.42875, 0.00000
 Zone Sizing Information, HOSPITAL CORR. < 2.4M-SCH-B-SPACE FUNCTION ZN, Cooling, 35198.37943, 40478.13634, 2.99230, 3.44114, FORT MCMURRAY AP ANN CLG .4% CONDNS DB=>MWB, 7/21 13:40:00, 28.69333, 8.76969E-003, 1875.00000, 18.76957, 1.42875, 0.00000
 Zone Sizing Information, HOSPITAL CORR. < 2.4M-SCH-B-SPACE FUNCTION ZN, Heating, 0.00000, 0.00000, 0.00000, 1.42875, FORT MCMURRAY AP ANN HTG 99.6% CONDNS DB, , -36.20000, 1.25811E-004, 1875.00000, 18.76957, 1.42875, 0.00000
 Zone Sizing Information, HOSPITAL CORR. < 2.4M-SCH-C-SPACE FUNCTION ZN, Cooling, 41433.29952, 47648.29445, 3.52234, 4.05069, FORT MCMURRAY AP ANN CLG .4% CONDNS DB=>MWB, 7/21 17:00:00, 27.16400, 8.76969E-003, 2500.00000, 25.02609, 1.90500, 0.00000
 Zone Sizing Information, HOSPITAL CORR. < 2.4M-SCH-C-SPACE FUNCTION ZN, Heating, 0.00000, 0.00000, 0.00000, 1.90500, FORT MCMURRAY AP ANN HTG 99.6% CONDNS DB, , -36.20000, 1.25811E-004, 2500.00000, 25.02609, 1.90500, 0.00000
 Zone Sizing Information, HOSPITAL CORR. < 2.4M-SCH-D-SPACE FUNCTION ZN, Cooling, 30828.78357, 35453.10110, 2.35420, 2.70733, FORT MCMURRAY AP ANN CLG .4% CONDNS DB=>MWB, 7/21 08:00:00, 19.72400, 8.76969E-003, 2500.00000, 25.02609, 1.90500, 0.00000
 Zone Sizing Information, HOSPITAL CORR. < 2.4M-SCH-D-SPACE FUNCTION ZN, Heating, 0.00000, 0.00000, 0.00000, 1.90500, FORT MCMURRAY AP ANN HTG 99.6% CONDNS DB, , -36.20000, 1.25811E-004, 2500.00000, 25.02609, 1.90500, 0.00000
! <Component Sizing Information>, Component Type, Component Name, Input Field Description, Value
 Component Sizing Information, ZoneHVAC:IdealLoadsAirSystem, ZONE HVAC IDEAL LOADS AIR SYSTEM 1, User-Specified Maximum Heating Air Flow Rate [m3/s], 0.00000
 Component Sizing Information, ZoneHVAC:IdealLoadsAirSystem, ZONE HVAC IDEAL LOADS AIR SYSTEM 1, User-Specified Maximum Cooling Air Flow Rate [m3/s], 0.00000
 Component Sizing Information, ZoneHVAC:IdealLoadsAirSystem, ZONE HVAC IDEAL LOADS AIR SYSTEM 2, User-Specified Maximum Heating Air Flow Rate [m3/s], 0.00000
 Component Sizing Information, ZoneHVAC:IdealLoadsAirSystem, ZONE HVAC IDEAL LOADS AIR SYSTEM 2, User-Specified Maximum Cooling Air Flow Rate [m3/s], 0.00000
 Component Sizing Information, ZoneHVAC:IdealLoadsAirSystem, ZONE HVAC IDEAL LOADS AIR SYSTEM 3, User-Specified Maximum Heating Air Flow Rate [m3/s], 0.00000
 Component Sizing Information, ZoneHVAC:IdealLoadsAirSystem, ZONE HVAC IDEAL LOADS AIR SYSTEM 3, User-Specified Maximum Cooling Air Flow Rate [m3/s], 0.00000
 Component Sizing Information, ZoneHVAC:IdealLoadsAirSystem, ZONE HVAC IDEAL LOADS AIR SYSTEM 4, User-Specified Maximum Heating Air Flow Rate [m3/s], 0.00000
 Component Sizing Information, ZoneHVAC:IdealLoadsAirSystem, ZONE HVAC IDEAL LOADS AIR SYSTEM 4, User-Specified Maximum Cooling Air Flow Rate [m3/s], 0.00000
 Component Sizing Information, ZoneHVAC:IdealLoadsAirSystem, ZONE HVAC IDEAL LOADS AIR SYSTEM 5, User-Specified Maximum Heating Air Flow Rate [m3/s], 0.00000
 Component Sizing Information, ZoneHVAC:IdealLoadsAirSystem, ZONE HVAC IDEAL LOADS AIR SYSTEM 5, User-Specified Maximum Cooling Air Flow Rate [m3/s], 0.00000
 Component Sizing Information, ZoneHVAC:IdealLoadsAirSystem, ZONE HVAC IDEAL LOADS AIR SYSTEM 6, User-Specified Maximum Heating Air Flow Rate [m3/s], 0.00000
 Component Sizing Information, ZoneHVAC:IdealLoadsAirSystem, ZONE HVAC IDEAL LOADS AIR SYSTEM 6, User-Specified Maximum Cooling Air Flow Rate [m3/s], 0.00000
 Component Sizing Information, ZoneHVAC:IdealLoadsAirSystem, ZONE HVAC IDEAL LOADS AIR SYSTEM 7, User-Specified Maximum Heating Air Flow Rate [m3/s], 0.00000
 Component Sizing Information, ZoneHVAC:IdealLoadsAirSystem, ZONE HVAC IDEAL LOADS AIR SYSTEM 7, User-Specified Maximum Cooling Air Flow Rate [m3/s], 0.00000
 Component Sizing Information, ZoneHVAC:IdealLoadsAirSystem, ZONE HVAC IDEAL LOADS AIR SYSTEM 8, User-Specified Maximum Heating Air Flow Rate [m3/s], 0.00000
 Component Sizing Information, ZoneHVAC:IdealLoadsAirSystem, ZONE HVAC IDEAL LOADS AIR SYSTEM 8, User-Specified Maximum Cooling Air Flow Rate [m3/s], 0.00000
 Component Sizing Information, ZoneHVAC:IdealLoadsAirSystem, ZONE HVAC IDEAL LOADS AIR SYSTEM 9, User-Specified Maximum Heating Air Flow Rate [m3/s], 0.00000
 Component Sizing Information, ZoneHVAC:IdealLoadsAirSystem, ZONE HVAC IDEAL LOADS AIR SYSTEM 9, User-Specified Maximum Cooling Air Flow Rate [m3/s], 0.00000
 Component Sizing Information, ZoneHVAC:IdealLoadsAirSystem, ZONE HVAC IDEAL LOADS AIR SYSTEM 10, User-Specified Maximum Heating Air Flow Rate [m3/s], 0.00000
 Component Sizing Information, ZoneHVAC:IdealLoadsAirSystem, ZONE HVAC IDEAL LOADS AIR SYSTEM 10, User-Specified Maximum Cooling Air Flow Rate [m3/s], 0.00000
 Component Sizing Information, ZoneHVAC:IdealLoadsAirSystem, ZONE HVAC IDEAL LOADS AIR SYSTEM 11, User-Specified Maximum Heating Air Flow Rate [m3/s], 0.00000
 Component Sizing Information, ZoneHVAC:IdealLoadsAirSystem, ZONE HVAC IDEAL LOADS AIR SYSTEM 11, User-Specified Maximum Cooling Air Flow Rate [m3/s], 0.00000
 Component Sizing Information, ZoneHVAC:IdealLoadsAirSystem, ZONE HVAC IDEAL LOADS AIR SYSTEM 12, User-Specified Maximum Heating Air Flow Rate [m3/s], 0.00000
 Component Sizing Information, ZoneHVAC:IdealLoadsAirSystem, ZONE HVAC IDEAL LOADS AIR SYSTEM 12, User-Specified Maximum Cooling Air Flow Rate [m3/s], 0.00000
 Component Sizing Information, ZoneHVAC:IdealLoadsAirSystem, ZONE HVAC IDEAL LOADS AIR SYSTEM 13, User-Specified Maximum Heating Air Flow Rate [m3/s], 0.00000
 Component Sizing Information, ZoneHVAC:IdealLoadsAirSystem, ZONE HVAC IDEAL LOADS AIR SYSTEM 13, User-Specified Maximum Cooling Air Flow Rate [m3/s], 0.00000
 Component Sizing Information, ZoneHVAC:IdealLoadsAirSystem, ZONE HVAC IDEAL LOADS AIR SYSTEM 14, User-Specified Maximum Heating Air Flow Rate [m3/s], 0.00000
 Component Sizing Information, ZoneHVAC:IdealLoadsAirSystem, ZONE HVAC IDEAL LOADS AIR SYSTEM 14, User-Specified Maximum Cooling Air Flow Rate [m3/s], 0.00000
 Component Sizing Information, ZoneHVAC:IdealLoadsAirSystem, ZONE HVAC IDEAL LOADS AIR SYSTEM 15, User-Specified Maximum Heating Air Flow Rate [m3/s], 0.00000
 Component Sizing Information, ZoneHVAC:IdealLoadsAirSystem, ZONE HVAC IDEAL LOADS AIR SYSTEM 15, User-Specified Maximum Cooling Air Flow Rate [m3/s], 0.00000
 Component Sizing Information, ZoneHVAC:IdealLoadsAirSystem, ZONE HVAC IDEAL LOADS AIR SYSTEM 16, User-Specified Maximum Heating Air Flow Rate [m3/s], 0.00000
 Component Sizing Information, ZoneHVAC:IdealLoadsAirSystem, ZONE HVAC IDEAL LOADS AIR SYSTEM 16, User-Specified Maximum Cooling Air Flow Rate [m3/s], 0.00000
 Component Sizing Information, ZoneHVAC:IdealLoadsAirSystem, ZONE HVAC IDEAL LOADS AIR SYSTEM 17, User-Specified Maximum Heating Air Flow Rate [m3/s], 0.00000
 Component Sizing Information, ZoneHVAC:IdealLoadsAirSystem, ZONE HVAC IDEAL LOADS AIR SYSTEM 17, User-Specified Maximum Cooling Air Flow Rate [m3/s], 0.00000
 Component Sizing Information, ZoneHVAC:IdealLoadsAirSystem, ZONE HVAC IDEAL LOADS AIR SYSTEM 18, User-Specified Maximum Heating Air Flow Rate [m3/s], 0.00000
 Component Sizing Information, ZoneHVAC:IdealLoadsAirSystem, ZONE HVAC IDEAL LOADS AIR SYSTEM 18, User-Specified Maximum Cooling Air Flow Rate [m3/s], 0.00000
 Component Sizing Information, ZoneHVAC:IdealLoadsAirSystem, ZONE HVAC IDEAL LOADS AIR SYSTEM 19, User-Specified Maximum Heating Air Flow Rate [m3/s], 0.00000
 Component Sizing Information, ZoneHVAC:IdealLoadsAirSystem, ZONE HVAC IDEAL LOADS AIR SYSTEM 19, User-Specified Maximum Cooling Air Flow Rate [m3/s], 0.00000
 Component Sizing Information, ZoneHVAC:IdealLoadsAirSystem, ZONE HVAC IDEAL LOADS AIR SYSTEM 20, User-Specified Maximum Heating Air Flow Rate [m3/s], 0.00000
 Component Sizing Information, ZoneHVAC:IdealLoadsAirSystem, ZONE HVAC IDEAL LOADS AIR SYSTEM 20, User-Specified Maximum Cooling Air Flow Rate [m3/s], 0.00000
! <Environment>,Environment Name,Environment Type, Start Date, End Date, Start DayOfWeek, Duration {#days}, Source:Start DayOfWeek,  Use Daylight Saving, Use Holidays, Apply Weekend Holiday Rule,  Use Rain Values, Use Snow Values
! <Environment:Special Days>, Special Day Name, Special Day Type, Source, Start Date, Duration {#days}
! <Environment:Daylight Saving>, Daylight Saving Indicator, Source, Start Date, End Date
! <Environment:WarmupDays>, NumberofWarmupDays
Environment,FORT MCMURRAY AP ANN CLG .4% CONDNS DB=>MWB,SizingPeriod:DesignDay,07/21,07/21,SummerDesignDay,1,N/A,N/A,N/A,N/A,N/A,N/A
Environment:Daylight Saving,No,SizingPeriod:DesignDay
! <Environment:Design Day Data>, Max Dry-Bulb Temp {C}, Temp Range {dC}, Temp Range Ind Type, Hum Ind Value at Max Temp, Hum Ind Type,Pressure {Pa}, Wind Direction {deg CW from N}, Wind Speed {m/s}, Clearness, Rain, Snow
! <Environment:Design Day Misc>,DayOfYear,ASHRAE A Coeff,ASHRAE B Coeff,ASHRAE C Coeff,Solar Constant-Annual Variation,Eq of Time {minutes}, Solar Declination Angle {deg}, Solar Model
Environment:Design Day Data,28.90,12.40,DefaultMultipliers,96969,250,3.7,0.00,No,No
Environment:Design Day Misc,202,1084.4,0.2082,0.1365,1.0,-6.23,20.6,ASHRAETau
Environment:WarmupDays,  6
! <Tabular Report>,Style,Unit Conversion
Tabular Report,HTML,None
! <Warmup Convergence Information>,Zone Name,Environment Type/Name,Average Warmup Temperature Difference {deltaC},Std Dev Warmup Temperature Difference {deltaC},Max Temperature Pass/Fail Convergence,Min Temperature Pass/Fail Convergence,Average Warmup Load Difference {W},Std Dev Warmup Load Difference {W},Heating Load Pass/Fail Convergence,Cooling Load Pass/Fail Convergence
 Warmup Convergence Information,GYM - FITNESS-SPACE FUNCTION ZN,SizingPeriod: FORT MCMURRAY AP ANN CLG .4% CONDNS DB=>MWB,6.5111294742E-002,0.1224890241,Pass,Pass,3.1949025993E-002,5.7132553735E-002,Pass,Pass
 Warmup Convergence Information,GYM - PLAY-SPACE FUNCTION ZN,SizingPeriod: FORT MCMURRAY AP ANN CLG .4% CONDNS DB=>MWB,6.9307538936E-002,0.2283583229,Pass,Pass,3.3210090363E-002,8.5215616334E-002,Pass,Pass
 Warmup Convergence Information,HOSPITAL - EMERGENCY-SPACE FUNCTION ZN,SizingPeriod: FORT MCMURRAY AP ANN CLG .4% CONDNS DB=>MWB,1.5248621359E-003,5.8828407034E-003,Pass,Pass,1.1594113234E-002,8.4017549111E-003,Pass,Pass
 Warmup Convergence Information,HOSPITAL - EXAM-SPACE FUNCTION ZN,SizingPeriod: FORT MCMURRAY AP ANN CLG .4% CONDNS DB=>MWB,3.0814699112E-002,6.1507062354E-002,Pass,Pass,3.3421742677E-002,0.1627306474,Pass,Pass
 Warmup Convergence Information,HOSPITAL - LAUNDRY/WASHING-SPACE FUNCTION ZN,SizingPeriod: FORT MCMURRAY AP ANN CLG .4% CONDNS DB=>MWB,3.6378392111E-002,7.9548899336E-002,Pass,Pass,3.1013908230E-002,0.1355835327,Pass,Pass
 Warmup Convergence Information,HOSPITAL - LOUNGE/RECREATION-SPACE FUNCTION ZN,SizingPeriod: FORT MCMURRAY AP ANN CLG .4% CONDNS DB=>MWB,3.4131696570E-002,6.6901166839E-002,Pass,Pass,2.6955187256E-002,3.9546065133E-002,Pass,Pass
 Warmup Convergence Information,HOSPITAL - MEDICAL SUPPLY - OCCSENS-SPACE FUNCTION ZN,SizingPeriod: FORT MCMURRAY AP ANN CLG .4% CONDNS DB=>MWB,5.0971572642E-014,3.3697029478E-014,Pass,Pass,1.5187768869E-003,8.6550858368E-004,Pass,Pass
 Warmup Convergence Information,HOSPITAL - MEDICAL SUPPLY-SPACE FUNCTION ZN,SizingPeriod: FORT MCMURRAY AP ANN CLG .4% CONDNS DB=>MWB,5.1539019965E-014,4.4097949770E-014,Pass,Pass,7.4945862625E-003,5.6711637528E-003,Pass,Pass
 Warmup Convergence Information,HOSPITAL - NURSERY-SPACE FUNCTION ZN,SizingPeriod: FORT MCMURRAY AP ANN CLG .4% CONDNS DB=>MWB,6.6341993627E-014,4.9996074138E-014,Pass,Pass,5.3040911035E-003,4.2736611466E-003,Pass,Pass
 Warmup Convergence Information,HOSPITAL - NURSES STATION-SPACE FUNCTION ZN,SizingPeriod: FORT MCMURRAY AP ANN CLG .4% CONDNS DB=>MWB,6.7077118050E-003,1.4235641743E-002,Pass,Pass,3.5389169915E-003,6.8932468954E-003,Pass,Pass
 Warmup Convergence Information,HOSPITAL - OPERATING ROOM-SPACE FUNCTION ZN,SizingPeriod: FORT MCMURRAY AP ANN CLG .4% CONDNS DB=>MWB,3.0685477796E-002,5.6233712160E-002,Pass,Pass,9.8163144723E-003,9.8944072877E-003,Pass,Pass
 Warmup Convergence Information,HOSPITAL - PATIENT ROOM-SPACE FUNCTION ZN,SizingPeriod: FORT MCMURRAY AP ANN CLG .4% CONDNS DB=>MWB,4.8134336023E-014,3.9724584196E-014,Pass,Pass,1.2670979954E-003,1.1861175892E-003,Pass,Pass
 Warmup Convergence Information,HOSPITAL - PHARMACY-SPACE FUNCTION ZN,SizingPeriod: FORT MCMURRAY AP ANN CLG .4% CONDNS DB=>MWB,4.3585570331E-002,7.0477353638E-002,Pass,Pass,2.9867687804E-002,6.4953832179E-002,Pass,Pass
 Warmup Convergence Information,HOSPITAL - PHYSICAL THERAPY-SPACE FUNCTION ZN,SizingPeriod: FORT MCMURRAY AP ANN CLG .4% CONDNS DB=>MWB,4.5026156790E-002,7.8779580605E-002,Pass,Pass,2.6996409107E-002,6.2346737547E-002,Pass,Pass
 Warmup Convergence Information,HOSPITAL - RADIOLOGY/IMAGING-SPACE FUNCTION ZN,SizingPeriod: FORT MCMURRAY AP ANN CLG .4% CONDNS DB=>MWB,5.8767805437E-014,5.0830704357E-014,Pass,Pass,4.9222969600E-003,5.0629638608E-003,Pass,Pass
 Warmup Convergence Information,HOSPITAL - RECOVERY-SPACE FUNCTION ZN,SizingPeriod: FORT MCMURRAY AP ANN CLG .4% CONDNS DB=>MWB,2.5872300964E-002,4.2523432605E-002,Pass,Pass,5.4900790365E-003,6.2986566106E-003,Pass,Pass
 Warmup Convergence Information,HOSPITAL CORR. < 2.4M-SCH-A-SPACE FUNCTION ZN,SizingPeriod: FORT MCMURRAY AP ANN CLG .4% CONDNS DB=>MWB,1.7586825259E-002,4.2677822504E-002,Pass,Pass,2.9098546711E-002,0.1495148302,Pass,Pass
 Warmup Convergence Information,HOSPITAL CORR. < 2.4M-SCH-B-SPACE FUNCTION ZN,SizingPeriod: FORT MCMURRAY AP ANN CLG .4% CONDNS DB=>MWB,1.4128676236E-002,3.5049152988E-002,Pass,Pass,2.2955813205E-002,7.8857857470E-002,Pass,Pass
 Warmup Convergence Information,HOSPITAL CORR. < 2.4M-SCH-C-SPACE FUNCTION ZN,SizingPeriod: FORT MCMURRAY AP ANN CLG .4% CONDNS DB=>MWB,1.9521415704E-002,5.8001900684E-002,Pass,Pass,3.3813668552E-002,0.2152882203,Pass,Pass
 Warmup Convergence Information,HOSPITAL CORR. < 2.4M-SCH-D-SPACE FUNCTION ZN,SizingPeriod: FORT MCMURRAY AP ANN CLG .4% CONDNS DB=>MWB,1.3435751032E-002,2.4065462843E-002,Pass,Pass,2.4010276920E-002,6.6122880657E-002,Pass,Pass
Environment,FORT MCMURRAY AP ANN HTG 99.6% CONDNS DB,SizingPeriod:DesignDay,01/21,01/21,WinterDesignDay,1,N/A,N/A,N/A,N/A,N/A,N/A
Environment:Daylight Saving,No,SizingPeriod:DesignDay
Environment:Design Day Data,-36.20,0.00,DefaultMultipliers,96969,90,1.0,0.00,No,No
Environment:Design Day Misc, 21,1229.0,0.1415,5.7310E-002,1.0,-11.15,-20.1,ASHRAEClearSky
Environment:WarmupDays,  6
 Warmup Convergence Information,GYM - FITNESS-SPACE FUNCTION ZN,SizingPeriod: FORT MCMURRAY AP ANN HTG 99.6% CONDNS DB,5.5555555556E-002,0.3906507774,Pass,Pass,0.1678118307,0.4661375840,Pass,Pass
 Warmup Convergence Information,GYM - PLAY-SPACE FUNCTION ZN,SizingPeriod: FORT MCMURRAY AP ANN HTG 99.6% CONDNS DB,5.5555555556E-002,0.3703799375,Pass,Pass,0.3767622587,2.0435211699,Pass,Pass
 Warmup Convergence Information,HOSPITAL - EMERGENCY-SPACE FUNCTION ZN,SizingPeriod: FORT MCMURRAY AP ANN HTG 99.6% CONDNS DB,5.5555555556E-002,0.3842296424,Pass,Pass,0.3406474029,2.1277741054,Pass,Pass
 Warmup Convergence Information,HOSPITAL - EXAM-SPACE FUNCTION ZN,SizingPeriod: FORT MCMURRAY AP ANN HTG 99.6% CONDNS DB,5.5555555556E-002,0.3669153197,Pass,Pass,0.2197647787,1.1459061757,Pass,Pass
 Warmup Convergence Information,HOSPITAL - LAUNDRY/WASHING-SPACE FUNCTION ZN,SizingPeriod: FORT MCMURRAY AP ANN HTG 99.6% CONDNS DB,5.5555555556E-002,0.3774462997,Pass,Pass,1.0196610554,9.0776607633,Pass,Pass
 Warmup Convergence Information,HOSPITAL - LOUNGE/RECREATION-SPACE FUNCTION ZN,SizingPeriod: FORT MCMURRAY AP ANN HTG 99.6% CONDNS DB,5.5555555556E-002,0.3659158259,Pass,Pass,8.6453827874E-002,0.2526408045,Pass,Pass
 Warmup Convergence Information,HOSPITAL - MEDICAL SUPPLY - OCCSENS-SPACE FUNCTION ZN,SizingPeriod: FORT MCMURRAY AP ANN HTG 99.6% CONDNS DB,5.5672410730E-002,0.3636320869,Pass,Pass,0.1305678472,0.7523656020,Pass,Pass
 Warmup Convergence Information,HOSPITAL - MEDICAL SUPPLY-SPACE FUNCTION ZN,SizingPeriod: FORT MCMURRAY AP ANN HTG 99.6% CONDNS DB,5.5555555556E-002,0.3654820471,Pass,Pass,0.7147398172,5.4189733020,Pass,Pass
 Warmup Convergence Information,HOSPITAL - NURSERY-SPACE FUNCTION ZN,SizingPeriod: FORT MCMURRAY AP ANN HTG 99.6% CONDNS DB,5.5628299166E-002,0.3643715927,Pass,Pass,0.2148883518,1.4328900525,Pass,Pass
 Warmup Convergence Information,HOSPITAL - NURSES STATION-SPACE FUNCTION ZN,SizingPeriod: FORT MCMURRAY AP ANN HTG 99.6% CONDNS DB,5.5604547494E-002,0.3645986770,Pass,Pass,2.4914229050,28.5796793174,Pass,Pass
 Warmup Convergence Information,HOSPITAL - OPERATING ROOM-SPACE FUNCTION ZN,SizingPeriod: FORT MCMURRAY AP ANN HTG 99.6% CONDNS DB,5.5555555556E-002,0.3902900025,Pass,Pass,0.3981469380,3.4561693826,Pass,Pass
 Warmup Convergence Information,HOSPITAL - PATIENT ROOM-SPACE FUNCTION ZN,SizingPeriod: FORT MCMURRAY AP ANN HTG 99.6% CONDNS DB,5.5735649656E-002,0.3626042234,Pass,Pass,8.4022069019E-002,0.3985075469,Pass,Pass
 Warmup Convergence Information,HOSPITAL - PHARMACY-SPACE FUNCTION ZN,SizingPeriod: FORT MCMURRAY AP ANN HTG 99.6% CONDNS DB,5.5555555556E-002,0.3774157207,Pass,Pass,0.3464841742,1.7688715492,Pass,Pass
 Warmup Convergence Information,HOSPITAL - PHYSICAL THERAPY-SPACE FUNCTION ZN,SizingPeriod: FORT MCMURRAY AP ANN HTG 99.6% CONDNS DB,5.5555555556E-002,0.3771277110,Pass,Pass,0.2618350620,1.3345603181,Pass,Pass
 Warmup Convergence Information,HOSPITAL - RADIOLOGY/IMAGING-SPACE FUNCTION ZN,SizingPeriod: FORT MCMURRAY AP ANN HTG 99.6% CONDNS DB,5.5555555556E-002,0.3755340456,Pass,Pass,9.7903221836E-002,0.5004495122,Pass,Pass
 Warmup Convergence Information,HOSPITAL - RECOVERY-SPACE FUNCTION ZN,SizingPeriod: FORT MCMURRAY AP ANN HTG 99.6% CONDNS DB,5.5555555556E-002,0.3901276240,Pass,Pass,0.1012217498,0.5348309156,Pass,Pass
 Warmup Convergence Information,HOSPITAL CORR. < 2.4M-SCH-A-SPACE FUNCTION ZN,SizingPeriod: FORT MCMURRAY AP ANN HTG 99.6% CONDNS DB,5.6963973821E-002,0.3435971981,Pass,Pass,0.1163116454,0.3397846257,Pass,Pass
 Warmup Convergence Information,HOSPITAL CORR. < 2.4M-SCH-B-SPACE FUNCTION ZN,SizingPeriod: FORT MCMURRAY AP ANN HTG 99.6% CONDNS DB,5.7011817939E-002,0.3436809277,Pass,Pass,0.1657835692,0.4680235403,Pass,Pass
 Warmup Convergence Information,HOSPITAL CORR. < 2.4M-SCH-C-SPACE FUNCTION ZN,SizingPeriod: FORT MCMURRAY AP ANN HTG 99.6% CONDNS DB,5.7407539700E-002,0.3395352011,Pass,Pass,0.3244836968,1.7423989156,Pass,Pass
 Warmup Convergence Information,HOSPITAL CORR. < 2.4M-SCH-D-SPACE FUNCTION ZN,SizingPeriod: FORT MCMURRAY AP ANN HTG 99.6% CONDNS DB,5.7378481763E-002,0.3402599674,Pass,Pass,0.2128732031,0.9626194394,Pass,Pass
! <Program Control Information:Threads/Parallel Sims>, Threading Supported,Maximum Number of Threads, Env Set Threads (OMP_NUM_THREADS), EP Env Set Threads (EP_OMP_NUM_THREADS), IDF Set Threads, Number of Threads Used (Interior Radiant Exchange), Number Nominal Surfaces, Number Parallel Sims
Program Control:Threads/Parallel Sims, No,1, N/A, N/A, N/A, N/A, N/A, N/A
End of Data
