Program Version,EnergyPlus, Version 8.9.0-eba93e8e1b, YMD=2019.03.28 14:21
! <Version>, Version ID
 Version, 8.9
! <Timesteps per Hour>, #TimeSteps, Minutes per TimeStep {minutes}
 Timesteps per Hour,  6, 10
! <System Convergence Limits>, Minimum System TimeStep {minutes}, Max HVAC Iterations, Minimum Plant Iterations, Maximum Plant Iterations
 System Convergence Limits, 1, 20, 2, 8
! <Simulation Control>, Do Zone Sizing, Do System Sizing, Do Plant Sizing, Do Design Days, Do Weather Simulation, Do HVAC Sizing Simulation
 Simulation Control, Yes, Yes, Yes, No, Yes, No
! <Output Reporting Tolerances>, Tolerance for Time Heating Setpoint Not Met, Tolerance for Zone Cooling Setpoint Not Met Time
 Output Reporting Tolerances, 1.000, 1.000, 
! <Site:GroundTemperature:BuildingSurface>,Jan{C},Feb{C},Mar{C},Apr{C},May{C},Jun{C},Jul{C},Aug{C},Sep{C},Oct{C},Nov{C},Dec{C}
 Site:GroundTemperature:BuildingSurface,  19.53,  19.50,  19.54,  19.60,  20.00,  21.64,  22.23,  22.38,  21.45,  20.12,  19.80,  19.63
! <Site:GroundTemperature:FCfactorMethod>,Jan{C},Feb{C},Mar{C},Apr{C},May{C},Jun{C},Jul{C},Aug{C},Sep{C},Oct{C},Nov{C},Dec{C}
 Site:GroundTemperature:FCfactorMethod, -12.27, -13.66, -11.19,  -7.33,   2.77,  10.57,  15.83,  17.43,  14.70,   8.65,   0.56,  -6.95
! <Site:GroundTemperature:Shallow>,Jan{C},Feb{C},Mar{C},Apr{C},May{C},Jun{C},Jul{C},Aug{C},Sep{C},Oct{C},Nov{C},Dec{C}
 Site:GroundTemperature:Shallow,  13.00,  13.00,  13.00,  13.00,  13.00,  13.00,  13.00,  13.00,  13.00,  13.00,  13.00,  13.00
! <Site:GroundTemperature:Deep>,Jan{C},Feb{C},Mar{C},Apr{C},May{C},Jun{C},Jul{C},Aug{C},Sep{C},Oct{C},Nov{C},Dec{C}
 Site:GroundTemperature:Deep,  16.00,  16.00,  16.00,  16.00,  16.00,  16.00,  16.00,  16.00,  16.00,  16.00,  16.00,  16.00
! <Site:GroundReflectance>,Jan{dimensionless},Feb{dimensionless},Mar{dimensionless},Apr{dimensionless},May{dimensionless},Jun{dimensionless},Jul{dimensionless},Aug{dimensionless},Sep{dimensionless},Oct{dimensionless},Nov{dimensionless},Dec{dimensionless}
 Site:GroundReflectance,  0.20,  0.20,  0.20,  0.20,  0.20,  0.20,  0.20,  0.20,  0.20,  0.20,  0.20,  0.20
! <Site:GroundReflectance:SnowModifier>, Normal, Daylighting {dimensionless}
 Site:GroundReflectance:SnowModifier,   1.000,   1.000
! <Site:GroundReflectance:Snow>,Jan{dimensionless},Feb{dimensionless},Mar{dimensionless},Apr{dimensionless},May{dimensionless},Jun{dimensionless},Jul{dimensionless},Aug{dimensionless},Sep{dimensionless},Oct{dimensionless},Nov{dimensionless},Dec{dimensionless}
 Site:GroundReflectance:Snow,  0.20,  0.20,  0.20,  0.20,  0.20,  0.20,  0.20,  0.20,  0.20,  0.20,  0.20,  0.20
! <Site:GroundReflectance:Snow:Daylighting>,Jan{dimensionless},Feb{dimensionless},Mar{dimensionless},Apr{dimensionless},May{dimensionless},Jun{dimensionless},Jul{dimensionless},Aug{dimensionless},Sep{dimensionless},Oct{dimensionless},Nov{dimensionless},Dec{dimensionless}
 Site:GroundReflectance:Snow:Daylighting,  0.20,  0.20,  0.20,  0.20,  0.20,  0.20,  0.20,  0.20,  0.20,  0.20,  0.20,  0.20
! <Environment:Weather Station>,Wind Sensor Height Above Ground {m},Wind Speed Profile Exponent {},Wind Speed Profile Boundary Layer Thickness {m},Air Temperature Sensor Height Above Ground {m},Wind Speed Modifier Coefficient-Internal,Temperature Modifier Coefficient-Internal
Environment:Weather Station,10.000,0.140,270.000,1.500,1.586,9.750E-003
! <Site:Location>, Location Name, Latitude {N+/S- Deg}, Longitude {E+/W- Deg},  Time Zone Number {GMT+/-}, Elevation {m},  Standard Pressure at Elevation {Pa}, Standard RhoAir at Elevation
Site:Location,Fort McMurray AP AB CAN CWEC2016 WMO#=716890,56.65,-111.22,-7.00,369.10,96969,1.1525
! <Building Information>, Building Name,North Axis {deg},Terrain,  Loads Convergence Tolerance Value,Temperature Convergence Tolerance Value,  Solar Distribution,Maximum Number of Warmup Days,Minimum Number of Warmup Days
 Building Information,Building 1,0.000,Suburbs,4.00000E-002,0.40000,FullExterior,25,6
! <Inside Convection Algorithm>, Algorithm {Simple | TARP | CeilingDiffuser | AdaptiveConvectionAlgorithm}
Inside Convection Algorithm,TARP
! <Outside Convection Algorithm>, Algorithm {SimpleCombined | TARP | MoWitt | DOE-2 | AdaptiveConvectionAlgorithm}
Outside Convection Algorithm,TARP
! <Sky Radiance Distribution>, Value {Anisotropic}
Sky Radiance Distribution,Anisotropic
! <Zone Air Solution Algorithm>, Value {ThirdOrderBackwardDifference | AnalyticalSolution | EulerMethod}
 Zone Air Solution Algorithm, ThirdOrderBackwardDifference
! <Zone Air Carbon Dioxide Balance Simulation>, Simulation {Yes/No}, Carbon Dioxide Concentration
 Zone Air Carbon Dioxide Balance Simulation, No,N/A
! <Zone Air Generic Contaminant Balance Simulation>, Simulation {Yes/No}, Generic Contaminant Concentration
 Zone Air Generic Contaminant Balance Simulation, No,N/A
! <Zone Air Mass Flow Balance Simulation>, Enforce Mass Balance, Adjust Zone Mixing, Adjust Zone Infiltration {AddInfiltration | AdjustInfiltration | None}, Infiltration Zones {MixingSourceZonesOnly | AllZones}
 Zone Air Mass Flow Balance Simulation, No,N/A,N/A,N/A
! <HVACSystemRootFindingAlgorithm>, Value {RegulaFalsi | Bisection | BisectionThenRegulaFalsi | RegulaFalsiThenBisection}
 HVACSystemRootFindingAlgorithm, RegulaFalsi
! <Environment:Site Atmospheric Variation>,Wind Speed Profile Exponent {},Wind Speed Profile Boundary Layer Thickness {m},Air Temperature Gradient Coefficient {K/m}
Environment:Site Atmospheric Variation,0.220,370.000,6.500000E-003
! <Surface Geometry>,Starting Corner,Vertex Input Direction,Coordinate System,Daylight Reference Point Coordinate System,Rectangular (Simple) Surface Coordinate System
 Surface Geometry,UpperLeftCorner,Counterclockwise,RelativeCoordinateSystem,RelativeCoordinateSystem,RelativeToZoneOrigin
! <Surface Heat Transfer Algorithm>, Value {CTF - ConductionTransferFunction | EMPD - MoisturePenetrationDepthConductionTransferFunction | CondFD - ConductionFiniteDifference | HAMT - CombinedHeatAndMoistureFiniteElement} - Description,Inside Surface Max Temperature Limit{C}, Surface Convection Coefficient Lower Limit {W/m2-K}, Surface Convection Coefficient Upper Limit {W/m2-K}
Surface Heat Transfer Algorithm, CTF - ConductionTransferFunction,200,0.10,1000.0
! <Shading Summary>, Number of Fixed Detached Shades, Number of Building Detached Shades, Number of Attached Shades
 Shading Summary,0,0,0
! <Zone Summary>, Number of Zones, Number of Zone Surfaces, Number of SubSurfaces
 Zone Summary,20,137,17
! <Zone Information>,Zone Name,North Axis {deg},Origin X-Coordinate {m},Origin Y-Coordinate {m},Origin Z-Coordinate {m},Centroid X-Coordinate {m},Centroid Y-Coordinate {m},Centroid Z-Coordinate {m},Type,Zone Multiplier,Zone List Multiplier,Minimum X {m},Maximum X {m},Minimum Y {m},Maximum Y {m},Minimum Z {m},Maximum Z {m},Ceiling Height {m},Volume {m3},Zone Inside Convection Algorithm {Simple-Detailed-CeilingDiffuser-TrombeWall},Zone Outside Convection Algorithm {Simple-Detailed-Tarp-MoWitt-DOE-2-BLAST}, Floor Area {m2},Exterior Gross Wall Area {m2},Exterior Net Wall Area {m2},Exterior Window Area {m2}, Number of Surfaces, Number of SubSurfaces, Number of Shading SubSurfaces,  Part of Total Building Area
 Zone Information, SP-AUDIENCE SEATING AREA PERMANENT - OTHER-SCH-H-SPACE FUNCTION SYS-3 FLR-4 SCH-H HPLCMT-EAST ZN,0.0,75.00,25.00,11.40,89.15,50.00,13.30,1,1,1,75.00,100.00,0.00,100.00,11.40,15.20,3.80,7125.00,TARP,TARP,1875.00,380.00,285.00,132.50,6,2,0,Yes
 Zone Information, SP-AUDIENCE SEATING AREA PERMANENT - OTHER-SCH-I-SPACE FUNCTION SYS-3 FLR-4 SCH-I HPLCMT-NORTH ZN,0.0,25.00,75.00,11.40,50.00,89.15,13.30,1,1,1,0.00,100.00,75.00,100.00,11.40,15.20,3.80,7125.00,TARP,TARP,1875.00,380.00,285.00,132.50,6,2,0,Yes
 Zone Information, SP-AUDIENCE SEATING AREA PERMANENT - OTHER-SCH-J-SPACE FUNCTION SYS-3 FLR-4 SCH-J HPLCMT-WEST ZN,0.0,0.00,0.00,11.40,10.85,50.00,13.30,1,1,1,0.00,25.00,0.00,100.00,11.40,15.20,3.80,7125.00,TARP,TARP,1875.00,380.00,285.00,132.50,6,2,0,Yes
 Zone Information, SP-AUDIENCE SEATING AREA PERMANENT - OTHER-SCH-K-SPACE FUNCTION SYS-3 FLR-3 SCH-K HPLCMT-CORE ZN,0.0,25.00,25.00,7.60,50.00,50.00,9.50,1,1,1,25.00,75.00,25.00,75.00,7.60,11.40,3.80,9500.00,TARP,TARP,2500.00,0.00,0.00,0.00,6,0,0,Yes
 Zone Information, SP-BANKING ACTIVITY AREA AND OFFICES-SPACE FUNCTION SYS-6 FLR-3 SCH-A HPLCMT-SOUTH ZN,0.0,0.00,0.00,7.60,50.00,10.85,9.50,1,1,1,0.00,100.00,0.00,25.00,7.60,11.40,3.80,7125.00,TARP,TARP,1875.00,380.00,285.00,95.00,6,1,0,Yes
 Zone Information, SP-CLASSROOM/LECTURE HALL/TRAINING ROOM - PENITENTARY-SPACE FUNCTION SYS-3 FLR-3 SCH-D HPLCMT-NORTH ZN,0.0,25.00,75.00,7.60,50.00,89.15,9.50,1,1,1,0.00,100.00,75.00,100.00,7.60,11.40,3.80,7125.00,TARP,TARP,1875.00,380.00,285.00,95.00,6,1,0,Yes
 Zone Information, SP-CLASSROOM/LECTURE HALL/TRAINING ROOM OTHER-SPACE FUNCTION SYS-3 FLR-3 SCH-D HPLCMT-WEST ZN,0.0,0.00,0.00,7.60,10.85,50.00,9.50,1,1,1,0.00,25.00,0.00,100.00,7.60,11.40,3.80,7125.00,TARP,TARP,1875.00,380.00,285.00,95.00,6,1,0,Yes
 Zone Information, SP-CONFERENCE/MEETING/MULTI-PURPOSE ROOM-SPACE FUNCTION SYS-3 FLR-4 SCH-C HPLCMT-SOUTH ZN,0.0,0.00,0.00,11.40,50.00,10.85,13.30,1,1,1,0.00,100.00,0.00,25.00,11.40,15.20,3.80,7125.00,TARP,TARP,1875.00,380.00,285.00,132.50,6,2,0,Yes
 Zone Information, SP-CONFINEMENT CELL-SPACE FUNCTION SYS-3 FLR-3 SCH-G HPLCMT-EAST ZN,0.0,75.00,25.00,7.60,89.15,50.00,9.50,1,1,1,75.00,100.00,0.00,100.00,7.60,11.40,3.80,7125.00,TARP,TARP,1875.00,380.00,285.00,95.00,6,1,0,Yes
 Zone Information, SP-COPY/PRINT ROOM-SPACE FUNCTION SYS-3 FLR-1 SCH-A HPLCMT-WEST ZN,0.0,0.00,0.00,0.00,10.85,50.00,1.90,1,1,1,0.00,25.00,0.00,100.00,0.00,3.80,3.80,7125.00,TARP,TARP,1875.00,0.00,0.00,0.00,6,0,0,Yes
 Zone Information, SP-COURTROOM-SPACE FUNCTION SYS-3 FLR-1 SCH-A HPLCMT-NORTH ZN,0.0,25.00,75.00,0.00,50.00,89.15,1.90,1,1,1,0.00,100.00,75.00,100.00,0.00,3.80,3.80,7125.00,TARP,TARP,1875.00,0.00,0.00,0.00,6,0,0,Yes
 Zone Information, SP-DINING AREA - BAR LOUNGE/LEISURE DINING-SPACE FUNCTION SYS-3 FLR-4 SCH-B HPLCMT-CORE ZN,0.0,25.00,25.00,11.40,50.00,50.00,13.30,1,1,1,25.00,75.00,25.00,75.00,11.40,15.20,3.80,9500.00,TARP,TARP,2500.00,0.00,0.00,50.00,6,1,0,Yes
 Zone Information, SP-DINING AREA - CAFETERIA/FAST FOOD DINING-SPACE FUNCTION SYS-3 FLR-2 SCH-B HPLCMT-EAST ZN,0.0,75.00,25.00,3.80,89.15,50.00,5.70,1,1,1,75.00,100.00,0.00,100.00,3.80,7.60,3.80,7125.00,TARP,TARP,1875.00,380.00,285.00,95.00,6,1,0,Yes
 Zone Information, SP-DINING AREA - FAMILY DINING-SPACE FUNCTION SYS-3 FLR-1 SCH-B HPLCMT-SOUTH ZN,0.0,0.00,0.00,0.00,50.00,10.85,1.90,1,1,1,0.00,100.00,0.00,25.00,0.00,3.80,3.80,7125.00,TARP,TARP,1875.00,0.00,0.00,0.00,6,0,0,Yes
 Zone Information, SP-DINING AREA - OTHER-SPACE FUNCTION SYS-3 FLR-1 SCH-B HPLCMT-EAST ZN,0.0,75.00,25.00,0.00,89.15,50.00,1.90,1,1,1,75.00,100.00,0.00,100.00,0.00,3.80,3.80,7125.00,TARP,TARP,1875.00,0.00,0.00,0.00,6,0,0,Yes
 Zone Information, SP-DINING AREA - PENITENTIARY-SPACE FUNCTION SYS-3 FLR-2 SCH-B HPLCMT-WEST ZN,0.0,0.00,0.00,3.80,10.85,50.00,5.70,1,1,1,0.00,25.00,0.00,100.00,3.80,7.60,3.80,7125.00,TARP,TARP,1875.00,380.00,285.00,95.00,6,1,0,Yes
 Zone Information, SP-DINING AREA - SPACE DESIGNED TO ANSI/IES RP-28 (USED PRIMARILY BY RESIDENTS)-SPACE FUNCTION SYS-3 FLR-2 SCH-B HPLCMT-CORE ZN,0.0,25.00,25.00,3.80,50.00,50.00,5.70,1,1,1,25.00,75.00,25.00,75.00,3.80,7.60,3.80,9500.00,TARP,TARP,2500.00,0.00,0.00,0.00,6,0,0,Yes
 Zone Information, SP-DRESSING/FITTING ROOM - PERFORMING ARTS THEATRE-SPACE FUNCTION SYS-3 FLR-1 SCH-C HPLCMT-CORE ZN,0.0,25.00,25.00,0.00,50.00,50.00,1.90,1,1,1,25.00,75.00,25.00,75.00,0.00,3.80,3.80,9500.00,TARP,TARP,2500.00,0.00,0.00,0.00,6,0,0,Yes
 Zone Information, SP-EMERGENCY VEHICLE GARAGE-SPACE FUNCTION SYS-4 FLR-2 SCH-H HPLCMT-NORTH ZN,0.0,25.00,75.00,3.80,50.00,89.15,5.70,1,1,1,0.00,100.00,75.00,100.00,3.80,7.60,3.80,7125.00,TARP,TARP,1875.00,380.00,285.00,95.00,6,1,0,Yes
 Zone Information, SP-FOOD PREPARATION AREA-SPACE FUNCTION SYS-3 FLR-2 SCH-B HPLCMT-SOUTH ZN,0.0,0.00,0.00,3.80,50.00,10.85,5.70,1,1,1,0.00,100.00,0.00,25.00,3.80,7.60,3.80,7125.00,TARP,TARP,1875.00,380.00,285.00,95.00,6,1,0,Yes
! <Zone Internal Gains Nominal>,Zone Name, Floor Area {m2},# Occupants,Area per Occupant {m2/person},Occupant per Area {person/m2},Interior Lighting {W/m2},Electric Load {W/m2},Gas Load {W/m2},Other Load {W/m2},Hot Water Eq {W/m2},Steam Equipment {W/m2},Sum Loads per Area {W/m2},Outdoor Controlled Baseboard Heat
 Zone Internal Gains Nominal, SP-AUDIENCE SEATING AREA PERMANENT - OTHER-SCH-H-SPACE FUNCTION SYS-3 FLR-4 SCH-H HPLCMT-EAST ZN,1875.00,375.1,4.998,0.200,4.602,1.000,0.000,0.000,0.000,0.000,5.602,No
 Zone Internal Gains Nominal, SP-AUDIENCE SEATING AREA PERMANENT - OTHER-SCH-I-SPACE FUNCTION SYS-3 FLR-4 SCH-I HPLCMT-NORTH ZN,1875.00,375.1,4.998,0.200,4.602,1.000,0.000,0.000,0.000,0.000,5.602,No
 Zone Internal Gains Nominal, SP-AUDIENCE SEATING AREA PERMANENT - OTHER-SCH-J-SPACE FUNCTION SYS-3 FLR-4 SCH-J HPLCMT-WEST ZN,1875.00,375.1,4.998,0.200,4.602,1.000,0.000,0.000,0.000,0.000,5.602,No
 Zone Internal Gains Nominal, SP-AUDIENCE SEATING AREA PERMANENT - OTHER-SCH-K-SPACE FUNCTION SYS-3 FLR-3 SCH-K HPLCMT-CORE ZN,2500.00,500.2,4.998,0.200,4.602,1.000,0.000,0.000,0.000,0.000,5.602,No
 Zone Internal Gains Nominal, SP-BANKING ACTIVITY AREA AND OFFICES-SPACE FUNCTION SYS-6 FLR-3 SCH-A HPLCMT-SOUTH ZN,1875.00,75.0,24.991,4.001E-002,9.300,5.002,0.000,0.000,0.000,0.000,14.302,No
 Zone Internal Gains Nominal, SP-CLASSROOM/LECTURE HALL/TRAINING ROOM - PENITENTARY-SPACE FUNCTION SYS-3 FLR-3 SCH-D HPLCMT-NORTH ZN,1875.00,250.1,7.497,0.133,14.400,5.002,0.000,0.000,0.000,0.000,19.402,No
 Zone Internal Gains Nominal, SP-CLASSROOM/LECTURE HALL/TRAINING ROOM OTHER-SPACE FUNCTION SYS-3 FLR-3 SCH-D HPLCMT-WEST ZN,1875.00,250.1,7.497,0.133,10.300,5.002,0.000,0.000,0.000,0.000,15.302,No
 Zone Internal Gains Nominal, SP-CONFERENCE/MEETING/MULTI-PURPOSE ROOM-SPACE FUNCTION SYS-3 FLR-4 SCH-C HPLCMT-SOUTH ZN,1875.00,375.1,4.998,0.200,11.500,1.000,0.000,0.000,0.000,0.000,12.500,No
 Zone Internal Gains Nominal, SP-CONFINEMENT CELL-SPACE FUNCTION SYS-3 FLR-3 SCH-G HPLCMT-EAST ZN,1875.00,75.0,24.991,4.001E-002,8.700,0.000,0.000,0.000,0.000,0.000,8.700,No
 Zone Internal Gains Nominal, SP-COPY/PRINT ROOM-SPACE FUNCTION SYS-3 FLR-1 SCH-A HPLCMT-WEST ZN,1875.00,18.8,99.964,1.000E-002,6.000,60.022,0.000,0.000,0.000,0.000,66.022,No
 Zone Internal Gains Nominal, SP-COURTROOM-SPACE FUNCTION SYS-3 FLR-1 SCH-A HPLCMT-NORTH ZN,1875.00,375.1,4.998,0.200,15.000,2.501,0.000,0.000,0.000,0.000,17.501,No
 Zone Internal Gains Nominal, SP-DINING AREA - BAR LOUNGE/LEISURE DINING-SPACE FUNCTION SYS-3 FLR-4 SCH-B HPLCMT-CORE ZN,2500.00,250.1,9.996,0.100,10.000,1.000,0.000,0.000,0.000,0.000,11.000,No
 Zone Internal Gains Nominal, SP-DINING AREA - CAFETERIA/FAST FOOD DINING-SPACE FUNCTION SYS-3 FLR-2 SCH-B HPLCMT-EAST ZN,1875.00,187.6,9.996,0.100,6.800,1.000,0.000,0.000,0.000,0.000,7.800,No
 Zone Internal Gains Nominal, SP-DINING AREA - FAMILY DINING-SPACE FUNCTION SYS-3 FLR-1 SCH-B HPLCMT-SOUTH ZN,1875.00,187.6,9.996,0.100,7.600,1.000,0.000,0.000,0.000,0.000,8.600,No
 Zone Internal Gains Nominal, SP-DINING AREA - OTHER-SPACE FUNCTION SYS-3 FLR-1 SCH-B HPLCMT-EAST ZN,1875.00,187.6,9.996,0.100,6.800,1.000,0.000,0.000,0.000,0.000,7.800,No
 Zone Internal Gains Nominal, SP-DINING AREA - PENITENTIARY-SPACE FUNCTION SYS-3 FLR-2 SCH-B HPLCMT-WEST ZN,1875.00,187.6,9.996,0.100,10.304,1.000,0.000,0.000,0.000,0.000,11.304,No
 Zone Internal Gains Nominal, SP-DINING AREA - SPACE DESIGNED TO ANSI/IES RP-28 (USED PRIMARILY BY RESIDENTS)-SPACE FUNCTION SYS-3 FLR-2 SCH-B HPLCMT-CORE ZN,2500.00,250.1,9.996,0.100,21.500,1.000,0.000,0.000,0.000,0.000,22.500,No
 Zone Internal Gains Nominal, SP-DRESSING/FITTING ROOM - PERFORMING ARTS THEATRE-SPACE FUNCTION SYS-3 FLR-1 SCH-C HPLCMT-CORE ZN,2500.00,83.4,29.989,3.335E-002,6.602,2.501,0.000,0.000,0.000,0.000,9.103,No
 Zone Internal Gains Nominal, SP-EMERGENCY VEHICLE GARAGE-SPACE FUNCTION SYS-4 FLR-2 SCH-H HPLCMT-NORTH ZN,1875.00,75.0,24.991,4.001E-002,4.400,2.501,0.000,0.000,0.000,0.000,6.901,No
 Zone Internal Gains Nominal, SP-FOOD PREPARATION AREA-SPACE FUNCTION SYS-3 FLR-2 SCH-B HPLCMT-SOUTH ZN,1875.00,93.8,19.993,5.002E-002,11.400,10.004,0.000,0.000,0.000,0.000,21.404,No
! <People Internal Gains Nominal>,Name,Schedule Name,Zone Name,Zone Floor Area {m2},# Zone Occupants,Number of People {},People/Floor Area {person/m2},Floor Area per person {m2/person},Fraction Radiant,Fraction Convected,Sensible Fraction Calculation,Activity level,ASHRAE 55 Warnings,Carbon Dioxide Generation Rate,Nominal Minimum Number of People,Nominal Maximum Number of People
 People Internal Gains Nominal, SP-AUDIENCE SEATING AREA PERMANENT - OTHER-SCH-H-SPACE FUNCTION SYS-3 FLR-4 SCH-H HPLCMT-EAST ZN SPACE FUNCTION AUDIENCE SEATING AREA PERMANENT - OTHER-SCH-H PEOPLE,NECB-H-OCCUPANCY,SP-AUDIENCE SEATING AREA PERMANENT - OTHER-SCH-H-SPACE FUNCTION SYS-3 FLR-4 SCH-H HPLCMT-EAST ZN,1875.00,375.1,375.1,0.200,4.998,0.300,0.700,AutoCalculate,NECB-ACTIVITY,No,3.8200E-008,338,338
 People Internal Gains Nominal, SP-AUDIENCE SEATING AREA PERMANENT - OTHER-SCH-I-SPACE FUNCTION SYS-3 FLR-4 SCH-I HPLCMT-NORTH ZN SPACE FUNCTION AUDIENCE SEATING AREA PERMANENT - OTHER-SCH-I PEOPLE,NECB-I-OCCUPANCY,SP-AUDIENCE SEATING AREA PERMANENT - OTHER-SCH-I-SPACE FUNCTION SYS-3 FLR-4 SCH-I HPLCMT-NORTH ZN,1875.00,375.1,375.1,0.200,4.998,0.300,0.700,AutoCalculate,NECB-ACTIVITY,No,3.8200E-008,0,300
 People Internal Gains Nominal, SP-AUDIENCE SEATING AREA PERMANENT - OTHER-SCH-J-SPACE FUNCTION SYS-3 FLR-4 SCH-J HPLCMT-WEST ZN SPACE FUNCTION AUDIENCE SEATING AREA PERMANENT - OTHER-SCH-J PEOPLE,NECB-J-OCCUPANCY,SP-AUDIENCE SEATING AREA PERMANENT - OTHER-SCH-J-SPACE FUNCTION SYS-3 FLR-4 SCH-J HPLCMT-WEST ZN,1875.00,375.1,375.1,0.200,4.998,0.300,0.700,AutoCalculate,NECB-ACTIVITY,No,3.8200E-008,225,338
 People Internal Gains Nominal, SP-AUDIENCE SEATING AREA PERMANENT - OTHER-SCH-K-SPACE FUNCTION SYS-3 FLR-3 SCH-K HPLCMT-CORE ZN SPACE FUNCTION AUDIENCE SEATING AREA PERMANENT - OTHER-SCH-K PEOPLE,NECB-K-OCCUPANCY,SP-AUDIENCE SEATING AREA PERMANENT - OTHER-SCH-K-SPACE FUNCTION SYS-3 FLR-3 SCH-K HPLCMT-CORE ZN,2500.00,500.2,500.2,0.200,4.998,0.300,0.700,AutoCalculate,NECB-ACTIVITY,No,3.8200E-008,0,450
 People Internal Gains Nominal, SP-BANKING ACTIVITY AREA AND OFFICES-SPACE FUNCTION SYS-6 FLR-3 SCH-A HPLCMT-SOUTH ZN SPACE FUNCTION BANKING ACTIVITY AREA AND OFFICES PEOPLE,NECB-A-OCCUPANCY,SP-BANKING ACTIVITY AREA AND OFFICES-SPACE FUNCTION SYS-6 FLR-3 SCH-A HPLCMT-SOUTH ZN,1875.00,75.0,75.0,4.001E-002,24.991,0.300,0.700,AutoCalculate,NECB-ACTIVITY,No,3.8200E-008,0,68
 People Internal Gains Nominal, SP-CLASSROOM/LECTURE HALL/TRAINING ROOM - PENITENTARY-SPACE FUNCTION SYS-3 FLR-3 SCH-D HPLCMT-NORTH ZN SPACE FUNCTION CLASSROOM/LECTURE HALL/TRAINING ROOM - PENITENTARY PEOPLE,NECB-D-OCCUPANCY,SP-CLASSROOM/LECTURE HALL/TRAINING ROOM - PENITENTARY-SPACE FUNCTION SYS-3 FLR-3 SCH-D HPLCMT-NORTH ZN,1875.00,250.1,250.1,0.133,7.497,0.300,0.700,AutoCalculate,NECB-ACTIVITY,No,3.8200E-008,0,225
 People Internal Gains Nominal, SP-CLASSROOM/LECTURE HALL/TRAINING ROOM OTHER-SPACE FUNCTION SYS-3 FLR-3 SCH-D HPLCMT-WEST ZN SPACE FUNCTION CLASSROOM/LECTURE HALL/TRAINING ROOM OTHER PEOPLE,NECB-D-OCCUPANCY,SP-CLASSROOM/LECTURE HALL/TRAINING ROOM OTHER-SPACE FUNCTION SYS-3 FLR-3 SCH-D HPLCMT-WEST ZN,1875.00,250.1,250.1,0.133,7.497,0.300,0.700,AutoCalculate,NECB-ACTIVITY,No,3.8200E-008,0,225
 People Internal Gains Nominal, SP-CONFERENCE/MEETING/MULTI-PURPOSE ROOM-SPACE FUNCTION SYS-3 FLR-4 SCH-C HPLCMT-SOUTH ZN SPACE FUNCTION CONFERENCE/MEETING/MULTI-PURPOSE ROOM PEOPLE,NECB-C-OCCUPANCY,SP-CONFERENCE/MEETING/MULTI-PURPOSE ROOM-SPACE FUNCTION SYS-3 FLR-4 SCH-C HPLCMT-SOUTH ZN,1875.00,375.1,375.1,0.200,4.998,0.300,0.700,AutoCalculate,NECB-ACTIVITY,No,3.8200E-008,0,338
 People Internal Gains Nominal, SP-CONFINEMENT CELL-SPACE FUNCTION SYS-3 FLR-3 SCH-G HPLCMT-EAST ZN SPACE FUNCTION CONFINEMENT CELL PEOPLE,NECB-G-OCCUPANCY,SP-CONFINEMENT CELL-SPACE FUNCTION SYS-3 FLR-3 SCH-G HPLCMT-EAST ZN,1875.00,75.0,75.0,4.001E-002,24.991,0.300,0.700,AutoCalculate,NECB-ACTIVITY,No,3.8200E-008,23,68
 People Internal Gains Nominal, SP-COPY/PRINT ROOM-SPACE FUNCTION SYS-3 FLR-1 SCH-A HPLCMT-WEST ZN SPACE FUNCTION COPY/PRINT ROOM PEOPLE,NECB-A-OCCUPANCY,SP-COPY/PRINT ROOM-SPACE FUNCTION SYS-3 FLR-1 SCH-A HPLCMT-WEST ZN,1875.00,18.8,18.8,1.000E-002,99.964,0.300,0.700,AutoCalculate,NECB-ACTIVITY,No,3.8200E-008,0,17
 People Internal Gains Nominal, SP-COURTROOM-SPACE FUNCTION SYS-3 FLR-1 SCH-A HPLCMT-NORTH ZN SPACE FUNCTION COURTROOM PEOPLE,NECB-A-OCCUPANCY,SP-COURTROOM-SPACE FUNCTION SYS-3 FLR-1 SCH-A HPLCMT-NORTH ZN,1875.00,375.1,375.1,0.200,4.998,0.300,0.700,AutoCalculate,NECB-ACTIVITY,No,3.8200E-008,0,338
 People Internal Gains Nominal, SP-DINING AREA - BAR LOUNGE/LEISURE DINING-SPACE FUNCTION SYS-3 FLR-4 SCH-B HPLCMT-CORE ZN SPACE FUNCTION DINING AREA - BAR LOUNGE/LEISURE DINING PEOPLE,NECB-B-OCCUPANCY,SP-DINING AREA - BAR LOUNGE/LEISURE DINING-SPACE FUNCTION SYS-3 FLR-4 SCH-B HPLCMT-CORE ZN,2500.00,250.1,250.1,0.100,9.996,0.300,0.700,AutoCalculate,NECB-ACTIVITY,No,3.8200E-008,0,225
 People Internal Gains Nominal, SP-DINING AREA - CAFETERIA/FAST FOOD DINING-SPACE FUNCTION SYS-3 FLR-2 SCH-B HPLCMT-EAST ZN SPACE FUNCTION DINING AREA - CAFETERIA/FAST FOOD DINING PEOPLE,NECB-B-OCCUPANCY,SP-DINING AREA - CAFETERIA/FAST FOOD DINING-SPACE FUNCTION SYS-3 FLR-2 SCH-B HPLCMT-EAST ZN,1875.00,187.6,187.6,0.100,9.996,0.300,0.700,AutoCalculate,NECB-ACTIVITY,No,3.8200E-008,0,169
 People Internal Gains Nominal, SP-DINING AREA - FAMILY DINING-SPACE FUNCTION SYS-3 FLR-1 SCH-B HPLCMT-SOUTH ZN SPACE FUNCTION DINING AREA - FAMILY DINING PEOPLE,NECB-B-OCCUPANCY,SP-DINING AREA - FAMILY DINING-SPACE FUNCTION SYS-3 FLR-1 SCH-B HPLCMT-SOUTH ZN,1875.00,187.6,187.6,0.100,9.996,0.300,0.700,AutoCalculate,NECB-ACTIVITY,No,3.8200E-008,0,169
 People Internal Gains Nominal, SP-DINING AREA - OTHER-SPACE FUNCTION SYS-3 FLR-1 SCH-B HPLCMT-EAST ZN SPACE FUNCTION DINING AREA - OTHER PEOPLE,NECB-B-OCCUPANCY,SP-DINING AREA - OTHER-SPACE FUNCTION SYS-3 FLR-1 SCH-B HPLCMT-EAST ZN,1875.00,187.6,187.6,0.100,9.996,0.300,0.700,AutoCalculate,NECB-ACTIVITY,No,3.8200E-008,0,169
 People Internal Gains Nominal, SP-DINING AREA - PENITENTIARY-SPACE FUNCTION SYS-3 FLR-2 SCH-B HPLCMT-WEST ZN SPACE FUNCTION DINING AREA - PENITENTIARY PEOPLE,NECB-B-OCCUPANCY,SP-DINING AREA - PENITENTIARY-SPACE FUNCTION SYS-3 FLR-2 SCH-B HPLCMT-WEST ZN,1875.00,187.6,187.6,0.100,9.996,0.300,0.700,AutoCalculate,NECB-ACTIVITY,No,3.8200E-008,0,169
 People Internal Gains Nominal, SP-DINING AREA - SPACE DESIGNED TO ANSI/IES RP-28 (USED PRIMARILY BY RESIDENTS)-SPACE FUNCTION SYS-3 FLR-2 SCH-B HPLCMT-CORE ZN SPACE FUNCTION DINING AREA - SPACE DESIGNED TO ANSI/IES RP-28 (USED PRIMARILY BY RESIDENTS) PEOPLE,NECB-B-OCCUPANCY,SP-DINING AREA - SPACE DESIGNED TO ANSI/IES RP-28 (USED PRIMARILY BY RESIDENTS)-SPACE FUNCTION SYS-3 FLR-2 SCH-B HPLCMT-CORE ZN,2500.00,250.1,250.1,0.100,9.996,0.300,0.700,AutoCalculate,NECB-ACTIVITY,No,3.8200E-008,0,225
 People Internal Gains Nominal, SP-DRESSING/FITTING ROOM - PERFORMING ARTS THEATRE-SPACE FUNCTION SYS-3 FLR-1 SCH-C HPLCMT-CORE ZN SPACE FUNCTION DRESSING/FITTING ROOM - PERFORMING ARTS THEATRE PEOPLE,NECB-C-OCCUPANCY,SP-DRESSING/FITTING ROOM - PERFORMING ARTS THEATRE-SPACE FUNCTION SYS-3 FLR-1 SCH-C HPLCMT-CORE ZN,2500.00,83.4,83.4,3.335E-002,29.989,0.300,0.700,AutoCalculate,NECB-ACTIVITY,No,3.8200E-008,0,75
 People Internal Gains Nominal, SP-EMERGENCY VEHICLE GARAGE-SPACE FUNCTION SYS-4 FLR-2 SCH-H HPLCMT-NORTH ZN SPACE FUNCTION EMERGENCY VEHICLE GARAGE PEOPLE,NECB-H-OCCUPANCY,SP-EMERGENCY VEHICLE GARAGE-SPACE FUNCTION SYS-4 FLR-2 SCH-H HPLCMT-NORTH ZN,1875.00,75.0,75.0,4.001E-002,24.991,0.300,0.700,AutoCalculate,NECB-ACTIVITY,No,3.8200E-008,68,68
 People Internal Gains Nominal, SP-FOOD PREPARATION AREA-SPACE FUNCTION SYS-3 FLR-2 SCH-B HPLCMT-SOUTH ZN SPACE FUNCTION FOOD PREPARATION AREA PEOPLE,NECB-B-OCCUPANCY,SP-FOOD PREPARATION AREA-SPACE FUNCTION SYS-3 FLR-2 SCH-B HPLCMT-SOUTH ZN,1875.00,93.8,93.8,5.002E-002,19.993,0.300,0.700,AutoCalculate,NECB-ACTIVITY,No,3.8200E-008,0,84
! <Lights Internal Gains Nominal>,Name,Schedule Name,Zone Name,Zone Floor Area {m2},# Zone Occupants,Lighting Level {W},Lights/Floor Area {W/m2},Lights per person {W/person},Fraction Return Air,Fraction Radiant,Fraction Short Wave,Fraction Convected,Fraction Replaceable,End-Use Category,Nominal Minimum Lighting Level {W},Nominal Maximum Lighting Level {W}
 Lights Internal Gains Nominal, SP-AUDIENCE SEATING AREA PERMANENT - OTHER-SCH-H-SPACE FUNCTION SYS-3 FLR-4 SCH-H HPLCMT-EAST ZN SPACE FUNCTION AUDIENCE SEATING AREA PERMANENT - OTHER-SCH-H LIGHTS,NECB-H-LIGHTING,SP-AUDIENCE SEATING AREA PERMANENT - OTHER-SCH-H-SPACE FUNCTION SYS-3 FLR-4 SCH-H HPLCMT-EAST ZN,1875.00,375.1,8628.135,4.602,23.000,0.000,0.500,0.200,0.300,1.000,General,7765.321,7765.321
 Lights Internal Gains Nominal, SP-AUDIENCE SEATING AREA PERMANENT - OTHER-SCH-I-SPACE FUNCTION SYS-3 FLR-4 SCH-I HPLCMT-NORTH ZN SPACE FUNCTION AUDIENCE SEATING AREA PERMANENT - OTHER-SCH-I LIGHTS,NECB-I-LIGHTING,SP-AUDIENCE SEATING AREA PERMANENT - OTHER-SCH-I-SPACE FUNCTION SYS-3 FLR-4 SCH-I HPLCMT-NORTH ZN,1875.00,375.1,8628.135,4.602,23.000,0.000,0.500,0.200,0.300,1.000,General,431.407,7765.321
 Lights Internal Gains Nominal, SP-AUDIENCE SEATING AREA PERMANENT - OTHER-SCH-J-SPACE FUNCTION SYS-3 FLR-4 SCH-J HPLCMT-WEST ZN SPACE FUNCTION AUDIENCE SEATING AREA PERMANENT - OTHER-SCH-J LIGHTS,NECB-J-LIGHTING,SP-AUDIENCE SEATING AREA PERMANENT - OTHER-SCH-J-SPACE FUNCTION SYS-3 FLR-4 SCH-J HPLCMT-WEST ZN,1875.00,375.1,8628.135,4.602,23.000,0.000,0.500,0.200,0.300,1.000,General,862.813,6039.694
 Lights Internal Gains Nominal, SP-AUDIENCE SEATING AREA PERMANENT - OTHER-SCH-K-SPACE FUNCTION SYS-3 FLR-3 SCH-K HPLCMT-CORE ZN SPACE FUNCTION AUDIENCE SEATING AREA PERMANENT - OTHER-SCH-K LIGHTS,NECB-K-LIGHTING,SP-AUDIENCE SEATING AREA PERMANENT - OTHER-SCH-K-SPACE FUNCTION SYS-3 FLR-3 SCH-K HPLCMT-CORE ZN,2500.00,500.2,11504.179,4.602,23.000,0.000,0.500,0.200,0.300,1.000,General,10353.761,10353.761
 Lights Internal Gains Nominal, SP-BANKING ACTIVITY AREA AND OFFICES-SPACE FUNCTION SYS-6 FLR-3 SCH-A HPLCMT-SOUTH ZN SPACE FUNCTION BANKING ACTIVITY AREA AND OFFICES LIGHTS,NECB-A-OCCUPANCY-NECB-A-LIGHTING-0.0-0.0-0.67-LIGHT RULESET,SP-BANKING ACTIVITY AREA AND OFFICES-SPACE FUNCTION SYS-6 FLR-3 SCH-A HPLCMT-SOUTH ZN,1875.00,75.0,17437.353,9.300,232.414,0.000,0.500,0.200,0.300,1.000,General,871.868,15693.618
 Lights Internal Gains Nominal, SP-CLASSROOM/LECTURE HALL/TRAINING ROOM - PENITENTARY-SPACE FUNCTION SYS-3 FLR-3 SCH-D HPLCMT-NORTH ZN SPACE FUNCTION CLASSROOM/LECTURE HALL/TRAINING ROOM - PENITENTARY LIGHTS,NECB-D-OCCUPANCY-NECB-D-LIGHTING-0.5-0.0-0.67-LIGHT RULESET,SP-CLASSROOM/LECTURE HALL/TRAINING ROOM - PENITENTARY-SPACE FUNCTION SYS-3 FLR-3 SCH-D HPLCMT-NORTH ZN,1875.00,250.1,26999.783,14.400,107.960,0.000,0.500,0.200,0.300,1.000,General,897.743,24299.804
 Lights Internal Gains Nominal, SP-CLASSROOM/LECTURE HALL/TRAINING ROOM OTHER-SPACE FUNCTION SYS-3 FLR-3 SCH-D HPLCMT-WEST ZN SPACE FUNCTION CLASSROOM/LECTURE HALL/TRAINING ROOM OTHER LIGHTS,NECB-D-OCCUPANCY-NECB-D-LIGHTING-0.5-0.0-0.67-LIGHT RULESET,SP-CLASSROOM/LECTURE HALL/TRAINING ROOM OTHER-SPACE FUNCTION SYS-3 FLR-3 SCH-D HPLCMT-WEST ZN,1875.00,250.1,19312.332,10.300,77.221,0.000,0.500,0.200,0.300,1.000,General,642.135,17381.099
 Lights Internal Gains Nominal, SP-CONFERENCE/MEETING/MULTI-PURPOSE ROOM-SPACE FUNCTION SYS-3 FLR-4 SCH-C HPLCMT-SOUTH ZN SPACE FUNCTION CONFERENCE/MEETING/MULTI-PURPOSE ROOM LIGHTS,NECB-C-OCCUPANCY-NECB-C-LIGHTING-0.5-0.0-0.67-LIGHT RULESET,SP-CONFERENCE/MEETING/MULTI-PURPOSE ROOM-SPACE FUNCTION SYS-3 FLR-4 SCH-C HPLCMT-SOUTH ZN,1875.00,375.1,21562.319,11.500,57.479,0.000,0.500,0.200,0.300,1.000,General,716.947,19406.087
 Lights Internal Gains Nominal, SP-CONFINEMENT CELL-SPACE FUNCTION SYS-3 FLR-3 SCH-G HPLCMT-EAST ZN SPACE FUNCTION CONFINEMENT CELL LIGHTS,NECB-G-OCCUPANCY-NECB-G-LIGHTING-0.0-0.0-0.67-LIGHT RULESET,SP-CONFINEMENT CELL-SPACE FUNCTION SYS-3 FLR-3 SCH-G HPLCMT-EAST ZN,1875.00,75.0,16312.370,8.700,217.419,0.000,0.500,0.200,0.300,1.000,General,0.000,14681.133
 Lights Internal Gains Nominal, SP-COPY/PRINT ROOM-SPACE FUNCTION SYS-3 FLR-1 SCH-A HPLCMT-WEST ZN SPACE FUNCTION COPY/PRINT ROOM LIGHTS,NECB-A-LIGHTING,SP-COPY/PRINT ROOM-SPACE FUNCTION SYS-3 FLR-1 SCH-A HPLCMT-WEST ZN,1875.00,18.8,11249.914,6.000,599.777,0.000,0.500,0.200,0.300,1.000,General,562.496,10124.923
 Lights Internal Gains Nominal, SP-COURTROOM-SPACE FUNCTION SYS-3 FLR-1 SCH-A HPLCMT-NORTH ZN SPACE FUNCTION COURTROOM LIGHTS,NECB-A-OCCUPANCY-NECB-A-LIGHTING-0.2-0.0-0.67-LIGHT RULESET,SP-COURTROOM-SPACE FUNCTION SYS-3 FLR-1 SCH-A HPLCMT-NORTH ZN,1875.00,375.1,28124.766,15.000,74.972,0.000,0.500,0.200,0.300,1.000,General,1217.802,25312.289
 Lights Internal Gains Nominal, SP-DINING AREA - BAR LOUNGE/LEISURE DINING-SPACE FUNCTION SYS-3 FLR-4 SCH-B HPLCMT-CORE ZN SPACE FUNCTION DINING AREA - BAR LOUNGE/LEISURE DINING LIGHTS,NECB-B-OCCUPANCY-NECB-B-LIGHTING-0.0-0.0-0.67-LIGHT RULESET,SP-DINING AREA - BAR LOUNGE/LEISURE DINING-SPACE FUNCTION SYS-3 FLR-4 SCH-B HPLCMT-CORE ZN,2500.00,250.1,24999.801,10.000,99.963,0.000,0.500,0.200,0.300,1.000,General,2499.980,22499.821
 Lights Internal Gains Nominal, SP-DINING AREA - CAFETERIA/FAST FOOD DINING-SPACE FUNCTION SYS-3 FLR-2 SCH-B HPLCMT-EAST ZN SPACE FUNCTION DINING AREA - CAFETERIA/FAST FOOD DINING LIGHTS,NECB-B-LIGHTING,SP-DINING AREA - CAFETERIA/FAST FOOD DINING-SPACE FUNCTION SYS-3 FLR-2 SCH-B HPLCMT-EAST ZN,1875.00,187.6,12749.886,6.800,67.975,0.000,0.500,0.200,0.300,1.000,General,1274.989,11474.897
 Lights Internal Gains Nominal, SP-DINING AREA - FAMILY DINING-SPACE FUNCTION SYS-3 FLR-1 SCH-B HPLCMT-SOUTH ZN SPACE FUNCTION DINING AREA - FAMILY DINING LIGHTS,NECB-B-LIGHTING,SP-DINING AREA - FAMILY DINING-SPACE FUNCTION SYS-3 FLR-1 SCH-B HPLCMT-SOUTH ZN,1875.00,187.6,14249.877,7.600,75.972,0.000,0.500,0.200,0.300,1.000,General,1424.988,12824.889
 Lights Internal Gains Nominal, SP-DINING AREA - OTHER-SPACE FUNCTION SYS-3 FLR-1 SCH-B HPLCMT-EAST ZN SPACE FUNCTION DINING AREA - OTHER LIGHTS,NECB-B-LIGHTING,SP-DINING AREA - OTHER-SPACE FUNCTION SYS-3 FLR-1 SCH-B HPLCMT-EAST ZN,1875.00,187.6,12749.886,6.800,67.975,0.000,0.500,0.200,0.300,1.000,General,1274.989,11474.897
 Lights Internal Gains Nominal, SP-DINING AREA - PENITENTIARY-SPACE FUNCTION SYS-3 FLR-2 SCH-B HPLCMT-WEST ZN SPACE FUNCTION DINING AREA - PENITENTIARY LIGHTS,NECB-B-OCCUPANCY-NECB-B-LIGHTING-0.0-0.0-0.67-LIGHT RULESET,SP-DINING AREA - PENITENTIARY-SPACE FUNCTION SYS-3 FLR-2 SCH-B HPLCMT-WEST ZN,1875.00,187.6,19319.519,10.304,103.000,0.000,0.500,0.200,0.300,1.000,General,1931.952,17387.567
 Lights Internal Gains Nominal, SP-DINING AREA - SPACE DESIGNED TO ANSI/IES RP-28 (USED PRIMARILY BY RESIDENTS)-SPACE FUNCTION SYS-3 FLR-2 SCH-B HPLCMT-CORE ZN SPACE FUNCTION DINING AREA - SPACE DESIGNED TO ANSI/IES RP-28 (USED PRIMARILY BY RESIDENTS) LIGHTS,NECB-B-OCCUPANCY-NECB-B-LIGHTING-0.0-0.0-0.67-LIGHT RULESET,SP-DINING AREA - SPACE DESIGNED TO ANSI/IES RP-28 (USED PRIMARILY BY RESIDENTS)-SPACE FUNCTION SYS-3 FLR-2 SCH-B HPLCMT-CORE ZN,2500.00,250.1,53749.560,21.500,214.920,0.000,0.500,0.200,0.300,1.000,General,5374.956,48374.604
 Lights Internal Gains Nominal, SP-DRESSING/FITTING ROOM - PERFORMING ARTS THEATRE-SPACE FUNCTION SYS-3 FLR-1 SCH-C HPLCMT-CORE ZN SPACE FUNCTION DRESSING/FITTING ROOM - PERFORMING ARTS THEATRE LIGHTS,NECB-C-LIGHTING,SP-DRESSING/FITTING ROOM - PERFORMING ARTS THEATRE-SPACE FUNCTION SYS-3 FLR-1 SCH-C HPLCMT-CORE ZN,2500.00,83.4,16505.996,6.602,198.000,0.000,0.500,0.200,0.300,1.000,General,825.300,14855.397
 Lights Internal Gains Nominal, SP-EMERGENCY VEHICLE GARAGE-SPACE FUNCTION SYS-4 FLR-2 SCH-H HPLCMT-NORTH ZN SPACE FUNCTION EMERGENCY VEHICLE GARAGE LIGHTS,NECB-H-LIGHTING,SP-EMERGENCY VEHICLE GARAGE-SPACE FUNCTION SYS-4 FLR-2 SCH-H HPLCMT-NORTH ZN,1875.00,75.0,8249.932,4.400,109.959,0.000,0.500,0.200,0.300,1.000,General,7424.939,7424.939
 Lights Internal Gains Nominal, SP-FOOD PREPARATION AREA-SPACE FUNCTION SYS-3 FLR-2 SCH-B HPLCMT-SOUTH ZN SPACE FUNCTION FOOD PREPARATION AREA LIGHTS,NECB-B-OCCUPANCY-NECB-B-LIGHTING-0.0-0.0-0.67-LIGHT RULESET,SP-FOOD PREPARATION AREA-SPACE FUNCTION SYS-3 FLR-2 SCH-B HPLCMT-SOUTH ZN,1875.00,93.8,21374.825,11.400,227.915,0.000,0.500,0.200,0.300,1.000,General,2137.483,19237.343
! <ElectricEquipment Internal Gains Nominal>,Name,Schedule Name,Zone Name,Zone Floor Area {m2},# Zone Occupants,Equipment Level {W},Equipment/Floor Area {W/m2},Equipment per person {W/person},Fraction Latent,Fraction Radiant,Fraction Lost,Fraction Convected,End-Use SubCategory,Nominal Minimum Equipment Level {W},Nominal Maximum Equipment Level {W}
 ElectricEquipment Internal Gains Nominal, SP-AUDIENCE SEATING AREA PERMANENT - OTHER-SCH-H-SPACE FUNCTION SYS-3 FLR-4 SCH-H HPLCMT-EAST ZN SPACE FUNCTION AUDIENCE SEATING AREA PERMANENT - OTHER-SCH-H ELEC EQUIP,NECB-H-ELECTRIC-EQUIPMENT,SP-AUDIENCE SEATING AREA PERMANENT - OTHER-SCH-H-SPACE FUNCTION SYS-3 FLR-4 SCH-H HPLCMT-EAST ZN,1875.00,375.1,1875.681,1.000,5.000,0.000,0.500,0.000,0.500,General,1688.113,1688.113
 ElectricEquipment Internal Gains Nominal, SP-AUDIENCE SEATING AREA PERMANENT - OTHER-SCH-I-SPACE FUNCTION SYS-3 FLR-4 SCH-I HPLCMT-NORTH ZN SPACE FUNCTION AUDIENCE SEATING AREA PERMANENT - OTHER-SCH-I ELEC EQUIP,NECB-I-ELECTRIC-EQUIPMENT,SP-AUDIENCE SEATING AREA PERMANENT - OTHER-SCH-I-SPACE FUNCTION SYS-3 FLR-4 SCH-I HPLCMT-NORTH ZN,1875.00,375.1,1875.681,1.000,5.000,0.000,0.500,0.000,0.500,General,187.568,1500.545
 ElectricEquipment Internal Gains Nominal, SP-AUDIENCE SEATING AREA PERMANENT - OTHER-SCH-J-SPACE FUNCTION SYS-3 FLR-4 SCH-J HPLCMT-WEST ZN SPACE FUNCTION AUDIENCE SEATING AREA PERMANENT - OTHER-SCH-J ELEC EQUIP,NECB-J-ELECTRIC-EQUIPMENT,SP-AUDIENCE SEATING AREA PERMANENT - OTHER-SCH-J-SPACE FUNCTION SYS-3 FLR-4 SCH-J HPLCMT-WEST ZN,1875.00,375.1,1875.681,1.000,5.000,0.000,0.500,0.000,0.500,General,187.568,1312.977
 ElectricEquipment Internal Gains Nominal, SP-AUDIENCE SEATING AREA PERMANENT - OTHER-SCH-K-SPACE FUNCTION SYS-3 FLR-3 SCH-K HPLCMT-CORE ZN SPACE FUNCTION AUDIENCE SEATING AREA PERMANENT - OTHER-SCH-K ELEC EQUIP,NECB-K-ELECTRIC-EQUIPMENT,SP-AUDIENCE SEATING AREA PERMANENT - OTHER-SCH-K-SPACE FUNCTION SYS-3 FLR-3 SCH-K HPLCMT-CORE ZN,2500.00,500.2,2500.909,1.000,5.000,0.000,0.500,0.000,0.500,General,0.000,0.000
 ElectricEquipment Internal Gains Nominal, SP-BANKING ACTIVITY AREA AND OFFICES-SPACE FUNCTION SYS-6 FLR-3 SCH-A HPLCMT-SOUTH ZN SPACE FUNCTION BANKING ACTIVITY AREA AND OFFICES ELEC EQUIP,NECB-A-ELECTRIC-EQUIPMENT,SP-BANKING ACTIVITY AREA AND OFFICES-SPACE FUNCTION SYS-6 FLR-3 SCH-A HPLCMT-SOUTH ZN,1875.00,75.0,9378.407,5.002,125.000,0.000,0.500,0.000,0.500,General,1875.681,8440.566
 ElectricEquipment Internal Gains Nominal, SP-CLASSROOM/LECTURE HALL/TRAINING ROOM - PENITENTARY-SPACE FUNCTION SYS-3 FLR-3 SCH-D HPLCMT-NORTH ZN SPACE FUNCTION CLASSROOM/LECTURE HALL/TRAINING ROOM - PENITENTARY ELEC EQUIP,NECB-D-ELECTRIC-EQUIPMENT,SP-CLASSROOM/LECTURE HALL/TRAINING ROOM - PENITENTARY-SPACE FUNCTION SYS-3 FLR-3 SCH-D HPLCMT-NORTH ZN,1875.00,250.1,9378.407,5.002,37.500,0.000,0.500,0.000,0.500,General,468.920,8440.566
 ElectricEquipment Internal Gains Nominal, SP-CLASSROOM/LECTURE HALL/TRAINING ROOM OTHER-SPACE FUNCTION SYS-3 FLR-3 SCH-D HPLCMT-WEST ZN SPACE FUNCTION CLASSROOM/LECTURE HALL/TRAINING ROOM OTHER ELEC EQUIP,NECB-D-ELECTRIC-EQUIPMENT,SP-CLASSROOM/LECTURE HALL/TRAINING ROOM OTHER-SPACE FUNCTION SYS-3 FLR-3 SCH-D HPLCMT-WEST ZN,1875.00,250.1,9378.407,5.002,37.500,0.000,0.500,0.000,0.500,General,468.920,8440.566
 ElectricEquipment Internal Gains Nominal, SP-CONFERENCE/MEETING/MULTI-PURPOSE ROOM-SPACE FUNCTION SYS-3 FLR-4 SCH-C HPLCMT-SOUTH ZN SPACE FUNCTION CONFERENCE/MEETING/MULTI-PURPOSE ROOM ELEC EQUIP,NECB-C-ELECTRIC-EQUIPMENT,SP-CONFERENCE/MEETING/MULTI-PURPOSE ROOM-SPACE FUNCTION SYS-3 FLR-4 SCH-C HPLCMT-SOUTH ZN,1875.00,375.1,1875.681,1.000,5.000,0.000,0.500,0.000,0.500,General,93.784,1688.113
 ElectricEquipment Internal Gains Nominal, SP-COPY/PRINT ROOM-SPACE FUNCTION SYS-3 FLR-1 SCH-A HPLCMT-WEST ZN SPACE FUNCTION COPY/PRINT ROOM ELEC EQUIP,NECB-A-ELECTRIC-EQUIPMENT,SP-COPY/PRINT ROOM-SPACE FUNCTION SYS-3 FLR-1 SCH-A HPLCMT-WEST ZN,1875.00,18.8,112540.885,60.022,6000.000,0.000,0.500,0.000,0.500,General,22508.177,101286.796
 ElectricEquipment Internal Gains Nominal, SP-COURTROOM-SPACE FUNCTION SYS-3 FLR-1 SCH-A HPLCMT-NORTH ZN SPACE FUNCTION COURTROOM ELEC EQUIP,NECB-A-ELECTRIC-EQUIPMENT,SP-COURTROOM-SPACE FUNCTION SYS-3 FLR-1 SCH-A HPLCMT-NORTH ZN,1875.00,375.1,4689.204,2.501,12.500,0.000,0.500,0.000,0.500,General,937.841,4220.283
 ElectricEquipment Internal Gains Nominal, SP-DINING AREA - BAR LOUNGE/LEISURE DINING-SPACE FUNCTION SYS-3 FLR-4 SCH-B HPLCMT-CORE ZN SPACE FUNCTION DINING AREA - BAR LOUNGE/LEISURE DINING ELEC EQUIP,NECB-B-ELECTRIC-EQUIPMENT,SP-DINING AREA - BAR LOUNGE/LEISURE DINING-SPACE FUNCTION SYS-3 FLR-4 SCH-B HPLCMT-CORE ZN,2500.00,250.1,2500.909,1.000,10.000,0.000,0.500,0.000,0.500,General,250.091,2250.818
 ElectricEquipment Internal Gains Nominal, SP-DINING AREA - CAFETERIA/FAST FOOD DINING-SPACE FUNCTION SYS-3 FLR-2 SCH-B HPLCMT-EAST ZN SPACE FUNCTION DINING AREA - CAFETERIA/FAST FOOD DINING ELEC EQUIP,NECB-B-ELECTRIC-EQUIPMENT,SP-DINING AREA - CAFETERIA/FAST FOOD DINING-SPACE FUNCTION SYS-3 FLR-2 SCH-B HPLCMT-EAST ZN,1875.00,187.6,1875.681,1.000,10.000,0.000,0.500,0.000,0.500,General,187.568,1688.113
 ElectricEquipment Internal Gains Nominal, SP-DINING AREA - FAMILY DINING-SPACE FUNCTION SYS-3 FLR-1 SCH-B HPLCMT-SOUTH ZN SPACE FUNCTION DINING AREA - FAMILY DINING ELEC EQUIP,NECB-B-ELECTRIC-EQUIPMENT,SP-DINING AREA - FAMILY DINING-SPACE FUNCTION SYS-3 FLR-1 SCH-B HPLCMT-SOUTH ZN,1875.00,187.6,1875.681,1.000,10.000,0.000,0.500,0.000,0.500,General,187.568,1688.113
 ElectricEquipment Internal Gains Nominal, SP-DINING AREA - OTHER-SPACE FUNCTION SYS-3 FLR-1 SCH-B HPLCMT-EAST ZN SPACE FUNCTION DINING AREA - OTHER ELEC EQUIP,NECB-B-ELECTRIC-EQUIPMENT,SP-DINING AREA - OTHER-SPACE FUNCTION SYS-3 FLR-1 SCH-B HPLCMT-EAST ZN,1875.00,187.6,1875.681,1.000,10.000,0.000,0.500,0.000,0.500,General,187.568,1688.113
 ElectricEquipment Internal Gains Nominal, SP-DINING AREA - PENITENTIARY-SPACE FUNCTION SYS-3 FLR-2 SCH-B HPLCMT-WEST ZN SPACE FUNCTION DINING AREA - PENITENTIARY ELEC EQUIP,NECB-B-ELECTRIC-EQUIPMENT,SP-DINING AREA - PENITENTIARY-SPACE FUNCTION SYS-3 FLR-2 SCH-B HPLCMT-WEST ZN,1875.00,187.6,1875.681,1.000,10.000,0.000,0.500,0.000,0.500,General,187.568,1688.113
 ElectricEquipment Internal Gains Nominal, SP-DINING AREA - SPACE DESIGNED TO ANSI/IES RP-28 (USED PRIMARILY BY RESIDENTS)-SPACE FUNCTION SYS-3 FLR-2 SCH-B HPLCMT-CORE ZN SPACE FUNCTION DINING AREA - SPACE DESIGNED TO ANSI/IES RP-28 (USED PRIMARILY BY RESIDENTS) ELEC EQUIP,NECB-B-ELECTRIC-EQUIPMENT,SP-DINING AREA - SPACE DESIGNED TO ANSI/IES RP-28 (USED PRIMARILY BY RESIDENTS)-SPACE FUNCTION SYS-3 FLR-2 SCH-B HPLCMT-CORE ZN,2500.00,250.1,2500.909,1.000,10.000,0.000,0.500,0.000,0.500,General,250.091,2250.818
 ElectricEquipment Internal Gains Nominal, SP-DRESSING/FITTING ROOM - PERFORMING ARTS THEATRE-SPACE FUNCTION SYS-3 FLR-1 SCH-C HPLCMT-CORE ZN SPACE FUNCTION DRESSING/FITTING ROOM - PERFORMING ARTS THEATRE ELEC EQUIP,NECB-C-ELECTRIC-EQUIPMENT,SP-DRESSING/FITTING ROOM - PERFORMING ARTS THEATRE-SPACE FUNCTION SYS-3 FLR-1 SCH-C HPLCMT-CORE ZN,2500.00,83.4,6252.271,2.501,75.000,0.000,0.500,0.000,0.500,General,312.614,5627.044
 ElectricEquipment Internal Gains Nominal, SP-EMERGENCY VEHICLE GARAGE-SPACE FUNCTION SYS-4 FLR-2 SCH-H HPLCMT-NORTH ZN SPACE FUNCTION EMERGENCY VEHICLE GARAGE ELEC EQUIP,NECB-H-ELECTRIC-EQUIPMENT,SP-EMERGENCY VEHICLE GARAGE-SPACE FUNCTION SYS-4 FLR-2 SCH-H HPLCMT-NORTH ZN,1875.00,75.0,4689.204,2.501,62.500,0.000,0.500,0.000,0.500,General,4220.283,4220.283
 ElectricEquipment Internal Gains Nominal, SP-FOOD PREPARATION AREA-SPACE FUNCTION SYS-3 FLR-2 SCH-B HPLCMT-SOUTH ZN SPACE FUNCTION FOOD PREPARATION AREA ELEC EQUIP,NECB-B-ELECTRIC-EQUIPMENT,SP-FOOD PREPARATION AREA-SPACE FUNCTION SYS-3 FLR-2 SCH-B HPLCMT-SOUTH ZN,1875.00,93.8,18756.814,10.004,200.000,0.000,0.500,0.000,0.500,General,1875.681,16881.133
! <Shadowing/Sun Position Calculations Annual Simulations>, Calculation Method, Value {days}, Allowable Number Figures in Shadow Overlap {}, Polygon Clipping Algorithm, Sky Diffuse Modeling Algorithm, External Shading Calculation Method, Output External Shading Calculation Results, Disable Self-Shading Within Shading Zone Groups, Disable Self-Shading From Shading Zone Groups to Other Zones
Shadowing/Sun Position Calculations Annual Simulations,AverageOverDaysInFrequency,20,15000,SutherlandHodgman,SimpleSkyDiffuseModeling,InternalCalculation,No,No,No
! <Water Heater Information>,Type,Name,Volume {m3},Maximum Capacity {W},Standard Rated Recovery Efficiency, Standard Rated Energy Factor
! <ZoneInfiltration Airflow Stats Nominal>,Name,Schedule Name,Zone Name, Zone Floor Area {m2}, # Zone Occupants,Design Volume Flow Rate {m3/s},Volume Flow Rate/Floor Area {m3/s/m2},Volume Flow Rate/Exterior Surface Area {m3/s/m2},ACH - Air Changes per Hour,Equation A - Constant Term Coefficient {},Equation B - Temperature Term Coefficient {1/C},Equation C - Velocity Term Coefficient {s/m}, Equation D - Velocity Squared Term Coefficient {s2/m2}
 ZoneInfiltration Airflow Stats Nominal, AUDIENCE SEATING AREA PERMANENT - OTHER-SCH-H-SPACE FUNCTION INFILTRATION,ALWAYS ON DISCRETE,SP-AUDIENCE SEATING AREA PERMANENT - OTHER-SCH-H-SPACE FUNCTION SYS-3 FLR-4 SCH-H HPLCMT-EAST ZN,1875.00,375.1,0.564,3.007E-004,2.500E-004,0.285,0.000,0.000,0.224,0.000
 ZoneInfiltration Airflow Stats Nominal, AUDIENCE SEATING AREA PERMANENT - OTHER-SCH-I-SPACE FUNCTION INFILTRATION,ALWAYS ON DISCRETE,SP-AUDIENCE SEATING AREA PERMANENT - OTHER-SCH-I-SPACE FUNCTION SYS-3 FLR-4 SCH-I HPLCMT-NORTH ZN,1875.00,375.1,0.564,3.007E-004,2.500E-004,0.285,0.000,0.000,0.224,0.000
 ZoneInfiltration Airflow Stats Nominal, AUDIENCE SEATING AREA PERMANENT - OTHER-SCH-J-SPACE FUNCTION INFILTRATION,ALWAYS ON DISCRETE,SP-AUDIENCE SEATING AREA PERMANENT - OTHER-SCH-J-SPACE FUNCTION SYS-3 FLR-4 SCH-J HPLCMT-WEST ZN,1875.00,375.1,0.564,3.007E-004,2.500E-004,0.285,0.000,0.000,0.224,0.000
 ZoneInfiltration Airflow Stats Nominal, BANKING ACTIVITY AREA AND OFFICES-SPACE FUNCTION INFILTRATION,ALWAYS ON DISCRETE,SP-BANKING ACTIVITY AREA AND OFFICES-SPACE FUNCTION SYS-6 FLR-3 SCH-A HPLCMT-SOUTH ZN,1875.00,75.0,9.500E-002,5.067E-005,2.500E-004,4.800E-002,0.000,0.000,0.224,0.000
 ZoneInfiltration Airflow Stats Nominal, CLASSROOM/LECTURE HALL/TRAINING ROOM - PENITENTARY-SPACE FUNCTION INFILTRATION,ALWAYS ON DISCRETE,SP-CLASSROOM/LECTURE HALL/TRAINING ROOM - PENITENTARY-SPACE FUNCTION SYS-3 FLR-3 SCH-D HPLCMT-NORTH ZN,1875.00,250.1,9.500E-002,5.067E-005,2.500E-004,4.800E-002,0.000,0.000,0.224,0.000
 ZoneInfiltration Airflow Stats Nominal, CLASSROOM/LECTURE HALL/TRAINING ROOM OTHER-SPACE FUNCTION INFILTRATION,ALWAYS ON DISCRETE,SP-CLASSROOM/LECTURE HALL/TRAINING ROOM OTHER-SPACE FUNCTION SYS-3 FLR-3 SCH-D HPLCMT-WEST ZN,1875.00,250.1,9.500E-002,5.067E-005,2.500E-004,4.800E-002,0.000,0.000,0.224,0.000
 ZoneInfiltration Airflow Stats Nominal, CONFERENCE/MEETING/MULTI-PURPOSE ROOM-SPACE FUNCTION INFILTRATION,ALWAYS ON DISCRETE,SP-CONFERENCE/MEETING/MULTI-PURPOSE ROOM-SPACE FUNCTION SYS-3 FLR-4 SCH-C HPLCMT-SOUTH ZN,1875.00,375.1,0.564,3.007E-004,2.500E-004,0.285,0.000,0.000,0.224,0.000
 ZoneInfiltration Airflow Stats Nominal, CONFINEMENT CELL-SPACE FUNCTION INFILTRATION,ALWAYS ON DISCRETE,SP-CONFINEMENT CELL-SPACE FUNCTION SYS-3 FLR-3 SCH-G HPLCMT-EAST ZN,1875.00,75.0,9.500E-002,5.067E-005,2.500E-004,4.800E-002,0.000,0.000,0.224,0.000
 ZoneInfiltration Airflow Stats Nominal, DINING AREA - BAR LOUNGE/LEISURE DINING-SPACE FUNCTION INFILTRATION,ALWAYS ON DISCRETE,SP-DINING AREA - BAR LOUNGE/LEISURE DINING-SPACE FUNCTION SYS-3 FLR-4 SCH-B HPLCMT-CORE ZN,2500.00,250.1,0.625,2.500E-004,2.500E-004,0.237,0.000,0.000,0.224,0.000
 ZoneInfiltration Airflow Stats Nominal, DINING AREA - CAFETERIA/FAST FOOD DINING-SPACE FUNCTION INFILTRATION,ALWAYS ON DISCRETE,SP-DINING AREA - CAFETERIA/FAST FOOD DINING-SPACE FUNCTION SYS-3 FLR-2 SCH-B HPLCMT-EAST ZN,1875.00,187.6,9.500E-002,5.067E-005,2.500E-004,4.800E-002,0.000,0.000,0.224,0.000
 ZoneInfiltration Airflow Stats Nominal, DINING AREA - PENITENTIARY-SPACE FUNCTION INFILTRATION,ALWAYS ON DISCRETE,SP-DINING AREA - PENITENTIARY-SPACE FUNCTION SYS-3 FLR-2 SCH-B HPLCMT-WEST ZN,1875.00,187.6,9.500E-002,5.067E-005,2.500E-004,4.800E-002,0.000,0.000,0.224,0.000
 ZoneInfiltration Airflow Stats Nominal, EMERGENCY VEHICLE GARAGE-SPACE FUNCTION INFILTRATION,ALWAYS ON DISCRETE,SP-EMERGENCY VEHICLE GARAGE-SPACE FUNCTION SYS-4 FLR-2 SCH-H HPLCMT-NORTH ZN,1875.00,75.0,9.500E-002,5.067E-005,2.500E-004,4.800E-002,0.000,0.000,0.224,0.000
 ZoneInfiltration Airflow Stats Nominal, FOOD PREPARATION AREA-SPACE FUNCTION INFILTRATION,ALWAYS ON DISCRETE,SP-FOOD PREPARATION AREA-SPACE FUNCTION SYS-3 FLR-2 SCH-B HPLCMT-SOUTH ZN,1875.00,93.8,9.500E-002,5.067E-005,2.500E-004,4.800E-002,0.000,0.000,0.224,0.000
! <AirFlow Model>, Simple
 AirFlow Model, Simple
! <RoomAir Model>, Zone Name, Mixing/Mundt/UCSDDV/UCSDCV/UCSDUFI/UCSDUFE/User Defined
RoomAir Model,SP-AUDIENCE SEATING AREA PERMANENT - OTHER-SCH-H-SPACE FUNCTION SYS-3 FLR-4 SCH-H HPLCMT-EAST ZN,Mixing/Well-Stirred
RoomAir Model,SP-AUDIENCE SEATING AREA PERMANENT - OTHER-SCH-I-SPACE FUNCTION SYS-3 FLR-4 SCH-I HPLCMT-NORTH ZN,Mixing/Well-Stirred
RoomAir Model,SP-AUDIENCE SEATING AREA PERMANENT - OTHER-SCH-J-SPACE FUNCTION SYS-3 FLR-4 SCH-J HPLCMT-WEST ZN,Mixing/Well-Stirred
RoomAir Model,SP-AUDIENCE SEATING AREA PERMANENT - OTHER-SCH-K-SPACE FUNCTION SYS-3 FLR-3 SCH-K HPLCMT-CORE ZN,Mixing/Well-Stirred
RoomAir Model,SP-BANKING ACTIVITY AREA AND OFFICES-SPACE FUNCTION SYS-6 FLR-3 SCH-A HPLCMT-SOUTH ZN,Mixing/Well-Stirred
RoomAir Model,SP-CLASSROOM/LECTURE HALL/TRAINING ROOM - PENITENTARY-SPACE FUNCTION SYS-3 FLR-3 SCH-D HPLCMT-NORTH ZN,Mixing/Well-Stirred
RoomAir Model,SP-CLASSROOM/LECTURE HALL/TRAINING ROOM OTHER-SPACE FUNCTION SYS-3 FLR-3 SCH-D HPLCMT-WEST ZN,Mixing/Well-Stirred
RoomAir Model,SP-CONFERENCE/MEETING/MULTI-PURPOSE ROOM-SPACE FUNCTION SYS-3 FLR-4 SCH-C HPLCMT-SOUTH ZN,Mixing/Well-Stirred
RoomAir Model,SP-CONFINEMENT CELL-SPACE FUNCTION SYS-3 FLR-3 SCH-G HPLCMT-EAST ZN,Mixing/Well-Stirred
RoomAir Model,SP-COPY/PRINT ROOM-SPACE FUNCTION SYS-3 FLR-1 SCH-A HPLCMT-WEST ZN,Mixing/Well-Stirred
RoomAir Model,SP-COURTROOM-SPACE FUNCTION SYS-3 FLR-1 SCH-A HPLCMT-NORTH ZN,Mixing/Well-Stirred
RoomAir Model,SP-DINING AREA - BAR LOUNGE/LEISURE DINING-SPACE FUNCTION SYS-3 FLR-4 SCH-B HPLCMT-CORE ZN,Mixing/Well-Stirred
RoomAir Model,SP-DINING AREA - CAFETERIA/FAST FOOD DINING-SPACE FUNCTION SYS-3 FLR-2 SCH-B HPLCMT-EAST ZN,Mixing/Well-Stirred
RoomAir Model,SP-DINING AREA - FAMILY DINING-SPACE FUNCTION SYS-3 FLR-1 SCH-B HPLCMT-SOUTH ZN,Mixing/Well-Stirred
RoomAir Model,SP-DINING AREA - OTHER-SPACE FUNCTION SYS-3 FLR-1 SCH-B HPLCMT-EAST ZN,Mixing/Well-Stirred
RoomAir Model,SP-DINING AREA - PENITENTIARY-SPACE FUNCTION SYS-3 FLR-2 SCH-B HPLCMT-WEST ZN,Mixing/Well-Stirred
RoomAir Model,SP-DINING AREA - SPACE DESIGNED TO ANSI/IES RP-28 (USED PRIMARILY BY RESIDENTS)-SPACE FUNCTION SYS-3 FLR-2 SCH-B HPLCMT-CORE ZN,Mixing/Well-Stirred
RoomAir Model,SP-DRESSING/FITTING ROOM - PERFORMING ARTS THEATRE-SPACE FUNCTION SYS-3 FLR-1 SCH-C HPLCMT-CORE ZN,Mixing/Well-Stirred
RoomAir Model,SP-EMERGENCY VEHICLE GARAGE-SPACE FUNCTION SYS-4 FLR-2 SCH-H HPLCMT-NORTH ZN,Mixing/Well-Stirred
RoomAir Model,SP-FOOD PREPARATION AREA-SPACE FUNCTION SYS-3 FLR-2 SCH-B HPLCMT-SOUTH ZN,Mixing/Well-Stirred
! <AirflowNetwork Model:Control>, No Multizone or Distribution/Multizone with Distribution/Multizone without Distribution/Multizone with Distribution only during Fan Operation
AirflowNetwork Model:Control,NoMultizoneOrDistribution
! <Zone Volume Capacitance Multiplier>, Sensible Heat Capacity Multiplier, Moisture Capacity Multiplier, Carbon Dioxide Capacity Multiplier, Generic Contaminant Capacity Multiplier
Zone Volume Capacitance Multiplier,   1.000 ,   1.000,   1.000,   1.000
! <Load Timesteps in Zone Design Calculation Averaging Window>, Value
 Load Timesteps in Zone Design Calculation Averaging Window,    6
! <Heating Sizing Factor Information>, Sizing Factor ID, Value
 Heating Sizing Factor Information, Global,   1.3000    
 Heating Sizing Factor Information, Zone SP-AUDIENCE SEATING AREA PERMANENT - OTHER-SCH-H-SPACE FUNCTION SYS-3 FLR-4 SCH-H HPLCMT-EAST ZN,   1.3000    
 Heating Sizing Factor Information, Zone SP-AUDIENCE SEATING AREA PERMANENT - OTHER-SCH-I-SPACE FUNCTION SYS-3 FLR-4 SCH-I HPLCMT-NORTH ZN,   1.3000    
 Heating Sizing Factor Information, Zone SP-AUDIENCE SEATING AREA PERMANENT - OTHER-SCH-J-SPACE FUNCTION SYS-3 FLR-4 SCH-J HPLCMT-WEST ZN,   1.3000    
 Heating Sizing Factor Information, Zone SP-AUDIENCE SEATING AREA PERMANENT - OTHER-SCH-K-SPACE FUNCTION SYS-3 FLR-3 SCH-K HPLCMT-CORE ZN,   1.3000    
 Heating Sizing Factor Information, Zone SP-BANKING ACTIVITY AREA AND OFFICES-SPACE FUNCTION SYS-6 FLR-3 SCH-A HPLCMT-SOUTH ZN,   1.3000    
 Heating Sizing Factor Information, Zone SP-CLASSROOM/LECTURE HALL/TRAINING ROOM - PENITENTARY-SPACE FUNCTION SYS-3 FLR-3 SCH-D HPLCMT-NORTH ZN,   1.3000    
 Heating Sizing Factor Information, Zone SP-CLASSROOM/LECTURE HALL/TRAINING ROOM OTHER-SPACE FUNCTION SYS-3 FLR-3 SCH-D HPLCMT-WEST ZN,   1.3000    
 Heating Sizing Factor Information, Zone SP-CONFERENCE/MEETING/MULTI-PURPOSE ROOM-SPACE FUNCTION SYS-3 FLR-4 SCH-C HPLCMT-SOUTH ZN,   1.3000    
 Heating Sizing Factor Information, Zone SP-CONFINEMENT CELL-SPACE FUNCTION SYS-3 FLR-3 SCH-G HPLCMT-EAST ZN,   1.3000    
 Heating Sizing Factor Information, Zone SP-COPY/PRINT ROOM-SPACE FUNCTION SYS-3 FLR-1 SCH-A HPLCMT-WEST ZN,   1.3000    
 Heating Sizing Factor Information, Zone SP-COURTROOM-SPACE FUNCTION SYS-3 FLR-1 SCH-A HPLCMT-NORTH ZN,   1.3000    
 Heating Sizing Factor Information, Zone SP-DINING AREA - BAR LOUNGE/LEISURE DINING-SPACE FUNCTION SYS-3 FLR-4 SCH-B HPLCMT-CORE ZN,   1.3000    
 Heating Sizing Factor Information, Zone SP-DINING AREA - CAFETERIA/FAST FOOD DINING-SPACE FUNCTION SYS-3 FLR-2 SCH-B HPLCMT-EAST ZN,   1.3000    
 Heating Sizing Factor Information, Zone SP-DINING AREA - FAMILY DINING-SPACE FUNCTION SYS-3 FLR-1 SCH-B HPLCMT-SOUTH ZN,   1.3000    
 Heating Sizing Factor Information, Zone SP-DINING AREA - OTHER-SPACE FUNCTION SYS-3 FLR-1 SCH-B HPLCMT-EAST ZN,   1.3000    
 Heating Sizing Factor Information, Zone SP-DINING AREA - PENITENTIARY-SPACE FUNCTION SYS-3 FLR-2 SCH-B HPLCMT-WEST ZN,   1.3000    
 Heating Sizing Factor Information, Zone SP-DINING AREA - SPACE DESIGNED TO ANSI/IES RP-28 (USED PRIMARILY BY RESIDENTS)-SPACE FUNCTION SYS-3 FLR-2 SCH-B HPLCMT-CORE ZN,   1.3000    
 Heating Sizing Factor Information, Zone SP-DRESSING/FITTING ROOM - PERFORMING ARTS THEATRE-SPACE FUNCTION SYS-3 FLR-1 SCH-C HPLCMT-CORE ZN,   1.3000    
 Heating Sizing Factor Information, Zone SP-EMERGENCY VEHICLE GARAGE-SPACE FUNCTION SYS-4 FLR-2 SCH-H HPLCMT-NORTH ZN,   1.3000    
 Heating Sizing Factor Information, Zone SP-FOOD PREPARATION AREA-SPACE FUNCTION SYS-3 FLR-2 SCH-B HPLCMT-SOUTH ZN,   1.3000    
! <Cooling Sizing Factor Information>, Sizing Factor ID, Value
 Cooling Sizing Factor Information, Global,   1.1000    
 Cooling Sizing Factor Information, Zone SP-AUDIENCE SEATING AREA PERMANENT - OTHER-SCH-H-SPACE FUNCTION SYS-3 FLR-4 SCH-H HPLCMT-EAST ZN,   1.1000    
 Cooling Sizing Factor Information, Zone SP-AUDIENCE SEATING AREA PERMANENT - OTHER-SCH-I-SPACE FUNCTION SYS-3 FLR-4 SCH-I HPLCMT-NORTH ZN,   1.1000    
 Cooling Sizing Factor Information, Zone SP-AUDIENCE SEATING AREA PERMANENT - OTHER-SCH-J-SPACE FUNCTION SYS-3 FLR-4 SCH-J HPLCMT-WEST ZN,   1.1000    
 Cooling Sizing Factor Information, Zone SP-AUDIENCE SEATING AREA PERMANENT - OTHER-SCH-K-SPACE FUNCTION SYS-3 FLR-3 SCH-K HPLCMT-CORE ZN,   1.1000    
 Cooling Sizing Factor Information, Zone SP-BANKING ACTIVITY AREA AND OFFICES-SPACE FUNCTION SYS-6 FLR-3 SCH-A HPLCMT-SOUTH ZN,   1.1000    
 Cooling Sizing Factor Information, Zone SP-CLASSROOM/LECTURE HALL/TRAINING ROOM - PENITENTARY-SPACE FUNCTION SYS-3 FLR-3 SCH-D HPLCMT-NORTH ZN,   1.1000    
 Cooling Sizing Factor Information, Zone SP-CLASSROOM/LECTURE HALL/TRAINING ROOM OTHER-SPACE FUNCTION SYS-3 FLR-3 SCH-D HPLCMT-WEST ZN,   1.1000    
 Cooling Sizing Factor Information, Zone SP-CONFERENCE/MEETING/MULTI-PURPOSE ROOM-SPACE FUNCTION SYS-3 FLR-4 SCH-C HPLCMT-SOUTH ZN,   1.1000    
 Cooling Sizing Factor Information, Zone SP-CONFINEMENT CELL-SPACE FUNCTION SYS-3 FLR-3 SCH-G HPLCMT-EAST ZN,   1.1000    
 Cooling Sizing Factor Information, Zone SP-COPY/PRINT ROOM-SPACE FUNCTION SYS-3 FLR-1 SCH-A HPLCMT-WEST ZN,   1.1000    
 Cooling Sizing Factor Information, Zone SP-COURTROOM-SPACE FUNCTION SYS-3 FLR-1 SCH-A HPLCMT-NORTH ZN,   1.1000    
 Cooling Sizing Factor Information, Zone SP-DINING AREA - BAR LOUNGE/LEISURE DINING-SPACE FUNCTION SYS-3 FLR-4 SCH-B HPLCMT-CORE ZN,   1.1000    
 Cooling Sizing Factor Information, Zone SP-DINING AREA - CAFETERIA/FAST FOOD DINING-SPACE FUNCTION SYS-3 FLR-2 SCH-B HPLCMT-EAST ZN,   1.1000    
 Cooling Sizing Factor Information, Zone SP-DINING AREA - FAMILY DINING-SPACE FUNCTION SYS-3 FLR-1 SCH-B HPLCMT-SOUTH ZN,   1.1000    
 Cooling Sizing Factor Information, Zone SP-DINING AREA - OTHER-SPACE FUNCTION SYS-3 FLR-1 SCH-B HPLCMT-EAST ZN,   1.1000    
 Cooling Sizing Factor Information, Zone SP-DINING AREA - PENITENTIARY-SPACE FUNCTION SYS-3 FLR-2 SCH-B HPLCMT-WEST ZN,   1.1000    
 Cooling Sizing Factor Information, Zone SP-DINING AREA - SPACE DESIGNED TO ANSI/IES RP-28 (USED PRIMARILY BY RESIDENTS)-SPACE FUNCTION SYS-3 FLR-2 SCH-B HPLCMT-CORE ZN,   1.1000    
 Cooling Sizing Factor Information, Zone SP-DRESSING/FITTING ROOM - PERFORMING ARTS THEATRE-SPACE FUNCTION SYS-3 FLR-1 SCH-C HPLCMT-CORE ZN,   1.1000    
 Cooling Sizing Factor Information, Zone SP-EMERGENCY VEHICLE GARAGE-SPACE FUNCTION SYS-4 FLR-2 SCH-H HPLCMT-NORTH ZN,   1.1000    
 Cooling Sizing Factor Information, Zone SP-FOOD PREPARATION AREA-SPACE FUNCTION SYS-3 FLR-2 SCH-B HPLCMT-SOUTH ZN,   1.1000    
! <Zone Sizing Information>, Zone Name, Load Type, Calc Des Load {W}, User Des Load {W}, Calc Des Air Flow Rate {m3/s}, User Des Air Flow Rate {m3/s}, Design Day Name, Date/Time of Peak, Temperature at Peak {C}, Humidity Ratio at Peak {kgWater/kgDryAir}, Floor Area {m2}, # Occupants, Calc Outdoor Air Flow Rate {m3/s}, Calc DOAS Heat Addition Rate {W}
 Zone Sizing Information, SP-AUDIENCE SEATING AREA PERMANENT - OTHER-SCH-H-SPACE FUNCTION SYS-3 FLR-4 SCH-H HPLCMT-EAST ZN, Cooling, 67474.00168, 74221.40185, 5.21670, 7.14375, FORT MCMURRAY AP ANN CLG .4% CONDNS DB=>MWB, 7/21 10:00:00, 24.18800, 8.76969E-003, 1875.00000, 375.13628, 7.14375, 0.00000
 Zone Sizing Information, SP-AUDIENCE SEATING AREA PERMANENT - OTHER-SCH-H-SPACE FUNCTION SYS-3 FLR-4 SCH-H HPLCMT-EAST ZN, Heating, 4960.98250, 6449.27725, 0.19909, 7.14375, FORT MCMURRAY AP ANN HTG 99.6% CONDNS DB, 1/21 09:00:00, -36.20000, 1.25811E-004, 1875.00000, 375.13628, 7.14375, 0.00000
 Zone Sizing Information, SP-AUDIENCE SEATING AREA PERMANENT - OTHER-SCH-I-SPACE FUNCTION SYS-3 FLR-4 SCH-I HPLCMT-NORTH ZN, Cooling, 65587.36918, 72146.10609, 4.24626, 7.14375, FORT MCMURRAY AP ANN CLG .4% CONDNS DB=>MWB, 7/21 15:00:00, 28.90000, 8.76969E-003, 1875.00000, 375.13628, 7.14375, 0.00000
 Zone Sizing Information, SP-AUDIENCE SEATING AREA PERMANENT - OTHER-SCH-I-SPACE FUNCTION SYS-3 FLR-4 SCH-I HPLCMT-NORTH ZN, Heating, 31295.08631, 40683.61221, 1.16485, 7.14375, FORT MCMURRAY AP ANN HTG 99.6% CONDNS DB, 1/21 15:10:00, -36.20000, 1.25811E-004, 1875.00000, 375.13628, 7.14375, 0.00000
 Zone Sizing Information, SP-AUDIENCE SEATING AREA PERMANENT - OTHER-SCH-J-SPACE FUNCTION SYS-3 FLR-4 SCH-J HPLCMT-WEST ZN, Cooling, 67250.29266, 73975.32192, 5.19893, 7.14375, FORT MCMURRAY AP ANN CLG .4% CONDNS DB=>MWB, 7/21 16:40:00, 27.49467, 8.76969E-003, 1875.00000, 375.13628, 7.14375, 0.00000
 Zone Sizing Information, SP-AUDIENCE SEATING AREA PERMANENT - OTHER-SCH-J-SPACE FUNCTION SYS-3 FLR-4 SCH-J HPLCMT-WEST ZN, Heating, 9477.26770, 12320.44801, 0.38406, 7.14375, FORT MCMURRAY AP ANN HTG 99.6% CONDNS DB, 1/21 09:00:00, -36.20000, 1.25811E-004, 1875.00000, 375.13628, 7.14375, 0.00000
 Zone Sizing Information, SP-AUDIENCE SEATING AREA PERMANENT - OTHER-SCH-K-SPACE FUNCTION SYS-3 FLR-3 SCH-K HPLCMT-CORE ZN, Cooling, 0.00000, 0.00000, 0.00000, 9.52500, FORT MCMURRAY AP ANN CLG .4% CONDNS DB=>MWB, , 28.90000, 8.76969E-003, 2500.00000, 500.18171, 9.52500, 0.00000
 Zone Sizing Information, SP-AUDIENCE SEATING AREA PERMANENT - OTHER-SCH-K-SPACE FUNCTION SYS-3 FLR-3 SCH-K HPLCMT-CORE ZN, Heating, 0.00000, 0.00000, 0.00000, 9.52500, FORT MCMURRAY AP ANN HTG 99.6% CONDNS DB, , -36.20000, 1.25811E-004, 2500.00000, 500.18171, 9.52500, 0.00000
 Zone Sizing Information, SP-BANKING ACTIVITY AREA AND OFFICES-SPACE FUNCTION SYS-6 FLR-3 SCH-A HPLCMT-SOUTH ZN, Cooling, 46019.91713, 50621.90885, 3.55667, 3.91233, FORT MCMURRAY AP ANN CLG .4% CONDNS DB=>MWB, 7/21 15:00:00, 28.90000, 8.76969E-003, 1875.00000, 75.02726, 1.64783, 0.00000
 Zone Sizing Information, SP-BANKING ACTIVITY AREA AND OFFICES-SPACE FUNCTION SYS-6 FLR-3 SCH-A HPLCMT-SOUTH ZN, Heating, 12013.13455, 15617.07491, 0.47417, 1.64783, FORT MCMURRAY AP ANN HTG 99.6% CONDNS DB, 1/21 08:00:00, -36.20000, 1.25811E-004, 1875.00000, 75.02726, 1.64783, 0.00000
 Zone Sizing Information, SP-CLASSROOM/LECTURE HALL/TRAINING ROOM - PENITENTARY-SPACE FUNCTION SYS-3 FLR-3 SCH-D HPLCMT-NORTH ZN, Cooling, 48420.24977, 53262.27475, 3.74302, 5.21970, FORT MCMURRAY AP ANN CLG .4% CONDNS DB=>MWB, 7/21 15:40:00, 28.40400, 8.76969E-003, 1875.00000, 250.09086, 5.21970, 0.00000
 Zone Sizing Information, SP-CLASSROOM/LECTURE HALL/TRAINING ROOM - PENITENTARY-SPACE FUNCTION SYS-3 FLR-3 SCH-D HPLCMT-NORTH ZN, Heating, 12184.58103, 15839.95534, 0.47630, 5.21970, FORT MCMURRAY AP ANN HTG 99.6% CONDNS DB, 1/21 09:00:00, -36.20000, 1.25811E-004, 1875.00000, 250.09086, 5.21970, 0.00000
 Zone Sizing Information, SP-CLASSROOM/LECTURE HALL/TRAINING ROOM OTHER-SPACE FUNCTION SYS-3 FLR-3 SCH-D HPLCMT-WEST ZN, Cooling, 56369.44394, 62006.38833, 4.35757, 5.21970, FORT MCMURRAY AP ANN CLG .4% CONDNS DB=>MWB, 7/21 16:00:00, 28.15600, 8.76969E-003, 1875.00000, 250.09086, 5.21970, 0.00000
 Zone Sizing Information, SP-CLASSROOM/LECTURE HALL/TRAINING ROOM OTHER-SPACE FUNCTION SYS-3 FLR-3 SCH-D HPLCMT-WEST ZN, Heating, 2301.89850, 2992.46805, 9.12051E-002, 5.21970, FORT MCMURRAY AP ANN HTG 99.6% CONDNS DB, 1/21 08:40:00, -36.20000, 1.25811E-004, 1875.00000, 250.09086, 5.21970, 0.00000
 Zone Sizing Information, SP-CONFERENCE/MEETING/MULTI-PURPOSE ROOM-SPACE FUNCTION SYS-3 FLR-4 SCH-C HPLCMT-SOUTH ZN, Cooling, 78418.51322, 86260.36454, 6.06221, 6.66843, FORT MCMURRAY AP ANN CLG .4% CONDNS DB=>MWB, 7/21 13:30:00, 28.59000, 8.76969E-003, 1875.00000, 375.13628, 2.95275, 0.00000
 Zone Sizing Information, SP-CONFERENCE/MEETING/MULTI-PURPOSE ROOM-SPACE FUNCTION SYS-3 FLR-4 SCH-C HPLCMT-SOUTH ZN, Heating, 35752.56413, 46478.33337, 1.41728, 2.95275, FORT MCMURRAY AP ANN HTG 99.6% CONDNS DB, 1/21 09:00:00, -36.20000, 1.25811E-004, 1875.00000, 375.13628, 2.95275, 0.00000
 Zone Sizing Information, SP-CONFINEMENT CELL-SPACE FUNCTION SYS-3 FLR-3 SCH-G HPLCMT-EAST ZN, Cooling, 32600.99209, 35861.09130, 2.51960, 2.77156, FORT MCMURRAY AP ANN CLG .4% CONDNS DB=>MWB, 7/21 09:00:00, 22.08000, 8.76969E-003, 1875.00000, 75.02726, 2.33363, 0.00000
 Zone Sizing Information, SP-CONFINEMENT CELL-SPACE FUNCTION SYS-3 FLR-3 SCH-G HPLCMT-EAST ZN, Heating, 6222.32542, 8089.02305, 0.25214, 2.33363, FORT MCMURRAY AP ANN HTG 99.6% CONDNS DB, 1/21 13:00:00, -36.20000, 1.25811E-004, 1875.00000, 75.02726, 2.33363, 0.00000
 Zone Sizing Information, SP-COPY/PRINT ROOM-SPACE FUNCTION SYS-3 FLR-1 SCH-A HPLCMT-WEST ZN, Cooling, 92142.66727, 101356.93399, 7.12117, 7.83329, FORT MCMURRAY AP ANN CLG .4% CONDNS DB=>MWB, 7/21 17:00:00, 27.16400, 8.76969E-003, 1875.00000, 18.75681, 4.76250, 0.00000
 Zone Sizing Information, SP-COPY/PRINT ROOM-SPACE FUNCTION SYS-3 FLR-1 SCH-A HPLCMT-WEST ZN, Heating, 0.00000, 0.00000, 0.00000, 4.76250, FORT MCMURRAY AP ANN HTG 99.6% CONDNS DB, , -36.20000, 1.25811E-004, 1875.00000, 18.75681, 4.76250, 0.00000
 Zone Sizing Information, SP-COURTROOM-SPACE FUNCTION SYS-3 FLR-1 SCH-A HPLCMT-NORTH ZN, Cooling, 42289.91681, 46518.90849, 3.26975, 3.80048, FORT MCMURRAY AP ANN CLG .4% CONDNS DB=>MWB, 7/21 17:00:00, 27.16400, 8.76969E-003, 1875.00000, 375.13628, 3.80048, 0.00000
 Zone Sizing Information, SP-COURTROOM-SPACE FUNCTION SYS-3 FLR-1 SCH-A HPLCMT-NORTH ZN, Heating, 0.00000, 0.00000, 0.00000, 3.80048, FORT MCMURRAY AP ANN HTG 99.6% CONDNS DB, , -36.20000, 1.25811E-004, 1875.00000, 375.13628, 3.80048, 0.00000
 Zone Sizing Information, SP-DINING AREA - BAR LOUNGE/LEISURE DINING-SPACE FUNCTION SYS-3 FLR-4 SCH-B HPLCMT-CORE ZN, Cooling, 74173.58346, 81590.94180, 5.73324, 8.95350, FORT MCMURRAY AP ANN CLG .4% CONDNS DB=>MWB, 7/21 13:10:00, 28.38333, 8.76969E-003, 2500.00000, 250.09086, 8.95350, 0.00000
 Zone Sizing Information, SP-DINING AREA - BAR LOUNGE/LEISURE DINING-SPACE FUNCTION SYS-3 FLR-4 SCH-B HPLCMT-CORE ZN, Heating, 17871.95760, 23233.54488, 0.68373, 8.95350, FORT MCMURRAY AP ANN HTG 99.6% CONDNS DB, 1/21 10:00:00, -36.20000, 1.25811E-004, 2500.00000, 250.09086, 8.95350, 0.00000
 Zone Sizing Information, SP-DINING AREA - CAFETERIA/FAST FOOD DINING-SPACE FUNCTION SYS-3 FLR-2 SCH-B HPLCMT-EAST ZN, Cooling, 43025.17693, 47327.69462, 3.01704, 8.81063, FORT MCMURRAY AP ANN CLG .4% CONDNS DB=>MWB, 7/21 09:00:00, 22.08000, 8.76969E-003, 1875.00000, 187.56814, 8.81063, 0.00000
 Zone Sizing Information, SP-DINING AREA - CAFETERIA/FAST FOOD DINING-SPACE FUNCTION SYS-3 FLR-2 SCH-B HPLCMT-EAST ZN, Heating, 1788.16501, 2324.61451, 7.09931E-002, 8.81063, FORT MCMURRAY AP ANN HTG 99.6% CONDNS DB, 1/21 09:10:00, -36.20000, 1.25811E-004, 1875.00000, 187.56814, 8.81063, 0.00000
 Zone Sizing Information, SP-DINING AREA - FAMILY DINING-SPACE FUNCTION SYS-3 FLR-1 SCH-B HPLCMT-SOUTH ZN, Cooling, 26169.47295, 28786.42024, 2.02275, 6.71513, FORT MCMURRAY AP ANN CLG .4% CONDNS DB=>MWB, 7/21 20:00:00, 22.70000, 8.76969E-003, 1875.00000, 187.56814, 6.71513, 0.00000
 Zone Sizing Information, SP-DINING AREA - FAMILY DINING-SPACE FUNCTION SYS-3 FLR-1 SCH-B HPLCMT-SOUTH ZN, Heating, 0.00000, 0.00000, 0.00000, 6.71513, FORT MCMURRAY AP ANN HTG 99.6% CONDNS DB, , -36.20000, 1.25811E-004, 1875.00000, 187.56814, 6.71513, 0.00000
 Zone Sizing Information, SP-DINING AREA - OTHER-SPACE FUNCTION SYS-3 FLR-1 SCH-B HPLCMT-EAST ZN, Cooling, 23793.16889, 26172.48578, 1.83905, 6.71513, FORT MCMURRAY AP ANN CLG .4% CONDNS DB=>MWB, 7/21 13:00:00, 28.28000, 8.76969E-003, 1875.00000, 187.56814, 6.71513, 0.00000
 Zone Sizing Information, SP-DINING AREA - OTHER-SPACE FUNCTION SYS-3 FLR-1 SCH-B HPLCMT-EAST ZN, Heating, 0.00000, 0.00000, 0.00000, 6.71513, FORT MCMURRAY AP ANN HTG 99.6% CONDNS DB, , -36.20000, 1.25811E-004, 1875.00000, 187.56814, 6.71513, 0.00000
 Zone Sizing Information, SP-DINING AREA - PENITENTIARY-SPACE FUNCTION SYS-3 FLR-2 SCH-B HPLCMT-WEST ZN, Cooling, 52692.14091, 57961.35500, 4.07264, 6.71513, FORT MCMURRAY AP ANN CLG .4% CONDNS DB=>MWB, 7/21 19:20:00, 23.60933, 8.76969E-003, 1875.00000, 187.56814, 6.71513, 0.00000
 Zone Sizing Information, SP-DINING AREA - PENITENTIARY-SPACE FUNCTION SYS-3 FLR-2 SCH-B HPLCMT-WEST ZN, Heating, 0.00000, 0.00000, 0.00000, 6.71513, FORT MCMURRAY AP ANN HTG 99.6% CONDNS DB, , -36.20000, 1.25811E-004, 1875.00000, 187.56814, 6.71513, 0.00000
 Zone Sizing Information, SP-DINING AREA - SPACE DESIGNED TO ANSI/IES RP-28 (USED PRIMARILY BY RESIDENTS)-SPACE FUNCTION SYS-3 FLR-2 SCH-B HPLCMT-CORE ZN, Cooling, 60631.96964, 66695.16661, 4.68675, 8.95350, FORT MCMURRAY AP ANN CLG .4% CONDNS DB=>MWB, 7/21 20:40:00, 21.95600, 8.76969E-003, 2500.00000, 250.09086, 8.95350, 0.00000
 Zone Sizing Information, SP-DINING AREA - SPACE DESIGNED TO ANSI/IES RP-28 (USED PRIMARILY BY RESIDENTS)-SPACE FUNCTION SYS-3 FLR-2 SCH-B HPLCMT-CORE ZN, Heating, 0.00000, 0.00000, 0.00000, 8.95350, FORT MCMURRAY AP ANN HTG 99.6% CONDNS DB, , -36.20000, 1.25811E-004, 2500.00000, 250.09086, 8.95350, 0.00000
 Zone Sizing Information, SP-DRESSING/FITTING ROOM - PERFORMING ARTS THEATRE-SPACE FUNCTION SYS-3 FLR-1 SCH-C HPLCMT-CORE ZN, Cooling, 28841.02021, 31725.12223, 2.05280, 2.25809, FORT MCMURRAY AP ANN CLG .4% CONDNS DB=>MWB, 7/21 08:00:00, 19.72400, 8.76969E-003, 2500.00000, 83.36362, 1.39700, 0.00000
 Zone Sizing Information, SP-DRESSING/FITTING ROOM - PERFORMING ARTS THEATRE-SPACE FUNCTION SYS-3 FLR-1 SCH-C HPLCMT-CORE ZN, Heating, 0.00000, 0.00000, 0.00000, 1.39700, FORT MCMURRAY AP ANN HTG 99.6% CONDNS DB, , -36.20000, 1.25811E-004, 2500.00000, 83.36362, 1.39700, 0.00000
 Zone Sizing Information, SP-EMERGENCY VEHICLE GARAGE-SPACE FUNCTION SYS-4 FLR-2 SCH-H HPLCMT-NORTH ZN, Cooling, 24679.81707, 27147.79877, 1.90749, 7.14375, FORT MCMURRAY AP ANN CLG .4% CONDNS DB=>MWB, 7/21 20:10:00, 22.51400, 8.76969E-003, 1875.00000, 75.02726, 7.14375, 0.00000
 Zone Sizing Information, SP-EMERGENCY VEHICLE GARAGE-SPACE FUNCTION SYS-4 FLR-2 SCH-H HPLCMT-NORTH ZN, Heating, 0.00000, 0.00000, 0.00000, 7.14375, FORT MCMURRAY AP ANN HTG 99.6% CONDNS DB, , -36.20000, 1.25811E-004, 1875.00000, 75.02726, 7.14375, 0.00000
 Zone Sizing Information, SP-FOOD PREPARATION AREA-SPACE FUNCTION SYS-3 FLR-2 SCH-B HPLCMT-SOUTH ZN, Cooling, 49954.75567, 54950.23124, 3.86099, 4.24709, FORT MCMURRAY AP ANN CLG .4% CONDNS DB=>MWB, 7/21 13:30:00, 28.59000, 8.76969E-003, 1875.00000, 93.78407, 2.57175, 0.00000
 Zone Sizing Information, SP-FOOD PREPARATION AREA-SPACE FUNCTION SYS-3 FLR-2 SCH-B HPLCMT-SOUTH ZN, Heating, 0.00000, 0.00000, 0.00000, 2.57175, FORT MCMURRAY AP ANN HTG 99.6% CONDNS DB, , -36.20000, 1.25811E-004, 1875.00000, 93.78407, 2.57175, 0.00000
! <System Sizing Information>, System Name, Load Type, Peak Load Kind, User Design Capacity, Calc Des Air Flow Rate [m3/s], User Des Air Flow Rate [m3/s], Design Day Name, Date/Time of Peak
 System Sizing Information, SYS_3_PSZ SP-AUDIENCE SEATING AREA PERMANENT - OTHER-SCH-H-SPACE FUNCTION SYS-3 FLR-4 SCH-H HPLCMT-EAST ZN, Cooling, Sensible, 92562.87, 7.14375, 7.14375, FORT MCMURRAY AP ANN CLG .4% CONDNS DB=>MWB, 7/21 05:00:00
 System Sizing Information, SYS_3_PSZ SP-AUDIENCE SEATING AREA PERMANENT - OTHER-SCH-H-SPACE FUNCTION SYS-3 FLR-4 SCH-H HPLCMT-EAST ZN, Heating, Sensible, 655253.80, 7.14375, 7.14375, FORT MCMURRAY AP ANN HTG 99.6% CONDNS DB, 1/21 00:10:00
 System Sizing Information, SYS_3_PSZ SP-AUDIENCE SEATING AREA PERMANENT - OTHER-SCH-I-SPACE FUNCTION SYS-3 FLR-4 SCH-I HPLCMT-NORTH ZN, Cooling, Sensible, 131547.16, 7.14375, 7.14375, FORT MCMURRAY AP ANN CLG .4% CONDNS DB=>MWB, 7/21 05:00:00
 System Sizing Information, SYS_3_PSZ SP-AUDIENCE SEATING AREA PERMANENT - OTHER-SCH-I-SPACE FUNCTION SYS-3 FLR-4 SCH-I HPLCMT-NORTH ZN, Heating, Sensible, 655253.80, 7.14375, 7.14375, FORT MCMURRAY AP ANN HTG 99.6% CONDNS DB, 1/21 00:10:00
 System Sizing Information, SYS_3_PSZ SP-AUDIENCE SEATING AREA PERMANENT - OTHER-SCH-J-SPACE FUNCTION SYS-3 FLR-4 SCH-J HPLCMT-WEST ZN, Cooling, Sensible, 119920.27, 7.14375, 7.14375, FORT MCMURRAY AP ANN CLG .4% CONDNS DB=>MWB, 7/21 05:00:00
 System Sizing Information, SYS_3_PSZ SP-AUDIENCE SEATING AREA PERMANENT - OTHER-SCH-J-SPACE FUNCTION SYS-3 FLR-4 SCH-J HPLCMT-WEST ZN, Heating, Sensible, 655253.80, 7.14375, 7.14375, FORT MCMURRAY AP ANN HTG 99.6% CONDNS DB, 1/21 00:10:00
 System Sizing Information, SYS_3_PSZ SP-AUDIENCE SEATING AREA PERMANENT - OTHER-SCH-K-SPACE FUNCTION SYS-3 FLR-3 SCH-K HPLCMT-CORE ZN, Cooling, Sensible, 175396.22, 9.52500, 9.52500, FORT MCMURRAY AP ANN CLG .4% CONDNS DB=>MWB, 7/21 05:00:00
 System Sizing Information, SYS_3_PSZ SP-AUDIENCE SEATING AREA PERMANENT - OTHER-SCH-K-SPACE FUNCTION SYS-3 FLR-3 SCH-K HPLCMT-CORE ZN, Heating, Sensible, 873671.73, 9.52500, 9.52500, FORT MCMURRAY AP ANN HTG 99.6% CONDNS DB, 1/21 00:10:00
 System Sizing Information, SYS_3_PSZ SP-CLASSROOM/LECTURE HALL/TRAINING ROOM - PENITENTARY-SPACE FUNCTION SYS-3 FLR-3 SCH-D HPLCMT-NORTH ZN, Cooling, Sensible, 93118.76, 5.21970, 5.21970, FORT MCMURRAY AP ANN CLG .4% CONDNS DB=>MWB, 7/21 05:00:00
 System Sizing Information, SYS_3_PSZ SP-CLASSROOM/LECTURE HALL/TRAINING ROOM - PENITENTARY-SPACE FUNCTION SYS-3 FLR-3 SCH-D HPLCMT-NORTH ZN, Heating, Sensible, 478772.11, 5.21970, 5.21970, FORT MCMURRAY AP ANN HTG 99.6% CONDNS DB, 1/21 00:10:00
 System Sizing Information, SYS_3_PSZ SP-CLASSROOM/LECTURE HALL/TRAINING ROOM OTHER-SPACE FUNCTION SYS-3 FLR-3 SCH-D HPLCMT-WEST ZN, Cooling, Sensible, 91619.57, 5.21970, 5.21970, FORT MCMURRAY AP ANN CLG .4% CONDNS DB=>MWB, 7/21 05:00:00
 System Sizing Information, SYS_3_PSZ SP-CLASSROOM/LECTURE HALL/TRAINING ROOM OTHER-SPACE FUNCTION SYS-3 FLR-3 SCH-D HPLCMT-WEST ZN, Heating, Sensible, 478772.11, 5.21970, 5.21970, FORT MCMURRAY AP ANN HTG 99.6% CONDNS DB, 1/21 00:10:00
 System Sizing Information, SYS_3_PSZ SP-CONFERENCE/MEETING/MULTI-PURPOSE ROOM-SPACE FUNCTION SYS-3 FLR-4 SCH-C HPLCMT-SOUTH ZN, Cooling, Sensible, 100634.16, 6.66843, 6.66843, FORT MCMURRAY AP ANN CLG .4% CONDNS DB=>MWB, 7/21 05:00:00
 System Sizing Information, SYS_3_PSZ SP-CONFERENCE/MEETING/MULTI-PURPOSE ROOM-SPACE FUNCTION SYS-3 FLR-4 SCH-C HPLCMT-SOUTH ZN, Heating, Sensible, 270838.24, 2.95275, 2.95275, FORT MCMURRAY AP ANN HTG 99.6% CONDNS DB, 1/21 00:10:00
 System Sizing Information, SYS_3_PSZ SP-CONFINEMENT CELL-SPACE FUNCTION SYS-3 FLR-3 SCH-G HPLCMT-EAST ZN, Cooling, Sensible, 30118.85, 2.77156, 2.77156, FORT MCMURRAY AP ANN CLG .4% CONDNS DB=>MWB, 7/21 05:00:00
 System Sizing Information, SYS_3_PSZ SP-CONFINEMENT CELL-SPACE FUNCTION SYS-3 FLR-3 SCH-G HPLCMT-EAST ZN, Heating, Sensible, 214049.57, 2.33363, 2.33363, FORT MCMURRAY AP ANN HTG 99.6% CONDNS DB, 1/21 00:10:00
 System Sizing Information, SYS_3_PSZ SP-COPY/PRINT ROOM-SPACE FUNCTION SYS-3 FLR-1 SCH-A HPLCMT-WEST ZN, Cooling, Sensible, 117242.31, 7.83329, 7.83329, FORT MCMURRAY AP ANN CLG .4% CONDNS DB=>MWB, 7/21 05:00:00
 System Sizing Information, SYS_3_PSZ SP-COPY/PRINT ROOM-SPACE FUNCTION SYS-3 FLR-1 SCH-A HPLCMT-WEST ZN, Heating, Sensible, 436835.87, 4.76250, 4.76250, FORT MCMURRAY AP ANN HTG 99.6% CONDNS DB, 1/21 00:10:00
 System Sizing Information, SYS_3_PSZ SP-COURTROOM-SPACE FUNCTION SYS-3 FLR-1 SCH-A HPLCMT-NORTH ZN, Cooling, Sensible, 62342.17, 3.80048, 3.80048, FORT MCMURRAY AP ANN CLG .4% CONDNS DB=>MWB, 7/21 05:00:00
 System Sizing Information, SYS_3_PSZ SP-COURTROOM-SPACE FUNCTION SYS-3 FLR-1 SCH-A HPLCMT-NORTH ZN, Heating, Sensible, 348595.02, 3.80048, 3.80048, FORT MCMURRAY AP ANN HTG 99.6% CONDNS DB, 1/21 00:10:00
 System Sizing Information, SYS_3_PSZ SP-DINING AREA - BAR LOUNGE/LEISURE DINING-SPACE FUNCTION SYS-3 FLR-4 SCH-B HPLCMT-CORE ZN, Cooling, Sensible, 159514.96, 8.95350, 8.95350, FORT MCMURRAY AP ANN CLG .4% CONDNS DB=>MWB, 7/21 05:00:00
 System Sizing Information, SYS_3_PSZ SP-DINING AREA - BAR LOUNGE/LEISURE DINING-SPACE FUNCTION SYS-3 FLR-4 SCH-B HPLCMT-CORE ZN, Heating, Sensible, 821251.43, 8.95350, 8.95350, FORT MCMURRAY AP ANN HTG 99.6% CONDNS DB, 1/21 00:10:00
 System Sizing Information, SYS_3_PSZ SP-DINING AREA - CAFETERIA/FAST FOOD DINING-SPACE FUNCTION SYS-3 FLR-2 SCH-B HPLCMT-EAST ZN, Cooling, Sensible, 92651.12, 8.81063, 8.81063, FORT MCMURRAY AP ANN CLG .4% CONDNS DB=>MWB, 7/21 05:00:00
 System Sizing Information, SYS_3_PSZ SP-DINING AREA - CAFETERIA/FAST FOOD DINING-SPACE FUNCTION SYS-3 FLR-2 SCH-B HPLCMT-EAST ZN, Heating, Sensible, 808146.35, 8.81063, 8.81063, FORT MCMURRAY AP ANN HTG 99.6% CONDNS DB, 1/21 00:10:00
 System Sizing Information, SYS_3_PSZ SP-DINING AREA - FAMILY DINING-SPACE FUNCTION SYS-3 FLR-1 SCH-B HPLCMT-SOUTH ZN, Cooling, Sensible, 75436.92, 6.71513, 6.71513, FORT MCMURRAY AP ANN CLG .4% CONDNS DB=>MWB, 7/21 05:00:00
 System Sizing Information, SYS_3_PSZ SP-DINING AREA - FAMILY DINING-SPACE FUNCTION SYS-3 FLR-1 SCH-B HPLCMT-SOUTH ZN, Heating, Sensible, 615938.57, 6.71513, 6.71513, FORT MCMURRAY AP ANN HTG 99.6% CONDNS DB, 1/21 00:10:00
 System Sizing Information, SYS_3_PSZ SP-DINING AREA - OTHER-SPACE FUNCTION SYS-3 FLR-1 SCH-B HPLCMT-EAST ZN, Cooling, Sensible, 118832.59, 6.71513, 6.71513, FORT MCMURRAY AP ANN CLG .4% CONDNS DB=>MWB, 7/21 05:00:00
 System Sizing Information, SYS_3_PSZ SP-DINING AREA - OTHER-SPACE FUNCTION SYS-3 FLR-1 SCH-B HPLCMT-EAST ZN, Heating, Sensible, 615938.57, 6.71513, 6.71513, FORT MCMURRAY AP ANN HTG 99.6% CONDNS DB, 1/21 00:10:00
 System Sizing Information, SYS_3_PSZ SP-DINING AREA - PENITENTIARY-SPACE FUNCTION SYS-3 FLR-2 SCH-B HPLCMT-WEST ZN, Cooling, Sensible, 82508.81, 6.71513, 6.71513, FORT MCMURRAY AP ANN CLG .4% CONDNS DB=>MWB, 7/21 05:00:00
 System Sizing Information, SYS_3_PSZ SP-DINING AREA - PENITENTIARY-SPACE FUNCTION SYS-3 FLR-2 SCH-B HPLCMT-WEST ZN, Heating, Sensible, 615938.57, 6.71513, 6.71513, FORT MCMURRAY AP ANN HTG 99.6% CONDNS DB, 1/21 00:10:00
 System Sizing Information, SYS_3_PSZ SP-DINING AREA - SPACE DESIGNED TO ANSI/IES RP-28 (USED PRIMARILY BY RESIDENTS)-SPACE FUNCTION SYS-3 FLR-2 SCH-B HPLCMT-CORE ZN, Cooling, Sensible, 92867.78, 8.95350, 8.95350, FORT MCMURRAY AP ANN CLG .4% CONDNS DB=>MWB, 7/21 05:00:00
 System Sizing Information, SYS_3_PSZ SP-DINING AREA - SPACE DESIGNED TO ANSI/IES RP-28 (USED PRIMARILY BY RESIDENTS)-SPACE FUNCTION SYS-3 FLR-2 SCH-B HPLCMT-CORE ZN, Heating, Sensible, 821251.43, 8.95350, 8.95350, FORT MCMURRAY AP ANN HTG 99.6% CONDNS DB, 1/21 00:10:00
 System Sizing Information, SYS_3_PSZ SP-DRESSING/FITTING ROOM - PERFORMING ARTS THEATRE-SPACE FUNCTION SYS-3 FLR-1 SCH-C HPLCMT-CORE ZN, Cooling, Sensible, 21702.36, 2.25809, 2.25809, FORT MCMURRAY AP ANN CLG .4% CONDNS DB=>MWB, 7/21 05:00:00
 System Sizing Information, SYS_3_PSZ SP-DRESSING/FITTING ROOM - PERFORMING ARTS THEATRE-SPACE FUNCTION SYS-3 FLR-1 SCH-C HPLCMT-CORE ZN, Heating, Sensible, 128138.52, 1.39700, 1.39700, FORT MCMURRAY AP ANN HTG 99.6% CONDNS DB, 1/21 00:10:00
 System Sizing Information, SYS_3_PSZ SP-FOOD PREPARATION AREA-SPACE FUNCTION SYS-3 FLR-2 SCH-B HPLCMT-SOUTH ZN, Cooling, Sensible, 67774.56, 4.24709, 4.24709, FORT MCMURRAY AP ANN CLG .4% CONDNS DB=>MWB, 7/21 05:00:00
 System Sizing Information, SYS_3_PSZ SP-FOOD PREPARATION AREA-SPACE FUNCTION SYS-3 FLR-2 SCH-B HPLCMT-SOUTH ZN, Heating, Sensible, 235891.37, 2.57175, 2.57175, FORT MCMURRAY AP ANN HTG 99.6% CONDNS DB, 1/21 00:10:00
 System Sizing Information, SYS_4_PSZ_SP-EMERGENCY VEHICLE GARAGE-SPACE FUNCTION SYS-4 FLR-2 SCH-H HPLCMT-NORTH ZN, Cooling, Sensible, 78713.19, 7.14375, 7.14375, FORT MCMURRAY AP ANN CLG .4% CONDNS DB=>MWB, 7/21 05:00:00
 System Sizing Information, SYS_4_PSZ_SP-EMERGENCY VEHICLE GARAGE-SPACE FUNCTION SYS-4 FLR-2 SCH-H HPLCMT-NORTH ZN, Heating, Sensible, 655253.80, 7.14375, 7.14375, FORT MCMURRAY AP ANN HTG 99.6% CONDNS DB, 1/21 00:10:00
 System Sizing Information, SYS_6_VAV WITH REHEAT, Cooling, Sensible, 59191.06, 3.91233, 3.91233, FORT MCMURRAY AP ANN CLG .4% CONDNS DB=>MWB, 7/21 00:00:00
 System Sizing Information, SYS_6_VAV WITH REHEAT, Heating, Sensible, 94084.08, 1.64783, 1.64783, FORT MCMURRAY AP ANN HTG 99.6% CONDNS DB, 1/21 00:10:00
! <Component Sizing Information>, Component Type, Component Name, Input Field Description, Value
 Component Sizing Information, AirTerminal:SingleDuct:Uncontrolled, AIR TERMINAL SINGLE DUCT UNCONTROLLED 14, Design Size Maximum Air Flow Rate [m3/s], 7.14375
 Component Sizing Information, ZoneHVAC:Baseboard:Convective:Water, ZONE HVAC BASEBOARD CONVECTIVE WATER 14, Design Size Maximum Water Flow Rate [m3/s], 9.63252E-005
 Component Sizing Information, ZoneHVAC:Baseboard:Convective:Water, ZONE HVAC BASEBOARD CONVECTIVE WATER 14, Design Size U-Factor Times Area Value [W/K], 194.60433
 Component Sizing Information, AirTerminal:SingleDuct:Uncontrolled, AIR TERMINAL SINGLE DUCT UNCONTROLLED 15, Design Size Maximum Air Flow Rate [m3/s], 7.14375
 Component Sizing Information, ZoneHVAC:Baseboard:Convective:Water, ZONE HVAC BASEBOARD CONVECTIVE WATER 15, Design Size Maximum Water Flow Rate [m3/s], 6.07643E-004
 Component Sizing Information, ZoneHVAC:Baseboard:Convective:Water, ZONE HVAC BASEBOARD CONVECTIVE WATER 15, Design Size U-Factor Times Area Value [W/K], 853.79460
 Component Sizing Information, AirTerminal:SingleDuct:Uncontrolled, AIR TERMINAL SINGLE DUCT UNCONTROLLED 16, Design Size Maximum Air Flow Rate [m3/s], 7.14375
 Component Sizing Information, ZoneHVAC:Baseboard:Convective:Water, ZONE HVAC BASEBOARD CONVECTIVE WATER 16, Design Size Maximum Water Flow Rate [m3/s], 1.84016E-004
 Component Sizing Information, ZoneHVAC:Baseboard:Convective:Water, ZONE HVAC BASEBOARD CONVECTIVE WATER 16, Design Size U-Factor Times Area Value [W/K], 372.05113
 Component Sizing Information, AirTerminal:SingleDuct:Uncontrolled, AIR TERMINAL SINGLE DUCT UNCONTROLLED 10, Design Size Maximum Air Flow Rate [m3/s], 9.52500
 Component Sizing Information, ZoneHVAC:Baseboard:Convective:Water, ZONE HVAC BASEBOARD CONVECTIVE WATER 10, Design Size Maximum Water Flow Rate [m3/s], 0.00000
 Component Sizing Information, ZoneHVAC:Baseboard:Convective:Water, ZONE HVAC BASEBOARD CONVECTIVE WATER 10, Design Size U-Factor Times Area Value [W/K], 0.00000
 Component Sizing Information, AirTerminal:SingleDuct:VAV:Reheat, AIR TERMINAL SINGLE DUCT VAV REHEAT 1, Design Size Maximum Air Flow Rate [m3/s], 3.91233
 Component Sizing Information, AirTerminal:SingleDuct:VAV:Reheat, AIR TERMINAL SINGLE DUCT VAV REHEAT 1, Design Size Constant Minimum Air Flow Fraction, 0.36519
 Component Sizing Information, AirTerminal:SingleDuct:VAV:Reheat, AIR TERMINAL SINGLE DUCT VAV REHEAT 1, User-Specified Constant Minimum Air Flow Fraction, 0.30000
 Component Sizing Information, AirTerminal:SingleDuct:VAV:Reheat, AIR TERMINAL SINGLE DUCT VAV REHEAT 1, Design Size Minimum Air Flow Rate [m3/s], 1.17370
 Component Sizing Information, AirTerminal:SingleDuct:VAV:Reheat, AIR TERMINAL SINGLE DUCT VAV REHEAT 1, Design Size Maximum Flow per Zone Floor Area during Reheat [m3/s-m2], 6.25973E-004
 Component Sizing Information, AirTerminal:SingleDuct:VAV:Reheat, AIR TERMINAL SINGLE DUCT VAV REHEAT 1, Design Size Maximum Flow Fraction during Reheat [], 0.30000
 Component Sizing Information, AirTerminal:SingleDuct:VAV:Reheat, AIR TERMINAL SINGLE DUCT VAV REHEAT 1, Design Size Maximum Reheat Water Flow Rate [m3/s], 4.26117E-004
 Component Sizing Information, AirTerminal:SingleDuct:VAV:Reheat, AIR TERMINAL SINGLE DUCT VAV REHEAT 1, Design Size Reheat Coil Sizing Air Volume Flow Rate [m3/s], 1.17370
 Component Sizing Information, AirTerminal:SingleDuct:VAV:Reheat, AIR TERMINAL SINGLE DUCT VAV REHEAT 1, Design Size Reheat Coil Sizing Inlet Air Temperature [C], 13.10000
 Component Sizing Information, AirTerminal:SingleDuct:VAV:Reheat, AIR TERMINAL SINGLE DUCT VAV REHEAT 1, Design Size Reheat Coil Sizing Inlet Air Humidity Ratio [kgWater/kgDryAir], 8.00000E-003
 Component Sizing Information, Coil:Heating:Water, COIL HEATING WATER 2, Design Size Rated Capacity [W], 28529.88513
 Component Sizing Information, Coil:Heating:Water, COIL HEATING WATER 2, Design Size Maximum Water Flow Rate [m3/s], 4.26117E-004
 Component Sizing Information, Coil:Heating:Water, COIL HEATING WATER 2, Design Size U-Factor Times Area Value [W/K], 586.03228
! <Water Heating Coil Capacity Information>,Component Type,Name,Nominal Total Capacity {W}
Water Heating Coil Capacity Information,Coil:Heating:Water,COIL HEATING WATER 2,26770.16
 Component Sizing Information, ZoneHVAC:Baseboard:Convective:Water, ZONE HVAC BASEBOARD CONVECTIVE WATER 20, Design Size Maximum Water Flow Rate [m3/s], 2.33254E-004
 Component Sizing Information, ZoneHVAC:Baseboard:Convective:Water, ZONE HVAC BASEBOARD CONVECTIVE WATER 20, Design Size U-Factor Times Area Value [W/K], 472.41860
[...]
 Component Sizing Information, Coil:Heating:Fuel, COIL HEATING GAS 7, Design Size Nominal Capacity [W], 615938.57163
 Component Sizing Information, Fan:ConstantVolume, FAN CONSTANT VOLUME 7, Design Size Maximum Flow Rate [m3/s], 6.71513
 Component Sizing Information, Controller:OutdoorAir, CONTROLLER OUTDOOR AIR 9, Maximum Outdoor Air Flow Rate [m3/s], 8.95350
 Component Sizing Information, Controller:OutdoorAir, CONTROLLER OUTDOOR AIR 9, Minimum Outdoor Air Flow Rate [m3/s], 8.95350
 Component Sizing Information, HeatExchanger:AirToAir:SensibleAndLatent, SYS_3_PSZ SP-DINING AREA - SPACE DESIGNED TO ANSI/IES RP-28 (USED PRIMARILY BY RESIDENTS)-SPACE FUNCTION SYS-3 FLR-2 SCH-B HPLCMT-CORE ZN ERV, Design Size Nominal Supply Air Flow Rate [m3/s], 8.95350
 Component Sizing Information, Coil:Cooling:DX:SingleSpeed, COIL COOLING DX SINGLE SPEED 9 506KBTU/HR 8.21EER, Design Size Rated Air Flow Rate [m3/s], 8.95350
 Component Sizing Information, Coil:Cooling:DX:SingleSpeed, COIL COOLING DX SINGLE SPEED 9 506KBTU/HR 8.21EER, Design Size Gross Rated Total Cooling Capacity [W], 148212.21652
 Component Sizing Information, Coil:Cooling:DX:SingleSpeed, COIL COOLING DX SINGLE SPEED 9 506KBTU/HR 8.21EER, Design Size Gross Rated Sensible Heat Ratio, 0.80066
 DX Cooling Coil Standard Rating Information, Coil:Cooling:DX:SingleSpeed, COIL COOLING DX SINGLE SPEED 9 506KBTU/HR 8.21EER, 141252.5, 2.58, 8.81, 9.30, 8.85
 Component Sizing Information, Coil:Heating:Fuel, COIL HEATING GAS 9, Design Size Nominal Capacity [W], 821251.42884
 Component Sizing Information, Fan:ConstantVolume, FAN CONSTANT VOLUME 9, Design Size Maximum Flow Rate [m3/s], 8.95350
 Component Sizing Information, Controller:OutdoorAir, CONTROLLER OUTDOOR AIR 3, Maximum Outdoor Air Flow Rate [m3/s], 2.25809
 Component Sizing Information, Controller:OutdoorAir, CONTROLLER OUTDOOR AIR 3, Minimum Outdoor Air Flow Rate [m3/s], 1.39700
 Component Sizing Information, HeatExchanger:AirToAir:SensibleAndLatent, SYS_3_PSZ SP-DRESSING/FITTING ROOM - PERFORMING ARTS THEATRE-SPACE FUNCTION SYS-3 FLR-1 SCH-C HPLCMT-CORE ZN ERV, Design Size Nominal Supply Air Flow Rate [m3/s], 1.39700
 Component Sizing Information, Coil:Cooling:DX:SingleSpeed, COIL COOLING DX SINGLE SPEED 3 128KBTU/HR 9.26EER, Design Size Rated Air Flow Rate [m3/s], 2.25809
 Component Sizing Information, Coil:Cooling:DX:SingleSpeed, COIL COOLING DX SINGLE SPEED 3 128KBTU/HR 9.26EER, Design Size Gross Rated Total Cooling Capacity [W], 37379.33122
 Component Sizing Information, Coil:Cooling:DX:SingleSpeed, COIL COOLING DX SINGLE SPEED 3 128KBTU/HR 9.26EER, Design Size Gross Rated Sensible Heat Ratio, 0.80066
 DX Cooling Coil Standard Rating Information, Coil:Cooling:DX:SingleSpeed, COIL COOLING DX SINGLE SPEED 3 128KBTU/HR 9.26EER, 35624.1, 2.67, 9.11, 9.62, 9.12
 Component Sizing Information, Coil:Heating:Fuel, COIL HEATING GAS 3, Design Size Nominal Capacity [W], 149080.78522
 Component Sizing Information, Fan:ConstantVolume, FAN CONSTANT VOLUME 3, Design Size Maximum Flow Rate [m3/s], 2.25809
 Component Sizing Information, Controller:OutdoorAir, CONTROLLER OUTDOOR AIR 8, Maximum Outdoor Air Flow Rate [m3/s], 4.24709
 Component Sizing Information, Controller:OutdoorAir, CONTROLLER OUTDOOR AIR 8, Minimum Outdoor Air Flow Rate [m3/s], 2.57175
 Component Sizing Information, HeatExchanger:AirToAir:SensibleAndLatent, SYS_3_PSZ SP-FOOD PREPARATION AREA-SPACE FUNCTION SYS-3 FLR-2 SCH-B HPLCMT-SOUTH ZN ERV, Design Size Nominal Supply Air Flow Rate [m3/s], 2.57175
 Component Sizing Information, Coil:Cooling:DX:SingleSpeed, COIL COOLING DX SINGLE SPEED 8 247KBTU/HR 8.21EER, Design Size Rated Air Flow Rate [m3/s], 4.24709
 Component Sizing Information, Coil:Cooling:DX:SingleSpeed, COIL COOLING DX SINGLE SPEED 8 247KBTU/HR 8.21EER, Design Size Gross Rated Total Cooling Capacity [W], 77659.91972
 Component Sizing Information, Coil:Cooling:DX:SingleSpeed, COIL COOLING DX SINGLE SPEED 8 247KBTU/HR 8.21EER, Design Size Gross Rated Sensible Heat Ratio, 0.80083
 DX Cooling Coil Standard Rating Information, Coil:Cooling:DX:SingleSpeed, COIL COOLING DX SINGLE SPEED 8 247KBTU/HR 8.21EER, 74356.8, 2.50, 8.53, 9.01, 8.68
 Component Sizing Information, Coil:Heating:Fuel, COIL HEATING GAS 8, Design Size Nominal Capacity [W], 276636.87428
 Component Sizing Information, Fan:ConstantVolume, FAN CONSTANT VOLUME 8, Design Size Maximum Flow Rate [m3/s], 4.24709
 Component Sizing Information, Controller:OutdoorAir, CONTROLLER OUTDOOR AIR 19, Maximum Outdoor Air Flow Rate [m3/s], 7.14375
 Component Sizing Information, Controller:OutdoorAir, CONTROLLER OUTDOOR AIR 19, Minimum Outdoor Air Flow Rate [m3/s], 7.14375
 Component Sizing Information, HeatExchanger:AirToAir:SensibleAndLatent, SYS_4_PSZ_SP-EMERGENCY VEHICLE GARAGE-SPACE FUNCTION SYS-4 FLR-2 SCH-H HPLCMT-NORTH ZN ERV, Design Size Nominal Supply Air Flow Rate [m3/s], 7.14375
 Component Sizing Information, Coil:Cooling:DX:SingleSpeed, COIL COOLING DX SINGLE SPEED 19 404KBTU/HR 8.21EER, Design Size Rated Air Flow Rate [m3/s], 7.14375
 Component Sizing Information, Coil:Cooling:DX:SingleSpeed, COIL COOLING DX SINGLE SPEED 19 404KBTU/HR 8.21EER, Design Size Gross Rated Total Cooling Capacity [W], 118254.42807
 Component Sizing Information, Coil:Cooling:DX:SingleSpeed, COIL COOLING DX SINGLE SPEED 19 404KBTU/HR 8.21EER, Design Size Gross Rated Sensible Heat Ratio, 0.80066
 DX Cooling Coil Standard Rating Information, Coil:Cooling:DX:SingleSpeed, COIL COOLING DX SINGLE SPEED 19 404KBTU/HR 8.21EER, 112701.5, 2.53, 8.64, 9.13, 8.70
 Component Sizing Information, Coil:Heating:Fuel, COIL HEATING GAS 19, Design Size Nominal Capacity [W], 655253.79960
 Component Sizing Information, Fan:ConstantVolume, FAN CONSTANT VOLUME 19, Design Size Maximum Flow Rate [m3/s], 7.14375
 Component Sizing Information, Fan:VariableVolume, SYS6 RETURN FAN, Design Size Maximum Flow Rate [m3/s], 3.91233
 Component Sizing Information, Controller:OutdoorAir, CONTROLLER OUTDOOR AIR 20, Maximum Outdoor Air Flow Rate [m3/s], 3.91233
 Component Sizing Information, Controller:OutdoorAir, CONTROLLER OUTDOOR AIR 20, Minimum Outdoor Air Flow Rate [m3/s], 1.64783
 Component Sizing Information, HeatExchanger:AirToAir:SensibleAndLatent, SYS_6_VAV WITH REHEAT ERV, Design Size Nominal Supply Air Flow Rate [m3/s], 1.64783
 Component Sizing Information, Coil:Cooling:Water, COIL COOLING WATER 1, Design Size Design Coil Load [W], 72626.33964
 Component Sizing Information, Coil:Cooling:Water, COIL COOLING WATER 1, Design Size Design Water Flow Rate [m3/s], 2.88366E-003
 Component Sizing Information, Coil:Cooling:Water, COIL COOLING WATER 1, Design Size Design Air Flow Rate [m3/s], 3.91233
 Component Sizing Information, Coil:Cooling:Water, COIL COOLING WATER 1, Design Size Design Inlet Air Temperature [C], 26.06358
 Component Sizing Information, Coil:Cooling:Water, COIL COOLING WATER 1, Design Size Design Inlet Water Temperature [C], 7.00000
 Component Sizing Information, Coil:Cooling:Water, COIL COOLING WATER 1, Design Size Design Outlet Air Temperature [C], 13.00000
 Component Sizing Information, Coil:Cooling:Water, COIL COOLING WATER 1, Design Size Design Inlet Air Humidity Ratio, 8.80487E-003
 Component Sizing Information, Coil:Cooling:Water, COIL COOLING WATER 1, Design Size Design Outlet Air Humidity Ratio, 8.76847E-003
! <Water Cooling Coil Capacity Information>,Component Type,Name,Nominal Total Capacity {W},Nominal Sensible Capacity {W},Nominal Latent Capacity {W},Nominal Sensible Heat Ratio, Nominal Coil UA Value {W/C}, Nominal Coil Surface Area {m2}
Water Cooling Coil Capacity Information,Coil:Cooling:Water,COIL COOLING WATER 1,91028.68,63175.50,27853.18,0.69,9989.62,101.32
 Component Sizing Information, Coil:Heating:Water, COIL HEATING WATER 1, Design Size Rated Capacity [W], 67013.47227
 Component Sizing Information, Coil:Heating:Water, COIL HEATING WATER 1, Design Size Maximum Water Flow Rate [m3/s], 1.00090E-003
 Component Sizing Information, Coil:Heating:Water, COIL HEATING WATER 1, Design Size U-Factor Times Area Value [W/K], 817.76086
Water Heating Coil Capacity Information,Coil:Heating:Water,COIL HEATING WATER 1,37336.87
 Component Sizing Information, Fan:VariableVolume, SYS6 SUPPLY FAN, Design Size Maximum Flow Rate [m3/s], 3.91233
 Component Sizing Information, Controller:WaterCoil, CONTROLLER WATER COIL 2, Maximum Actuated Flow [m3/s], 2.88366E-003
 Component Sizing Information, Controller:WaterCoil, CONTROLLER WATER COIL 2, Controller Convergence Tolerance, 1.65134E-004
 Component Sizing Information, Controller:WaterCoil, CONTROLLER WATER COIL 1, Maximum Actuated Flow [m3/s], 1.00090E-003
Water Heater Information,WaterHeater:Mixed,1005GAL NATURALGAS WATER HEATER - 2057KBTU/HR 0.802 THERM EFF,3.8056,602772.9,0.185,0.2264
 Component Sizing Information, PlantLoop, CHILLED WATER LOOP, Maximum Loop Flow Rate [m3/s], 2.88366E-003
 Component Sizing Information, PlantLoop, CHILLED WATER LOOP, Plant Loop Volume [m3], 0.34604
 Component Sizing Information, Pump:ConstantSpeed, PUMP CONSTANT SPEED 1, Design Flow Rate [m3/s], 2.88366E-003
 Component Sizing Information, Pump:ConstantSpeed, PUMP CONSTANT SPEED 1, Design Power Consumption [W], 1012.51237
 Component Sizing Information, Chiller:Electric:EIR, PRIMARY CHILLER WATERCOOLED SCROLL 21TONS 0.8KW/TON, Design Size Reference Chilled Water Flow Rate [m3/s], 2.88366E-003
 Component Sizing Information, Chiller:Electric:EIR, PRIMARY CHILLER WATERCOOLED SCROLL 21TONS 0.8KW/TON, Design Size Reference Capacity [W], 72625.12863
 Component Sizing Information, Chiller:Electric:EIR, PRIMARY CHILLER WATERCOOLED SCROLL 21TONS 0.8KW/TON, User-Specified Reference Capacity [W], 74021.92880
 Component Sizing Information, Chiller:Electric:EIR, PRIMARY CHILLER WATERCOOLED SCROLL 21TONS 0.8KW/TON, Design Size Reference Condenser Fluid Flow Rate [m3/s], 3.60731E-003
! <Chiller Standard Rating Information>, Component Type, Component Name, IPLV in SI Units {W/W}, IPLV in IP Units {Btu/W-h}
 Chiller Standard Rating Information, Chiller:Electric:EIR, PRIMARY CHILLER WATERCOOLED SCROLL 21TONS 0.8KW/TON, 5.61, 19.14
 Component Sizing Information, Chiller:Electric:EIR, SECONDARY CHILLER WATERCOOLED SCROLL 0TONS 0.8KW/TON, Design Size Reference Chilled Water Flow Rate [m3/s], 2.88366E-003
 Component Sizing Information, Chiller:Electric:EIR, SECONDARY CHILLER WATERCOOLED SCROLL 0TONS 0.8KW/TON, Design Size Reference Capacity [W], 72625.12863
 Component Sizing Information, Chiller:Electric:EIR, SECONDARY CHILLER WATERCOOLED SCROLL 0TONS 0.8KW/TON, User-Specified Reference Capacity [W], 1.00000E-003
 Component Sizing Information, Chiller:Electric:EIR, SECONDARY CHILLER WATERCOOLED SCROLL 0TONS 0.8KW/TON, Design Size Reference Condenser Fluid Flow Rate [m3/s], 4.87330E-011
 Chiller Standard Rating Information, Chiller:Electric:EIR, SECONDARY CHILLER WATERCOOLED SCROLL 0TONS 0.8KW/TON, 5.61, 19.14
 Component Sizing Information, PlantLoop, CONDENSER WATER LOOP, Maximum Loop Flow Rate [m3/s], 3.60731E-003
 Component Sizing Information, PlantLoop, CONDENSER WATER LOOP, Plant Loop Volume [m3], 0.43288
 Component Sizing Information, Pump:ConstantSpeed, PUMP CONSTANT SPEED 2, Design Flow Rate [m3/s], 3.60731E-003
 Component Sizing Information, Pump:ConstantSpeed, PUMP CONSTANT SPEED 2, Design Power Consumption [W], 1085.65657
 Component Sizing Information, CoolingTower:SingleSpeed, COOLING TOWER SINGLE SPEED 1, Design Water Flow Rate [m3/s], 3.60731E-003
 Component Sizing Information, CoolingTower:SingleSpeed, COOLING TOWER SINGLE SPEED 1, Design Air Flow Rate [m3/s], 3.23369
 Component Sizing Information, CoolingTower:SingleSpeed, COOLING TOWER SINGLE SPEED 1, U-Factor Times Area Value at Design Air Flow Rate [W/C], 3276.88521
 Component Sizing Information, CoolingTower:SingleSpeed, COOLING TOWER SINGLE SPEED 1, Free Convection Regime Air Flow Rate [m3/s], 0.32337
 Component Sizing Information, CoolingTower:SingleSpeed, COOLING TOWER SINGLE SPEED 1, Free Convection U-Factor Times Area Value [W/K], 327.68852
 Component Sizing Information, PlantLoop, HOT WATER LOOP, Maximum Loop Flow Rate [m3/s], 4.02627E-003
 Component Sizing Information, PlantLoop, HOT WATER LOOP, Plant Loop Volume [m3], 0.48315
 Component Sizing Information, Pump:VariableSpeed, PUMP VARIABLE SPEED 1, Design Flow Rate [m3/s], 4.02627E-003
 Component Sizing Information, Pump:VariableSpeed, PUMP VARIABLE SPEED 1, Design Power Consumption [W], 1211.74704
 Component Sizing Information, Boiler:HotWater, PRIMARY BOILER 462KBTU/HR 0.83 THERMAL EFF, Design Size Nominal Capacity [W], 270615.21238
 Component Sizing Information, Boiler:HotWater, PRIMARY BOILER 462KBTU/HR 0.83 THERMAL EFF, User-Specified Nominal Capacity [W], 135307.60619
 Component Sizing Information, Boiler:HotWater, PRIMARY BOILER 462KBTU/HR 0.83 THERMAL EFF, Design Size Design Water Flow Rate [m3/s], 4.02627E-003
 Component Sizing Information, Boiler:HotWater, SECONDARY BOILER 462KBTU/HR 0.83 THERMAL EFF, Design Size Nominal Capacity [W], 270615.21238
 Component Sizing Information, Boiler:HotWater, SECONDARY BOILER 462KBTU/HR 0.83 THERMAL EFF, User-Specified Nominal Capacity [W], 135307.60619
 Component Sizing Information, Boiler:HotWater, SECONDARY BOILER 462KBTU/HR 0.83 THERMAL EFF, Design Size Design Water Flow Rate [m3/s], 4.02627E-003
 Component Sizing Information, PlantLoop, MAIN SERVICE WATER LOOP, Maximum Loop Flow Rate [m3/s], 1.57755E-003
 Component Sizing Information, PlantLoop, MAIN SERVICE WATER LOOP, Plant Loop Volume [m3], 0.18931
 Component Sizing Information, Pump:ConstantSpeed, SERVICE WATER LOOP PUMP, Design Flow Rate [m3/s], 1.57755E-003
 Component Sizing Information, Pump:ConstantSpeed, SERVICE WATER LOOP PUMP, Design Power Consumption [W], 3117.09728
 Component Sizing Information, WaterHeater:Mixed, 1005GAL NATURALGAS WATER HEATER - 2057KBTU/HR 0.802 THERM EFF, Use Side Design Flow Rate [m3/s], 1.57755E-003
! <Environment>,Environment Name,Environment Type, Start Date, End Date, Start DayOfWeek, Duration {#days}, Source:Start DayOfWeek,  Use Daylight Saving, Use Holidays, Apply Weekend Holiday Rule,  Use Rain Values, Use Snow Values
! <Environment:Special Days>, Special Day Name, Special Day Type, Source, Start Date, Duration {#days}
! <Environment:Daylight Saving>, Daylight Saving Indicator, Source, Start Date, End Date
! <Environment:WarmupDays>, NumberofWarmupDays
Environment,RUN PERIOD 1,WeatherFileRunPeriod,01/01,12/31,Sunday,365,Use RunPeriod Specified Day,No,No,No,Yes,Yes
Environment:Daylight Saving,No,RunPeriod Object
Environment:WarmupDays,  7
! <Tabular Report>,Style,Unit Conversion
Tabular Report,HTML,None
! <Warmup Convergence Information>,Zone Name,Environment Type/Name,Average Warmup Temperature Difference {deltaC},Std Dev Warmup Temperature Difference {deltaC},Max Temperature Pass/Fail Convergence,Min Temperature Pass/Fail Convergence,Average Warmup Load Difference {W},Std Dev Warmup Load Difference {W},Heating Load Pass/Fail Convergence,Cooling Load Pass/Fail Convergence
 Warmup Convergence Information,SP-AUDIENCE SEATING AREA PERMANENT - OTHER-SCH-H-SPACE FUNCTION SYS-3 FLR-4 SCH-H HPLCMT-EAST ZN,RunPeriod: RUN PERIOD 1,5.5556734865E-002,0.2800389445,Pass,Pass,0.1588013767,0.8537477651,Pass,Pass
 Warmup Convergence Information,SP-AUDIENCE SEATING AREA PERMANENT - OTHER-SCH-I-SPACE FUNCTION SYS-3 FLR-4 SCH-I HPLCMT-NORTH ZN,RunPeriod: RUN PERIOD 1,5.7116106098E-002,0.2392907236,Pass,Pass,0.2255705308,0.6801000586,Pass,Pass
 Warmup Convergence Information,SP-AUDIENCE SEATING AREA PERMANENT - OTHER-SCH-J-SPACE FUNCTION SYS-3 FLR-4 SCH-J HPLCMT-WEST ZN,RunPeriod: RUN PERIOD 1,1.3337615151E-006,1.8552338478E-006,Pass,Pass,7.1904775988E-002,9.3404887827E-002,Pass,Pass
 Warmup Convergence Information,SP-AUDIENCE SEATING AREA PERMANENT - OTHER-SCH-K-SPACE FUNCTION SYS-3 FLR-3 SCH-K HPLCMT-CORE ZN,RunPeriod: RUN PERIOD 1,0.1043246655,0.2542311488,Pass,Pass,1.5917148754E-002,0.1003630992,Pass,Pass
 Warmup Convergence Information,SP-BANKING ACTIVITY AREA AND OFFICES-SPACE FUNCTION SYS-6 FLR-3 SCH-A HPLCMT-SOUTH ZN,RunPeriod: RUN PERIOD 1,3.8099479207E-002,4.1184439429E-002,Pass,Pass,0.0000000000,0.0000000000,Pass,Pass
 Warmup Convergence Information,SP-CLASSROOM/LECTURE HALL/TRAINING ROOM - PENITENTARY-SPACE FUNCTION SYS-3 FLR-3 SCH-D HPLCMT-NORTH ZN,RunPeriod: RUN PERIOD 1,1.0501951742E-002,9.5661434622E-003,Pass,Pass,0.0000000000,0.0000000000,Pass,Pass
 Warmup Convergence Information,SP-CLASSROOM/LECTURE HALL/TRAINING ROOM OTHER-SPACE FUNCTION SYS-3 FLR-3 SCH-D HPLCMT-WEST ZN,RunPeriod: RUN PERIOD 1,1.5848148150E-002,2.1304357626E-002,Pass,Pass,0.0000000000,0.0000000000,Pass,Pass
 Warmup Convergence Information,SP-CONFERENCE/MEETING/MULTI-PURPOSE ROOM-SPACE FUNCTION SYS-3 FLR-4 SCH-C HPLCMT-SOUTH ZN,RunPeriod: RUN PERIOD 1,5.9901052435E-002,0.1740838018,Pass,Pass,4.9079676594E-002,0.2297552663,Pass,Pass
 Warmup Convergence Information,SP-CONFINEMENT CELL-SPACE FUNCTION SYS-3 FLR-3 SCH-G HPLCMT-EAST ZN,RunPeriod: RUN PERIOD 1,4.6643521348E-002,0.1975417513,Pass,Pass,0.2989337981,0.9926510695,Pass,Pass
 Warmup Convergence Information,SP-COPY/PRINT ROOM-SPACE FUNCTION SYS-3 FLR-1 SCH-A HPLCMT-WEST ZN,RunPeriod: RUN PERIOD 1,1.2449153505E-003,1.1587447015E-003,Pass,Pass,0.0000000000,0.0000000000,Pass,Pass
 Warmup Convergence Information,SP-COURTROOM-SPACE FUNCTION SYS-3 FLR-1 SCH-A HPLCMT-NORTH ZN,RunPeriod: RUN PERIOD 1,3.6872123899E-003,2.2890329034E-003,Pass,Pass,0.0000000000,0.0000000000,Pass,Pass
 Warmup Convergence Information,SP-DINING AREA - BAR LOUNGE/LEISURE DINING-SPACE FUNCTION SYS-3 FLR-4 SCH-B HPLCMT-CORE ZN,RunPeriod: RUN PERIOD 1,7.1818223543E-002,0.1753992165,Pass,Pass,0.2193375013,1.1247566954,Pass,Pass
 Warmup Convergence Information,SP-DINING AREA - CAFETERIA/FAST FOOD DINING-SPACE FUNCTION SYS-3 FLR-2 SCH-B HPLCMT-EAST ZN,RunPeriod: RUN PERIOD 1,3.3534380341E-002,0.1137966758,Pass,Pass,0.1708401814,1.5777582423,Pass,Pass
 Warmup Convergence Information,SP-DINING AREA - FAMILY DINING-SPACE FUNCTION SYS-3 FLR-1 SCH-B HPLCMT-SOUTH ZN,RunPeriod: RUN PERIOD 1,7.6881087179E-002,0.2450828782,Pass,Pass,8.8650150680E-002,0.5036352604,Pass,Pass
 Warmup Convergence Information,SP-DINING AREA - OTHER-SPACE FUNCTION SYS-3 FLR-1 SCH-B HPLCMT-EAST ZN,RunPeriod: RUN PERIOD 1,4.7552051970E-002,0.1709170200,Pass,Pass,3.1682599383E-002,0.1339782675,Pass,Pass
 Warmup Convergence Information,SP-DINING AREA - PENITENTIARY-SPACE FUNCTION SYS-3 FLR-2 SCH-B HPLCMT-WEST ZN,RunPeriod: RUN PERIOD 1,7.1874836359E-002,0.2341559892,Pass,Pass,0.3862456914,3.8510595907,Pass,Pass
 Warmup Convergence Information,SP-DINING AREA - SPACE DESIGNED TO ANSI/IES RP-28 (USED PRIMARILY BY RESIDENTS)-SPACE FUNCTION SYS-3 FLR-2 SCH-B HPLCMT-CORE ZN,RunPeriod: RUN PERIOD 1,8.5226080137E-002,0.2584454239,Pass,Pass,3.1965522228E-002,0.1097673558,Pass,Pass
 Warmup Convergence Information,SP-DRESSING/FITTING ROOM - PERFORMING ARTS THEATRE-SPACE FUNCTION SYS-3 FLR-1 SCH-C HPLCMT-CORE ZN,RunPeriod: RUN PERIOD 1,3.4348749381E-002,9.1538704888E-002,Pass,Pass,1.4256113299E-002,6.8111764209E-002,Pass,Pass
 Warmup Convergence Information,SP-EMERGENCY VEHICLE GARAGE-SPACE FUNCTION SYS-4 FLR-2 SCH-H HPLCMT-NORTH ZN,RunPeriod: RUN PERIOD 1,5.5603557099E-002,0.2838976005,Pass,Pass,0.1677408436,0.8894819500,Pass,Pass
 Warmup Convergence Information,SP-FOOD PREPARATION AREA-SPACE FUNCTION SYS-3 FLR-2 SCH-B HPLCMT-SOUTH ZN,RunPeriod: RUN PERIOD 1,8.8431338362E-002,0.2181668307,Pass,Pass,4.0567395652E-002,0.1669914649,Pass,Pass
! <Program Control Information:Threads/Parallel Sims>, Threading Supported,Maximum Number of Threads, Env Set Threads (OMP_NUM_THREADS), EP Env Set Threads (EP_OMP_NUM_THREADS), IDF Set Threads, Number of Threads Used (Interior Radiant Exchange), Number Nominal Surfaces, Number Parallel Sims
Program Control:Threads/Parallel Sims, No,1, N/A, N/A, N/A, N/A, N/A, N/A
End of Data
