! Program Version,EnergyPlus, Version 8.9.0-eba93e8e1b, YMD=2019.03.19 18:42,
! Output:Meter Objects (applicable to this run)
Output:Meter,Electricity:Facility,hourly; !- [J]
Output:Meter:Cumulative,Electricity:Facility,hourly; !- [J]
Output:Meter,Electricity:Building,hourly; !- [J]
Output:Meter:Cumulative,Electricity:Building,hourly; !- [J]
Output:Meter,Electricity:Zone:PENITENTIARY - DINING-SPACE FUNCTION ZN,hourly; !- [J]
Output:Meter:Cumulative,Electricity:Zone:PENITENTIARY - DINING-SPACE FUNCTION ZN,hourly; !- [J]
Output:Meter,InteriorLights:Electricity,hourly; !- [J]
Output:Meter:Cumulative,InteriorLights:Electricity,hourly; !- [J]
Output:Meter,InteriorLights:Electricity:Zone:PENITENTIARY - DINING-SPACE FUNCTION ZN,hourly; !- [J]
Output:Meter:Cumulative,InteriorLights:Electricity:Zone:PENITENTIARY - DINING-SPACE FUNCTION ZN,hourly; !- [J]
Output:Meter,General:InteriorLights:Electricity,hourly; !- [J]
Output:Meter:Cumulative,General:InteriorLights:Electricity,hourly; !- [J]
Output:Meter,Electricity:Zone:POST OFFICE SORTING-SPACE FUNCTION ZN,hourly; !- [J]
Output:Meter:Cumulative,Electricity:Zone:POST OFFICE SORTING-SPACE FUNCTION ZN,hourly; !- [J]
Output:Meter,InteriorLights:Electricity:Zone:POST OFFICE SORTING-SPACE FUNCTION ZN,hourly; !- [J]
Output:Meter:Cumulative,InteriorLights:Electricity:Zone:POST OFFICE SORTING-SPACE FUNCTION ZN,hourly; !- [J]
Output:Meter,Electricity:Zone:RELIGIOUS - AUDIENCE-SPACE FUNCTION ZN,hourly; !- [J]
Output:Meter:Cumulative,Electricity:Zone:RELIGIOUS - AUDIENCE-SPACE FUNCTION ZN,hourly; !- [J]
Output:Meter,InteriorLights:Electricity:Zone:RELIGIOUS - AUDIENCE-SPACE FUNCTION ZN,hourly; !- [J]
Output:Meter:Cumulative,InteriorLights:Electricity:Zone:RELIGIOUS - AUDIENCE-SPACE FUNCTION ZN,hourly; !- [J]
Output:Meter,Electricity:Zone:RELIGIOUS - FELLOWSHIP HALL-SPACE FUNCTION ZN,hourly; !- [J]
Output:Meter:Cumulative,Electricity:Zone:RELIGIOUS - FELLOWSHIP HALL-SPACE FUNCTION ZN,hourly; !- [J]
Output:Meter,InteriorLights:Electricity:Zone:RELIGIOUS - FELLOWSHIP HALL-SPACE FUNCTION ZN,hourly; !- [J]
Output:Meter:Cumulative,InteriorLights:Electricity:Zone:RELIGIOUS - FELLOWSHIP HALL-SPACE FUNCTION ZN,hourly; !- [J]
Output:Meter,Electricity:Zone:RELIGIOUS - PULPIT/CHOIR-SPACE FUNCTION ZN,hourly; !- [J]
Output:Meter:Cumulative,Electricity:Zone:RELIGIOUS - PULPIT/CHOIR-SPACE FUNCTION ZN,hourly; !- [J]
Output:Meter,InteriorLights:Electricity:Zone:RELIGIOUS - PULPIT/CHOIR-SPACE FUNCTION ZN,hourly; !- [J]
Output:Meter:Cumulative,InteriorLights:Electricity:Zone:RELIGIOUS - PULPIT/CHOIR-SPACE FUNCTION ZN,hourly; !- [J]
Output:Meter,Electricity:Zone:RETAIL - DRESSING/FITTING-SPACE FUNCTION ZN,hourly; !- [J]
Output:Meter:Cumulative,Electricity:Zone:RETAIL - DRESSING/FITTING-SPACE FUNCTION ZN,hourly; !- [J]
Output:Meter,InteriorLights:Electricity:Zone:RETAIL - DRESSING/FITTING-SPACE FUNCTION ZN,hourly; !- [J]
Output:Meter:Cumulative,InteriorLights:Electricity:Zone:RETAIL - DRESSING/FITTING-SPACE FUNCTION ZN,hourly; !- [J]
Output:Meter,Electricity:Zone:RETAIL - MALL CONCOURSE-SPACE FUNCTION ZN,hourly; !- [J]
Output:Meter:Cumulative,Electricity:Zone:RETAIL - MALL CONCOURSE-SPACE FUNCTION ZN,hourly; !- [J]
Output:Meter,InteriorLights:Electricity:Zone:RETAIL - MALL CONCOURSE-SPACE FUNCTION ZN,hourly; !- [J]
Output:Meter:Cumulative,InteriorLights:Electricity:Zone:RETAIL - MALL CONCOURSE-SPACE FUNCTION ZN,hourly; !- [J]
Output:Meter,Electricity:Zone:RETAIL - SALES-SPACE FUNCTION ZN,hourly; !- [J]
Output:Meter:Cumulative,Electricity:Zone:RETAIL - SALES-SPACE FUNCTION ZN,hourly; !- [J]
Output:Meter,InteriorLights:Electricity:Zone:RETAIL - SALES-SPACE FUNCTION ZN,hourly; !- [J]
Output:Meter:Cumulative,InteriorLights:Electricity:Zone:RETAIL - SALES-SPACE FUNCTION ZN,hourly; !- [J]
Output:Meter,Electricity:Zone:SALES AREA-SPACE FUNCTION ZN,hourly; !- [J]
Output:Meter:Cumulative,Electricity:Zone:SALES AREA-SPACE FUNCTION ZN,hourly; !- [J]
Output:Meter,InteriorLights:Electricity:Zone:SALES AREA-SPACE FUNCTION ZN,hourly; !- [J]
Output:Meter:Cumulative,InteriorLights:Electricity:Zone:SALES AREA-SPACE FUNCTION ZN,hourly; !- [J]
Output:Meter,Electricity:Zone:SPORTS ARENA - AUDIENCE-SPACE FUNCTION ZN,hourly; !- [J]
Output:Meter:Cumulative,Electricity:Zone:SPORTS ARENA - AUDIENCE-SPACE FUNCTION ZN,hourly; !- [J]
Output:Meter,InteriorLights:Electricity:Zone:SPORTS ARENA - AUDIENCE-SPACE FUNCTION ZN,hourly; !- [J]
Output:Meter:Cumulative,InteriorLights:Electricity:Zone:SPORTS ARENA - AUDIENCE-SPACE FUNCTION ZN,hourly; !- [J]
Output:Meter,Electricity:Zone:SPORTS ARENA - COURT C1-SPACE FUNCTION ZN,hourly; !- [J]
Output:Meter:Cumulative,Electricity:Zone:SPORTS ARENA - COURT C1-SPACE FUNCTION ZN,hourly; !- [J]
Output:Meter,InteriorLights:Electricity:Zone:SPORTS ARENA - COURT C1-SPACE FUNCTION ZN,hourly; !- [J]
Output:Meter:Cumulative,InteriorLights:Electricity:Zone:SPORTS ARENA - COURT C1-SPACE FUNCTION ZN,hourly; !- [J]
Output:Meter,Electricity:Zone:SPORTS ARENA - COURT C2-SPACE FUNCTION ZN,hourly; !- [J]
Output:Meter:Cumulative,Electricity:Zone:SPORTS ARENA - COURT C2-SPACE FUNCTION ZN,hourly; !- [J]
Output:Meter,InteriorLights:Electricity:Zone:SPORTS ARENA - COURT C2-SPACE FUNCTION ZN,hourly; !- [J]
Output:Meter:Cumulative,InteriorLights:Electricity:Zone:SPORTS ARENA - COURT C2-SPACE FUNCTION ZN,hourly; !- [J]
Output:Meter,Electricity:Zone:SPORTS ARENA - COURT C3-SPACE FUNCTION ZN,hourly; !- [J]
Output:Meter:Cumulative,Electricity:Zone:SPORTS ARENA - COURT C3-SPACE FUNCTION ZN,hourly; !- [J]
Output:Meter,InteriorLights:Electricity:Zone:SPORTS ARENA - COURT C3-SPACE FUNCTION ZN,hourly; !- [J]
Output:Meter:Cumulative,InteriorLights:Electricity:Zone:SPORTS ARENA - COURT C3-SPACE FUNCTION ZN,hourly; !- [J]
Output:Meter,Electricity:Zone:SPORTS ARENA - COURT C4-SPACE FUNCTION ZN,hourly; !- [J]
Output:Meter:Cumulative,Electricity:Zone:SPORTS ARENA - COURT C4-SPACE FUNCTION ZN,hourly; !- [J]
Output:Meter,InteriorLights:Electricity:Zone:SPORTS ARENA - COURT C4-SPACE FUNCTION ZN,hourly; !- [J]
Output:Meter:Cumulative,InteriorLights:Electricity:Zone:SPORTS ARENA - COURT C4-SPACE FUNCTION ZN,hourly; !- [J]
Output:Meter,Electricity:Zone:SPORTS ARENA - RING-SPACE FUNCTION ZN,hourly; !- [J]
Output:Meter:Cumulative,Electricity:Zone:SPORTS ARENA - RING-SPACE FUNCTION ZN,hourly; !- [J]
Output:Meter,InteriorLights:Electricity:Zone:SPORTS ARENA - RING-SPACE FUNCTION ZN,hourly; !- [J]
Output:Meter:Cumulative,InteriorLights:Electricity:Zone:SPORTS ARENA - RING-SPACE FUNCTION ZN,hourly; !- [J]
Output:Meter,Electricity:Zone:STAIRWAY-SCH-A-SPACE FUNCTION ZN,hourly; !- [J]
Output:Meter:Cumulative,Electricity:Zone:STAIRWAY-SCH-A-SPACE FUNCTION ZN,hourly; !- [J]
Output:Meter,InteriorLights:Electricity:Zone:STAIRWAY-SCH-A-SPACE FUNCTION ZN,hourly; !- [J]
Output:Meter:Cumulative,InteriorLights:Electricity:Zone:STAIRWAY-SCH-A-SPACE FUNCTION ZN,hourly; !- [J]
Output:Meter,Electricity:Zone:STAIRWAY-SCH-B-SPACE FUNCTION ZN,hourly; !- [J]
Output:Meter:Cumulative,Electricity:Zone:STAIRWAY-SCH-B-SPACE FUNCTION ZN,hourly; !- [J]
Output:Meter,InteriorLights:Electricity:Zone:STAIRWAY-SCH-B-SPACE FUNCTION ZN,hourly; !- [J]
Output:Meter:Cumulative,InteriorLights:Electricity:Zone:STAIRWAY-SCH-B-SPACE FUNCTION ZN,hourly; !- [J]
Output:Meter,Electricity:Zone:STAIRWAY-SCH-C-SPACE FUNCTION ZN,hourly; !- [J]
Output:Meter:Cumulative,Electricity:Zone:STAIRWAY-SCH-C-SPACE FUNCTION ZN,hourly; !- [J]
Output:Meter,InteriorLights:Electricity:Zone:STAIRWAY-SCH-C-SPACE FUNCTION ZN,hourly; !- [J]
Output:Meter:Cumulative,InteriorLights:Electricity:Zone:STAIRWAY-SCH-C-SPACE FUNCTION ZN,hourly; !- [J]
Output:Meter,Electricity:Zone:STAIRWAY-SCH-D-SPACE FUNCTION ZN,hourly; !- [J]
Output:Meter:Cumulative,Electricity:Zone:STAIRWAY-SCH-D-SPACE FUNCTION ZN,hourly; !- [J]
Output:Meter,InteriorLights:Electricity:Zone:STAIRWAY-SCH-D-SPACE FUNCTION ZN,hourly; !- [J]
Output:Meter:Cumulative,InteriorLights:Electricity:Zone:STAIRWAY-SCH-D-SPACE FUNCTION ZN,hourly; !- [J]
Output:Meter,Electricity:Zone:STAIRWAY-SCH-E-SPACE FUNCTION ZN,hourly; !- [J]
Output:Meter:Cumulative,Electricity:Zone:STAIRWAY-SCH-E-SPACE FUNCTION ZN,hourly; !- [J]
Output:Meter,InteriorLights:Electricity:Zone:STAIRWAY-SCH-E-SPACE FUNCTION ZN,hourly; !- [J]
Output:Meter:Cumulative,InteriorLights:Electricity:Zone:STAIRWAY-SCH-E-SPACE FUNCTION ZN,hourly; !- [J]
Output:Meter,InteriorEquipment:Electricity,hourly; !- [J]
Output:Meter:Cumulative,InteriorEquipment:Electricity,hourly; !- [J]
Output:Meter,InteriorEquipment:Electricity:Zone:PENITENTIARY - DINING-SPACE FUNCTION ZN,hourly; !- [J]
Output:Meter:Cumulative,InteriorEquipment:Electricity:Zone:PENITENTIARY - DINING-SPACE FUNCTION ZN,hourly; !- [J]
Output:Meter,General:InteriorEquipment:Electricity,hourly; !- [J]
Output:Meter:Cumulative,General:InteriorEquipment:Electricity,hourly; !- [J]
Output:Meter,InteriorEquipment:Electricity:Zone:POST OFFICE SORTING-SPACE FUNCTION ZN,hourly; !- [J]
Output:Meter:Cumulative,InteriorEquipment:Electricity:Zone:POST OFFICE SORTING-SPACE FUNCTION ZN,hourly; !- [J]
Output:Meter,InteriorEquipment:Electricity:Zone:RELIGIOUS - AUDIENCE-SPACE FUNCTION ZN,hourly; !- [J]
Output:Meter:Cumulative,InteriorEquipment:Electricity:Zone:RELIGIOUS - AUDIENCE-SPACE FUNCTION ZN,hourly; !- [J]
Output:Meter,InteriorEquipment:Electricity:Zone:RELIGIOUS - FELLOWSHIP HALL-SPACE FUNCTION ZN,hourly; !- [J]
Output:Meter:Cumulative,InteriorEquipment:Electricity:Zone:RELIGIOUS - FELLOWSHIP HALL-SPACE FUNCTION ZN,hourly; !- [J]
Output:Meter,InteriorEquipment:Electricity:Zone:RELIGIOUS - PULPIT/CHOIR-SPACE FUNCTION ZN,hourly; !- [J]
Output:Meter:Cumulative,InteriorEquipment:Electricity:Zone:RELIGIOUS - PULPIT/CHOIR-SPACE FUNCTION ZN,hourly; !- [J]
Output:Meter,InteriorEquipment:Electricity:Zone:RETAIL - DRESSING/FITTING-SPACE FUNCTION ZN,hourly; !- [J]
Output:Meter:Cumulative,InteriorEquipment:Electricity:Zone:RETAIL - DRESSING/FITTING-SPACE FUNCTION ZN,hourly; !- [J]
Output:Meter,InteriorEquipment:Electricity:Zone:RETAIL - MALL CONCOURSE-SPACE FUNCTION ZN,hourly; !- [J]
Output:Meter:Cumulative,InteriorEquipment:Electricity:Zone:RETAIL - MALL CONCOURSE-SPACE FUNCTION ZN,hourly; !- [J]
Output:Meter,InteriorEquipment:Electricity:Zone:RETAIL - SALES-SPACE FUNCTION ZN,hourly; !- [J]
Output:Meter:Cumulative,InteriorEquipment:Electricity:Zone:RETAIL - SALES-SPACE FUNCTION ZN,hourly; !- [J]
Output:Meter,InteriorEquipment:Electricity:Zone:SALES AREA-SPACE FUNCTION ZN,hourly; !- [J]
Output:Meter:Cumulative,InteriorEquipment:Electricity:Zone:SALES AREA-SPACE FUNCTION ZN,hourly; !- [J]
Output:Meter,InteriorEquipment:Electricity:Zone:SPORTS ARENA - COURT C1-SPACE FUNCTION ZN,hourly; !- [J]
Output:Meter:Cumulative,InteriorEquipment:Electricity:Zone:SPORTS ARENA - COURT C1-SPACE FUNCTION ZN,hourly; !- [J]
Output:Meter,InteriorEquipment:Electricity:Zone:SPORTS ARENA - COURT C2-SPACE FUNCTION ZN,hourly; !- [J]
Output:Meter:Cumulative,InteriorEquipment:Electricity:Zone:SPORTS ARENA - COURT C2-SPACE FUNCTION ZN,hourly; !- [J]
Output:Meter,InteriorEquipment:Electricity:Zone:SPORTS ARENA - COURT C3-SPACE FUNCTION ZN,hourly; !- [J]
Output:Meter:Cumulative,InteriorEquipment:Electricity:Zone:SPORTS ARENA - COURT C3-SPACE FUNCTION ZN,hourly; !- [J]
Output:Meter,InteriorEquipment:Electricity:Zone:SPORTS ARENA - COURT C4-SPACE FUNCTION ZN,hourly; !- [J]
Output:Meter:Cumulative,InteriorEquipment:Electricity:Zone:SPORTS ARENA - COURT C4-SPACE FUNCTION ZN,hourly; !- [J]
Output:Meter,InteriorEquipment:Electricity:Zone:SPORTS ARENA - RING-SPACE FUNCTION ZN,hourly; !- [J]
Output:Meter:Cumulative,InteriorEquipment:Electricity:Zone:SPORTS ARENA - RING-SPACE FUNCTION ZN,hourly; !- [J]
Output:Meter,EnergyTransfer:Facility,hourly; !- [J]
Output:Meter:Cumulative,EnergyTransfer:Facility,hourly; !- [J]
Output:Meter,EnergyTransfer:Building,hourly; !- [J]
Output:Meter:Cumulative,EnergyTransfer:Building,hourly; !- [J]
Output:Meter,EnergyTransfer:Zone:PENITENTIARY - DINING-SPACE FUNCTION ZN,hourly; !- [J]
Output:Meter:Cumulative,EnergyTransfer:Zone:PENITENTIARY - DINING-SPACE FUNCTION ZN,hourly; !- [J]
Output:Meter,Heating:EnergyTransfer,hourly; !- [J]
Output:Meter:Cumulative,Heating:EnergyTransfer,hourly; !- [J]
Output:Meter,Heating:EnergyTransfer:Zone:PENITENTIARY - DINING-SPACE FUNCTION ZN,hourly; !- [J]
Output:Meter:Cumulative,Heating:EnergyTransfer:Zone:PENITENTIARY - DINING-SPACE FUNCTION ZN,hourly; !- [J]
Output:Meter,Cooling:EnergyTransfer,hourly; !- [J]
Output:Meter:Cumulative,Cooling:EnergyTransfer,hourly; !- [J]
Output:Meter,Cooling:EnergyTransfer:Zone:PENITENTIARY - DINING-SPACE FUNCTION ZN,hourly; !- [J]
Output:Meter:Cumulative,Cooling:EnergyTransfer:Zone:PENITENTIARY - DINING-SPACE FUNCTION ZN,hourly; !- [J]
Output:Meter,EnergyTransfer:Zone:POST OFFICE SORTING-SPACE FUNCTION ZN,hourly; !- [J]
Output:Meter:Cumulative,EnergyTransfer:Zone:POST OFFICE SORTING-SPACE FUNCTION ZN,hourly; !- [J]
Output:Meter,Heating:EnergyTransfer:Zone:POST OFFICE SORTING-SPACE FUNCTION ZN,hourly; !- [J]
Output:Meter:Cumulative,Heating:EnergyTransfer:Zone:POST OFFICE SORTING-SPACE FUNCTION ZN,hourly; !- [J]
Output:Meter,Cooling:EnergyTransfer:Zone:POST OFFICE SORTING-SPACE FUNCTION ZN,hourly; !- [J]
Output:Meter:Cumulative,Cooling:EnergyTransfer:Zone:POST OFFICE SORTING-SPACE FUNCTION ZN,hourly; !- [J]
Output:Meter,EnergyTransfer:Zone:RELIGIOUS - AUDIENCE-SPACE FUNCTION ZN,hourly; !- [J]
Output:Meter:Cumulative,EnergyTransfer:Zone:RELIGIOUS - AUDIENCE-SPACE FUNCTION ZN,hourly; !- [J]
Output:Meter,Heating:EnergyTransfer:Zone:RELIGIOUS - AUDIENCE-SPACE FUNCTION ZN,hourly; !- [J]
Output:Meter:Cumulative,Heating:EnergyTransfer:Zone:RELIGIOUS - AUDIENCE-SPACE FUNCTION ZN,hourly; !- [J]
Output:Meter,Cooling:EnergyTransfer:Zone:RELIGIOUS - AUDIENCE-SPACE FUNCTION ZN,hourly; !- [J]
Output:Meter:Cumulative,Cooling:EnergyTransfer:Zone:RELIGIOUS - AUDIENCE-SPACE FUNCTION ZN,hourly; !- [J]
Output:Meter,EnergyTransfer:Zone:RELIGIOUS - FELLOWSHIP HALL-SPACE FUNCTION ZN,hourly; !- [J]
Output:Meter:Cumulative,EnergyTransfer:Zone:RELIGIOUS - FELLOWSHIP HALL-SPACE FUNCTION ZN,hourly; !- [J]
Output:Meter,Heating:EnergyTransfer:Zone:RELIGIOUS - FELLOWSHIP HALL-SPACE FUNCTION ZN,hourly; !- [J]
Output:Meter:Cumulative,Heating:EnergyTransfer:Zone:RELIGIOUS - FELLOWSHIP HALL-SPACE FUNCTION ZN,hourly; !- [J]
Output:Meter,Cooling:EnergyTransfer:Zone:RELIGIOUS - FELLOWSHIP HALL-SPACE FUNCTION ZN,hourly; !- [J]
Output:Meter:Cumulative,Cooling:EnergyTransfer:Zone:RELIGIOUS - FELLOWSHIP HALL-SPACE FUNCTION ZN,hourly; !- [J]
Output:Meter,EnergyTransfer:Zone:RELIGIOUS - PULPIT/CHOIR-SPACE FUNCTION ZN,hourly; !- [J]
Output:Meter:Cumulative,EnergyTransfer:Zone:RELIGIOUS - PULPIT/CHOIR-SPACE FUNCTION ZN,hourly; !- [J]
Output:Meter,Heating:EnergyTransfer:Zone:RELIGIOUS - PULPIT/CHOIR-SPACE FUNCTION ZN,hourly; !- [J]
Output:Meter:Cumulative,Heating:EnergyTransfer:Zone:RELIGIOUS - PULPIT/CHOIR-SPACE FUNCTION ZN,hourly; !- [J]
Output:Meter,Cooling:EnergyTransfer:Zone:RELIGIOUS - PULPIT/CHOIR-SPACE FUNCTION ZN,hourly; !- [J]
Output:Meter:Cumulative,Cooling:EnergyTransfer:Zone:RELIGIOUS - PULPIT/CHOIR-SPACE FUNCTION ZN,hourly; !- [J]
Output:Meter,EnergyTransfer:Zone:RETAIL - DRESSING/FITTING-SPACE FUNCTION ZN,hourly; !- [J]
Output:Meter:Cumulative,EnergyTransfer:Zone:RETAIL - DRESSING/FITTING-SPACE FUNCTION ZN,hourly; !- [J]
Output:Meter,Heating:EnergyTransfer:Zone:RETAIL - DRESSING/FITTING-SPACE FUNCTION ZN,hourly; !- [J]
Output:Meter:Cumulative,Heating:EnergyTransfer:Zone:RETAIL - DRESSING/FITTING-SPACE FUNCTION ZN,hourly; !- [J]
Output:Meter,Cooling:EnergyTransfer:Zone:RETAIL - DRESSING/FITTING-SPACE FUNCTION ZN,hourly; !- [J]
Output:Meter:Cumulative,Cooling:EnergyTransfer:Zone:RETAIL - DRESSING/FITTING-SPACE FUNCTION ZN,hourly; !- [J]
Output:Meter,EnergyTransfer:Zone:RETAIL - MALL CONCOURSE-SPACE FUNCTION ZN,hourly; !- [J]
Output:Meter:Cumulative,EnergyTransfer:Zone:RETAIL - MALL CONCOURSE-SPACE FUNCTION ZN,hourly; !- [J]
Output:Meter,Heating:EnergyTransfer:Zone:RETAIL - MALL CONCOURSE-SPACE FUNCTION ZN,hourly; !- [J]
Output:Meter:Cumulative,Heating:EnergyTransfer:Zone:RETAIL - MALL CONCOURSE-SPACE FUNCTION ZN,hourly; !- [J]
Output:Meter,Cooling:EnergyTransfer:Zone:RETAIL - MALL CONCOURSE-SPACE FUNCTION ZN,hourly; !- [J]
Output:Meter:Cumulative,Cooling:EnergyTransfer:Zone:RETAIL - MALL CONCOURSE-SPACE FUNCTION ZN,hourly; !- [J]
Output:Meter,EnergyTransfer:Zone:RETAIL - SALES-SPACE FUNCTION ZN,hourly; !- [J]
Output:Meter:Cumulative,EnergyTransfer:Zone:RETAIL - SALES-SPACE FUNCTION ZN,hourly; !- [J]
Output:Meter,Heating:EnergyTransfer:Zone:RETAIL - SALES-SPACE FUNCTION ZN,hourly; !- [J]
Output:Meter:Cumulative,Heating:EnergyTransfer:Zone:RETAIL - SALES-SPACE FUNCTION ZN,hourly; !- [J]
Output:Meter,Cooling:EnergyTransfer:Zone:RETAIL - SALES-SPACE FUNCTION ZN,hourly; !- [J]
Output:Meter:Cumulative,Cooling:EnergyTransfer:Zone:RETAIL - SALES-SPACE FUNCTION ZN,hourly; !- [J]
Output:Meter,EnergyTransfer:Zone:SALES AREA-SPACE FUNCTION ZN,hourly; !- [J]
Output:Meter:Cumulative,EnergyTransfer:Zone:SALES AREA-SPACE FUNCTION ZN,hourly; !- [J]
Output:Meter,Heating:EnergyTransfer:Zone:SALES AREA-SPACE FUNCTION ZN,hourly; !- [J]
Output:Meter:Cumulative,Heating:EnergyTransfer:Zone:SALES AREA-SPACE FUNCTION ZN,hourly; !- [J]
Output:Meter,Cooling:EnergyTransfer:Zone:SALES AREA-SPACE FUNCTION ZN,hourly; !- [J]
Output:Meter:Cumulative,Cooling:EnergyTransfer:Zone:SALES AREA-SPACE FUNCTION ZN,hourly; !- [J]
Output:Meter,EnergyTransfer:Zone:SPORTS ARENA - AUDIENCE-SPACE FUNCTION ZN,hourly; !- [J]
Output:Meter:Cumulative,EnergyTransfer:Zone:SPORTS ARENA - AUDIENCE-SPACE FUNCTION ZN,hourly; !- [J]
Output:Meter,Heating:EnergyTransfer:Zone:SPORTS ARENA - AUDIENCE-SPACE FUNCTION ZN,hourly; !- [J]
Output:Meter:Cumulative,Heating:EnergyTransfer:Zone:SPORTS ARENA - AUDIENCE-SPACE FUNCTION ZN,hourly; !- [J]
Output:Meter,Cooling:EnergyTransfer:Zone:SPORTS ARENA - AUDIENCE-SPACE FUNCTION ZN,hourly; !- [J]
Output:Meter:Cumulative,Cooling:EnergyTransfer:Zone:SPORTS ARENA - AUDIENCE-SPACE FUNCTION ZN,hourly; !- [J]
Output:Meter,EnergyTransfer:Zone:SPORTS ARENA - COURT C1-SPACE FUNCTION ZN,hourly; !- [J]
Output:Meter:Cumulative,EnergyTransfer:Zone:SPORTS ARENA - COURT C1-SPACE FUNCTION ZN,hourly; !- [J]
Output:Meter,Heating:EnergyTransfer:Zone:SPORTS ARENA - COURT C1-SPACE FUNCTION ZN,hourly; !- [J]
Output:Meter:Cumulative,Heating:EnergyTransfer:Zone:SPORTS ARENA - COURT C1-SPACE FUNCTION ZN,hourly; !- [J]
Output:Meter,Cooling:EnergyTransfer:Zone:SPORTS ARENA - COURT C1-SPACE FUNCTION ZN,hourly; !- [J]
Output:Meter:Cumulative,Cooling:EnergyTransfer:Zone:SPORTS ARENA - COURT C1-SPACE FUNCTION ZN,hourly; !- [J]
Output:Meter,EnergyTransfer:Zone:SPORTS ARENA - COURT C2-SPACE FUNCTION ZN,hourly; !- [J]
Output:Meter:Cumulative,EnergyTransfer:Zone:SPORTS ARENA - COURT C2-SPACE FUNCTION ZN,hourly; !- [J]
Output:Meter,Heating:EnergyTransfer:Zone:SPORTS ARENA - COURT C2-SPACE FUNCTION ZN,hourly; !- [J]
Output:Meter:Cumulative,Heating:EnergyTransfer:Zone:SPORTS ARENA - COURT C2-SPACE FUNCTION ZN,hourly; !- [J]
Output:Meter,Cooling:EnergyTransfer:Zone:SPORTS ARENA - COURT C2-SPACE FUNCTION ZN,hourly; !- [J]
Output:Meter:Cumulative,Cooling:EnergyTransfer:Zone:SPORTS ARENA - COURT C2-SPACE FUNCTION ZN,hourly; !- [J]
Output:Meter,EnergyTransfer:Zone:SPORTS ARENA - COURT C3-SPACE FUNCTION ZN,hourly; !- [J]
Output:Meter:Cumulative,EnergyTransfer:Zone:SPORTS ARENA - COURT C3-SPACE FUNCTION ZN,hourly; !- [J]
Output:Meter,Heating:EnergyTransfer:Zone:SPORTS ARENA - COURT C3-SPACE FUNCTION ZN,hourly; !- [J]
Output:Meter:Cumulative,Heating:EnergyTransfer:Zone:SPORTS ARENA - COURT C3-SPACE FUNCTION ZN,hourly; !- [J]
Output:Meter,Cooling:EnergyTransfer:Zone:SPORTS ARENA - COURT C3-SPACE FUNCTION ZN,hourly; !- [J]
Output:Meter:Cumulative,Cooling:EnergyTransfer:Zone:SPORTS ARENA - COURT C3-SPACE FUNCTION ZN,hourly; !- [J]
Output:Meter,EnergyTransfer:Zone:SPORTS ARENA - COURT C4-SPACE FUNCTION ZN,hourly; !- [J]
Output:Meter:Cumulative,EnergyTransfer:Zone:SPORTS ARENA - COURT C4-SPACE FUNCTION ZN,hourly; !- [J]
Output:Meter,Heating:EnergyTransfer:Zone:SPORTS ARENA - COURT C4-SPACE FUNCTION ZN,hourly; !- [J]
Output:Meter:Cumulative,Heating:EnergyTransfer:Zone:SPORTS ARENA - COURT C4-SPACE FUNCTION ZN,hourly; !- [J]
Output:Meter,Cooling:EnergyTransfer:Zone:SPORTS ARENA - COURT C4-SPACE FUNCTION ZN,hourly; !- [J]
Output:Meter:Cumulative,Cooling:EnergyTransfer:Zone:SPORTS ARENA - COURT C4-SPACE FUNCTION ZN,hourly; !- [J]
Output:Meter,EnergyTransfer:Zone:SPORTS ARENA - RING-SPACE FUNCTION ZN,hourly; !- [J]
Output:Meter:Cumulative,EnergyTransfer:Zone:SPORTS ARENA - RING-SPACE FUNCTION ZN,hourly; !- [J]
Output:Meter,Heating:EnergyTransfer:Zone:SPORTS ARENA - RING-SPACE FUNCTION ZN,hourly; !- [J]
Output:Meter:Cumulative,Heating:EnergyTransfer:Zone:SPORTS ARENA - RING-SPACE FUNCTION ZN,hourly; !- [J]
Output:Meter,Cooling:EnergyTransfer:Zone:SPORTS ARENA - RING-SPACE FUNCTION ZN,hourly; !- [J]
Output:Meter:Cumulative,Cooling:EnergyTransfer:Zone:SPORTS ARENA - RING-SPACE FUNCTION ZN,hourly; !- [J]
Output:Meter,EnergyTransfer:Zone:STAIRWAY-SCH-A-SPACE FUNCTION ZN,hourly; !- [J]
Output:Meter:Cumulative,EnergyTransfer:Zone:STAIRWAY-SCH-A-SPACE FUNCTION ZN,hourly; !- [J]
Output:Meter,Heating:EnergyTransfer:Zone:STAIRWAY-SCH-A-SPACE FUNCTION ZN,hourly; !- [J]
Output:Meter:Cumulative,Heating:EnergyTransfer:Zone:STAIRWAY-SCH-A-SPACE FUNCTION ZN,hourly; !- [J]
Output:Meter,Cooling:EnergyTransfer:Zone:STAIRWAY-SCH-A-SPACE FUNCTION ZN,hourly; !- [J]
Output:Meter:Cumulative,Cooling:EnergyTransfer:Zone:STAIRWAY-SCH-A-SPACE FUNCTION ZN,hourly; !- [J]
Output:Meter,EnergyTransfer:Zone:STAIRWAY-SCH-B-SPACE FUNCTION ZN,hourly; !- [J]
Output:Meter:Cumulative,EnergyTransfer:Zone:STAIRWAY-SCH-B-SPACE FUNCTION ZN,hourly; !- [J]
Output:Meter,Heating:EnergyTransfer:Zone:STAIRWAY-SCH-B-SPACE FUNCTION ZN,hourly; !- [J]
Output:Meter:Cumulative,Heating:EnergyTransfer:Zone:STAIRWAY-SCH-B-SPACE FUNCTION ZN,hourly; !- [J]
Output:Meter,Cooling:EnergyTransfer:Zone:STAIRWAY-SCH-B-SPACE FUNCTION ZN,hourly; !- [J]
Output:Meter:Cumulative,Cooling:EnergyTransfer:Zone:STAIRWAY-SCH-B-SPACE FUNCTION ZN,hourly; !- [J]
Output:Meter,EnergyTransfer:Zone:STAIRWAY-SCH-C-SPACE FUNCTION ZN,hourly; !- [J]
Output:Meter:Cumulative,EnergyTransfer:Zone:STAIRWAY-SCH-C-SPACE FUNCTION ZN,hourly; !- [J]
Output:Meter,Heating:EnergyTransfer:Zone:STAIRWAY-SCH-C-SPACE FUNCTION ZN,hourly; !- [J]
Output:Meter:Cumulative,Heating:EnergyTransfer:Zone:STAIRWAY-SCH-C-SPACE FUNCTION ZN,hourly; !- [J]
Output:Meter,Cooling:EnergyTransfer:Zone:STAIRWAY-SCH-C-SPACE FUNCTION ZN,hourly; !- [J]
Output:Meter:Cumulative,Cooling:EnergyTransfer:Zone:STAIRWAY-SCH-C-SPACE FUNCTION ZN,hourly; !- [J]
Output:Meter,EnergyTransfer:Zone:STAIRWAY-SCH-D-SPACE FUNCTION ZN,hourly; !- [J]
Output:Meter:Cumulative,EnergyTransfer:Zone:STAIRWAY-SCH-D-SPACE FUNCTION ZN,hourly; !- [J]
Output:Meter,Heating:EnergyTransfer:Zone:STAIRWAY-SCH-D-SPACE FUNCTION ZN,hourly; !- [J]
Output:Meter:Cumulative,Heating:EnergyTransfer:Zone:STAIRWAY-SCH-D-SPACE FUNCTION ZN,hourly; !- [J]
Output:Meter,Cooling:EnergyTransfer:Zone:STAIRWAY-SCH-D-SPACE FUNCTION ZN,hourly; !- [J]
Output:Meter:Cumulative,Cooling:EnergyTransfer:Zone:STAIRWAY-SCH-D-SPACE FUNCTION ZN,hourly; !- [J]
Output:Meter,EnergyTransfer:Zone:STAIRWAY-SCH-E-SPACE FUNCTION ZN,hourly; !- [J]
Output:Meter:Cumulative,EnergyTransfer:Zone:STAIRWAY-SCH-E-SPACE FUNCTION ZN,hourly; !- [J]
Output:Meter,Heating:EnergyTransfer:Zone:STAIRWAY-SCH-E-SPACE FUNCTION ZN,hourly; !- [J]
Output:Meter:Cumulative,Heating:EnergyTransfer:Zone:STAIRWAY-SCH-E-SPACE FUNCTION ZN,hourly; !- [J]
Output:Meter,Cooling:EnergyTransfer:Zone:STAIRWAY-SCH-E-SPACE FUNCTION ZN,hourly; !- [J]
Output:Meter:Cumulative,Cooling:EnergyTransfer:Zone:STAIRWAY-SCH-E-SPACE FUNCTION ZN,hourly; !- [J]
Output:Meter,ElectricityPurchased:Facility,hourly; !- [J]
Output:Meter:Cumulative,ElectricityPurchased:Facility,hourly; !- [J]
Output:Meter,ElectricityPurchased:Plant,hourly; !- [J]
Output:Meter:Cumulative,ElectricityPurchased:Plant,hourly; !- [J]
Output:Meter,Cogeneration:ElectricityPurchased,hourly; !- [J]
Output:Meter:Cumulative,Cogeneration:ElectricityPurchased,hourly; !- [J]
Output:Meter,ElectricitySurplusSold:Facility,hourly; !- [J]
Output:Meter:Cumulative,ElectricitySurplusSold:Facility,hourly; !- [J]
Output:Meter,ElectricitySurplusSold:Plant,hourly; !- [J]
Output:Meter:Cumulative,ElectricitySurplusSold:Plant,hourly; !- [J]
Output:Meter,Cogeneration:ElectricitySurplusSold,hourly; !- [J]
Output:Meter:Cumulative,Cogeneration:ElectricitySurplusSold,hourly; !- [J]
Output:Meter,ElectricityNet:Facility,hourly; !- [J]
Output:Meter:Cumulative,ElectricityNet:Facility,hourly; !- [J]
Output:Meter,ElectricityNet:Plant,hourly; !- [J]
Output:Meter:Cumulative,ElectricityNet:Plant,hourly; !- [J]
Output:Meter,Cogeneration:ElectricityNet,hourly; !- [J]
Output:Meter:Cumulative,Cogeneration:ElectricityNet,hourly; !- [J]
Output:Meter,DistrictHeating:Facility,hourly; !- [J]
Output:Meter:Cumulative,DistrictHeating:Facility,hourly; !- [J]
Output:Meter,DistrictHeating:HVAC,hourly; !- [J]
Output:Meter:Cumulative,DistrictHeating:HVAC,hourly; !- [J]
Output:Meter,Heating:DistrictHeating,hourly; !- [J]
Output:Meter:Cumulative,Heating:DistrictHeating,hourly; !- [J]
Output:Meter,DistrictCooling:Facility,hourly; !- [J]
Output:Meter:Cumulative,DistrictCooling:Facility,hourly; !- [J]
Output:Meter,DistrictCooling:HVAC,hourly; !- [J]
Output:Meter:Cumulative,DistrictCooling:HVAC,hourly; !- [J]
Output:Meter,Cooling:DistrictCooling,hourly; !- [J]
Output:Meter:Cumulative,Cooling:DistrictCooling,hourly; !- [J]
Output:Meter,Carbon Equivalent:Facility,hourly; !- [kg]
Output:Meter:Cumulative,Carbon Equivalent:Facility,hourly; !- [kg]
Output:Meter,CarbonEquivalentEmissions:Carbon Equivalent,hourly; !- [kg]
Output:Meter:Cumulative,CarbonEquivalentEmissions:Carbon Equivalent,hourly; !- [kg]
