Program Version,EnergyPlus, Version 8.9.0-eba93e8e1b, YMD=2019.04.04 17:59
! This file shows details about the branches, nodes, and other
! elements of the flow connections.
! This file is intended for use in "debugging" potential problems
! that may also be detected by the program, but may be more easily
! identified by "eye".
! This file is also intended to support software which draws a
! schematic diagram of the HVAC system.
! ===============================================================
! #Nodes,<Number of Unique Nodes>
 #Nodes,158
! <Node>,<NodeNumber>,<Node Name>,<Node Fluid Type>,<# Times Node Referenced After Definition>
 Node,1,NODE 23,Air,4
 Node,2,NODE 98,Air,3
 Node,3,NODE 88,Air,4
 Node,4,NODE 97,Air,3
 Node,5,NODE 104,Air,4
 Node,6,NODE 35,Air,4
 Node,7,NODE 48,Air,4
 Node,8,NODE 85,Air,10
 Node,9,NODE 86,Air,3
 Node,10,NODE 101,Air,10
 Node,11,NODE 102,Air,3
 Node,12,NODE 20,Air,10
 Node,13,NODE 21,Air,3
 Node,14,NODE 32,Air,10
 Node,15,NODE 33,Air,3
 Node,16,NODE 45,Air,10
 Node,17,NODE 46,Air,3
 Node,18,NODE 84,Air,3
 Node,19,NODE 93,Air,6
 Node,20,NODE 92,Air,6
 Node,21,NODE 91,Air,8
 Node,22,NODE 100,Air,3
 Node,23,NODE 109,Air,6
 Node,24,NODE 108,Air,6
 Node,25,NODE 107,Air,8
 Node,26,NODE 19,Air,3
 Node,27,NODE 28,Air,6
 Node,28,NODE 27,Air,6
 Node,29,NODE 26,Air,8
 Node,30,NODE 31,Air,4
 Node,31,NODE 40,Air,8
 Node,32,NODE 39,Air,6
 Node,33,NODE 38,Air,8
 Node,34,NODE 44,Air,4
 Node,35,NODE 53,Air,8
 Node,36,NODE 52,Air,6
 Node,37,NODE 51,Air,8
 Node,38,NODE 57,Water,2
 Node,39,NODE 63,Water,1
 Node,40,NODE 59,Water,1
 Node,41,NODE 64,Water,1
 Node,42,NODE 65,Water,1
 Node,43,NODE 66,Water,1
 Node,44,NODE 67,Water,1
 Node,45,NODE 68,Water,1
 Node,46,NODE 69,Water,1
 Node,47,NODE 58,Water,4
 Node,48,NODE 60,Water,2
 Node,49,CHILLED WATER LOOP DEMAND INLET PIPE NODE,Water,1
 Node,50,NODE 62,Water,1
 Node,51,NODE 96,Water,1
 Node,52,CHILLED WATER LOOP DEMAND BYPASS PIPE INLET NODE,Water,1
 Node,53,CHILLED WATER LOOP DEMAND BYPASS PIPE OUTLET NODE,Water,1
 Node,54,CHILLED WATER LOOP DEMAND OUTLET PIPE NODE,Water,1
 Node,55,NODE 61,Water,2
 Node,56,NODE 70,Water,2
 Node,57,NODE 76,Water,1
 Node,58,NODE 72,Water,1
 Node,59,NODE 77,Water,1
 Node,60,NODE 78,Water,1
 Node,61,NODE 79,Water,1
 Node,62,NODE 80,Water,1
 Node,63,NODE 71,Water,4
 Node,64,NODE 73,Water,2
 Node,65,CONDENSER WATER LOOP DEMAND INLET PIPE NODE,Water,1
 Node,66,NODE 75,Water,1
 Node,67,NODE 81,Water,1
 Node,68,NODE 82,Water,1
 Node,69,NODE 83,Water,1
 Node,70,CONDENSER WATER LOOP DEMAND BYPASS PIPE INLET NODE,Water,1
 Node,71,CONDENSER WATER LOOP DEMAND BYPASS PIPE OUTLET NODE,Water,1
 Node,72,CONDENSER WATER LOOP DEMAND OUTLET PIPE NODE,Water,1
 Node,73,NODE 74,Water,2
 Node,74,NODE 2,Water,2
 Node,75,NODE 11,Water,1
 Node,76,NODE 5,Water,1
 Node,77,NODE 12,Water,1
 Node,78,NODE 14,Water,1
 Node,79,NODE 15,Water,1
 Node,80,NODE 16,Water,1
 Node,81,NODE 17,Water,1
 Node,82,NODE 18,Water,1
 Node,83,NODE 3,Water,4
 Node,84,NODE 6,Water,2
 Node,85,HOT WATER LOOP DEMAND INLET PIPE NODE,Water,1
 Node,86,NODE 9,Water,1
 Node,87,NODE 30,Water,1
 Node,88,NODE 42,Water,1
 Node,89,NODE 43,Water,1
 Node,90,NODE 55,Water,1
 Node,91,NODE 56,Water,1
 Node,92,NODE 94,Water,1
 Node,93,NODE 95,Water,1
 Node,94,NODE 111,Water,1
 Node,95,NODE 112,Water,1
 Node,96,HOT WATER LOOP DEMAND BYPASS PIPE INLET NODE,Water,1
 Node,97,HOT WATER LOOP DEMAND BYPASS PIPE OUTLET NODE,Water,1
 Node,98,HOT WATER LOOP DEMAND OUTLET PIPE NODE,Water,1
 Node,99,NODE 8,Water,2
 Node,100,NODE 113,Water,2
 Node,101,NODE 119,Water,1
 Node,102,NODE 115,Water,1
 Node,103,NODE 120,Water,1
 Node,104,NODE 121,Water,1
 Node,105,NODE 122,Water,1
 Node,106,NODE 124,Water,1
 Node,107,NODE 114,Water,4
 Node,108,NODE 116,Water,2
 Node,109,NODE 125,Water,1
 Node,110,NODE 118,Water,1
 Node,111,NODE 123,Water,1
 Node,112,NODE 127,Water,1
 Node,113,NODE 128,Water,1
 Node,114,NODE 129,Water,1
 Node,115,NODE 130,Water,1
 Node,116,NODE 131,Water,1
 Node,117,NODE 132,Water,1
 Node,118,NODE 133,Water,1
 Node,119,NODE 134,Water,1
 Node,120,MAIN SERVICE WATER LOOP DEMAND BYPASS PIPE INLET NODE,Water,1
 Node,121,MAIN SERVICE WATER LOOP DEMAND BYPASS PIPE OUTLET NODE,Water,1
 Node,122,NODE 126,Water,1
 Node,123,NODE 117,Water,2
 Node,124,NODE 1,Air,1
 Node,125,NODE 29,Air,1
 Node,126,NODE 4,Air,1
 Node,127,NODE 99,Air,1
 Node,128,NODE 7,Air,1
 Node,129,NODE 110,Air,1
 Node,130,NODE 10,Air,1
 Node,131,NODE 41,Air,1
 Node,132,NODE 13,Air,1
 Node,133,NODE 54,Air,1
 Node,134,NODE 87,Air,2
 Node,135,NODE 103,Air,2
 Node,136,NODE 22,Air,2
 Node,137,NODE 34,Air,2
 Node,138,NODE 47,Air,2
 Node,139,ZONE HVAC FOUR PIPE FAN COIL 1 OA NODE,Air,1
 Node,140,NODE 89,Air,2
 Node,141,NODE 105,Air,2
 Node,142,NODE 24,Air,2
 Node,143,NODE 36,Air,3
 Node,144,NODE 49,Air,3
 Node,145,MODEL OUTDOOR AIR NODE,Air,0
 Node,146,NODE 136,Air,2
 Node,147,NODE 138,Air,2
 Node,148,ZONE HVAC FOUR PIPE FAN COIL 1 MIXED AIR NODE,Air,1
 Node,149,ZONE HVAC FOUR PIPE FAN COIL 1 RELIEF AIR NODE,Air,0
 Node,150,NODE 90,Air,1
 Node,151,NODE 106,Air,1
 Node,152,NODE 25,Air,1
 Node,153,NODE 137,Air,2
 Node,154,NODE 139,Air,2
 Node,155,ZONE HVAC FOUR PIPE FAN COIL 1 COOLING COIL OUTLET NODE,Air,1
 Node,156,ZONE HVAC FOUR PIPE FAN COIL 1 FAN OUTLET NODE,Air,1
 Node,157,NODE 37,Air,0
 Node,158,NODE 50,Air,0
! ===============================================================
! Suspicious nodes have 0 references.  It is normal for some nodes, however.
! Listing nodes with 0 references (culled from previous list):
! <Suspicious Node>,<NodeNumber>,<Node Name>,<Node Fluid Type>,<# Times Node Referenced After Definition>
 Suspicious Node,145,MODEL OUTDOOR AIR NODE,Air,0
 Suspicious Node,149,ZONE HVAC FOUR PIPE FAN COIL 1 RELIEF AIR NODE,Air,0
 Suspicious Node,157,NODE 37,Air,0
 Suspicious Node,158,NODE 50,Air,0
! ===============================================================
! <#Branch Lists>,<Number of Branch Lists>
 #Branch Lists,13
! <Branch List>,<Branch List Count>,<Branch List Name>,<Loop Name>,<Loop Type>,<Number of Branches>
! <Branch>,<Branch Count>,<Branch Name>,<Loop Name>,<Loop Type>,<Branch Inlet Node Name>,<Branch Outlet Node Name>
 Branch List,1,SYS_2_MAKE-UP AIR UNIT SUPPLY BRANCHES,SYS_2_MAKE-UP AIR UNIT,Air,1
   Branch,1,SYS_2_MAKE-UP AIR UNIT MAIN BRANCH,SYS_2_MAKE-UP AIR UNIT,Air,NODE 84,NODE 85
 Branch List,2,SYS_3_PSZ ALL_ST=WHOLEBUILDING_FL=STORY 1_SCH=A 2 SUPPLY BRANCHES,SYS_3_PSZ ALL_ST=WHOLEBUILDING_FL=STORY 1_SCH=A 2,Air,1
   Branch,1,SYS_3_PSZ ALL_ST=WHOLEBUILDING_FL=STORY 1_SCH=A 2 MAIN BRANCH,SYS_3_PSZ ALL_ST=WHOLEBUILDING_FL=STORY 1_SCH=A 2,Air,NODE 100,NODE 101
 Branch List,3,SYS_4_PSZ_ALL_ST=WHOLEBUILDING_FL=STORY 1_SCH=A SUPPLY BRANCHES,SYS_4_PSZ_ALL_ST=WHOLEBUILDING_FL=STORY 1_SCH=A,Air,1
   Branch,1,SYS_4_PSZ_ALL_ST=WHOLEBUILDING_FL=STORY 1_SCH=A MAIN BRANCH,SYS_4_PSZ_ALL_ST=WHOLEBUILDING_FL=STORY 1_SCH=A,Air,NODE 19,NODE 20
 Branch List,4,SYS_4_PSZ_ALL_ST=WHOLEBUILDING_FL=STORY 1_SCH=E SUPPLY BRANCHES,SYS_4_PSZ_ALL_ST=WHOLEBUILDING_FL=STORY 1_SCH=E,Air,1
   Branch,1,SYS_4_PSZ_ALL_ST=WHOLEBUILDING_FL=STORY 1_SCH=E MAIN BRANCH,SYS_4_PSZ_ALL_ST=WHOLEBUILDING_FL=STORY 1_SCH=E,Air,NODE 31,NODE 32
 Branch List,5,SYS_4_PSZ_ALL_ST=WHOLEBUILDING_FL=STORY 1_SCH=E 1 SUPPLY BRANCHES,SYS_4_PSZ_ALL_ST=WHOLEBUILDING_FL=STORY 1_SCH=E 1,Air,1
   Branch,1,SYS_4_PSZ_ALL_ST=WHOLEBUILDING_FL=STORY 1_SCH=E 1 MAIN BRANCH,SYS_4_PSZ_ALL_ST=WHOLEBUILDING_FL=STORY 1_SCH=E 1,Air,NODE 44,NODE 45
 Branch List,6,CHILLED WATER LOOP SUPPLY BRANCHES,CHILLED WATER LOOP,Plant Supply,5
   Branch,1,CHILLED WATER LOOP SUPPLY INLET BRANCH,CHILLED WATER LOOP,Plant Supply,NODE 57,NODE 63
   Branch,2,CHILLED WATER LOOP SUPPLY BRANCH 1,CHILLED WATER LOOP,Plant Supply,NODE 59,NODE 64
   Branch,3,CHILLED WATER LOOP SUPPLY BRANCH 2,CHILLED WATER LOOP,Plant Supply,NODE 65,NODE 66
   Branch,4,CHILLED WATER LOOP SUPPLY BRANCH 3,CHILLED WATER LOOP,Plant Supply,NODE 67,NODE 68
   Branch,5,CHILLED WATER LOOP SUPPLY OUTLET BRANCH,CHILLED WATER LOOP,Plant Supply,NODE 69,NODE 58
 Branch List,7,CHILLED WATER LOOP DEMAND BRANCHES,CHILLED WATER LOOP,Plant Demand,4
   Branch,1,CHILLED WATER LOOP DEMAND INLET BRANCH,CHILLED WATER LOOP,Plant Demand,NODE 60,CHILLED WATER LOOP DEMAND INLET PIPE NODE
   Branch,2,CHILLED WATER LOOP DEMAND BRANCH 1,CHILLED WATER LOOP,Plant Demand,NODE 62,NODE 96
   Branch,3,CHILLED WATER LOOP DEMAND BYPASS BRANCH,CHILLED WATER LOOP,Plant Demand,CHILLED WATER LOOP DEMAND BYPASS PIPE INLET NODE,CHILLED WATER LOOP DEMAND BYPASS PIPE OUTLET NODE
   Branch,4,CHILLED WATER LOOP DEMAND OUTLET BRANCH,CHILLED WATER LOOP,Plant Demand,CHILLED WATER LOOP DEMAND OUTLET PIPE NODE,NODE 61
 Branch List,8,CONDENSER WATER LOOP SUPPLY BRANCHES,CONDENSER WATER LOOP,Plant Supply,4
   Branch,1,CONDENSER WATER LOOP SUPPLY INLET BRANCH,CONDENSER WATER LOOP,Plant Supply,NODE 70,NODE 76
   Branch,2,CONDENSER WATER LOOP SUPPLY BRANCH 1,CONDENSER WATER LOOP,Plant Supply,NODE 72,NODE 77
   Branch,3,CONDENSER WATER LOOP SUPPLY BRANCH 2,CONDENSER WATER LOOP,Plant Supply,NODE 78,NODE 79
   Branch,4,CONDENSER WATER LOOP SUPPLY OUTLET BRANCH,CONDENSER WATER LOOP,Plant Supply,NODE 80,NODE 71
 Branch List,9,CONDENSER WATER LOOP DEMAND BRANCHES,CONDENSER WATER LOOP,Plant Demand,5
   Branch,1,CONDENSER WATER LOOP DEMAND INLET BRANCH,CONDENSER WATER LOOP,Plant Demand,NODE 73,CONDENSER WATER LOOP DEMAND INLET PIPE NODE
   Branch,2,CONDENSER WATER LOOP DEMAND BRANCH 1,CONDENSER WATER LOOP,Plant Demand,NODE 75,NODE 81
   Branch,3,CONDENSER WATER LOOP DEMAND BRANCH 2,CONDENSER WATER LOOP,Plant Demand,NODE 82,NODE 83
   Branch,4,CONDENSER WATER LOOP DEMAND BYPASS BRANCH,CONDENSER WATER LOOP,Plant Demand,CONDENSER WATER LOOP DEMAND BYPASS PIPE INLET NODE,CONDENSER WATER LOOP DEMAND BYPASS PIPE OUTLET NODE
   Branch,5,CONDENSER WATER LOOP DEMAND OUTLET BRANCH,CONDENSER WATER LOOP,Plant Demand,CONDENSER WATER LOOP DEMAND OUTLET PIPE NODE,NODE 74
 Branch List,10,HOT WATER LOOP SUPPLY BRANCHES,HOT WATER LOOP,Plant Supply,5
   Branch,1,HOT WATER LOOP SUPPLY INLET BRANCH,HOT WATER LOOP,Plant Supply,NODE 2,NODE 11
   Branch,2,HOT WATER LOOP SUPPLY BRANCH 1,HOT WATER LOOP,Plant Supply,NODE 5,NODE 12
   Branch,3,HOT WATER LOOP SUPPLY BRANCH 2,HOT WATER LOOP,Plant Supply,NODE 14,NODE 15
   Branch,4,HOT WATER LOOP SUPPLY BRANCH 3,HOT WATER LOOP,Plant Supply,NODE 16,NODE 17
   Branch,5,HOT WATER LOOP SUPPLY OUTLET BRANCH,HOT WATER LOOP,Plant Supply,NODE 18,NODE 3
 Branch List,11,HOT WATER LOOP DEMAND BRANCHES,HOT WATER LOOP,Plant Demand,8
   Branch,1,HOT WATER LOOP DEMAND INLET BRANCH,HOT WATER LOOP,Plant Demand,NODE 6,HOT WATER LOOP DEMAND INLET PIPE NODE
   Branch,2,HOT WATER LOOP DEMAND BRANCH 1,HOT WATER LOOP,Plant Demand,NODE 9,NODE 30
   Branch,3,HOT WATER LOOP DEMAND BRANCH 2,HOT WATER LOOP,Plant Demand,NODE 42,NODE 43
   Branch,4,HOT WATER LOOP DEMAND BRANCH 3,HOT WATER LOOP,Plant Demand,NODE 55,NODE 56
   Branch,5,HOT WATER LOOP DEMAND BRANCH 4,HOT WATER LOOP,Plant Demand,NODE 94,NODE 95
   Branch,6,HOT WATER LOOP DEMAND BRANCH 5,HOT WATER LOOP,Plant Demand,NODE 111,NODE 112
   Branch,7,HOT WATER LOOP DEMAND BYPASS BRANCH,HOT WATER LOOP,Plant Demand,HOT WATER LOOP DEMAND BYPASS PIPE INLET NODE,HOT WATER LOOP DEMAND BYPASS PIPE OUTLET NODE
   Branch,8,HOT WATER LOOP DEMAND OUTLET BRANCH,HOT WATER LOOP,Plant Demand,HOT WATER LOOP DEMAND OUTLET PIPE NODE,NODE 8
 Branch List,12,MAIN SERVICE WATER LOOP SUPPLY BRANCHES,MAIN SERVICE WATER LOOP,Plant Supply,4
   Branch,1,MAIN SERVICE WATER LOOP SUPPLY INLET BRANCH,MAIN SERVICE WATER LOOP,Plant Supply,NODE 113,NODE 119
   Branch,2,MAIN SERVICE WATER LOOP SUPPLY BRANCH 1,MAIN SERVICE WATER LOOP,Plant Supply,NODE 115,NODE 120
   Branch,3,MAIN SERVICE WATER LOOP SUPPLY BRANCH 2,MAIN SERVICE WATER LOOP,Plant Supply,NODE 121,NODE 122
   Branch,4,MAIN SERVICE WATER LOOP SUPPLY OUTLET BRANCH,MAIN SERVICE WATER LOOP,Plant Supply,NODE 124,NODE 114
 Branch List,13,MAIN SERVICE WATER LOOP DEMAND BRANCHES,MAIN SERVICE WATER LOOP,Plant Demand,8
   Branch,1,MAIN SERVICE WATER LOOP DEMAND INLET BRANCH,MAIN SERVICE WATER LOOP,Plant Demand,NODE 116,NODE 125
   Branch,2,MAIN SERVICE WATER LOOP DEMAND BRANCH 1,MAIN SERVICE WATER LOOP,Plant Demand,NODE 118,NODE 123
   Branch,3,MAIN SERVICE WATER LOOP DEMAND BRANCH 2,MAIN SERVICE WATER LOOP,Plant Demand,NODE 127,NODE 128
   Branch,4,MAIN SERVICE WATER LOOP DEMAND BRANCH 3,MAIN SERVICE WATER LOOP,Plant Demand,NODE 129,NODE 130
   Branch,5,MAIN SERVICE WATER LOOP DEMAND BRANCH 4,MAIN SERVICE WATER LOOP,Plant Demand,NODE 131,NODE 132
   Branch,6,MAIN SERVICE WATER LOOP DEMAND BRANCH 5,MAIN SERVICE WATER LOOP,Plant Demand,NODE 133,NODE 134
   Branch,7,MAIN SERVICE WATER LOOP DEMAND BYPASS BRANCH,MAIN SERVICE WATER LOOP,Plant Demand,MAIN SERVICE WATER LOOP DEMAND BYPASS PIPE INLET NODE,MAIN SERVICE WATER LOOP DEMAND BYPASS PIPE OUTLET NODE
   Branch,8,MAIN SERVICE WATER LOOP DEMAND OUTLET BRANCH,MAIN SERVICE WATER LOOP,Plant Demand,NODE 126,NODE 117
! ===============================================================
! <#Supply Air Paths>,<Number of Supply Air Paths>
 #Supply Air Paths,5
! <Supply Air Path>,<Supply Air Path Count>,<Supply Air Path Name>,<AirLoopHVAC Name>
! <#Components on Supply Air Path>,<Number of Components>
! <Supply Air Path Component>,<Component Count>,<Component Type>,<Component Name>,<AirLoopHVAC Name>
! <#Outlet Nodes on Supply Air Path Component>,<Number of Nodes>
! <Supply Air Path Component Nodes>,<Node Count>,<Component Type>,<Component Name>,<Inlet Node Name>,<Outlet Node Name>,<AirLoopHVAC Name>
 Supply Air Path,1,SYS_2_MAKE-UP AIR UNIT NODE 86 SUPPLY PATH,SYS_2_MAKE-UP AIR UNIT
   #Components on Supply Air Path,1
   Supply Air Path Component,1,AIRLOOPHVAC:ZONESPLITTER,AIR LOOP HVAC ZONE SPLITTER 4,SYS_2_MAKE-UP AIR UNIT
     #Outlet Nodes on Supply Air Path Component,1
     Supply Air Path Component Nodes,1,AIRLOOPHVAC:ZONESPLITTER,AIR LOOP HVAC ZONE SPLITTER 4,NODE 86,NODE 88,SYS_2_MAKE-UP AIR UNIT
! <#Nodes on Supply Air Path>,<Number of Nodes>
! <Supply Air Path Node>,<Node Type>,<Node Count>,<Node Name>,<AirLoopHVAC Name>
#Nodes on Supply Air Path,2
   Supply Air Path Node,Inlet Node,1,NODE 86,SYS_2_MAKE-UP AIR UNIT
   Supply Air Path Node,Outlet Node,2,NODE 88,SYS_2_MAKE-UP AIR UNIT
 Supply Air Path,2,SYS_3_PSZ ALL_ST=WHOLEBUILDING_FL=STORY 1_SCH=A 2 NODE 102 SUPPLY PATH,SYS_3_PSZ ALL_ST=WHOLEBUILDING_FL=STORY 1_SCH=A 2
   #Components on Supply Air Path,1
   Supply Air Path Component,1,AIRLOOPHVAC:ZONESPLITTER,AIR LOOP HVAC ZONE SPLITTER 5,SYS_3_PSZ ALL_ST=WHOLEBUILDING_FL=STORY 1_SCH=A 2
     #Outlet Nodes on Supply Air Path Component,1
     Supply Air Path Component Nodes,1,AIRLOOPHVAC:ZONESPLITTER,AIR LOOP HVAC ZONE SPLITTER 5,NODE 102,NODE 104,SYS_3_PSZ ALL_ST=WHOLEBUILDING_FL=STORY 1_SCH=A 2
! <#Nodes on Supply Air Path>,<Number of Nodes>
! <Supply Air Path Node>,<Node Type>,<Node Count>,<Node Name>,<AirLoopHVAC Name>
#Nodes on Supply Air Path,2
   Supply Air Path Node,Inlet Node,1,NODE 102,SYS_3_PSZ ALL_ST=WHOLEBUILDING_FL=STORY 1_SCH=A 2
   Supply Air Path Node,Outlet Node,2,NODE 104,SYS_3_PSZ ALL_ST=WHOLEBUILDING_FL=STORY 1_SCH=A 2
 Supply Air Path,3,SYS_4_PSZ_ALL_ST=WHOLEBUILDING_FL=STORY 1_SCH=A NODE 21 SUPPLY PATH,SYS_4_PSZ_ALL_ST=WHOLEBUILDING_FL=STORY 1_SCH=A
   #Components on Supply Air Path,1
   Supply Air Path Component,1,AIRLOOPHVAC:ZONESPLITTER,AIR LOOP HVAC ZONE SPLITTER 1,SYS_4_PSZ_ALL_ST=WHOLEBUILDING_FL=STORY 1_SCH=A
     #Outlet Nodes on Supply Air Path Component,1
     Supply Air Path Component Nodes,1,AIRLOOPHVAC:ZONESPLITTER,AIR LOOP HVAC ZONE SPLITTER 1,NODE 21,NODE 23,SYS_4_PSZ_ALL_ST=WHOLEBUILDING_FL=STORY 1_SCH=A
! <#Nodes on Supply Air Path>,<Number of Nodes>
! <Supply Air Path Node>,<Node Type>,<Node Count>,<Node Name>,<AirLoopHVAC Name>
#Nodes on Supply Air Path,2
   Supply Air Path Node,Inlet Node,1,NODE 21,SYS_4_PSZ_ALL_ST=WHOLEBUILDING_FL=STORY 1_SCH=A
   Supply Air Path Node,Outlet Node,2,NODE 23,SYS_4_PSZ_ALL_ST=WHOLEBUILDING_FL=STORY 1_SCH=A
 Supply Air Path,4,SYS_4_PSZ_ALL_ST=WHOLEBUILDING_FL=STORY 1_SCH=E NODE 33 SUPPLY PATH,SYS_4_PSZ_ALL_ST=WHOLEBUILDING_FL=STORY 1_SCH=E
   #Components on Supply Air Path,1
   Supply Air Path Component,1,AIRLOOPHVAC:ZONESPLITTER,AIR LOOP HVAC ZONE SPLITTER 2,SYS_4_PSZ_ALL_ST=WHOLEBUILDING_FL=STORY 1_SCH=E
     #Outlet Nodes on Supply Air Path Component,1
     Supply Air Path Component Nodes,1,AIRLOOPHVAC:ZONESPLITTER,AIR LOOP HVAC ZONE SPLITTER 2,NODE 33,NODE 35,SYS_4_PSZ_ALL_ST=WHOLEBUILDING_FL=STORY 1_SCH=E
! <#Nodes on Supply Air Path>,<Number of Nodes>
! <Supply Air Path Node>,<Node Type>,<Node Count>,<Node Name>,<AirLoopHVAC Name>
#Nodes on Supply Air Path,2
   Supply Air Path Node,Inlet Node,1,NODE 33,SYS_4_PSZ_ALL_ST=WHOLEBUILDING_FL=STORY 1_SCH=E
   Supply Air Path Node,Outlet Node,2,NODE 35,SYS_4_PSZ_ALL_ST=WHOLEBUILDING_FL=STORY 1_SCH=E
 Supply Air Path,5,SYS_4_PSZ_ALL_ST=WHOLEBUILDING_FL=STORY 1_SCH=E 1 NODE 46 SUPPLY PATH,SYS_4_PSZ_ALL_ST=WHOLEBUILDING_FL=STORY 1_SCH=E 1
   #Components on Supply Air Path,1
   Supply Air Path Component,1,AIRLOOPHVAC:ZONESPLITTER,AIR LOOP HVAC ZONE SPLITTER 3,SYS_4_PSZ_ALL_ST=WHOLEBUILDING_FL=STORY 1_SCH=E 1
     #Outlet Nodes on Supply Air Path Component,1
     Supply Air Path Component Nodes,1,AIRLOOPHVAC:ZONESPLITTER,AIR LOOP HVAC ZONE SPLITTER 3,NODE 46,NODE 48,SYS_4_PSZ_ALL_ST=WHOLEBUILDING_FL=STORY 1_SCH=E 1
! <#Nodes on Supply Air Path>,<Number of Nodes>
! <Supply Air Path Node>,<Node Type>,<Node Count>,<Node Name>,<AirLoopHVAC Name>
#Nodes on Supply Air Path,2
   Supply Air Path Node,Inlet Node,1,NODE 46,SYS_4_PSZ_ALL_ST=WHOLEBUILDING_FL=STORY 1_SCH=E 1
   Supply Air Path Node,Outlet Node,2,NODE 48,SYS_4_PSZ_ALL_ST=WHOLEBUILDING_FL=STORY 1_SCH=E 1
! ===============================================================
! <#Return Air Paths>,<Number of Return Air Paths>
 #Return Air Paths,5
! <Return Air Path>,<Return Air Path Count>,<Return Air Path Name>,<AirLoopHVAC Name>
! <#Components on Return Air Path>,<Number of Components>
! <Return Air Path Component>,<Component Count>,<Component Type>,<Component Name>,<AirLoopHVAC Name>
! <#Inlet Nodes on Return Air Path Component>,<Number of Nodes>
! <Return Air Path Component Nodes>,<Node Count>,<Component Type>,<Component Name>,<Inlet Node Name>,<Outlet Node Name>,<AirLoopHVAC Name>
 Return Air Path,1,SYS_2_MAKE-UP AIR UNIT RETURN PATH,SYS_2_MAKE-UP AIR UNIT
   #Components on Return Air Path,1
   Return Air Path Component,1,AIRLOOPHVAC:ZONEMIXER,AIR LOOP HVAC ZONE MIXER 4,SYS_2_MAKE-UP AIR UNIT
     #Inlet Nodes on Return Air Path Component,1
     Return Air Path Component Nodes,1,AIRLOOPHVAC:ZONEMIXER,AIR LOOP HVAC ZONE MIXER 4,NODE 99,NODE 87,SYS_2_MAKE-UP AIR UNIT
! <#Nodes on Return Air Path>,<Number of Nodes>
! <Return Air Path Node>,<Node Type>,<Node Count>,<Node Name>,<AirLoopHVAC Name>
   #Nodes on Return Air Path,2
   Return Air Path Node,Outlet Node,1,NODE 87,SYS_2_MAKE-UP AIR UNIT
   Return Air Path Node,Inlet Node,2,NODE 99,SYS_2_MAKE-UP AIR UNIT
 Return Air Path,2,SYS_3_PSZ ALL_ST=WHOLEBUILDING_FL=STORY 1_SCH=A 2 RETURN PATH,SYS_3_PSZ ALL_ST=WHOLEBUILDING_FL=STORY 1_SCH=A 2
   #Components on Return Air Path,1
   Return Air Path Component,1,AIRLOOPHVAC:ZONEMIXER,AIR LOOP HVAC ZONE MIXER 5,SYS_3_PSZ ALL_ST=WHOLEBUILDING_FL=STORY 1_SCH=A 2
     #Inlet Nodes on Return Air Path Component,1
     Return Air Path Component Nodes,1,AIRLOOPHVAC:ZONEMIXER,AIR LOOP HVAC ZONE MIXER 5,NODE 110,NODE 103,SYS_3_PSZ ALL_ST=WHOLEBUILDING_FL=STORY 1_SCH=A 2
! <#Nodes on Return Air Path>,<Number of Nodes>
! <Return Air Path Node>,<Node Type>,<Node Count>,<Node Name>,<AirLoopHVAC Name>
   #Nodes on Return Air Path,2
   Return Air Path Node,Outlet Node,1,NODE 103,SYS_3_PSZ ALL_ST=WHOLEBUILDING_FL=STORY 1_SCH=A 2
   Return Air Path Node,Inlet Node,2,NODE 110,SYS_3_PSZ ALL_ST=WHOLEBUILDING_FL=STORY 1_SCH=A 2
 Return Air Path,3,SYS_4_PSZ_ALL_ST=WHOLEBUILDING_FL=STORY 1_SCH=A RETURN PATH,SYS_4_PSZ_ALL_ST=WHOLEBUILDING_FL=STORY 1_SCH=A
   #Components on Return Air Path,1
   Return Air Path Component,1,AIRLOOPHVAC:ZONEMIXER,AIR LOOP HVAC ZONE MIXER 1,SYS_4_PSZ_ALL_ST=WHOLEBUILDING_FL=STORY 1_SCH=A
     #Inlet Nodes on Return Air Path Component,1
     Return Air Path Component Nodes,1,AIRLOOPHVAC:ZONEMIXER,AIR LOOP HVAC ZONE MIXER 1,NODE 29,NODE 22,SYS_4_PSZ_ALL_ST=WHOLEBUILDING_FL=STORY 1_SCH=A
! <#Nodes on Return Air Path>,<Number of Nodes>
! <Return Air Path Node>,<Node Type>,<Node Count>,<Node Name>,<AirLoopHVAC Name>
   #Nodes on Return Air Path,2
   Return Air Path Node,Outlet Node,1,NODE 22,SYS_4_PSZ_ALL_ST=WHOLEBUILDING_FL=STORY 1_SCH=A
   Return Air Path Node,Inlet Node,2,NODE 29,SYS_4_PSZ_ALL_ST=WHOLEBUILDING_FL=STORY 1_SCH=A
 Return Air Path,4,SYS_4_PSZ_ALL_ST=WHOLEBUILDING_FL=STORY 1_SCH=E RETURN PATH,SYS_4_PSZ_ALL_ST=WHOLEBUILDING_FL=STORY 1_SCH=E
   #Components on Return Air Path,1
   Return Air Path Component,1,AIRLOOPHVAC:ZONEMIXER,AIR LOOP HVAC ZONE MIXER 2,SYS_4_PSZ_ALL_ST=WHOLEBUILDING_FL=STORY 1_SCH=E
     #Inlet Nodes on Return Air Path Component,1
     Return Air Path Component Nodes,1,AIRLOOPHVAC:ZONEMIXER,AIR LOOP HVAC ZONE MIXER 2,NODE 41,NODE 34,SYS_4_PSZ_ALL_ST=WHOLEBUILDING_FL=STORY 1_SCH=E
! <#Nodes on Return Air Path>,<Number of Nodes>
! <Return Air Path Node>,<Node Type>,<Node Count>,<Node Name>,<AirLoopHVAC Name>
   #Nodes on Return Air Path,2
   Return Air Path Node,Outlet Node,1,NODE 34,SYS_4_PSZ_ALL_ST=WHOLEBUILDING_FL=STORY 1_SCH=E
   Return Air Path Node,Inlet Node,2,NODE 41,SYS_4_PSZ_ALL_ST=WHOLEBUILDING_FL=STORY 1_SCH=E
 Return Air Path,5,SYS_4_PSZ_ALL_ST=WHOLEBUILDING_FL=STORY 1_SCH=E 1 RETURN PATH,SYS_4_PSZ_ALL_ST=WHOLEBUILDING_FL=STORY 1_SCH=E 1
   #Components on Return Air Path,1
   Return Air Path Component,1,AIRLOOPHVAC:ZONEMIXER,AIR LOOP HVAC ZONE MIXER 3,SYS_4_PSZ_ALL_ST=WHOLEBUILDING_FL=STORY 1_SCH=E 1
     #Inlet Nodes on Return Air Path Component,1
     Return Air Path Component Nodes,1,AIRLOOPHVAC:ZONEMIXER,AIR LOOP HVAC ZONE MIXER 3,NODE 54,NODE 47,SYS_4_PSZ_ALL_ST=WHOLEBUILDING_FL=STORY 1_SCH=E 1
! <#Nodes on Return Air Path>,<Number of Nodes>
! <Return Air Path Node>,<Node Type>,<Node Count>,<Node Name>,<AirLoopHVAC Name>
   #Nodes on Return Air Path,2
   Return Air Path Node,Outlet Node,1,NODE 47,SYS_4_PSZ_ALL_ST=WHOLEBUILDING_FL=STORY 1_SCH=E 1
   Return Air Path Node,Inlet Node,2,NODE 54,SYS_4_PSZ_ALL_ST=WHOLEBUILDING_FL=STORY 1_SCH=E 1
! ===============================================================
! #Outdoor Air Nodes,<Number of Outdoor Air Nodes>
 #Outdoor Air Nodes,7
! <Outdoor Air Node>,<NodeNumber>,<Node Name>
 Outdoor Air Node,139,ZONE HVAC FOUR PIPE FAN COIL 1 OA NODE
 Outdoor Air Node,140,NODE 89
 Outdoor Air Node,141,NODE 105
 Outdoor Air Node,142,NODE 24
 Outdoor Air Node,143,NODE 36
 Outdoor Air Node,144,NODE 49
 Outdoor Air Node,145,MODEL OUTDOOR AIR NODE
! ===============================================================
! <#Component Sets>,<Number of Component Sets>
 #Component Sets,79
! <Component Set>,<Component Set Count>,<Parent Object Type>,<Parent Object Name>,<Component Type>,<Component Name>,<Inlet Node ID>,<Outlet Node ID>,<Description>
 Component Set,1,BRANCH,SYS_2_MAKE-UP AIR UNIT MAIN BRANCH,AIRLOOPHVAC:OUTDOORAIRSYSTEM,AIR LOOP HVAC OUTDOOR AIR SYSTEM 4,NODE 84,NODE 93,Air Nodes
 Component Set,2,BRANCH,SYS_2_MAKE-UP AIR UNIT MAIN BRANCH,COILSYSTEM:COOLING:DX,COIL COOLING DX SINGLE SPEED 4 44KBTU/HR 14.0SEER COILSYSTEM,NODE 93,NODE 92,Air Nodes
 Component Set,3,BRANCH,SYS_2_MAKE-UP AIR UNIT MAIN BRANCH,COIL:HEATING:FUEL,COIL HEATING GAS 4,NODE 92,NODE 91,Air Nodes
 Component Set,4,BRANCH,SYS_2_MAKE-UP AIR UNIT MAIN BRANCH,FAN:CONSTANTVOLUME,FAN CONSTANT VOLUME 4,NODE 91,NODE 85,Air Nodes
 Component Set,5,BRANCH,SYS_3_PSZ ALL_ST=WHOLEBUILDING_FL=STORY 1_SCH=A 2 MAIN BRANCH,AIRLOOPHVAC:OUTDOORAIRSYSTEM,AIR LOOP HVAC OUTDOOR AIR SYSTEM 5,NODE 100,NODE 109,Air Nodes
 Component Set,6,BRANCH,SYS_3_PSZ ALL_ST=WHOLEBUILDING_FL=STORY 1_SCH=A 2 MAIN BRANCH,COILSYSTEM:COOLING:DX,COIL COOLING DX SINGLE SPEED 5 159KBTU/HR 9.7EER COILSYSTEM,NODE 109,NODE 108,Air Nodes
 Component Set,7,BRANCH,SYS_3_PSZ ALL_ST=WHOLEBUILDING_FL=STORY 1_SCH=A 2 MAIN BRANCH,COIL:HEATING:FUEL,COIL HEATING GAS 5,NODE 108,NODE 107,Air Nodes
 Component Set,8,BRANCH,SYS_3_PSZ ALL_ST=WHOLEBUILDING_FL=STORY 1_SCH=A 2 MAIN BRANCH,FAN:CONSTANTVOLUME,FAN CONSTANT VOLUME 6,NODE 107,NODE 101,Air Nodes
 Component Set,9,BRANCH,SYS_4_PSZ_ALL_ST=WHOLEBUILDING_FL=STORY 1_SCH=A MAIN BRANCH,AIRLOOPHVAC:OUTDOORAIRSYSTEM,AIR LOOP HVAC OUTDOOR AIR SYSTEM 1,NODE 19,NODE 28,Air Nodes
 Component Set,10,BRANCH,SYS_4_PSZ_ALL_ST=WHOLEBUILDING_FL=STORY 1_SCH=A MAIN BRANCH,COILSYSTEM:COOLING:DX,COIL COOLING DX SINGLE SPEED 1 60KBTU/HR 14.0SEER COILSYSTEM,NODE 28,NODE 27,Air Nodes
 Component Set,11,BRANCH,SYS_4_PSZ_ALL_ST=WHOLEBUILDING_FL=STORY 1_SCH=A MAIN BRANCH,COIL:HEATING:FUEL,COIL HEATING GAS 1,NODE 27,NODE 26,Air Nodes
 Component Set,12,BRANCH,SYS_4_PSZ_ALL_ST=WHOLEBUILDING_FL=STORY 1_SCH=A MAIN BRANCH,FAN:CONSTANTVOLUME,FAN CONSTANT VOLUME 1,NODE 26,NODE 20,Air Nodes
 Component Set,13,BRANCH,SYS_4_PSZ_ALL_ST=WHOLEBUILDING_FL=STORY 1_SCH=E MAIN BRANCH,AIRLOOPHVAC:OUTDOORAIRSYSTEM,AIR LOOP HVAC OUTDOOR AIR SYSTEM 2,NODE 31,NODE 40,Air Nodes
 Component Set,14,BRANCH,SYS_4_PSZ_ALL_ST=WHOLEBUILDING_FL=STORY 1_SCH=E MAIN BRANCH,COILSYSTEM:COOLING:DX,COIL COOLING DX SINGLE SPEED 2 139KBTU/HR 9.7EER COILSYSTEM,NODE 40,NODE 39,Air Nodes
 Component Set,15,BRANCH,SYS_4_PSZ_ALL_ST=WHOLEBUILDING_FL=STORY 1_SCH=E MAIN BRANCH,COIL:HEATING:FUEL,COIL HEATING GAS 2,NODE 39,NODE 38,Air Nodes
 Component Set,16,BRANCH,SYS_4_PSZ_ALL_ST=WHOLEBUILDING_FL=STORY 1_SCH=E MAIN BRANCH,FAN:CONSTANTVOLUME,FAN CONSTANT VOLUME 2,NODE 38,NODE 32,Air Nodes
 Component Set,17,BRANCH,SYS_4_PSZ_ALL_ST=WHOLEBUILDING_FL=STORY 1_SCH=E 1 MAIN BRANCH,AIRLOOPHVAC:OUTDOORAIRSYSTEM,AIR LOOP HVAC OUTDOOR AIR SYSTEM 3,NODE 44,NODE 53,Air Nodes
 Component Set,18,BRANCH,SYS_4_PSZ_ALL_ST=WHOLEBUILDING_FL=STORY 1_SCH=E 1 MAIN BRANCH,COILSYSTEM:COOLING:DX,COIL COOLING DX SINGLE SPEED 3 139KBTU/HR 9.7EER COILSYSTEM,NODE 53,NODE 52,Air Nodes
 Component Set,19,BRANCH,SYS_4_PSZ_ALL_ST=WHOLEBUILDING_FL=STORY 1_SCH=E 1 MAIN BRANCH,COIL:HEATING:FUEL,COIL HEATING GAS 3,NODE 52,NODE 51,Air Nodes
 Component Set,20,BRANCH,SYS_4_PSZ_ALL_ST=WHOLEBUILDING_FL=STORY 1_SCH=E 1 MAIN BRANCH,FAN:CONSTANTVOLUME,FAN CONSTANT VOLUME 3,NODE 51,NODE 45,Air Nodes
 Component Set,21,BRANCH,CHILLED WATER LOOP SUPPLY INLET BRANCH,PUMP:CONSTANTSPEED,PUMP CONSTANT SPEED 1,NODE 57,NODE 63,Water Nodes
 Component Set,22,BRANCH,CHILLED WATER LOOP SUPPLY BRANCH 1,CHILLER:ELECTRIC:EIR,PRIMARY CHILLER WATERCOOLED SCROLL 3TONS 0.8KW/TON,NODE 59,NODE 64,Chilled Water Nodes
 Component Set,23,BRANCH,CHILLED WATER LOOP SUPPLY BRANCH 2,CHILLER:ELECTRIC:EIR,SECONDARY CHILLER WATERCOOLED SCROLL 0TONS 0.8KW/TON,NODE 65,NODE 66,Chilled Water Nodes
 Component Set,24,BRANCH,CHILLED WATER LOOP SUPPLY BRANCH 3,PIPE:ADIABATIC,PIPE ADIABATIC 3,NODE 67,NODE 68,Pipe Nodes
 Component Set,25,BRANCH,CHILLED WATER LOOP SUPPLY OUTLET BRANCH,PIPE:ADIABATIC,PIPE ADIABATIC 4,NODE 69,NODE 58,Pipe Nodes
 Component Set,26,BRANCH,CHILLED WATER LOOP DEMAND INLET BRANCH,PIPE:ADIABATIC,CHILLED WATER LOOP DEMAND INLET PIPE,NODE 60,CHILLED WATER LOOP DEMAND INLET PIPE NODE,Pipe Nodes
 Component Set,27,BRANCH,CHILLED WATER LOOP DEMAND BRANCH 1,COIL:COOLING:WATER,COIL COOLING WATER 1,NODE 62,NODE 96,Water Nodes
 Component Set,28,BRANCH,CHILLED WATER LOOP DEMAND BYPASS BRANCH,PIPE:ADIABATIC,CHILLED WATER LOOP DEMAND BYPASS PIPE,CHILLED WATER LOOP DEMAND BYPASS PIPE INLET NODE,CHILLED WATER LOOP DEMAND BYPASS PIPE OUTLET NODE,Pipe Nodes
 Component Set,29,BRANCH,CHILLED WATER LOOP DEMAND OUTLET BRANCH,PIPE:ADIABATIC,CHILLED WATER LOOP DEMAND OUTLET PIPE,CHILLED WATER LOOP DEMAND OUTLET PIPE NODE,NODE 61,Pipe Nodes
 Component Set,30,BRANCH,CONDENSER WATER LOOP SUPPLY INLET BRANCH,PUMP:CONSTANTSPEED,PUMP CONSTANT SPEED 2,NODE 70,NODE 76,Water Nodes
 Component Set,31,BRANCH,CONDENSER WATER LOOP SUPPLY BRANCH 1,COOLINGTOWER:SINGLESPEED,COOLING TOWER SINGLE SPEED 1,NODE 72,NODE 77,Chilled Water Nodes
 Component Set,32,BRANCH,CONDENSER WATER LOOP SUPPLY BRANCH 2,PIPE:ADIABATIC,PIPE ADIABATIC 5,NODE 78,NODE 79,Pipe Nodes
 Component Set,33,BRANCH,CONDENSER WATER LOOP SUPPLY OUTLET BRANCH,PIPE:ADIABATIC,PIPE ADIABATIC 6,NODE 80,NODE 71,Pipe Nodes
 Component Set,34,BRANCH,CONDENSER WATER LOOP DEMAND INLET BRANCH,PIPE:ADIABATIC,CONDENSER WATER LOOP DEMAND INLET PIPE,NODE 73,CONDENSER WATER LOOP DEMAND INLET PIPE NODE,Pipe Nodes
 Component Set,35,BRANCH,CONDENSER WATER LOOP DEMAND BRANCH 1,CHILLER:ELECTRIC:EIR,PRIMARY CHILLER WATERCOOLED SCROLL 3TONS 0.8KW/TON,NODE 75,NODE 81,Condenser Water Nodes
 Component Set,36,BRANCH,CONDENSER WATER LOOP DEMAND BRANCH 2,CHILLER:ELECTRIC:EIR,SECONDARY CHILLER WATERCOOLED SCROLL 0TONS 0.8KW/TON,NODE 82,NODE 83,Condenser Water Nodes
 Component Set,37,BRANCH,CONDENSER WATER LOOP DEMAND BYPASS BRANCH,PIPE:ADIABATIC,CONDENSER WATER LOOP DEMAND BYPASS PIPE,CONDENSER WATER LOOP DEMAND BYPASS PIPE INLET NODE,CONDENSER WATER LOOP DEMAND BYPASS PIPE OUTLET NODE,Pipe Nodes
 Component Set,38,BRANCH,CONDENSER WATER LOOP DEMAND OUTLET BRANCH,PIPE:ADIABATIC,CONDENSER WATER LOOP DEMAND OUTLET PIPE,CONDENSER WATER LOOP DEMAND OUTLET PIPE NODE,NODE 74,Pipe Nodes
 Component Set,39,BRANCH,HOT WATER LOOP SUPPLY INLET BRANCH,PUMP:VARIABLESPEED,PUMP VARIABLE SPEED 1,NODE 2,NODE 11,Water Nodes
 Component Set,40,BRANCH,HOT WATER LOOP SUPPLY BRANCH 1,BOILER:HOTWATER,PRIMARY BOILER 261KBTU/HR 0.85 AFUE,NODE 5,NODE 12,Hot Water Nodes
 Component Set,41,BRANCH,HOT WATER LOOP SUPPLY BRANCH 2,BOILER:HOTWATER,SECONDARY BOILER 0KBTU/HR 0.85 AFUE,NODE 14,NODE 15,Hot Water Nodes
 Component Set,42,BRANCH,HOT WATER LOOP SUPPLY BRANCH 3,PIPE:ADIABATIC,PIPE ADIABATIC 1,NODE 16,NODE 17,Pipe Nodes
 Component Set,43,BRANCH,HOT WATER LOOP SUPPLY OUTLET BRANCH,PIPE:ADIABATIC,PIPE ADIABATIC 2,NODE 18,NODE 3,Pipe Nodes
 Component Set,44,BRANCH,HOT WATER LOOP DEMAND INLET BRANCH,PIPE:ADIABATIC,HOT WATER LOOP DEMAND INLET PIPE,NODE 6,HOT WATER LOOP DEMAND INLET PIPE NODE,Pipe Nodes
 Component Set,45,BRANCH,HOT WATER LOOP DEMAND BRANCH 1,ZONEHVAC:BASEBOARD:CONVECTIVE:WATER,ZONE HVAC BASEBOARD CONVECTIVE WATER 1,NODE 9,NODE 30,Hot Water Nodes
 Component Set,46,BRANCH,HOT WATER LOOP DEMAND BRANCH 2,ZONEHVAC:BASEBOARD:CONVECTIVE:WATER,ZONE HVAC BASEBOARD CONVECTIVE WATER 2,NODE 42,NODE 43,Hot Water Nodes
 Component Set,47,BRANCH,HOT WATER LOOP DEMAND BRANCH 3,ZONEHVAC:BASEBOARD:CONVECTIVE:WATER,ZONE HVAC BASEBOARD CONVECTIVE WATER 3,NODE 55,NODE 56,Hot Water Nodes
 Component Set,48,BRANCH,HOT WATER LOOP DEMAND BRANCH 4,COIL:HEATING:WATER,COIL HEATING WATER 1,NODE 94,NODE 95,Water Nodes
 Component Set,49,BRANCH,HOT WATER LOOP DEMAND BRANCH 5,ZONEHVAC:BASEBOARD:CONVECTIVE:WATER,ZONE HVAC BASEBOARD CONVECTIVE WATER 4,NODE 111,NODE 112,Hot Water Nodes
 Component Set,50,BRANCH,HOT WATER LOOP DEMAND BYPASS BRANCH,PIPE:ADIABATIC,HOT WATER LOOP DEMAND BYPASS PIPE,HOT WATER LOOP DEMAND BYPASS PIPE INLET NODE,HOT WATER LOOP DEMAND BYPASS PIPE OUTLET NODE,Pipe Nodes
 Component Set,51,BRANCH,HOT WATER LOOP DEMAND OUTLET BRANCH,PIPE:ADIABATIC,HOT WATER LOOP DEMAND OUTLET PIPE,HOT WATER LOOP DEMAND OUTLET PIPE NODE,NODE 8,Pipe Nodes
 Component Set,52,BRANCH,MAIN SERVICE WATER LOOP SUPPLY INLET BRANCH,PUMP:CONSTANTSPEED,SERVICE WATER LOOP PUMP,NODE 113,NODE 119,Water Nodes
 Component Set,53,BRANCH,MAIN SERVICE WATER LOOP SUPPLY BRANCH 1,WATERHEATER:MIXED,73GAL NATURALGAS WATER HEATER - 49KBTU/HR 0.82 THERM EFF,NODE 115,NODE 120,Use Side Water Nodes
 Component Set,54,BRANCH,MAIN SERVICE WATER LOOP SUPPLY BRANCH 2,PIPE:ADIABATIC,PIPE ADIABATIC 7,NODE 121,NODE 122,Pipe Nodes
 Component Set,55,BRANCH,MAIN SERVICE WATER LOOP SUPPLY OUTLET BRANCH,PIPE:ADIABATIC,PIPE ADIABATIC 9,NODE 124,NODE 114,Pipe Nodes
 Component Set,56,BRANCH,MAIN SERVICE WATER LOOP DEMAND INLET BRANCH,PIPE:ADIABATIC,PIPE ADIABATIC 10,NODE 116,NODE 125,Pipe Nodes
 Component Set,57,BRANCH,MAIN SERVICE WATER LOOP DEMAND BRANCH 1,PIPE:ADIABATIC,PIPE ADIABATIC 8,NODE 118,NODE 123,Pipe Nodes
 Component Set,58,BRANCH,MAIN SERVICE WATER LOOP DEMAND BRANCH 2,WATERUSE:CONNECTIONS,WATER USE CONNECTIONS 1,NODE 127,NODE 128,DHW Nodes
 Component Set,59,BRANCH,MAIN SERVICE WATER LOOP DEMAND BRANCH 3,WATERUSE:CONNECTIONS,WATER USE CONNECTIONS 2,NODE 129,NODE 130,DHW Nodes
 Component Set,60,BRANCH,MAIN SERVICE WATER LOOP DEMAND BRANCH 4,WATERUSE:CONNECTIONS,WATER USE CONNECTIONS 3,NODE 131,NODE 132,DHW Nodes
 Component Set,61,BRANCH,MAIN SERVICE WATER LOOP DEMAND BRANCH 5,WATERUSE:CONNECTIONS,WATER USE CONNECTIONS 4,NODE 133,NODE 134,DHW Nodes
 Component Set,62,BRANCH,MAIN SERVICE WATER LOOP DEMAND BYPASS BRANCH,PIPE:ADIABATIC,MAIN SERVICE WATER LOOP DEMAND BYPASS PIPE,MAIN SERVICE WATER LOOP DEMAND BYPASS PIPE INLET NODE,MAIN SERVICE WATER LOOP DEMAND BYPASS PIPE OUTLET NODE,Pipe Nodes
 Component Set,63,BRANCH,MAIN SERVICE WATER LOOP DEMAND OUTLET BRANCH,PIPE:ADIABATIC,PIPE ADIABATIC 11,NODE 126,NODE 117,Pipe Nodes
 Component Set,64,ZONEHVAC:FOURPIPEFANCOIL,ZONE HVAC FOUR PIPE FAN COIL 1,OUTDOORAIR:MIXER,ZONE HVAC FOUR PIPE FAN COIL 1 OA MIXER,ZONE HVAC FOUR PIPE FAN COIL 1 OA NODE,ZONE HVAC FOUR PIPE FAN COIL 1 MIXED AIR NODE,Air Nodes
 Component Set,65,AIRLOOPHVAC:OUTDOORAIRSYSTEM,AIR LOOP HVAC OUTDOOR AIR SYSTEM 4,OUTDOORAIR:MIXER,AIR LOOP HVAC OUTDOOR AIR SYSTEM 4 OUTDOOR AIR MIXER,NODE 89,NODE 93,Air Nodes
 Component Set,66,AIRLOOPHVAC:OUTDOORAIRSYSTEM,AIR LOOP HVAC OUTDOOR AIR SYSTEM 5,OUTDOORAIR:MIXER,AIR LOOP HVAC OUTDOOR AIR SYSTEM 5 OUTDOOR AIR MIXER,NODE 105,NODE 109,Air Nodes
 Component Set,67,AIRLOOPHVAC:OUTDOORAIRSYSTEM,AIR LOOP HVAC OUTDOOR AIR SYSTEM 1,OUTDOORAIR:MIXER,AIR LOOP HVAC OUTDOOR AIR SYSTEM 1 OUTDOOR AIR MIXER,NODE 24,NODE 28,Air Nodes
 Component Set,68,AIRLOOPHVAC:OUTDOORAIRSYSTEM,AIR LOOP HVAC OUTDOOR AIR SYSTEM 2,OUTDOORAIR:MIXER,AIR LOOP HVAC OUTDOOR AIR SYSTEM 2 OUTDOOR AIR MIXER,NODE 136,NODE 40,Air Nodes
 Component Set,69,AIRLOOPHVAC:OUTDOORAIRSYSTEM,AIR LOOP HVAC OUTDOOR AIR SYSTEM 3,OUTDOORAIR:MIXER,AIR LOOP HVAC OUTDOOR AIR SYSTEM 3 OUTDOOR AIR MIXER,NODE 138,NODE 53,Air Nodes
 Component Set,70,ZONEHVAC:FOURPIPEFANCOIL,ZONE HVAC FOUR PIPE FAN COIL 1,COIL:HEATING:WATER,COIL HEATING WATER 1,ZONE HVAC FOUR PIPE FAN COIL 1 COOLING COIL OUTLET NODE,NODE 98,Air Nodes
 Component Set,71,ZONEHVAC:FOURPIPEFANCOIL,ZONE HVAC FOUR PIPE FAN COIL 1,COIL:COOLING:WATER,COIL COOLING WATER 1,ZONE HVAC FOUR PIPE FAN COIL 1 FAN OUTLET NODE,ZONE HVAC FOUR PIPE FAN COIL 1 COOLING COIL OUTLET NODE,Air Nodes
 Component Set,72,ZONEHVAC:FOURPIPEFANCOIL,ZONE HVAC FOUR PIPE FAN COIL 1,FAN:CONSTANTVOLUME,FAN CONSTANT VOLUME 5,ZONE HVAC FOUR PIPE FAN COIL 1 MIXED AIR NODE,ZONE HVAC FOUR PIPE FAN COIL 1 FAN OUTLET NODE,Air Nodes
 Component Set,73,AIRLOOPHVAC:OUTDOORAIRSYSTEM,AIR LOOP HVAC OUTDOOR AIR SYSTEM 2,HEATEXCHANGER:AIRTOAIR:SENSIBLEANDLATENT,SYS_4_PSZ_ALL_ST=WHOLEBUILDING_FL=STORY 1_SCH=E ERV,NODE 36,NODE 136,Process Air Nodes
 Component Set,74,AIRLOOPHVAC:OUTDOORAIRSYSTEM,AIR LOOP HVAC OUTDOOR AIR SYSTEM 3,HEATEXCHANGER:AIRTOAIR:SENSIBLEANDLATENT,SYS_4_PSZ_ALL_ST=WHOLEBUILDING_FL=STORY 1_SCH=E 1 ERV,NODE 49,NODE 138,Process Air Nodes
 Component Set,75,COILSYSTEM:COOLING:DX,COIL COOLING DX SINGLE SPEED 4 44KBTU/HR 14.0SEER COILSYSTEM,COIL:COOLING:DX:SINGLESPEED,COIL COOLING DX SINGLE SPEED 4 44KBTU/HR 14.0SEER,NODE 93,NODE 92,Air Nodes
 Component Set,76,COILSYSTEM:COOLING:DX,COIL COOLING DX SINGLE SPEED 5 159KBTU/HR 9.7EER COILSYSTEM,COIL:COOLING:DX:SINGLESPEED,COIL COOLING DX SINGLE SPEED 5 159KBTU/HR 9.7EER,NODE 109,NODE 108,Air Nodes
 Component Set,77,COILSYSTEM:COOLING:DX,COIL COOLING DX SINGLE SPEED 1 60KBTU/HR 14.0SEER COILSYSTEM,COIL:COOLING:DX:SINGLESPEED,COIL COOLING DX SINGLE SPEED 1 60KBTU/HR 14.0SEER,NODE 28,NODE 27,Air Nodes
 Component Set,78,COILSYSTEM:COOLING:DX,COIL COOLING DX SINGLE SPEED 2 139KBTU/HR 9.7EER COILSYSTEM,COIL:COOLING:DX:SINGLESPEED,COIL COOLING DX SINGLE SPEED 2 139KBTU/HR 9.7EER,NODE 40,NODE 39,Air Nodes
 Component Set,79,COILSYSTEM:COOLING:DX,COIL COOLING DX SINGLE SPEED 3 139KBTU/HR 9.7EER COILSYSTEM,COIL:COOLING:DX:SINGLESPEED,COIL COOLING DX SINGLE SPEED 3 139KBTU/HR 9.7EER,NODE 53,NODE 52,Air Nodes
! ===============================================================
! <# Plant Loops>,<Number of Plant Loops>
 #Plant Loops,4
! <Plant Loop>,<Plant Loop Name>,<Loop Type>,<Inlet Node Name>,<Outlet Node Name>,<Branch List>,<Connector List>
! <Plant Loop Connector>,<Connector Type>,<Connector Name>,<Loop Name>,<Loop Type>,<Number of Inlets/Outlets>
! <Plant Loop Connector Branches>,<Connector Node Count>,<Connector Type>,<Connector Name>,<Inlet Branch>,<Outlet Branch>,<Loop Name>,<Loop Type>
! <Plant Loop Connector Nodes>,<Connector Node Count>,<Connector Type>,<Connector Name>,<Inlet Node>,<Outlet Node>,<Loop Name>,<Loop Type>
! <Plant Loop Supply Connection>,<Plant Loop Name>,<Supply Side Outlet Node Name>,<Demand Side Inlet Node Name>
! <Plant Loop Return Connection>,<Plant Loop Name>,<Demand Side Outlet Node Name>,<Supply Side Inlet Node Name>
 Plant Loop,CHILLED WATER LOOP,Demand,NODE 60,NODE 61,CHILLED WATER LOOP DEMAND BRANCHES,CHILLED WATER LOOP DEMAND CONNECTOR LIST
   Plant Loop Connector,Splitter,CHILLED WATER LOOP DEMAND SPLITTER,CHILLED WATER LOOP,Demand,2
     Plant Loop Connector Branches,1,Splitter,CHILLED WATER LOOP DEMAND SPLITTER,CHILLED WATER LOOP DEMAND INLET BRANCH,CHILLED WATER LOOP DEMAND BRANCH 1,CHILLED WATER LOOP,Demand
     Plant Loop Connector Nodes,   1,Splitter,CHILLED WATER LOOP DEMAND SPLITTER,CHILLED WATER LOOP DEMAND INLET PIPE NODE,NODE 62,CHILLED WATER LOOP,Demand
     Plant Loop Connector Branches,2,Splitter,CHILLED WATER LOOP DEMAND SPLITTER,CHILLED WATER LOOP DEMAND INLET BRANCH,CHILLED WATER LOOP DEMAND BYPASS BRANCH,CHILLED WATER LOOP,Demand
     Plant Loop Connector Nodes,   2,Splitter,CHILLED WATER LOOP DEMAND SPLITTER,CHILLED WATER LOOP DEMAND INLET PIPE NODE,CHILLED WATER LOOP DEMAND BYPASS PIPE INLET NODE,CHILLED WATER LOOP,Demand
   Plant Loop Connector,Mixer,CHILLED WATER LOOP DEMAND MIXER,CHILLED WATER LOOP,Demand,2
     Plant Loop Connector Branches,1,Mixer,CHILLED WATER LOOP DEMAND MIXER,CHILLED WATER LOOP DEMAND BRANCH 1,CHILLED WATER LOOP DEMAND OUTLET BRANCH,CHILLED WATER LOOP,Demand
     Plant Loop Connector Nodes,   1,Mixer,CHILLED WATER LOOP DEMAND MIXER,NODE 96,CHILLED WATER LOOP DEMAND OUTLET PIPE NODE,CHILLED WATER LOOP,Demand
     Plant Loop Connector Branches,2,Mixer,CHILLED WATER LOOP DEMAND MIXER,CHILLED WATER LOOP DEMAND BYPASS BRANCH,CHILLED WATER LOOP DEMAND OUTLET BRANCH,CHILLED WATER LOOP,Demand
     Plant Loop Connector Nodes,   2,Mixer,CHILLED WATER LOOP DEMAND MIXER,CHILLED WATER LOOP DEMAND BYPASS PIPE OUTLET NODE,CHILLED WATER LOOP DEMAND OUTLET PIPE NODE,CHILLED WATER LOOP,Demand
 Plant Loop,CHILLED WATER LOOP,Supply,NODE 57,NODE 58,CHILLED WATER LOOP SUPPLY BRANCHES,CHILLED WATER LOOP SUPPLY CONNECTOR LIST
   Plant Loop Connector,Splitter,CHILLED WATER LOOP SUPPLY SPLITTER,CHILLED WATER LOOP,Supply,3
     Plant Loop Connector Branches,1,Splitter,CHILLED WATER LOOP SUPPLY SPLITTER,CHILLED WATER LOOP SUPPLY INLET BRANCH,CHILLED WATER LOOP SUPPLY BRANCH 1,CHILLED WATER LOOP,Supply
     Plant Loop Connector Nodes,   1,Splitter,CHILLED WATER LOOP SUPPLY SPLITTER,NODE 63,NODE 59,CHILLED WATER LOOP,Supply
     Plant Loop Connector Branches,2,Splitter,CHILLED WATER LOOP SUPPLY SPLITTER,CHILLED WATER LOOP SUPPLY INLET BRANCH,CHILLED WATER LOOP SUPPLY BRANCH 2,CHILLED WATER LOOP,Supply
     Plant Loop Connector Nodes,   2,Splitter,CHILLED WATER LOOP SUPPLY SPLITTER,NODE 63,NODE 65,CHILLED WATER LOOP,Supply
     Plant Loop Connector Branches,3,Splitter,CHILLED WATER LOOP SUPPLY SPLITTER,CHILLED WATER LOOP SUPPLY INLET BRANCH,CHILLED WATER LOOP SUPPLY BRANCH 3,CHILLED WATER LOOP,Supply
     Plant Loop Connector Nodes,   3,Splitter,CHILLED WATER LOOP SUPPLY SPLITTER,NODE 63,NODE 67,CHILLED WATER LOOP,Supply
   Plant Loop Connector,Mixer,CHILLED WATER LOOP SUPPLY MIXER,CHILLED WATER LOOP,Supply,3
     Plant Loop Connector Branches,1,Mixer,CHILLED WATER LOOP SUPPLY MIXER,CHILLED WATER LOOP SUPPLY BRANCH 1,CHILLED WATER LOOP SUPPLY OUTLET BRANCH,CHILLED WATER LOOP,Supply
     Plant Loop Connector Nodes,   1,Mixer,CHILLED WATER LOOP SUPPLY MIXER,NODE 64,NODE 69,CHILLED WATER LOOP,Supply
     Plant Loop Connector Branches,2,Mixer,CHILLED WATER LOOP SUPPLY MIXER,CHILLED WATER LOOP SUPPLY BRANCH 2,CHILLED WATER LOOP SUPPLY OUTLET BRANCH,CHILLED WATER LOOP,Supply
     Plant Loop Connector Nodes,   2,Mixer,CHILLED WATER LOOP SUPPLY MIXER,NODE 66,NODE 69,CHILLED WATER LOOP,Supply
     Plant Loop Connector Branches,3,Mixer,CHILLED WATER LOOP SUPPLY MIXER,CHILLED WATER LOOP SUPPLY BRANCH 3,CHILLED WATER LOOP SUPPLY OUTLET BRANCH,CHILLED WATER LOOP,Supply
     Plant Loop Connector Nodes,   3,Mixer,CHILLED WATER LOOP SUPPLY MIXER,NODE 68,NODE 69,CHILLED WATER LOOP,Supply
 Plant Loop Supply Connection,CHILLED WATER LOOP,NODE 58,NODE 60
 Plant Loop Return Connection,CHILLED WATER LOOP,NODE 61,NODE 57
 Plant Loop,CONDENSER WATER LOOP,Demand,NODE 73,NODE 74,CONDENSER WATER LOOP DEMAND BRANCHES,CONDENSER WATER LOOP DEMAND CONNECTOR LIST
   Plant Loop Connector,Splitter,CONDENSER WATER LOOP DEMAND SPLITTER,CONDENSER WATER LOOP,Demand,3
     Plant Loop Connector Branches,1,Splitter,CONDENSER WATER LOOP DEMAND SPLITTER,CONDENSER WATER LOOP DEMAND INLET BRANCH,CONDENSER WATER LOOP DEMAND BRANCH 1,CONDENSER WATER LOOP,Demand
     Plant Loop Connector Nodes,   1,Splitter,CONDENSER WATER LOOP DEMAND SPLITTER,CONDENSER WATER LOOP DEMAND INLET PIPE NODE,NODE 75,CONDENSER WATER LOOP,Demand
     Plant Loop Connector Branches,2,Splitter,CONDENSER WATER LOOP DEMAND SPLITTER,CONDENSER WATER LOOP DEMAND INLET BRANCH,CONDENSER WATER LOOP DEMAND BRANCH 2,CONDENSER WATER LOOP,Demand
     Plant Loop Connector Nodes,   2,Splitter,CONDENSER WATER LOOP DEMAND SPLITTER,CONDENSER WATER LOOP DEMAND INLET PIPE NODE,NODE 82,CONDENSER WATER LOOP,Demand
     Plant Loop Connector Branches,3,Splitter,CONDENSER WATER LOOP DEMAND SPLITTER,CONDENSER WATER LOOP DEMAND INLET BRANCH,CONDENSER WATER LOOP DEMAND BYPASS BRANCH,CONDENSER WATER LOOP,Demand
     Plant Loop Connector Nodes,   3,Splitter,CONDENSER WATER LOOP DEMAND SPLITTER,CONDENSER WATER LOOP DEMAND INLET PIPE NODE,CONDENSER WATER LOOP DEMAND BYPASS PIPE INLET NODE,CONDENSER WATER LOOP,Demand
   Plant Loop Connector,Mixer,CONDENSER WATER LOOP DEMAND MIXER,CONDENSER WATER LOOP,Demand,3
     Plant Loop Connector Branches,1,Mixer,CONDENSER WATER LOOP DEMAND MIXER,CONDENSER WATER LOOP DEMAND BRANCH 1,CONDENSER WATER LOOP DEMAND OUTLET BRANCH,CONDENSER WATER LOOP,Demand
     Plant Loop Connector Nodes,   1,Mixer,CONDENSER WATER LOOP DEMAND MIXER,NODE 81,CONDENSER WATER LOOP DEMAND OUTLET PIPE NODE,CONDENSER WATER LOOP,Demand
     Plant Loop Connector Branches,2,Mixer,CONDENSER WATER LOOP DEMAND MIXER,CONDENSER WATER LOOP DEMAND BRANCH 2,CONDENSER WATER LOOP DEMAND OUTLET BRANCH,CONDENSER WATER LOOP,Demand
     Plant Loop Connector Nodes,   2,Mixer,CONDENSER WATER LOOP DEMAND MIXER,NODE 83,CONDENSER WATER LOOP DEMAND OUTLET PIPE NODE,CONDENSER WATER LOOP,Demand
     Plant Loop Connector Branches,3,Mixer,CONDENSER WATER LOOP DEMAND MIXER,CONDENSER WATER LOOP DEMAND BYPASS BRANCH,CONDENSER WATER LOOP DEMAND OUTLET BRANCH,CONDENSER WATER LOOP,Demand
     Plant Loop Connector Nodes,   3,Mixer,CONDENSER WATER LOOP DEMAND MIXER,CONDENSER WATER LOOP DEMAND BYPASS PIPE OUTLET NODE,CONDENSER WATER LOOP DEMAND OUTLET PIPE NODE,CONDENSER WATER LOOP,Demand
 Plant Loop,CONDENSER WATER LOOP,Supply,NODE 70,NODE 71,CONDENSER WATER LOOP SUPPLY BRANCHES,CONDENSER WATER LOOP SUPPLY CONNECTOR LIST
   Plant Loop Connector,Splitter,CONDENSER WATER LOOP SUPPLY SPLITTER,CONDENSER WATER LOOP,Supply,2
     Plant Loop Connector Branches,1,Splitter,CONDENSER WATER LOOP SUPPLY SPLITTER,CONDENSER WATER LOOP SUPPLY INLET BRANCH,CONDENSER WATER LOOP SUPPLY BRANCH 1,CONDENSER WATER LOOP,Supply
     Plant Loop Connector Nodes,   1,Splitter,CONDENSER WATER LOOP SUPPLY SPLITTER,NODE 76,NODE 72,CONDENSER WATER LOOP,Supply
     Plant Loop Connector Branches,2,Splitter,CONDENSER WATER LOOP SUPPLY SPLITTER,CONDENSER WATER LOOP SUPPLY INLET BRANCH,CONDENSER WATER LOOP SUPPLY BRANCH 2,CONDENSER WATER LOOP,Supply
     Plant Loop Connector Nodes,   2,Splitter,CONDENSER WATER LOOP SUPPLY SPLITTER,NODE 76,NODE 78,CONDENSER WATER LOOP,Supply
   Plant Loop Connector,Mixer,CONDENSER WATER LOOP SUPPLY MIXER,CONDENSER WATER LOOP,Supply,2
     Plant Loop Connector Branches,1,Mixer,CONDENSER WATER LOOP SUPPLY MIXER,CONDENSER WATER LOOP SUPPLY BRANCH 1,CONDENSER WATER LOOP SUPPLY OUTLET BRANCH,CONDENSER WATER LOOP,Supply
     Plant Loop Connector Nodes,   1,Mixer,CONDENSER WATER LOOP SUPPLY MIXER,NODE 77,NODE 80,CONDENSER WATER LOOP,Supply
     Plant Loop Connector Branches,2,Mixer,CONDENSER WATER LOOP SUPPLY MIXER,CONDENSER WATER LOOP SUPPLY BRANCH 2,CONDENSER WATER LOOP SUPPLY OUTLET BRANCH,CONDENSER WATER LOOP,Supply
     Plant Loop Connector Nodes,   2,Mixer,CONDENSER WATER LOOP SUPPLY MIXER,NODE 79,NODE 80,CONDENSER WATER LOOP,Supply
 Plant Loop Supply Connection,CONDENSER WATER LOOP,NODE 71,NODE 73
 Plant Loop Return Connection,CONDENSER WATER LOOP,NODE 74,NODE 70
 Plant Loop,HOT WATER LOOP,Demand,NODE 6,NODE 8,HOT WATER LOOP DEMAND BRANCHES,HOT WATER LOOP DEMAND CONNECTOR LIST
   Plant Loop Connector,Splitter,HOT WATER LOOP DEMAND SPLITTER,HOT WATER LOOP,Demand,6
     Plant Loop Connector Branches,1,Splitter,HOT WATER LOOP DEMAND SPLITTER,HOT WATER LOOP DEMAND INLET BRANCH,HOT WATER LOOP DEMAND BRANCH 1,HOT WATER LOOP,Demand
     Plant Loop Connector Nodes,   1,Splitter,HOT WATER LOOP DEMAND SPLITTER,HOT WATER LOOP DEMAND INLET PIPE NODE,NODE 9,HOT WATER LOOP,Demand
     Plant Loop Connector Branches,2,Splitter,HOT WATER LOOP DEMAND SPLITTER,HOT WATER LOOP DEMAND INLET BRANCH,HOT WATER LOOP DEMAND BRANCH 2,HOT WATER LOOP,Demand
     Plant Loop Connector Nodes,   2,Splitter,HOT WATER LOOP DEMAND SPLITTER,HOT WATER LOOP DEMAND INLET PIPE NODE,NODE 42,HOT WATER LOOP,Demand
     Plant Loop Connector Branches,3,Splitter,HOT WATER LOOP DEMAND SPLITTER,HOT WATER LOOP DEMAND INLET BRANCH,HOT WATER LOOP DEMAND BRANCH 3,HOT WATER LOOP,Demand
     Plant Loop Connector Nodes,   3,Splitter,HOT WATER LOOP DEMAND SPLITTER,HOT WATER LOOP DEMAND INLET PIPE NODE,NODE 55,HOT WATER LOOP,Demand
     Plant Loop Connector Branches,4,Splitter,HOT WATER LOOP DEMAND SPLITTER,HOT WATER LOOP DEMAND INLET BRANCH,HOT WATER LOOP DEMAND BRANCH 4,HOT WATER LOOP,Demand
     Plant Loop Connector Nodes,   4,Splitter,HOT WATER LOOP DEMAND SPLITTER,HOT WATER LOOP DEMAND INLET PIPE NODE,NODE 94,HOT WATER LOOP,Demand
     Plant Loop Connector Branches,5,Splitter,HOT WATER LOOP DEMAND SPLITTER,HOT WATER LOOP DEMAND INLET BRANCH,HOT WATER LOOP DEMAND BRANCH 5,HOT WATER LOOP,Demand
     Plant Loop Connector Nodes,   5,Splitter,HOT WATER LOOP DEMAND SPLITTER,HOT WATER LOOP DEMAND INLET PIPE NODE,NODE 111,HOT WATER LOOP,Demand
     Plant Loop Connector Branches,6,Splitter,HOT WATER LOOP DEMAND SPLITTER,HOT WATER LOOP DEMAND INLET BRANCH,HOT WATER LOOP DEMAND BYPASS BRANCH,HOT WATER LOOP,Demand
     Plant Loop Connector Nodes,   6,Splitter,HOT WATER LOOP DEMAND SPLITTER,HOT WATER LOOP DEMAND INLET PIPE NODE,HOT WATER LOOP DEMAND BYPASS PIPE INLET NODE,HOT WATER LOOP,Demand
   Plant Loop Connector,Mixer,HOT WATER LOOP DEMAND MIXER,HOT WATER LOOP,Demand,6
     Plant Loop Connector Branches,1,Mixer,HOT WATER LOOP DEMAND MIXER,HOT WATER LOOP DEMAND BRANCH 1,HOT WATER LOOP DEMAND OUTLET BRANCH,HOT WATER LOOP,Demand
     Plant Loop Connector Nodes,   1,Mixer,HOT WATER LOOP DEMAND MIXER,NODE 30,HOT WATER LOOP DEMAND OUTLET PIPE NODE,HOT WATER LOOP,Demand
     Plant Loop Connector Branches,2,Mixer,HOT WATER LOOP DEMAND MIXER,HOT WATER LOOP DEMAND BRANCH 2,HOT WATER LOOP DEMAND OUTLET BRANCH,HOT WATER LOOP,Demand
     Plant Loop Connector Nodes,   2,Mixer,HOT WATER LOOP DEMAND MIXER,NODE 43,HOT WATER LOOP DEMAND OUTLET PIPE NODE,HOT WATER LOOP,Demand
     Plant Loop Connector Branches,3,Mixer,HOT WATER LOOP DEMAND MIXER,HOT WATER LOOP DEMAND BRANCH 3,HOT WATER LOOP DEMAND OUTLET BRANCH,HOT WATER LOOP,Demand
     Plant Loop Connector Nodes,   3,Mixer,HOT WATER LOOP DEMAND MIXER,NODE 56,HOT WATER LOOP DEMAND OUTLET PIPE NODE,HOT WATER LOOP,Demand
     Plant Loop Connector Branches,4,Mixer,HOT WATER LOOP DEMAND MIXER,HOT WATER LOOP DEMAND BRANCH 4,HOT WATER LOOP DEMAND OUTLET BRANCH,HOT WATER LOOP,Demand
     Plant Loop Connector Nodes,   4,Mixer,HOT WATER LOOP DEMAND MIXER,NODE 95,HOT WATER LOOP DEMAND OUTLET PIPE NODE,HOT WATER LOOP,Demand
     Plant Loop Connector Branches,5,Mixer,HOT WATER LOOP DEMAND MIXER,HOT WATER LOOP DEMAND BRANCH 5,HOT WATER LOOP DEMAND OUTLET BRANCH,HOT WATER LOOP,Demand
     Plant Loop Connector Nodes,   5,Mixer,HOT WATER LOOP DEMAND MIXER,NODE 112,HOT WATER LOOP DEMAND OUTLET PIPE NODE,HOT WATER LOOP,Demand
     Plant Loop Connector Branches,6,Mixer,HOT WATER LOOP DEMAND MIXER,HOT WATER LOOP DEMAND BYPASS BRANCH,HOT WATER LOOP DEMAND OUTLET BRANCH,HOT WATER LOOP,Demand
     Plant Loop Connector Nodes,   6,Mixer,HOT WATER LOOP DEMAND MIXER,HOT WATER LOOP DEMAND BYPASS PIPE OUTLET NODE,HOT WATER LOOP DEMAND OUTLET PIPE NODE,HOT WATER LOOP,Demand
 Plant Loop,HOT WATER LOOP,Supply,NODE 2,NODE 3,HOT WATER LOOP SUPPLY BRANCHES,HOT WATER LOOP SUPPLY CONNECTOR LIST
   Plant Loop Connector,Splitter,HOT WATER LOOP SUPPLY SPLITTER,HOT WATER LOOP,Supply,3
     Plant Loop Connector Branches,1,Splitter,HOT WATER LOOP SUPPLY SPLITTER,HOT WATER LOOP SUPPLY INLET BRANCH,HOT WATER LOOP SUPPLY BRANCH 1,HOT WATER LOOP,Supply
     Plant Loop Connector Nodes,   1,Splitter,HOT WATER LOOP SUPPLY SPLITTER,NODE 11,NODE 5,HOT WATER LOOP,Supply
     Plant Loop Connector Branches,2,Splitter,HOT WATER LOOP SUPPLY SPLITTER,HOT WATER LOOP SUPPLY INLET BRANCH,HOT WATER LOOP SUPPLY BRANCH 2,HOT WATER LOOP,Supply
     Plant Loop Connector Nodes,   2,Splitter,HOT WATER LOOP SUPPLY SPLITTER,NODE 11,NODE 14,HOT WATER LOOP,Supply
     Plant Loop Connector Branches,3,Splitter,HOT WATER LOOP SUPPLY SPLITTER,HOT WATER LOOP SUPPLY INLET BRANCH,HOT WATER LOOP SUPPLY BRANCH 3,HOT WATER LOOP,Supply
     Plant Loop Connector Nodes,   3,Splitter,HOT WATER LOOP SUPPLY SPLITTER,NODE 11,NODE 16,HOT WATER LOOP,Supply
   Plant Loop Connector,Mixer,HOT WATER LOOP SUPPLY MIXER,HOT WATER LOOP,Supply,3
     Plant Loop Connector Branches,1,Mixer,HOT WATER LOOP SUPPLY MIXER,HOT WATER LOOP SUPPLY BRANCH 1,HOT WATER LOOP SUPPLY OUTLET BRANCH,HOT WATER LOOP,Supply
     Plant Loop Connector Nodes,   1,Mixer,HOT WATER LOOP SUPPLY MIXER,NODE 12,NODE 18,HOT WATER LOOP,Supply
     Plant Loop Connector Branches,2,Mixer,HOT WATER LOOP SUPPLY MIXER,HOT WATER LOOP SUPPLY BRANCH 2,HOT WATER LOOP SUPPLY OUTLET BRANCH,HOT WATER LOOP,Supply
     Plant Loop Connector Nodes,   2,Mixer,HOT WATER LOOP SUPPLY MIXER,NODE 15,NODE 18,HOT WATER LOOP,Supply
     Plant Loop Connector Branches,3,Mixer,HOT WATER LOOP SUPPLY MIXER,HOT WATER LOOP SUPPLY BRANCH 3,HOT WATER LOOP SUPPLY OUTLET BRANCH,HOT WATER LOOP,Supply
     Plant Loop Connector Nodes,   3,Mixer,HOT WATER LOOP SUPPLY MIXER,NODE 17,NODE 18,HOT WATER LOOP,Supply
 Plant Loop Supply Connection,HOT WATER LOOP,NODE 3,NODE 6
 Plant Loop Return Connection,HOT WATER LOOP,NODE 8,NODE 2
 Plant Loop,MAIN SERVICE WATER LOOP,Demand,NODE 116,NODE 117,MAIN SERVICE WATER LOOP DEMAND BRANCHES,MAIN SERVICE WATER LOOP DEMAND CONNECTOR LIST
   Plant Loop Connector,Splitter,MAIN SERVICE WATER LOOP DEMAND SPLITTER,MAIN SERVICE WATER LOOP,Demand,6
     Plant Loop Connector Branches,1,Splitter,MAIN SERVICE WATER LOOP DEMAND SPLITTER,MAIN SERVICE WATER LOOP DEMAND INLET BRANCH,MAIN SERVICE WATER LOOP DEMAND BRANCH 1,MAIN SERVICE WATER LOOP,Demand
     Plant Loop Connector Nodes,   1,Splitter,MAIN SERVICE WATER LOOP DEMAND SPLITTER,NODE 125,NODE 118,MAIN SERVICE WATER LOOP,Demand
     Plant Loop Connector Branches,2,Splitter,MAIN SERVICE WATER LOOP DEMAND SPLITTER,MAIN SERVICE WATER LOOP DEMAND INLET BRANCH,MAIN SERVICE WATER LOOP DEMAND BRANCH 2,MAIN SERVICE WATER LOOP,Demand
     Plant Loop Connector Nodes,   2,Splitter,MAIN SERVICE WATER LOOP DEMAND SPLITTER,NODE 125,NODE 127,MAIN SERVICE WATER LOOP,Demand
     Plant Loop Connector Branches,3,Splitter,MAIN SERVICE WATER LOOP DEMAND SPLITTER,MAIN SERVICE WATER LOOP DEMAND INLET BRANCH,MAIN SERVICE WATER LOOP DEMAND BRANCH 3,MAIN SERVICE WATER LOOP,Demand
     Plant Loop Connector Nodes,   3,Splitter,MAIN SERVICE WATER LOOP DEMAND SPLITTER,NODE 125,NODE 129,MAIN SERVICE WATER LOOP,Demand
     Plant Loop Connector Branches,4,Splitter,MAIN SERVICE WATER LOOP DEMAND SPLITTER,MAIN SERVICE WATER LOOP DEMAND INLET BRANCH,MAIN SERVICE WATER LOOP DEMAND BRANCH 4,MAIN SERVICE WATER LOOP,Demand
     Plant Loop Connector Nodes,   4,Splitter,MAIN SERVICE WATER LOOP DEMAND SPLITTER,NODE 125,NODE 131,MAIN SERVICE WATER LOOP,Demand
     Plant Loop Connector Branches,5,Splitter,MAIN SERVICE WATER LOOP DEMAND SPLITTER,MAIN SERVICE WATER LOOP DEMAND INLET BRANCH,MAIN SERVICE WATER LOOP DEMAND BRANCH 5,MAIN SERVICE WATER LOOP,Demand
     Plant Loop Connector Nodes,   5,Splitter,MAIN SERVICE WATER LOOP DEMAND SPLITTER,NODE 125,NODE 133,MAIN SERVICE WATER LOOP,Demand
     Plant Loop Connector Branches,6,Splitter,MAIN SERVICE WATER LOOP DEMAND SPLITTER,MAIN SERVICE WATER LOOP DEMAND INLET BRANCH,MAIN SERVICE WATER LOOP DEMAND BYPASS BRANCH,MAIN SERVICE WATER LOOP,Demand
     Plant Loop Connector Nodes,   6,Splitter,MAIN SERVICE WATER LOOP DEMAND SPLITTER,NODE 125,MAIN SERVICE WATER LOOP DEMAND BYPASS PIPE INLET NODE,MAIN SERVICE WATER LOOP,Demand
   Plant Loop Connector,Mixer,MAIN SERVICE WATER LOOP DEMAND MIXER,MAIN SERVICE WATER LOOP,Demand,6
     Plant Loop Connector Branches,1,Mixer,MAIN SERVICE WATER LOOP DEMAND MIXER,MAIN SERVICE WATER LOOP DEMAND BRANCH 1,MAIN SERVICE WATER LOOP DEMAND OUTLET BRANCH,MAIN SERVICE WATER LOOP,Demand
     Plant Loop Connector Nodes,   1,Mixer,MAIN SERVICE WATER LOOP DEMAND MIXER,NODE 123,NODE 126,MAIN SERVICE WATER LOOP,Demand
     Plant Loop Connector Branches,2,Mixer,MAIN SERVICE WATER LOOP DEMAND MIXER,MAIN SERVICE WATER LOOP DEMAND BRANCH 2,MAIN SERVICE WATER LOOP DEMAND OUTLET BRANCH,MAIN SERVICE WATER LOOP,Demand
     Plant Loop Connector Nodes,   2,Mixer,MAIN SERVICE WATER LOOP DEMAND MIXER,NODE 128,NODE 126,MAIN SERVICE WATER LOOP,Demand
     Plant Loop Connector Branches,3,Mixer,MAIN SERVICE WATER LOOP DEMAND MIXER,MAIN SERVICE WATER LOOP DEMAND BRANCH 3,MAIN SERVICE WATER LOOP DEMAND OUTLET BRANCH,MAIN SERVICE WATER LOOP,Demand
     Plant Loop Connector Nodes,   3,Mixer,MAIN SERVICE WATER LOOP DEMAND MIXER,NODE 130,NODE 126,MAIN SERVICE WATER LOOP,Demand
     Plant Loop Connector Branches,4,Mixer,MAIN SERVICE WATER LOOP DEMAND MIXER,MAIN SERVICE WATER LOOP DEMAND BRANCH 4,MAIN SERVICE WATER LOOP DEMAND OUTLET BRANCH,MAIN SERVICE WATER LOOP,Demand
     Plant Loop Connector Nodes,   4,Mixer,MAIN SERVICE WATER LOOP DEMAND MIXER,NODE 132,NODE 126,MAIN SERVICE WATER LOOP,Demand
     Plant Loop Connector Branches,5,Mixer,MAIN SERVICE WATER LOOP DEMAND MIXER,MAIN SERVICE WATER LOOP DEMAND BRANCH 5,MAIN SERVICE WATER LOOP DEMAND OUTLET BRANCH,MAIN SERVICE WATER LOOP,Demand
     Plant Loop Connector Nodes,   5,Mixer,MAIN SERVICE WATER LOOP DEMAND MIXER,NODE 134,NODE 126,MAIN SERVICE WATER LOOP,Demand
     Plant Loop Connector Branches,6,Mixer,MAIN SERVICE WATER LOOP DEMAND MIXER,MAIN SERVICE WATER LOOP DEMAND BYPASS BRANCH,MAIN SERVICE WATER LOOP DEMAND OUTLET BRANCH,MAIN SERVICE WATER LOOP,Demand
     Plant Loop Connector Nodes,   6,Mixer,MAIN SERVICE WATER LOOP DEMAND MIXER,MAIN SERVICE WATER LOOP DEMAND BYPASS PIPE OUTLET NODE,NODE 126,MAIN SERVICE WATER LOOP,Demand
 Plant Loop,MAIN SERVICE WATER LOOP,Supply,NODE 113,NODE 114,MAIN SERVICE WATER LOOP SUPPLY BRANCHES,MAIN SERVICE WATER LOOP SUPPLY CONNECTOR LIST
   Plant Loop Connector,Splitter,MAIN SERVICE WATER LOOP SUPPLY SPLITTER,MAIN SERVICE WATER LOOP,Supply,2
     Plant Loop Connector Branches,1,Splitter,MAIN SERVICE WATER LOOP SUPPLY SPLITTER,MAIN SERVICE WATER LOOP SUPPLY INLET BRANCH,MAIN SERVICE WATER LOOP SUPPLY BRANCH 1,MAIN SERVICE WATER LOOP,Supply
     Plant Loop Connector Nodes,   1,Splitter,MAIN SERVICE WATER LOOP SUPPLY SPLITTER,NODE 119,NODE 115,MAIN SERVICE WATER LOOP,Supply
     Plant Loop Connector Branches,2,Splitter,MAIN SERVICE WATER LOOP SUPPLY SPLITTER,MAIN SERVICE WATER LOOP SUPPLY INLET BRANCH,MAIN SERVICE WATER LOOP SUPPLY BRANCH 2,MAIN SERVICE WATER LOOP,Supply
     Plant Loop Connector Nodes,   2,Splitter,MAIN SERVICE WATER LOOP SUPPLY SPLITTER,NODE 119,NODE 121,MAIN SERVICE WATER LOOP,Supply
   Plant Loop Connector,Mixer,MAIN SERVICE WATER LOOP SUPPLY MIXER,MAIN SERVICE WATER LOOP,Supply,2
     Plant Loop Connector Branches,1,Mixer,MAIN SERVICE WATER LOOP SUPPLY MIXER,MAIN SERVICE WATER LOOP SUPPLY BRANCH 1,MAIN SERVICE WATER LOOP SUPPLY OUTLET BRANCH,MAIN SERVICE WATER LOOP,Supply
     Plant Loop Connector Nodes,   1,Mixer,MAIN SERVICE WATER LOOP SUPPLY MIXER,NODE 120,NODE 124,MAIN SERVICE WATER LOOP,Supply
     Plant Loop Connector Branches,2,Mixer,MAIN SERVICE WATER LOOP SUPPLY MIXER,MAIN SERVICE WATER LOOP SUPPLY BRANCH 2,MAIN SERVICE WATER LOOP SUPPLY OUTLET BRANCH,MAIN SERVICE WATER LOOP,Supply
     Plant Loop Connector Nodes,   2,Mixer,MAIN SERVICE WATER LOOP SUPPLY MIXER,NODE 122,NODE 124,MAIN SERVICE WATER LOOP,Supply
 Plant Loop Supply Connection,MAIN SERVICE WATER LOOP,NODE 114,NODE 116
 Plant Loop Return Connection,MAIN SERVICE WATER LOOP,NODE 117,NODE 113
! ===============================================================
! <# Condenser Loops>,<Number of Condenser Loops>
 #Condenser Loops,0
! <Condenser Loop>,<Condenser Loop Name>,<Loop Type>,<Inlet Node Name>,<Outlet Node Name>,<Branch List>,<Connector List>
! <Condenser Loop Connector>,<Connector Type>,<Connector Name>,<Loop Name>,<Loop Type>,<Number of Inlets/Outlets>
! <Condenser Loop Connector Branches>,<Connector Node Count>,<Connector Type>,<Connector Name>,<Inlet Branch>,<Outlet Branch>,<Loop Name>,<Loop Type>
! <Condenser Loop Connector Nodes>,<Connector Node Count>,<Connector Type>,<Connector Name>,<Inlet Node>,<Outlet Node>,<Loop Name>,<Loop Type>
! <Condenser Loop Supply Connection>,<Condenser Loop Name>,<Supply Side Outlet Node Name>,<Demand Side Inlet Node Name>
! <Condenser Loop Return Connection>,<Condenser Loop Name>,<Demand Side Outlet Node Name>,<Supply Side Inlet Node Name>
! ===============================================================
! <# Controlled Zones>,<Number of Controlled Zones>
 #Controlled Zones,5
! <Controlled Zone>,<Controlled Zone Name>,<Equip List Name>,<Control List Name>,<Zone Node Name>,<# Inlet Nodes>,<# Exhaust Nodes>,<# Return Nodes>
! <Controlled Zone Inlet>,<Inlet Node Count>,<Controlled Zone Name>,<Supply Air Inlet Node Name>,<SD Sys:Cooling/Heating [DD:Cooling] Inlet Node Name>,<DD Sys:Heating Inlet Node Name>
! <Controlled Zone Exhaust>,<Exhaust Node Count>,<Controlled Zone Name>,<Exhaust Air Node Name>
 Controlled Zone,ALL_ST=WHOLEBUILDING_FL=STORY 1_SCH=A,ALL_ST=WHOLEBUILDING_FL=STORY 1_SCH=A EQUIPMENT LIST,,NODE 1,1,0,1
   Controlled Zone Inlet,1,ALL_ST=WHOLEBUILDING_FL=STORY 1_SCH=A,NODE 23,NODE 23,N/A
   Controlled Zone Return,1,ALL_ST=WHOLEBUILDING_FL=STORY 1_SCH=A,NODE 29
 Controlled Zone,ALL_ST=WHOLEBUILDING_FL=STORY 1_SCH=A 1,ALL_ST=WHOLEBUILDING_FL=STORY 1_SCH=A 1 EQUIPMENT LIST,,NODE 4,2,1,1
   Controlled Zone Inlet,1,ALL_ST=WHOLEBUILDING_FL=STORY 1_SCH=A 1,NODE 98,Undefined,N/A
   Controlled Zone Inlet,2,ALL_ST=WHOLEBUILDING_FL=STORY 1_SCH=A 1,NODE 88,NODE 88,N/A
   Controlled Zone Exhaust,1,ALL_ST=WHOLEBUILDING_FL=STORY 1_SCH=A 1,NODE 97
   Controlled Zone Return,1,ALL_ST=WHOLEBUILDING_FL=STORY 1_SCH=A 1,NODE 99
 Controlled Zone,ALL_ST=WHOLEBUILDING_FL=STORY 1_SCH=A 2,ALL_ST=WHOLEBUILDING_FL=STORY 1_SCH=A 2 EQUIPMENT LIST,,NODE 7,1,0,1
   Controlled Zone Inlet,1,ALL_ST=WHOLEBUILDING_FL=STORY 1_SCH=A 2,NODE 104,NODE 104,N/A
   Controlled Zone Return,1,ALL_ST=WHOLEBUILDING_FL=STORY 1_SCH=A 2,NODE 110
 Controlled Zone,ALL_ST=WHOLEBUILDING_FL=STORY 1_SCH=E,ALL_ST=WHOLEBUILDING_FL=STORY 1_SCH=E EQUIPMENT LIST,,NODE 10,1,0,1
   Controlled Zone Inlet,1,ALL_ST=WHOLEBUILDING_FL=STORY 1_SCH=E,NODE 35,NODE 35,N/A
   Controlled Zone Return,1,ALL_ST=WHOLEBUILDING_FL=STORY 1_SCH=E,NODE 41
 Controlled Zone,ALL_ST=WHOLEBUILDING_FL=STORY 1_SCH=E 1,ALL_ST=WHOLEBUILDING_FL=STORY 1_SCH=E 1 EQUIPMENT LIST,,NODE 13,1,0,1
   Controlled Zone Inlet,1,ALL_ST=WHOLEBUILDING_FL=STORY 1_SCH=E 1,NODE 48,NODE 48,N/A
   Controlled Zone Return,1,ALL_ST=WHOLEBUILDING_FL=STORY 1_SCH=E 1,NODE 54
! ===============================================================
! <#Zone Equipment Lists>,<Number of Zone Equipment Lists>
 #Zone Equipment Lists,5
! <Zone Equipment List>,<Zone Equipment List Count>,<Zone Equipment List Name>,<Zone Name>,<Number of Components>
! <Zone Equipment Component>,<Component Count>,<Component Type>,<Component Name>,<Zone Name>,<Heating Priority>,<Cooling Priority>
 Zone Equipment List,1,ALL_ST=WHOLEBUILDING_FL=STORY 1_SCH=A EQUIPMENT LIST,ALL_ST=WHOLEBUILDING_FL=STORY 1_SCH=A,2
   Zone Equipment Component,1,AIRTERMINAL:SINGLEDUCT:UNCONTROLLED,AIR TERMINAL SINGLE DUCT UNCONTROLLED 1,ALL_ST=WHOLEBUILDING_FL=STORY 1_SCH=A,1,1
   Zone Equipment Component,2,ZONEHVAC:BASEBOARD:CONVECTIVE:WATER,ZONE HVAC BASEBOARD CONVECTIVE WATER 1,ALL_ST=WHOLEBUILDING_FL=STORY 1_SCH=A,2,2
 Zone Equipment List,2,ALL_ST=WHOLEBUILDING_FL=STORY 1_SCH=A 1 EQUIPMENT LIST,ALL_ST=WHOLEBUILDING_FL=STORY 1_SCH=A 1,2
   Zone Equipment Component,1,ZONEHVAC:FOURPIPEFANCOIL,ZONE HVAC FOUR PIPE FAN COIL 1,ALL_ST=WHOLEBUILDING_FL=STORY 1_SCH=A 1,1,1
   Zone Equipment Component,2,AIRTERMINAL:SINGLEDUCT:UNCONTROLLED,AIR TERMINAL SINGLE DUCT UNCONTROLLED 4,ALL_ST=WHOLEBUILDING_FL=STORY 1_SCH=A 1,2,2
 Zone Equipment List,3,ALL_ST=WHOLEBUILDING_FL=STORY 1_SCH=A 2 EQUIPMENT LIST,ALL_ST=WHOLEBUILDING_FL=STORY 1_SCH=A 2,2
   Zone Equipment Component,1,AIRTERMINAL:SINGLEDUCT:UNCONTROLLED,AIR TERMINAL SINGLE DUCT UNCONTROLLED 5,ALL_ST=WHOLEBUILDING_FL=STORY 1_SCH=A 2,1,1
   Zone Equipment Component,2,ZONEHVAC:BASEBOARD:CONVECTIVE:WATER,ZONE HVAC BASEBOARD CONVECTIVE WATER 4,ALL_ST=WHOLEBUILDING_FL=STORY 1_SCH=A 2,2,2
 Zone Equipment List,4,ALL_ST=WHOLEBUILDING_FL=STORY 1_SCH=E EQUIPMENT LIST,ALL_ST=WHOLEBUILDING_FL=STORY 1_SCH=E,2
   Zone Equipment Component,1,AIRTERMINAL:SINGLEDUCT:UNCONTROLLED,AIR TERMINAL SINGLE DUCT UNCONTROLLED 2,ALL_ST=WHOLEBUILDING_FL=STORY 1_SCH=E,1,1
   Zone Equipment Component,2,ZONEHVAC:BASEBOARD:CONVECTIVE:WATER,ZONE HVAC BASEBOARD CONVECTIVE WATER 2,ALL_ST=WHOLEBUILDING_FL=STORY 1_SCH=E,2,2
 Zone Equipment List,5,ALL_ST=WHOLEBUILDING_FL=STORY 1_SCH=E 1 EQUIPMENT LIST,ALL_ST=WHOLEBUILDING_FL=STORY 1_SCH=E 1,2
   Zone Equipment Component,1,AIRTERMINAL:SINGLEDUCT:UNCONTROLLED,AIR TERMINAL SINGLE DUCT UNCONTROLLED 3,ALL_ST=WHOLEBUILDING_FL=STORY 1_SCH=E 1,1,1
   Zone Equipment Component,2,ZONEHVAC:BASEBOARD:CONVECTIVE:WATER,ZONE HVAC BASEBOARD CONVECTIVE WATER 3,ALL_ST=WHOLEBUILDING_FL=STORY 1_SCH=E 1,2,2
! ===============================================================
! <#AirLoopHVACs>,<Number of AirLoopHVACs>
 #AirLoopHVACs,5
! <AirLoopHVAC>,<Air Loop Name>,<# Return Nodes>,<# Supply Nodes>,<# Zones Cooled>,<# Zones Heated>,<Outdoor Air Used>
! <AirLoop Return Connections>,<Connection Count>,<AirLoopHVAC Name>,<Zn Eqp Return Node #>,<Zn Eqp Return Node Name>,<AirLoop Return Node #>,<Air Loop Return Node Name>
! <AirLoop Supply Connections>,<Connection Count>,<AirLoopHVAC Name>,<Zn Eqp Supply Node #>,<Zn Eqp Supply Node Name>,<AirLoop Supply Node #>,<Air Loop Supply Node Name>
! <Cooled Zone Info>,<Cooled Zone Count>,<Cooled Zone Name>,<Cooled Zone Inlet Node #>,<Cooled Zone Inlet Node Name>,<AirLoopHVAC Name>
! <Heated Zone Info>,<Heated Zone Count>,<Heated Zone Name>,<Heated Zone Inlet Node #>,<Heated Zone Inlet Node Name>,<AirLoopHVAC Name>
! <Outdoor Air Connections>,<OA Inlet Node #>,<OA Return Air Inlet Node Name>,<OA Outlet Node #>,<OA Mixed Air Outlet Node Name>,<AirLoopHVAC Name>
! <AirLoopHVAC Connector>,<Connector Type>,<Connector Name>,<Loop Name>,<Loop Type>,<Number of Inlets/Outlets>
! <AirLoopHVAC Connector Branches>,<Connector Node Count>,<Connector Type>,<Connector Name>,<Inlet Branch>,<Outlet Branch>,<Loop Name>,<Loop Type>
! <AirLoopHVAC Connector Nodes>,<Connector Node Count>,<Connector Type>,<Connector Name>,<Inlet Node>,<Outlet Node>,<Loop Name>,<Loop Type>
 AirLoopHVAC,SYS_2_MAKE-UP AIR UNIT,1,1,1,0,Yes
   AirLoop Return Connections,1,SYS_2_MAKE-UP AIR UNIT,134,NODE 87,18,NODE 84
   AirLoop Supply Connections,1,SYS_2_MAKE-UP AIR UNIT,9,NODE 86,8,NODE 85
   Cooled Zone Info,1,ALL_ST=WHOLEBUILDING_FL=STORY 1_SCH=A 1,3,NODE 88,SYS_2_MAKE-UP AIR UNIT
   Outdoor Air Connections,18,NODE 84,19,NODE 93,SYS_2_MAKE-UP AIR UNIT
 AirLoopHVAC,SYS_3_PSZ ALL_ST=WHOLEBUILDING_FL=STORY 1_SCH=A 2,1,1,1,0,Yes
   AirLoop Return Connections,1,SYS_3_PSZ ALL_ST=WHOLEBUILDING_FL=STORY 1_SCH=A 2,135,NODE 103,22,NODE 100
   AirLoop Supply Connections,1,SYS_3_PSZ ALL_ST=WHOLEBUILDING_FL=STORY 1_SCH=A 2,11,NODE 102,10,NODE 101
   Cooled Zone Info,1,ALL_ST=WHOLEBUILDING_FL=STORY 1_SCH=A 2,5,NODE 104,SYS_3_PSZ ALL_ST=WHOLEBUILDING_FL=STORY 1_SCH=A 2
   Outdoor Air Connections,22,NODE 100,23,NODE 109,SYS_3_PSZ ALL_ST=WHOLEBUILDING_FL=STORY 1_SCH=A 2
 AirLoopHVAC,SYS_4_PSZ_ALL_ST=WHOLEBUILDING_FL=STORY 1_SCH=A,1,1,1,0,Yes
   AirLoop Return Connections,1,SYS_4_PSZ_ALL_ST=WHOLEBUILDING_FL=STORY 1_SCH=A,136,NODE 22,26,NODE 19
   AirLoop Supply Connections,1,SYS_4_PSZ_ALL_ST=WHOLEBUILDING_FL=STORY 1_SCH=A,13,NODE 21,12,NODE 20
   Cooled Zone Info,1,ALL_ST=WHOLEBUILDING_FL=STORY 1_SCH=A,1,NODE 23,SYS_4_PSZ_ALL_ST=WHOLEBUILDING_FL=STORY 1_SCH=A
   Outdoor Air Connections,26,NODE 19,27,NODE 28,SYS_4_PSZ_ALL_ST=WHOLEBUILDING_FL=STORY 1_SCH=A
 AirLoopHVAC,SYS_4_PSZ_ALL_ST=WHOLEBUILDING_FL=STORY 1_SCH=E,1,1,1,0,Yes
   AirLoop Return Connections,1,SYS_4_PSZ_ALL_ST=WHOLEBUILDING_FL=STORY 1_SCH=E,137,NODE 34,30,NODE 31
   AirLoop Supply Connections,1,SYS_4_PSZ_ALL_ST=WHOLEBUILDING_FL=STORY 1_SCH=E,15,NODE 33,14,NODE 32
   Cooled Zone Info,1,ALL_ST=WHOLEBUILDING_FL=STORY 1_SCH=E,6,NODE 35,SYS_4_PSZ_ALL_ST=WHOLEBUILDING_FL=STORY 1_SCH=E
   Outdoor Air Connections,30,NODE 31,31,NODE 40,SYS_4_PSZ_ALL_ST=WHOLEBUILDING_FL=STORY 1_SCH=E
 AirLoopHVAC,SYS_4_PSZ_ALL_ST=WHOLEBUILDING_FL=STORY 1_SCH=E 1,1,1,1,0,Yes
   AirLoop Return Connections,1,SYS_4_PSZ_ALL_ST=WHOLEBUILDING_FL=STORY 1_SCH=E 1,138,NODE 47,34,NODE 44
   AirLoop Supply Connections,1,SYS_4_PSZ_ALL_ST=WHOLEBUILDING_FL=STORY 1_SCH=E 1,17,NODE 46,16,NODE 45
   Cooled Zone Info,1,ALL_ST=WHOLEBUILDING_FL=STORY 1_SCH=E 1,7,NODE 48,SYS_4_PSZ_ALL_ST=WHOLEBUILDING_FL=STORY 1_SCH=E 1
   Outdoor Air Connections,34,NODE 44,35,NODE 53,SYS_4_PSZ_ALL_ST=WHOLEBUILDING_FL=STORY 1_SCH=E 1
! ===============================================================
! <#Parent Node Connections>,<Number of Parent Node Connections>
 #Parent Node Connections,178
! <Parent Node Connection>,<Node Name>,<Node ObjectType>,<Node ObjectName>,<Node ConnectionType>,<Node FluidStream>
 Parent Node Connection,NODE 84,BRANCH,SYS_2_MAKE-UP AIR UNIT MAIN BRANCH,Inlet,1
 Parent Node Connection,NODE 93,BRANCH,SYS_2_MAKE-UP AIR UNIT MAIN BRANCH,Internal,1
 Parent Node Connection,NODE 92,BRANCH,SYS_2_MAKE-UP AIR UNIT MAIN BRANCH,Internal,1
 Parent Node Connection,NODE 91,BRANCH,SYS_2_MAKE-UP AIR UNIT MAIN BRANCH,Internal,1
 Parent Node Connection,NODE 85,BRANCH,SYS_2_MAKE-UP AIR UNIT MAIN BRANCH,Outlet,1
 Parent Node Connection,NODE 100,BRANCH,SYS_3_PSZ ALL_ST=WHOLEBUILDING_FL=STORY 1_SCH=A 2 MAIN BRANCH,Inlet,1
 Parent Node Connection,NODE 109,BRANCH,SYS_3_PSZ ALL_ST=WHOLEBUILDING_FL=STORY 1_SCH=A 2 MAIN BRANCH,Internal,1
 Parent Node Connection,NODE 108,BRANCH,SYS_3_PSZ ALL_ST=WHOLEBUILDING_FL=STORY 1_SCH=A 2 MAIN BRANCH,Internal,1
 Parent Node Connection,NODE 107,BRANCH,SYS_3_PSZ ALL_ST=WHOLEBUILDING_FL=STORY 1_SCH=A 2 MAIN BRANCH,Internal,1
 Parent Node Connection,NODE 101,BRANCH,SYS_3_PSZ ALL_ST=WHOLEBUILDING_FL=STORY 1_SCH=A 2 MAIN BRANCH,Outlet,1
 Parent Node Connection,NODE 19,BRANCH,SYS_4_PSZ_ALL_ST=WHOLEBUILDING_FL=STORY 1_SCH=A MAIN BRANCH,Inlet,1
 Parent Node Connection,NODE 28,BRANCH,SYS_4_PSZ_ALL_ST=WHOLEBUILDING_FL=STORY 1_SCH=A MAIN BRANCH,Internal,1
 Parent Node Connection,NODE 27,BRANCH,SYS_4_PSZ_ALL_ST=WHOLEBUILDING_FL=STORY 1_SCH=A MAIN BRANCH,Internal,1
 Parent Node Connection,NODE 26,BRANCH,SYS_4_PSZ_ALL_ST=WHOLEBUILDING_FL=STORY 1_SCH=A MAIN BRANCH,Internal,1
 Parent Node Connection,NODE 20,BRANCH,SYS_4_PSZ_ALL_ST=WHOLEBUILDING_FL=STORY 1_SCH=A MAIN BRANCH,Outlet,1
 Parent Node Connection,NODE 31,BRANCH,SYS_4_PSZ_ALL_ST=WHOLEBUILDING_FL=STORY 1_SCH=E MAIN BRANCH,Inlet,1
 Parent Node Connection,NODE 40,BRANCH,SYS_4_PSZ_ALL_ST=WHOLEBUILDING_FL=STORY 1_SCH=E MAIN BRANCH,Internal,1
 Parent Node Connection,NODE 39,BRANCH,SYS_4_PSZ_ALL_ST=WHOLEBUILDING_FL=STORY 1_SCH=E MAIN BRANCH,Internal,1
 Parent Node Connection,NODE 38,BRANCH,SYS_4_PSZ_ALL_ST=WHOLEBUILDING_FL=STORY 1_SCH=E MAIN BRANCH,Internal,1
 Parent Node Connection,NODE 32,BRANCH,SYS_4_PSZ_ALL_ST=WHOLEBUILDING_FL=STORY 1_SCH=E MAIN BRANCH,Outlet,1
 Parent Node Connection,NODE 44,BRANCH,SYS_4_PSZ_ALL_ST=WHOLEBUILDING_FL=STORY 1_SCH=E 1 MAIN BRANCH,Inlet,1
 Parent Node Connection,NODE 53,BRANCH,SYS_4_PSZ_ALL_ST=WHOLEBUILDING_FL=STORY 1_SCH=E 1 MAIN BRANCH,Internal,1
 Parent Node Connection,NODE 52,BRANCH,SYS_4_PSZ_ALL_ST=WHOLEBUILDING_FL=STORY 1_SCH=E 1 MAIN BRANCH,Internal,1
 Parent Node Connection,NODE 51,BRANCH,SYS_4_PSZ_ALL_ST=WHOLEBUILDING_FL=STORY 1_SCH=E 1 MAIN BRANCH,Internal,1
 Parent Node Connection,NODE 45,BRANCH,SYS_4_PSZ_ALL_ST=WHOLEBUILDING_FL=STORY 1_SCH=E 1 MAIN BRANCH,Outlet,1
 Parent Node Connection,NODE 57,BRANCH,CHILLED WATER LOOP SUPPLY INLET BRANCH,Inlet,1
 Parent Node Connection,NODE 63,BRANCH,CHILLED WATER LOOP SUPPLY INLET BRANCH,Outlet,1
 Parent Node Connection,NODE 59,BRANCH,CHILLED WATER LOOP SUPPLY BRANCH 1,Inlet,1
 Parent Node Connection,NODE 64,BRANCH,CHILLED WATER LOOP SUPPLY BRANCH 1,Outlet,1
 Parent Node Connection,NODE 65,BRANCH,CHILLED WATER LOOP SUPPLY BRANCH 2,Inlet,1
 Parent Node Connection,NODE 66,BRANCH,CHILLED WATER LOOP SUPPLY BRANCH 2,Outlet,1
 Parent Node Connection,NODE 67,BRANCH,CHILLED WATER LOOP SUPPLY BRANCH 3,Inlet,1
 Parent Node Connection,NODE 68,BRANCH,CHILLED WATER LOOP SUPPLY BRANCH 3,Outlet,1
 Parent Node Connection,NODE 69,BRANCH,CHILLED WATER LOOP SUPPLY OUTLET BRANCH,Inlet,1
 Parent Node Connection,NODE 58,BRANCH,CHILLED WATER LOOP SUPPLY OUTLET BRANCH,Outlet,1
 Parent Node Connection,NODE 60,BRANCH,CHILLED WATER LOOP DEMAND INLET BRANCH,Inlet,1
 Parent Node Connection,CHILLED WATER LOOP DEMAND INLET PIPE NODE,BRANCH,CHILLED WATER LOOP DEMAND INLET BRANCH,Outlet,1
 Parent Node Connection,NODE 62,BRANCH,CHILLED WATER LOOP DEMAND BRANCH 1,Inlet,1
 Parent Node Connection,NODE 96,BRANCH,CHILLED WATER LOOP DEMAND BRANCH 1,Outlet,1
 Parent Node Connection,CHILLED WATER LOOP DEMAND BYPASS PIPE INLET NODE,BRANCH,CHILLED WATER LOOP DEMAND BYPASS BRANCH,Inlet,1
 Parent Node Connection,CHILLED WATER LOOP DEMAND BYPASS PIPE OUTLET NODE,BRANCH,CHILLED WATER LOOP DEMAND BYPASS BRANCH,Outlet,1
 Parent Node Connection,CHILLED WATER LOOP DEMAND OUTLET PIPE NODE,BRANCH,CHILLED WATER LOOP DEMAND OUTLET BRANCH,Inlet,1
 Parent Node Connection,NODE 61,BRANCH,CHILLED WATER LOOP DEMAND OUTLET BRANCH,Outlet,1
 Parent Node Connection,NODE 70,BRANCH,CONDENSER WATER LOOP SUPPLY INLET BRANCH,Inlet,1
 Parent Node Connection,NODE 76,BRANCH,CONDENSER WATER LOOP SUPPLY INLET BRANCH,Outlet,1
 Parent Node Connection,NODE 72,BRANCH,CONDENSER WATER LOOP SUPPLY BRANCH 1,Inlet,1
 Parent Node Connection,NODE 77,BRANCH,CONDENSER WATER LOOP SUPPLY BRANCH 1,Outlet,1
 Parent Node Connection,NODE 78,BRANCH,CONDENSER WATER LOOP SUPPLY BRANCH 2,Inlet,1
 Parent Node Connection,NODE 79,BRANCH,CONDENSER WATER LOOP SUPPLY BRANCH 2,Outlet,1
 Parent Node Connection,NODE 80,BRANCH,CONDENSER WATER LOOP SUPPLY OUTLET BRANCH,Inlet,1
 Parent Node Connection,NODE 71,BRANCH,CONDENSER WATER LOOP SUPPLY OUTLET BRANCH,Outlet,1
 Parent Node Connection,NODE 73,BRANCH,CONDENSER WATER LOOP DEMAND INLET BRANCH,Inlet,1
 Parent Node Connection,CONDENSER WATER LOOP DEMAND INLET PIPE NODE,BRANCH,CONDENSER WATER LOOP DEMAND INLET BRANCH,Outlet,1
 Parent Node Connection,NODE 75,BRANCH,CONDENSER WATER LOOP DEMAND BRANCH 1,Inlet,1
 Parent Node Connection,NODE 81,BRANCH,CONDENSER WATER LOOP DEMAND BRANCH 1,Outlet,1
 Parent Node Connection,NODE 82,BRANCH,CONDENSER WATER LOOP DEMAND BRANCH 2,Inlet,1
 Parent Node Connection,NODE 83,BRANCH,CONDENSER WATER LOOP DEMAND BRANCH 2,Outlet,1
 Parent Node Connection,CONDENSER WATER LOOP DEMAND BYPASS PIPE INLET NODE,BRANCH,CONDENSER WATER LOOP DEMAND BYPASS BRANCH,Inlet,1
 Parent Node Connection,CONDENSER WATER LOOP DEMAND BYPASS PIPE OUTLET NODE,BRANCH,CONDENSER WATER LOOP DEMAND BYPASS BRANCH,Outlet,1
 Parent Node Connection,CONDENSER WATER LOOP DEMAND OUTLET PIPE NODE,BRANCH,CONDENSER WATER LOOP DEMAND OUTLET BRANCH,Inlet,1
 Parent Node Connection,NODE 74,BRANCH,CONDENSER WATER LOOP DEMAND OUTLET BRANCH,Outlet,1
 Parent Node Connection,NODE 2,BRANCH,HOT WATER LOOP SUPPLY INLET BRANCH,Inlet,1
 Parent Node Connection,NODE 11,BRANCH,HOT WATER LOOP SUPPLY INLET BRANCH,Outlet,1
 Parent Node Connection,NODE 5,BRANCH,HOT WATER LOOP SUPPLY BRANCH 1,Inlet,1
 Parent Node Connection,NODE 12,BRANCH,HOT WATER LOOP SUPPLY BRANCH 1,Outlet,1
 Parent Node Connection,NODE 14,BRANCH,HOT WATER LOOP SUPPLY BRANCH 2,Inlet,1
 Parent Node Connection,NODE 15,BRANCH,HOT WATER LOOP SUPPLY BRANCH 2,Outlet,1
 Parent Node Connection,NODE 16,BRANCH,HOT WATER LOOP SUPPLY BRANCH 3,Inlet,1
 Parent Node Connection,NODE 17,BRANCH,HOT WATER LOOP SUPPLY BRANCH 3,Outlet,1
 Parent Node Connection,NODE 18,BRANCH,HOT WATER LOOP SUPPLY OUTLET BRANCH,Inlet,1
 Parent Node Connection,NODE 3,BRANCH,HOT WATER LOOP SUPPLY OUTLET BRANCH,Outlet,1
 Parent Node Connection,NODE 6,BRANCH,HOT WATER LOOP DEMAND INLET BRANCH,Inlet,1
 Parent Node Connection,HOT WATER LOOP DEMAND INLET PIPE NODE,BRANCH,HOT WATER LOOP DEMAND INLET BRANCH,Outlet,1
 Parent Node Connection,NODE 9,BRANCH,HOT WATER LOOP DEMAND BRANCH 1,Inlet,1
 Parent Node Connection,NODE 30,BRANCH,HOT WATER LOOP DEMAND BRANCH 1,Outlet,1
 Parent Node Connection,NODE 42,BRANCH,HOT WATER LOOP DEMAND BRANCH 2,Inlet,1
 Parent Node Connection,NODE 43,BRANCH,HOT WATER LOOP DEMAND BRANCH 2,Outlet,1
 Parent Node Connection,NODE 55,BRANCH,HOT WATER LOOP DEMAND BRANCH 3,Inlet,1
 Parent Node Connection,NODE 56,BRANCH,HOT WATER LOOP DEMAND BRANCH 3,Outlet,1
 Parent Node Connection,NODE 94,BRANCH,HOT WATER LOOP DEMAND BRANCH 4,Inlet,1
 Parent Node Connection,NODE 95,BRANCH,HOT WATER LOOP DEMAND BRANCH 4,Outlet,1
 Parent Node Connection,NODE 111,BRANCH,HOT WATER LOOP DEMAND BRANCH 5,Inlet,1
 Parent Node Connection,NODE 112,BRANCH,HOT WATER LOOP DEMAND BRANCH 5,Outlet,1
 Parent Node Connection,HOT WATER LOOP DEMAND BYPASS PIPE INLET NODE,BRANCH,HOT WATER LOOP DEMAND BYPASS BRANCH,Inlet,1
 Parent Node Connection,HOT WATER LOOP DEMAND BYPASS PIPE OUTLET NODE,BRANCH,HOT WATER LOOP DEMAND BYPASS BRANCH,Outlet,1
 Parent Node Connection,HOT WATER LOOP DEMAND OUTLET PIPE NODE,BRANCH,HOT WATER LOOP DEMAND OUTLET BRANCH,Inlet,1
 Parent Node Connection,NODE 8,BRANCH,HOT WATER LOOP DEMAND OUTLET BRANCH,Outlet,1
 Parent Node Connection,NODE 113,BRANCH,MAIN SERVICE WATER LOOP SUPPLY INLET BRANCH,Inlet,1
 Parent Node Connection,NODE 119,BRANCH,MAIN SERVICE WATER LOOP SUPPLY INLET BRANCH,Outlet,1
 Parent Node Connection,NODE 115,BRANCH,MAIN SERVICE WATER LOOP SUPPLY BRANCH 1,Inlet,1
 Parent Node Connection,NODE 120,BRANCH,MAIN SERVICE WATER LOOP SUPPLY BRANCH 1,Outlet,1
 Parent Node Connection,NODE 121,BRANCH,MAIN SERVICE WATER LOOP SUPPLY BRANCH 2,Inlet,1
 Parent Node Connection,NODE 122,BRANCH,MAIN SERVICE WATER LOOP SUPPLY BRANCH 2,Outlet,1
 Parent Node Connection,NODE 124,BRANCH,MAIN SERVICE WATER LOOP SUPPLY OUTLET BRANCH,Inlet,1
 Parent Node Connection,NODE 114,BRANCH,MAIN SERVICE WATER LOOP SUPPLY OUTLET BRANCH,Outlet,1
 Parent Node Connection,NODE 116,BRANCH,MAIN SERVICE WATER LOOP DEMAND INLET BRANCH,Inlet,1
 Parent Node Connection,NODE 125,BRANCH,MAIN SERVICE WATER LOOP DEMAND INLET BRANCH,Outlet,1
 Parent Node Connection,NODE 118,BRANCH,MAIN SERVICE WATER LOOP DEMAND BRANCH 1,Inlet,1
 Parent Node Connection,NODE 123,BRANCH,MAIN SERVICE WATER LOOP DEMAND BRANCH 1,Outlet,1
 Parent Node Connection,NODE 127,BRANCH,MAIN SERVICE WATER LOOP DEMAND BRANCH 2,Inlet,1
 Parent Node Connection,NODE 128,BRANCH,MAIN SERVICE WATER LOOP DEMAND BRANCH 2,Outlet,1
 Parent Node Connection,NODE 129,BRANCH,MAIN SERVICE WATER LOOP DEMAND BRANCH 3,Inlet,1
 Parent Node Connection,NODE 130,BRANCH,MAIN SERVICE WATER LOOP DEMAND BRANCH 3,Outlet,1
 Parent Node Connection,NODE 131,BRANCH,MAIN SERVICE WATER LOOP DEMAND BRANCH 4,Inlet,1
 Parent Node Connection,NODE 132,BRANCH,MAIN SERVICE WATER LOOP DEMAND BRANCH 4,Outlet,1
 Parent Node Connection,NODE 133,BRANCH,MAIN SERVICE WATER LOOP DEMAND BRANCH 5,Inlet,1
 Parent Node Connection,NODE 134,BRANCH,MAIN SERVICE WATER LOOP DEMAND BRANCH 5,Outlet,1
 Parent Node Connection,MAIN SERVICE WATER LOOP DEMAND BYPASS PIPE INLET NODE,BRANCH,MAIN SERVICE WATER LOOP DEMAND BYPASS BRANCH,Inlet,1
 Parent Node Connection,MAIN SERVICE WATER LOOP DEMAND BYPASS PIPE OUTLET NODE,BRANCH,MAIN SERVICE WATER LOOP DEMAND BYPASS BRANCH,Outlet,1
 Parent Node Connection,NODE 126,BRANCH,MAIN SERVICE WATER LOOP DEMAND OUTLET BRANCH,Inlet,1
 Parent Node Connection,NODE 117,BRANCH,MAIN SERVICE WATER LOOP DEMAND OUTLET BRANCH,Outlet,1
 Parent Node Connection,NODE 86,AIRLOOPHVAC:SUPPLYPATH,SYS_2_MAKE-UP AIR UNIT NODE 86 SUPPLY PATH,Inlet,1
 Parent Node Connection,NODE 102,AIRLOOPHVAC:SUPPLYPATH,SYS_3_PSZ ALL_ST=WHOLEBUILDING_FL=STORY 1_SCH=A 2 NODE 102 SUPPLY PATH,Inlet,1
 Parent Node Connection,NODE 21,AIRLOOPHVAC:SUPPLYPATH,SYS_4_PSZ_ALL_ST=WHOLEBUILDING_FL=STORY 1_SCH=A NODE 21 SUPPLY PATH,Inlet,1
 Parent Node Connection,NODE 33,AIRLOOPHVAC:SUPPLYPATH,SYS_4_PSZ_ALL_ST=WHOLEBUILDING_FL=STORY 1_SCH=E NODE 33 SUPPLY PATH,Inlet,1
 Parent Node Connection,NODE 46,AIRLOOPHVAC:SUPPLYPATH,SYS_4_PSZ_ALL_ST=WHOLEBUILDING_FL=STORY 1_SCH=E 1 NODE 46 SUPPLY PATH,Inlet,1
 Parent Node Connection,NODE 87,AIRLOOPHVAC:RETURNPATH,SYS_2_MAKE-UP AIR UNIT RETURN PATH,Outlet,1
 Parent Node Connection,NODE 103,AIRLOOPHVAC:RETURNPATH,SYS_3_PSZ ALL_ST=WHOLEBUILDING_FL=STORY 1_SCH=A 2 RETURN PATH,Outlet,1
 Parent Node Connection,NODE 22,AIRLOOPHVAC:RETURNPATH,SYS_4_PSZ_ALL_ST=WHOLEBUILDING_FL=STORY 1_SCH=A RETURN PATH,Outlet,1
 Parent Node Connection,NODE 34,AIRLOOPHVAC:RETURNPATH,SYS_4_PSZ_ALL_ST=WHOLEBUILDING_FL=STORY 1_SCH=E RETURN PATH,Outlet,1
 Parent Node Connection,NODE 47,AIRLOOPHVAC:RETURNPATH,SYS_4_PSZ_ALL_ST=WHOLEBUILDING_FL=STORY 1_SCH=E 1 RETURN PATH,Outlet,1
 Parent Node Connection,NODE 57,PLANTLOOP,CHILLED WATER LOOP,Inlet,1
 Parent Node Connection,NODE 58,PLANTLOOP,CHILLED WATER LOOP,Outlet,1
 Parent Node Connection,NODE 60,PLANTLOOP,CHILLED WATER LOOP,Inlet,1
 Parent Node Connection,NODE 61,PLANTLOOP,CHILLED WATER LOOP,Outlet,1
 Parent Node Connection,NODE 58,PLANTLOOP,CHILLED WATER LOOP,Sensor,1
 Parent Node Connection,NODE 70,PLANTLOOP,CONDENSER WATER LOOP,Inlet,1
 Parent Node Connection,NODE 71,PLANTLOOP,CONDENSER WATER LOOP,Outlet,1
 Parent Node Connection,NODE 73,PLANTLOOP,CONDENSER WATER LOOP,Inlet,1
 Parent Node Connection,NODE 74,PLANTLOOP,CONDENSER WATER LOOP,Outlet,1
 Parent Node Connection,NODE 71,PLANTLOOP,CONDENSER WATER LOOP,Sensor,1
 Parent Node Connection,NODE 2,PLANTLOOP,HOT WATER LOOP,Inlet,1
 Parent Node Connection,NODE 3,PLANTLOOP,HOT WATER LOOP,Outlet,1
 Parent Node Connection,NODE 6,PLANTLOOP,HOT WATER LOOP,Inlet,1
 Parent Node Connection,NODE 8,PLANTLOOP,HOT WATER LOOP,Outlet,1
 Parent Node Connection,NODE 3,PLANTLOOP,HOT WATER LOOP,Sensor,1
 Parent Node Connection,NODE 113,PLANTLOOP,MAIN SERVICE WATER LOOP,Inlet,1
[...]
 Non-Parent Node Connection,NODE 43,CONNECTOR:MIXER,HOT WATER LOOP DEMAND MIXER,Inlet,1
 Non-Parent Node Connection,NODE 56,CONNECTOR:MIXER,HOT WATER LOOP DEMAND MIXER,Inlet,1
 Non-Parent Node Connection,NODE 95,CONNECTOR:MIXER,HOT WATER LOOP DEMAND MIXER,Inlet,1
 Non-Parent Node Connection,NODE 112,CONNECTOR:MIXER,HOT WATER LOOP DEMAND MIXER,Inlet,1
 Non-Parent Node Connection,HOT WATER LOOP DEMAND BYPASS PIPE OUTLET NODE,CONNECTOR:MIXER,HOT WATER LOOP DEMAND MIXER,Inlet,1
 Non-Parent Node Connection,NODE 11,CONNECTOR:SPLITTER,HOT WATER LOOP SUPPLY SPLITTER,Inlet,1
 Non-Parent Node Connection,NODE 5,CONNECTOR:SPLITTER,HOT WATER LOOP SUPPLY SPLITTER,Outlet,1
 Non-Parent Node Connection,NODE 14,CONNECTOR:SPLITTER,HOT WATER LOOP SUPPLY SPLITTER,Outlet,1
 Non-Parent Node Connection,NODE 16,CONNECTOR:SPLITTER,HOT WATER LOOP SUPPLY SPLITTER,Outlet,1
 Non-Parent Node Connection,NODE 18,CONNECTOR:MIXER,HOT WATER LOOP SUPPLY MIXER,Outlet,1
 Non-Parent Node Connection,NODE 12,CONNECTOR:MIXER,HOT WATER LOOP SUPPLY MIXER,Inlet,1
 Non-Parent Node Connection,NODE 15,CONNECTOR:MIXER,HOT WATER LOOP SUPPLY MIXER,Inlet,1
 Non-Parent Node Connection,NODE 17,CONNECTOR:MIXER,HOT WATER LOOP SUPPLY MIXER,Inlet,1
 Non-Parent Node Connection,NODE 125,CONNECTOR:SPLITTER,MAIN SERVICE WATER LOOP DEMAND SPLITTER,Inlet,1
 Non-Parent Node Connection,NODE 118,CONNECTOR:SPLITTER,MAIN SERVICE WATER LOOP DEMAND SPLITTER,Outlet,1
 Non-Parent Node Connection,NODE 127,CONNECTOR:SPLITTER,MAIN SERVICE WATER LOOP DEMAND SPLITTER,Outlet,1
 Non-Parent Node Connection,NODE 129,CONNECTOR:SPLITTER,MAIN SERVICE WATER LOOP DEMAND SPLITTER,Outlet,1
 Non-Parent Node Connection,NODE 131,CONNECTOR:SPLITTER,MAIN SERVICE WATER LOOP DEMAND SPLITTER,Outlet,1
 Non-Parent Node Connection,NODE 133,CONNECTOR:SPLITTER,MAIN SERVICE WATER LOOP DEMAND SPLITTER,Outlet,1
 Non-Parent Node Connection,MAIN SERVICE WATER LOOP DEMAND BYPASS PIPE INLET NODE,CONNECTOR:SPLITTER,MAIN SERVICE WATER LOOP DEMAND SPLITTER,Outlet,1
 Non-Parent Node Connection,NODE 126,CONNECTOR:MIXER,MAIN SERVICE WATER LOOP DEMAND MIXER,Outlet,1
 Non-Parent Node Connection,NODE 123,CONNECTOR:MIXER,MAIN SERVICE WATER LOOP DEMAND MIXER,Inlet,1
 Non-Parent Node Connection,NODE 128,CONNECTOR:MIXER,MAIN SERVICE WATER LOOP DEMAND MIXER,Inlet,1
 Non-Parent Node Connection,NODE 130,CONNECTOR:MIXER,MAIN SERVICE WATER LOOP DEMAND MIXER,Inlet,1
 Non-Parent Node Connection,NODE 132,CONNECTOR:MIXER,MAIN SERVICE WATER LOOP DEMAND MIXER,Inlet,1
 Non-Parent Node Connection,NODE 134,CONNECTOR:MIXER,MAIN SERVICE WATER LOOP DEMAND MIXER,Inlet,1
 Non-Parent Node Connection,MAIN SERVICE WATER LOOP DEMAND BYPASS PIPE OUTLET NODE,CONNECTOR:MIXER,MAIN SERVICE WATER LOOP DEMAND MIXER,Inlet,1
 Non-Parent Node Connection,NODE 119,CONNECTOR:SPLITTER,MAIN SERVICE WATER LOOP SUPPLY SPLITTER,Inlet,1
 Non-Parent Node Connection,NODE 115,CONNECTOR:SPLITTER,MAIN SERVICE WATER LOOP SUPPLY SPLITTER,Outlet,1
 Non-Parent Node Connection,NODE 121,CONNECTOR:SPLITTER,MAIN SERVICE WATER LOOP SUPPLY SPLITTER,Outlet,1
 Non-Parent Node Connection,NODE 124,CONNECTOR:MIXER,MAIN SERVICE WATER LOOP SUPPLY MIXER,Outlet,1
 Non-Parent Node Connection,NODE 120,CONNECTOR:MIXER,MAIN SERVICE WATER LOOP SUPPLY MIXER,Inlet,1
 Non-Parent Node Connection,NODE 122,CONNECTOR:MIXER,MAIN SERVICE WATER LOOP SUPPLY MIXER,Inlet,1
 Non-Parent Node Connection,NODE 127,WATERUSE:CONNECTIONS,WATER USE CONNECTIONS 1,Inlet,1
 Non-Parent Node Connection,NODE 128,WATERUSE:CONNECTIONS,WATER USE CONNECTIONS 1,Outlet,1
 Non-Parent Node Connection,NODE 129,WATERUSE:CONNECTIONS,WATER USE CONNECTIONS 2,Inlet,1
 Non-Parent Node Connection,NODE 130,WATERUSE:CONNECTIONS,WATER USE CONNECTIONS 2,Outlet,1
 Non-Parent Node Connection,NODE 131,WATERUSE:CONNECTIONS,WATER USE CONNECTIONS 3,Inlet,1
 Non-Parent Node Connection,NODE 132,WATERUSE:CONNECTIONS,WATER USE CONNECTIONS 3,Outlet,1
 Non-Parent Node Connection,NODE 133,WATERUSE:CONNECTIONS,WATER USE CONNECTIONS 4,Inlet,1
 Non-Parent Node Connection,NODE 134,WATERUSE:CONNECTIONS,WATER USE CONNECTIONS 4,Outlet,1
 Non-Parent Node Connection,NODE 86,AIRLOOPHVAC:ZONESPLITTER,AIR LOOP HVAC ZONE SPLITTER 4,Inlet,1
 Non-Parent Node Connection,NODE 88,AIRLOOPHVAC:ZONESPLITTER,AIR LOOP HVAC ZONE SPLITTER 4,Outlet,1
 Non-Parent Node Connection,NODE 102,AIRLOOPHVAC:ZONESPLITTER,AIR LOOP HVAC ZONE SPLITTER 5,Inlet,1
 Non-Parent Node Connection,NODE 104,AIRLOOPHVAC:ZONESPLITTER,AIR LOOP HVAC ZONE SPLITTER 5,Outlet,1
 Non-Parent Node Connection,NODE 21,AIRLOOPHVAC:ZONESPLITTER,AIR LOOP HVAC ZONE SPLITTER 1,Inlet,1
 Non-Parent Node Connection,NODE 23,AIRLOOPHVAC:ZONESPLITTER,AIR LOOP HVAC ZONE SPLITTER 1,Outlet,1
 Non-Parent Node Connection,NODE 33,AIRLOOPHVAC:ZONESPLITTER,AIR LOOP HVAC ZONE SPLITTER 2,Inlet,1
 Non-Parent Node Connection,NODE 35,AIRLOOPHVAC:ZONESPLITTER,AIR LOOP HVAC ZONE SPLITTER 2,Outlet,1
 Non-Parent Node Connection,NODE 46,AIRLOOPHVAC:ZONESPLITTER,AIR LOOP HVAC ZONE SPLITTER 3,Inlet,1
 Non-Parent Node Connection,NODE 48,AIRLOOPHVAC:ZONESPLITTER,AIR LOOP HVAC ZONE SPLITTER 3,Outlet,1
 Non-Parent Node Connection,NODE 23,AIRTERMINAL:SINGLEDUCT:UNCONTROLLED,AIR TERMINAL SINGLE DUCT UNCONTROLLED 1,Outlet,1
 Non-Parent Node Connection,NODE 88,AIRTERMINAL:SINGLEDUCT:UNCONTROLLED,AIR TERMINAL SINGLE DUCT UNCONTROLLED 4,Outlet,1
 Non-Parent Node Connection,NODE 104,AIRTERMINAL:SINGLEDUCT:UNCONTROLLED,AIR TERMINAL SINGLE DUCT UNCONTROLLED 5,Outlet,1
 Non-Parent Node Connection,NODE 35,AIRTERMINAL:SINGLEDUCT:UNCONTROLLED,AIR TERMINAL SINGLE DUCT UNCONTROLLED 2,Outlet,1
 Non-Parent Node Connection,NODE 48,AIRTERMINAL:SINGLEDUCT:UNCONTROLLED,AIR TERMINAL SINGLE DUCT UNCONTROLLED 3,Outlet,1
 Non-Parent Node Connection,NODE 9,ZONEHVAC:BASEBOARD:CONVECTIVE:WATER,ZONE HVAC BASEBOARD CONVECTIVE WATER 1,Inlet,1
 Non-Parent Node Connection,NODE 30,ZONEHVAC:BASEBOARD:CONVECTIVE:WATER,ZONE HVAC BASEBOARD CONVECTIVE WATER 1,Outlet,1
 Non-Parent Node Connection,NODE 111,ZONEHVAC:BASEBOARD:CONVECTIVE:WATER,ZONE HVAC BASEBOARD CONVECTIVE WATER 4,Inlet,1
 Non-Parent Node Connection,NODE 112,ZONEHVAC:BASEBOARD:CONVECTIVE:WATER,ZONE HVAC BASEBOARD CONVECTIVE WATER 4,Outlet,1
 Non-Parent Node Connection,NODE 42,ZONEHVAC:BASEBOARD:CONVECTIVE:WATER,ZONE HVAC BASEBOARD CONVECTIVE WATER 2,Inlet,1
 Non-Parent Node Connection,NODE 43,ZONEHVAC:BASEBOARD:CONVECTIVE:WATER,ZONE HVAC BASEBOARD CONVECTIVE WATER 2,Outlet,1
 Non-Parent Node Connection,NODE 55,ZONEHVAC:BASEBOARD:CONVECTIVE:WATER,ZONE HVAC BASEBOARD CONVECTIVE WATER 3,Inlet,1
 Non-Parent Node Connection,NODE 56,ZONEHVAC:BASEBOARD:CONVECTIVE:WATER,ZONE HVAC BASEBOARD CONVECTIVE WATER 3,Outlet,1
 Non-Parent Node Connection,ZONE HVAC FOUR PIPE FAN COIL 1 MIXED AIR NODE,OUTDOORAIR:MIXER,ZONE HVAC FOUR PIPE FAN COIL 1 OA MIXER,Outlet,1
 Non-Parent Node Connection,ZONE HVAC FOUR PIPE FAN COIL 1 OA NODE,OUTDOORAIR:MIXER,ZONE HVAC FOUR PIPE FAN COIL 1 OA MIXER,Inlet,1
 Non-Parent Node Connection,ZONE HVAC FOUR PIPE FAN COIL 1 RELIEF AIR NODE,OUTDOORAIR:MIXER,ZONE HVAC FOUR PIPE FAN COIL 1 OA MIXER,ReliefAir,1
 Non-Parent Node Connection,NODE 97,OUTDOORAIR:MIXER,ZONE HVAC FOUR PIPE FAN COIL 1 OA MIXER,Inlet,1
 Non-Parent Node Connection,NODE 93,OUTDOORAIR:MIXER,AIR LOOP HVAC OUTDOOR AIR SYSTEM 4 OUTDOOR AIR MIXER,Outlet,1
 Non-Parent Node Connection,NODE 89,OUTDOORAIR:MIXER,AIR LOOP HVAC OUTDOOR AIR SYSTEM 4 OUTDOOR AIR MIXER,Inlet,1
 Non-Parent Node Connection,NODE 90,OUTDOORAIR:MIXER,AIR LOOP HVAC OUTDOOR AIR SYSTEM 4 OUTDOOR AIR MIXER,ReliefAir,1
 Non-Parent Node Connection,NODE 84,OUTDOORAIR:MIXER,AIR LOOP HVAC OUTDOOR AIR SYSTEM 4 OUTDOOR AIR MIXER,Inlet,1
 Non-Parent Node Connection,NODE 109,OUTDOORAIR:MIXER,AIR LOOP HVAC OUTDOOR AIR SYSTEM 5 OUTDOOR AIR MIXER,Outlet,1
 Non-Parent Node Connection,NODE 105,OUTDOORAIR:MIXER,AIR LOOP HVAC OUTDOOR AIR SYSTEM 5 OUTDOOR AIR MIXER,Inlet,1
 Non-Parent Node Connection,NODE 106,OUTDOORAIR:MIXER,AIR LOOP HVAC OUTDOOR AIR SYSTEM 5 OUTDOOR AIR MIXER,ReliefAir,1
 Non-Parent Node Connection,NODE 100,OUTDOORAIR:MIXER,AIR LOOP HVAC OUTDOOR AIR SYSTEM 5 OUTDOOR AIR MIXER,Inlet,1
 Non-Parent Node Connection,NODE 28,OUTDOORAIR:MIXER,AIR LOOP HVAC OUTDOOR AIR SYSTEM 1 OUTDOOR AIR MIXER,Outlet,1
 Non-Parent Node Connection,NODE 24,OUTDOORAIR:MIXER,AIR LOOP HVAC OUTDOOR AIR SYSTEM 1 OUTDOOR AIR MIXER,Inlet,1
 Non-Parent Node Connection,NODE 25,OUTDOORAIR:MIXER,AIR LOOP HVAC OUTDOOR AIR SYSTEM 1 OUTDOOR AIR MIXER,ReliefAir,1
 Non-Parent Node Connection,NODE 19,OUTDOORAIR:MIXER,AIR LOOP HVAC OUTDOOR AIR SYSTEM 1 OUTDOOR AIR MIXER,Inlet,1
 Non-Parent Node Connection,NODE 40,OUTDOORAIR:MIXER,AIR LOOP HVAC OUTDOOR AIR SYSTEM 2 OUTDOOR AIR MIXER,Outlet,1
 Non-Parent Node Connection,NODE 136,OUTDOORAIR:MIXER,AIR LOOP HVAC OUTDOOR AIR SYSTEM 2 OUTDOOR AIR MIXER,Inlet,1
 Non-Parent Node Connection,NODE 137,OUTDOORAIR:MIXER,AIR LOOP HVAC OUTDOOR AIR SYSTEM 2 OUTDOOR AIR MIXER,ReliefAir,1
 Non-Parent Node Connection,NODE 31,OUTDOORAIR:MIXER,AIR LOOP HVAC OUTDOOR AIR SYSTEM 2 OUTDOOR AIR MIXER,Inlet,1
 Non-Parent Node Connection,NODE 53,OUTDOORAIR:MIXER,AIR LOOP HVAC OUTDOOR AIR SYSTEM 3 OUTDOOR AIR MIXER,Outlet,1
 Non-Parent Node Connection,NODE 138,OUTDOORAIR:MIXER,AIR LOOP HVAC OUTDOOR AIR SYSTEM 3 OUTDOOR AIR MIXER,Inlet,1
 Non-Parent Node Connection,NODE 139,OUTDOORAIR:MIXER,AIR LOOP HVAC OUTDOOR AIR SYSTEM 3 OUTDOOR AIR MIXER,ReliefAir,1
 Non-Parent Node Connection,NODE 44,OUTDOORAIR:MIXER,AIR LOOP HVAC OUTDOOR AIR SYSTEM 3 OUTDOOR AIR MIXER,Inlet,1
 Non-Parent Node Connection,NODE 94,COIL:HEATING:WATER,COIL HEATING WATER 1,Inlet,2
 Non-Parent Node Connection,NODE 95,COIL:HEATING:WATER,COIL HEATING WATER 1,Outlet,2
 Non-Parent Node Connection,ZONE HVAC FOUR PIPE FAN COIL 1 COOLING COIL OUTLET NODE,COIL:HEATING:WATER,COIL HEATING WATER 1,Inlet,1
 Non-Parent Node Connection,NODE 98,COIL:HEATING:WATER,COIL HEATING WATER 1,Outlet,1
 Non-Parent Node Connection,NODE 62,COIL:COOLING:WATER,COIL COOLING WATER 1,Inlet,2
 Non-Parent Node Connection,NODE 96,COIL:COOLING:WATER,COIL COOLING WATER 1,Outlet,2
 Non-Parent Node Connection,ZONE HVAC FOUR PIPE FAN COIL 1 FAN OUTLET NODE,COIL:COOLING:WATER,COIL COOLING WATER 1,Inlet,1
 Non-Parent Node Connection,ZONE HVAC FOUR PIPE FAN COIL 1 COOLING COIL OUTLET NODE,COIL:COOLING:WATER,COIL COOLING WATER 1,Outlet,1
 Non-Parent Node Connection,ZONE HVAC FOUR PIPE FAN COIL 1 MIXED AIR NODE,FAN:CONSTANTVOLUME,FAN CONSTANT VOLUME 5,Inlet,1
 Non-Parent Node Connection,ZONE HVAC FOUR PIPE FAN COIL 1 FAN OUTLET NODE,FAN:CONSTANTVOLUME,FAN CONSTANT VOLUME 5,Outlet,1
 Non-Parent Node Connection,NODE 91,FAN:CONSTANTVOLUME,FAN CONSTANT VOLUME 4,Inlet,1
 Non-Parent Node Connection,NODE 85,FAN:CONSTANTVOLUME,FAN CONSTANT VOLUME 4,Outlet,1
 Non-Parent Node Connection,NODE 107,FAN:CONSTANTVOLUME,FAN CONSTANT VOLUME 6,Inlet,1
 Non-Parent Node Connection,NODE 101,FAN:CONSTANTVOLUME,FAN CONSTANT VOLUME 6,Outlet,1
 Non-Parent Node Connection,NODE 26,FAN:CONSTANTVOLUME,FAN CONSTANT VOLUME 1,Inlet,1
 Non-Parent Node Connection,NODE 20,FAN:CONSTANTVOLUME,FAN CONSTANT VOLUME 1,Outlet,1
 Non-Parent Node Connection,NODE 38,FAN:CONSTANTVOLUME,FAN CONSTANT VOLUME 2,Inlet,1
 Non-Parent Node Connection,NODE 32,FAN:CONSTANTVOLUME,FAN CONSTANT VOLUME 2,Outlet,1
 Non-Parent Node Connection,NODE 51,FAN:CONSTANTVOLUME,FAN CONSTANT VOLUME 3,Inlet,1
 Non-Parent Node Connection,NODE 45,FAN:CONSTANTVOLUME,FAN CONSTANT VOLUME 3,Outlet,1
 Non-Parent Node Connection,NODE 87,AIRLOOPHVAC:ZONEMIXER,AIR LOOP HVAC ZONE MIXER 4,Outlet,1
 Non-Parent Node Connection,NODE 99,AIRLOOPHVAC:ZONEMIXER,AIR LOOP HVAC ZONE MIXER 4,Inlet,1
 Non-Parent Node Connection,NODE 103,AIRLOOPHVAC:ZONEMIXER,AIR LOOP HVAC ZONE MIXER 5,Outlet,1
 Non-Parent Node Connection,NODE 110,AIRLOOPHVAC:ZONEMIXER,AIR LOOP HVAC ZONE MIXER 5,Inlet,1
 Non-Parent Node Connection,NODE 22,AIRLOOPHVAC:ZONEMIXER,AIR LOOP HVAC ZONE MIXER 1,Outlet,1
 Non-Parent Node Connection,NODE 29,AIRLOOPHVAC:ZONEMIXER,AIR LOOP HVAC ZONE MIXER 1,Inlet,1
 Non-Parent Node Connection,NODE 34,AIRLOOPHVAC:ZONEMIXER,AIR LOOP HVAC ZONE MIXER 2,Outlet,1
 Non-Parent Node Connection,NODE 41,AIRLOOPHVAC:ZONEMIXER,AIR LOOP HVAC ZONE MIXER 2,Inlet,1
 Non-Parent Node Connection,NODE 47,AIRLOOPHVAC:ZONEMIXER,AIR LOOP HVAC ZONE MIXER 3,Outlet,1
 Non-Parent Node Connection,NODE 54,AIRLOOPHVAC:ZONEMIXER,AIR LOOP HVAC ZONE MIXER 3,Inlet,1
 Non-Parent Node Connection,NODE 93,CONTROLLER:OUTDOORAIR,CONTROLLER OUTDOOR AIR 4,Sensor,1
 Non-Parent Node Connection,NODE 89,CONTROLLER:OUTDOORAIR,CONTROLLER OUTDOOR AIR 4,Actuator,1
 Non-Parent Node Connection,NODE 90,CONTROLLER:OUTDOORAIR,CONTROLLER OUTDOOR AIR 4,Actuator,1
 Non-Parent Node Connection,NODE 84,CONTROLLER:OUTDOORAIR,CONTROLLER OUTDOOR AIR 4,Sensor,1
 Non-Parent Node Connection,NODE 109,CONTROLLER:OUTDOORAIR,CONTROLLER OUTDOOR AIR 5,Sensor,1
 Non-Parent Node Connection,NODE 105,CONTROLLER:OUTDOORAIR,CONTROLLER OUTDOOR AIR 5,Actuator,1
 Non-Parent Node Connection,NODE 106,CONTROLLER:OUTDOORAIR,CONTROLLER OUTDOOR AIR 5,Actuator,1
 Non-Parent Node Connection,NODE 100,CONTROLLER:OUTDOORAIR,CONTROLLER OUTDOOR AIR 5,Sensor,1
 Non-Parent Node Connection,NODE 28,CONTROLLER:OUTDOORAIR,CONTROLLER OUTDOOR AIR 1,Sensor,1
 Non-Parent Node Connection,NODE 24,CONTROLLER:OUTDOORAIR,CONTROLLER OUTDOOR AIR 1,Actuator,1
 Non-Parent Node Connection,NODE 25,CONTROLLER:OUTDOORAIR,CONTROLLER OUTDOOR AIR 1,Actuator,1
 Non-Parent Node Connection,NODE 19,CONTROLLER:OUTDOORAIR,CONTROLLER OUTDOOR AIR 1,Sensor,1
 Non-Parent Node Connection,NODE 40,CONTROLLER:OUTDOORAIR,CONTROLLER OUTDOOR AIR 2,Sensor,1
 Non-Parent Node Connection,NODE 36,CONTROLLER:OUTDOORAIR,CONTROLLER OUTDOOR AIR 2,Actuator,1
 Non-Parent Node Connection,NODE 137,CONTROLLER:OUTDOORAIR,CONTROLLER OUTDOOR AIR 2,Actuator,1
 Non-Parent Node Connection,NODE 31,CONTROLLER:OUTDOORAIR,CONTROLLER OUTDOOR AIR 2,Sensor,1
 Non-Parent Node Connection,NODE 53,CONTROLLER:OUTDOORAIR,CONTROLLER OUTDOOR AIR 3,Sensor,1
 Non-Parent Node Connection,NODE 49,CONTROLLER:OUTDOORAIR,CONTROLLER OUTDOOR AIR 3,Actuator,1
 Non-Parent Node Connection,NODE 139,CONTROLLER:OUTDOORAIR,CONTROLLER OUTDOOR AIR 3,Actuator,1
 Non-Parent Node Connection,NODE 44,CONTROLLER:OUTDOORAIR,CONTROLLER OUTDOOR AIR 3,Sensor,1
 Non-Parent Node Connection,NODE 93,COIL:COOLING:DX:SINGLESPEED,COIL COOLING DX SINGLE SPEED 4 44KBTU/HR 14.0SEER,Inlet,1
 Non-Parent Node Connection,NODE 92,COIL:COOLING:DX:SINGLESPEED,COIL COOLING DX SINGLE SPEED 4 44KBTU/HR 14.0SEER,Outlet,1
 Non-Parent Node Connection,NODE 109,COIL:COOLING:DX:SINGLESPEED,COIL COOLING DX SINGLE SPEED 5 159KBTU/HR 9.7EER,Inlet,1
 Non-Parent Node Connection,NODE 108,COIL:COOLING:DX:SINGLESPEED,COIL COOLING DX SINGLE SPEED 5 159KBTU/HR 9.7EER,Outlet,1
 Non-Parent Node Connection,NODE 28,COIL:COOLING:DX:SINGLESPEED,COIL COOLING DX SINGLE SPEED 1 60KBTU/HR 14.0SEER,Inlet,1
 Non-Parent Node Connection,NODE 27,COIL:COOLING:DX:SINGLESPEED,COIL COOLING DX SINGLE SPEED 1 60KBTU/HR 14.0SEER,Outlet,1
 Non-Parent Node Connection,NODE 40,COIL:COOLING:DX:SINGLESPEED,COIL COOLING DX SINGLE SPEED 2 139KBTU/HR 9.7EER,Inlet,1
 Non-Parent Node Connection,NODE 39,COIL:COOLING:DX:SINGLESPEED,COIL COOLING DX SINGLE SPEED 2 139KBTU/HR 9.7EER,Outlet,1
 Non-Parent Node Connection,NODE 53,COIL:COOLING:DX:SINGLESPEED,COIL COOLING DX SINGLE SPEED 3 139KBTU/HR 9.7EER,Inlet,1
 Non-Parent Node Connection,NODE 52,COIL:COOLING:DX:SINGLESPEED,COIL COOLING DX SINGLE SPEED 3 139KBTU/HR 9.7EER,Outlet,1
 Non-Parent Node Connection,NODE 92,COIL:HEATING:FUEL,COIL HEATING GAS 4,Inlet,1
 Non-Parent Node Connection,NODE 91,COIL:HEATING:FUEL,COIL HEATING GAS 4,Outlet,1
 Non-Parent Node Connection,NODE 91,COIL:HEATING:FUEL,COIL HEATING GAS 4,Sensor,1
 Non-Parent Node Connection,NODE 108,COIL:HEATING:FUEL,COIL HEATING GAS 5,Inlet,1
 Non-Parent Node Connection,NODE 107,COIL:HEATING:FUEL,COIL HEATING GAS 5,Outlet,1
 Non-Parent Node Connection,NODE 107,COIL:HEATING:FUEL,COIL HEATING GAS 5,Sensor,1
 Non-Parent Node Connection,NODE 27,COIL:HEATING:FUEL,COIL HEATING GAS 1,Inlet,1
 Non-Parent Node Connection,NODE 26,COIL:HEATING:FUEL,COIL HEATING GAS 1,Outlet,1
 Non-Parent Node Connection,NODE 26,COIL:HEATING:FUEL,COIL HEATING GAS 1,Sensor,1
 Non-Parent Node Connection,NODE 39,COIL:HEATING:FUEL,COIL HEATING GAS 2,Inlet,1
 Non-Parent Node Connection,NODE 38,COIL:HEATING:FUEL,COIL HEATING GAS 2,Outlet,1
 Non-Parent Node Connection,NODE 38,COIL:HEATING:FUEL,COIL HEATING GAS 2,Sensor,1
 Non-Parent Node Connection,NODE 52,COIL:HEATING:FUEL,COIL HEATING GAS 3,Inlet,1
 Non-Parent Node Connection,NODE 51,COIL:HEATING:FUEL,COIL HEATING GAS 3,Outlet,1
 Non-Parent Node Connection,NODE 51,COIL:HEATING:FUEL,COIL HEATING GAS 3,Sensor,1
 Non-Parent Node Connection,NODE 36,HEATEXCHANGER:AIRTOAIR:SENSIBLEANDLATENT,SYS_4_PSZ_ALL_ST=WHOLEBUILDING_FL=STORY 1_SCH=E ERV,Inlet,1
 Non-Parent Node Connection,NODE 136,HEATEXCHANGER:AIRTOAIR:SENSIBLEANDLATENT,SYS_4_PSZ_ALL_ST=WHOLEBUILDING_FL=STORY 1_SCH=E ERV,Outlet,1
 Non-Parent Node Connection,NODE 137,HEATEXCHANGER:AIRTOAIR:SENSIBLEANDLATENT,SYS_4_PSZ_ALL_ST=WHOLEBUILDING_FL=STORY 1_SCH=E ERV,Inlet,2
 Non-Parent Node Connection,NODE 37,HEATEXCHANGER:AIRTOAIR:SENSIBLEANDLATENT,SYS_4_PSZ_ALL_ST=WHOLEBUILDING_FL=STORY 1_SCH=E ERV,Outlet,2
 Non-Parent Node Connection,NODE 49,HEATEXCHANGER:AIRTOAIR:SENSIBLEANDLATENT,SYS_4_PSZ_ALL_ST=WHOLEBUILDING_FL=STORY 1_SCH=E 1 ERV,Inlet,1
 Non-Parent Node Connection,NODE 138,HEATEXCHANGER:AIRTOAIR:SENSIBLEANDLATENT,SYS_4_PSZ_ALL_ST=WHOLEBUILDING_FL=STORY 1_SCH=E 1 ERV,Outlet,1
 Non-Parent Node Connection,NODE 139,HEATEXCHANGER:AIRTOAIR:SENSIBLEANDLATENT,SYS_4_PSZ_ALL_ST=WHOLEBUILDING_FL=STORY 1_SCH=E 1 ERV,Inlet,2
 Non-Parent Node Connection,NODE 50,HEATEXCHANGER:AIRTOAIR:SENSIBLEANDLATENT,SYS_4_PSZ_ALL_ST=WHOLEBUILDING_FL=STORY 1_SCH=E 1 ERV,Outlet,2
 Non-Parent Node Connection,NODE 59,CHILLER:ELECTRIC:EIR,PRIMARY CHILLER WATERCOOLED SCROLL 3TONS 0.8KW/TON,Inlet,1
 Non-Parent Node Connection,NODE 64,CHILLER:ELECTRIC:EIR,PRIMARY CHILLER WATERCOOLED SCROLL 3TONS 0.8KW/TON,Outlet,1
 Non-Parent Node Connection,NODE 75,CHILLER:ELECTRIC:EIR,PRIMARY CHILLER WATERCOOLED SCROLL 3TONS 0.8KW/TON,Inlet,2
 Non-Parent Node Connection,NODE 81,CHILLER:ELECTRIC:EIR,PRIMARY CHILLER WATERCOOLED SCROLL 3TONS 0.8KW/TON,Outlet,2
 Non-Parent Node Connection,NODE 65,CHILLER:ELECTRIC:EIR,SECONDARY CHILLER WATERCOOLED SCROLL 0TONS 0.8KW/TON,Inlet,1
 Non-Parent Node Connection,NODE 66,CHILLER:ELECTRIC:EIR,SECONDARY CHILLER WATERCOOLED SCROLL 0TONS 0.8KW/TON,Outlet,1
 Non-Parent Node Connection,NODE 82,CHILLER:ELECTRIC:EIR,SECONDARY CHILLER WATERCOOLED SCROLL 0TONS 0.8KW/TON,Inlet,2
 Non-Parent Node Connection,NODE 83,CHILLER:ELECTRIC:EIR,SECONDARY CHILLER WATERCOOLED SCROLL 0TONS 0.8KW/TON,Outlet,2
 Non-Parent Node Connection,NODE 72,COOLINGTOWER:SINGLESPEED,COOLING TOWER SINGLE SPEED 1,Inlet,1
 Non-Parent Node Connection,NODE 77,COOLINGTOWER:SINGLESPEED,COOLING TOWER SINGLE SPEED 1,Outlet,1
 Non-Parent Node Connection,NODE 5,BOILER:HOTWATER,PRIMARY BOILER 261KBTU/HR 0.85 AFUE,Inlet,1
 Non-Parent Node Connection,NODE 12,BOILER:HOTWATER,PRIMARY BOILER 261KBTU/HR 0.85 AFUE,Outlet,1
 Non-Parent Node Connection,NODE 14,BOILER:HOTWATER,SECONDARY BOILER 0KBTU/HR 0.85 AFUE,Inlet,1
 Non-Parent Node Connection,NODE 15,BOILER:HOTWATER,SECONDARY BOILER 0KBTU/HR 0.85 AFUE,Outlet,1
 Non-Parent Node Connection,NODE 2,PUMP:VARIABLESPEED,PUMP VARIABLE SPEED 1,Inlet,1
 Non-Parent Node Connection,NODE 11,PUMP:VARIABLESPEED,PUMP VARIABLE SPEED 1,Outlet,1
 Non-Parent Node Connection,NODE 57,PUMP:CONSTANTSPEED,PUMP CONSTANT SPEED 1,Inlet,1
 Non-Parent Node Connection,NODE 63,PUMP:CONSTANTSPEED,PUMP CONSTANT SPEED 1,Outlet,1
 Non-Parent Node Connection,NODE 70,PUMP:CONSTANTSPEED,PUMP CONSTANT SPEED 2,Inlet,1
 Non-Parent Node Connection,NODE 76,PUMP:CONSTANTSPEED,PUMP CONSTANT SPEED 2,Outlet,1
 Non-Parent Node Connection,NODE 113,PUMP:CONSTANTSPEED,SERVICE WATER LOOP PUMP,Inlet,1
 Non-Parent Node Connection,NODE 119,PUMP:CONSTANTSPEED,SERVICE WATER LOOP PUMP,Outlet,1
