Program Version,EnergyPlus, Version 8.9.0-eba93e8e1b, YMD=2019.03.28 13:10
! <Version>, Version ID
 Version, 8.9
! <Timesteps per Hour>, #TimeSteps, Minutes per TimeStep {minutes}
 Timesteps per Hour,  6, 10
! <System Convergence Limits>, Minimum System TimeStep {minutes}, Max HVAC Iterations, Minimum Plant Iterations, Maximum Plant Iterations
 System Convergence Limits, 1, 20, 2, 8
! <Simulation Control>, Do Zone Sizing, Do System Sizing, Do Plant Sizing, Do Design Days, Do Weather Simulation, Do HVAC Sizing Simulation
 Simulation Control, Yes, No, No, Yes, No, No
! <Output Reporting Tolerances>, Tolerance for Time Heating Setpoint Not Met, Tolerance for Zone Cooling Setpoint Not Met Time
 Output Reporting Tolerances, 0.200, 0.200, 
! <Site:GroundTemperature:BuildingSurface>,Jan{C},Feb{C},Mar{C},Apr{C},May{C},Jun{C},Jul{C},Aug{C},Sep{C},Oct{C},Nov{C},Dec{C}
 Site:GroundTemperature:BuildingSurface,  19.53,  19.50,  19.54,  19.60,  20.00,  21.64,  22.23,  22.38,  21.45,  20.12,  19.80,  19.63
! <Site:GroundTemperature:FCfactorMethod>,Jan{C},Feb{C},Mar{C},Apr{C},May{C},Jun{C},Jul{C},Aug{C},Sep{C},Oct{C},Nov{C},Dec{C}
 Site:GroundTemperature:FCfactorMethod, -12.27, -13.66, -11.19,  -7.33,   2.77,  10.57,  15.83,  17.43,  14.70,   8.65,   0.56,  -6.95
! <Site:GroundTemperature:Shallow>,Jan{C},Feb{C},Mar{C},Apr{C},May{C},Jun{C},Jul{C},Aug{C},Sep{C},Oct{C},Nov{C},Dec{C}
 Site:GroundTemperature:Shallow,  13.00,  13.00,  13.00,  13.00,  13.00,  13.00,  13.00,  13.00,  13.00,  13.00,  13.00,  13.00
! <Site:GroundTemperature:Deep>,Jan{C},Feb{C},Mar{C},Apr{C},May{C},Jun{C},Jul{C},Aug{C},Sep{C},Oct{C},Nov{C},Dec{C}
 Site:GroundTemperature:Deep,  16.00,  16.00,  16.00,  16.00,  16.00,  16.00,  16.00,  16.00,  16.00,  16.00,  16.00,  16.00
! <Site:GroundReflectance>,Jan{dimensionless},Feb{dimensionless},Mar{dimensionless},Apr{dimensionless},May{dimensionless},Jun{dimensionless},Jul{dimensionless},Aug{dimensionless},Sep{dimensionless},Oct{dimensionless},Nov{dimensionless},Dec{dimensionless}
 Site:GroundReflectance,  0.20,  0.20,  0.20,  0.20,  0.20,  0.20,  0.20,  0.20,  0.20,  0.20,  0.20,  0.20
! <Site:GroundReflectance:SnowModifier>, Normal, Daylighting {dimensionless}
 Site:GroundReflectance:SnowModifier,   1.000,   1.000
! <Site:GroundReflectance:Snow>,Jan{dimensionless},Feb{dimensionless},Mar{dimensionless},Apr{dimensionless},May{dimensionless},Jun{dimensionless},Jul{dimensionless},Aug{dimensionless},Sep{dimensionless},Oct{dimensionless},Nov{dimensionless},Dec{dimensionless}
 Site:GroundReflectance:Snow,  0.20,  0.20,  0.20,  0.20,  0.20,  0.20,  0.20,  0.20,  0.20,  0.20,  0.20,  0.20
! <Site:GroundReflectance:Snow:Daylighting>,Jan{dimensionless},Feb{dimensionless},Mar{dimensionless},Apr{dimensionless},May{dimensionless},Jun{dimensionless},Jul{dimensionless},Aug{dimensionless},Sep{dimensionless},Oct{dimensionless},Nov{dimensionless},Dec{dimensionless}
 Site:GroundReflectance:Snow:Daylighting,  0.20,  0.20,  0.20,  0.20,  0.20,  0.20,  0.20,  0.20,  0.20,  0.20,  0.20,  0.20
! <Environment:Weather Station>,Wind Sensor Height Above Ground {m},Wind Speed Profile Exponent {},Wind Speed Profile Boundary Layer Thickness {m},Air Temperature Sensor Height Above Ground {m},Wind Speed Modifier Coefficient-Internal,Temperature Modifier Coefficient-Internal
Environment:Weather Station,10.000,0.140,270.000,1.500,1.586,9.750E-003
! <Site:Location>, Location Name, Latitude {N+/S- Deg}, Longitude {E+/W- Deg},  Time Zone Number {GMT+/-}, Elevation {m},  Standard Pressure at Elevation {Pa}, Standard RhoAir at Elevation
Site:Location,Fort McMurray AP AB CAN CWEC2016 WMO#=716890,56.65,-111.22,-7.00,369.10,96969,1.1525
! <Building Information>, Building Name,North Axis {deg},Terrain,  Loads Convergence Tolerance Value,Temperature Convergence Tolerance Value,  Solar Distribution,Maximum Number of Warmup Days,Minimum Number of Warmup Days
 Building Information,Building 1,0.000,Suburbs,4.00000E-002,0.40000,FullExterior,25,6
! <Inside Convection Algorithm>, Algorithm {Simple | TARP | CeilingDiffuser | AdaptiveConvectionAlgorithm}
Inside Convection Algorithm,TARP
! <Outside Convection Algorithm>, Algorithm {SimpleCombined | TARP | MoWitt | DOE-2 | AdaptiveConvectionAlgorithm}
Outside Convection Algorithm,TARP
! <Sky Radiance Distribution>, Value {Anisotropic}
Sky Radiance Distribution,Anisotropic
! <Zone Air Solution Algorithm>, Value {ThirdOrderBackwardDifference | AnalyticalSolution | EulerMethod}
 Zone Air Solution Algorithm, ThirdOrderBackwardDifference
! <Zone Air Carbon Dioxide Balance Simulation>, Simulation {Yes/No}, Carbon Dioxide Concentration
 Zone Air Carbon Dioxide Balance Simulation, No,N/A
! <Zone Air Generic Contaminant Balance Simulation>, Simulation {Yes/No}, Generic Contaminant Concentration
 Zone Air Generic Contaminant Balance Simulation, No,N/A
! <Zone Air Mass Flow Balance Simulation>, Enforce Mass Balance, Adjust Zone Mixing, Adjust Zone Infiltration {AddInfiltration | AdjustInfiltration | None}, Infiltration Zones {MixingSourceZonesOnly | AllZones}
 Zone Air Mass Flow Balance Simulation, No,N/A,N/A,N/A
! <HVACSystemRootFindingAlgorithm>, Value {RegulaFalsi | Bisection | BisectionThenRegulaFalsi | RegulaFalsiThenBisection}
 HVACSystemRootFindingAlgorithm, RegulaFalsi
! <Environment:Site Atmospheric Variation>,Wind Speed Profile Exponent {},Wind Speed Profile Boundary Layer Thickness {m},Air Temperature Gradient Coefficient {K/m}
Environment:Site Atmospheric Variation,0.220,370.000,6.500000E-003
! <Surface Geometry>,Starting Corner,Vertex Input Direction,Coordinate System,Daylight Reference Point Coordinate System,Rectangular (Simple) Surface Coordinate System
 Surface Geometry,UpperLeftCorner,Counterclockwise,RelativeCoordinateSystem,RelativeCoordinateSystem,RelativeToZoneOrigin
! <Surface Heat Transfer Algorithm>, Value {CTF - ConductionTransferFunction | EMPD - MoisturePenetrationDepthConductionTransferFunction | CondFD - ConductionFiniteDifference | HAMT - CombinedHeatAndMoistureFiniteElement} - Description,Inside Surface Max Temperature Limit{C}, Surface Convection Coefficient Lower Limit {W/m2-K}, Surface Convection Coefficient Upper Limit {W/m2-K}
Surface Heat Transfer Algorithm, CTF - ConductionTransferFunction,200,0.10,1000.0
! <Shading Summary>, Number of Fixed Detached Shades, Number of Building Detached Shades, Number of Attached Shades
 Shading Summary,0,0,0
! <Zone Summary>, Number of Zones, Number of Zone Surfaces, Number of SubSurfaces
 Zone Summary,20,137,17
! <Zone Information>,Zone Name,North Axis {deg},Origin X-Coordinate {m},Origin Y-Coordinate {m},Origin Z-Coordinate {m},Centroid X-Coordinate {m},Centroid Y-Coordinate {m},Centroid Z-Coordinate {m},Type,Zone Multiplier,Zone List Multiplier,Minimum X {m},Maximum X {m},Minimum Y {m},Maximum Y {m},Minimum Z {m},Maximum Z {m},Ceiling Height {m},Volume {m3},Zone Inside Convection Algorithm {Simple-Detailed-CeilingDiffuser-TrombeWall},Zone Outside Convection Algorithm {Simple-Detailed-Tarp-MoWitt-DOE-2-BLAST}, Floor Area {m2},Exterior Gross Wall Area {m2},Exterior Net Wall Area {m2},Exterior Window Area {m2}, Number of Surfaces, Number of SubSurfaces, Number of Shading SubSurfaces,  Part of Total Building Area
 Zone Information, ATRIUM - H < 13M-SPACE FUNCTION ZN,0.0,25.00,75.00,0.00,50.00,89.15,1.90,1,1,1,0.00,100.00,75.00,100.00,0.00,3.80,3.80,7125.00,TARP,TARP,1875.00,0.00,0.00,0.00,6,0,0,Yes
 Zone Information, ATRIUM - H > 13M-SPACE FUNCTION ZN,0.0,0.00,0.00,11.40,10.85,50.00,13.30,1,1,1,0.00,25.00,0.00,100.00,11.40,15.20,3.80,7125.00,TARP,TARP,1875.00,380.00,285.00,188.75,6,2,0,Yes
 Zone Information, AUDIENCE - AUDITORIUM-SPACE FUNCTION ZN,0.0,25.00,25.00,3.80,50.00,50.00,5.70,1,1,1,25.00,75.00,25.00,75.00,3.80,7.60,3.80,9500.00,TARP,TARP,2500.00,0.00,0.00,0.00,6,0,0,Yes
 Zone Information, AUDIENCE - MOTION PICTURE-SPACE FUNCTION ZN,0.0,75.00,25.00,11.40,89.15,50.00,13.30,1,1,1,75.00,100.00,0.00,100.00,11.40,15.20,3.80,7125.00,TARP,TARP,1875.00,380.00,285.00,188.75,6,2,0,Yes
 Zone Information, AUDIENCE - PERFORMANCE ARTS-SPACE FUNCTION ZN,0.0,25.00,75.00,11.40,50.00,89.15,13.30,1,1,1,0.00,100.00,75.00,100.00,11.40,15.20,3.80,7125.00,TARP,TARP,1875.00,380.00,285.00,188.75,6,2,0,Yes
 Zone Information, AUTOMOTIVE - REPAIR-SPACE FUNCTION ZN,0.0,0.00,0.00,0.00,50.00,10.85,1.90,1,1,1,0.00,100.00,0.00,25.00,0.00,3.80,3.80,7125.00,TARP,TARP,1875.00,0.00,0.00,0.00,6,0,0,Yes
 Zone Information, BANK - BANKING AND OFFICES-SPACE FUNCTION ZN,0.0,75.00,25.00,0.00,89.15,50.00,1.90,1,1,1,75.00,100.00,0.00,100.00,0.00,3.80,3.80,7125.00,TARP,TARP,1875.00,0.00,0.00,0.00,6,0,0,Yes
 Zone Information, CLASSROOM/LECTURE/TRAINING-SPACE FUNCTION ZN,0.0,0.00,0.00,3.80,10.85,50.00,5.70,1,1,1,0.00,25.00,0.00,100.00,3.80,7.60,3.80,7125.00,TARP,TARP,1875.00,380.00,285.00,95.00,6,1,0,Yes
 Zone Information, CONF./MEET./MULTI-PURPOSE-SPACE FUNCTION ZN,0.0,0.00,0.00,7.60,10.85,50.00,9.50,1,1,1,0.00,25.00,0.00,100.00,7.60,11.40,3.80,7125.00,TARP,TARP,1875.00,380.00,285.00,95.00,6,1,0,Yes
 Zone Information, CONVENTION CENTRE - AUDIENCE-SPACE FUNCTION ZN,0.0,25.00,25.00,0.00,50.00,50.00,1.90,1,1,1,25.00,75.00,25.00,75.00,0.00,3.80,3.80,9500.00,TARP,TARP,2500.00,0.00,0.00,0.00,6,0,0,Yes
 Zone Information, CONVENTION CENTRE - EXHIBIT-SPACE FUNCTION ZN,0.0,25.00,75.00,3.80,50.00,89.15,5.70,1,1,1,0.00,100.00,75.00,100.00,3.80,7.60,3.80,7125.00,TARP,TARP,1875.00,380.00,285.00,95.00,6,1,0,Yes
 Zone Information, COURTHOUSE - CELL-SPACE FUNCTION ZN,0.0,75.00,25.00,3.80,89.15,50.00,5.70,1,1,1,75.00,100.00,0.00,100.00,3.80,7.60,3.80,7125.00,TARP,TARP,1875.00,380.00,285.00,95.00,6,1,0,Yes
 Zone Information, WHOLEBUILDING-PARKING GARAGE ZN,0.0,0.00,0.00,11.40,50.00,10.85,13.30,1,1,1,0.00,100.00,0.00,25.00,11.40,15.20,3.80,7125.00,TARP,TARP,1875.00,380.00,285.00,188.75,6,2,0,Yes
 Zone Information, WHOLEBUILDING-PENITENTIARY ZN,0.0,25.00,25.00,7.60,50.00,50.00,9.50,1,1,1,25.00,75.00,25.00,75.00,7.60,11.40,3.80,9500.00,TARP,TARP,2500.00,0.00,0.00,0.00,6,0,0,Yes
 Zone Information, WHOLEBUILDING-PERFORMING ARTS THEATRE ZN,0.0,75.00,25.00,7.60,89.15,50.00,9.50,1,1,1,75.00,100.00,0.00,100.00,7.60,11.40,3.80,7125.00,TARP,TARP,1875.00,380.00,285.00,95.00,6,1,0,Yes
 Zone Information, WHOLEBUILDING-POLICE STATION ZN,0.0,25.00,75.00,7.60,50.00,89.15,9.50,1,1,1,0.00,100.00,75.00,100.00,7.60,11.40,3.80,7125.00,TARP,TARP,1875.00,380.00,285.00,95.00,6,1,0,Yes
 Zone Information, WHOLEBUILDING-POST OFFICE ZN,0.0,0.00,0.00,0.00,10.85,50.00,1.90,1,1,1,0.00,25.00,0.00,100.00,0.00,3.80,3.80,7125.00,TARP,TARP,1875.00,0.00,0.00,0.00,6,0,0,Yes
 Zone Information, WHOLEBUILDING-RELIGIOUS ZN,0.0,25.00,25.00,11.40,50.00,50.00,13.30,1,1,1,25.00,75.00,25.00,75.00,11.40,15.20,3.80,9500.00,TARP,TARP,2500.00,0.00,0.00,125.00,6,1,0,Yes
 Zone Information, WHOLEBUILDING-RETAIL ZN,0.0,0.00,0.00,7.60,50.00,10.85,9.50,1,1,1,0.00,100.00,0.00,25.00,7.60,11.40,3.80,7125.00,TARP,TARP,1875.00,380.00,285.00,95.00,6,1,0,Yes
 Zone Information, WHOLEBUILDING-SCHOOL/UNIVERSITY ZN,0.0,0.00,0.00,3.80,50.00,10.85,5.70,1,1,1,0.00,100.00,0.00,25.00,3.80,7.60,3.80,7125.00,TARP,TARP,1875.00,380.00,285.00,95.00,6,1,0,Yes
! <Zone Internal Gains Nominal>,Zone Name, Floor Area {m2},# Occupants,Area per Occupant {m2/person},Occupant per Area {person/m2},Interior Lighting {W/m2},Electric Load {W/m2},Gas Load {W/m2},Other Load {W/m2},Hot Water Eq {W/m2},Steam Equipment {W/m2},Sum Loads per Area {W/m2},Outdoor Controlled Baseboard Heat
 Zone Internal Gains Nominal, ATRIUM - H < 13M-SPACE FUNCTION ZN,1875.00,187.5,10.000,10.000E-002,0.000,2.500,0.000,0.000,0.000,0.000,2.500,No
 Zone Internal Gains Nominal, ATRIUM - H > 13M-SPACE FUNCTION ZN,1875.00,187.5,10.000,10.000E-002,0.000,2.500,0.000,0.000,0.000,0.000,2.500,No
 Zone Internal Gains Nominal, AUDIENCE - AUDITORIUM-SPACE FUNCTION ZN,2500.00,500.0,5.000,0.200,8.500,2.500,0.000,0.000,0.000,0.000,11.000,No
 Zone Internal Gains Nominal, AUDIENCE - MOTION PICTURE-SPACE FUNCTION ZN,1875.00,375.0,5.000,0.200,12.300,2.500,0.000,0.000,0.000,0.000,14.800,No
 Zone Internal Gains Nominal, AUDIENCE - PERFORMANCE ARTS-SPACE FUNCTION ZN,1875.00,250.1,7.498,0.133,26.200,2.500,0.000,0.000,0.000,0.000,28.700,No
 Zone Internal Gains Nominal, AUTOMOTIVE - REPAIR-SPACE FUNCTION ZN,1875.00,93.8,19.979,5.005E-002,7.200,5.000,0.000,0.000,0.000,0.000,12.200,No
 Zone Internal Gains Nominal, BANK - BANKING AND OFFICES-SPACE FUNCTION ZN,1875.00,75.1,24.974,4.004E-002,14.900,5.000,0.000,0.000,0.000,0.000,19.900,No
 Zone Internal Gains Nominal, CLASSROOM/LECTURE/TRAINING-SPACE FUNCTION ZN,1875.00,250.1,7.498,0.133,11.970,5.000,0.000,0.000,0.000,0.000,16.970,No
 Zone Internal Gains Nominal, CONF./MEET./MULTI-PURPOSE-SPACE FUNCTION ZN,1875.00,375.0,5.000,0.200,11.880,1.000,0.000,0.000,0.000,0.000,12.880,No
 Zone Internal Gains Nominal, CONVENTION CENTRE - AUDIENCE-SPACE FUNCTION ZN,2500.00,500.0,5.000,0.200,8.800,2.500,0.000,0.000,0.000,0.000,11.300,No
 Zone Internal Gains Nominal, CONVENTION CENTRE - EXHIBIT-SPACE FUNCTION ZN,1875.00,375.0,5.000,0.200,15.600,2.500,0.000,0.000,0.000,0.000,18.100,No
 Zone Internal Gains Nominal, COURTHOUSE - CELL-SPACE FUNCTION ZN,1875.00,75.1,24.974,4.004E-002,14.700,2.500,0.000,0.000,0.000,0.000,17.200,No
 Zone Internal Gains Nominal, WHOLEBUILDING-PARKING GARAGE ZN,1875.00,1.8,1032.256,9.688E-004,2.700,0.000,0.000,0.000,0.000,0.000,2.700,No
 Zone Internal Gains Nominal, WHOLEBUILDING-PENITENTIARY ZN,2500.00,83.4,29.969,3.337E-002,10.400,2.500,0.000,0.000,0.000,0.000,12.900,No
 Zone Internal Gains Nominal, WHOLEBUILDING-PERFORMING ARTS THEATRE ZN,1875.00,234.3,8.002,0.125,15.000,1.000,0.000,0.000,0.000,0.000,16.000,No
 Zone Internal Gains Nominal, WHOLEBUILDING-POLICE STATION ZN,1875.00,75.1,24.974,4.004E-002,10.300,7.500,0.000,0.000,0.000,0.000,17.800,No
 Zone Internal Gains Nominal, WHOLEBUILDING-POST OFFICE ZN,1875.00,75.1,24.974,4.004E-002,9.400,7.500,0.000,0.000,0.000,0.000,16.900,No
 Zone Internal Gains Nominal, WHOLEBUILDING-RELIGIOUS ZN,2500.00,500.0,5.000,0.200,11.300,1.000,0.000,0.000,0.000,0.000,12.300,No
 Zone Internal Gains Nominal, WHOLEBUILDING-RETAIL ZN,1875.00,62.6,29.969,3.337E-002,15.100,2.500,0.000,0.000,0.000,0.000,17.600,No
 Zone Internal Gains Nominal, WHOLEBUILDING-SCHOOL/UNIVERSITY ZN,1875.00,234.3,8.002,0.125,10.700,5.000,0.000,0.000,0.000,0.000,15.700,No
! <People Internal Gains Nominal>,Name,Schedule Name,Zone Name,Zone Floor Area {m2},# Zone Occupants,Number of People {},People/Floor Area {person/m2},Floor Area per person {m2/person},Fraction Radiant,Fraction Convected,Sensible Fraction Calculation,Activity level,ASHRAE 55 Warnings,Carbon Dioxide Generation Rate,Nominal Minimum Number of People,Nominal Maximum Number of People
 People Internal Gains Nominal, WHOLEBUILDING-PARKING GARAGE ZN PARKING GARAGE WHOLEBUILDING PEOPLE,NECB-H-OCCUPANCY,WHOLEBUILDING-PARKING GARAGE ZN,1875.00,1.8,1.8,9.688E-004,1032.256,0.300,0.700,AutoCalculate,NECB-ACTIVITY,No,3.8200E-008,2,2
 People Internal Gains Nominal, WHOLEBUILDING-PENITENTIARY ZN PENITENTIARY WHOLEBUILDING PEOPLE,NECB-H-OCCUPANCY,WHOLEBUILDING-PENITENTIARY ZN,2500.00,83.4,83.4,3.337E-002,29.969,0.300,0.700,AutoCalculate,NECB-ACTIVITY,No,3.8200E-008,75,75
 People Internal Gains Nominal, WHOLEBUILDING-PERFORMING ARTS THEATRE ZN PERFORMING ARTS THEATRE WHOLEBUILDING PEOPLE,NECB-C-OCCUPANCY,WHOLEBUILDING-PERFORMING ARTS THEATRE ZN,1875.00,234.3,234.3,0.125,8.002,0.300,0.700,AutoCalculate,NECB-ACTIVITY,No,3.8200E-008,0,211
 People Internal Gains Nominal, WHOLEBUILDING-POLICE STATION ZN POLICE STATION WHOLEBUILDING PEOPLE,NECB-H-OCCUPANCY,WHOLEBUILDING-POLICE STATION ZN,1875.00,75.1,75.1,4.004E-002,24.974,0.300,0.700,AutoCalculate,NECB-ACTIVITY,No,3.8200E-008,68,68
 People Internal Gains Nominal, WHOLEBUILDING-POST OFFICE ZN POST OFFICE WHOLEBUILDING PEOPLE,NECB-A-OCCUPANCY,WHOLEBUILDING-POST OFFICE ZN,1875.00,75.1,75.1,4.004E-002,24.974,0.300,0.700,AutoCalculate,NECB-ACTIVITY,No,3.8200E-008,0,68
 People Internal Gains Nominal, WHOLEBUILDING-RELIGIOUS ZN RELIGIOUS WHOLEBUILDING PEOPLE,NECB-I-OCCUPANCY,WHOLEBUILDING-RELIGIOUS ZN,2500.00,500.0,500.0,0.200,5.000,0.300,0.700,AutoCalculate,NECB-ACTIVITY,No,3.8200E-008,0,400
 People Internal Gains Nominal, WHOLEBUILDING-RETAIL ZN RETAIL WHOLEBUILDING PEOPLE,NECB-C-OCCUPANCY,WHOLEBUILDING-RETAIL ZN,1875.00,62.6,62.6,3.337E-002,29.969,0.300,0.700,AutoCalculate,NECB-ACTIVITY,No,3.8200E-008,0,56
 People Internal Gains Nominal, WHOLEBUILDING-SCHOOL/UNIVERSITY ZN SCHOOL/UNIVERSITY WHOLEBUILDING PEOPLE,NECB-D-OCCUPANCY,WHOLEBUILDING-SCHOOL/UNIVERSITY ZN,1875.00,234.3,234.3,0.125,8.002,0.300,0.700,AutoCalculate,NECB-ACTIVITY,No,3.8200E-008,0,211
 People Internal Gains Nominal, ATRIUM - H < 13M-SPACE FUNCTION ZN SPACE FUNCTION ATRIUM - H < 13M PEOPLE,NECB-C-OCCUPANCY,ATRIUM - H < 13M-SPACE FUNCTION ZN,1875.00,187.5,187.5,10.000E-002,10.000,0.300,0.700,AutoCalculate,NECB-ACTIVITY,No,3.8200E-008,0,169
 People Internal Gains Nominal, ATRIUM - H > 13M-SPACE FUNCTION ZN SPACE FUNCTION ATRIUM - H > 13M PEOPLE,NECB-C-OCCUPANCY,ATRIUM - H > 13M-SPACE FUNCTION ZN,1875.00,187.5,187.5,10.000E-002,10.000,0.300,0.700,AutoCalculate,NECB-ACTIVITY,No,3.8200E-008,0,169
 People Internal Gains Nominal, AUDIENCE - AUDITORIUM-SPACE FUNCTION ZN SPACE FUNCTION AUDIENCE - AUDITORIUM PEOPLE,NECB-C-OCCUPANCY,AUDIENCE - AUDITORIUM-SPACE FUNCTION ZN,2500.00,500.0,500.0,0.200,5.000,0.300,0.700,AutoCalculate,NECB-ACTIVITY,No,3.8200E-008,0,450
 People Internal Gains Nominal, AUDIENCE - MOTION PICTURE-SPACE FUNCTION ZN SPACE FUNCTION AUDIENCE - MOTION PICTURE PEOPLE,NECB-C-OCCUPANCY,AUDIENCE - MOTION PICTURE-SPACE FUNCTION ZN,1875.00,375.0,375.0,0.200,5.000,0.300,0.700,AutoCalculate,NECB-ACTIVITY,No,3.8200E-008,0,337
 People Internal Gains Nominal, AUDIENCE - PERFORMANCE ARTS-SPACE FUNCTION ZN SPACE FUNCTION AUDIENCE - PERFORMANCE ARTS PEOPLE,NECB-C-OCCUPANCY,AUDIENCE - PERFORMANCE ARTS-SPACE FUNCTION ZN,1875.00,250.1,250.1,0.133,7.498,0.300,0.700,AutoCalculate,NECB-ACTIVITY,No,3.8200E-008,0,225
 People Internal Gains Nominal, AUTOMOTIVE - REPAIR-SPACE FUNCTION ZN SPACE FUNCTION AUTOMOTIVE - REPAIR PEOPLE,NECB-E-OCCUPANCY,AUTOMOTIVE - REPAIR-SPACE FUNCTION ZN,1875.00,93.8,93.8,5.005E-002,19.979,0.300,0.700,AutoCalculate,NECB-ACTIVITY,No,3.8200E-008,0,84
 People Internal Gains Nominal, BANK - BANKING AND OFFICES-SPACE FUNCTION ZN SPACE FUNCTION BANK - BANKING AND OFFICES PEOPLE,NECB-A-OCCUPANCY,BANK - BANKING AND OFFICES-SPACE FUNCTION ZN,1875.00,75.1,75.1,4.004E-002,24.974,0.300,0.700,AutoCalculate,NECB-ACTIVITY,No,3.8200E-008,0,68
 People Internal Gains Nominal, CLASSROOM/LECTURE/TRAINING-SPACE FUNCTION ZN SPACE FUNCTION CLASSROOM/LECTURE/TRAINING PEOPLE,NECB-D-OCCUPANCY,CLASSROOM/LECTURE/TRAINING-SPACE FUNCTION ZN,1875.00,250.1,250.1,0.133,7.498,0.300,0.700,AutoCalculate,NECB-ACTIVITY,No,3.8200E-008,0,225
 People Internal Gains Nominal, CONF./MEET./MULTI-PURPOSE-SPACE FUNCTION ZN SPACE FUNCTION CONF./MEET./MULTI-PURPOSE PEOPLE,NECB-C-OCCUPANCY,CONF./MEET./MULTI-PURPOSE-SPACE FUNCTION ZN,1875.00,375.0,375.0,0.200,5.000,0.300,0.700,AutoCalculate,NECB-ACTIVITY,No,3.8200E-008,0,337
 People Internal Gains Nominal, CONVENTION CENTRE - AUDIENCE-SPACE FUNCTION ZN SPACE FUNCTION CONVENTION CENTRE - AUDIENCE PEOPLE,NECB-C-OCCUPANCY,CONVENTION CENTRE - AUDIENCE-SPACE FUNCTION ZN,2500.00,500.0,500.0,0.200,5.000,0.300,0.700,AutoCalculate,NECB-ACTIVITY,No,3.8200E-008,0,450
 People Internal Gains Nominal, CONVENTION CENTRE - EXHIBIT-SPACE FUNCTION ZN SPACE FUNCTION CONVENTION CENTRE - EXHIBIT PEOPLE,NECB-C-OCCUPANCY,CONVENTION CENTRE - EXHIBIT-SPACE FUNCTION ZN,1875.00,375.0,375.0,0.200,5.000,0.300,0.700,AutoCalculate,NECB-ACTIVITY,No,3.8200E-008,0,337
 People Internal Gains Nominal, COURTHOUSE - CELL-SPACE FUNCTION ZN SPACE FUNCTION COURTHOUSE - CELL PEOPLE,NECB-H-OCCUPANCY,COURTHOUSE - CELL-SPACE FUNCTION ZN,1875.00,75.1,75.1,4.004E-002,24.974,0.300,0.700,AutoCalculate,NECB-ACTIVITY,No,3.8200E-008,68,68
! <Lights Internal Gains Nominal>,Name,Schedule Name,Zone Name,Zone Floor Area {m2},# Zone Occupants,Lighting Level {W},Lights/Floor Area {W/m2},Lights per person {W/person},Fraction Return Air,Fraction Radiant,Fraction Short Wave,Fraction Convected,Fraction Replaceable,End-Use Category,Nominal Minimum Lighting Level {W},Nominal Maximum Lighting Level {W}
 Lights Internal Gains Nominal, WHOLEBUILDING-PARKING GARAGE ZN PARKING GARAGE WHOLEBUILDING LIGHTS,NECB-H-LIGHTING,WHOLEBUILDING-PARKING GARAGE ZN,1875.00,1.8,5062.458,2.700,2787.068,0.000,0.500,0.200,0.300,1.000,General,4556.212,4556.212
 Lights Internal Gains Nominal, WHOLEBUILDING-PENITENTIARY ZN PENITENTIARY WHOLEBUILDING LIGHTS,NECB-H-LIGHTING,WHOLEBUILDING-PENITENTIARY ZN,2500.00,83.4,25999.784,10.400,311.672,0.000,0.500,0.200,0.300,1.000,General,23399.805,23399.805
 Lights Internal Gains Nominal, WHOLEBUILDING-PERFORMING ARTS THEATRE ZN PERFORMING ARTS THEATRE WHOLEBUILDING LIGHTS,NECB-C-LIGHTING,WHOLEBUILDING-PERFORMING ARTS THEATRE ZN,1875.00,234.3,28124.766,15.000,120.029,0.000,0.500,0.200,0.300,1.000,General,1406.238,25312.289
 Lights Internal Gains Nominal, WHOLEBUILDING-POLICE STATION ZN POLICE STATION WHOLEBUILDING LIGHTS,NECB-H-LIGHTING,WHOLEBUILDING-POLICE STATION ZN,1875.00,75.1,19312.339,10.300,257.229,0.000,0.500,0.200,0.300,1.000,General,17381.105,17381.105
 Lights Internal Gains Nominal, WHOLEBUILDING-POST OFFICE ZN POST OFFICE WHOLEBUILDING LIGHTS,NECB-A-LIGHTING,WHOLEBUILDING-POST OFFICE ZN,1875.00,75.1,17624.853,9.400,234.753,0.000,0.500,0.200,0.300,1.000,General,881.243,15862.368
 Lights Internal Gains Nominal, WHOLEBUILDING-RELIGIOUS ZN RELIGIOUS WHOLEBUILDING LIGHTS,NECB-I-LIGHTING,WHOLEBUILDING-RELIGIOUS ZN,2500.00,500.0,28249.765,11.300,56.501,0.000,0.500,0.200,0.300,1.000,General,1412.488,25424.788
 Lights Internal Gains Nominal, WHOLEBUILDING-RETAIL ZN RETAIL WHOLEBUILDING LIGHTS,NECB-C-LIGHTING,WHOLEBUILDING-RETAIL ZN,1875.00,62.6,28312.264,15.100,452.524,0.000,0.500,0.200,0.300,1.000,General,1415.613,25481.038
 Lights Internal Gains Nominal, WHOLEBUILDING-SCHOOL/UNIVERSITY ZN SCHOOL/UNIVERSITY WHOLEBUILDING LIGHTS,NECB-D-LIGHTING,WHOLEBUILDING-SCHOOL/UNIVERSITY ZN,1875.00,234.3,20062.333,10.700,85.621,0.000,0.500,0.200,0.300,1.000,General,1003.117,18056.100
 Lights Internal Gains Nominal, AUDIENCE - AUDITORIUM-SPACE FUNCTION ZN SPACE FUNCTION AUDIENCE - AUDITORIUM LIGHTS,NECB-C-LIGHTING,AUDIENCE - AUDITORIUM-SPACE FUNCTION ZN,2500.00,500.0,21249.823,8.500,42.501,0.000,0.500,0.200,0.300,1.000,General,1062.491,19124.841
 Lights Internal Gains Nominal, AUDIENCE - MOTION PICTURE-SPACE FUNCTION ZN SPACE FUNCTION AUDIENCE - MOTION PICTURE LIGHTS,NECB-C-LIGHTING,AUDIENCE - MOTION PICTURE-SPACE FUNCTION ZN,1875.00,375.0,23062.308,12.300,61.502,0.000,0.500,0.200,0.300,1.000,General,1153.115,20756.077
 Lights Internal Gains Nominal, AUDIENCE - PERFORMANCE ARTS-SPACE FUNCTION ZN SPACE FUNCTION AUDIENCE - PERFORMANCE ARTS LIGHTS,NECB-C-LIGHTING,AUDIENCE - PERFORMANCE ARTS-SPACE FUNCTION ZN,1875.00,250.1,49124.591,26.200,196.452,0.000,0.500,0.200,0.300,1.000,General,2456.230,44212.132
 Lights Internal Gains Nominal, AUTOMOTIVE - REPAIR-SPACE FUNCTION ZN SPACE FUNCTION AUTOMOTIVE - REPAIR LIGHTS,NECB-E-LIGHTING,AUTOMOTIVE - REPAIR-SPACE FUNCTION ZN,1875.00,93.8,13499.888,7.200,143.849,0.000,0.500,0.200,0.300,1.000,General,674.994,12149.899
 Lights Internal Gains Nominal, BANK - BANKING AND OFFICES-SPACE FUNCTION ZN SPACE FUNCTION BANK - BANKING AND OFFICES LIGHTS,NECB-A-LIGHTING,BANK - BANKING AND OFFICES-SPACE FUNCTION ZN,1875.00,75.1,27937.267,14.900,372.109,0.000,0.500,0.200,0.300,1.000,General,1396.863,25143.541
 Lights Internal Gains Nominal, CLASSROOM/LECTURE/TRAINING-SPACE FUNCTION ZN SPACE FUNCTION CLASSROOM/LECTURE/TRAINING LIGHTS,NECB-D-LIGHTING,CLASSROOM/LECTURE/TRAINING-SPACE FUNCTION ZN,1875.00,250.1,22443.563,11.970,89.753,0.000,0.500,0.200,0.300,1.000,General,1122.178,20199.207
 Lights Internal Gains Nominal, CONF./MEET./MULTI-PURPOSE-SPACE FUNCTION ZN SPACE FUNCTION CONF./MEET./MULTI-PURPOSE LIGHTS,NECB-C-LIGHTING,CONF./MEET./MULTI-PURPOSE-SPACE FUNCTION ZN,1875.00,375.0,22274.815,11.880,59.401,0.000,0.500,0.200,0.300,1.000,General,1113.741,20047.333
 Lights Internal Gains Nominal, CONVENTION CENTRE - AUDIENCE-SPACE FUNCTION ZN SPACE FUNCTION CONVENTION CENTRE - AUDIENCE LIGHTS,NECB-C-LIGHTING,CONVENTION CENTRE - AUDIENCE-SPACE FUNCTION ZN,2500.00,500.0,21999.817,8.800,44.001,0.000,0.500,0.200,0.300,1.000,General,1099.991,19799.835
 Lights Internal Gains Nominal, CONVENTION CENTRE - EXHIBIT-SPACE FUNCTION ZN SPACE FUNCTION CONVENTION CENTRE - EXHIBIT LIGHTS,NECB-C-LIGHTING,CONVENTION CENTRE - EXHIBIT-SPACE FUNCTION ZN,1875.00,375.0,29249.757,15.600,78.002,0.000,0.500,0.200,0.300,1.000,General,1462.488,26324.781
 Lights Internal Gains Nominal, COURTHOUSE - CELL-SPACE FUNCTION ZN SPACE FUNCTION COURTHOUSE - CELL LIGHTS,NECB-H-LIGHTING,COURTHOUSE - CELL-SPACE FUNCTION ZN,1875.00,75.1,27562.271,14.700,367.114,0.000,0.500,0.200,0.300,1.000,General,24806.044,24806.044
! <ElectricEquipment Internal Gains Nominal>,Name,Schedule Name,Zone Name,Zone Floor Area {m2},# Zone Occupants,Equipment Level {W},Equipment/Floor Area {W/m2},Equipment per person {W/person},Fraction Latent,Fraction Radiant,Fraction Lost,Fraction Convected,End-Use SubCategory,Nominal Minimum Equipment Level {W},Nominal Maximum Equipment Level {W}
 ElectricEquipment Internal Gains Nominal, WHOLEBUILDING-PENITENTIARY ZN PENITENTIARY WHOLEBUILDING ELEC EQUIP,NECB-H-ELECTRIC-EQUIPMENT,WHOLEBUILDING-PENITENTIARY ZN,2500.00,83.4,6249.948,2.500,74.921,0.000,0.500,0.000,0.500,General,5624.953,5624.953
 ElectricEquipment Internal Gains Nominal, WHOLEBUILDING-PERFORMING ARTS THEATRE ZN PERFORMING ARTS THEATRE WHOLEBUILDING ELEC EQUIP,NECB-C-ELECTRIC-EQUIPMENT,WHOLEBUILDING-PERFORMING ARTS THEATRE ZN,1875.00,234.3,1874.984,1.000,8.002,0.000,0.500,0.000,0.500,General,93.749,1687.486
 ElectricEquipment Internal Gains Nominal, WHOLEBUILDING-POLICE STATION ZN POLICE STATION WHOLEBUILDING ELEC EQUIP,NECB-H-ELECTRIC-EQUIPMENT,WHOLEBUILDING-POLICE STATION ZN,1875.00,75.1,14062.383,7.500,187.303,0.000,0.500,0.000,0.500,General,12656.145,12656.145
 ElectricEquipment Internal Gains Nominal, WHOLEBUILDING-POST OFFICE ZN POST OFFICE WHOLEBUILDING ELEC EQUIP,NECB-A-ELECTRIC-EQUIPMENT,WHOLEBUILDING-POST OFFICE ZN,1875.00,75.1,14062.383,7.500,187.303,0.000,0.500,0.000,0.500,General,2812.477,12656.145
 ElectricEquipment Internal Gains Nominal, WHOLEBUILDING-RELIGIOUS ZN RELIGIOUS WHOLEBUILDING ELEC EQUIP,NECB-I-ELECTRIC-EQUIPMENT,WHOLEBUILDING-RELIGIOUS ZN,2500.00,500.0,2499.979,1.000,5.000,0.000,0.500,0.000,0.500,General,249.998,1999.983
 ElectricEquipment Internal Gains Nominal, WHOLEBUILDING-RETAIL ZN RETAIL WHOLEBUILDING ELEC EQUIP,NECB-C-ELECTRIC-EQUIPMENT,WHOLEBUILDING-RETAIL ZN,1875.00,62.6,4687.461,2.500,74.921,0.000,0.500,0.000,0.500,General,234.373,4218.715
 ElectricEquipment Internal Gains Nominal, WHOLEBUILDING-SCHOOL/UNIVERSITY ZN SCHOOL/UNIVERSITY WHOLEBUILDING ELEC EQUIP,NECB-D-ELECTRIC-EQUIPMENT,WHOLEBUILDING-SCHOOL/UNIVERSITY ZN,1875.00,234.3,9374.922,5.000,40.010,0.000,0.500,0.000,0.500,General,468.746,8437.430
 ElectricEquipment Internal Gains Nominal, ATRIUM - H < 13M-SPACE FUNCTION ZN SPACE FUNCTION ATRIUM - H < 13M ELEC EQUIP,NECB-C-ELECTRIC-EQUIPMENT,ATRIUM - H < 13M-SPACE FUNCTION ZN,1875.00,187.5,4687.461,2.500,25.001,0.000,0.500,0.000,0.500,General,234.373,4218.715
 ElectricEquipment Internal Gains Nominal, ATRIUM - H > 13M-SPACE FUNCTION ZN SPACE FUNCTION ATRIUM - H > 13M ELEC EQUIP,NECB-C-ELECTRIC-EQUIPMENT,ATRIUM - H > 13M-SPACE FUNCTION ZN,1875.00,187.5,4687.461,2.500,25.001,0.000,0.500,0.000,0.500,General,234.373,4218.715
 ElectricEquipment Internal Gains Nominal, AUDIENCE - AUDITORIUM-SPACE FUNCTION ZN SPACE FUNCTION AUDIENCE - AUDITORIUM ELEC EQUIP,NECB-C-ELECTRIC-EQUIPMENT,AUDIENCE - AUDITORIUM-SPACE FUNCTION ZN,2500.00,500.0,6249.948,2.500,12.500,0.000,0.500,0.000,0.500,General,312.497,5624.953
 ElectricEquipment Internal Gains Nominal, AUDIENCE - MOTION PICTURE-SPACE FUNCTION ZN SPACE FUNCTION AUDIENCE - MOTION PICTURE ELEC EQUIP,NECB-C-ELECTRIC-EQUIPMENT,AUDIENCE - MOTION PICTURE-SPACE FUNCTION ZN,1875.00,375.0,4687.461,2.500,12.500,0.000,0.500,0.000,0.500,General,234.373,4218.715
 ElectricEquipment Internal Gains Nominal, AUDIENCE - PERFORMANCE ARTS-SPACE FUNCTION ZN SPACE FUNCTION AUDIENCE - PERFORMANCE ARTS ELEC EQUIP,NECB-C-ELECTRIC-EQUIPMENT,AUDIENCE - PERFORMANCE ARTS-SPACE FUNCTION ZN,1875.00,250.1,4687.461,2.500,18.745,0.000,0.500,0.000,0.500,General,234.373,4218.715
 ElectricEquipment Internal Gains Nominal, AUTOMOTIVE - REPAIR-SPACE FUNCTION ZN SPACE FUNCTION AUTOMOTIVE - REPAIR ELEC EQUIP,NECB-E-ELECTRIC-EQUIPMENT,AUTOMOTIVE - REPAIR-SPACE FUNCTION ZN,1875.00,93.8,9374.922,5.000,99.895,0.000,0.500,0.000,0.500,General,468.746,8437.430
 ElectricEquipment Internal Gains Nominal, BANK - BANKING AND OFFICES-SPACE FUNCTION ZN SPACE FUNCTION BANK - BANKING AND OFFICES ELEC EQUIP,NECB-A-ELECTRIC-EQUIPMENT,BANK - BANKING AND OFFICES-SPACE FUNCTION ZN,1875.00,75.1,9374.922,5.000,124.869,0.000,0.500,0.000,0.500,General,1874.984,8437.430
 ElectricEquipment Internal Gains Nominal, CLASSROOM/LECTURE/TRAINING-SPACE FUNCTION ZN SPACE FUNCTION CLASSROOM/LECTURE/TRAINING ELEC EQUIP,NECB-D-ELECTRIC-EQUIPMENT,CLASSROOM/LECTURE/TRAINING-SPACE FUNCTION ZN,1875.00,250.1,9374.922,5.000,37.491,0.000,0.500,0.000,0.500,General,468.746,8437.430
 ElectricEquipment Internal Gains Nominal, CONF./MEET./MULTI-PURPOSE-SPACE FUNCTION ZN SPACE FUNCTION CONF./MEET./MULTI-PURPOSE ELEC EQUIP,NECB-C-ELECTRIC-EQUIPMENT,CONF./MEET./MULTI-PURPOSE-SPACE FUNCTION ZN,1875.00,375.0,1874.984,1.000,5.000,0.000,0.500,0.000,0.500,General,93.749,1687.486
 ElectricEquipment Internal Gains Nominal, CONVENTION CENTRE - AUDIENCE-SPACE FUNCTION ZN SPACE FUNCTION CONVENTION CENTRE - AUDIENCE ELEC EQUIP,NECB-C-ELECTRIC-EQUIPMENT,CONVENTION CENTRE - AUDIENCE-SPACE FUNCTION ZN,2500.00,500.0,6249.948,2.500,12.500,0.000,0.500,0.000,0.500,General,312.497,5624.953
 ElectricEquipment Internal Gains Nominal, CONVENTION CENTRE - EXHIBIT-SPACE FUNCTION ZN SPACE FUNCTION CONVENTION CENTRE - EXHIBIT ELEC EQUIP,NECB-C-ELECTRIC-EQUIPMENT,CONVENTION CENTRE - EXHIBIT-SPACE FUNCTION ZN,1875.00,375.0,4687.461,2.500,12.500,0.000,0.500,0.000,0.500,General,234.373,4218.715
 ElectricEquipment Internal Gains Nominal, COURTHOUSE - CELL-SPACE FUNCTION ZN SPACE FUNCTION COURTHOUSE - CELL ELEC EQUIP,NECB-H-ELECTRIC-EQUIPMENT,COURTHOUSE - CELL-SPACE FUNCTION ZN,1875.00,75.1,4687.461,2.500,62.434,0.000,0.500,0.000,0.500,General,4218.715,4218.715
! <Shadowing/Sun Position Calculations Annual Simulations>, Calculation Method, Value {days}, Allowable Number Figures in Shadow Overlap {}, Polygon Clipping Algorithm, Sky Diffuse Modeling Algorithm, External Shading Calculation Method, Output External Shading Calculation Results, Disable Self-Shading Within Shading Zone Groups, Disable Self-Shading From Shading Zone Groups to Other Zones
Shadowing/Sun Position Calculations Annual Simulations,AverageOverDaysInFrequency,20,15000,SutherlandHodgman,SimpleSkyDiffuseModeling,InternalCalculation,No,No,No
! <ZoneInfiltration Airflow Stats Nominal>,Name,Schedule Name,Zone Name, Zone Floor Area {m2}, # Zone Occupants,Design Volume Flow Rate {m3/s},Volume Flow Rate/Floor Area {m3/s/m2},Volume Flow Rate/Exterior Surface Area {m3/s/m2},ACH - Air Changes per Hour,Equation A - Constant Term Coefficient {},Equation B - Temperature Term Coefficient {1/C},Equation C - Velocity Term Coefficient {s/m}, Equation D - Velocity Squared Term Coefficient {s2/m2}
 ZoneInfiltration Airflow Stats Nominal, ATRIUM - H > 13M-SPACE FUNCTION INFILTRATION,ALWAYS ON DISCRETE,ATRIUM - H > 13M-SPACE FUNCTION ZN,1875.00,187.5,0.564,3.007E-004,2.500E-004,0.285,0.000,0.000,0.224,0.000
 ZoneInfiltration Airflow Stats Nominal, AUDIENCE - MOTION PICTURE-SPACE FUNCTION INFILTRATION,ALWAYS ON DISCRETE,AUDIENCE - MOTION PICTURE-SPACE FUNCTION ZN,1875.00,375.0,0.564,3.007E-004,2.500E-004,0.285,0.000,0.000,0.224,0.000
 ZoneInfiltration Airflow Stats Nominal, AUDIENCE - PERFORMANCE ARTS-SPACE FUNCTION INFILTRATION,ALWAYS ON DISCRETE,AUDIENCE - PERFORMANCE ARTS-SPACE FUNCTION ZN,1875.00,250.1,0.564,3.007E-004,2.500E-004,0.285,0.000,0.000,0.224,0.000
 ZoneInfiltration Airflow Stats Nominal, CLASSROOM/LECTURE/TRAINING-SPACE FUNCTION INFILTRATION,ALWAYS ON DISCRETE,CLASSROOM/LECTURE/TRAINING-SPACE FUNCTION ZN,1875.00,250.1,9.500E-002,5.067E-005,2.500E-004,4.800E-002,0.000,0.000,0.224,0.000
 ZoneInfiltration Airflow Stats Nominal, CONF./MEET./MULTI-PURPOSE-SPACE FUNCTION INFILTRATION,ALWAYS ON DISCRETE,CONF./MEET./MULTI-PURPOSE-SPACE FUNCTION ZN,1875.00,375.0,9.500E-002,5.067E-005,2.500E-004,4.800E-002,0.000,0.000,0.224,0.000
 ZoneInfiltration Airflow Stats Nominal, CONVENTION CENTRE - EXHIBIT-SPACE FUNCTION INFILTRATION,ALWAYS ON DISCRETE,CONVENTION CENTRE - EXHIBIT-SPACE FUNCTION ZN,1875.00,375.0,9.500E-002,5.067E-005,2.500E-004,4.800E-002,0.000,0.000,0.224,0.000
 ZoneInfiltration Airflow Stats Nominal, COURTHOUSE - CELL-SPACE FUNCTION INFILTRATION,ALWAYS ON DISCRETE,COURTHOUSE - CELL-SPACE FUNCTION ZN,1875.00,75.1,9.500E-002,5.067E-005,2.500E-004,4.800E-002,0.000,0.000,0.224,0.000
 ZoneInfiltration Airflow Stats Nominal, WHOLEBUILDING-PARKING GARAGE INFILTRATION,ALWAYS ON DISCRETE,WHOLEBUILDING-PARKING GARAGE ZN,1875.00,1.8,0.564,3.007E-004,2.500E-004,0.285,0.000,0.000,0.224,0.000
 ZoneInfiltration Airflow Stats Nominal, WHOLEBUILDING-PERFORMING ARTS THEATRE INFILTRATION,ALWAYS ON DISCRETE,WHOLEBUILDING-PERFORMING ARTS THEATRE ZN,1875.00,234.3,9.500E-002,5.067E-005,2.500E-004,4.800E-002,0.000,0.000,0.224,0.000
 ZoneInfiltration Airflow Stats Nominal, WHOLEBUILDING-POLICE STATION INFILTRATION,ALWAYS ON DISCRETE,WHOLEBUILDING-POLICE STATION ZN,1875.00,75.1,9.500E-002,5.067E-005,2.500E-004,4.800E-002,0.000,0.000,0.224,0.000
 ZoneInfiltration Airflow Stats Nominal, WHOLEBUILDING-RELIGIOUS INFILTRATION,ALWAYS ON DISCRETE,WHOLEBUILDING-RELIGIOUS ZN,2500.00,500.0,0.625,2.500E-004,2.500E-004,0.237,0.000,0.000,0.224,0.000
 ZoneInfiltration Airflow Stats Nominal, WHOLEBUILDING-RETAIL INFILTRATION,ALWAYS ON DISCRETE,WHOLEBUILDING-RETAIL ZN,1875.00,62.6,9.500E-002,5.067E-005,2.500E-004,4.800E-002,0.000,0.000,0.224,0.000
 ZoneInfiltration Airflow Stats Nominal, WHOLEBUILDING-SCHOOL/UNIVERSITY INFILTRATION,ALWAYS ON DISCRETE,WHOLEBUILDING-SCHOOL/UNIVERSITY ZN,1875.00,234.3,9.500E-002,5.067E-005,2.500E-004,4.800E-002,0.000,0.000,0.224,0.000
! <AirFlow Model>, Simple
 AirFlow Model, Simple
! <RoomAir Model>, Zone Name, Mixing/Mundt/UCSDDV/UCSDCV/UCSDUFI/UCSDUFE/User Defined
RoomAir Model,ATRIUM - H < 13M-SPACE FUNCTION ZN,Mixing/Well-Stirred
RoomAir Model,ATRIUM - H > 13M-SPACE FUNCTION ZN,Mixing/Well-Stirred
RoomAir Model,AUDIENCE - AUDITORIUM-SPACE FUNCTION ZN,Mixing/Well-Stirred
RoomAir Model,AUDIENCE - MOTION PICTURE-SPACE FUNCTION ZN,Mixing/Well-Stirred
RoomAir Model,AUDIENCE - PERFORMANCE ARTS-SPACE FUNCTION ZN,Mixing/Well-Stirred
RoomAir Model,AUTOMOTIVE - REPAIR-SPACE FUNCTION ZN,Mixing/Well-Stirred
RoomAir Model,BANK - BANKING AND OFFICES-SPACE FUNCTION ZN,Mixing/Well-Stirred
RoomAir Model,CLASSROOM/LECTURE/TRAINING-SPACE FUNCTION ZN,Mixing/Well-Stirred
RoomAir Model,CONF./MEET./MULTI-PURPOSE-SPACE FUNCTION ZN,Mixing/Well-Stirred
RoomAir Model,CONVENTION CENTRE - AUDIENCE-SPACE FUNCTION ZN,Mixing/Well-Stirred
RoomAir Model,CONVENTION CENTRE - EXHIBIT-SPACE FUNCTION ZN,Mixing/Well-Stirred
RoomAir Model,COURTHOUSE - CELL-SPACE FUNCTION ZN,Mixing/Well-Stirred
RoomAir Model,WHOLEBUILDING-PARKING GARAGE ZN,Mixing/Well-Stirred
RoomAir Model,WHOLEBUILDING-PENITENTIARY ZN,Mixing/Well-Stirred
RoomAir Model,WHOLEBUILDING-PERFORMING ARTS THEATRE ZN,Mixing/Well-Stirred
RoomAir Model,WHOLEBUILDING-POLICE STATION ZN,Mixing/Well-Stirred
RoomAir Model,WHOLEBUILDING-POST OFFICE ZN,Mixing/Well-Stirred
RoomAir Model,WHOLEBUILDING-RELIGIOUS ZN,Mixing/Well-Stirred
RoomAir Model,WHOLEBUILDING-RETAIL ZN,Mixing/Well-Stirred
RoomAir Model,WHOLEBUILDING-SCHOOL/UNIVERSITY ZN,Mixing/Well-Stirred
! <AirflowNetwork Model:Control>, No Multizone or Distribution/Multizone with Distribution/Multizone without Distribution/Multizone with Distribution only during Fan Operation
AirflowNetwork Model:Control,NoMultizoneOrDistribution
! <Zone Volume Capacitance Multiplier>, Sensible Heat Capacity Multiplier, Moisture Capacity Multiplier, Carbon Dioxide Capacity Multiplier, Generic Contaminant Capacity Multiplier
Zone Volume Capacitance Multiplier,   1.000 ,   1.000,   1.000,   1.000
! <Load Timesteps in Zone Design Calculation Averaging Window>, Value
 Load Timesteps in Zone Design Calculation Averaging Window,    6
! <Heating Sizing Factor Information>, Sizing Factor ID, Value
 Heating Sizing Factor Information, Global,   1.2500    
 Heating Sizing Factor Information, Zone ATRIUM - H < 13M-SPACE FUNCTION ZN,   1.2500    
 Heating Sizing Factor Information, Zone ATRIUM - H > 13M-SPACE FUNCTION ZN,   1.2500    
 Heating Sizing Factor Information, Zone AUDIENCE - AUDITORIUM-SPACE FUNCTION ZN,   1.2500    
 Heating Sizing Factor Information, Zone AUDIENCE - MOTION PICTURE-SPACE FUNCTION ZN,   1.2500    
 Heating Sizing Factor Information, Zone AUDIENCE - PERFORMANCE ARTS-SPACE FUNCTION ZN,   1.2500    
 Heating Sizing Factor Information, Zone AUTOMOTIVE - REPAIR-SPACE FUNCTION ZN,   1.2500    
 Heating Sizing Factor Information, Zone BANK - BANKING AND OFFICES-SPACE FUNCTION ZN,   1.2500    
 Heating Sizing Factor Information, Zone CLASSROOM/LECTURE/TRAINING-SPACE FUNCTION ZN,   1.2500    
 Heating Sizing Factor Information, Zone CONF./MEET./MULTI-PURPOSE-SPACE FUNCTION ZN,   1.2500    
 Heating Sizing Factor Information, Zone CONVENTION CENTRE - AUDIENCE-SPACE FUNCTION ZN,   1.2500    
 Heating Sizing Factor Information, Zone CONVENTION CENTRE - EXHIBIT-SPACE FUNCTION ZN,   1.2500    
 Heating Sizing Factor Information, Zone COURTHOUSE - CELL-SPACE FUNCTION ZN,   1.2500    
 Heating Sizing Factor Information, Zone WHOLEBUILDING-PARKING GARAGE ZN,   1.2500    
 Heating Sizing Factor Information, Zone WHOLEBUILDING-PENITENTIARY ZN,   1.2500    
 Heating Sizing Factor Information, Zone WHOLEBUILDING-PERFORMING ARTS THEATRE ZN,   1.2500    
 Heating Sizing Factor Information, Zone WHOLEBUILDING-POLICE STATION ZN,   1.2500    
 Heating Sizing Factor Information, Zone WHOLEBUILDING-POST OFFICE ZN,   1.2500    
 Heating Sizing Factor Information, Zone WHOLEBUILDING-RELIGIOUS ZN,   1.2500    
 Heating Sizing Factor Information, Zone WHOLEBUILDING-RETAIL ZN,   1.2500    
 Heating Sizing Factor Information, Zone WHOLEBUILDING-SCHOOL/UNIVERSITY ZN,   1.2500    
! <Cooling Sizing Factor Information>, Sizing Factor ID, Value
 Cooling Sizing Factor Information, Global,   1.1500    
 Cooling Sizing Factor Information, Zone ATRIUM - H < 13M-SPACE FUNCTION ZN,   1.1500    
 Cooling Sizing Factor Information, Zone ATRIUM - H > 13M-SPACE FUNCTION ZN,   1.1500    
 Cooling Sizing Factor Information, Zone AUDIENCE - AUDITORIUM-SPACE FUNCTION ZN,   1.1500    
 Cooling Sizing Factor Information, Zone AUDIENCE - MOTION PICTURE-SPACE FUNCTION ZN,   1.1500    
 Cooling Sizing Factor Information, Zone AUDIENCE - PERFORMANCE ARTS-SPACE FUNCTION ZN,   1.1500    
 Cooling Sizing Factor Information, Zone AUTOMOTIVE - REPAIR-SPACE FUNCTION ZN,   1.1500    
 Cooling Sizing Factor Information, Zone BANK - BANKING AND OFFICES-SPACE FUNCTION ZN,   1.1500    
 Cooling Sizing Factor Information, Zone CLASSROOM/LECTURE/TRAINING-SPACE FUNCTION ZN,   1.1500    
 Cooling Sizing Factor Information, Zone CONF./MEET./MULTI-PURPOSE-SPACE FUNCTION ZN,   1.1500    
 Cooling Sizing Factor Information, Zone CONVENTION CENTRE - AUDIENCE-SPACE FUNCTION ZN,   1.1500    
 Cooling Sizing Factor Information, Zone CONVENTION CENTRE - EXHIBIT-SPACE FUNCTION ZN,   1.1500    
 Cooling Sizing Factor Information, Zone COURTHOUSE - CELL-SPACE FUNCTION ZN,   1.1500    
 Cooling Sizing Factor Information, Zone WHOLEBUILDING-PARKING GARAGE ZN,   1.1500    
 Cooling Sizing Factor Information, Zone WHOLEBUILDING-PENITENTIARY ZN,   1.1500    
 Cooling Sizing Factor Information, Zone WHOLEBUILDING-PERFORMING ARTS THEATRE ZN,   1.1500    
 Cooling Sizing Factor Information, Zone WHOLEBUILDING-POLICE STATION ZN,   1.1500    
 Cooling Sizing Factor Information, Zone WHOLEBUILDING-POST OFFICE ZN,   1.1500    
 Cooling Sizing Factor Information, Zone WHOLEBUILDING-RELIGIOUS ZN,   1.1500    
 Cooling Sizing Factor Information, Zone WHOLEBUILDING-RETAIL ZN,   1.1500    
 Cooling Sizing Factor Information, Zone WHOLEBUILDING-SCHOOL/UNIVERSITY ZN,   1.1500    
! <Zone Sizing Information>, Zone Name, Load Type, Calc Des Load {W}, User Des Load {W}, Calc Des Air Flow Rate {m3/s}, User Des Air Flow Rate {m3/s}, Design Day Name, Date/Time of Peak, Temperature at Peak {C}, Humidity Ratio at Peak {kgWater/kgDryAir}, Floor Area {m2}, # Occupants, Calc Outdoor Air Flow Rate {m3/s}, Calc DOAS Heat Addition Rate {W}
 Zone Sizing Information, ATRIUM - H < 13M-SPACE FUNCTION ZN, Cooling, 16902.08612, 19437.39903, 1.43714, 1.65271, FORT MCMURRAY AP ANN CLG .4% CONDNS DB=>MWB, 7/21 17:00:00, 27.16400, 8.76969E-003, 1875.00000, 187.49386, 0.57150, 0.00000
 Zone Sizing Information, ATRIUM - H < 13M-SPACE FUNCTION ZN, Heating, 0.00000, 0.00000, 0.00000, 0.57150, FORT MCMURRAY AP ANN HTG 99.6% CONDNS DB, , -36.20000, 1.25811E-004, 1875.00000, 187.49386, 0.57150, 0.00000
 Zone Sizing Information, ATRIUM - H > 13M-SPACE FUNCTION ZN, Cooling, 70783.65553, 81401.20386, 6.01834, 6.92109, FORT MCMURRAY AP ANN CLG .4% CONDNS DB=>MWB, 7/21 16:20:00, 27.82533, 8.76969E-003, 1875.00000, 187.49386, 0.57150, 0.00000
 Zone Sizing Information, ATRIUM - H > 13M-SPACE FUNCTION ZN, Heating, 52910.22664, 66137.78330, 2.45730, 3.07163, FORT MCMURRAY AP ANN HTG 99.6% CONDNS DB, 1/21 09:00:00, -36.20000, 1.25811E-004, 1875.00000, 187.49386, 0.57150, 0.00000
 Zone Sizing Information, AUDIENCE - AUDITORIUM-SPACE FUNCTION ZN, Cooling, 50298.80125, 57843.62144, 4.27758, 10.28700, FORT MCMURRAY AP ANN CLG .4% CONDNS DB=>MWB, 7/21 17:00:00, 27.16400, 8.76969E-003, 2500.00000, 499.98364, 10.28700, 0.00000
 Zone Sizing Information, AUDIENCE - AUDITORIUM-SPACE FUNCTION ZN, Heating, 0.00000, 0.00000, 0.00000, 10.28700, FORT MCMURRAY AP ANN HTG 99.6% CONDNS DB, , -36.20000, 1.25811E-004, 2500.00000, 499.98364, 10.28700, 0.00000
 Zone Sizing Information, AUDIENCE - MOTION PICTURE-SPACE FUNCTION ZN, Cooling, 88761.22292, 102075.40636, 7.54799, 8.68018, FORT MCMURRAY AP ANN CLG .4% CONDNS DB=>MWB, 7/21 13:40:00, 28.69333, 8.76969E-003, 1875.00000, 374.98773, 7.71525, 0.00000
 Zone Sizing Information, AUDIENCE - MOTION PICTURE-SPACE FUNCTION ZN, Heating, 43354.99634, 54193.74543, 1.88986, 7.71525, FORT MCMURRAY AP ANN HTG 99.6% CONDNS DB, 1/21 08:20:00, -36.20000, 1.25811E-004, 1875.00000, 374.98773, 7.71525, 0.00000
 Zone Sizing Information, AUDIENCE - PERFORMANCE ARTS-SPACE FUNCTION ZN, Cooling, 95421.01576, 109734.16813, 8.11351, 9.33054, FORT MCMURRAY AP ANN CLG .4% CONDNS DB=>MWB, 7/21 13:50:00, 28.79667, 8.76969E-003, 1875.00000, 250.05909, 7.71525, 0.00000
 Zone Sizing Information, AUDIENCE - PERFORMANCE ARTS-SPACE FUNCTION ZN, Heating, 37015.94802, 46269.93503, 1.54061, 7.71525, FORT MCMURRAY AP ANN HTG 99.6% CONDNS DB, 1/21 08:00:00, -36.20000, 1.25811E-004, 1875.00000, 250.05909, 7.71525, 0.00000
 Zone Sizing Information, AUTOMOTIVE - REPAIR-SPACE FUNCTION ZN, Cooling, 24920.23477, 28658.26998, 2.11869, 2.43649, FORT MCMURRAY AP ANN CLG .4% CONDNS DB=>MWB, 7/21 16:00:00, 28.15600, 8.76969E-003, 1875.00000, 93.84784, 2.38125, 0.00000
 Zone Sizing Information, AUTOMOTIVE - REPAIR-SPACE FUNCTION ZN, Heating, 0.00000, 0.00000, 0.00000, 2.38125, FORT MCMURRAY AP ANN HTG 99.6% CONDNS DB, , -36.20000, 1.25811E-004, 1875.00000, 93.84784, 2.38125, 0.00000
 Zone Sizing Information, BANK - BANKING AND OFFICES-SPACE FUNCTION ZN, Cooling, 33063.27112, 38022.76179, 2.81098, 3.23263, FORT MCMURRAY AP ANN CLG .4% CONDNS DB=>MWB, 7/21 17:00:00, 27.16400, 8.76969E-003, 1875.00000, 75.07828, 1.64783, 0.00000
 Zone Sizing Information, BANK - BANKING AND OFFICES-SPACE FUNCTION ZN, Heating, 0.00000, 0.00000, 0.00000, 1.64783, FORT MCMURRAY AP ANN HTG 99.6% CONDNS DB, , -36.20000, 1.25811E-004, 1875.00000, 75.07828, 1.64783, 0.00000
 Zone Sizing Information, CLASSROOM/LECTURE/TRAINING-SPACE FUNCTION ZN, Cooling, 52782.96284, 60700.40726, 4.48836, 5.21970, FORT MCMURRAY AP ANN CLG .4% CONDNS DB=>MWB, 7/21 16:00:00, 28.15600, 8.76969E-003, 1875.00000, 250.05909, 5.21970, 0.00000
 Zone Sizing Information, CLASSROOM/LECTURE/TRAINING-SPACE FUNCTION ZN, Heating, 4145.66598, 5182.08247, 0.18996, 5.21970, FORT MCMURRAY AP ANN HTG 99.6% CONDNS DB, 1/21 08:40:00, -36.20000, 1.25811E-004, 1875.00000, 250.05909, 5.21970, 0.00000
 Zone Sizing Information, CONF./MEET./MULTI-PURPOSE-SPACE FUNCTION ZN, Cooling, 63746.90330, 73308.93879, 5.42121, 6.23439, FORT MCMURRAY AP ANN CLG .4% CONDNS DB=>MWB, 7/21 17:30:00, 26.54400, 8.76969E-003, 1875.00000, 374.98773, 2.95275, 0.00000
 Zone Sizing Information, CONF./MEET./MULTI-PURPOSE-SPACE FUNCTION ZN, Heating, 19983.60424, 24979.50530, 0.90411, 2.95275, FORT MCMURRAY AP ANN HTG 99.6% CONDNS DB, 1/21 09:00:00, -36.20000, 1.25811E-004, 1875.00000, 374.98773, 2.95275, 0.00000
 Zone Sizing Information, CONVENTION CENTRE - AUDIENCE-SPACE FUNCTION ZN, Cooling, 44061.59157, 50670.83031, 3.74718, 10.28700, FORT MCMURRAY AP ANN CLG .4% CONDNS DB=>MWB, 7/21 17:00:00, 27.16400, 8.76969E-003, 2500.00000, 499.98364, 10.28700, 0.00000
 Zone Sizing Information, CONVENTION CENTRE - AUDIENCE-SPACE FUNCTION ZN, Heating, 0.00000, 0.00000, 0.00000, 10.28700, FORT MCMURRAY AP ANN HTG 99.6% CONDNS DB, , -36.20000, 1.25811E-004, 2500.00000, 499.98364, 10.28700, 0.00000
 Zone Sizing Information, CONVENTION CENTRE - EXHIBIT-SPACE FUNCTION ZN, Cooling, 46045.17035, 52951.94590, 3.91578, 4.50314, FORT MCMURRAY AP ANN CLG .4% CONDNS DB=>MWB, 7/21 17:00:00, 27.16400, 8.76969E-003, 1875.00000, 374.98773, 1.61925, 0.00000
 Zone Sizing Information, CONVENTION CENTRE - EXHIBIT-SPACE FUNCTION ZN, Heating, 0.00000, 0.00000, 0.00000, 1.61925, FORT MCMURRAY AP ANN HTG 99.6% CONDNS DB, , -36.20000, 1.25811E-004, 1875.00000, 374.98773, 1.61925, 0.00000
 Zone Sizing Information, COURTHOUSE - CELL-SPACE FUNCTION ZN, Cooling, 48757.28858, 56070.88186, 4.14526, 4.76705, FORT MCMURRAY AP ANN CLG .4% CONDNS DB=>MWB, 7/21 09:20:00, 22.78267, 8.76969E-003, 1875.00000, 75.07828, 2.33363, 0.00000
 Zone Sizing Information, COURTHOUSE - CELL-SPACE FUNCTION ZN, Heating, 0.00000, 0.00000, 0.00000, 2.33363, FORT MCMURRAY AP ANN HTG 99.6% CONDNS DB, , -36.20000, 1.25811E-004, 1875.00000, 75.07828, 2.33363, 0.00000
 Zone Sizing Information, WHOLEBUILDING-PARKING GARAGE ZN, Cooling, 67567.78361, 77702.95115, 5.74403, 6.60563, FORT MCMURRAY AP ANN CLG .4% CONDNS DB=>MWB, 7/21 13:30:00, 28.59000, 8.76969E-003, 1875.00000, 1.81641, 0.58103, 0.00000
 Zone Sizing Information, WHOLEBUILDING-PARKING GARAGE ZN, Heating, 52883.15574, 66103.94467, 2.45612, 3.07015, FORT MCMURRAY AP ANN HTG 99.6% CONDNS DB, 1/21 09:00:00, -36.20000, 1.25811E-004, 1875.00000, 1.81641, 0.58103, 0.00000
 Zone Sizing Information, WHOLEBUILDING-PENITENTIARY ZN, Cooling, 47525.45672, 54654.27522, 4.04048, 4.64656, FORT MCMURRAY AP ANN CLG .4% CONDNS DB=>MWB, 7/21 15:40:00, 28.40400, 8.76969E-003, 2500.00000, 83.42031, 0.95250, 0.00000
 Zone Sizing Information, WHOLEBUILDING-PENITENTIARY ZN, Heating, 0.00000, 0.00000, 0.00000, 0.95250, FORT MCMURRAY AP ANN HTG 99.6% CONDNS DB, , -36.20000, 1.25811E-004, 2500.00000, 83.42031, 0.95250, 0.00000
 Zone Sizing Information, WHOLEBUILDING-PERFORMING ARTS THEATRE ZN, Cooling, 54254.83404, 62393.05914, 4.14438, 4.76603, FORT MCMURRAY AP ANN CLG .4% CONDNS DB=>MWB, 7/21 08:00:00, 19.72400, 8.76969E-003, 1875.00000, 234.31687, 1.12395, 0.00000
 Zone Sizing Information, WHOLEBUILDING-PERFORMING ARTS THEATRE ZN, Heating, 11991.06202, 14988.82753, 0.54107, 1.12395, FORT MCMURRAY AP ANN HTG 99.6% CONDNS DB, 1/21 09:00:00, -36.20000, 1.25811E-004, 1875.00000, 234.31687, 1.12395, 0.00000
 Zone Sizing Information, WHOLEBUILDING-POLICE STATION ZN, Cooling, 44615.83949, 51308.21541, 3.79309, 4.36205, FORT MCMURRAY AP ANN CLG .4% CONDNS DB=>MWB, 7/21 20:10:00, 22.51400, 8.76969E-003, 1875.00000, 75.07828, 0.75248, 0.00000
 Zone Sizing Information, WHOLEBUILDING-POLICE STATION ZN, Heating, 0.00000, 0.00000, 0.00000, 0.75248, FORT MCMURRAY AP ANN HTG 99.6% CONDNS DB, , -36.20000, 1.25811E-004, 1875.00000, 75.07828, 0.75248, 0.00000
 Zone Sizing Information, WHOLEBUILDING-POST OFFICE ZN, Cooling, 29511.75040, 33938.51296, 2.50904, 2.88540, FORT MCMURRAY AP ANN CLG .4% CONDNS DB=>MWB, 7/21 17:00:00, 27.16400, 8.76969E-003, 1875.00000, 75.07828, 1.40970, 0.00000
 Zone Sizing Information, WHOLEBUILDING-POST OFFICE ZN, Heating, 0.00000, 0.00000, 0.00000, 1.40970, FORT MCMURRAY AP ANN HTG 99.6% CONDNS DB, , -36.20000, 1.25811E-004, 1875.00000, 75.07828, 1.40970, 0.00000
 Zone Sizing Information, WHOLEBUILDING-RELIGIOUS ZN, Cooling, 116845.78768, 134372.65583, 7.87869, 9.06050, FORT MCMURRAY AP ANN CLG .4% CONDNS DB=>MWB, 7/21 15:00:00, 28.90000, 8.76969E-003, 2500.00000, 499.98364, 1.94310, 0.00000
 Zone Sizing Information, WHOLEBUILDING-RELIGIOUS ZN, Heating, 32568.86213, 40711.07767, 1.34064, 1.94310, FORT MCMURRAY AP ANN HTG 99.6% CONDNS DB, 1/21 15:00:00, -36.20000, 1.25811E-004, 2500.00000, 499.98364, 1.94310, 0.00000
 Zone Sizing Information, WHOLEBUILDING-RETAIL ZN, Cooling, 47318.25088, 54415.98851, 4.02273, 4.62613, FORT MCMURRAY AP ANN CLG .4% CONDNS DB=>MWB, 7/21 14:20:00, 28.90000, 8.76969E-003, 1875.00000, 62.56523, 0.79058, 0.00000
 Zone Sizing Information, WHOLEBUILDING-RETAIL ZN, Heating, 20254.84290, 25318.55363, 0.91688, 1.14609, FORT MCMURRAY AP ANN HTG 99.6% CONDNS DB, 1/21 09:00:00, -36.20000, 1.25811E-004, 1875.00000, 62.56523, 0.79058, 0.00000
 Zone Sizing Information, WHOLEBUILDING-SCHOOL/UNIVERSITY ZN, Cooling, 48365.40765, 55620.21880, 4.11261, 4.72950, FORT MCMURRAY AP ANN CLG .4% CONDNS DB=>MWB, 7/21 13:50:00, 28.79667, 8.76969E-003, 1875.00000, 234.31687, 1.40018, 0.00000
 Zone Sizing Information, WHOLEBUILDING-SCHOOL/UNIVERSITY ZN, Heating, 7019.88531, 8774.85664, 0.32020, 1.40018, FORT MCMURRAY AP ANN HTG 99.6% CONDNS DB, 1/21 09:00:00, -36.20000, 1.25811E-004, 1875.00000, 234.31687, 1.40018, 0.00000
! <Component Sizing Information>, Component Type, Component Name, Input Field Description, Value
 Component Sizing Information, ZoneHVAC:IdealLoadsAirSystem, ZONE HVAC IDEAL LOADS AIR SYSTEM 1, User-Specified Maximum Heating Air Flow Rate [m3/s], 0.00000
 Component Sizing Information, ZoneHVAC:IdealLoadsAirSystem, ZONE HVAC IDEAL LOADS AIR SYSTEM 1, User-Specified Maximum Cooling Air Flow Rate [m3/s], 0.00000
 Component Sizing Information, ZoneHVAC:IdealLoadsAirSystem, ZONE HVAC IDEAL LOADS AIR SYSTEM 2, User-Specified Maximum Heating Air Flow Rate [m3/s], 0.00000
 Component Sizing Information, ZoneHVAC:IdealLoadsAirSystem, ZONE HVAC IDEAL LOADS AIR SYSTEM 2, User-Specified Maximum Cooling Air Flow Rate [m3/s], 0.00000
 Component Sizing Information, ZoneHVAC:IdealLoadsAirSystem, ZONE HVAC IDEAL LOADS AIR SYSTEM 3, User-Specified Maximum Heating Air Flow Rate [m3/s], 0.00000
 Component Sizing Information, ZoneHVAC:IdealLoadsAirSystem, ZONE HVAC IDEAL LOADS AIR SYSTEM 3, User-Specified Maximum Cooling Air Flow Rate [m3/s], 0.00000
 Component Sizing Information, ZoneHVAC:IdealLoadsAirSystem, ZONE HVAC IDEAL LOADS AIR SYSTEM 4, User-Specified Maximum Heating Air Flow Rate [m3/s], 0.00000
 Component Sizing Information, ZoneHVAC:IdealLoadsAirSystem, ZONE HVAC IDEAL LOADS AIR SYSTEM 4, User-Specified Maximum Cooling Air Flow Rate [m3/s], 0.00000
 Component Sizing Information, ZoneHVAC:IdealLoadsAirSystem, ZONE HVAC IDEAL LOADS AIR SYSTEM 5, User-Specified Maximum Heating Air Flow Rate [m3/s], 0.00000
 Component Sizing Information, ZoneHVAC:IdealLoadsAirSystem, ZONE HVAC IDEAL LOADS AIR SYSTEM 5, User-Specified Maximum Cooling Air Flow Rate [m3/s], 0.00000
 Component Sizing Information, ZoneHVAC:IdealLoadsAirSystem, ZONE HVAC IDEAL LOADS AIR SYSTEM 6, User-Specified Maximum Heating Air Flow Rate [m3/s], 0.00000
 Component Sizing Information, ZoneHVAC:IdealLoadsAirSystem, ZONE HVAC IDEAL LOADS AIR SYSTEM 6, User-Specified Maximum Cooling Air Flow Rate [m3/s], 0.00000
 Component Sizing Information, ZoneHVAC:IdealLoadsAirSystem, ZONE HVAC IDEAL LOADS AIR SYSTEM 7, User-Specified Maximum Heating Air Flow Rate [m3/s], 0.00000
 Component Sizing Information, ZoneHVAC:IdealLoadsAirSystem, ZONE HVAC IDEAL LOADS AIR SYSTEM 7, User-Specified Maximum Cooling Air Flow Rate [m3/s], 0.00000
 Component Sizing Information, ZoneHVAC:IdealLoadsAirSystem, ZONE HVAC IDEAL LOADS AIR SYSTEM 8, User-Specified Maximum Heating Air Flow Rate [m3/s], 0.00000
 Component Sizing Information, ZoneHVAC:IdealLoadsAirSystem, ZONE HVAC IDEAL LOADS AIR SYSTEM 8, User-Specified Maximum Cooling Air Flow Rate [m3/s], 0.00000
 Component Sizing Information, ZoneHVAC:IdealLoadsAirSystem, ZONE HVAC IDEAL LOADS AIR SYSTEM 9, User-Specified Maximum Heating Air Flow Rate [m3/s], 0.00000
 Component Sizing Information, ZoneHVAC:IdealLoadsAirSystem, ZONE HVAC IDEAL LOADS AIR SYSTEM 9, User-Specified Maximum Cooling Air Flow Rate [m3/s], 0.00000
 Component Sizing Information, ZoneHVAC:IdealLoadsAirSystem, ZONE HVAC IDEAL LOADS AIR SYSTEM 10, User-Specified Maximum Heating Air Flow Rate [m3/s], 0.00000
 Component Sizing Information, ZoneHVAC:IdealLoadsAirSystem, ZONE HVAC IDEAL LOADS AIR SYSTEM 10, User-Specified Maximum Cooling Air Flow Rate [m3/s], 0.00000
 Component Sizing Information, ZoneHVAC:IdealLoadsAirSystem, ZONE HVAC IDEAL LOADS AIR SYSTEM 11, User-Specified Maximum Heating Air Flow Rate [m3/s], 0.00000
 Component Sizing Information, ZoneHVAC:IdealLoadsAirSystem, ZONE HVAC IDEAL LOADS AIR SYSTEM 11, User-Specified Maximum Cooling Air Flow Rate [m3/s], 0.00000
 Component Sizing Information, ZoneHVAC:IdealLoadsAirSystem, ZONE HVAC IDEAL LOADS AIR SYSTEM 12, User-Specified Maximum Heating Air Flow Rate [m3/s], 0.00000
 Component Sizing Information, ZoneHVAC:IdealLoadsAirSystem, ZONE HVAC IDEAL LOADS AIR SYSTEM 12, User-Specified Maximum Cooling Air Flow Rate [m3/s], 0.00000
 Component Sizing Information, ZoneHVAC:IdealLoadsAirSystem, ZONE HVAC IDEAL LOADS AIR SYSTEM 13, User-Specified Maximum Heating Air Flow Rate [m3/s], 0.00000
 Component Sizing Information, ZoneHVAC:IdealLoadsAirSystem, ZONE HVAC IDEAL LOADS AIR SYSTEM 13, User-Specified Maximum Cooling Air Flow Rate [m3/s], 0.00000
 Component Sizing Information, ZoneHVAC:IdealLoadsAirSystem, ZONE HVAC IDEAL LOADS AIR SYSTEM 14, User-Specified Maximum Heating Air Flow Rate [m3/s], 0.00000
 Component Sizing Information, ZoneHVAC:IdealLoadsAirSystem, ZONE HVAC IDEAL LOADS AIR SYSTEM 14, User-Specified Maximum Cooling Air Flow Rate [m3/s], 0.00000
 Component Sizing Information, ZoneHVAC:IdealLoadsAirSystem, ZONE HVAC IDEAL LOADS AIR SYSTEM 15, User-Specified Maximum Heating Air Flow Rate [m3/s], 0.00000
 Component Sizing Information, ZoneHVAC:IdealLoadsAirSystem, ZONE HVAC IDEAL LOADS AIR SYSTEM 15, User-Specified Maximum Cooling Air Flow Rate [m3/s], 0.00000
 Component Sizing Information, ZoneHVAC:IdealLoadsAirSystem, ZONE HVAC IDEAL LOADS AIR SYSTEM 16, User-Specified Maximum Heating Air Flow Rate [m3/s], 0.00000
 Component Sizing Information, ZoneHVAC:IdealLoadsAirSystem, ZONE HVAC IDEAL LOADS AIR SYSTEM 16, User-Specified Maximum Cooling Air Flow Rate [m3/s], 0.00000
 Component Sizing Information, ZoneHVAC:IdealLoadsAirSystem, ZONE HVAC IDEAL LOADS AIR SYSTEM 17, User-Specified Maximum Heating Air Flow Rate [m3/s], 0.00000
 Component Sizing Information, ZoneHVAC:IdealLoadsAirSystem, ZONE HVAC IDEAL LOADS AIR SYSTEM 17, User-Specified Maximum Cooling Air Flow Rate [m3/s], 0.00000
 Component Sizing Information, ZoneHVAC:IdealLoadsAirSystem, ZONE HVAC IDEAL LOADS AIR SYSTEM 18, User-Specified Maximum Heating Air Flow Rate [m3/s], 0.00000
 Component Sizing Information, ZoneHVAC:IdealLoadsAirSystem, ZONE HVAC IDEAL LOADS AIR SYSTEM 18, User-Specified Maximum Cooling Air Flow Rate [m3/s], 0.00000
 Component Sizing Information, ZoneHVAC:IdealLoadsAirSystem, ZONE HVAC IDEAL LOADS AIR SYSTEM 19, User-Specified Maximum Heating Air Flow Rate [m3/s], 0.00000
 Component Sizing Information, ZoneHVAC:IdealLoadsAirSystem, ZONE HVAC IDEAL LOADS AIR SYSTEM 19, User-Specified Maximum Cooling Air Flow Rate [m3/s], 0.00000
 Component Sizing Information, ZoneHVAC:IdealLoadsAirSystem, ZONE HVAC IDEAL LOADS AIR SYSTEM 20, User-Specified Maximum Heating Air Flow Rate [m3/s], 0.00000
 Component Sizing Information, ZoneHVAC:IdealLoadsAirSystem, ZONE HVAC IDEAL LOADS AIR SYSTEM 20, User-Specified Maximum Cooling Air Flow Rate [m3/s], 0.00000
! <Environment>,Environment Name,Environment Type, Start Date, End Date, Start DayOfWeek, Duration {#days}, Source:Start DayOfWeek,  Use Daylight Saving, Use Holidays, Apply Weekend Holiday Rule,  Use Rain Values, Use Snow Values
! <Environment:Special Days>, Special Day Name, Special Day Type, Source, Start Date, Duration {#days}
! <Environment:Daylight Saving>, Daylight Saving Indicator, Source, Start Date, End Date
! <Environment:WarmupDays>, NumberofWarmupDays
Environment,FORT MCMURRAY AP ANN CLG .4% CONDNS DB=>MWB,SizingPeriod:DesignDay,07/21,07/21,SummerDesignDay,1,N/A,N/A,N/A,N/A,N/A,N/A
Environment:Daylight Saving,No,SizingPeriod:DesignDay
! <Environment:Design Day Data>, Max Dry-Bulb Temp {C}, Temp Range {dC}, Temp Range Ind Type, Hum Ind Value at Max Temp, Hum Ind Type,Pressure {Pa}, Wind Direction {deg CW from N}, Wind Speed {m/s}, Clearness, Rain, Snow
! <Environment:Design Day Misc>,DayOfYear,ASHRAE A Coeff,ASHRAE B Coeff,ASHRAE C Coeff,Solar Constant-Annual Variation,Eq of Time {minutes}, Solar Declination Angle {deg}, Solar Model
Environment:Design Day Data,28.90,12.40,DefaultMultipliers,96969,250,3.7,0.00,No,No
Environment:Design Day Misc,202,1084.4,0.2082,0.1365,1.0,-6.23,20.6,ASHRAETau
Environment:WarmupDays,  6
! <Tabular Report>,Style,Unit Conversion
Tabular Report,HTML,None
! <Warmup Convergence Information>,Zone Name,Environment Type/Name,Average Warmup Temperature Difference {deltaC},Std Dev Warmup Temperature Difference {deltaC},Max Temperature Pass/Fail Convergence,Min Temperature Pass/Fail Convergence,Average Warmup Load Difference {W},Std Dev Warmup Load Difference {W},Heating Load Pass/Fail Convergence,Cooling Load Pass/Fail Convergence
 Warmup Convergence Information,ATRIUM - H < 13M-SPACE FUNCTION ZN,SizingPeriod: FORT MCMURRAY AP ANN CLG .4% CONDNS DB=>MWB,1.1543409038E-002,1.9619986032E-002,Pass,Pass,5.3676021298E-002,0.2880307593,Pass,Pass
 Warmup Convergence Information,ATRIUM - H > 13M-SPACE FUNCTION ZN,SizingPeriod: FORT MCMURRAY AP ANN CLG .4% CONDNS DB=>MWB,2.8379619744E-002,4.2734982060E-002,Pass,Pass,8.1905432153E-002,0.5170220297,Pass,Pass
 Warmup Convergence Information,AUDIENCE - AUDITORIUM-SPACE FUNCTION ZN,SizingPeriod: FORT MCMURRAY AP ANN CLG .4% CONDNS DB=>MWB,5.9548709261E-002,0.1136021535,Pass,Pass,3.7427832437E-002,7.5276680230E-002,Pass,Pass
 Warmup Convergence Information,AUDIENCE - MOTION PICTURE-SPACE FUNCTION ZN,SizingPeriod: FORT MCMURRAY AP ANN CLG .4% CONDNS DB=>MWB,6.6748413673E-002,9.4034766912E-002,Pass,Pass,2.2884805804E-002,4.1612157741E-002,Pass,Pass
 Warmup Convergence Information,AUDIENCE - PERFORMANCE ARTS-SPACE FUNCTION ZN,SizingPeriod: FORT MCMURRAY AP ANN CLG .4% CONDNS DB=>MWB,6.5639949627E-002,0.1143749769,Pass,Pass,2.8216787426E-002,6.6163743823E-002,Pass,Pass
 Warmup Convergence Information,AUTOMOTIVE - REPAIR-SPACE FUNCTION ZN,SizingPeriod: FORT MCMURRAY AP ANN CLG .4% CONDNS DB=>MWB,3.8914320369E-002,5.8757785098E-002,Pass,Pass,7.3215364809E-002,0.4059517852,Pass,Pass
 Warmup Convergence Information,BANK - BANKING AND OFFICES-SPACE FUNCTION ZN,SizingPeriod: FORT MCMURRAY AP ANN CLG .4% CONDNS DB=>MWB,2.1796579221E-002,3.8835821606E-002,Pass,Pass,3.0814209773E-002,0.1378338763,Pass,Pass
 Warmup Convergence Information,CLASSROOM/LECTURE/TRAINING-SPACE FUNCTION ZN,SizingPeriod: FORT MCMURRAY AP ANN CLG .4% CONDNS DB=>MWB,4.0498117536E-002,7.4061897669E-002,Pass,Pass,3.3170899257E-002,0.1017470566,Pass,Pass
 Warmup Convergence Information,CONF./MEET./MULTI-PURPOSE-SPACE FUNCTION ZN,SizingPeriod: FORT MCMURRAY AP ANN CLG .4% CONDNS DB=>MWB,3.4101209775E-002,5.7634577158E-002,Pass,Pass,3.7315862459E-002,0.1591004292,Pass,Pass
 Warmup Convergence Information,CONVENTION CENTRE - AUDIENCE-SPACE FUNCTION ZN,SizingPeriod: FORT MCMURRAY AP ANN CLG .4% CONDNS DB=>MWB,7.0812320501E-002,0.1577846568,Pass,Pass,6.0416028447E-002,0.1627299596,Pass,Pass
 Warmup Convergence Information,CONVENTION CENTRE - EXHIBIT-SPACE FUNCTION ZN,SizingPeriod: FORT MCMURRAY AP ANN CLG .4% CONDNS DB=>MWB,1.9108933749E-002,3.4376837575E-002,Pass,Pass,4.8007278969E-002,0.2738897238,Pass,Pass
 Warmup Convergence Information,COURTHOUSE - CELL-SPACE FUNCTION ZN,SizingPeriod: FORT MCMURRAY AP ANN CLG .4% CONDNS DB=>MWB,5.7731597281E-014,4.0408593425E-014,Pass,Pass,5.5949238145E-003,5.9296167329E-003,Pass,Pass
 Warmup Convergence Information,WHOLEBUILDING-PARKING GARAGE ZN,SizingPeriod: FORT MCMURRAY AP ANN CLG .4% CONDNS DB=>MWB,9.5002298090E-003,2.1237777485E-002,Pass,Pass,3.8088092082E-002,4.7130947384E-002,Pass,Pass
 Warmup Convergence Information,WHOLEBUILDING-PENITENTIARY ZN,SizingPeriod: FORT MCMURRAY AP ANN CLG .4% CONDNS DB=>MWB,3.9499268054E-014,3.5046480861E-014,Pass,Pass,5.8837018291E-003,3.6600269404E-003,Pass,Pass
 Warmup Convergence Information,WHOLEBUILDING-PERFORMING ARTS THEATRE ZN,SizingPeriod: FORT MCMURRAY AP ANN CLG .4% CONDNS DB=>MWB,4.4395495405E-002,0.1516516637,Pass,Pass,5.7891174267E-002,0.4468772917,Pass,Pass
 Warmup Convergence Information,WHOLEBUILDING-POLICE STATION ZN,SizingPeriod: FORT MCMURRAY AP ANN CLG .4% CONDNS DB=>MWB,5.0552155055E-014,4.5507950141E-014,Pass,Pass,6.3943460576E-003,3.1647675238E-003,Pass,Pass
 Warmup Convergence Information,WHOLEBUILDING-POST OFFICE ZN,SizingPeriod: FORT MCMURRAY AP ANN CLG .4% CONDNS DB=>MWB,2.3247906080E-002,3.9764098038E-002,Pass,Pass,3.8260884786E-002,0.1527598887,Pass,Pass
 Warmup Convergence Information,WHOLEBUILDING-RELIGIOUS ZN,SizingPeriod: FORT MCMURRAY AP ANN CLG .4% CONDNS DB=>MWB,0.1381229696,0.6402407010,Pass,Pass,5.0171104281E-002,0.1749051176,Pass,Pass
 Warmup Convergence Information,WHOLEBUILDING-RETAIL ZN,SizingPeriod: FORT MCMURRAY AP ANN CLG .4% CONDNS DB=>MWB,2.7874603444E-002,8.0377285882E-002,Pass,Pass,7.1135783851E-002,0.5708186902,Pass,Pass
 Warmup Convergence Information,WHOLEBUILDING-SCHOOL/UNIVERSITY ZN,SizingPeriod: FORT MCMURRAY AP ANN CLG .4% CONDNS DB=>MWB,1.5166487655E-002,2.8727248385E-002,Pass,Pass,3.5538425890E-002,0.1205235708,Pass,Pass
Environment,FORT MCMURRAY AP ANN HTG 99.6% CONDNS DB,SizingPeriod:DesignDay,01/21,01/21,WinterDesignDay,1,N/A,N/A,N/A,N/A,N/A,N/A
Environment:Daylight Saving,No,SizingPeriod:DesignDay
Environment:Design Day Data,-36.20,0.00,DefaultMultipliers,96969,90,1.0,0.00,No,No
Environment:Design Day Misc, 21,1229.0,0.1415,5.7310E-002,1.0,-11.15,-20.1,ASHRAEClearSky
Environment:WarmupDays,  6
 Warmup Convergence Information,ATRIUM - H < 13M-SPACE FUNCTION ZN,SizingPeriod: FORT MCMURRAY AP ANN HTG 99.6% CONDNS DB,6.3159956701E-002,0.3075699217,Pass,Pass,0.3717057285,1.4355722116,Pass,Pass
 Warmup Convergence Information,ATRIUM - H > 13M-SPACE FUNCTION ZN,SizingPeriod: FORT MCMURRAY AP ANN HTG 99.6% CONDNS DB,5.7502265059E-002,0.3266419209,Pass,Pass,6.4192332407E-002,0.2335208915,Pass,Pass
 Warmup Convergence Information,AUDIENCE - AUDITORIUM-SPACE FUNCTION ZN,SizingPeriod: FORT MCMURRAY AP ANN HTG 99.6% CONDNS DB,5.5555555556E-002,0.3892859114,Pass,Pass,1.1823273282,8.1403649887,Pass,Pass
 Warmup Convergence Information,AUDIENCE - MOTION PICTURE-SPACE FUNCTION ZN,SizingPeriod: FORT MCMURRAY AP ANN HTG 99.6% CONDNS DB,5.5555555556E-002,0.3899269716,Pass,Pass,8.3383862492E-002,0.2130807294,Pass,Pass
 Warmup Convergence Information,AUDIENCE - PERFORMANCE ARTS-SPACE FUNCTION ZN,SizingPeriod: FORT MCMURRAY AP ANN HTG 99.6% CONDNS DB,5.5555555556E-002,0.3898830416,Pass,Pass,0.1265266167,0.3197779562,Pass,Pass
 Warmup Convergence Information,AUTOMOTIVE - REPAIR-SPACE FUNCTION ZN,SizingPeriod: FORT MCMURRAY AP ANN HTG 99.6% CONDNS DB,5.5727673785E-002,0.3618218334,Pass,Pass,1.7677059878,13.9270055141,Pass,Pass
 Warmup Convergence Information,BANK - BANKING AND OFFICES-SPACE FUNCTION ZN,SizingPeriod: FORT MCMURRAY AP ANN HTG 99.6% CONDNS DB,5.6865234363E-002,0.3461455783,Pass,Pass,0.3926474554,2.3129258022,Pass,Pass
 Warmup Convergence Information,CLASSROOM/LECTURE/TRAINING-SPACE FUNCTION ZN,SizingPeriod: FORT MCMURRAY AP ANN HTG 99.6% CONDNS DB,5.5555555556E-002,0.3830150172,Pass,Pass,0.4010572706,3.2415914530,Pass,Pass
 Warmup Convergence Information,CONF./MEET./MULTI-PURPOSE-SPACE FUNCTION ZN,SizingPeriod: FORT MCMURRAY AP ANN HTG 99.6% CONDNS DB,5.5555555556E-002,0.3685015767,Pass,Pass,0.2119530334,0.7321109280,Pass,Pass
 Warmup Convergence Information,CONVENTION CENTRE - AUDIENCE-SPACE FUNCTION ZN,SizingPeriod: FORT MCMURRAY AP ANN HTG 99.6% CONDNS DB,5.5555555556E-002,0.3893094353,Pass,Pass,0.6061731156,3.6920054776,Pass,Pass
 Warmup Convergence Information,CONVENTION CENTRE - EXHIBIT-SPACE FUNCTION ZN,SizingPeriod: FORT MCMURRAY AP ANN HTG 99.6% CONDNS DB,5.6774444004E-002,0.3498256955,Pass,Pass,0.3241845069,1.7503916761,Pass,Pass
 Warmup Convergence Information,COURTHOUSE - CELL-SPACE FUNCTION ZN,SizingPeriod: FORT MCMURRAY AP ANN HTG 99.6% CONDNS DB,5.6039361728E-002,0.3588126206,Pass,Pass,0.1895366566,1.1094429587,Pass,Pass
 Warmup Convergence Information,WHOLEBUILDING-PARKING GARAGE ZN,SizingPeriod: FORT MCMURRAY AP ANN HTG 99.6% CONDNS DB,5.7671201205E-002,0.3284036949,Pass,Pass,7.3093717469E-002,0.3164209291,Pass,Pass
 Warmup Convergence Information,WHOLEBUILDING-PENITENTIARY ZN,SizingPeriod: FORT MCMURRAY AP ANN HTG 99.6% CONDNS DB,6.5300011995E-002,0.3085408094,Pass,Pass,0.4726403345,3.8102280219,Pass,Pass
 Warmup Convergence Information,WHOLEBUILDING-PERFORMING ARTS THEATRE ZN,SizingPeriod: FORT MCMURRAY AP ANN HTG 99.6% CONDNS DB,5.7881210780E-002,0.3353048161,Pass,Pass,11.2333626719,132.0371799801,Pass,Pass
 Warmup Convergence Information,WHOLEBUILDING-POLICE STATION ZN,SizingPeriod: FORT MCMURRAY AP ANN HTG 99.6% CONDNS DB,6.2602387698E-002,0.3070247666,Pass,Pass,0.4294692107,2.2025565579,Pass,Pass
 Warmup Convergence Information,WHOLEBUILDING-POST OFFICE ZN,SizingPeriod: FORT MCMURRAY AP ANN HTG 99.6% CONDNS DB,5.7407270493E-002,0.3414567392,Pass,Pass,0.2424588907,1.2185828380,Pass,Pass
 Warmup Convergence Information,WHOLEBUILDING-RELIGIOUS ZN,SizingPeriod: FORT MCMURRAY AP ANN HTG 99.6% CONDNS DB,5.6493564593E-002,0.3478423291,Pass,Pass,0.5699915915,4.1332089395,Pass,Pass
 Warmup Convergence Information,WHOLEBUILDING-RETAIL ZN,SizingPeriod: FORT MCMURRAY AP ANN HTG 99.6% CONDNS DB,5.9415026308E-002,0.3219564866,Pass,Pass,0.2660075881,1.1465961060,Pass,Pass
 Warmup Convergence Information,WHOLEBUILDING-SCHOOL/UNIVERSITY ZN,SizingPeriod: FORT MCMURRAY AP ANN HTG 99.6% CONDNS DB,5.6943543606E-002,0.3431752188,Pass,Pass,0.1565192488,0.5166913723,Pass,Pass
! <Program Control Information:Threads/Parallel Sims>, Threading Supported,Maximum Number of Threads, Env Set Threads (OMP_NUM_THREADS), EP Env Set Threads (EP_OMP_NUM_THREADS), IDF Set Threads, Number of Threads Used (Interior Radiant Exchange), Number Nominal Surfaces, Number Parallel Sims
Program Control:Threads/Parallel Sims, No,1, N/A, N/A, N/A, N/A, N/A, N/A
End of Data
