Program Version,EnergyPlus, Version 8.9.0-eba93e8e1b, YMD=2019.04.04 18:00,
   ************* Beginning Zone Sizing Calculations
   ** Warning ** ProcessScheduleInput: Schedule:Day:Interval="ECONOMIZER MAX OA FRACTION 100 PCT DEFAULT", Blank Schedule Type Limits Name input -- will not be validated.
   ** Warning ** ProcessScheduleInput: Schedule:Day:Interval="SCHEDULE DAY 1", Blank Schedule Type Limits Name input -- will not be validated.
   ** Warning ** ProcessScheduleInput: Schedule:Day:Interval="SCHEDULE DAY 10", Blank Schedule Type Limits Name input -- will not be validated.
   ** Warning ** ProcessScheduleInput: Schedule:Day:Interval="SCHEDULE DAY 11", Blank Schedule Type Limits Name input -- will not be validated.
   ** Warning ** ProcessScheduleInput: Schedule:Day:Interval="SCHEDULE DAY 12", Blank Schedule Type Limits Name input -- will not be validated.
   ** Warning ** ProcessScheduleInput: Schedule:Day:Interval="SCHEDULE DAY 13", Blank Schedule Type Limits Name input -- will not be validated.
   ** Warning ** ProcessScheduleInput: Schedule:Day:Interval="SCHEDULE DAY 14", Blank Schedule Type Limits Name input -- will not be validated.
   ** Warning ** ProcessScheduleInput: Schedule:Day:Interval="SCHEDULE DAY 15", Blank Schedule Type Limits Name input -- will not be validated.
   ** Warning ** ProcessScheduleInput: Schedule:Day:Interval="SCHEDULE DAY 16", Blank Schedule Type Limits Name input -- will not be validated.
   ** Warning ** ProcessScheduleInput: Schedule:Day:Interval="SCHEDULE DAY 17", Blank Schedule Type Limits Name input -- will not be validated.
   ** Warning ** ProcessScheduleInput: Schedule:Day:Interval="SCHEDULE DAY 18", Blank Schedule Type Limits Name input -- will not be validated.
   ** Warning ** ProcessScheduleInput: Schedule:Day:Interval="SCHEDULE DAY 19", Blank Schedule Type Limits Name input -- will not be validated.
   ** Warning ** ProcessScheduleInput: Schedule:Day:Interval="SCHEDULE DAY 2", Blank Schedule Type Limits Name input -- will not be validated.
   ** Warning ** ProcessScheduleInput: Schedule:Day:Interval="SCHEDULE DAY 20", Blank Schedule Type Limits Name input -- will not be validated.
   ** Warning ** ProcessScheduleInput: Schedule:Day:Interval="SCHEDULE DAY 5", Blank Schedule Type Limits Name input -- will not be validated.
   ** Warning ** ProcessScheduleInput: Schedule:Day:Interval="SCHEDULE DAY 6", Blank Schedule Type Limits Name input -- will not be validated.
   ** Warning ** ProcessScheduleInput: Schedule:Day:Interval="SCHEDULE DAY 7", Blank Schedule Type Limits Name input -- will not be validated.
   ** Warning ** ProcessScheduleInput: Schedule:Day:Interval="SCHEDULE DAY 8", Blank Schedule Type Limits Name input -- will not be validated.
   ** Warning ** ProcessScheduleInput: Schedule:Day:Interval="SCHEDULE DAY 9", Blank Schedule Type Limits Name input -- will not be validated.
   ** Warning ** ProcessScheduleInput: Schedule:Year="ECONOMIZER MAX OA FRACTION 100 PCT", Blank Schedule Type Limits Name input -- will not be validated.
   ** Warning ** ProcessScheduleInput: Schedule:Year="SCHEDULE RULESET 3", Blank Schedule Type Limits Name input -- will not be validated.
   ** Warning ** ProcessScheduleInput: Schedule:Year="SCHEDULE RULESET 4", Blank Schedule Type Limits Name input -- will not be validated.
   ** Warning ** ProcessScheduleInput: Schedule:Year="SCHEDULE RULESET 5", Blank Schedule Type Limits Name input -- will not be validated.
   ** Warning ** ProcessScheduleInput: Schedule:Year="SCHEDULE RULESET 6", Blank Schedule Type Limits Name input -- will not be validated.
   ** Warning ** ProcessScheduleInput: Schedule:Year="SCHEDULE RULESET 7", Blank Schedule Type Limits Name input -- will not be validated.
   ** Warning ** ProcessScheduleInput: Schedule:Year="SCHEDULE RULESET 8", Blank Schedule Type Limits Name input -- will not be validated.
   ** Warning ** ProcessScheduleInput: Schedule:Constant="ALWAYS OFF DISCRETE", Blank Schedule Type Limits Name input -- will not be validated.
   ** Warning ** ProcessScheduleInput: Schedule:Constant="ALWAYS ON CONTINUOUS", Blank Schedule Type Limits Name input -- will not be validated.
   ** Warning ** CheckUsedConstructions: There are 32 nominally unused constructions in input.
   **   ~~~   ** For explicit details on each unused construction, use Output:Diagnostics,DisplayExtraWarnings;
   ** Warning ** GetInternalHeatGains: People Combination of ZoneList and Object Name generate a name too long.
   **   ~~~   ** Object Name="SPACE FUNCTION LOBBY - ELEVATOR PEOPLE".
   **   ~~~   ** ZoneList/Zone Name="SP-LOBBY - ELEVATOR-SPACE FUNCTION SYS-3 FLR-1 SCH-C HPLCMT-CORE ZN".
   **   ~~~   ** Item length=[105] > Maximum Length=[100]. You may need to shorten the names.
   **   ~~~   ** Shortening the Object Name by [6] characters will assure uniqueness for this ZoneList.
   **   ~~~   ** name that will be used (may be needed in reporting)="SP-LOBBY - ELEVATOR-SPACE FUNCTION SYS-3 FLR-1 SCH-C HPLCMT-CORE ZN SPACE FUNCTION LOBBY - ELEVATOR PEOPLE".
   ** Warning ** GetInternalHeatGains: People Combination of ZoneList and Object Name generate a name too long.
   **   ~~~   ** Object Name="SPACE FUNCTION LOBBY - MOTION PICTURE THEATRE PEOPLE".
   **   ~~~   ** ZoneList/Zone Name="SP-LOBBY - MOTION PICTURE THEATRE-SPACE FUNCTION SYS-3 FLR-1 SCH-C HPLCMT-EAST ZN".
   **   ~~~   ** Item length=[133] > Maximum Length=[100]. You may need to shorten the names.
   **   ~~~   ** Shortening the Object Name by [34] characters will assure uniqueness for this ZoneList.
   **   ~~~   ** name that will be used (may be needed in reporting)="SP-LOBBY - MOTION PICTURE THEATRE-SPACE FUNCTION SYS-3 FLR-1 SCH-C HPLCMT-EAST ZN SPACE FUNCTION LOBBY - MOTION PICTURE THEATRE PEOPLE".
   ** Warning ** GetInternalHeatGains: People Combination of ZoneList and Object Name generate a name too long.
   **   ~~~   ** Object Name="SPACE FUNCTION LOBBY - PERFORMING ARTS THEATRE PEOPLE".
   **   ~~~   ** ZoneList/Zone Name="SP-LOBBY - PERFORMING ARTS THEATRE-SPACE FUNCTION SYS-3 FLR-1 SCH-C HPLCMT-NORTH ZN".
   **   ~~~   ** Item length=[136] > Maximum Length=[100]. You may need to shorten the names.
   **   ~~~   ** Shortening the Object Name by [37] characters will assure uniqueness for this ZoneList.
   **   ~~~   ** name that will be used (may be needed in reporting)="SP-LOBBY - PERFORMING ARTS THEATRE-SPACE FUNCTION SYS-3 FLR-1 SCH-C HPLCMT-NORTH ZN SPACE FUNCTION LOBBY - PERFORMING ARTS THEATRE PEOPLE".
   ** Warning ** GetInternalHeatGains: People Combination of ZoneList and Object Name generate a name too long.
   **   ~~~   ** Object Name="SPACE FUNCTION LOBBY - SPACE DESIGNED TO ANSI/IES RP-28 (USED PRIMARILY BY RESIDENTS) PEOPLE".
   **   ~~~   ** ZoneList/Zone Name="SP-LOBBY - SPACE DESIGNED TO ANSI/IES RP-28 (USED PRIMARILY BY RESIDENTS)-SPACE FUNCTION SYS-3 FLR-1 SCH-B HPLCMT-WEST ZN".
   **   ~~~   ** Item length=[213] > Maximum Length=[100]. You may need to shorten the names.
   **   ~~~   ** Shortening the Object Name by [114] characters will assure uniqueness for this ZoneList.
   **   ~~~   ** name that will be used (may be needed in reporting)="SP-LOBBY - SPACE DESIGNED TO ANSI/IES RP-28 (USED PRIMARILY BY RESIDENTS)-SPACE FUNCTION SYS-3 FLR-1 SCH-B HPLCMT-WEST ZN SPACE FUNCTION LOBBY - SPACE DESIGNED TO ANSI/IES RP-28 (USED PRIMARILY BY RESIDENTS) PEOPLE".
   ** Warning ** GetInternalHeatGains: Lights Combination of ZoneList and Object Name generate a name too long.
   **   ~~~   ** Object Name="SPACE FUNCTION LOBBY - ELEVATOR LIGHTS".
   **   ~~~   ** ZoneList/Zone Name="SP-LOBBY - ELEVATOR-SPACE FUNCTION SYS-3 FLR-1 SCH-C HPLCMT-CORE ZN".
   **   ~~~   ** Item length=[105] > Maximum Length=[100]. You may need to shorten the names.
   **   ~~~   ** Shortening the Object Name by [6] characters will assure uniqueness for this ZoneList.
   **   ~~~   ** name that will be used (may be needed in reporting)="SP-LOBBY - ELEVATOR-SPACE FUNCTION SYS-3 FLR-1 SCH-C HPLCMT-CORE ZN SPACE FUNCTION LOBBY - ELEVATOR LIGHTS".
   ** Warning ** GetInternalHeatGains: Lights Combination of ZoneList and Object Name generate a name too long.
   **   ~~~   ** Object Name="SPACE FUNCTION LOBBY - MOTION PICTURE THEATRE LIGHTS".
   **   ~~~   ** ZoneList/Zone Name="SP-LOBBY - MOTION PICTURE THEATRE-SPACE FUNCTION SYS-3 FLR-1 SCH-C HPLCMT-EAST ZN".
   **   ~~~   ** Item length=[133] > Maximum Length=[100]. You may need to shorten the names.
   **   ~~~   ** Shortening the Object Name by [34] characters will assure uniqueness for this ZoneList.
   **   ~~~   ** name that will be used (may be needed in reporting)="SP-LOBBY - MOTION PICTURE THEATRE-SPACE FUNCTION SYS-3 FLR-1 SCH-C HPLCMT-EAST ZN SPACE FUNCTION LOBBY - MOTION PICTURE THEATRE LIGHTS".
   ** Warning ** GetInternalHeatGains: Lights Combination of ZoneList and Object Name generate a name too long.
   **   ~~~   ** Object Name="SPACE FUNCTION LOBBY - PERFORMING ARTS THEATRE LIGHTS".
   **   ~~~   ** ZoneList/Zone Name="SP-LOBBY - PERFORMING ARTS THEATRE-SPACE FUNCTION SYS-3 FLR-1 SCH-C HPLCMT-NORTH ZN".
   **   ~~~   ** Item length=[136] > Maximum Length=[100]. You may need to shorten the names.
   **   ~~~   ** Shortening the Object Name by [37] characters will assure uniqueness for this ZoneList.
   **   ~~~   ** name that will be used (may be needed in reporting)="SP-LOBBY - PERFORMING ARTS THEATRE-SPACE FUNCTION SYS-3 FLR-1 SCH-C HPLCMT-NORTH ZN SPACE FUNCTION LOBBY - PERFORMING ARTS THEATRE LIGHTS".
   ** Warning ** GetInternalHeatGains: Lights Combination of ZoneList and Object Name generate a name too long.
   **   ~~~   ** Object Name="SPACE FUNCTION LOBBY - SPACE DESIGNED TO ANSI/IES RP-28 (USED PRIMARILY BY RESIDENTS) LIGHTS".
   **   ~~~   ** ZoneList/Zone Name="SP-LOBBY - SPACE DESIGNED TO ANSI/IES RP-28 (USED PRIMARILY BY RESIDENTS)-SPACE FUNCTION SYS-3 FLR-1 SCH-B HPLCMT-WEST ZN".
   **   ~~~   ** Item length=[213] > Maximum Length=[100]. You may need to shorten the names.
   **   ~~~   ** Shortening the Object Name by [114] characters will assure uniqueness for this ZoneList.
   **   ~~~   ** name that will be used (may be needed in reporting)="SP-LOBBY - SPACE DESIGNED TO ANSI/IES RP-28 (USED PRIMARILY BY RESIDENTS)-SPACE FUNCTION SYS-3 FLR-1 SCH-B HPLCMT-WEST ZN SPACE FUNCTION LOBBY - SPACE DESIGNED TO ANSI/IES RP-28 (USED PRIMARILY BY RESIDENTS) LIGHTS".
   ** Warning ** GetInternalHeatGains: ElectricEquipment Combination of ZoneList and Object Name generate a name too long.
   **   ~~~   ** Object Name="SPACE FUNCTION LOBBY - ELEVATOR ELEC EQUIP".
   **   ~~~   ** ZoneList/Zone Name="SP-LOBBY - ELEVATOR-SPACE FUNCTION SYS-3 FLR-1 SCH-C HPLCMT-CORE ZN".
   **   ~~~   ** Item length=[109] > Maximum Length=[100]. You may need to shorten the names.
   **   ~~~   ** Shortening the Object Name by [10] characters will assure uniqueness for this ZoneList.
   **   ~~~   ** name that will be used (may be needed in reporting)="SP-LOBBY - ELEVATOR-SPACE FUNCTION SYS-3 FLR-1 SCH-C HPLCMT-CORE ZN SPACE FUNCTION LOBBY - ELEVATOR ELEC EQUIP".
   ** Warning ** GetInternalHeatGains: ElectricEquipment Combination of ZoneList and Object Name generate a name too long.
   **   ~~~   ** Object Name="SPACE FUNCTION LOBBY - HOTEL ELEC EQUIP".
   **   ~~~   ** ZoneList/Zone Name="SP-LOBBY - HOTEL-SPACE FUNCTION SYS-3 FLR-1 SCH-H HPLCMT-SOUTH ZN".
   **   ~~~   ** Item length=[104] > Maximum Length=[100]. You may need to shorten the names.
   **   ~~~   ** Shortening the Object Name by [5] characters will assure uniqueness for this ZoneList.
   **   ~~~   ** name that will be used (may be needed in reporting)="SP-LOBBY - HOTEL-SPACE FUNCTION SYS-3 FLR-1 SCH-H HPLCMT-SOUTH ZN SPACE FUNCTION LOBBY - HOTEL ELEC EQUIP".
   ** Warning ** GetInternalHeatGains: ElectricEquipment Combination of ZoneList and Object Name generate a name too long.
   **   ~~~   ** Object Name="SPACE FUNCTION LOBBY - MOTION PICTURE THEATRE ELEC EQUIP".
   **   ~~~   ** ZoneList/Zone Name="SP-LOBBY - MOTION PICTURE THEATRE-SPACE FUNCTION SYS-3 FLR-1 SCH-C HPLCMT-EAST ZN".
   **   ~~~   ** Item length=[137] > Maximum Length=[100]. You may need to shorten the names.
   **   ~~~   ** Shortening the Object Name by [38] characters will assure uniqueness for this ZoneList.
   **   ~~~   ** name that will be used (may be needed in reporting)="SP-LOBBY - MOTION PICTURE THEATRE-SPACE FUNCTION SYS-3 FLR-1 SCH-C HPLCMT-EAST ZN SPACE FUNCTION LOBBY - MOTION PICTURE THEATRE ELEC EQUIP".
   ** Warning ** GetInternalHeatGains: ElectricEquipment Combination of ZoneList and Object Name generate a name too long.
   **   ~~~   ** Object Name="SPACE FUNCTION LOBBY - PERFORMING ARTS THEATRE ELEC EQUIP".
   **   ~~~   ** ZoneList/Zone Name="SP-LOBBY - PERFORMING ARTS THEATRE-SPACE FUNCTION SYS-3 FLR-1 SCH-C HPLCMT-NORTH ZN".
   **   ~~~   ** Item length=[140] > Maximum Length=[100]. You may need to shorten the names.
   **   ~~~   ** Shortening the Object Name by [41] characters will assure uniqueness for this ZoneList.
   **   ~~~   ** name that will be used (may be needed in reporting)="SP-LOBBY - PERFORMING ARTS THEATRE-SPACE FUNCTION SYS-3 FLR-1 SCH-C HPLCMT-NORTH ZN SPACE FUNCTION LOBBY - PERFORMING ARTS THEATRE ELEC EQUIP".
   ** Warning ** GetInternalHeatGains: ElectricEquipment Combination of ZoneList and Object Name generate a name too long.
   **   ~~~   ** Object Name="SPACE FUNCTION LOBBY - SPACE DESIGNED TO ANSI/IES RP-28 (USED PRIMARILY BY RESIDENTS) ELEC EQUIP".
   **   ~~~   ** ZoneList/Zone Name="SP-LOBBY - SPACE DESIGNED TO ANSI/IES RP-28 (USED PRIMARILY BY RESIDENTS)-SPACE FUNCTION SYS-3 FLR-1 SCH-B HPLCMT-WEST ZN".
   **   ~~~   ** Item length=[217] > Maximum Length=[100]. You may need to shorten the names.
   **   ~~~   ** Shortening the Object Name by [118] characters will assure uniqueness for this ZoneList.
   **   ~~~   ** name that will be used (may be needed in reporting)="SP-LOBBY - SPACE DESIGNED TO ANSI/IES RP-28 (USED PRIMARILY BY RESIDENTS)-SPACE FUNCTION SYS-3 FLR-1 SCH-B HPLCMT-WEST ZN SPACE FUNCTION LOBBY - SPACE DESIGNED TO ANSI/IES RP-28 (USED PRIMARILY BY RESIDENTS) ELEC EQUIP".
   ** Warning ** Calculated design heating load for zone=SP-LOBBY - HOTEL-SPACE FUNCTION SYS-3 FLR-1 SCH-H HPLCMT-SOUTH ZN is zero.
   **   ~~~   ** Check Sizing:Zone and ZoneControl:Thermostat inputs.
   ** Warning ** Calculated design heating load for zone=SP-LOBBY - SPACE DESIGNED TO ANSI/IES RP-28 (USED PRIMARILY BY RESIDENTS)-SPACE FUNCTION SYS-3 FLR-1 SCH-B HPLCMT-WEST ZN is zero.
   **   ~~~   ** Check Sizing:Zone and ZoneControl:Thermostat inputs.
   ************* Beginning System Sizing Calculations
   ************* Beginning Plant Sizing Calculations
   ** Warning ** GetDXCoils: Coil:Cooling:DX:SingleSpeed="COIL COOLING DX SINGLE SPEED 3 587KBTU/HR 8.21EER", invalid
   **   ~~~   ** ...Part Load Fraction Correlation Curve Name = DXCOOL-NECB2011-REF-COOLPLFFPLR has out of range value.
   **   ~~~   ** ...Curve maximum must be <= 1.0, curve max at PLR = 0.99 is 1.015
   **   ~~~   ** ...Setting curve maximum to 1.0 and simulation continues.
   ** Warning ** The Standard Ratings is calculated for Coil:Cooling:DX:SingleSpeed = COIL COOLING DX SINGLE SPEED 3 587KBTU/HR 8.21EER but not at the AHRI test condition due to curve out of bound.
   **   ~~~   **  Review the Standard Ratings calculations in the Engineering Reference for this coil type. Also, use Output:Diagnostics, DisplayExtraWarnings for further guidance.
   ** Warning ** The Standard Ratings is calculated for Coil:Cooling:DX:SingleSpeed = COIL COOLING DX SINGLE SPEED 4 173KBTU/HR 9.08EER but not at the AHRI test condition due to curve out of bound.
   **   ~~~   **  Review the Standard Ratings calculations in the Engineering Reference for this coil type. Also, use Output:Diagnostics, DisplayExtraWarnings for further guidance.
   ** Warning ** The Standard Ratings is calculated for Coil:Cooling:DX:SingleSpeed = COIL COOLING DX SINGLE SPEED 2 448KBTU/HR 8.21EER but not at the AHRI test condition due to curve out of bound.
   **   ~~~   **  Review the Standard Ratings calculations in the Engineering Reference for this coil type. Also, use Output:Diagnostics, DisplayExtraWarnings for further guidance.
   ** Warning ** The Standard Ratings is calculated for Coil:Cooling:DX:SingleSpeed = COIL COOLING DX SINGLE SPEED 1 448KBTU/HR 8.21EER but not at the AHRI test condition due to curve out of bound.
   **   ~~~   **  Review the Standard Ratings calculations in the Engineering Reference for this coil type. Also, use Output:Diagnostics, DisplayExtraWarnings for further guidance.
   ** Warning ** The Standard Ratings is calculated for Coil:Cooling:DX:SingleSpeed = COIL COOLING DX SINGLE SPEED 5 479KBTU/HR 8.21EER but not at the AHRI test condition due to curve out of bound.
   **   ~~~   **  Review the Standard Ratings calculations in the Engineering Reference for this coil type. Also, use Output:Diagnostics, DisplayExtraWarnings for further guidance.
   ** Warning ** Output:Meter: invalid Key Name="DISTRICTCOOLING:FACILITY" - not found.
   ** Warning ** Output:Meter: invalid Key Name="DISTRICTHEATING:FACILITY" - not found.
   ** Warning ** Output:Meter:MeterFileOnly requested for "Electricity:Facility" (TimeStep), already on "Output:Meter". Will report to both eplusout.eso and eplusout.mtr
   ************* Testing Individual Branch Integrity
   ************* All Branches passed integrity testing
   ************* Testing Individual Supply Air Path Integrity
   ************* All Supply Air Paths passed integrity testing
   ************* Testing Individual Return Air Path Integrity
   ************* All Return Air Paths passed integrity testing
   ************* No node connection errors were found.
   ************* Beginning Simulation
   ** Severe  ** CheckWarmupConvergence: Loads Initialization, Zone="SP-LOBBY - ELEVATOR-SPACE FUNCTION SYS-3 FLR-1 SCH-C HPLCMT-CORE ZN" did not converge after 25 warmup days.
   **   ~~~   ** See Warmup Convergence Information in .eio file for details.
   **   ~~~   ** ...Environment(SizingPeriod)="FORT MCMURRAY AP ANN CLG .4% CONDNS DB=>MWB"
   **   ~~~   ** ..Max Temp Comparison = 1.22E-006 vs Temperature Convergence Tolerance=0.40 - Pass Convergence
   **   ~~~   ** ..Min Temp Comparison = 0.82 vs Temperature Convergence Tolerance=0.40 - Fail Convergence
   **   ~~~   ** ..Max Heat Load Comparison = 0.1684 vs Loads Convergence Tolerance=4.00E-002 - Fail Convergence
   **   ~~~   ** ..Max Cool Load Comparison = 7.2330E-002 vs Loads Convergence Tolerance=4.00E-002 - Fail Convergence
   ** Severe  ** CheckWarmupConvergence: Loads Initialization, Zone="SP-LOBBY - MOTION PICTURE THEATRE-SPACE FUNCTION SYS-3 FLR-1 SCH-C HPLCMT-EAST ZN" did not converge after 25 warmup days.
   **   ~~~   ** ...Environment(SizingPeriod)="FORT MCMURRAY AP ANN CLG .4% CONDNS DB=>MWB"
   **   ~~~   ** ..Max Temp Comparison = 1.46E-009 vs Temperature Convergence Tolerance=0.40 - Pass Convergence
   **   ~~~   ** ..Min Temp Comparison = 0.40 vs Temperature Convergence Tolerance=0.40 - Fail Convergence
   **   ~~~   ** ..Max Heat Load Comparison = 0.1614 vs Loads Convergence Tolerance=4.00E-002 - Fail Convergence
   **   ~~~   ** ..Max Cool Load Comparison = 0.1045 vs Loads Convergence Tolerance=4.00E-002 - Fail Convergence
   ** Severe  ** CheckWarmupConvergence: Loads Initialization, Zone="SP-LOBBY - PERFORMING ARTS THEATRE-SPACE FUNCTION SYS-3 FLR-1 SCH-C HPLCMT-NORTH ZN" did not converge after 25 warmup days.
   **   ~~~   ** ...Environment(SizingPeriod)="FORT MCMURRAY AP ANN CLG .4% CONDNS DB=>MWB"
   **   ~~~   ** ..Max Temp Comparison = 6.92E-011 vs Temperature Convergence Tolerance=0.40 - Pass Convergence
   **   ~~~   ** ..Min Temp Comparison = 0.39 vs Temperature Convergence Tolerance=0.40 - Pass Convergence
   **   ~~~   ** ..Max Heat Load Comparison = 0.6440 vs Loads Convergence Tolerance=4.00E-002 - Fail Convergence
   **   ~~~   ** ..Max Cool Load Comparison = 1.7064E-006 vs Loads Convergence Tolerance=4.00E-002 - Pass Convergence
   ** Severe  ** CheckWarmupConvergence: Loads Initialization, Zone="SP-LOBBY - SPACE DESIGNED TO ANSI/IES RP-28 (USED PRIMARILY BY RESIDENTS)-SPACE FUNCTION SYS-3 FLR-1 SCH-B HPLCMT-WEST ZN" did not converge after 25 warmup days.
   **   ~~~   ** ...Environment(SizingPeriod)="FORT MCMURRAY AP ANN CLG .4% CONDNS DB=>MWB"
   **   ~~~   ** ..Max Temp Comparison = 3.94E-005 vs Temperature Convergence Tolerance=0.40 - Pass Convergence
   **   ~~~   ** ..Min Temp Comparison = 4.00E-002 vs Temperature Convergence Tolerance=0.40 - Pass Convergence
   **   ~~~   ** ..Max Heat Load Comparison = 0.1498 vs Loads Convergence Tolerance=4.00E-002 - Fail Convergence
   **   ~~~   ** ..Max Cool Load Comparison = 1.8334E-005 vs Loads Convergence Tolerance=4.00E-002 - Pass Convergence
   ** Warning ** Output:Table:Monthly requested with SimulationControl Run Simulation for Weather File Run Periods set to No so Output:Table:Monthly will not be generated
   ************* Simulation Error Summary *************
   ************* There are 8 unused objects in input.
   ************* Use Output:Diagnostics,DisplayUnusedObjects; to see them.
   ************* There are 9 unused schedules in input.
   ************* There are 9 unused week schedules in input.
   ************* There are 22 unused day schedules in input.
   ************* Use Output:Diagnostics,DisplayUnusedSchedules; to see them.
   *************
   ************* ===== Recurring Error Summary =====
   ************* The following recurring error messages occurred.
   *************
   *************  ** Warning ** Plant loop falling below lower temperature limit, PlantLoop="MAIN SERVICE WATER LOOP"
   *************  **   ~~~   **   This error occurred 6 total times;
   *************  **   ~~~   **   during Warmup 6 times;
   *************  **   ~~~   **   during Sizing 0 times.
   *************  **   ~~~   **   Min=1.048357
   *************
   *************
   ************* ===== Final Error Summary =====
   ************* The following error categories occurred.  Consider correcting or noting.
   ************* Loads Initialization did not Converge
   ************* ..1) very high thermal mass such as very thick concrete (solution: increase max number of warmup
   ************* ..   days in the BUILDING object);
   ************* ..2) moderate mass and inadequate space conditioning such that the building keeps getting warmer
   ************* ..   and warmer on successive days (solution: add HVAC, check building thermal properties,
   ************* ..   check if infiltration is included, make sure HVAC properly controlled);
   ************* ..3) a soil layer modeled below the concrete slab - (solution remove this layer and read about
   ************* ..   ground temperatures in the Auxiliary Programs document).
   ************* ..4) unreasonable (too small) limits in the BUILDING object for temperature (.4 default) or
   ************* ..   loads tolerances (.04 default)
   ************* Nominally Unused Constructions
   ************* ..The nominally unused constructions warning is provided to alert you to potential conditions that can cause
   ************* ..extra time during simulation. Each construction is calculated by the algorithm indicated in the HeatBalanceAlgorithm
   ************* ..object. You may remove the constructions indicated (when you use the DisplayExtraWarnings option).
   *************
   ************* EnergyPlus Warmup Error Summary. During Warmup: 0 Warning; 4 Severe Errors.
   ************* EnergyPlus Sizing Error Summary. During Sizing: 44 Warning; 0 Severe Errors.
   ************* EnergyPlus Completed Successfully-- 60 Warning; 4 Severe Errors; Elapsed Time=00hr 00min  2.06sec
