{
   "completed_at" : "20190328T142640Z",
   "completed_status" : "Success",
   "created_at" : "20190328T142630Z",
   "current_step" : 0,
   "eplusout_err" : "Program Version,EnergyPlus, Version 8.9.0-eba93e8e1b, YMD=2019.03.28 14:26,\n   ************* Beginning Zone Sizing Calculations\n   ** Warning ** ProcessScheduleInput: Schedule:Day:Interval=\"SCHEDULE DAY 1\", Blank Schedule Type Limits Name input -- will not be validated.\n   ** Warning ** ProcessScheduleInput: Schedule:Day:Interval=\"SCHEDULE DAY 10\", Blank Schedule Type Limits Name input -- will not be validated.\n   ** Warning ** ProcessScheduleInput: Schedule:Day:Interval=\"SCHEDULE DAY 11\", Blank Schedule Type Limits Name input -- will not be validated.\n   ** Warning ** ProcessScheduleInput: Schedule:Day:Interval=\"SCHEDULE DAY 12\", Blank Schedule Type Limits Name input -- will not be validated.\n   ** Warning ** ProcessScheduleInput: Schedule:Day:Interval=\"SCHEDULE DAY 13\", Blank Schedule Type Limits Name input -- will not be validated.\n   ** Warning ** ProcessScheduleInput: Schedule:Day:Interval=\"SCHEDULE DAY 14\", Blank Schedule Type Limits Name input -- will not be validated.\n   ** Warning ** ProcessScheduleInput: Schedule:Day:Interval=\"SCHEDULE DAY 15\", Blank Schedule Type Limits Name input -- will not be validated.\n   ** Warning ** ProcessScheduleInput: Schedule:Day:Interval=\"SCHEDULE DAY 16\", Blank Schedule Type Limits Name input -- will not be validated.\n   ** Warning ** ProcessScheduleInput: Schedule:Day:Interval=\"SCHEDULE DAY 17\", Blank Schedule Type Limits Name input -- will not be validated.\n   ** Warning ** ProcessScheduleInput: Schedule:Day:Interval=\"SCHEDULE DAY 18\", Blank Schedule Type Limits Name input -- will not be validated.\n   ** Warning ** ProcessScheduleInput: Schedule:Day:Interval=\"SCHEDULE DAY 19\", Blank Schedule Type Limits Name input -- will not be validated.\n   ** Warning ** ProcessScheduleInput: Schedule:Day:Interval=\"SCHEDULE DAY 2\", Blank Schedule Type Limits Name input -- will not be validated.\n   ** Warning ** ProcessScheduleInput: Schedule:Day:Interval=\"SCHEDULE DAY 20\", Blank Schedule Type Limits Name input -- will not be validated.\n   ** Warning ** ProcessScheduleInput: Schedule:Day:Interval=\"SCHEDULE DAY 21\", Blank Schedule Type Limits Name input -- will not be validated.\n   ** Warning ** ProcessScheduleInput: Schedule:Day:Interval=\"SCHEDULE DAY 22\", Blank Schedule Type Limits Name input -- will not be validated.\n   ** Warning ** ProcessScheduleInput: Schedule:Day:Interval=\"SCHEDULE DAY 23\", Blank Schedule Type Limits Name input -- will not be validated.\n   ** Warning ** ProcessScheduleInput: Schedule:Day:Interval=\"SCHEDULE DAY 24\", Blank Schedule Type Limits Name input -- will not be validated.\n   ** Warning ** ProcessScheduleInput: Schedule:Day:Interval=\"SCHEDULE DAY 25\", Blank Schedule Type Limits Name input -- will not be validated.\n   ** Warning ** ProcessScheduleInput: Schedule:Day:Interval=\"SCHEDULE DAY 26\", Blank Schedule Type Limits Name input -- will not be validated.\n   ** Warning ** ProcessScheduleInput: Schedule:Day:Interval=\"SCHEDULE DAY 27\", Blank Schedule Type Limits Name input -- will not be validated.\n   ** Warning ** ProcessScheduleInput: Schedule:Day:Interval=\"SCHEDULE DAY 28\", Blank Schedule Type Limits Name input -- will not be validated.\n   ** Warning ** ProcessScheduleInput: Schedule:Day:Interval=\"SCHEDULE DAY 29\", Blank Schedule Type Limits Name input -- will not be validated.\n   ** Warning ** ProcessScheduleInput: Schedule:Day:Interval=\"SCHEDULE DAY 30\", Blank Schedule Type Limits Name input -- will not be validated.\n   ** Warning ** ProcessScheduleInput: Schedule:Day:Interval=\"SCHEDULE DAY 31\", Blank Schedule Type Limits Name input -- will not be validated.\n   ** Warning ** ProcessScheduleInput: Schedule:Day:Interval=\"SCHEDULE DAY 32\", Blank Schedule Type Limits Name input -- will not be validated.\n   ** Warning ** ProcessScheduleInput: Schedule:Day:Interval=\"SCHEDULE DAY 33\", Blank Schedule Type Limits Name input -- will not be validated.\n   ** Warning ** ProcessScheduleInput: Schedule:Day:Interval=\"SCHEDULE DAY 34\", Blank Schedule Type Limits Name input -- will not be validated.\n   ** Warning ** ProcessScheduleInput: Schedule:Day:Interval=\"SCHEDULE DAY 35\", Blank Schedule Type Limits Name input -- will not be validated.\n   ** Warning ** ProcessScheduleInput: Schedule:Day:Interval=\"SCHEDULE DAY 36\", Blank Schedule Type Limits Name input -- will not be validated.\n   ** Warning ** ProcessScheduleInput: Schedule:Day:Interval=\"SCHEDULE DAY 37\", Blank Schedule Type Limits Name input -- will not be validated.\n   ** Warning ** ProcessScheduleInput: Schedule:Day:Interval=\"SCHEDULE DAY 38\", Blank Schedule Type Limits Name input -- will not be validated.\n   ** Warning ** ProcessScheduleInput: Schedule:Day:Interval=\"SCHEDULE DAY 39\", Blank Schedule Type Limits Name input -- will not be validated.\n   ** Warning ** ProcessScheduleInput: Schedule:Day:Interval=\"SCHEDULE DAY 40\", Blank Schedule Type Limits Name input -- will not be validated.\n   ** Warning ** ProcessScheduleInput: Schedule:Day:Interval=\"SCHEDULE DAY 41\", Blank Schedule Type Limits Name input -- will not be validated.\n   ** Warning ** ProcessScheduleInput: Schedule:Day:Interval=\"SCHEDULE DAY 42\", Blank Schedule Type Limits Name input -- will not be validated.\n   ** Warning ** ProcessScheduleInput: Schedule:Day:Interval=\"SCHEDULE DAY 43\", Blank Schedule Type Limits Name input -- will not be validated.\n   ** Warning ** ProcessScheduleInput: Schedule:Day:Interval=\"SCHEDULE DAY 44\", Blank Schedule Type Limits Name input -- will not be validated.\n   ** Warning ** ProcessScheduleInput: Schedule:Day:Interval=\"SCHEDULE DAY 45\", Blank Schedule Type Limits Name input -- will not be validated.\n   ** Warning ** ProcessScheduleInput: Schedule:Day:Interval=\"SCHEDULE DAY 46\", Blank Schedule Type Limits Name input -- will not be validated.\n   ** Warning ** ProcessScheduleInput: Schedule:Day:Interval=\"SCHEDULE DAY 47\", Blank Schedule Type Limits Name input -- will not be validated.\n   ** Warning ** ProcessScheduleInput: Schedule:Day:Interval=\"SCHEDULE DAY 48\", Blank Schedule Type Limits Name input -- will not be validated.\n   ** Warning ** ProcessScheduleInput: Schedule:Day:Interval=\"SCHEDULE DAY 49\", Blank Schedule Type Limits Name input -- will not be validated.\n   ** Warning ** ProcessScheduleInput: Schedule:Day:Interval=\"SCHEDULE DAY 50\", Blank Schedule Type Limits Name input -- will not be validated.\n   ** Warning ** ProcessScheduleInput: Schedule:Day:Interval=\"SCHEDULE DAY 51\", Blank Schedule Type Limits Name input -- will not be validated.\n   ** Warning ** ProcessScheduleInput: Schedule:Day:Interval=\"SCHEDULE DAY 52\", Blank Schedule Type Limits Name input -- will not be validated.\n   ** Warning ** ProcessScheduleInput: Schedule:Day:Interval=\"SCHEDULE DAY 53\", Blank Schedule Type Limits Name input -- will not be validated.\n   ** Warning ** ProcessScheduleInput: Schedule:Day:Interval=\"SCHEDULE DAY 54\", Blank Schedule Type Limits Name input -- will not be validated.\n   ** Warning ** ProcessScheduleInput: Schedule:Day:Interval=\"SCHEDULE DAY 55\", Blank Schedule Type Limits Name input -- will not be validated.\n   ** Warning ** ProcessScheduleInput: Schedule:Day:Interval=\"SCHEDULE DAY 56\", Blank Schedule Type Limits Name input -- will not be validated.\n   ** Warning ** ProcessScheduleInput: Schedule:Day:Interval=\"SCHEDULE DAY 57\", Blank Schedule Type Limits Name input -- will not be validated.\n   ** Warning ** ProcessScheduleInput: Schedule:Day:Interval=\"SCHEDULE DAY 58\", Blank Schedule Type Limits Name input -- will not be validated.\n   ** Warning ** ProcessScheduleInput: Schedule:Day:Interval=\"SCHEDULE DAY 59\", Blank Schedule Type Limits Name input -- will not be validated.\n   ** Warning ** ProcessScheduleInput: Schedule:Day:Interval=\"SCHEDULE DAY 6\", Blank Schedule Type Limits Name input -- will not be validated.\n   ** Warning ** ProcessScheduleInput: Schedule:Day:Interval=\"SCHEDULE DAY 60\", Blank Schedule Type Limits Name input -- will not be validated.\n   ** Warning ** ProcessScheduleInput: Schedule:Day:Interval=\"SCHEDULE DAY 61\", Blank Schedule Type Limits Name input -- will not be validated.\n   ** Warning ** ProcessScheduleInput: Schedule:Day:Interval=\"SCHEDULE DAY 62\", Blank Schedule Type Limits Name input -- will not be validated.\n   ** Warning ** ProcessScheduleInput: Schedule:Day:Interval=\"SCHEDULE DAY 63\", Blank Schedule Type Limits Name input -- will not be validated.\n   ** Warning ** ProcessScheduleInput: Schedule:Day:Interval=\"SCHEDULE DAY 64\", Blank Schedule Type Limits Name input -- will not be validated.\n   ** Warning ** ProcessScheduleInput: Schedule:Day:Interval=\"SCHEDULE DAY 65\", Blank Schedule Type Limits Name input -- will not be validated.\n   ** Warning ** ProcessScheduleInput: Schedule:Day:Interval=\"SCHEDULE DAY 7\", Blank Schedule Type Limits Name input -- will not be validated.\n   ** Warning ** ProcessScheduleInput: Schedule:Day:Interval=\"SCHEDULE DAY 8\", Blank Schedule Type Limits Name input -- will not be validated.\n   ** Warning ** ProcessScheduleInput: Schedule:Day:Interval=\"SCHEDULE DAY 9\", Blank Schedule Type Limits Name input -- will not be validated.\n   ** Warning ** ProcessScheduleInput: Schedule:Year=\"SCHEDULE RULESET 10\", Blank Schedule Type Limits Name input -- will not be validated.\n   ** Warning ** ProcessScheduleInput: Schedule:Year=\"SCHEDULE RULESET 11\", Blank Schedule Type Limits Name input -- will not be validated.\n   ** Warning ** ProcessScheduleInput: Schedule:Year=\"SCHEDULE RULESET 12\", Blank Schedule Type Limits Name input -- will not be validated.\n   ** Warning ** ProcessScheduleInput: Schedule:Year=\"SCHEDULE RULESET 13\", Blank Schedule Type Limits Name input -- will not be validated.\n   ** Warning ** ProcessScheduleInput: Schedule:Year=\"SCHEDULE RULESET 14\", Blank Schedule Type Limits Name input -- will not be validated.\n   ** Warning ** ProcessScheduleInput: Schedule:Year=\"SCHEDULE RULESET 15\", Blank Schedule Type Limits Name input -- will not be validated.\n   ** Warning ** ProcessScheduleInput: Schedule:Year=\"SCHEDULE RULESET 16\", Blank Schedule Type Limits Name input -- will not be validated.\n   ** Warning ** ProcessScheduleInput: Schedule:Year=\"SCHEDULE RULESET 17\", Blank Schedule Type Limits Name input -- will not be validated.\n   ** Warning ** ProcessScheduleInput: Schedule:Year=\"SCHEDULE RULESET 18\", Blank Schedule Type Limits Name input -- will not be validated.\n   ** Warning ** ProcessScheduleInput: Schedule:Year=\"SCHEDULE RULESET 19\", Blank Schedule Type Limits Name input -- will not be validated.\n   ** Warning ** ProcessScheduleInput: Schedule:Year=\"SCHEDULE RULESET 20\", Blank Schedule Type Limits Name input -- will not be validated.\n   ** Warning ** ProcessScheduleInput: Schedule:Year=\"SCHEDULE RULESET 21\", Blank Schedule Type Limits Name input -- will not be validated.\n   ** Warning ** ProcessScheduleInput: Schedule:Year=\"SCHEDULE RULESET 22\", Blank Schedule Type Limits Name input -- will not be validated.\n   ** Warning ** ProcessScheduleInput: Schedule:Year=\"SCHEDULE RULESET 23\", Blank Schedule Type Limits Name input -- will not be validated.\n   ** Warning ** ProcessScheduleInput: Schedule:Year=\"SCHEDULE RULESET 24\", Blank Schedule Type Limits Name input -- will not be validated.\n   ** Warning ** ProcessScheduleInput: Schedule:Year=\"SCHEDULE RULESET 25\", Blank Schedule Type Limits Name input -- will not be validated.\n   ** Warning ** ProcessScheduleInput: Schedule:Year=\"SCHEDULE RULESET 26\", Blank Schedule Type Limits Name input -- will not be validated.\n   ** Warning ** ProcessScheduleInput: Schedule:Year=\"SCHEDULE RULESET 27\", Blank Schedule Type Limits Name input -- will not be validated.\n   ** Warning ** ProcessScheduleInput: Schedule:Year=\"SCHEDULE RULESET 28\", Blank Schedule Type Limits Name input -- will not be validated.\n   ** Warning ** ProcessScheduleInput: Schedule:Year=\"SCHEDULE RULESET 29\", Blank Schedule Type Limits Name input -- will not be validated.\n   ** Warning ** ProcessScheduleInput: Schedule:Year=\"SCHEDULE RULESET 3\", Blank Schedule Type Limits Name input -- will not be validated.\n   ** Warning ** ProcessScheduleInput: Schedule:Year=\"SCHEDULE RULESET 30\", Blank Schedule Type Limits Name input -- will not be validated.\n   ** Warning ** ProcessScheduleInput: Schedule:Year=\"SCHEDULE RULESET 31\", Blank Schedule Type Limits Name input -- will not be validated.\n   ** Warning ** ProcessScheduleInput: Schedule:Year=\"SCHEDULE RULESET 32\", Blank Schedule Type Limits Name input -- will not be validated.\n   ** Warning ** ProcessScheduleInput: Schedule:Year=\"SCHEDULE RULESET 33\", Blank Schedule Type Limits Name input -- will not be validated.\n   ** Warning ** ProcessScheduleInput: Schedule:Year=\"SCHEDULE RULESET 34\", Blank Schedule Type Limits Name input -- will not be validated.\n   ** Warning ** ProcessScheduleInput: Schedule:Year=\"SCHEDULE RULESET 35\", Blank Schedule Type Limits Name input -- will not be validated.\n   ** Warning ** ProcessScheduleInput: Schedule:Year=\"SCHEDULE RULESET 36\", Blank Schedule Type Limits Name input -- will not be validated.\n   ** Warning ** ProcessScheduleInput: Schedule:Year=\"SCHEDULE RULESET 37\", Blank Schedule Type Limits Name input -- will not be validated.\n   ** Warning ** ProcessScheduleInput: Schedule:Year=\"SCHEDULE RULESET 38\", Blank Schedule Type Limits Name input -- will not be validated.\n   ** Warning ** ProcessScheduleInput: Schedule:Year=\"SCHEDULE RULESET 39\", Blank Schedule Type Limits Name input -- will not be validated.\n   ** Warning ** ProcessScheduleInput: Schedule:Year=\"SCHEDULE RULESET 4\", Blank Schedule Type Limits Name input -- will not be validated.\n   ** Warning ** ProcessScheduleInput: Schedule:Year=\"SCHEDULE RULESET 40\", Blank Schedule Type Limits Name input -- will not be validated.\n   ** Warning ** ProcessScheduleInput: Schedule:Year=\"SCHEDULE RULESET 41\", Blank Schedule Type Limits Name input -- will not be validated.\n   ** Warning ** ProcessScheduleInput: Schedule:Year=\"SCHEDULE RULESET 42\", Blank Schedule Type Limits Name input -- will not be validated.\n   ** Warning ** ProcessScheduleInput: Schedule:Year=\"SCHEDULE RULESET 43\", Blank Schedule Type Limits Name input -- will not be validated.\n   ** Warning ** ProcessScheduleInput: Schedule:Year=\"SCHEDULE RULESET 44\", Blank Schedule Type Limits Name input -- will not be validated.\n   ** Warning ** ProcessScheduleInput: Schedule:Year=\"SCHEDULE RULESET 45\", Blank Schedule Type Limits Name input -- will not be validated.\n   ** Warning ** ProcessScheduleInput: Schedule:Year=\"SCHEDULE RULESET 46\", Blank Schedule Type Limits Name input -- will not be validated.\n   ** Warning ** ProcessScheduleInput: Schedule:Year=\"SCHEDULE RULESET 47\", Blank Schedule Type Limits Name input -- will not be validated.\n   ** Warning ** ProcessScheduleInput: Schedule:Year=\"SCHEDULE RULESET 48\", Blank Schedule Type Limits Name input -- will not be validated.\n   ** Warning ** ProcessScheduleInput: Schedule:Year=\"SCHEDULE RULESET 49\", Blank Schedule Type Limits Name input -- will not be validated.\n   ** Warning ** ProcessScheduleInput: Schedule:Year=\"SCHEDULE RULESET 5\", Blank Schedule Type Limits Name input -- will not be validated.\n   ** Warning ** ProcessScheduleInput: Schedule:Year=\"SCHEDULE RULESET 50\", Blank Schedule Type Limits Name input -- will not be validated.\n   ** Warning ** ProcessScheduleInput: Schedule:Year=\"SCHEDULE RULESET 51\", Blank Schedule Type Limits Name input -- will not be validated.\n   ** Warning ** ProcessScheduleInput: Schedule:Year=\"SCHEDULE RULESET 52\", Blank Schedule Type Limits Name input -- will not be validated.\n   ** Warning ** ProcessScheduleInput: Schedule:Year=\"SCHEDULE RULESET 53\", Blank Schedule Type Limits Name input -- will not be validated.\n   ** Warning ** ProcessScheduleInput: Schedule:Year=\"SCHEDULE RULESET 54\", Blank Schedule Type Limits Name input -- will not be validated.\n   ** Warning ** ProcessScheduleInput: Schedule:Year=\"SCHEDULE RULESET 55\", Blank Schedule Type Limits Name input -- will not be validated.\n   ** Warning ** ProcessScheduleInput: Schedule:Year=\"SCHEDULE RULESET 56\", Blank Schedule Type Limits Name input -- will not be validated.\n   ** Warning ** ProcessScheduleInput: Schedule:Year=\"SCHEDULE RULESET 57\", Blank Schedule Type Limits Name input -- will not be validated.\n   ** Warning ** ProcessScheduleInput: Schedule:Year=\"SCHEDULE RULESET 58\", Blank Schedule Type Limits Name input -- will not be validated.\n   ** Warning ** ProcessScheduleInput: Schedule:Year=\"SCHEDULE RULESET 59\", Blank Schedule Type Limits Name input -- will not be validated.\n   ** Warning ** ProcessScheduleInput: Schedule:Year=\"SCHEDULE RULESET 6\", Blank Schedule Type Limits Name input -- will not be validated.\n   ** Warning ** ProcessScheduleInput: Schedule:Year=\"SCHEDULE RULESET 60\", Blank Schedule Type Limits Name input -- will not be validated.\n   ** Warning ** ProcessScheduleInput: Schedule:Year=\"SCHEDULE RULESET 61\", Blank Schedule Type Limits Name input -- will not be validated.\n   ** Warning ** ProcessScheduleInput: Schedule:Year=\"SCHEDULE RULESET 62\", Blank Schedule Type Limits Name input -- will not be validated.\n   ** Warning ** ProcessScheduleInput: Schedule:Year=\"SCHEDULE RULESET 7\", Blank Schedule Type Limits Name input -- will not be validated.\n   ** Warning ** ProcessScheduleInput: Schedule:Year=\"SCHEDULE RULESET 8\", Blank Schedule Type Limits Name input -- will not be validated.\n   ** Warning ** ProcessScheduleInput: Schedule:Year=\"SCHEDULE RULESET 9\", Blank Schedule Type Limits Name input -- will not be validated.\n   ** Warning ** ProcessScheduleInput: Schedule:Constant=\"ALWAYS OFF DISCRETE\", Blank Schedule Type Limits Name input -- will not be validated.\n   ** Warning ** ProcessScheduleInput: Schedule:Constant=\"ALWAYS ON CONTINUOUS\", Blank Schedule Type Limits Name input -- will not be validated.\n   ** Warning ** CheckUsedConstructions: There are 27 nominally unused constructions in input.\n   **   ~~~   ** For explicit details on each unused construction, use Output:Diagnostics,DisplayExtraWarnings;\n   ** Warning ** GetInternalHeatGains: People Combination of ZoneList and Object Name generate a name too long.\n   **   ~~~   ** Object Name=\"SPACE FUNCTION CONVENTION CENTRE EXHIBIT SPACE PEOPLE\".\n   **   ~~~   ** ZoneList/Zone Name=\"SP-CONVENTION CENTRE EXHIBIT SPACE-SPACE FUNCTION SYS-3 FLR-3 SCH-C HPLCMT-WEST ZN\".\n   **   ~~~   ** Item length=[135] > Maximum Length=[100]. You may need to shorten the names.\n   **   ~~~   ** Shortening the Object Name by [36] characters will assure uniqueness for this ZoneList.\n   **   ~~~   ** name that will be used (may be needed in reporting)=\"SP-CONVENTION CENTRE EXHIBIT SPACE-SPACE FUNCTION SYS-3 FLR-3 SCH-C HPLCMT-WEST ZN SPACE FUNCTION CONVENTION CENTRE EXHIBIT SPACE PEOPLE\".\n   ** Warning ** GetInternalHeatGains: People Combination of ZoneList and Object Name generate a name too long.\n   **   ~~~   ** Object Name=\"SPACE FUNCTION DORMITORY LIVING QUARTERS PEOPLE\".\n   **   ~~~   ** ZoneList/Zone Name=\"SP-DORMITORY LIVING QUARTERS-SPACE FUNCTION SYS-3 FLR-2 SCH-G HPLCMT-SOUTH ZN\".\n   **   ~~~   ** Item length=[124] > Maximum Length=[100]. You may need to shorten the names.\n   **   ~~~   ** Shortening the Object Name by [25] characters will assure uniqueness for this ZoneList.\n   **   ~~~   ** name that will be used (may be needed in reporting)=\"SP-DORMITORY LIVING QUARTERS-SPACE FUNCTION SYS-3 FLR-2 SCH-G HPLCMT-SOUTH ZN SPACE FUNCTION DORMITORY LIVING QUARTERS PEOPLE\".\n   ** Warning ** GetInternalHeatGains: People Combination of ZoneList and Object Name generate a name too long.\n   **   ~~~   ** Object Name=\"SPACE FUNCTION DWELLING UNITS GENERAL PEOPLE\".\n   **   ~~~   ** ZoneList/Zone Name=\"SP-DWELLING UNITS GENERAL-SPACE FUNCTION SYS-1 FLR-2 SCH-G HPLCMT-WEST ZN\".\n   **   ~~~   ** Item length=[117] > Maximum Length=[100]. You may need to shorten the names.\n   **   ~~~   ** Shortening the Object Name by [18] characters will assure uniqueness for this ZoneList.\n   **   ~~~   ** name that will be used (may be needed in reporting)=\"SP-DWELLING UNITS GENERAL-SPACE FUNCTION SYS-1 FLR-2 SCH-G HPLCMT-WEST ZN SPACE FUNCTION DWELLING UNITS GENERAL PEOPLE\".\n   ** Warning ** GetInternalHeatGains: People Combination of ZoneList and Object Name generate a name too long.\n   **   ~~~   ** Object Name=\"SPACE FUNCTION DWELLING UNITS LONG-TERM PEOPLE\".\n   **   ~~~   ** ZoneList/Zone Name=\"SP-DWELLING UNITS LONG-TERM-SPACE FUNCTION SYS-1 FLR-2 SCH-J HPLCMT-CORE ZN\".\n   **   ~~~   ** Item length=[121] > Maximum Length=[100]. You may need to shorten the names.\n   **   ~~~   ** Shortening the Object Name by [22] characters will assure uniqueness for this ZoneList.\n   **   ~~~   ** name that will be used (may be needed in reporting)=\"SP-DWELLING UNITS LONG-TERM-SPACE FUNCTION SYS-1 FLR-2 SCH-J HPLCMT-CORE ZN SPACE FUNCTION DWELLING UNITS LONG-TERM PEOPLE\".\n   ** Warning ** GetInternalHeatGains: People Combination of ZoneList and Object Name generate a name too long.\n   **   ~~~   ** Object Name=\"SPACE FUNCTION STORAGE ROOM <= 5 M2 <= 100 M2-SCH-I PEOPLE\".\n   **   ~~~   ** ZoneList/Zone Name=\"SP-STORAGE ROOM <= 5 M2 <= 100 M2-SCH-I-SPACE FUNCTION SYS-4 FLR-4 SCH-I HPLCMT-CORE ZN\".\n   **   ~~~   ** Item length=[145] > Maximum Length=[100]. You may need to shorten the names.\n   **   ~~~   ** Shortening the Object Name by [46] characters will assure uniqueness for this ZoneList.\n   **   ~~~   ** name that will be used (may be needed in reporting)=\"SP-STORAGE ROOM <= 5 M2 <= 100 M2-SCH-I-SPACE FUNCTION SYS-4 FLR-4 SCH-I HPLCMT-CORE ZN SPACE FUNCTION STORAGE ROOM <= 5 M2 <= 100 M2-SCH-I PEOPLE\".\n   ** Warning ** GetInternalHeatGains: People Combination of ZoneList and Object Name generate a name too long.\n   **   ~~~   ** Object Name=\"SPACE FUNCTION STORAGE ROOM <= 5 M2 <= 100 M2-SCH-J PEOPLE\".\n   **   ~~~   ** ZoneList/Zone Name=\"SP-STORAGE ROOM <= 5 M2 <= 100 M2-SCH-J-SPACE FUNCTION SYS-4 FLR-4 SCH-J HPLCMT-SOUTH ZN\".\n   **   ~~~   ** Item length=[146] > Maximum Length=[100]. You may need to shorten the names.\n   **   ~~~   ** Shortening the Object Name by [47] characters will assure uniqueness for this ZoneList.\n   **   ~~~   ** name that will be used (may be needed in reporting)=\"SP-STORAGE ROOM <= 5 M2 <= 100 M2-SCH-J-SPACE FUNCTION SYS-4 FLR-4 SCH-J HPLCMT-SOUTH ZN SPACE FUNCTION STORAGE ROOM <= 5 M2 <= 100 M2-SCH-J PEOPLE\".\n   ** Warning ** GetInternalHeatGains: People Combination of ZoneList and Object Name generate a name too long.\n   **   ~~~   ** Object Name=\"SPACE FUNCTION STORAGE ROOM <= 5 M2 <= 100 M2-SCH-K PEOPLE\".\n   **   ~~~   ** ZoneList/Zone Name=\"SP-STORAGE ROOM <= 5 M2 <= 100 M2-SCH-K-SPACE FUNCTION SYS-4 FLR-4 SCH-K HPLCMT-EAST ZN\".\n   **   ~~~   ** Item length=[145] > Maximum Length=[100]. You may need to shorten the names.\n   **   ~~~   ** Shortening the Object Name by [46] characters will assure uniqueness for this ZoneList.\n   **   ~~~   ** name that will be used (may be needed in reporting)=\"SP-STORAGE ROOM <= 5 M2 <= 100 M2-SCH-K-SPACE FUNCTION SYS-4 FLR-4 SCH-K HPLCMT-EAST ZN SPACE FUNCTION STORAGE ROOM <= 5 M2 <= 100 M2-SCH-K PEOPLE\".\n   ** Warning ** GetInternalHeatGains: People Combination of ZoneList and Object Name generate a name too long.\n   **   ~~~   ** Object Name=\"SPACE FUNCTION STORAGE ROOM > 100 M2-SCH-A PEOPLE\".\n   **   ~~~   ** ZoneList/Zone Name=\"SP-STORAGE ROOM > 100 M2-SCH-A-SPACE FUNCTION SYS-4 FLR-3 SCH-A HPLCMT-CORE ZN\".\n   **   ~~~   ** Item length=[127] > Maximum Length=[100]. You may need to shorten the names.\n   **   ~~~   ** Shortening the Object Name by [28] characters will assure uniqueness for this ZoneList.\n   **   ~~~   ** name that will be used (may be needed in reporting)=\"SP-STORAGE ROOM > 100 M2-SCH-A-SPACE FUNCTION SYS-4 FLR-3 SCH-A HPLCMT-CORE ZN SPACE FUNCTION STORAGE ROOM > 100 M2-SCH-A PEOPLE\".\n   ** Warning ** GetInternalHeatGains: People Combination of ZoneList and Object Name generate a name too long.\n   **   ~~~   ** Object Name=\"SPACE FUNCTION STORAGE ROOM > 100 M2-SCH-B PEOPLE\".\n   **   ~~~   ** ZoneList/Zone Name=\"SP-STORAGE ROOM > 100 M2-SCH-B-SPACE FUNCTION SYS-4 FLR-3 SCH-B HPLCMT-SOUTH ZN\".\n   **   ~~~   ** Item length=[128] > Maximum Length=[100]. You may need to shorten the names.\n   **   ~~~   ** Shortening the Object Name by [29] characters will assure uniqueness for this ZoneList.\n   **   ~~~   ** name that will be used (may be needed in reporting)=\"SP-STORAGE ROOM > 100 M2-SCH-B-SPACE FUNCTION SYS-4 FLR-3 SCH-B HPLCMT-SOUTH ZN SPACE FUNCTION STORAGE ROOM > 100 M2-SCH-B PEOPLE\".\n   ** Warning ** GetInternalHeatGains: People Combination of ZoneList and Object Name generate a name too long.\n   **   ~~~   ** Object Name=\"SPACE FUNCTION STORAGE ROOM > 100 M2-SCH-C PEOPLE\".\n   **   ~~~   ** ZoneList/Zone Name=\"SP-STORAGE ROOM > 100 M2-SCH-C-SPACE FUNCTION SYS-4 FLR-4 SCH-C HPLCMT-NORTH ZN\".\n   **   ~~~   ** Item length=[128] > Maximum Length=[100]. You may need to shorten the names.\n   **   ~~~   ** Shortening the Object Name by [29] characters will assure uniqueness for this ZoneList.\n   **   ~~~   ** name that will be used (may be needed in reporting)=\"SP-STORAGE ROOM > 100 M2-SCH-C-SPACE FUNCTION SYS-4 FLR-4 SCH-C HPLCMT-NORTH ZN SPACE FUNCTION STORAGE ROOM > 100 M2-SCH-C PEOPLE\".\n   ** Warning ** GetInternalHeatGains: People Combination of ZoneList and Object Name generate a name too long.\n   **   ~~~   ** Object Name=\"SPACE FUNCTION STORAGE ROOM > 100 M2-SCH-D PEOPLE\".\n   **   ~~~   ** ZoneList/Zone Name=\"SP-STORAGE ROOM > 100 M2-SCH-D-SPACE FUNCTION SYS-4 FLR-3 SCH-D HPLCMT-EAST ZN\".\n   **   ~~~   ** Item length=[127] > Maximum Length=[100]. You may need to shorten the names.\n   **   ~~~   ** Shortening the Object Name by [28] characters will assure uniqueness for this ZoneList.\n   **   ~~~   ** name that will be used (may be needed in reporting)=\"SP-STORAGE ROOM > 100 M2-SCH-D-SPACE FUNCTION SYS-4 FLR-3 SCH-D HPLCMT-EAST ZN SPACE FUNCTION STORAGE ROOM > 100 M2-SCH-D PEOPLE\".\n   ** Warning ** GetInternalHeatGains: People Combination of ZoneList and Object Name generate a name too long.\n   **   ~~~   ** Object Name=\"SPACE FUNCTION STORAGE ROOM > 100 M2-SCH-E PEOPLE\".\n   **   ~~~   ** ZoneList/Zone Name=\"SP-STORAGE ROOM > 100 M2-SCH-E-SPACE FUNCTION SYS-4 FLR-1 SCH-E HPLCMT-WEST ZN\".\n   **   ~~~   ** Item length=[127] > Maximum Length=[100]. You may need to shorten the names.\n   **   ~~~   ** Shortening the Object Name by [28] characters will assure uniqueness for this ZoneList.\n   **   ~~~   ** name that will be used (may be needed in reporting)=\"SP-STORAGE ROOM > 100 M2-SCH-E-SPACE FUNCTION SYS-4 FLR-1 SCH-E HPLCMT-WEST ZN SPACE FUNCTION STORAGE ROOM > 100 M2-SCH-E PEOPLE\".\n   ** Warning ** GetInternalHeatGains: People Combination of ZoneList and Object Name generate a name too long.\n   **   ~~~   ** Object Name=\"SPACE FUNCTION STORAGE ROOM > 100 M2-SCH-F PEOPLE\".\n   **   ~~~   ** ZoneList/Zone Name=\"SP-STORAGE ROOM > 100 M2-SCH-F-SPACE FUNCTION SYS-4 FLR-3 SCH-F HPLCMT-NORTH ZN\".\n   **   ~~~   ** Item length=[128] > Maximum Length=[100]. You may need to shorten the names.\n   **   ~~~   ** Shortening the Object Name by [29] characters will assure uniqueness for this ZoneList.\n   **   ~~~   ** name that will be used (may be needed in reporting)=\"SP-STORAGE ROOM > 100 M2-SCH-F-SPACE FUNCTION SYS-4 FLR-3 SCH-F HPLCMT-NORTH ZN SPACE FUNCTION STORAGE ROOM > 100 M2-SCH-F PEOPLE\".\n   ** Warning ** GetInternalHeatGains: People Combination of ZoneList and Object Name generate a name too long.\n   **   ~~~   ** Object Name=\"SPACE FUNCTION STORAGE ROOM > 100 M2-SCH-G PEOPLE\".\n   **   ~~~   ** ZoneList/Zone Name=\"SP-STORAGE ROOM > 100 M2-SCH-G-SPACE FUNCTION SYS-4 FLR-1 SCH-G HPLCMT-NORTH ZN\".\n   **   ~~~   ** Item length=[128] > Maximum Length=[100]. You may need to shorten the names.\n   **   ~~~   ** Shortening the Object Name by [29] characters will assure uniqueness for this ZoneList.\n   **   ~~~   ** name that will be used (may be needed in reporting)=\"SP-STORAGE ROOM > 100 M2-SCH-G-SPACE FUNCTION SYS-4 FLR-1 SCH-G HPLCMT-NORTH ZN SPACE FUNCTION STORAGE ROOM > 100 M2-SCH-G PEOPLE\".\n   ** Warning ** GetInternalHeatGains: People Combination of ZoneList and Object Name generate a name too long.\n   **   ~~~   ** Object Name=\"SPACE FUNCTION STORAGE ROOM > 100 M2-SCH-H PEOPLE\".\n   **   ~~~   ** ZoneList/Zone Name=\"SP-STORAGE ROOM > 100 M2-SCH-H-SPACE FUNCTION SYS-4 FLR-1 SCH-H HPLCMT-SOUTH ZN\".\n   **   ~~~   ** Item length=[128] > Maximum Length=[100]. You may need to shorten the names.\n   **   ~~~   ** Shortening the Object Name by [29] characters will assure uniqueness for this ZoneList.\n   **   ~~~   ** name that will be used (may be needed in reporting)=\"SP-STORAGE ROOM > 100 M2-SCH-H-SPACE FUNCTION SYS-4 FLR-1 SCH-H HPLCMT-SOUTH ZN SPACE FUNCTION STORAGE ROOM > 100 M2-SCH-H PEOPLE\".\n   ** Warning ** GetInternalHeatGains: People Combination of ZoneList and Object Name generate a name too long.\n   **   ~~~   ** Object Name=\"SPACE FUNCTION STORAGE ROOM > 100 M2-SCH-I PEOPLE\".\n   **   ~~~   ** ZoneList/Zone Name=\"SP-STORAGE ROOM > 100 M2-SCH-I-SPACE FUNCTION SYS-4 FLR-1 SCH-I HPLCMT-CORE ZN\".\n   **   ~~~   ** Item length=[127] > Maximum Length=[100]. You may need to shorten the names.\n   **   ~~~   ** Shortening the Object Name by [28] characters will assure uniqueness for this ZoneList.\n   **   ~~~   ** name that will be used (may be needed in reporting)=\"SP-STORAGE ROOM > 100 M2-SCH-I-SPACE FUNCTION SYS-4 FLR-1 SCH-I HPLCMT-CORE ZN SPACE FUNCTION STORAGE ROOM > 100 M2-SCH-I PEOPLE\".\n   ** Warning ** GetInternalHeatGains: People Combination of ZoneList and Object Name generate a name too long.\n   **   ~~~   ** Object Name=\"SPACE FUNCTION STORAGE ROOM > 100 M2-SCH-J PEOPLE\".\n   **   ~~~   ** ZoneList/Zone Name=\"SP-STORAGE ROOM > 100 M2-SCH-J-SPACE FUNCTION SYS-4 FLR-4 SCH-J HPLCMT-WEST ZN\".\n   **   ~~~   ** Item length=[127] > Maximum Length=[100]. You may need to shorten the names.\n   **   ~~~   ** Shortening the Object Name by [28] characters will assure uniqueness for this ZoneList.\n   **   ~~~   ** name that will be used (may be needed in reporting)=\"SP-STORAGE ROOM > 100 M2-SCH-J-SPACE FUNCTION SYS-4 FLR-4 SCH-J HPLCMT-WEST ZN SPACE FUNCTION STORAGE ROOM > 100 M2-SCH-J PEOPLE\".\n   ** Warning ** GetInternalHeatGains: People Combination of ZoneList and Object Name generate a name too long.\n   **   ~~~   ** Object Name=\"SPACE FUNCTION STORAGE ROOM > 100 M2-SCH-K PEOPLE\".\n   **   ~~~   ** ZoneList/Zone Name=\"SP-STORAGE ROOM > 100 M2-SCH-K-SPACE FUNCTION SYS-4 FLR-2 SCH-K HPLCMT-NORTH ZN\".\n   **   ~~~   ** Item length=[128] > Maximum Length=[100]. You may need to shorten the names.\n   **   ~~~   ** Shortening the Object Name by [29] characters will assure uniqueness for this ZoneList.\n   **   ~~~   ** name that will be used (may be needed in reporting)=\"SP-STORAGE ROOM > 100 M2-SCH-K-SPACE FUNCTION SYS-4 FLR-2 SCH-K HPLCMT-NORTH ZN SPACE FUNCTION STORAGE ROOM > 100 M2-SCH-K PEOPLE\".\n   ** Warning ** GetInternalHeatGains: People Combination of ZoneList and Object Name generate a name too long.\n   **   ~~~   ** Object Name=\"SPACE FUNCTION VEHICLE MAINTENANCE AREA PEOPLE\".\n   **   ~~~   ** ZoneList/Zone Name=\"SP-VEHICLE MAINTENANCE AREA-SPACE FUNCTION SYS-4 FLR-1 SCH-E HPLCMT-EAST ZN\".\n   **   ~~~   ** Item length=[121] > Maximum Length=[100]. You may need to shorten the names.\n   **   ~~~   ** Shortening the Object Name by [22] characters will assure uniqueness for this ZoneList.\n   **   ~~~   ** name that will be used (may be needed in reporting)=\"SP-VEHICLE MAINTENANCE AREA-SPACE FUNCTION SYS-4 FLR-1 SCH-E HPLCMT-EAST ZN SPACE FUNCTION VEHICLE MAINTENANCE AREA PEOPLE\".\n   ** Warning ** GetInternalHeatGains: Lights Combination of ZoneList and Object Name generate a name too long.\n   **   ~~~   ** Object Name=\"SPACE FUNCTION CONVENTION CENTRE EXHIBIT SPACE LIGHTS\".\n   **   ~~~   ** ZoneList/Zone Name=\"SP-CONVENTION CENTRE EXHIBIT SPACE-SPACE FUNCTION SYS-3 FLR-3 SCH-C HPLCMT-WEST ZN\".\n   **   ~~~   ** Item length=[135] > Maximum Length=[100]. You may need to shorten the names.\n   **   ~~~   ** Shortening the Object Name by [36] characters will assure uniqueness for this ZoneList.\n   **   ~~~   ** name that will be used (may be needed in reporting)=\"SP-CONVENTION CENTRE EXHIBIT SPACE-SPACE FUNCTION SYS-3 FLR-3 SCH-C HPLCMT-WEST ZN SPACE FUNCTION CONVENTION CENTRE EXHIBIT SPACE LIGHTS\".\n   ** Warning ** GetInternalHeatGains: Lights Combination of ZoneList and Object Name generate a name too long.\n   **   ~~~   ** Object Name=\"SPACE FUNCTION DORMITORY LIVING QUARTERS LIGHTS\".\n   **   ~~~   ** ZoneList/Zone Name=\"SP-DORMITORY LIVING QUARTERS-SPACE FUNCTION SYS-3 FLR-2 SCH-G HPLCMT-SOUTH ZN\".\n   **   ~~~   ** Item length=[124] > Maximum Length=[100]. You may need to shorten the names.\n   **   ~~~   ** Shortening the Object Name by [25] characters will assure uniqueness for this ZoneList.\n   **   ~~~   ** name that will be used (may be needed in reporting)=\"SP-DORMITORY LIVING QUARTERS-SPACE FUNCTION SYS-3 FLR-2 SCH-G HPLCMT-SOUTH ZN SPACE FUNCTION DORMITORY LIVING QUARTERS LIGHTS\".\n   ** Warning ** GetInternalHeatGains: Lights Combination of ZoneList and Object Name generate a name too long.\n   **   ~~~   ** Object Name=\"SPACE FUNCTION DWELLING UNITS GENERAL LIGHTS\".\n   **   ~~~   ** ZoneList/Zone Name=\"SP-DWELLING UNITS GENERAL-SPACE FUNCTION SYS-1 FLR-2 SCH-G HPLCMT-WEST ZN\".\n   **   ~~~   ** Item length=[117] > Maximum Length=[100]. You may need to shorten the names.\n   **   ~~~   ** Shortening the Object Name by [18] characters will assure uniqueness for this ZoneList.\n   **   ~~~   ** name that will be used (may be needed in reporting)=\"SP-DWELLING UNITS GENERAL-SPACE FUNCTION SYS-1 FLR-2 SCH-G HPLCMT-WEST ZN SPACE FUNCTION DWELLING UNITS GENERAL LIGHTS\".\n   ** Warning ** GetInternalHeatGains: Lights Combination of ZoneList and Object Name generate a name too long.\n   **   ~~~   ** Object Name=\"SPACE FUNCTION DWELLING UNITS LONG-TERM LIGHTS\".\n   **   ~~~   ** ZoneList/Zone Name=\"SP-DWELLING UNITS LONG-TERM-SPACE FUNCTION SYS-1 FLR-2 SCH-J HPLCMT-CORE ZN\".\n   **   ~~~   ** Item length=[121] > Maximum Length=[100]. You may need to shorten the names.\n   **   ~~~   ** Shortening the Object Name by [22] characters will assure uniqueness for this ZoneList.\n   **   ~~~   ** name that will be used (may be needed in reporting)=\"SP-DWELLING UNITS LONG-TERM-SPACE FUNCTION SYS-1 FLR-2 SCH-J HPLCMT-CORE ZN SPACE FUNCTION DWELLING UNITS LONG-TERM LIGHTS\".\n   ** Warning ** GetInternalHeatGains: Lights Combination of ZoneList and Object Name generate a name too long.\n   **   ~~~   ** Object Name=\"SPACE FUNCTION STORAGE ROOM <= 5 M2 <= 100 M2-SCH-I LIGHTS\".\n   **   ~~~   ** ZoneList/Zone Name=\"SP-STORAGE ROOM <= 5 M2 <= 100 M2-SCH-I-SPACE FUNCTION SYS-4 FLR-4 SCH-I HPLCMT-CORE ZN\".\n   **   ~~~   ** Item length=[145] > Maximum Length=[100]. You may need to shorten the names.\n   **   ~~~   ** Shortening the Object Name by [46] characters will assure uniqueness for this ZoneList.\n   **   ~~~   ** name that will be used (may be needed in reporting)=\"SP-STORAGE ROOM <= 5 M2 <= 100 M2-SCH-I-SPACE FUNCTION SYS-4 FLR-4 SCH-I HPLCMT-CORE ZN SPACE FUNCTION STORAGE ROOM <= 5 M2 <= 100 M2-SCH-I LIGHTS\".\n   ** Warning ** GetInternalHeatGains: Lights Combination of ZoneList and Object Name generate a name too long.\n   **   ~~~   ** Object Name=\"SPACE FUNCTION STORAGE ROOM <= 5 M2 <= 100 M2-SCH-J LIGHTS\".\n   **   ~~~   ** ZoneList/Zone Name=\"SP-STORAGE ROOM <= 5 M2 <= 100 M2-SCH-J-SPACE FUNCTION SYS-4 FLR-4 SCH-J HPLCMT-SOUTH ZN\".\n   **   ~~~   ** Item length=[146] > Maximum Length=[100]. You may need to shorten the names.\n   **   ~~~   ** Shortening the Object Name by [47] characters will assure uniqueness for this ZoneList.\n   **   ~~~   ** name that will be used (may be needed in reporting)=\"SP-STORAGE ROOM <= 5 M2 <= 100 M2-SCH-J-SPACE FUNCTION SYS-4 FLR-4 SCH-J HPLCMT-SOUTH ZN SPACE FUNCTION STORAGE ROOM <= 5 M2 <= 100 M2-SCH-J LIGHTS\".\n   ** Warning ** GetInternalHeatGains: Lights Combination of ZoneList and Object Name generate a name too long.\n   **   ~~~   ** Object Name=\"SPACE FUNCTION STORAGE ROOM <= 5 M2 <= 100 M2-SCH-K LIGHTS\".\n   **   ~~~   ** ZoneList/Zone Name=\"SP-STORAGE ROOM <= 5 M2 <= 100 M2-SCH-K-SPACE FUNCTION SYS-4 FLR-4 SCH-K HPLCMT-EAST ZN\".\n   **   ~~~   ** Item length=[145] > Maximum Length=[100]. You may need to shorten the names.\n   **   ~~~   ** Shortening the Object Name by [46] characters will assure uniqueness for this ZoneList.\n   **   ~~~   ** name that will be used (may be needed in reporting)=\"SP-STORAGE ROOM <= 5 M2 <= 100 M2-SCH-K-SPACE FUNCTION SYS-4 FLR-4 SCH-K HPLCMT-EAST ZN SPACE FUNCTION STORAGE ROOM <= 5 M2 <= 100 M2-SCH-K LIGHTS\".\n   ** Warning ** GetInternalHeatGains: Lights Combination of ZoneList and Object Name generate a name too long.\n   **   ~~~   ** Object Name=\"SPACE FUNCTION STORAGE ROOM > 100 M2-SCH-A LIGHTS\".\n   **   ~~~   ** ZoneList/Zone Name=\"SP-STORAGE ROOM > 100 M2-SCH-A-SPACE FUNCTION SYS-4 FLR-3 SCH-A HPLCMT-CORE ZN\".\n   **   ~~~   ** Item length=[127] > Maximum Length=[100]. You may need to shorten the names.\n   **   ~~~   ** Shortening the Object Name by [28] characters will assure uniqueness for this ZoneList.\n   **   ~~~   ** name that will be used (may be needed in reporting)=\"SP-STORAGE ROOM > 100 M2-SCH-A-SPACE FUNCTION SYS-4 FLR-3 SCH-A HPLCMT-CORE ZN SPACE FUNCTION STORAGE ROOM > 100 M2-SCH-A LIGHTS\".\n   ** Warning ** GetInternalHeatGains: Lights Combination of ZoneList and Object Name generate a name too long.\n   **   ~~~   ** Object Name=\"SPACE FUNCTION STORAGE ROOM > 100 M2-SCH-B LIGHTS\".\n   **   ~~~   ** ZoneList/Zone Name=\"SP-STORAGE ROOM > 100 M2-SCH-B-SPACE FUNCTION SYS-4 FLR-3 SCH-B HPLCMT-SOUTH ZN\".\n   **   ~~~   ** Item length=[128] > Maximum Length=[100]. You may need to shorten the names.\n   **   ~~~   ** Shortening the Object Name by [29] characters will assure uniqueness for this ZoneList.\n   **   ~~~   ** name that will be used (may be needed in reporting)=\"SP-STORAGE ROOM > 100 M2-SCH-B-SPACE FUNCTION SYS-4 FLR-3 SCH-B HPLCMT-SOUTH ZN SPACE FUNCTION STORAGE ROOM > 100 M2-SCH-B LIGHTS\".\n   ** Warning ** GetInternalHeatGains: Lights Combination of ZoneList and Object Name generate a name too long.\n   **   ~~~   ** Object Name=\"SPACE FUNCTION STORAGE ROOM > 100 M2-SCH-C LIGHTS\".\n   **   ~~~   ** ZoneList/Zone Name=\"SP-STORAGE ROOM > 100 M2-SCH-C-SPACE FUNCTION SYS-4 FLR-4 SCH-C HPLCMT-NORTH ZN\".\n   **   ~~~   ** Item length=[128] > Maximum Length=[100]. You may need to shorten the names.\n   **   ~~~   ** Shortening the Object Name by [29] characters will assure uniqueness for this ZoneList.\n   **   ~~~   ** name that will be used (may be needed in reporting)=\"SP-STORAGE ROOM > 100 M2-SCH-C-SPACE FUNCTION SYS-4 FLR-4 SCH-C HPLCMT-NORTH ZN SPACE FUNCTION STORAGE ROOM > 100 M2-SCH-C LIGHTS\".\n   ** Warning ** GetInternalHeatGains: Lights Combination of ZoneList and Object Name generate a name too long.\n   **   ~~~   ** Object Name=\"SPACE FUNCTION STORAGE ROOM > 100 M2-SCH-D LIGHTS\".\n   **   ~~~   ** ZoneList/Zone Name=\"SP-STORAGE ROOM > 100 M2-SCH-D-SPACE FUNCTION SYS-4 FLR-3 SCH-D HPLCMT-EAST ZN\".\n   **   ~~~   ** Item length=[127] > Maximum Length=[100]. You may need to shorten the names.\n   **   ~~~   ** Shortening the Object Name by [28] characters will assure uniqueness for this ZoneList.\n   **   ~~~   ** name that will be used (may be needed in reporting)=\"SP-STORAGE ROOM > 100 M2-SCH-D-SPACE FUNCTION SYS-4 FLR-3 SCH-D HPLCMT-EAST ZN SPACE FUNCTION STORAGE ROOM > 100 M2-SCH-D LIGHTS\".\n   ** Warning ** GetInternalHeatGains: Lights Combination of ZoneList and Object Name generate a name too long.\n   **   ~~~   ** Object Name=\"SPACE FUNCTION STORAGE ROOM > 100 M2-SCH-E LIGHTS\".\n   **   ~~~   ** ZoneList/Zone Name=\"SP-STORAGE ROOM > 100 M2-SCH-E-SPACE FUNCTION SYS-4 FLR-1 SCH-E HPLCMT-WEST ZN\".\n   **   ~~~   ** Item length=[127] > Maximum Length=[100]. You may need to shorten the names.\n   **   ~~~   ** Shortening the Object Name by [28] characters will assure uniqueness for this ZoneList.\n   **   ~~~   ** name that will be used (may be needed in reporting)=\"SP-STORAGE ROOM > 100 M2-SCH-E-SPACE FUNCTION SYS-4 FLR-1 SCH-E HPLCMT-WEST ZN SPACE FUNCTION STORAGE ROOM > 100 M2-SCH-E LIGHTS\".\n   ** Warning ** GetInternalHeatGains: Lights Combination of ZoneList and Object Name generate a name too long.\n   **   ~~~   ** Object Name=\"SPACE FUNCTION STORAGE ROOM > 100 M2-SCH-F LIGHTS\".\n   **   ~~~   ** ZoneList/Zone Name=\"SP-STORAGE ROOM > 100 M2-SCH-F-SPACE FUNCTION SYS-4 FLR-3 SCH-F HPLCMT-NORTH ZN\".\n   **   ~~~   ** Item length=[128] > Maximum Length=[100]. You may need to shorten the names.\n   **   ~~~   ** Shortening the Object Name by [29] characters will assure uniqueness for this ZoneList.\n   **   ~~~   ** name that will be used (may be needed in reporting)=\"SP-STORAGE ROOM > 100 M2-SCH-F-SPACE FUNCTION SYS-4 FLR-3 SCH-F HPLCMT-NORTH ZN SPACE FUNCTION STORAGE ROOM > 100 M2-SCH-F LIGHTS\".\n   ** Warning ** GetInternalHeatGains: Lights Combination of ZoneList and Object Name generate a name too long.\n   **   ~~~   ** Object Name=\"SPACE FUNCTION STORAGE ROOM > 100 M2-SCH-G LIGHTS\".\n   **   ~~~   ** ZoneList/Zone Name=\"SP-STORAGE ROOM > 100 M2-SCH-G-SPACE FUNCTION SYS-4 FLR-1 SCH-G HPLCMT-NORTH ZN\".\n   **   ~~~   ** Item length=[128] > Maximum Length=[100]. You may need to shorten the names.\n   **   ~~~   ** Shortening the Object Name by [29] characters will assure uniqueness for this ZoneList.\n   **   ~~~   ** name that will be used (may be needed in reporting)=\"SP-STORAGE ROOM > 100 M2-SCH-G-SPACE FUNCTION SYS-4 FLR-1 SCH-G HPLCMT-NORTH ZN SPACE FUNCTION STORAGE ROOM > 100 M2-SCH-G LIGHTS\".\n   ** Warning ** GetInternalHeatGains: Lights Combination of ZoneList and Object Name generate a name too long.\n   **   ~~~   ** Object Name=\"SPACE FUNCTION STORAGE ROOM > 100 M2-SCH-H LIGHTS\".\n   **   ~~~   ** ZoneList/Zone Name=\"SP-STORAGE ROOM > 100 M2-SCH-H-SPACE FUNCTION SYS-4 FLR-1 SCH-H HPLCMT-SOUTH ZN\".\n   **   ~~~   ** Item length=[128] > Maximum Length=[100]. You may need to shorten the names.\n   **   ~~~   ** Shortening the Object Name by [29] characters will assure uniqueness for this ZoneList.\n   **   ~~~   ** name that will be used (may be needed in reporting)=\"SP-STORAGE ROOM > 100 M2-SCH-H-SPACE FUNCTION SYS-4 FLR-1 SCH-H HPLCMT-SOUTH ZN SPACE FUNCTION STORAGE ROOM > 100 M2-SCH-H LIGHTS\".\n   ** Warning ** GetInternalHeatGains: Lights Combination of ZoneList and Object Name generate a name too long.\n   **   ~~~   ** Object Name=\"SPACE FUNCTION STORAGE ROOM > 100 M2-SCH-I LIGHTS\".\n   **   ~~~   ** ZoneList/Zone Name=\"SP-STORAGE ROOM > 100 M2-SCH-I-SPACE FUNCTION SYS-4 FLR-1 SCH-I HPLCMT-CORE ZN\".\n   **   ~~~   ** Item length=[127] > Maximum Length=[100]. You may need to shorten the names.\n   **   ~~~   ** Shortening the Object Name by [28] characters will assure uniqueness for this ZoneList.\n   **   ~~~   ** name that will be used (may be needed in reporting)=\"SP-STORAGE ROOM > 100 M2-SCH-I-SPACE FUNCTION SYS-4 FLR-1 SCH-I HPLCMT-CORE ZN SPACE FUNCTION STORAGE ROOM > 100 M2-SCH-I LIGHTS\".\n   ** Warning ** GetInternalHeatGains: Lights Combination of ZoneList and Object Name generate a name too long.\n   **   ~~~   ** Object Name=\"SPACE FUNCTION STORAGE ROOM > 100 M2-SCH-J LIGHTS\".\n   **   ~~~   ** ZoneList/Zone Name=\"SP-STORAGE ROOM > 100 M2-SCH-J-SPACE FUNCTION SYS-4 FLR-4 SCH-J HPLCMT-WEST ZN\".\n   **   ~~~   ** Item length=[127] > Maximum Length=[100]. You may need to shorten the names.\n   **   ~~~   ** Shortening the Object Name by [28] characters will assure uniqueness for this ZoneList.\n   **   ~~~   ** name that will be used (may be needed in reporting)=\"SP-STORAGE ROOM > 100 M2-SCH-J-SPACE FUNCTION SYS-4 FLR-4 SCH-J HPLCMT-WEST ZN SPACE FUNCTION STORAGE ROOM > 100 M2-SCH-J LIGHTS\".\n   ** Warning ** GetInternalHeatGains: Lights Combination of ZoneList and Object Name generate a name too long.\n   **   ~~~   ** Object Name=\"SPACE FUNCTION STORAGE ROOM > 100 M2-SCH-K LIGHTS\".\n   **   ~~~   ** ZoneList/Zone Name=\"SP-STORAGE ROOM > 100 M2-SCH-K-SPACE FUNCTION SYS-4 FLR-2 SCH-K HPLCMT-NORTH ZN\".\n   **   ~~~   ** Item length=[128] > Maximum Length=[100]. You may need to shorten the names.\n   **   ~~~   ** Shortening the Object Name by [29] characters will assure uniqueness for this ZoneList.\n   **   ~~~   ** name that will be used (may be needed in reporting)=\"SP-STORAGE ROOM > 100 M2-SCH-K-SPACE FUNCTION SYS-4 FLR-2 SCH-K HPLCMT-NORTH ZN SPACE FUNCTION STORAGE ROOM > 100 M2-SCH-K LIGHTS\".\n   ** Warning ** GetInternalHeatGains: Lights Combination of ZoneList and Object Name generate a name too long.\n   **   ~~~   ** Object Name=\"SPACE FUNCTION VEHICLE MAINTENANCE AREA LIGHTS\".\n   **   ~~~   ** ZoneList/Zone Name=\"SP-VEHICLE MAINTENANCE AREA-SPACE FUNCTION SYS-4 FLR-1 SCH-E HPLCMT-EAST ZN\".\n   **   ~~~   ** Item length=[121] > Maximum Length=[100]. You may need to shorten the names.\n   **   ~~~   ** Shortening the Object Name by [22] characters will assure uniqueness for this ZoneList.\n   **   ~~~   ** name that will be used (may be needed in reporting)=\"SP-VEHICLE MAINTENANCE AREA-SPACE FUNCTION SYS-4 FLR-1 SCH-E HPLCMT-EAST ZN SPACE FUNCTION VEHICLE MAINTENANCE AREA LIGHTS\".\n   ** Warning ** GetInternalHeatGains: ElectricEquipment Combination of ZoneList and Object Name generate a name too long.\n   **   ~~~   ** Object Name=\"SPACE FUNCTION CONVENTION CENTRE EXHIBIT SPACE ELEC EQUIP\".\n   **   ~~~   ** ZoneList/Zone Name=\"SP-CONVENTION CENTRE EXHIBIT SPACE-SPACE FUNCTION SYS-3 FLR-3 SCH-C HPLCMT-WEST ZN\".\n   **   ~~~   ** Item length=[139] > Maximum Length=[100]. You may need to shorten the names.\n   **   ~~~   ** Shortening the Object Name by [40] characters will assure uniqueness for this ZoneList.\n   **   ~~~   ** name that will be used (may be needed in reporting)=\"SP-CONVENTION CENTRE EXHIBIT SPACE-SPACE FUNCTION SYS-3 FLR-3 SCH-C HPLCMT-WEST ZN SPACE FUNCTION CONVENTION CENTRE EXHIBIT SPACE ELEC EQUIP\".\n   ** Warning ** GetInternalHeatGains: ElectricEquipment Combination of ZoneList and Object Name generate a name too long.\n   **   ~~~   ** Object Name=\"SPACE FUNCTION DORMITORY LIVING QUARTERS ELEC EQUIP\".\n   **   ~~~   ** ZoneList/Zone Name=\"SP-DORMITORY LIVING QUARTERS-SPACE FUNCTION SYS-3 FLR-2 SCH-G HPLCMT-SOUTH ZN\".\n   **   ~~~   ** Item length=[128] > Maximum Length=[100]. You may need to shorten the names.\n   **   ~~~   ** Shortening the Object Name by [29] characters will assure uniqueness for this ZoneList.\n   **   ~~~   ** name that will be used (may be needed in reporting)=\"SP-DORMITORY LIVING QUARTERS-SPACE FUNCTION SYS-3 FLR-2 SCH-G HPLCMT-SOUTH ZN SPACE FUNCTION DORMITORY LIVING QUARTERS ELEC EQUIP\".\n   ** Warning ** GetInternalHeatGains: ElectricEquipment Combination of ZoneList and Object Name generate a name too long.\n   **   ~~~   ** Object Name=\"SPACE FUNCTION DWELLING UNITS GENERAL ELEC EQUIP\".\n   **   ~~~   ** ZoneList/Zone Name=\"SP-DWELLING UNITS GENERAL-SPACE FUNCTION SYS-1 FLR-2 SCH-G HPLCMT-WEST ZN\".\n   **   ~~~   ** Item length=[121] > Maximum Length=[100]. You may need to shorten the names.\n   **   ~~~   ** Shortening the Object Name by [22] characters will assure uniqueness for this ZoneList.\n   **   ~~~   ** name that will be used (may be needed in reporting)=\"SP-DWELLING UNITS GENERAL-SPACE FUNCTION SYS-1 FLR-2 SCH-G HPLCMT-WEST ZN SPACE FUNCTION DWELLING UNITS GENERAL ELEC EQUIP\".\n   ** Warning ** GetInternalHeatGains: ElectricEquipment Combination of ZoneList and Object Name generate a name too long.\n   **   ~~~   ** Object Name=\"SPACE FUNCTION DWELLING UNITS LONG-TERM ELEC EQUIP\".\n   **   ~~~   ** ZoneList/Zone Name=\"SP-DWELLING UNITS LONG-TERM-SPACE FUNCTION SYS-1 FLR-2 SCH-J HPLCMT-CORE ZN\".\n   **   ~~~   ** Item length=[125] > Maximum Length=[100]. You may need to shorten the names.\n   **   ~~~   ** Shortening the Object Name by [26] characters will assure uniqueness for this ZoneList.\n   **   ~~~   ** name that will be used (may be needed in reporting)=\"SP-DWELLING UNITS LONG-TERM-SPACE FUNCTION SYS-1 FLR-2 SCH-J HPLCMT-CORE ZN SPACE FUNCTION DWELLING UNITS LONG-TERM ELEC EQUIP\".\n   ** Warning ** GetInternalHeatGains: ElectricEquipment Combination of ZoneList and Object Name generate a name too long.\n   **   ~~~   ** Object Name=\"SPACE FUNCTION VEHICLE MAINTENANCE AREA ELEC EQUIP\".\n   **   ~~~   ** ZoneList/Zone Name=\"SP-VEHICLE MAINTENANCE AREA-SPACE FUNCTION SYS-4 FLR-1 SCH-E HPLCMT-EAST ZN\".\n   **   ~~~   ** Item length=[125] > Maximum Length=[100]. You may need to shorten the names.\n   **   ~~~   ** Shortening the Object Name by [26] characters will assure uniqueness for this ZoneList.\n   **   ~~~   ** name that will be used (may be needed in reporting)=\"SP-VEHICLE MAINTENANCE AREA-SPACE FUNCTION SYS-4 FLR-1 SCH-E HPLCMT-EAST ZN SPACE FUNCTION VEHICLE MAINTENANCE AREA ELEC EQUIP\".\n   ** Warning ** Calculated design heating load for zone=SP-DWELLING UNITS LONG-TERM-SPACE FUNCTION SYS-1 FLR-2 SCH-J HPLCMT-CORE ZN is zero.\n   **   ~~~   ** Check Sizing:Zone and ZoneControl:Thermostat inputs.\n   ** Warning ** Calculated design cooling load for zone=SP-STORAGE ROOM <= 5 M2 <= 100 M2-SCH-K-SPACE FUNCTION SYS-4 FLR-4 SCH-K HPLCMT-EAST ZN is zero.\n   **   ~~~   ** Check Sizing:Zone and ZoneControl:Thermostat inputs.\n   ** Warning ** Calculated design heating load for zone=SP-STORAGE ROOM <= 5 M2 <= 100 M2-SCH-K-SPACE FUNCTION SYS-4 FLR-4 SCH-K HPLCMT-EAST ZN is zero.\n   **   ~~~   ** Check Sizing:Zone and ZoneControl:Thermostat inputs.\n   ** Warning ** Calculated design heating load for zone=SP-STORAGE ROOM > 100 M2-SCH-G-SPACE FUNCTION SYS-4 FLR-1 SCH-G HPLCMT-NORTH ZN is zero.\n   **   ~~~   ** Check Sizing:Zone and ZoneControl:Thermostat inputs.\n   ** Warning ** Calculated design heating load for zone=SP-STORAGE ROOM > 100 M2-SCH-H-SPACE FUNCTION SYS-4 FLR-1 SCH-H HPLCMT-SOUTH ZN is zero.\n   **   ~~~   ** Check Sizing:Zone and ZoneControl:Thermostat inputs.\n   ** Warning ** Calculated design heating load for zone=SP-STORAGE ROOM > 100 M2-SCH-I-SPACE FUNCTION SYS-4 FLR-1 SCH-I HPLCMT-CORE ZN is zero.\n   **   ~~~   ** Check Sizing:Zone and ZoneControl:Thermostat inputs.\n   ** Warning ** Calculated design cooling load for zone=SP-STORAGE ROOM > 100 M2-SCH-K-SPACE FUNCTION SYS-4 FLR-2 SCH-K HPLCMT-NORTH ZN is zero.\n   **   ~~~   ** Check Sizing:Zone and ZoneControl:Thermostat inputs.\n   ** Warning ** Calculated design heating load for zone=SP-STORAGE ROOM > 100 M2-SCH-K-SPACE FUNCTION SYS-4 FLR-2 SCH-K HPLCMT-NORTH ZN is zero.\n   **   ~~~   ** Check Sizing:Zone and ZoneControl:Thermostat inputs.\n   ** Warning ** Calculated design heating load for zone=SP-VEHICLE MAINTENANCE AREA-SPACE FUNCTION SYS-4 FLR-1 SCH-E HPLCMT-EAST ZN is zero.\n   **   ~~~   ** Check Sizing:Zone and ZoneControl:Thermostat inputs.\n   ************* Beginning System Sizing Calculations\n   ** Warning ** GetDXCoils: Coil:Cooling:DX:SingleSpeed=\"COIL COOLING DX SINGLE SPEED 2\", invalid\n   **   ~~~   ** ...Part Load Fraction Correlation Curve Name = CURVE CUBIC 2 has out of range value.\n   **   ~~~   ** ...Curve maximum must be <= 1.0, curve max at PLR = 0.99 is 1.015\n   **   ~~~   ** ...Setting curve maximum to 1.0 and simulation continues.\n   ** Warning ** GetDXCoils: Coil:Cooling:DX:SingleSpeed=\"COIL COOLING DX SINGLE SPEED 3\", invalid\n   **   ~~~   ** ...Part Load Fraction Correlation Curve Name = CURVE CUBIC 3 has out of range value.\n   **   ~~~   ** ...Curve maximum must be <= 1.0, curve max at PLR = 0.99 is 1.015\n   **   ~~~   ** ...Setting curve maximum to 1.0 and simulation continues.\n   ** Warning ** GetDXCoils: Coil:Cooling:DX:SingleSpeed=\"COIL COOLING DX SINGLE SPEED 1\", invalid\n   **   ~~~   ** ...Part Load Fraction Correlation Curve Name = CURVE CUBIC 1 has out of range value.\n   **   ~~~   ** ...Curve maximum must be <= 1.0, curve max at PLR = 0.99 is 1.015\n   **   ~~~   ** ...Setting curve maximum to 1.0 and simulation continues.\n   ** Warning ** GetDXCoils: Coil:Cooling:DX:SingleSpeed=\"COIL COOLING DX SINGLE SPEED 20\", invalid\n   **   ~~~   ** ...Part Load Fraction Correlation Curve Name = CURVE CUBIC 17 has out of range value.\n   **   ~~~   ** ...Curve maximum must be <= 1.0, curve max at PLR = 0.99 is 1.015\n   **   ~~~   ** ...Setting curve maximum to 1.0 and simulation continues.\n   ** Warning ** GetDXCoils: Coil:Cooling:DX:SingleSpeed=\"COIL COOLING DX SINGLE SPEED 19\", invalid\n   **   ~~~   ** ...Part Load Fraction Correlation Curve Name = CURVE CUBIC 16 has out of range value.\n   **   ~~~   ** ...Curve maximum must be <= 1.0, curve max at PLR = 0.99 is 1.015\n   **   ~~~   ** ...Setting curve maximum to 1.0 and simulation continues.\n   ** Warning ** GetDXCoils: Coil:Cooling:DX:SingleSpeed=\"COIL COOLING DX SINGLE SPEED 21\", invalid\n   **   ~~~   ** ...Part Load Fraction Correlation Curve Name = CURVE CUBIC 18 has out of range value.\n   **   ~~~   ** ...Curve maximum must be <= 1.0, curve max at PLR = 0.99 is 1.015\n   **   ~~~   ** ...Setting curve maximum to 1.0 and simulation continues.\n   ** Warning ** GetDXCoils: Coil:Cooling:DX:SingleSpeed=\"COIL COOLING DX SINGLE SPEED 13\", invalid\n   **   ~~~   ** ...Part Load Fraction Correlation Curve Name = CURVE CUBIC 10 has out of range value.\n   **   ~~~   ** ...Curve maximum must be <= 1.0, curve max at PLR = 0.99 is 1.015\n   **   ~~~   ** ...Setting curve maximum to 1.0 and simulation continues.\n   ** Warning ** GetDXCoils: Coil:Cooling:DX:SingleSpeed=\"COIL COOLING DX SINGLE SPEED 14\", invalid\n   **   ~~~   ** ...Part Load Fraction Correlation Curve Name = CURVE CUBIC 11 has out of range value.\n   **   ~~~   ** ...Curve maximum must be <= 1.0, curve max at PLR = 0.99 is 1.015\n   **   ~~~   ** ...Setting curve maximum to 1.0 and simulation continues.\n   ** Warning ** GetDXCoils: Coil:Cooling:DX:SingleSpeed=\"COIL COOLING DX SINGLE SPEED 17\", invalid\n   **   ~~~   ** ...Part Load Fraction Correlation Curve Name = CURVE CUBIC 14 has out of range value.\n   **   ~~~   ** ...Curve maximum must be <= 1.0, curve max at PLR = 0.99 is 1.015\n   **   ~~~   ** ...Setting curve maximum to 1.0 and simulation continues.\n   ** Warning ** GetDXCoils: Coil:Cooling:DX:SingleSpeed=\"COIL COOLING DX SINGLE SPEED 15\", invalid\n   **   ~~~   ** ...Part Load Fraction Correlation Curve Name = CURVE CUBIC 12 has out of range value.\n   **   ~~~   ** ...Curve maximum must be <= 1.0, curve max at PLR = 0.99 is 1.015\n   **   ~~~   ** ...Setting curve maximum to 1.0 and simulation continues.\n   ** Warning ** GetDXCoils: Coil:Cooling:DX:SingleSpeed=\"COIL COOLING DX SINGLE SPEED 10\", invalid\n   **   ~~~   ** ...Part Load Fraction Correlation Curve Name = CURVE CUBIC 7 has out of range value.\n   **   ~~~   ** ...Curve maximum must be <= 1.0, curve max at PLR = 0.99 is 1.015\n   **   ~~~   ** ...Setting curve maximum to 1.0 and simulation continues.\n   ** Warning ** GetDXCoils: Coil:Cooling:DX:SingleSpeed=\"COIL COOLING DX SINGLE SPEED 16\", invalid\n   **   ~~~   ** ...Part Load Fraction Correlation Curve Name = CURVE CUBIC 13 has out of range value.\n   **   ~~~   ** ...Curve maximum must be <= 1.0, curve max at PLR = 0.99 is 1.015\n   **   ~~~   ** ...Setting curve maximum to 1.0 and simulation continues.\n   ** Warning ** GetDXCoils: Coil:Cooling:DX:SingleSpeed=\"COIL COOLING DX SINGLE SPEED 7\", invalid\n   **   ~~~   ** ...Part Load Fraction Correlation Curve Name = CURVE CUBIC 4 has out of range value.\n   **   ~~~   ** ...Curve maximum must be <= 1.0, curve max at PLR = 0.99 is 1.015\n   **   ~~~   ** ...Setting curve maximum to 1.0 and simulation continues.\n   ** Warning ** GetDXCoils: Coil:Cooling:DX:SingleSpeed=\"COIL COOLING DX SINGLE SPEED 11\", invalid\n   **   ~~~   ** ...Part Load Fraction Correlation Curve Name = CURVE CUBIC 8 has out of range value.\n   **   ~~~   ** ...Curve maximum must be <= 1.0, curve max at PLR = 0.99 is 1.015\n   **   ~~~   ** ...Setting curve maximum to 1.0 and simulation continues.\n   ** Warning ** GetDXCoils: Coil:Cooling:DX:SingleSpeed=\"COIL COOLING DX SINGLE SPEED 8\", invalid\n   **   ~~~   ** ...Part Load Fraction Correlation Curve Name = CURVE CUBIC 5 has out of range value.\n   **   ~~~   ** ...Curve maximum must be <= 1.0, curve max at PLR = 0.99 is 1.015\n   **   ~~~   ** ...Setting curve maximum to 1.0 and simulation continues.\n   ** Warning ** GetDXCoils: Coil:Cooling:DX:SingleSpeed=\"COIL COOLING DX SINGLE SPEED 18\", invalid\n   **   ~~~   ** ...Part Load Fraction Correlation Curve Name = CURVE CUBIC 15 has out of range value.\n   **   ~~~   ** ...Curve maximum must be <= 1.0, curve max at PLR = 0.99 is 1.015\n   **   ~~~   ** ...Setting curve maximum to 1.0 and simulation continues.\n   ** Warning ** GetDXCoils: Coil:Cooling:DX:SingleSpeed=\"COIL COOLING DX SINGLE SPEED 12\", invalid\n   **   ~~~   ** ...Part Load Fraction Correlation Curve Name = CURVE CUBIC 9 has out of range value.\n   **   ~~~   ** ...Curve maximum must be <= 1.0, curve max at PLR = 0.99 is 1.015\n   **   ~~~   ** ...Setting curve maximum to 1.0 and simulation continues.\n   ** Warning ** GetDXCoils: Coil:Cooling:DX:SingleSpeed=\"COIL COOLING DX SINGLE SPEED 9\", invalid\n   **   ~~~   ** ...Part Load Fraction Correlation Curve Name = CURVE CUBIC 6 has out of range value.\n   **   ~~~   ** ...Curve maximum must be <= 1.0, curve max at PLR = 0.99 is 1.015\n   **   ~~~   ** ...Setting curve maximum to 1.0 and simulation continues.\n   ************* Beginning Plant Sizing Calculations\n   ** Warning ** The Standard Ratings is calculated for Coil:Cooling:DX:SingleSpeed = COIL COOLING DX SINGLE SPEED 2 but not at the AHRI test condition due to curve out of bound.\n   **   ~~~   **  Review the Standard Ratings calculations in the Engineering Reference for this coil type. Also, use Output:Diagnostics, DisplayExtraWarnings for further guidance.\n   ** Warning ** The Standard Ratings is calculated for Coil:Cooling:DX:SingleSpeed = COIL COOLING DX SINGLE SPEED 3 but not at the AHRI test condition due to curve out of bound.\n   **   ~~~   **  Review the Standard Ratings calculations in the Engineering Reference for this coil type. Also, use Output:Diagnostics, DisplayExtraWarnings for further guidance.\n   ** Warning ** The Standard Ratings is calculated for Coil:Cooling:DX:SingleSpeed = COIL COOLING DX SINGLE SPEED 1 but not at the AHRI test condition due to curve out of bound.\n   **   ~~~   **  Review the Standard Ratings calculations in the Engineering Reference for this coil type. Also, use Output:Diagnostics, DisplayExtraWarnings for further guidance.\n   ** Warning ** The Standard Ratings is calculated for Coil:Cooling:DX:SingleSpeed = COIL COOLING DX SINGLE SPEED 6 but not at the AHRI test condition due to curve out of bound.\n   **   ~~~   **  Review the Standard Ratings calculations in the Engineering Reference for this coil type. Also, use Output:Diagnostics, DisplayExtraWarnings for further guidance.\n   ** Warning ** The Standard Ratings is calculated for Coil:Cooling:DX:SingleSpeed = COIL COOLING DX SINGLE SPEED 4 but not at the AHRI test condition due to curve out of bound.\n   **   ~~~   **  Review the Standard Ratings calculations in the Engineering Reference for this coil type. Also, use Output:Diagnostics, DisplayExtraWarnings for further guidance.\n   ** Warning ** The Standard Ratings is calculated for Coil:Cooling:DX:SingleSpeed = COIL COOLING DX SINGLE SPEED 5 but not at the AHRI test condition due to curve out of bound.\n   **   ~~~   **  Review the Standard Ratings calculations in the Engineering Reference for this coil type. Also, use Output:Diagnostics, DisplayExtraWarnings for further guidance.\n   ** Warning ** The Standard Ratings is calculated for Coil:Cooling:DX:SingleSpeed = COIL COOLING DX SINGLE SPEED 20 but not at the AHRI test condition due to curve out of bound.\n   **   ~~~   **  Review the Standard Ratings calculations in the Engineering Reference for this coil type. Also, use Output:Diagnostics, DisplayExtraWarnings for further guidance.\n   ** Warning ** The Standard Ratings is calculated for Coil:Cooling:DX:SingleSpeed = COIL COOLING DX SINGLE SPEED 19 but not at the AHRI test condition due to curve out of bound.\n   **   ~~~   **  Review the Standard Ratings calculations in the Engineering Reference for this coil type. Also, use Output:Diagnostics, DisplayExtraWarnings for further guidance.\n   ** Warning ** The Standard Ratings is calculated for Coil:Cooling:DX:SingleSpeed = COIL COOLING DX SINGLE SPEED 21 but not at the AHRI test condition due to curve out of bound.\n   **   ~~~   **  Review the Standard Ratings calculations in the Engineering Reference for this coil type. Also, use Output:Diagnostics, DisplayExtraWarnings for further guidance.\n   ** Warning ** The Standard Ratings is calculated for Coil:Cooling:DX:SingleSpeed = COIL COOLING DX SINGLE SPEED 13 but not at the AHRI test condition due to curve out of bound.\n   **   ~~~   **  Review the Standard Ratings calculations in the Engineering Reference for this coil type. Also, use Output:Diagnostics, DisplayExtraWarnings for further guidance.\n   ** Warning ** The Standard Ratings is calculated for Coil:Cooling:DX:SingleSpeed = COIL COOLING DX SINGLE SPEED 14 but not at the AHRI test condition due to curve out of bound.\n   **   ~~~   **  Review the Standard Ratings calculations in the Engineering Reference for this coil type. Also, use Output:Diagnostics, DisplayExtraWarnings for further guidance.\n   ** Warning ** The Standard Ratings is calculated for Coil:Cooling:DX:SingleSpeed = COIL COOLING DX SINGLE SPEED 17 but not at the AHRI test condition due to curve out of bound.\n   **   ~~~   **  Review the Standard Ratings calculations in the Engineering Reference for this coil type. Also, use Output:Diagnostics, DisplayExtraWarnings for further guidance.\n   ** Warning ** The Standard Ratings is calculated for Coil:Cooling:DX:SingleSpeed = COIL COOLING DX SINGLE SPEED 15 but not at the AHRI test condition due to curve out of bound.\n   **   ~~~   **  Review the Standard Ratings calculations in the Engineering Reference for this coil type. Also, use Output:Diagnostics, DisplayExtraWarnings for further guidance.\n   ** Warning ** The Standard Ratings is calculated for Coil:Cooling:DX:SingleSpeed = COIL COOLING DX SINGLE SPEED 10 but not at the AHRI test condition due to curve out of bound.\n   **   ~~~   **  Review the Standard Ratings calculations in the Engineering Reference for this coil type. Also, use Output:Diagnostics, DisplayExtraWarnings for further guidance.\n   ** Warning ** The Standard Ratings is calculated for Coil:Cooling:DX:SingleSpeed = COIL COOLING DX SINGLE SPEED 16 but not at the AHRI test condition due to curve out of bound.\n   **   ~~~   **  Review the Standard Ratings calculations in the Engineering Reference for this coil type. Also, use Output:Diagnostics, DisplayExtraWarnings for further guidance.\n   ** Warning ** The Standard Ratings is calculated for Coil:Cooling:DX:SingleSpeed = COIL COOLING DX SINGLE SPEED 7 but not at the AHRI test condition due to curve out of bound.\n   **   ~~~   **  Review the Standard Ratings calculations in the Engineering Reference for this coil type. Also, use Output:Diagnostics, DisplayExtraWarnings for further guidance.\n   ** Warning ** The Standard Ratings is calculated for Coil:Cooling:DX:SingleSpeed = COIL COOLING DX SINGLE SPEED 11 but not at the AHRI test condition due to curve out of bound.\n   **   ~~~   **  Review the Standard Ratings calculations in the Engineering Reference for this coil type. Also, use Output:Diagnostics, DisplayExtraWarnings for further guidance.\n   ** Warning ** The Standard Ratings is calculated for Coil:Cooling:DX:SingleSpeed = COIL COOLING DX SINGLE SPEED 8 but not at the AHRI test condition due to curve out of bound.\n   **   ~~~   **  Review the Standard Ratings calculations in the Engineering Reference for this coil type. Also, use Output:Diagnostics, DisplayExtraWarnings for further guidance.\n   ** Warning ** The Standard Ratings is calculated for Coil:Cooling:DX:SingleSpeed = COIL COOLING DX SINGLE SPEED 18 but not at the AHRI test condition due to curve out of bound.\n   **   ~~~   **  Review the Standard Ratings calculations in the Engineering Reference for this coil type. Also, use Output:Diagnostics, DisplayExtraWarnings for further guidance.\n   ** Warning ** The Standard Ratings is calculated for Coil:Cooling:DX:SingleSpeed = COIL COOLING DX SINGLE SPEED 12 but not at the AHRI test condition due to curve out of bound.\n   **   ~~~   **  Review the Standard Ratings calculations in the Engineering Reference for this coil type. Also, use Output:Diagnostics, DisplayExtraWarnings for further guidance.\n   ** Warning ** The Standard Ratings is calculated for Coil:Cooling:DX:SingleSpeed = COIL COOLING DX SINGLE SPEED 9 but not at the AHRI test condition due to curve out of bound.\n   **   ~~~   **  Review the Standard Ratings calculations in the Engineering Reference for this coil type. Also, use Output:Diagnostics, DisplayExtraWarnings for further guidance.\n   ** Warning ** Output:Meter: invalid Key Name=\"DISTRICTCOOLING:FACILITY\" - not found.\n   ** Warning ** Output:Meter: invalid Key Name=\"DISTRICTHEATING:FACILITY\" - not found.\n   ** Warning ** Output:Meter:MeterFileOnly requested for \"Electricity:Facility\" (TimeStep), already on \"Output:Meter\". Will report to both eplusout.eso and eplusout.mtr\n   ************* Testing Individual Branch Integrity\n   ************* All Branches passed integrity testing\n   ************* Testing Individual Supply Air Path Integrity\n   ************* All Supply Air Paths passed integrity testing\n   ************* Testing Individual Return Air Path Integrity\n   ************* All Return Air Paths passed integrity testing\n   ************* No node connection errors were found.\n   ************* Beginning Simulation\n   ** Warning ** Output:Table:Monthly requested with SimulationControl Run Simulation for Weather File Run Periods set to No so Output:Table:Monthly will not be generated\n   ************* Simulation Error Summary *************\n   ************* There are 8 unused objects in input.\n   ************* Use Output:Diagnostics,DisplayUnusedObjects; to see them.\n   ************* There are 14 unused schedules in input.\n   ************* There are 14 unused week schedules in input.\n   ************* There are 38 unused day schedules in input.\n   ************* Use Output:Diagnostics,DisplayUnusedSchedules; to see them.\n   *************\n   ************* ===== Final Error Summary =====\n   ************* The following error categories occurred.  Consider correcting or noting.\n   ************* Nominally Unused Constructions\n   ************* ..The nominally unused constructions warning is provided to alert you to potential conditions that can cause\n   ************* ..extra time during simulation. Each construction is calculated by the algorithm indicated in the HeatBalanceAlgorithm\n   ************* ..object. You may remove the constructions indicated (when you use the DisplayExtraWarnings option).\n   *************\n   ************* EnergyPlus Warmup Error Summary. During Warmup: 0 Warning; 0 Severe Errors.\n   ************* EnergyPlus Sizing Error Summary. During Sizing: 195 Warning; 0 Severe Errors.\n   ************* EnergyPlus Completed Successfully-- 220 Warning; 0 Severe Errors; Elapsed Time=00hr 00min  4.58sec\n",
   "hash" : "75281905",
   "seed_file" : "in.osm",
   "started_at" : "20190328T142632Z",
   "steps" : [],
   "updated_at" : "20190328T142640Z",
   "weather_file" : "in.epw"
}
