Program Version,EnergyPlus, Version 8.9.0-eba93e8e1b, YMD=2019.03.28 13:41,
   ************* Beginning Zone Sizing Calculations
   ** Warning ** ProcessScheduleInput: Schedule:Day:Interval="ECONOMIZER MAX OA FRACTION 100 PCT DEFAULT", Blank Schedule Type Limits Name input -- will not be validated.
   ** Warning ** ProcessScheduleInput: Schedule:Day:Interval="SCHEDULE DAY 1", Blank Schedule Type Limits Name input -- will not be validated.
   ** Warning ** ProcessScheduleInput: Schedule:Day:Interval="SCHEDULE DAY 10", Blank Schedule Type Limits Name input -- will not be validated.
   ** Warning ** ProcessScheduleInput: Schedule:Day:Interval="SCHEDULE DAY 11", Blank Schedule Type Limits Name input -- will not be validated.
   ** Warning ** ProcessScheduleInput: Schedule:Day:Interval="SCHEDULE DAY 12", Blank Schedule Type Limits Name input -- will not be validated.
   ** Warning ** ProcessScheduleInput: Schedule:Day:Interval="SCHEDULE DAY 13", Blank Schedule Type Limits Name input -- will not be validated.
   ** Warning ** ProcessScheduleInput: Schedule:Day:Interval="SCHEDULE DAY 14", Blank Schedule Type Limits Name input -- will not be validated.
   ** Warning ** ProcessScheduleInput: Schedule:Day:Interval="SCHEDULE DAY 15", Blank Schedule Type Limits Name input -- will not be validated.
   ** Warning ** ProcessScheduleInput: Schedule:Day:Interval="SCHEDULE DAY 16", Blank Schedule Type Limits Name input -- will not be validated.
   ** Warning ** ProcessScheduleInput: Schedule:Day:Interval="SCHEDULE DAY 17", Blank Schedule Type Limits Name input -- will not be validated.
   ** Warning ** ProcessScheduleInput: Schedule:Day:Interval="SCHEDULE DAY 18", Blank Schedule Type Limits Name input -- will not be validated.
   ** Warning ** ProcessScheduleInput: Schedule:Day:Interval="SCHEDULE DAY 19", Blank Schedule Type Limits Name input -- will not be validated.
   ** Warning ** ProcessScheduleInput: Schedule:Day:Interval="SCHEDULE DAY 2", Blank Schedule Type Limits Name input -- will not be validated.
   ** Warning ** ProcessScheduleInput: Schedule:Day:Interval="SCHEDULE DAY 20", Blank Schedule Type Limits Name input -- will not be validated.
   ** Warning ** ProcessScheduleInput: Schedule:Day:Interval="SCHEDULE DAY 21", Blank Schedule Type Limits Name input -- will not be validated.
   ** Warning ** ProcessScheduleInput: Schedule:Day:Interval="SCHEDULE DAY 22", Blank Schedule Type Limits Name input -- will not be validated.
   ** Warning ** ProcessScheduleInput: Schedule:Day:Interval="SCHEDULE DAY 23", Blank Schedule Type Limits Name input -- will not be validated.
   ** Warning ** ProcessScheduleInput: Schedule:Day:Interval="SCHEDULE DAY 24", Blank Schedule Type Limits Name input -- will not be validated.
   ** Warning ** ProcessScheduleInput: Schedule:Day:Interval="SCHEDULE DAY 25", Blank Schedule Type Limits Name input -- will not be validated.
   ** Warning ** ProcessScheduleInput: Schedule:Day:Interval="SCHEDULE DAY 26", Blank Schedule Type Limits Name input -- will not be validated.
   ** Warning ** ProcessScheduleInput: Schedule:Day:Interval="SCHEDULE DAY 27", Blank Schedule Type Limits Name input -- will not be validated.
   ** Warning ** ProcessScheduleInput: Schedule:Day:Interval="SCHEDULE DAY 28", Blank Schedule Type Limits Name input -- will not be validated.
   ** Warning ** ProcessScheduleInput: Schedule:Day:Interval="SCHEDULE DAY 29", Blank Schedule Type Limits Name input -- will not be validated.
   ** Warning ** ProcessScheduleInput: Schedule:Day:Interval="SCHEDULE DAY 30", Blank Schedule Type Limits Name input -- will not be validated.
   ** Warning ** ProcessScheduleInput: Schedule:Day:Interval="SCHEDULE DAY 31", Blank Schedule Type Limits Name input -- will not be validated.
   ** Warning ** ProcessScheduleInput: Schedule:Day:Interval="SCHEDULE DAY 32", Blank Schedule Type Limits Name input -- will not be validated.
   ** Warning ** ProcessScheduleInput: Schedule:Day:Interval="SCHEDULE DAY 33", Blank Schedule Type Limits Name input -- will not be validated.
   ** Warning ** ProcessScheduleInput: Schedule:Day:Interval="SCHEDULE DAY 34", Blank Schedule Type Limits Name input -- will not be validated.
   ** Warning ** ProcessScheduleInput: Schedule:Day:Interval="SCHEDULE DAY 35", Blank Schedule Type Limits Name input -- will not be validated.
   ** Warning ** ProcessScheduleInput: Schedule:Day:Interval="SCHEDULE DAY 36", Blank Schedule Type Limits Name input -- will not be validated.
   ** Warning ** ProcessScheduleInput: Schedule:Day:Interval="SCHEDULE DAY 37", Blank Schedule Type Limits Name input -- will not be validated.
   ** Warning ** ProcessScheduleInput: Schedule:Day:Interval="SCHEDULE DAY 38", Blank Schedule Type Limits Name input -- will not be validated.
   ** Warning ** ProcessScheduleInput: Schedule:Day:Interval="SCHEDULE DAY 39", Blank Schedule Type Limits Name input -- will not be validated.
   ** Warning ** ProcessScheduleInput: Schedule:Day:Interval="SCHEDULE DAY 40", Blank Schedule Type Limits Name input -- will not be validated.
   ** Warning ** ProcessScheduleInput: Schedule:Day:Interval="SCHEDULE DAY 41", Blank Schedule Type Limits Name input -- will not be validated.
   ** Warning ** ProcessScheduleInput: Schedule:Day:Interval="SCHEDULE DAY 42", Blank Schedule Type Limits Name input -- will not be validated.
   ** Warning ** ProcessScheduleInput: Schedule:Day:Interval="SCHEDULE DAY 43", Blank Schedule Type Limits Name input -- will not be validated.
   ** Warning ** ProcessScheduleInput: Schedule:Day:Interval="SCHEDULE DAY 44", Blank Schedule Type Limits Name input -- will not be validated.
   ** Warning ** ProcessScheduleInput: Schedule:Day:Interval="SCHEDULE DAY 45", Blank Schedule Type Limits Name input -- will not be validated.
   ** Warning ** ProcessScheduleInput: Schedule:Day:Interval="SCHEDULE DAY 46", Blank Schedule Type Limits Name input -- will not be validated.
   ** Warning ** ProcessScheduleInput: Schedule:Day:Interval="SCHEDULE DAY 47", Blank Schedule Type Limits Name input -- will not be validated.
   ** Warning ** ProcessScheduleInput: Schedule:Day:Interval="SCHEDULE DAY 48", Blank Schedule Type Limits Name input -- will not be validated.
   ** Warning ** ProcessScheduleInput: Schedule:Day:Interval="SCHEDULE DAY 49", Blank Schedule Type Limits Name input -- will not be validated.
   ** Warning ** ProcessScheduleInput: Schedule:Day:Interval="SCHEDULE DAY 50", Blank Schedule Type Limits Name input -- will not be validated.
   ** Warning ** ProcessScheduleInput: Schedule:Day:Interval="SCHEDULE DAY 51", Blank Schedule Type Limits Name input -- will not be validated.
   ** Warning ** ProcessScheduleInput: Schedule:Day:Interval="SCHEDULE DAY 52", Blank Schedule Type Limits Name input -- will not be validated.
   ** Warning ** ProcessScheduleInput: Schedule:Day:Interval="SCHEDULE DAY 53", Blank Schedule Type Limits Name input -- will not be validated.
   ** Warning ** ProcessScheduleInput: Schedule:Day:Interval="SCHEDULE DAY 54", Blank Schedule Type Limits Name input -- will not be validated.
   ** Warning ** ProcessScheduleInput: Schedule:Day:Interval="SCHEDULE DAY 55", Blank Schedule Type Limits Name input -- will not be validated.
   ** Warning ** ProcessScheduleInput: Schedule:Day:Interval="SCHEDULE DAY 56", Blank Schedule Type Limits Name input -- will not be validated.
   ** Warning ** ProcessScheduleInput: Schedule:Day:Interval="SCHEDULE DAY 57", Blank Schedule Type Limits Name input -- will not be validated.
   ** Warning ** ProcessScheduleInput: Schedule:Day:Interval="SCHEDULE DAY 58", Blank Schedule Type Limits Name input -- will not be validated.
   ** Warning ** ProcessScheduleInput: Schedule:Day:Interval="SCHEDULE DAY 59", Blank Schedule Type Limits Name input -- will not be validated.
   ** Warning ** ProcessScheduleInput: Schedule:Day:Interval="SCHEDULE DAY 60", Blank Schedule Type Limits Name input -- will not be validated.
   ** Warning ** ProcessScheduleInput: Schedule:Day:Interval="SCHEDULE DAY 61", Blank Schedule Type Limits Name input -- will not be validated.
   ** Warning ** ProcessScheduleInput: Schedule:Day:Interval="SCHEDULE DAY 62", Blank Schedule Type Limits Name input -- will not be validated.
   ** Warning ** ProcessScheduleInput: Schedule:Day:Interval="SCHEDULE DAY 63", Blank Schedule Type Limits Name input -- will not be validated.
   ** Warning ** ProcessScheduleInput: Schedule:Day:Interval="SCHEDULE DAY 64", Blank Schedule Type Limits Name input -- will not be validated.
   ** Warning ** ProcessScheduleInput: Schedule:Day:Interval="SCHEDULE DAY 65", Blank Schedule Type Limits Name input -- will not be validated.
   ** Warning ** ProcessScheduleInput: Schedule:Day:Interval="SCHEDULE DAY 66", Blank Schedule Type Limits Name input -- will not be validated.
   ** Warning ** ProcessScheduleInput: Schedule:Day:Interval="SCHEDULE DAY 67", Blank Schedule Type Limits Name input -- will not be validated.
   ** Warning ** ProcessScheduleInput: Schedule:Day:Interval="SCHEDULE DAY 68", Blank Schedule Type Limits Name input -- will not be validated.
   ** Warning ** ProcessScheduleInput: Schedule:Day:Interval="SCHEDULE DAY 69", Blank Schedule Type Limits Name input -- will not be validated.
   ** Warning ** ProcessScheduleInput: Schedule:Day:Interval="SCHEDULE DAY 7", Blank Schedule Type Limits Name input -- will not be validated.
   ** Warning ** ProcessScheduleInput: Schedule:Day:Interval="SCHEDULE DAY 70", Blank Schedule Type Limits Name input -- will not be validated.
   ** Warning ** ProcessScheduleInput: Schedule:Day:Interval="SCHEDULE DAY 71", Blank Schedule Type Limits Name input -- will not be validated.
   ** Warning ** ProcessScheduleInput: Schedule:Day:Interval="SCHEDULE DAY 72", Blank Schedule Type Limits Name input -- will not be validated.
   ** Warning ** ProcessScheduleInput: Schedule:Day:Interval="SCHEDULE DAY 73", Blank Schedule Type Limits Name input -- will not be validated.
   ** Warning ** ProcessScheduleInput: Schedule:Day:Interval="SCHEDULE DAY 74", Blank Schedule Type Limits Name input -- will not be validated.
   ** Warning ** ProcessScheduleInput: Schedule:Day:Interval="SCHEDULE DAY 75", Blank Schedule Type Limits Name input -- will not be validated.
   ** Warning ** ProcessScheduleInput: Schedule:Day:Interval="SCHEDULE DAY 76", Blank Schedule Type Limits Name input -- will not be validated.
   ** Warning ** ProcessScheduleInput: Schedule:Day:Interval="SCHEDULE DAY 77", Blank Schedule Type Limits Name input -- will not be validated.
   ** Warning ** ProcessScheduleInput: Schedule:Day:Interval="SCHEDULE DAY 78", Blank Schedule Type Limits Name input -- will not be validated.
   ** Warning ** ProcessScheduleInput: Schedule:Day:Interval="SCHEDULE DAY 79", Blank Schedule Type Limits Name input -- will not be validated.
   ** Warning ** ProcessScheduleInput: Schedule:Day:Interval="SCHEDULE DAY 8", Blank Schedule Type Limits Name input -- will not be validated.
   ** Warning ** ProcessScheduleInput: Schedule:Day:Interval="SCHEDULE DAY 80", Blank Schedule Type Limits Name input -- will not be validated.
   ** Warning ** ProcessScheduleInput: Schedule:Day:Interval="SCHEDULE DAY 81", Blank Schedule Type Limits Name input -- will not be validated.
   ** Warning ** ProcessScheduleInput: Schedule:Day:Interval="SCHEDULE DAY 82", Blank Schedule Type Limits Name input -- will not be validated.
   ** Warning ** ProcessScheduleInput: Schedule:Day:Interval="SCHEDULE DAY 83", Blank Schedule Type Limits Name input -- will not be validated.
   ** Warning ** ProcessScheduleInput: Schedule:Day:Interval="SCHEDULE DAY 84", Blank Schedule Type Limits Name input -- will not be validated.
   ** Warning ** ProcessScheduleInput: Schedule:Day:Interval="SCHEDULE DAY 85", Blank Schedule Type Limits Name input -- will not be validated.
   ** Warning ** ProcessScheduleInput: Schedule:Day:Interval="SCHEDULE DAY 9", Blank Schedule Type Limits Name input -- will not be validated.
   ** Warning ** ProcessScheduleInput: Schedule:Year="ECONOMIZER MAX OA FRACTION 100 PCT", Blank Schedule Type Limits Name input -- will not be validated.
   ** Warning ** ProcessScheduleInput: Schedule:Year="SCHEDULE RULESET 10", Blank Schedule Type Limits Name input -- will not be validated.
   ** Warning ** ProcessScheduleInput: Schedule:Year="SCHEDULE RULESET 11", Blank Schedule Type Limits Name input -- will not be validated.
   ** Warning ** ProcessScheduleInput: Schedule:Year="SCHEDULE RULESET 12", Blank Schedule Type Limits Name input -- will not be validated.
   ** Warning ** ProcessScheduleInput: Schedule:Year="SCHEDULE RULESET 13", Blank Schedule Type Limits Name input -- will not be validated.
   ** Warning ** ProcessScheduleInput: Schedule:Year="SCHEDULE RULESET 14", Blank Schedule Type Limits Name input -- will not be validated.
   ** Warning ** ProcessScheduleInput: Schedule:Year="SCHEDULE RULESET 15", Blank Schedule Type Limits Name input -- will not be validated.
   ** Warning ** ProcessScheduleInput: Schedule:Year="SCHEDULE RULESET 16", Blank Schedule Type Limits Name input -- will not be validated.
   ** Warning ** ProcessScheduleInput: Schedule:Year="SCHEDULE RULESET 17", Blank Schedule Type Limits Name input -- will not be validated.
   ** Warning ** ProcessScheduleInput: Schedule:Year="SCHEDULE RULESET 18", Blank Schedule Type Limits Name input -- will not be validated.
   ** Warning ** ProcessScheduleInput: Schedule:Year="SCHEDULE RULESET 19", Blank Schedule Type Limits Name input -- will not be validated.
   ** Warning ** ProcessScheduleInput: Schedule:Year="SCHEDULE RULESET 20", Blank Schedule Type Limits Name input -- will not be validated.
   ** Warning ** ProcessScheduleInput: Schedule:Year="SCHEDULE RULESET 21", Blank Schedule Type Limits Name input -- will not be validated.
   ** Warning ** ProcessScheduleInput: Schedule:Year="SCHEDULE RULESET 22", Blank Schedule Type Limits Name input -- will not be validated.
   ** Warning ** ProcessScheduleInput: Schedule:Year="SCHEDULE RULESET 23", Blank Schedule Type Limits Name input -- will not be validated.
   ** Warning ** ProcessScheduleInput: Schedule:Year="SCHEDULE RULESET 24", Blank Schedule Type Limits Name input -- will not be validated.
   ** Warning ** ProcessScheduleInput: Schedule:Year="SCHEDULE RULESET 25", Blank Schedule Type Limits Name input -- will not be validated.
   ** Warning ** ProcessScheduleInput: Schedule:Year="SCHEDULE RULESET 26", Blank Schedule Type Limits Name input -- will not be validated.
   ** Warning ** ProcessScheduleInput: Schedule:Year="SCHEDULE RULESET 27", Blank Schedule Type Limits Name input -- will not be validated.
   ** Warning ** ProcessScheduleInput: Schedule:Year="SCHEDULE RULESET 28", Blank Schedule Type Limits Name input -- will not be validated.
   ** Warning ** ProcessScheduleInput: Schedule:Year="SCHEDULE RULESET 29", Blank Schedule Type Limits Name input -- will not be validated.
   ** Warning ** ProcessScheduleInput: Schedule:Year="SCHEDULE RULESET 3", Blank Schedule Type Limits Name input -- will not be validated.
   ** Warning ** ProcessScheduleInput: Schedule:Year="SCHEDULE RULESET 30", Blank Schedule Type Limits Name input -- will not be validated.
   ** Warning ** ProcessScheduleInput: Schedule:Year="SCHEDULE RULESET 31", Blank Schedule Type Limits Name input -- will not be validated.
   ** Warning ** ProcessScheduleInput: Schedule:Year="SCHEDULE RULESET 32", Blank Schedule Type Limits Name input -- will not be validated.
   ** Warning ** ProcessScheduleInput: Schedule:Year="SCHEDULE RULESET 33", Blank Schedule Type Limits Name input -- will not be validated.
   ** Warning ** ProcessScheduleInput: Schedule:Year="SCHEDULE RULESET 34", Blank Schedule Type Limits Name input -- will not be validated.
   ** Warning ** ProcessScheduleInput: Schedule:Year="SCHEDULE RULESET 35", Blank Schedule Type Limits Name input -- will not be validated.
   ** Warning ** ProcessScheduleInput: Schedule:Year="SCHEDULE RULESET 36", Blank Schedule Type Limits Name input -- will not be validated.
   ** Warning ** ProcessScheduleInput: Schedule:Year="SCHEDULE RULESET 37", Blank Schedule Type Limits Name input -- will not be validated.
   ** Warning ** ProcessScheduleInput: Schedule:Year="SCHEDULE RULESET 38", Blank Schedule Type Limits Name input -- will not be validated.
   ** Warning ** ProcessScheduleInput: Schedule:Year="SCHEDULE RULESET 39", Blank Schedule Type Limits Name input -- will not be validated.
   ** Warning ** ProcessScheduleInput: Schedule:Year="SCHEDULE RULESET 4", Blank Schedule Type Limits Name input -- will not be validated.
   ** Warning ** ProcessScheduleInput: Schedule:Year="SCHEDULE RULESET 40", Blank Schedule Type Limits Name input -- will not be validated.
   ** Warning ** ProcessScheduleInput: Schedule:Year="SCHEDULE RULESET 41", Blank Schedule Type Limits Name input -- will not be validated.
   ** Warning ** ProcessScheduleInput: Schedule:Year="SCHEDULE RULESET 42", Blank Schedule Type Limits Name input -- will not be validated.
   ** Warning ** ProcessScheduleInput: Schedule:Year="SCHEDULE RULESET 43", Blank Schedule Type Limits Name input -- will not be validated.
   ** Warning ** ProcessScheduleInput: Schedule:Year="SCHEDULE RULESET 44", Blank Schedule Type Limits Name input -- will not be validated.
   ** Warning ** ProcessScheduleInput: Schedule:Year="SCHEDULE RULESET 45", Blank Schedule Type Limits Name input -- will not be validated.
   ** Warning ** ProcessScheduleInput: Schedule:Year="SCHEDULE RULESET 46", Blank Schedule Type Limits Name input -- will not be validated.
   ** Warning ** ProcessScheduleInput: Schedule:Year="SCHEDULE RULESET 47", Blank Schedule Type Limits Name input -- will not be validated.
   ** Warning ** ProcessScheduleInput: Schedule:Year="SCHEDULE RULESET 5", Blank Schedule Type Limits Name input -- will not be validated.
   ** Warning ** ProcessScheduleInput: Schedule:Year="SCHEDULE RULESET 6", Blank Schedule Type Limits Name input -- will not be validated.
   ** Warning ** ProcessScheduleInput: Schedule:Year="SCHEDULE RULESET 7", Blank Schedule Type Limits Name input -- will not be validated.
   ** Warning ** ProcessScheduleInput: Schedule:Year="SCHEDULE RULESET 8", Blank Schedule Type Limits Name input -- will not be validated.
   ** Warning ** ProcessScheduleInput: Schedule:Year="SCHEDULE RULESET 9", Blank Schedule Type Limits Name input -- will not be validated.
   ** Warning ** ProcessScheduleInput: Schedule:Constant="ALWAYS OFF DISCRETE", Blank Schedule Type Limits Name input -- will not be validated.
   ** Warning ** ProcessScheduleInput: Schedule:Constant="ALWAYS ON CONTINUOUS", Blank Schedule Type Limits Name input -- will not be validated.
   ** Warning ** CheckUsedConstructions: There are 27 nominally unused constructions in input.
   **   ~~~   ** For explicit details on each unused construction, use Output:Diagnostics,DisplayExtraWarnings;
   ** Warning ** GetInternalHeatGains: People Combination of ZoneList and Object Name generate a name too long.
   **   ~~~   ** Object Name="SPACE FUNCTION ATRIUM (6 =< HEIGHT <= 12M)-SCH-G PEOPLE".
   **   ~~~   ** ZoneList/Zone Name="SP-ATRIUM (6 =< HEIGHT <= 12M)-SCH-G-SPACE FUNCTION SYS-6 FLR-4 SCH-G HPLCMT-SOUTH ZN".
   **   ~~~   ** Item length=[140] > Maximum Length=[100]. You may need to shorten the names.
   **   ~~~   ** Shortening the Object Name by [41] characters will assure uniqueness for this ZoneList.
   **   ~~~   ** name that will be used (may be needed in reporting)="SP-ATRIUM (6 =< HEIGHT <= 12M)-SCH-G-SPACE FUNCTION SYS-6 FLR-4 SCH-G HPLCMT-SOUTH ZN SPACE FUNCTION ATRIUM (6 =< HEIGHT <= 12M)-SCH-G PEOPLE".
   ** Warning ** GetInternalHeatGains: People Combination of ZoneList and Object Name generate a name too long.
   **   ~~~   ** Object Name="SPACE FUNCTION ATRIUM (6 =< HEIGHT <= 12M)-SCH-H PEOPLE".
   **   ~~~   ** ZoneList/Zone Name="SP-ATRIUM (6 =< HEIGHT <= 12M)-SCH-H-SPACE FUNCTION SYS-6 FLR-3 SCH-H HPLCMT-CORE ZN".
   **   ~~~   ** Item length=[139] > Maximum Length=[100]. You may need to shorten the names.
   **   ~~~   ** Shortening the Object Name by [40] characters will assure uniqueness for this ZoneList.
   **   ~~~   ** name that will be used (may be needed in reporting)="SP-ATRIUM (6 =< HEIGHT <= 12M)-SCH-H-SPACE FUNCTION SYS-6 FLR-3 SCH-H HPLCMT-CORE ZN SPACE FUNCTION ATRIUM (6 =< HEIGHT <= 12M)-SCH-H PEOPLE".
   ** Warning ** GetInternalHeatGains: People Combination of ZoneList and Object Name generate a name too long.
   **   ~~~   ** Object Name="SPACE FUNCTION ATRIUM (6 =< HEIGHT <= 12M)-SCH-I PEOPLE".
   **   ~~~   ** ZoneList/Zone Name="SP-ATRIUM (6 =< HEIGHT <= 12M)-SCH-I-SPACE FUNCTION SYS-6 FLR-3 SCH-I HPLCMT-EAST ZN".
   **   ~~~   ** Item length=[139] > Maximum Length=[100]. You may need to shorten the names.
   **   ~~~   ** Shortening the Object Name by [40] characters will assure uniqueness for this ZoneList.
   **   ~~~   ** name that will be used (may be needed in reporting)="SP-ATRIUM (6 =< HEIGHT <= 12M)-SCH-I-SPACE FUNCTION SYS-6 FLR-3 SCH-I HPLCMT-EAST ZN SPACE FUNCTION ATRIUM (6 =< HEIGHT <= 12M)-SCH-I PEOPLE".
   ** Warning ** GetInternalHeatGains: People Combination of ZoneList and Object Name generate a name too long.
   **   ~~~   ** Object Name="SPACE FUNCTION ATRIUM (6 =< HEIGHT <= 12M)-SCH-J PEOPLE".
   **   ~~~   ** ZoneList/Zone Name="SP-ATRIUM (6 =< HEIGHT <= 12M)-SCH-J-SPACE FUNCTION SYS-6 FLR-3 SCH-J HPLCMT-NORTH ZN".
   **   ~~~   ** Item length=[140] > Maximum Length=[100]. You may need to shorten the names.
   **   ~~~   ** Shortening the Object Name by [41] characters will assure uniqueness for this ZoneList.
   **   ~~~   ** name that will be used (may be needed in reporting)="SP-ATRIUM (6 =< HEIGHT <= 12M)-SCH-J-SPACE FUNCTION SYS-6 FLR-3 SCH-J HPLCMT-NORTH ZN SPACE FUNCTION ATRIUM (6 =< HEIGHT <= 12M)-SCH-J PEOPLE".
   ** Warning ** GetInternalHeatGains: People Combination of ZoneList and Object Name generate a name too long.
   **   ~~~   ** Object Name="SPACE FUNCTION ATRIUM (6 =< HEIGHT <= 12M)-SCH-K PEOPLE".
   **   ~~~   ** ZoneList/Zone Name="SP-ATRIUM (6 =< HEIGHT <= 12M)-SCH-K-SPACE FUNCTION SYS-6 FLR-1 SCH-K HPLCMT-WEST ZN".
   **   ~~~   ** Item length=[139] > Maximum Length=[100]. You may need to shorten the names.
   **   ~~~   ** Shortening the Object Name by [40] characters will assure uniqueness for this ZoneList.
   **   ~~~   ** name that will be used (may be needed in reporting)="SP-ATRIUM (6 =< HEIGHT <= 12M)-SCH-K-SPACE FUNCTION SYS-6 FLR-1 SCH-K HPLCMT-WEST ZN SPACE FUNCTION ATRIUM (6 =< HEIGHT <= 12M)-SCH-K PEOPLE".
   ** Warning ** GetInternalHeatGains: People Combination of ZoneList and Object Name generate a name too long.
   **   ~~~   ** Object Name="SPACE FUNCTION AUDIENCE SEATING AREA PERMANENT - AUDITORIUM PEOPLE".
   **   ~~~   ** ZoneList/Zone Name="SP-AUDIENCE SEATING AREA PERMANENT - AUDITORIUM-SPACE FUNCTION SYS-3 FLR-4 SCH-C HPLCMT-CORE ZN".
   **   ~~~   ** Item length=[161] > Maximum Length=[100]. You may need to shorten the names.
   **   ~~~   ** Shortening the Object Name by [62] characters will assure uniqueness for this ZoneList.
   **   ~~~   ** name that will be used (may be needed in reporting)="SP-AUDIENCE SEATING AREA PERMANENT - AUDITORIUM-SPACE FUNCTION SYS-3 FLR-4 SCH-C HPLCMT-CORE ZN SPACE FUNCTION AUDIENCE SEATING AREA PERMANENT - AUDITORIUM PEOPLE".
   ** Warning ** GetInternalHeatGains: People Combination of ZoneList and Object Name generate a name too long.
   **   ~~~   ** Object Name="SPACE FUNCTION AUDIENCE SEATING AREA PERMANENT - CONVENTION CENTRE PEOPLE".
   **   ~~~   ** ZoneList/Zone Name="SP-AUDIENCE SEATING AREA PERMANENT - CONVENTION CENTRE-SPACE FUNCTION SYS-3 FLR-3 SCH-C HPLCMT-SOUTH ZN".
   **   ~~~   ** Item length=[176] > Maximum Length=[100]. You may need to shorten the names.
   **   ~~~   ** Shortening the Object Name by [77] characters will assure uniqueness for this ZoneList.
   **   ~~~   ** name that will be used (may be needed in reporting)="SP-AUDIENCE SEATING AREA PERMANENT - CONVENTION CENTRE-SPACE FUNCTION SYS-3 FLR-3 SCH-C HPLCMT-SOUTH ZN SPACE FUNCTION AUDIENCE SEATING AREA PERMANENT - CONVENTION CENTRE PEOPLE".
   ** Warning ** GetInternalHeatGains: People Combination of ZoneList and Object Name generate a name too long.
   **   ~~~   ** Object Name="SPACE FUNCTION AUDIENCE SEATING AREA PERMANENT - GYMNASIUM PEOPLE".
   **   ~~~   ** ZoneList/Zone Name="SP-AUDIENCE SEATING AREA PERMANENT - GYMNASIUM-SPACE FUNCTION SYS-6 FLR-2 SCH-B HPLCMT-SOUTH ZN".
   **   ~~~   ** Item length=[160] > Maximum Length=[100]. You may need to shorten the names.
   **   ~~~   ** Shortening the Object Name by [61] characters will assure uniqueness for this ZoneList.
   **   ~~~   ** name that will be used (may be needed in reporting)="SP-AUDIENCE SEATING AREA PERMANENT - GYMNASIUM-SPACE FUNCTION SYS-6 FLR-2 SCH-B HPLCMT-SOUTH ZN SPACE FUNCTION AUDIENCE SEATING AREA PERMANENT - GYMNASIUM PEOPLE".
   ** Warning ** GetInternalHeatGains: People Combination of ZoneList and Object Name generate a name too long.
   **   ~~~   ** Object Name="SPACE FUNCTION AUDIENCE SEATING AREA PERMANENT - MOTION PICTURE THEATRE PEOPLE".
   **   ~~~   ** ZoneList/Zone Name="SP-AUDIENCE SEATING AREA PERMANENT - MOTION PICTURE THEATRE-SPACE FUNCTION SYS-3 FLR-1 SCH-C HPLCMT-NORTH ZN".
   **   ~~~   ** Item length=[186] > Maximum Length=[100]. You may need to shorten the names.
   **   ~~~   ** Shortening the Object Name by [87] characters will assure uniqueness for this ZoneList.
   **   ~~~   ** name that will be used (may be needed in reporting)="SP-AUDIENCE SEATING AREA PERMANENT - MOTION PICTURE THEATRE-SPACE FUNCTION SYS-3 FLR-1 SCH-C HPLCMT-NORTH ZN SPACE FUNCTION AUDIENCE SEATING AREA PERMANENT - MOTION PICTURE THEATRE PEOPLE".
   ** Warning ** GetInternalHeatGains: People Combination of ZoneList and Object Name generate a name too long.
   **   ~~~   ** Object Name="SPACE FUNCTION AUDIENCE SEATING AREA PERMANENT - OTHER-SCH-A PEOPLE".
   **   ~~~   ** ZoneList/Zone Name="SP-AUDIENCE SEATING AREA PERMANENT - OTHER-SCH-A-SPACE FUNCTION SYS-3 FLR-1 SCH-A HPLCMT-SOUTH ZN".
   **   ~~~   ** Item length=[164] > Maximum Length=[100]. You may need to shorten the names.
   **   ~~~   ** Shortening the Object Name by [65] characters will assure uniqueness for this ZoneList.
   **   ~~~   ** name that will be used (may be needed in reporting)="SP-AUDIENCE SEATING AREA PERMANENT - OTHER-SCH-A-SPACE FUNCTION SYS-3 FLR-1 SCH-A HPLCMT-SOUTH ZN SPACE FUNCTION AUDIENCE SEATING AREA PERMANENT - OTHER-SCH-A PEOPLE".
   ** Warning ** GetInternalHeatGains: People Combination of ZoneList and Object Name generate a name too long.
   **   ~~~   ** Object Name="SPACE FUNCTION AUDIENCE SEATING AREA PERMANENT - OTHER-SCH-B PEOPLE".
   **   ~~~   ** ZoneList/Zone Name="SP-AUDIENCE SEATING AREA PERMANENT - OTHER-SCH-B-SPACE FUNCTION SYS-3 FLR-1 SCH-B HPLCMT-EAST ZN".
   **   ~~~   ** Item length=[163] > Maximum Length=[100]. You may need to shorten the names.
   **   ~~~   ** Shortening the Object Name by [64] characters will assure uniqueness for this ZoneList.
   **   ~~~   ** name that will be used (may be needed in reporting)="SP-AUDIENCE SEATING AREA PERMANENT - OTHER-SCH-B-SPACE FUNCTION SYS-3 FLR-1 SCH-B HPLCMT-EAST ZN SPACE FUNCTION AUDIENCE SEATING AREA PERMANENT - OTHER-SCH-B PEOPLE".
   ** Warning ** GetInternalHeatGains: People Combination of ZoneList and Object Name generate a name too long.
   **   ~~~   ** Object Name="SPACE FUNCTION AUDIENCE SEATING AREA PERMANENT - OTHER-SCH-C PEOPLE".
   **   ~~~   ** ZoneList/Zone Name="SP-AUDIENCE SEATING AREA PERMANENT - OTHER-SCH-C-SPACE FUNCTION SYS-3 FLR-2 SCH-C HPLCMT-WEST ZN".
   **   ~~~   ** Item length=[163] > Maximum Length=[100]. You may need to shorten the names.
   **   ~~~   ** Shortening the Object Name by [64] characters will assure uniqueness for this ZoneList.
   **   ~~~   ** name that will be used (may be needed in reporting)="SP-AUDIENCE SEATING AREA PERMANENT - OTHER-SCH-C-SPACE FUNCTION SYS-3 FLR-2 SCH-C HPLCMT-WEST ZN SPACE FUNCTION AUDIENCE SEATING AREA PERMANENT - OTHER-SCH-C PEOPLE".
   ** Warning ** GetInternalHeatGains: People Combination of ZoneList and Object Name generate a name too long.
   **   ~~~   ** Object Name="SPACE FUNCTION AUDIENCE SEATING AREA PERMANENT - OTHER-SCH-D PEOPLE".
   **   ~~~   ** ZoneList/Zone Name="SP-AUDIENCE SEATING AREA PERMANENT - OTHER-SCH-D-SPACE FUNCTION SYS-3 FLR-3 SCH-D HPLCMT-WEST ZN".
   **   ~~~   ** Item length=[163] > Maximum Length=[100]. You may need to shorten the names.
   **   ~~~   ** Shortening the Object Name by [64] characters will assure uniqueness for this ZoneList.
   **   ~~~   ** name that will be used (may be needed in reporting)="SP-AUDIENCE SEATING AREA PERMANENT - OTHER-SCH-D-SPACE FUNCTION SYS-3 FLR-3 SCH-D HPLCMT-WEST ZN SPACE FUNCTION AUDIENCE SEATING AREA PERMANENT - OTHER-SCH-D PEOPLE".
   ** Warning ** GetInternalHeatGains: People Combination of ZoneList and Object Name generate a name too long.
   **   ~~~   ** Object Name="SPACE FUNCTION AUDIENCE SEATING AREA PERMANENT - OTHER-SCH-E PEOPLE".
   **   ~~~   ** ZoneList/Zone Name="SP-AUDIENCE SEATING AREA PERMANENT - OTHER-SCH-E-SPACE FUNCTION SYS-3 FLR-1 SCH-E HPLCMT-CORE ZN".
   **   ~~~   ** Item length=[163] > Maximum Length=[100]. You may need to shorten the names.
   **   ~~~   ** Shortening the Object Name by [64] characters will assure uniqueness for this ZoneList.
   **   ~~~   ** name that will be used (may be needed in reporting)="SP-AUDIENCE SEATING AREA PERMANENT - OTHER-SCH-E-SPACE FUNCTION SYS-3 FLR-1 SCH-E HPLCMT-CORE ZN SPACE FUNCTION AUDIENCE SEATING AREA PERMANENT - OTHER-SCH-E PEOPLE".
   ** Warning ** GetInternalHeatGains: People Combination of ZoneList and Object Name generate a name too long.
   **   ~~~   ** Object Name="SPACE FUNCTION AUDIENCE SEATING AREA PERMANENT - OTHER-SCH-F PEOPLE".
   **   ~~~   ** ZoneList/Zone Name="SP-AUDIENCE SEATING AREA PERMANENT - OTHER-SCH-F-SPACE FUNCTION SYS-3 FLR-2 SCH-F HPLCMT-NORTH ZN".
   **   ~~~   ** Item length=[164] > Maximum Length=[100]. You may need to shorten the names.
   **   ~~~   ** Shortening the Object Name by [65] characters will assure uniqueness for this ZoneList.
   **   ~~~   ** name that will be used (may be needed in reporting)="SP-AUDIENCE SEATING AREA PERMANENT - OTHER-SCH-F-SPACE FUNCTION SYS-3 FLR-2 SCH-F HPLCMT-NORTH ZN SPACE FUNCTION AUDIENCE SEATING AREA PERMANENT - OTHER-SCH-F PEOPLE".
   ** Warning ** GetInternalHeatGains: People Combination of ZoneList and Object Name generate a name too long.
   **   ~~~   ** Object Name="SPACE FUNCTION AUDIENCE SEATING AREA PERMANENT - OTHER-SCH-G PEOPLE".
   **   ~~~   ** ZoneList/Zone Name="SP-AUDIENCE SEATING AREA PERMANENT - OTHER-SCH-G-SPACE FUNCTION SYS-3 FLR-2 SCH-G HPLCMT-EAST ZN".
   **   ~~~   ** Item length=[163] > Maximum Length=[100]. You may need to shorten the names.
   **   ~~~   ** Shortening the Object Name by [64] characters will assure uniqueness for this ZoneList.
   **   ~~~   ** name that will be used (may be needed in reporting)="SP-AUDIENCE SEATING AREA PERMANENT - OTHER-SCH-G-SPACE FUNCTION SYS-3 FLR-2 SCH-G HPLCMT-EAST ZN SPACE FUNCTION AUDIENCE SEATING AREA PERMANENT - OTHER-SCH-G PEOPLE".
   ** Warning ** GetInternalHeatGains: People Combination of ZoneList and Object Name generate a name too long.
   **   ~~~   ** Object Name="SPACE FUNCTION AUDIENCE SEATING AREA PERMANENT - PENITENTIARY PEOPLE".
   **   ~~~   ** ZoneList/Zone Name="SP-AUDIENCE SEATING AREA PERMANENT - PENITENTIARY-SPACE FUNCTION SYS-3 FLR-4 SCH-C HPLCMT-WEST ZN".
   **   ~~~   ** Item length=[165] > Maximum Length=[100]. You may need to shorten the names.
   **   ~~~   ** Shortening the Object Name by [66] characters will assure uniqueness for this ZoneList.
   **   ~~~   ** name that will be used (may be needed in reporting)="SP-AUDIENCE SEATING AREA PERMANENT - PENITENTIARY-SPACE FUNCTION SYS-3 FLR-4 SCH-C HPLCMT-WEST ZN SPACE FUNCTION AUDIENCE SEATING AREA PERMANENT - PENITENTIARY PEOPLE".
   ** Warning ** GetInternalHeatGains: People Combination of ZoneList and Object Name generate a name too long.
   **   ~~~   ** Object Name="SPACE FUNCTION AUDIENCE SEATING AREA PERMANENT - PERFORMING ARTS THEATRE PEOPLE".
   **   ~~~   ** ZoneList/Zone Name="SP-AUDIENCE SEATING AREA PERMANENT - PERFORMING ARTS THEATRE-SPACE FUNCTION SYS-3 FLR-2 SCH-C HPLCMT-CORE ZN".
   **   ~~~   ** Item length=[187] > Maximum Length=[100]. You may need to shorten the names.
   **   ~~~   ** Shortening the Object Name by [88] characters will assure uniqueness for this ZoneList.
   **   ~~~   ** name that will be used (may be needed in reporting)="SP-AUDIENCE SEATING AREA PERMANENT - PERFORMING ARTS THEATRE-SPACE FUNCTION SYS-3 FLR-2 SCH-C HPLCMT-CORE ZN SPACE FUNCTION AUDIENCE SEATING AREA PERMANENT - PERFORMING ARTS THEATRE PEOPLE".
   ** Warning ** GetInternalHeatGains: People Combination of ZoneList and Object Name generate a name too long.
   **   ~~~   ** Object Name="SPACE FUNCTION AUDIENCE SEATING AREA PERMANENT - RELIGIOUS BUILDING PEOPLE".
   **   ~~~   ** ZoneList/Zone Name="SP-AUDIENCE SEATING AREA PERMANENT - RELIGIOUS BUILDING-SPACE FUNCTION SYS-3 FLR-4 SCH-I HPLCMT-EAST ZN".
   **   ~~~   ** Item length=[177] > Maximum Length=[100]. You may need to shorten the names.
   **   ~~~   ** Shortening the Object Name by [78] characters will assure uniqueness for this ZoneList.
   **   ~~~   ** name that will be used (may be needed in reporting)="SP-AUDIENCE SEATING AREA PERMANENT - RELIGIOUS BUILDING-SPACE FUNCTION SYS-3 FLR-4 SCH-I HPLCMT-EAST ZN SPACE FUNCTION AUDIENCE SEATING AREA PERMANENT - RELIGIOUS BUILDING PEOPLE".
   ** Warning ** GetInternalHeatGains: People Combination of ZoneList and Object Name generate a name too long.
   **   ~~~   ** Object Name="SPACE FUNCTION AUDIENCE SEATING AREA PERMANENT - SPORTS ARENA PEOPLE".
   **   ~~~   ** ZoneList/Zone Name="SP-AUDIENCE SEATING AREA PERMANENT - SPORTS ARENA-SPACE FUNCTION SYS-6 FLR-4 SCH-B HPLCMT-NORTH ZN".
   **   ~~~   ** Item length=[166] > Maximum Length=[100]. You may need to shorten the names.
   **   ~~~   ** Shortening the Object Name by [67] characters will assure uniqueness for this ZoneList.
   **   ~~~   ** name that will be used (may be needed in reporting)="SP-AUDIENCE SEATING AREA PERMANENT - SPORTS ARENA-SPACE FUNCTION SYS-6 FLR-4 SCH-B HPLCMT-NORTH ZN SPACE FUNCTION AUDIENCE SEATING AREA PERMANENT - SPORTS ARENA PEOPLE".
   ** Warning ** GetInternalHeatGains: Lights Combination of ZoneList and Object Name generate a name too long.
   **   ~~~   ** Object Name="SPACE FUNCTION ATRIUM (6 =< HEIGHT <= 12M)-SCH-G LIGHTS".
   **   ~~~   ** ZoneList/Zone Name="SP-ATRIUM (6 =< HEIGHT <= 12M)-SCH-G-SPACE FUNCTION SYS-6 FLR-4 SCH-G HPLCMT-SOUTH ZN".
   **   ~~~   ** Item length=[140] > Maximum Length=[100]. You may need to shorten the names.
   **   ~~~   ** Shortening the Object Name by [41] characters will assure uniqueness for this ZoneList.
   **   ~~~   ** name that will be used (may be needed in reporting)="SP-ATRIUM (6 =< HEIGHT <= 12M)-SCH-G-SPACE FUNCTION SYS-6 FLR-4 SCH-G HPLCMT-SOUTH ZN SPACE FUNCTION ATRIUM (6 =< HEIGHT <= 12M)-SCH-G LIGHTS".
   ** Warning ** GetInternalHeatGains: Lights Combination of ZoneList and Object Name generate a name too long.
   **   ~~~   ** Object Name="SPACE FUNCTION ATRIUM (6 =< HEIGHT <= 12M)-SCH-H LIGHTS".
   **   ~~~   ** ZoneList/Zone Name="SP-ATRIUM (6 =< HEIGHT <= 12M)-SCH-H-SPACE FUNCTION SYS-6 FLR-3 SCH-H HPLCMT-CORE ZN".
   **   ~~~   ** Item length=[139] > Maximum Length=[100]. You may need to shorten the names.
   **   ~~~   ** Shortening the Object Name by [40] characters will assure uniqueness for this ZoneList.
   **   ~~~   ** name that will be used (may be needed in reporting)="SP-ATRIUM (6 =< HEIGHT <= 12M)-SCH-H-SPACE FUNCTION SYS-6 FLR-3 SCH-H HPLCMT-CORE ZN SPACE FUNCTION ATRIUM (6 =< HEIGHT <= 12M)-SCH-H LIGHTS".
   ** Warning ** GetInternalHeatGains: Lights Combination of ZoneList and Object Name generate a name too long.
   **   ~~~   ** Object Name="SPACE FUNCTION ATRIUM (6 =< HEIGHT <= 12M)-SCH-I LIGHTS".
   **   ~~~   ** ZoneList/Zone Name="SP-ATRIUM (6 =< HEIGHT <= 12M)-SCH-I-SPACE FUNCTION SYS-6 FLR-3 SCH-I HPLCMT-EAST ZN".
   **   ~~~   ** Item length=[139] > Maximum Length=[100]. You may need to shorten the names.
   **   ~~~   ** Shortening the Object Name by [40] characters will assure uniqueness for this ZoneList.
   **   ~~~   ** name that will be used (may be needed in reporting)="SP-ATRIUM (6 =< HEIGHT <= 12M)-SCH-I-SPACE FUNCTION SYS-6 FLR-3 SCH-I HPLCMT-EAST ZN SPACE FUNCTION ATRIUM (6 =< HEIGHT <= 12M)-SCH-I LIGHTS".
   ** Warning ** GetInternalHeatGains: Lights Combination of ZoneList and Object Name generate a name too long.
   **   ~~~   ** Object Name="SPACE FUNCTION ATRIUM (6 =< HEIGHT <= 12M)-SCH-J LIGHTS".
   **   ~~~   ** ZoneList/Zone Name="SP-ATRIUM (6 =< HEIGHT <= 12M)-SCH-J-SPACE FUNCTION SYS-6 FLR-3 SCH-J HPLCMT-NORTH ZN".
   **   ~~~   ** Item length=[140] > Maximum Length=[100]. You may need to shorten the names.
   **   ~~~   ** Shortening the Object Name by [41] characters will assure uniqueness for this ZoneList.
   **   ~~~   ** name that will be used (may be needed in reporting)="SP-ATRIUM (6 =< HEIGHT <= 12M)-SCH-J-SPACE FUNCTION SYS-6 FLR-3 SCH-J HPLCMT-NORTH ZN SPACE FUNCTION ATRIUM (6 =< HEIGHT <= 12M)-SCH-J LIGHTS".
   ** Warning ** GetInternalHeatGains: Lights Combination of ZoneList and Object Name generate a name too long.
   **   ~~~   ** Object Name="SPACE FUNCTION ATRIUM (6 =< HEIGHT <= 12M)-SCH-K LIGHTS".
   **   ~~~   ** ZoneList/Zone Name="SP-ATRIUM (6 =< HEIGHT <= 12M)-SCH-K-SPACE FUNCTION SYS-6 FLR-1 SCH-K HPLCMT-WEST ZN".
   **   ~~~   ** Item length=[139] > Maximum Length=[100]. You may need to shorten the names.
   **   ~~~   ** Shortening the Object Name by [40] characters will assure uniqueness for this ZoneList.
   **   ~~~   ** name that will be used (may be needed in reporting)="SP-ATRIUM (6 =< HEIGHT <= 12M)-SCH-K-SPACE FUNCTION SYS-6 FLR-1 SCH-K HPLCMT-WEST ZN SPACE FUNCTION ATRIUM (6 =< HEIGHT <= 12M)-SCH-K LIGHTS".
   ** Warning ** GetInternalHeatGains: Lights Combination of ZoneList and Object Name generate a name too long.
   **   ~~~   ** Object Name="SPACE FUNCTION AUDIENCE SEATING AREA PERMANENT - AUDITORIUM LIGHTS".
   **   ~~~   ** ZoneList/Zone Name="SP-AUDIENCE SEATING AREA PERMANENT - AUDITORIUM-SPACE FUNCTION SYS-3 FLR-4 SCH-C HPLCMT-CORE ZN".
   **   ~~~   ** Item length=[161] > Maximum Length=[100]. You may need to shorten the names.
   **   ~~~   ** Shortening the Object Name by [62] characters will assure uniqueness for this ZoneList.
   **   ~~~   ** name that will be used (may be needed in reporting)="SP-AUDIENCE SEATING AREA PERMANENT - AUDITORIUM-SPACE FUNCTION SYS-3 FLR-4 SCH-C HPLCMT-CORE ZN SPACE FUNCTION AUDIENCE SEATING AREA PERMANENT - AUDITORIUM LIGHTS".
   ** Warning ** GetInternalHeatGains: Lights Combination of ZoneList and Object Name generate a name too long.
   **   ~~~   ** Object Name="SPACE FUNCTION AUDIENCE SEATING AREA PERMANENT - CONVENTION CENTRE LIGHTS".
   **   ~~~   ** ZoneList/Zone Name="SP-AUDIENCE SEATING AREA PERMANENT - CONVENTION CENTRE-SPACE FUNCTION SYS-3 FLR-3 SCH-C HPLCMT-SOUTH ZN".
   **   ~~~   ** Item length=[176] > Maximum Length=[100]. You may need to shorten the names.
   **   ~~~   ** Shortening the Object Name by [77] characters will assure uniqueness for this ZoneList.
   **   ~~~   ** name that will be used (may be needed in reporting)="SP-AUDIENCE SEATING AREA PERMANENT - CONVENTION CENTRE-SPACE FUNCTION SYS-3 FLR-3 SCH-C HPLCMT-SOUTH ZN SPACE FUNCTION AUDIENCE SEATING AREA PERMANENT - CONVENTION CENTRE LIGHTS".
   ** Warning ** GetInternalHeatGains: Lights Combination of ZoneList and Object Name generate a name too long.
   **   ~~~   ** Object Name="SPACE FUNCTION AUDIENCE SEATING AREA PERMANENT - GYMNASIUM LIGHTS".
   **   ~~~   ** ZoneList/Zone Name="SP-AUDIENCE SEATING AREA PERMANENT - GYMNASIUM-SPACE FUNCTION SYS-6 FLR-2 SCH-B HPLCMT-SOUTH ZN".
   **   ~~~   ** Item length=[160] > Maximum Length=[100]. You may need to shorten the names.
   **   ~~~   ** Shortening the Object Name by [61] characters will assure uniqueness for this ZoneList.
   **   ~~~   ** name that will be used (may be needed in reporting)="SP-AUDIENCE SEATING AREA PERMANENT - GYMNASIUM-SPACE FUNCTION SYS-6 FLR-2 SCH-B HPLCMT-SOUTH ZN SPACE FUNCTION AUDIENCE SEATING AREA PERMANENT - GYMNASIUM LIGHTS".
   ** Warning ** GetInternalHeatGains: Lights Combination of ZoneList and Object Name generate a name too long.
   **   ~~~   ** Object Name="SPACE FUNCTION AUDIENCE SEATING AREA PERMANENT - MOTION PICTURE THEATRE LIGHTS".
   **   ~~~   ** ZoneList/Zone Name="SP-AUDIENCE SEATING AREA PERMANENT - MOTION PICTURE THEATRE-SPACE FUNCTION SYS-3 FLR-1 SCH-C HPLCMT-NORTH ZN".
   **   ~~~   ** Item length=[186] > Maximum Length=[100]. You may need to shorten the names.
   **   ~~~   ** Shortening the Object Name by [87] characters will assure uniqueness for this ZoneList.
   **   ~~~   ** name that will be used (may be needed in reporting)="SP-AUDIENCE SEATING AREA PERMANENT - MOTION PICTURE THEATRE-SPACE FUNCTION SYS-3 FLR-1 SCH-C HPLCMT-NORTH ZN SPACE FUNCTION AUDIENCE SEATING AREA PERMANENT - MOTION PICTURE THEATRE LIGHTS".
   ** Warning ** GetInternalHeatGains: Lights Combination of ZoneList and Object Name generate a name too long.
   **   ~~~   ** Object Name="SPACE FUNCTION AUDIENCE SEATING AREA PERMANENT - OTHER-SCH-A LIGHTS".
   **   ~~~   ** ZoneList/Zone Name="SP-AUDIENCE SEATING AREA PERMANENT - OTHER-SCH-A-SPACE FUNCTION SYS-3 FLR-1 SCH-A HPLCMT-SOUTH ZN".
   **   ~~~   ** Item length=[164] > Maximum Length=[100]. You may need to shorten the names.
   **   ~~~   ** Shortening the Object Name by [65] characters will assure uniqueness for this ZoneList.
   **   ~~~   ** name that will be used (may be needed in reporting)="SP-AUDIENCE SEATING AREA PERMANENT - OTHER-SCH-A-SPACE FUNCTION SYS-3 FLR-1 SCH-A HPLCMT-SOUTH ZN SPACE FUNCTION AUDIENCE SEATING AREA PERMANENT - OTHER-SCH-A LIGHTS".
   ** Warning ** GetInternalHeatGains: Lights Combination of ZoneList and Object Name generate a name too long.
   **   ~~~   ** Object Name="SPACE FUNCTION AUDIENCE SEATING AREA PERMANENT - OTHER-SCH-B LIGHTS".
   **   ~~~   ** ZoneList/Zone Name="SP-AUDIENCE SEATING AREA PERMANENT - OTHER-SCH-B-SPACE FUNCTION SYS-3 FLR-1 SCH-B HPLCMT-EAST ZN".
   **   ~~~   ** Item length=[163] > Maximum Length=[100]. You may need to shorten the names.
   **   ~~~   ** Shortening the Object Name by [64] characters will assure uniqueness for this ZoneList.
   **   ~~~   ** name that will be used (may be needed in reporting)="SP-AUDIENCE SEATING AREA PERMANENT - OTHER-SCH-B-SPACE FUNCTION SYS-3 FLR-1 SCH-B HPLCMT-EAST ZN SPACE FUNCTION AUDIENCE SEATING AREA PERMANENT - OTHER-SCH-B LIGHTS".
   ** Warning ** GetInternalHeatGains: Lights Combination of ZoneList and Object Name generate a name too long.
   **   ~~~   ** Object Name="SPACE FUNCTION AUDIENCE SEATING AREA PERMANENT - OTHER-SCH-C LIGHTS".
   **   ~~~   ** ZoneList/Zone Name="SP-AUDIENCE SEATING AREA PERMANENT - OTHER-SCH-C-SPACE FUNCTION SYS-3 FLR-2 SCH-C HPLCMT-WEST ZN".
   **   ~~~   ** Item length=[163] > Maximum Length=[100]. You may need to shorten the names.
   **   ~~~   ** Shortening the Object Name by [64] characters will assure uniqueness for this ZoneList.
   **   ~~~   ** name that will be used (may be needed in reporting)="SP-AUDIENCE SEATING AREA PERMANENT - OTHER-SCH-C-SPACE FUNCTION SYS-3 FLR-2 SCH-C HPLCMT-WEST ZN SPACE FUNCTION AUDIENCE SEATING AREA PERMANENT - OTHER-SCH-C LIGHTS".
   ** Warning ** GetInternalHeatGains: Lights Combination of ZoneList and Object Name generate a name too long.
   **   ~~~   ** Object Name="SPACE FUNCTION AUDIENCE SEATING AREA PERMANENT - OTHER-SCH-D LIGHTS".
   **   ~~~   ** ZoneList/Zone Name="SP-AUDIENCE SEATING AREA PERMANENT - OTHER-SCH-D-SPACE FUNCTION SYS-3 FLR-3 SCH-D HPLCMT-WEST ZN".
   **   ~~~   ** Item length=[163] > Maximum Length=[100]. You may need to shorten the names.
   **   ~~~   ** Shortening the Object Name by [64] characters will assure uniqueness for this ZoneList.
   **   ~~~   ** name that will be used (may be needed in reporting)="SP-AUDIENCE SEATING AREA PERMANENT - OTHER-SCH-D-SPACE FUNCTION SYS-3 FLR-3 SCH-D HPLCMT-WEST ZN SPACE FUNCTION AUDIENCE SEATING AREA PERMANENT - OTHER-SCH-D LIGHTS".
   ** Warning ** GetInternalHeatGains: Lights Combination of ZoneList and Object Name generate a name too long.
   **   ~~~   ** Object Name="SPACE FUNCTION AUDIENCE SEATING AREA PERMANENT - OTHER-SCH-E LIGHTS".
   **   ~~~   ** ZoneList/Zone Name="SP-AUDIENCE SEATING AREA PERMANENT - OTHER-SCH-E-SPACE FUNCTION SYS-3 FLR-1 SCH-E HPLCMT-CORE ZN".
   **   ~~~   ** Item length=[163] > Maximum Length=[100]. You may need to shorten the names.
   **   ~~~   ** Shortening the Object Name by [64] characters will assure uniqueness for this ZoneList.
   **   ~~~   ** name that will be used (may be needed in reporting)="SP-AUDIENCE SEATING AREA PERMANENT - OTHER-SCH-E-SPACE FUNCTION SYS-3 FLR-1 SCH-E HPLCMT-CORE ZN SPACE FUNCTION AUDIENCE SEATING AREA PERMANENT - OTHER-SCH-E LIGHTS".
   ** Warning ** GetInternalHeatGains: Lights Combination of ZoneList and Object Name generate a name too long.
   **   ~~~   ** Object Name="SPACE FUNCTION AUDIENCE SEATING AREA PERMANENT - OTHER-SCH-F LIGHTS".
   **   ~~~   ** ZoneList/Zone Name="SP-AUDIENCE SEATING AREA PERMANENT - OTHER-SCH-F-SPACE FUNCTION SYS-3 FLR-2 SCH-F HPLCMT-NORTH ZN".
   **   ~~~   ** Item length=[164] > Maximum Length=[100]. You may need to shorten the names.
   **   ~~~   ** Shortening the Object Name by [65] characters will assure uniqueness for this ZoneList.
   **   ~~~   ** name that will be used (may be needed in reporting)="SP-AUDIENCE SEATING AREA PERMANENT - OTHER-SCH-F-SPACE FUNCTION SYS-3 FLR-2 SCH-F HPLCMT-NORTH ZN SPACE FUNCTION AUDIENCE SEATING AREA PERMANENT - OTHER-SCH-F LIGHTS".
   ** Warning ** GetInternalHeatGains: Lights Combination of ZoneList and Object Name generate a name too long.
   **   ~~~   ** Object Name="SPACE FUNCTION AUDIENCE SEATING AREA PERMANENT - OTHER-SCH-G LIGHTS".
   **   ~~~   ** ZoneList/Zone Name="SP-AUDIENCE SEATING AREA PERMANENT - OTHER-SCH-G-SPACE FUNCTION SYS-3 FLR-2 SCH-G HPLCMT-EAST ZN".
   **   ~~~   ** Item length=[163] > Maximum Length=[100]. You may need to shorten the names.
   **   ~~~   ** Shortening the Object Name by [64] characters will assure uniqueness for this ZoneList.
   **   ~~~   ** name that will be used (may be needed in reporting)="SP-AUDIENCE SEATING AREA PERMANENT - OTHER-SCH-G-SPACE FUNCTION SYS-3 FLR-2 SCH-G HPLCMT-EAST ZN SPACE FUNCTION AUDIENCE SEATING AREA PERMANENT - OTHER-SCH-G LIGHTS".
   ** Warning ** GetInternalHeatGains: Lights Combination of ZoneList and Object Name generate a name too long.
   **   ~~~   ** Object Name="SPACE FUNCTION AUDIENCE SEATING AREA PERMANENT - PENITENTIARY LIGHTS".
   **   ~~~   ** ZoneList/Zone Name="SP-AUDIENCE SEATING AREA PERMANENT - PENITENTIARY-SPACE FUNCTION SYS-3 FLR-4 SCH-C HPLCMT-WEST ZN".
   **   ~~~   ** Item length=[165] > Maximum Length=[100]. You may need to shorten the names.
   **   ~~~   ** Shortening the Object Name by [66] characters will assure uniqueness for this ZoneList.
   **   ~~~   ** name that will be used (may be needed in reporting)="SP-AUDIENCE SEATING AREA PERMANENT - PENITENTIARY-SPACE FUNCTION SYS-3 FLR-4 SCH-C HPLCMT-WEST ZN SPACE FUNCTION AUDIENCE SEATING AREA PERMANENT - PENITENTIARY LIGHTS".
   ** Warning ** GetInternalHeatGains: Lights Combination of ZoneList and Object Name generate a name too long.
   **   ~~~   ** Object Name="SPACE FUNCTION AUDIENCE SEATING AREA PERMANENT - PERFORMING ARTS THEATRE LIGHTS".
   **   ~~~   ** ZoneList/Zone Name="SP-AUDIENCE SEATING AREA PERMANENT - PERFORMING ARTS THEATRE-SPACE FUNCTION SYS-3 FLR-2 SCH-C HPLCMT-CORE ZN".
   **   ~~~   ** Item length=[187] > Maximum Length=[100]. You may need to shorten the names.
   **   ~~~   ** Shortening the Object Name by [88] characters will assure uniqueness for this ZoneList.
   **   ~~~   ** name that will be used (may be needed in reporting)="SP-AUDIENCE SEATING AREA PERMANENT - PERFORMING ARTS THEATRE-SPACE FUNCTION SYS-3 FLR-2 SCH-C HPLCMT-CORE ZN SPACE FUNCTION AUDIENCE SEATING AREA PERMANENT - PERFORMING ARTS THEATRE LIGHTS".
   ** Warning ** GetInternalHeatGains: Lights Combination of ZoneList and Object Name generate a name too long.
   **   ~~~   ** Object Name="SPACE FUNCTION AUDIENCE SEATING AREA PERMANENT - RELIGIOUS BUILDING LIGHTS".
   **   ~~~   ** ZoneList/Zone Name="SP-AUDIENCE SEATING AREA PERMANENT - RELIGIOUS BUILDING-SPACE FUNCTION SYS-3 FLR-4 SCH-I HPLCMT-EAST ZN".
   **   ~~~   ** Item length=[177] > Maximum Length=[100]. You may need to shorten the names.
   **   ~~~   ** Shortening the Object Name by [78] characters will assure uniqueness for this ZoneList.
   **   ~~~   ** name that will be used (may be needed in reporting)="SP-AUDIENCE SEATING AREA PERMANENT - RELIGIOUS BUILDING-SPACE FUNCTION SYS-3 FLR-4 SCH-I HPLCMT-EAST ZN SPACE FUNCTION AUDIENCE SEATING AREA PERMANENT - RELIGIOUS BUILDING LIGHTS".
   ** Warning ** GetInternalHeatGains: Lights Combination of ZoneList and Object Name generate a name too long.
   **   ~~~   ** Object Name="SPACE FUNCTION AUDIENCE SEATING AREA PERMANENT - SPORTS ARENA LIGHTS".
   **   ~~~   ** ZoneList/Zone Name="SP-AUDIENCE SEATING AREA PERMANENT - SPORTS ARENA-SPACE FUNCTION SYS-6 FLR-4 SCH-B HPLCMT-NORTH ZN".
   **   ~~~   ** Item length=[166] > Maximum Length=[100]. You may need to shorten the names.
   **   ~~~   ** Shortening the Object Name by [67] characters will assure uniqueness for this ZoneList.
   **   ~~~   ** name that will be used (may be needed in reporting)="SP-AUDIENCE SEATING AREA PERMANENT - SPORTS ARENA-SPACE FUNCTION SYS-6 FLR-4 SCH-B HPLCMT-NORTH ZN SPACE FUNCTION AUDIENCE SEATING AREA PERMANENT - SPORTS ARENA LIGHTS".
   ** Warning ** GetInternalHeatGains: ElectricEquipment Combination of ZoneList and Object Name generate a name too long.
   **   ~~~   ** Object Name="SPACE FUNCTION ATRIUM (6 =< HEIGHT <= 12M)-SCH-G ELEC EQUIP".
   **   ~~~   ** ZoneList/Zone Name="SP-ATRIUM (6 =< HEIGHT <= 12M)-SCH-G-SPACE FUNCTION SYS-6 FLR-4 SCH-G HPLCMT-SOUTH ZN".
   **   ~~~   ** Item length=[144] > Maximum Length=[100]. You may need to shorten the names.
   **   ~~~   ** Shortening the Object Name by [45] characters will assure uniqueness for this ZoneList.
   **   ~~~   ** name that will be used (may be needed in reporting)="SP-ATRIUM (6 =< HEIGHT <= 12M)-SCH-G-SPACE FUNCTION SYS-6 FLR-4 SCH-G HPLCMT-SOUTH ZN SPACE FUNCTION ATRIUM (6 =< HEIGHT <= 12M)-SCH-G ELEC EQUIP".
   ** Warning ** GetInternalHeatGains: ElectricEquipment Combination of ZoneList and Object Name generate a name too long.
   **   ~~~   ** Object Name="SPACE FUNCTION ATRIUM (6 =< HEIGHT <= 12M)-SCH-H ELEC EQUIP".
   **   ~~~   ** ZoneList/Zone Name="SP-ATRIUM (6 =< HEIGHT <= 12M)-SCH-H-SPACE FUNCTION SYS-6 FLR-3 SCH-H HPLCMT-CORE ZN".
   **   ~~~   ** Item length=[143] > Maximum Length=[100]. You may need to shorten the names.
   **   ~~~   ** Shortening the Object Name by [44] characters will assure uniqueness for this ZoneList.
   **   ~~~   ** name that will be used (may be needed in reporting)="SP-ATRIUM (6 =< HEIGHT <= 12M)-SCH-H-SPACE FUNCTION SYS-6 FLR-3 SCH-H HPLCMT-CORE ZN SPACE FUNCTION ATRIUM (6 =< HEIGHT <= 12M)-SCH-H ELEC EQUIP".
   ** Warning ** GetInternalHeatGains: ElectricEquipment Combination of ZoneList and Object Name generate a name too long.
   **   ~~~   ** Object Name="SPACE FUNCTION ATRIUM (6 =< HEIGHT <= 12M)-SCH-I ELEC EQUIP".
   **   ~~~   ** ZoneList/Zone Name="SP-ATRIUM (6 =< HEIGHT <= 12M)-SCH-I-SPACE FUNCTION SYS-6 FLR-3 SCH-I HPLCMT-EAST ZN".
   **   ~~~   ** Item length=[143] > Maximum Length=[100]. You may need to shorten the names.
   **   ~~~   ** Shortening the Object Name by [44] characters will assure uniqueness for this ZoneList.
   **   ~~~   ** name that will be used (may be needed in reporting)="SP-ATRIUM (6 =< HEIGHT <= 12M)-SCH-I-SPACE FUNCTION SYS-6 FLR-3 SCH-I HPLCMT-EAST ZN SPACE FUNCTION ATRIUM (6 =< HEIGHT <= 12M)-SCH-I ELEC EQUIP".
   ** Warning ** GetInternalHeatGains: ElectricEquipment Combination of ZoneList and Object Name generate a name too long.
   **   ~~~   ** Object Name="SPACE FUNCTION ATRIUM (6 =< HEIGHT <= 12M)-SCH-J ELEC EQUIP".
   **   ~~~   ** ZoneList/Zone Name="SP-ATRIUM (6 =< HEIGHT <= 12M)-SCH-J-SPACE FUNCTION SYS-6 FLR-3 SCH-J HPLCMT-NORTH ZN".
   **   ~~~   ** Item length=[144] > Maximum Length=[100]. You may need to shorten the names.
   **   ~~~   ** Shortening the Object Name by [45] characters will assure uniqueness for this ZoneList.
   **   ~~~   ** name that will be used (may be needed in reporting)="SP-ATRIUM (6 =< HEIGHT <= 12M)-SCH-J-SPACE FUNCTION SYS-6 FLR-3 SCH-J HPLCMT-NORTH ZN SPACE FUNCTION ATRIUM (6 =< HEIGHT <= 12M)-SCH-J ELEC EQUIP".
   ** Warning ** GetInternalHeatGains: ElectricEquipment Combination of ZoneList and Object Name generate a name too long.
   **   ~~~   ** Object Name="SPACE FUNCTION ATRIUM (6 =< HEIGHT <= 12M)-SCH-K ELEC EQUIP".
   **   ~~~   ** ZoneList/Zone Name="SP-ATRIUM (6 =< HEIGHT <= 12M)-SCH-K-SPACE FUNCTION SYS-6 FLR-1 SCH-K HPLCMT-WEST ZN".
   **   ~~~   ** Item length=[143] > Maximum Length=[100]. You may need to shorten the names.
   **   ~~~   ** Shortening the Object Name by [44] characters will assure uniqueness for this ZoneList.
   **   ~~~   ** name that will be used (may be needed in reporting)="SP-ATRIUM (6 =< HEIGHT <= 12M)-SCH-K-SPACE FUNCTION SYS-6 FLR-1 SCH-K HPLCMT-WEST ZN SPACE FUNCTION ATRIUM (6 =< HEIGHT <= 12M)-SCH-K ELEC EQUIP".
   ** Warning ** GetInternalHeatGains: ElectricEquipment Combination of ZoneList and Object Name generate a name too long.
   **   ~~~   ** Object Name="SPACE FUNCTION AUDIENCE SEATING AREA PERMANENT - AUDITORIUM ELEC EQUIP".
   **   ~~~   ** ZoneList/Zone Name="SP-AUDIENCE SEATING AREA PERMANENT - AUDITORIUM-SPACE FUNCTION SYS-3 FLR-4 SCH-C HPLCMT-CORE ZN".
   **   ~~~   ** Item length=[165] > Maximum Length=[100]. You may need to shorten the names.
   **   ~~~   ** Shortening the Object Name by [66] characters will assure uniqueness for this ZoneList.
   **   ~~~   ** name that will be used (may be needed in reporting)="SP-AUDIENCE SEATING AREA PERMANENT - AUDITORIUM-SPACE FUNCTION SYS-3 FLR-4 SCH-C HPLCMT-CORE ZN SPACE FUNCTION AUDIENCE SEATING AREA PERMANENT - AUDITORIUM ELEC EQUIP".
   ** Warning ** GetInternalHeatGains: ElectricEquipment Combination of ZoneList and Object Name generate a name too long.
   **   ~~~   ** Object Name="SPACE FUNCTION AUDIENCE SEATING AREA PERMANENT - CONVENTION CENTRE ELEC EQUIP".
   **   ~~~   ** ZoneList/Zone Name="SP-AUDIENCE SEATING AREA PERMANENT - CONVENTION CENTRE-SPACE FUNCTION SYS-3 FLR-3 SCH-C HPLCMT-SOUTH ZN".
   **   ~~~   ** Item length=[180] > Maximum Length=[100]. You may need to shorten the names.
   **   ~~~   ** Shortening the Object Name by [81] characters will assure uniqueness for this ZoneList.
   **   ~~~   ** name that will be used (may be needed in reporting)="SP-AUDIENCE SEATING AREA PERMANENT - CONVENTION CENTRE-SPACE FUNCTION SYS-3 FLR-3 SCH-C HPLCMT-SOUTH ZN SPACE FUNCTION AUDIENCE SEATING AREA PERMANENT - CONVENTION CENTRE ELEC EQUIP".
   ** Warning ** GetInternalHeatGains: ElectricEquipment Combination of ZoneList and Object Name generate a name too long.
   **   ~~~   ** Object Name="SPACE FUNCTION AUDIENCE SEATING AREA PERMANENT - MOTION PICTURE THEATRE ELEC EQUIP".
   **   ~~~   ** ZoneList/Zone Name="SP-AUDIENCE SEATING AREA PERMANENT - MOTION PICTURE THEATRE-SPACE FUNCTION SYS-3 FLR-1 SCH-C HPLCMT-NORTH ZN".
   **   ~~~   ** Item length=[190] > Maximum Length=[100]. You may need to shorten the names.
   **   ~~~   ** Shortening the Object Name by [91] characters will assure uniqueness for this ZoneList.
   **   ~~~   ** name that will be used (may be needed in reporting)="SP-AUDIENCE SEATING AREA PERMANENT - MOTION PICTURE THEATRE-SPACE FUNCTION SYS-3 FLR-1 SCH-C HPLCMT-NORTH ZN SPACE FUNCTION AUDIENCE SEATING AREA PERMANENT - MOTION PICTURE THEATRE ELEC EQUIP".
   ** Warning ** GetInternalHeatGains: ElectricEquipment Combination of ZoneList and Object Name generate a name too long.
   **   ~~~   ** Object Name="SPACE FUNCTION AUDIENCE SEATING AREA PERMANENT - OTHER-SCH-A ELEC EQUIP".
   **   ~~~   ** ZoneList/Zone Name="SP-AUDIENCE SEATING AREA PERMANENT - OTHER-SCH-A-SPACE FUNCTION SYS-3 FLR-1 SCH-A HPLCMT-SOUTH ZN".
   **   ~~~   ** Item length=[168] > Maximum Length=[100]. You may need to shorten the names.
   **   ~~~   ** Shortening the Object Name by [69] characters will assure uniqueness for this ZoneList.
   **   ~~~   ** name that will be used (may be needed in reporting)="SP-AUDIENCE SEATING AREA PERMANENT - OTHER-SCH-A-SPACE FUNCTION SYS-3 FLR-1 SCH-A HPLCMT-SOUTH ZN SPACE FUNCTION AUDIENCE SEATING AREA PERMANENT - OTHER-SCH-A ELEC EQUIP".
   ** Warning ** GetInternalHeatGains: ElectricEquipment Combination of ZoneList and Object Name generate a name too long.
   **   ~~~   ** Object Name="SPACE FUNCTION AUDIENCE SEATING AREA PERMANENT - OTHER-SCH-B ELEC EQUIP".
   **   ~~~   ** ZoneList/Zone Name="SP-AUDIENCE SEATING AREA PERMANENT - OTHER-SCH-B-SPACE FUNCTION SYS-3 FLR-1 SCH-B HPLCMT-EAST ZN".
   **   ~~~   ** Item length=[167] > Maximum Length=[100]. You may need to shorten the names.
   **   ~~~   ** Shortening the Object Name by [68] characters will assure uniqueness for this ZoneList.
   **   ~~~   ** name that will be used (may be needed in reporting)="SP-AUDIENCE SEATING AREA PERMANENT - OTHER-SCH-B-SPACE FUNCTION SYS-3 FLR-1 SCH-B HPLCMT-EAST ZN SPACE FUNCTION AUDIENCE SEATING AREA PERMANENT - OTHER-SCH-B ELEC EQUIP".
   ** Warning ** GetInternalHeatGains: ElectricEquipment Combination of ZoneList and Object Name generate a name too long.
   **   ~~~   ** Object Name="SPACE FUNCTION AUDIENCE SEATING AREA PERMANENT - OTHER-SCH-C ELEC EQUIP".
   **   ~~~   ** ZoneList/Zone Name="SP-AUDIENCE SEATING AREA PERMANENT - OTHER-SCH-C-SPACE FUNCTION SYS-3 FLR-2 SCH-C HPLCMT-WEST ZN".
   **   ~~~   ** Item length=[167] > Maximum Length=[100]. You may need to shorten the names.
   **   ~~~   ** Shortening the Object Name by [68] characters will assure uniqueness for this ZoneList.
   **   ~~~   ** name that will be used (may be needed in reporting)="SP-AUDIENCE SEATING AREA PERMANENT - OTHER-SCH-C-SPACE FUNCTION SYS-3 FLR-2 SCH-C HPLCMT-WEST ZN SPACE FUNCTION AUDIENCE SEATING AREA PERMANENT - OTHER-SCH-C ELEC EQUIP".
   ** Warning ** GetInternalHeatGains: ElectricEquipment Combination of ZoneList and Object Name generate a name too long.
   **   ~~~   ** Object Name="SPACE FUNCTION AUDIENCE SEATING AREA PERMANENT - OTHER-SCH-D ELEC EQUIP".
   **   ~~~   ** ZoneList/Zone Name="SP-AUDIENCE SEATING AREA PERMANENT - OTHER-SCH-D-SPACE FUNCTION SYS-3 FLR-3 SCH-D HPLCMT-WEST ZN".
   **   ~~~   ** Item length=[167] > Maximum Length=[100]. You may need to shorten the names.
   **   ~~~   ** Shortening the Object Name by [68] characters will assure uniqueness for this ZoneList.
   **   ~~~   ** name that will be used (may be needed in reporting)="SP-AUDIENCE SEATING AREA PERMANENT - OTHER-SCH-D-SPACE FUNCTION SYS-3 FLR-3 SCH-D HPLCMT-WEST ZN SPACE FUNCTION AUDIENCE SEATING AREA PERMANENT - OTHER-SCH-D ELEC EQUIP".
   ** Warning ** GetInternalHeatGains: ElectricEquipment Combination of ZoneList and Object Name generate a name too long.
   **   ~~~   ** Object Name="SPACE FUNCTION AUDIENCE SEATING AREA PERMANENT - OTHER-SCH-E ELEC EQUIP".
   **   ~~~   ** ZoneList/Zone Name="SP-AUDIENCE SEATING AREA PERMANENT - OTHER-SCH-E-SPACE FUNCTION SYS-3 FLR-1 SCH-E HPLCMT-CORE ZN".
   **   ~~~   ** Item length=[167] > Maximum Length=[100]. You may need to shorten the names.
   **   ~~~   ** Shortening the Object Name by [68] characters will assure uniqueness for this ZoneList.
   **   ~~~   ** name that will be used (may be needed in reporting)="SP-AUDIENCE SEATING AREA PERMANENT - OTHER-SCH-E-SPACE FUNCTION SYS-3 FLR-1 SCH-E HPLCMT-CORE ZN SPACE FUNCTION AUDIENCE SEATING AREA PERMANENT - OTHER-SCH-E ELEC EQUIP".
   ** Warning ** GetInternalHeatGains: ElectricEquipment Combination of ZoneList and Object Name generate a name too long.
   **   ~~~   ** Object Name="SPACE FUNCTION AUDIENCE SEATING AREA PERMANENT - OTHER-SCH-F ELEC EQUIP".
   **   ~~~   ** ZoneList/Zone Name="SP-AUDIENCE SEATING AREA PERMANENT - OTHER-SCH-F-SPACE FUNCTION SYS-3 FLR-2 SCH-F HPLCMT-NORTH ZN".
   **   ~~~   ** Item length=[168] > Maximum Length=[100]. You may need to shorten the names.
   **   ~~~   ** Shortening the Object Name by [69] characters will assure uniqueness for this ZoneList.
   **   ~~~   ** name that will be used (may be needed in reporting)="SP-AUDIENCE SEATING AREA PERMANENT - OTHER-SCH-F-SPACE FUNCTION SYS-3 FLR-2 SCH-F HPLCMT-NORTH ZN SPACE FUNCTION AUDIENCE SEATING AREA PERMANENT - OTHER-SCH-F ELEC EQUIP".
   ** Warning ** GetInternalHeatGains: ElectricEquipment Combination of ZoneList and Object Name generate a name too long.
   **   ~~~   ** Object Name="SPACE FUNCTION AUDIENCE SEATING AREA PERMANENT - OTHER-SCH-G ELEC EQUIP".
   **   ~~~   ** ZoneList/Zone Name="SP-AUDIENCE SEATING AREA PERMANENT - OTHER-SCH-G-SPACE FUNCTION SYS-3 FLR-2 SCH-G HPLCMT-EAST ZN".
   **   ~~~   ** Item length=[167] > Maximum Length=[100]. You may need to shorten the names.
   **   ~~~   ** Shortening the Object Name by [68] characters will assure uniqueness for this ZoneList.
   **   ~~~   ** name that will be used (may be needed in reporting)="SP-AUDIENCE SEATING AREA PERMANENT - OTHER-SCH-G-SPACE FUNCTION SYS-3 FLR-2 SCH-G HPLCMT-EAST ZN SPACE FUNCTION AUDIENCE SEATING AREA PERMANENT - OTHER-SCH-G ELEC EQUIP".
   ** Warning ** GetInternalHeatGains: ElectricEquipment Combination of ZoneList and Object Name generate a name too long.
   **   ~~~   ** Object Name="SPACE FUNCTION AUDIENCE SEATING AREA PERMANENT - PENITENTIARY ELEC EQUIP".
   **   ~~~   ** ZoneList/Zone Name="SP-AUDIENCE SEATING AREA PERMANENT - PENITENTIARY-SPACE FUNCTION SYS-3 FLR-4 SCH-C HPLCMT-WEST ZN".
   **   ~~~   ** Item length=[169] > Maximum Length=[100]. You may need to shorten the names.
   **   ~~~   ** Shortening the Object Name by [70] characters will assure uniqueness for this ZoneList.
   **   ~~~   ** name that will be used (may be needed in reporting)="SP-AUDIENCE SEATING AREA PERMANENT - PENITENTIARY-SPACE FUNCTION SYS-3 FLR-4 SCH-C HPLCMT-WEST ZN SPACE FUNCTION AUDIENCE SEATING AREA PERMANENT - PENITENTIARY ELEC EQUIP".
   ** Warning ** GetInternalHeatGains: ElectricEquipment Combination of ZoneList and Object Name generate a name too long.
   **   ~~~   ** Object Name="SPACE FUNCTION AUDIENCE SEATING AREA PERMANENT - PERFORMING ARTS THEATRE ELEC EQUIP".
   **   ~~~   ** ZoneList/Zone Name="SP-AUDIENCE SEATING AREA PERMANENT - PERFORMING ARTS THEATRE-SPACE FUNCTION SYS-3 FLR-2 SCH-C HPLCMT-CORE ZN".
   **   ~~~   ** Item length=[191] > Maximum Length=[100]. You may need to shorten the names.
   **   ~~~   ** Shortening the Object Name by [92] characters will assure uniqueness for this ZoneList.
   **   ~~~   ** name that will be used (may be needed in reporting)="SP-AUDIENCE SEATING AREA PERMANENT - PERFORMING ARTS THEATRE-SPACE FUNCTION SYS-3 FLR-2 SCH-C HPLCMT-CORE ZN SPACE FUNCTION AUDIENCE SEATING AREA PERMANENT - PERFORMING ARTS THEATRE ELEC EQUIP".
   ** Warning ** GetInternalHeatGains: ElectricEquipment Combination of ZoneList and Object Name generate a name too long.
   **   ~~~   ** Object Name="SPACE FUNCTION AUDIENCE SEATING AREA PERMANENT - RELIGIOUS BUILDING ELEC EQUIP".
   **   ~~~   ** ZoneList/Zone Name="SP-AUDIENCE SEATING AREA PERMANENT - RELIGIOUS BUILDING-SPACE FUNCTION SYS-3 FLR-4 SCH-I HPLCMT-EAST ZN".
   **   ~~~   ** Item length=[181] > Maximum Length=[100]. You may need to shorten the names.
   **   ~~~   ** Shortening the Object Name by [82] characters will assure uniqueness for this ZoneList.
   **   ~~~   ** name that will be used (may be needed in reporting)="SP-AUDIENCE SEATING AREA PERMANENT - RELIGIOUS BUILDING-SPACE FUNCTION SYS-3 FLR-4 SCH-I HPLCMT-EAST ZN SPACE FUNCTION AUDIENCE SEATING AREA PERMANENT - RELIGIOUS BUILDING ELEC EQUIP".
   ** Warning ** Calculated design heating load for zone=SP-ATRIUM (6 =< HEIGHT <= 12M)-SCH-H-SPACE FUNCTION SYS-6 FLR-3 SCH-H HPLCMT-CORE ZN is zero.
   **   ~~~   ** Check Sizing:Zone and ZoneControl:Thermostat inputs.
   ** Warning ** Calculated design cooling load for zone=SP-ATRIUM (6 =< HEIGHT <= 12M)-SCH-K-SPACE FUNCTION SYS-6 FLR-1 SCH-K HPLCMT-WEST ZN is zero.
   **   ~~~   ** Check Sizing:Zone and ZoneControl:Thermostat inputs.
   ** Warning ** Calculated design heating load for zone=SP-ATRIUM (6 =< HEIGHT <= 12M)-SCH-K-SPACE FUNCTION SYS-6 FLR-1 SCH-K HPLCMT-WEST ZN is zero.
   **   ~~~   ** Check Sizing:Zone and ZoneControl:Thermostat inputs.
   ** Warning ** Calculated design heating load for zone=SP-AUDIENCE SEATING AREA PERMANENT - MOTION PICTURE THEATRE-SPACE FUNCTION SYS-3 FLR-1 SCH-C HPLCMT-NORTH ZN is zero.
   **   ~~~   ** Check Sizing:Zone and ZoneControl:Thermostat inputs.
   ** Warning ** Calculated design heating load for zone=SP-AUDIENCE SEATING AREA PERMANENT - OTHER-SCH-A-SPACE FUNCTION SYS-3 FLR-1 SCH-A HPLCMT-SOUTH ZN is zero.
   **   ~~~   ** Check Sizing:Zone and ZoneControl:Thermostat inputs.
   ** Warning ** Calculated design heating load for zone=SP-AUDIENCE SEATING AREA PERMANENT - OTHER-SCH-B-SPACE FUNCTION SYS-3 FLR-1 SCH-B HPLCMT-EAST ZN is zero.
   **   ~~~   ** Check Sizing:Zone and ZoneControl:Thermostat inputs.
   ** Warning ** Calculated design heating load for zone=SP-AUDIENCE SEATING AREA PERMANENT - OTHER-SCH-E-SPACE FUNCTION SYS-3 FLR-1 SCH-E HPLCMT-CORE ZN is zero.
   **   ~~~   ** Check Sizing:Zone and ZoneControl:Thermostat inputs.
   ** Warning ** Calculated design heating load for zone=SP-AUDIENCE SEATING AREA PERMANENT - PERFORMING ARTS THEATRE-SPACE FUNCTION SYS-3 FLR-2 SCH-C HPLCMT-CORE ZN is zero.
   **   ~~~   ** Check Sizing:Zone and ZoneControl:Thermostat inputs.
   ************* Beginning System Sizing Calculations
   ** Warning ** Since Zone Minimum Air Flow Input Method = CONSTANT, input for Fixed Minimum Air Flow Rate will be ignored.
   **   ~~~   ** Occurs in AirTerminal:SingleDuct:VAV:Reheat = AIR TERMINAL SINGLE DUCT VAV REHEAT 6
   ** Warning ** Since Damper Heating Action = NORMAL, input for Maximum Flow Fraction During Reheat will be ignored.
   **   ~~~   ** Occurs in AirTerminal:SingleDuct:VAV:Reheat = AIR TERMINAL SINGLE DUCT VAV REHEAT 6
   ** Warning ** Since Zone Minimum Air Flow Input Method = CONSTANT, input for Fixed Minimum Air Flow Rate will be ignored.
   **   ~~~   ** Occurs in AirTerminal:SingleDuct:VAV:Reheat = AIR TERMINAL SINGLE DUCT VAV REHEAT 3
   ** Warning ** Since Damper Heating Action = NORMAL, input for Maximum Flow Fraction During Reheat will be ignored.
   **   ~~~   ** Occurs in AirTerminal:SingleDuct:VAV:Reheat = AIR TERMINAL SINGLE DUCT VAV REHEAT 3
   ** Warning ** Since Zone Minimum Air Flow Input Method = CONSTANT, input for Fixed Minimum Air Flow Rate will be ignored.
   **   ~~~   ** Occurs in AirTerminal:SingleDuct:VAV:Reheat = AIR TERMINAL SINGLE DUCT VAV REHEAT 4
   ** Warning ** Since Damper Heating Action = NORMAL, input for Maximum Flow Fraction During Reheat will be ignored.
   **   ~~~   ** Occurs in AirTerminal:SingleDuct:VAV:Reheat = AIR TERMINAL SINGLE DUCT VAV REHEAT 4
   ** Warning ** Since Zone Minimum Air Flow Input Method = CONSTANT, input for Fixed Minimum Air Flow Rate will be ignored.
   **   ~~~   ** Occurs in AirTerminal:SingleDuct:VAV:Reheat = AIR TERMINAL SINGLE DUCT VAV REHEAT 5
   ** Warning ** Since Damper Heating Action = NORMAL, input for Maximum Flow Fraction During Reheat will be ignored.
   **   ~~~   ** Occurs in AirTerminal:SingleDuct:VAV:Reheat = AIR TERMINAL SINGLE DUCT VAV REHEAT 5
   ** Warning ** Since Zone Minimum Air Flow Input Method = CONSTANT, input for Fixed Minimum Air Flow Rate will be ignored.
   **   ~~~   ** Occurs in AirTerminal:SingleDuct:VAV:Reheat = AIR TERMINAL SINGLE DUCT VAV REHEAT 1
   ** Warning ** Since Zone Minimum Air Flow Input Method = CONSTANT, input for Fixed Minimum Air Flow Rate will be ignored.
   **   ~~~   ** Occurs in AirTerminal:SingleDuct:VAV:Reheat = AIR TERMINAL SINGLE DUCT VAV REHEAT 2
   ** Warning ** Since Zone Minimum Air Flow Input Method = CONSTANT, input for Fixed Minimum Air Flow Rate will be ignored.
   **   ~~~   ** Occurs in AirTerminal:SingleDuct:VAV:Reheat = AIR TERMINAL SINGLE DUCT VAV REHEAT 7
   ** Warning ** Since Damper Heating Action = NORMAL, input for Maximum Flow Fraction During Reheat will be ignored.
   **   ~~~   ** Occurs in AirTerminal:SingleDuct:VAV:Reheat = AIR TERMINAL SINGLE DUCT VAV REHEAT 7
   ************* Beginning Plant Sizing Calculations
   ** Warning ** GetDXCoils: Coil:Cooling:DX:SingleSpeed="COIL COOLING DX SINGLE SPEED 13 654KBTU/HR 8.21EER", invalid
   **   ~~~   ** ...Part Load Fraction Correlation Curve Name = DXCOOL-NECB2011-REF-COOLPLFFPLR has out of range value.
   **   ~~~   ** ...Curve maximum must be <= 1.0, curve max at PLR = 0.99 is 1.015
   **   ~~~   ** ...Setting curve maximum to 1.0 and simulation continues.
   ** Warning ** The Standard Ratings is calculated for Coil:Cooling:DX:SingleSpeed = COIL COOLING DX SINGLE SPEED 13 654KBTU/HR 8.21EER but not at the AHRI test condition due to curve out of bound.
   **   ~~~   **  Review the Standard Ratings calculations in the Engineering Reference for this coil type. Also, use Output:Diagnostics, DisplayExtraWarnings for further guidance.
   ** Warning ** The Standard Ratings is calculated for Coil:Cooling:DX:SingleSpeed = COIL COOLING DX SINGLE SPEED 9 496KBTU/HR 8.21EER but not at the AHRI test condition due to curve out of bound.
   **   ~~~   **  Review the Standard Ratings calculations in the Engineering Reference for this coil type. Also, use Output:Diagnostics, DisplayExtraWarnings for further guidance.
   ** Warning ** The Standard Ratings is calculated for Coil:Cooling:DX:SingleSpeed = COIL COOLING DX SINGLE SPEED 1 448KBTU/HR 8.21EER but not at the AHRI test condition due to curve out of bound.
   **   ~~~   **  Review the Standard Ratings calculations in the Engineering Reference for this coil type. Also, use Output:Diagnostics, DisplayExtraWarnings for further guidance.
   ** Warning ** The Standard Ratings is calculated for Coil:Cooling:DX:SingleSpeed = COIL COOLING DX SINGLE SPEED 3 414KBTU/HR 8.21EER but not at the AHRI test condition due to curve out of bound.
   **   ~~~   **  Review the Standard Ratings calculations in the Engineering Reference for this coil type. Also, use Output:Diagnostics, DisplayExtraWarnings for further guidance.
   ** Warning ** The Standard Ratings is calculated for Coil:Cooling:DX:SingleSpeed = COIL COOLING DX SINGLE SPEED 2 443KBTU/HR 8.21EER but not at the AHRI test condition due to curve out of bound.
   **   ~~~   **  Review the Standard Ratings calculations in the Engineering Reference for this coil type. Also, use Output:Diagnostics, DisplayExtraWarnings for further guidance.
   ** Warning ** The Standard Ratings is calculated for Coil:Cooling:DX:SingleSpeed = COIL COOLING DX SINGLE SPEED 6 409KBTU/HR 8.21EER but not at the AHRI test condition due to curve out of bound.
   **   ~~~   **  Review the Standard Ratings calculations in the Engineering Reference for this coil type. Also, use Output:Diagnostics, DisplayExtraWarnings for further guidance.
   ** Warning ** The Standard Ratings is calculated for Coil:Cooling:DX:SingleSpeed = COIL COOLING DX SINGLE SPEED 10 440KBTU/HR 8.21EER but not at the AHRI test condition due to curve out of bound.
   **   ~~~   **  Review the Standard Ratings calculations in the Engineering Reference for this coil type. Also, use Output:Diagnostics, DisplayExtraWarnings for further guidance.
   ** Warning ** The Standard Ratings is calculated for Coil:Cooling:DX:SingleSpeed = COIL COOLING DX SINGLE SPEED 4 587KBTU/HR 8.21EER but not at the AHRI test condition due to curve out of bound.
   **   ~~~   **  Review the Standard Ratings calculations in the Engineering Reference for this coil type. Also, use Output:Diagnostics, DisplayExtraWarnings for further guidance.
   ** Warning ** The Standard Ratings is calculated for Coil:Cooling:DX:SingleSpeed = COIL COOLING DX SINGLE SPEED 8 404KBTU/HR 8.21EER but not at the AHRI test condition due to curve out of bound.
   **   ~~~   **  Review the Standard Ratings calculations in the Engineering Reference for this coil type. Also, use Output:Diagnostics, DisplayExtraWarnings for further guidance.
   ** Warning ** The Standard Ratings is calculated for Coil:Cooling:DX:SingleSpeed = COIL COOLING DX SINGLE SPEED 5 404KBTU/HR 8.21EER but not at the AHRI test condition due to curve out of bound.
   **   ~~~   **  Review the Standard Ratings calculations in the Engineering Reference for this coil type. Also, use Output:Diagnostics, DisplayExtraWarnings for further guidance.
   ** Warning ** The Standard Ratings is calculated for Coil:Cooling:DX:SingleSpeed = COIL COOLING DX SINGLE SPEED 12 392KBTU/HR 8.21EER but not at the AHRI test condition due to curve out of bound.
   **   ~~~   **  Review the Standard Ratings calculations in the Engineering Reference for this coil type. Also, use Output:Diagnostics, DisplayExtraWarnings for further guidance.
   ** Warning ** The Standard Ratings is calculated for Coil:Cooling:DX:SingleSpeed = COIL COOLING DX SINGLE SPEED 7 597KBTU/HR 8.21EER but not at the AHRI test condition due to curve out of bound.
   **   ~~~   **  Review the Standard Ratings calculations in the Engineering Reference for this coil type. Also, use Output:Diagnostics, DisplayExtraWarnings for further guidance.
   ** Warning ** The Standard Ratings is calculated for Coil:Cooling:DX:SingleSpeed = COIL COOLING DX SINGLE SPEED 11 481KBTU/HR 8.21EER but not at the AHRI test condition due to curve out of bound.
   **   ~~~   **  Review the Standard Ratings calculations in the Engineering Reference for this coil type. Also, use Output:Diagnostics, DisplayExtraWarnings for further guidance.
   ** Warning ** Missing temperature setpoint for LeavingSetpointModulated mode chiller named PRIMARY CHILLER WATERCOOLED SCROLL 200TONS 0.7KW/TON
   **   ~~~   **   A temperature setpoint is needed at the outlet node of a chiller in variable flow mode, use a SetpointManager
   **   ~~~   **   The overall loop setpoint will be assumed for chiller. The simulation continues ... 
   ** Warning ** Missing temperature setpoint for LeavingSetpointModulated mode chiller named SECONDARY CHILLER WATERCOOLED SCROLL 0TONS 0.8KW/TON
   **   ~~~   **   A temperature setpoint is needed at the outlet node of a chiller in variable flow mode, use a SetpointManager
   **   ~~~   **   The overall loop setpoint will be assumed for chiller. The simulation continues ... 
   ** Warning ** Error when autosizing the load for cooling tower = COOLING TOWER SINGLE SPEED 1. Tower Design Range Temperature is different from the Design Loop Delta Temperature.
   **   ~~~   ** Tower Design Range Temperature specified in tower = COOLING TOWER SINGLE SPEED 1
   **   ~~~   ** is inconsistent with Design Loop Delta Temperature specified in Sizing:Plant object = CONDENSER WATER LOOP.
   **   ~~~   ** ..The Design Range Temperature specified in tower is = 5.00
   **   ~~~   ** ..The Design Loop Delta Temperature specified in plant sizing data is = 6.00
   ** Warning ** Error when autosizing the load for cooling tower = COOLING TOWER SINGLE SPEED 1. Tower Design Range Temperature is different from the Design Loop Delta Temperature.
   **   ~~~   ** Tower Design Range Temperature specified in tower = COOLING TOWER SINGLE SPEED 1
   **   ~~~   ** is inconsistent with Design Loop Delta Temperature specified in Sizing:Plant object = CONDENSER WATER LOOP.
   **   ~~~   ** ..The Design Range Temperature specified in tower is = 5.00
   **   ~~~   ** ..The Design Loop Delta Temperature specified in plant sizing data is = 6.00
   ** Warning ** Error when autosizing the load for cooling tower = COOLING TOWER SINGLE SPEED 1. Tower Design Range Temperature is different from the Design Loop Delta Temperature.
   **   ~~~   ** Tower Design Range Temperature specified in tower = COOLING TOWER SINGLE SPEED 1
   **   ~~~   ** is inconsistent with Design Loop Delta Temperature specified in Sizing:Plant object = CONDENSER WATER LOOP.
   **   ~~~   ** ..The Design Range Temperature specified in tower is = 5.00
   **   ~~~   ** ..The Design Loop Delta Temperature specified in plant sizing data is = 6.00
   ** Warning ** Error when autosizing the load for cooling tower = COOLING TOWER SINGLE SPEED 1. Tower Design Range Temperature is different from the Design Loop Delta Temperature.
   **   ~~~   ** Tower Design Range Temperature specified in tower = COOLING TOWER SINGLE SPEED 1
   **   ~~~   ** is inconsistent with Design Loop Delta Temperature specified in Sizing:Plant object = CONDENSER WATER LOOP.
   **   ~~~   ** ..The Design Range Temperature specified in tower is = 5.00
   **   ~~~   ** ..The Design Loop Delta Temperature specified in plant sizing data is = 6.00
   ** Warning ** Error when autosizing the load for cooling tower = COOLING TOWER SINGLE SPEED 1. Tower Design Range Temperature is different from the Design Loop Delta Temperature.
   **   ~~~   ** Tower Design Range Temperature specified in tower = COOLING TOWER SINGLE SPEED 1
   **   ~~~   ** is inconsistent with Design Loop Delta Temperature specified in Sizing:Plant object = CONDENSER WATER LOOP.
   **   ~~~   ** ..The Design Range Temperature specified in tower is = 5.00
   **   ~~~   ** ..The Design Loop Delta Temperature specified in plant sizing data is = 6.00
   ** Warning ** Error when autosizing the load for cooling tower = COOLING TOWER SINGLE SPEED 1. Tower Design Range Temperature is different from the Design Loop Delta Temperature.
   **   ~~~   ** Tower Design Range Temperature specified in tower = COOLING TOWER SINGLE SPEED 1
   **   ~~~   ** is inconsistent with Design Loop Delta Temperature specified in Sizing:Plant object = CONDENSER WATER LOOP.
   **   ~~~   ** ..The Design Range Temperature specified in tower is = 5.00
   **   ~~~   ** ..The Design Loop Delta Temperature specified in plant sizing data is = 6.00
   ** Warning ** Missing temperature setpoint for LeavingSetpointModulated mode Boiler named PRIMARY BOILER 4438KBTU/HR 0.833 COMBUSTION EFF
   **   ~~~   **   A temperature setpoint is needed at the outlet node of a boiler in variable flow mode, use a SetpointManager
   **   ~~~   **   The overall loop setpoint will be assumed for Boiler. The simulation continues ... 
   ** Warning ** Output:Meter: invalid Key Name="DISTRICTCOOLING:FACILITY" - not found.
   ** Warning ** Output:Meter: invalid Key Name="DISTRICTHEATING:FACILITY" - not found.
   ** Warning ** Output:Meter:MeterFileOnly requested for "Electricity:Facility" (TimeStep), already on "Output:Meter". Will report to both eplusout.eso and eplusout.mtr
   ************* Testing Individual Branch Integrity
   ************* All Branches passed integrity testing
   ************* Testing Individual Supply Air Path Integrity
   ************* All Supply Air Paths passed integrity testing
   ************* Testing Individual Return Air Path Integrity
   ************* All Return Air Paths passed integrity testing
   ************* No node connection errors were found.
   ************* Beginning Simulation
   ** Warning ** Processing Monthly Tabular Reports: Variable names not valid for this simulation
[...]
   **   ~~~   **    3) is used as part of a HX assisted cooling coil which uses a high sensible effectiveness. Check inputs.
   ** Warning ** CalcDoe2DXCoil: Coil:Cooling:DX:SingleSpeed "COIL COOLING DX SINGLE SPEED 11 481KBTU/HR 8.21EER" - Air-cooled condenser inlet dry-bulb temperature below 0 C. Outdoor dry-bulb temperature = -2.05
   **   ~~~   **  ... Occurrence info = RUN PERIOD 1, 09/24 08:02 - 08:03
   **   ~~~   ** ... Operation at low ambient temperatures may require special performance curves.
   ** Warning ** SimHVAC: Maximum iterations (20) exceeded for all HVAC loops, at RUN PERIOD 1, 10/14 08:00 - 08:02
   **   ~~~   ** The solution for one or more of the Air Loop HVAC systems did not appear to converge
   ** Warning ** SimHVAC: Maximum iterations (20) exceeded for all HVAC loops, at RUN PERIOD 1, 10/15 09:00 - 09:02
   **   ~~~   ** The solution for one or more of the Air Loop HVAC systems did not appear to converge
   ** Warning ** SimHVAC: Maximum iterations (20) exceeded for all HVAC loops, at RUN PERIOD 1, 10/16 00:04 - 00:05
   **   ~~~   ** The solution for one or more of the Air Loop HVAC systems did not appear to converge
   ** Warning ** SimHVAC: Maximum iterations (20) exceeded for all HVAC loops, at RUN PERIOD 1, 10/22 01:06 - 01:07
   **   ~~~   ** The solution for one or more of the Air Loop HVAC systems did not appear to converge
   ** Warning ** SimHVAC: Maximum iterations (20) exceeded for all HVAC loops, at RUN PERIOD 1, 10/27 09:02 - 09:03
   **   ~~~   ** The solution for one or more of the Air Loop HVAC systems did not appear to converge
   ** Warning ** SimHVAC: Maximum iterations (20) exceeded for all HVAC loops, at RUN PERIOD 1, 10/30 00:09 - 00:10
   **   ~~~   ** The solution for one or more of the Air Loop HVAC systems did not appear to converge
   ** Warning ** SimHVAC: Maximum iterations (20) exceeded for all HVAC loops, at RUN PERIOD 1, 11/18 09:00 - 09:02
   **   ~~~   ** The solution for one or more of the Air Loop HVAC systems did not appear to converge
   ** Warning ** The resource referenced by LifeCycleCost:UsePriceEscalation= "U.S. AVG  COMMERCIAL-ELECTRICITY" has no energy cost. 
   **   ~~~   ** ... It is likely that the wrong resource is used. The resource should match the meter used in Utility:Tariff.
   ** Warning ** The resource referenced by LifeCycleCost:UsePriceEscalation= "U.S. AVG  COMMERCIAL-DISTILLATE OIL" has no energy cost. 
   **   ~~~   ** ... It is likely that the wrong resource is used. The resource should match the meter used in Utility:Tariff.
   ** Warning ** The resource referenced by LifeCycleCost:UsePriceEscalation= "U.S. AVG  COMMERCIAL-RESIDUAL OIL" has no energy cost. 
   **   ~~~   ** ... It is likely that the wrong resource is used. The resource should match the meter used in Utility:Tariff.
   ** Warning ** The resource referenced by LifeCycleCost:UsePriceEscalation= "U.S. AVG  COMMERCIAL-NATURAL GAS" has no energy cost. 
   **   ~~~   ** ... It is likely that the wrong resource is used. The resource should match the meter used in Utility:Tariff.
   ** Warning ** The resource referenced by LifeCycleCost:UsePriceEscalation= "U.S. AVG  COMMERCIAL-COAL" has no energy cost. 
   **   ~~~   ** ... It is likely that the wrong resource is used. The resource should match the meter used in Utility:Tariff.
   ************* Simulation Error Summary *************
   ************* There are 9 unused schedules in input.
   ************* There are 9 unused week schedules in input.
   ************* There are 52 unused day schedules in input.
   ************* Use Output:Diagnostics,DisplayUnusedSchedules; to see them.
   *************
   ************* ===== Recurring Error Summary =====
   ************* The following recurring error messages occurred.
   *************
   *************  ** Warning ** Plant loop falling below lower temperature limit, PlantLoop="MAIN SERVICE WATER LOOP"
   *************  **   ~~~   **   This error occurred 5 total times;
   *************  **   ~~~   **   during Warmup 2 times;
   *************  **   ~~~   **   during Sizing 0 times.
   *************  **   ~~~   **   Min=1.004038
   *************
   *************  ** Warning ** HeatExchanger:AirToAir:SensibleAndLatent "SYS_3_PSZ SP-AUDIENCE SEATING AREA PERMANENT - RELIGIOUS BUILDING-SPACE FUNCTION SYS-3 FLR-4 SCH-I HPLCMT-EAST ZN ERV":  Average air volume flow rate is <50% or >130% warning continues. Air flow rate ratio statistics follow.
   *************  **   ~~~   **   This error occurred 3650 total times;
   *************  **   ~~~   **   during Warmup 0 times;
   *************  **   ~~~   **   during Sizing 0 times.
   *************  **   ~~~   **   Max=0.469704  Min=1.808245E-004
   *************
   *************  ** Warning ** HeatExchanger:AirToAir:SensibleAndLatent "SYS_3_PSZ SP-AUDIENCE SEATING AREA PERMANENT - PERFORMING ARTS THEATRE-SPACE FUNCTION SYS-3 FLR-2 SCH-C HPLCMT-CORE ZN ERV":  Average air volume flow rate is <50% or >130% warning continues. Air flow rate ratio statistics follow.
   *************  **   ~~~   **   This error occurred 1601 total times;
   *************  **   ~~~   **   during Warmup 0 times;
   *************  **   ~~~   **   during Sizing 0 times.
   *************  **   ~~~   **   Max=0.442842  Min=1.868950E-003
   *************
   *************  ** Warning ** HeatExchanger:AirToAir:SensibleAndLatent "SYS_3_PSZ SP-AUDIENCE SEATING AREA PERMANENT - PENITENTIARY-SPACE FUNCTION SYS-3 FLR-4 SCH-C HPLCMT-WEST ZN ERV":  Average air volume flow rate is <50% or >130% warning continues. Air flow rate ratio statistics follow.
   *************  **   ~~~   **   This error occurred 35900 total times;
   *************  **   ~~~   **   during Warmup 0 times;
   *************  **   ~~~   **   during Sizing 0 times.
   *************  **   ~~~   **   Max=1.805005  Min=2.257581E-004
   *************
   *************  ** Warning ** CalcDoe2DXCoil: Coil:Cooling:DX:SingleSpeed="COIL COOLING DX SINGLE SPEED 12 392KBTU/HR 8.21EER" - Low condenser dry-bulb temperature error continues...
   *************  **   ~~~   **   This error occurred 15 total times;
   *************  **   ~~~   **   during Warmup 0 times;
   *************  **   ~~~   **   during Sizing 0 times.
   *************  **   ~~~   **   Max=-0.45 [C]  Min=-9.983333 [C]
   *************
   *************  ** Warning ** CalcDoe2DXCoil: Coil:Cooling:DX:SingleSpeed="COIL COOLING DX SINGLE SPEED 12 392KBTU/HR 8.21EER" - Full load outlet temperature indicates a possibility of frost/freeze error continues. Outlet air temperature statistics follow:
   *************  **   ~~~   **   This error occurred 156 total times;
   *************  **   ~~~   **   during Warmup 0 times;
   *************  **   ~~~   **   during Sizing 0 times.
   *************  **   ~~~   **   Max=1.991542  Min=-2.034154
   *************
   *************  ** Warning ** HeatExchanger:AirToAir:SensibleAndLatent "SYS_3_PSZ SP-AUDIENCE SEATING AREA PERMANENT - AUDITORIUM-SPACE FUNCTION SYS-3 FLR-4 SCH-C HPLCMT-CORE ZN ERV":  Average air volume flow rate is <50% or >130% warning continues. Air flow rate ratio statistics follow.
   *************  **   ~~~   **   This error occurred 4613 total times;
   *************  **   ~~~   **   during Warmup 0 times;
   *************  **   ~~~   **   during Sizing 0 times.
   *************  **   ~~~   **   Max=0.412416  Min=8.655565E-005
   *************
   *************  ** Warning ** HeatExchanger:AirToAir:SensibleAndLatent "SYS_3_PSZ SP-AUDIENCE SEATING AREA PERMANENT - OTHER-SCH-D-SPACE FUNCTION SYS-3 FLR-3 SCH-D HPLCMT-WEST ZN ERV":  Average air volume flow rate is <50% or >130% warning continues. Air flow rate ratio statistics follow.
   *************  **   ~~~   **   This error occurred 3038 total times;
   *************  **   ~~~   **   during Warmup 0 times;
   *************  **   ~~~   **   during Sizing 0 times.
   *************  **   ~~~   **   Max=0.349817  Min=1.583370E-004
   *************
   *************  ** Warning ** HeatExchanger:AirToAir:SensibleAndLatent "SYS_3_PSZ SP-AUDIENCE SEATING AREA PERMANENT - CONVENTION CENTRE-SPACE FUNCTION SYS-3 FLR-3 SCH-C HPLCMT-SOUTH ZN ERV":  Average air volume flow rate is <50% or >130% warning continues. Air flow rate ratio statistics follow.
   *************  **   ~~~   **   This error occurred 1859 total times;
   *************  **   ~~~   **   during Warmup 0 times;
   *************  **   ~~~   **   during Sizing 0 times.
   *************  **   ~~~   **   Max=0.40901  Min=1.170931E-004
   *************
   *************  ** Warning ** HeatExchanger:AirToAir:SensibleAndLatent "SYS_3_PSZ SP-AUDIENCE SEATING AREA PERMANENT - OTHER-SCH-C-SPACE FUNCTION SYS-3 FLR-2 SCH-C HPLCMT-WEST ZN ERV":  Average air volume flow rate is <50% or >130% warning continues. Air flow rate ratio statistics follow.
   *************  **   ~~~   **   This error occurred 2042 total times;
   *************  **   ~~~   **   during Warmup 0 times;
   *************  **   ~~~   **   during Sizing 0 times.
   *************  **   ~~~   **   Max=0.326885  Min=1.303603E-004
   *************
   *************  ** Warning ** HeatExchanger:AirToAir:SensibleAndLatent "SYS_3_PSZ SP-AUDIENCE SEATING AREA PERMANENT - OTHER-SCH-E-SPACE FUNCTION SYS-3 FLR-1 SCH-E HPLCMT-CORE ZN ERV":  Average air volume flow rate is <50% or >130% warning continues. Air flow rate ratio statistics follow.
   *************  **   ~~~   **   This error occurred 218 total times;
   *************  **   ~~~   **   during Warmup 0 times;
   *************  **   ~~~   **   during Sizing 0 times.
   *************  **   ~~~   **   Max=0.455801  Min=3.913265E-003
   *************
   *************  ** Warning ** HeatExchanger:AirToAir:SensibleAndLatent "SYS_3_PSZ SP-AUDIENCE SEATING AREA PERMANENT - OTHER-SCH-F-SPACE FUNCTION SYS-3 FLR-2 SCH-F HPLCMT-NORTH ZN ERV":  Average air volume flow rate is <50% or >130% warning continues. Air flow rate ratio statistics follow.
   *************  **   ~~~   **   This error occurred 1058 total times;
   *************  **   ~~~   **   during Warmup 0 times;
   *************  **   ~~~   **   during Sizing 0 times.
   *************  **   ~~~   **   Max=0.462659  Min=9.690359E-004
   *************
   *************  ** Warning ** HeatExchanger:AirToAir:SensibleAndLatent "SYS_3_PSZ SP-AUDIENCE SEATING AREA PERMANENT - OTHER-SCH-A-SPACE FUNCTION SYS-3 FLR-1 SCH-A HPLCMT-SOUTH ZN ERV":  Average air volume flow rate is <50% or >130% warning continues. Air flow rate ratio statistics follow.
   *************  **   ~~~   **   This error occurred 590 total times;
   *************  **   ~~~   **   during Warmup 0 times;
   *************  **   ~~~   **   during Sizing 0 times.
   *************  **   ~~~   **   Max=0.397159  Min=1.955363E-004
   *************
   *************  ** Warning ** HeatExchanger:AirToAir:SensibleAndLatent "SYS_3_PSZ SP-AUDIENCE SEATING AREA PERMANENT - OTHER-SCH-B-SPACE FUNCTION SYS-3 FLR-1 SCH-B HPLCMT-EAST ZN ERV":  Average air volume flow rate is <50% or >130% warning continues. Air flow rate ratio statistics follow.
   *************  **   ~~~   **   This error occurred 230 total times;
   *************  **   ~~~   **   during Warmup 0 times;
   *************  **   ~~~   **   during Sizing 0 times.
   *************  **   ~~~   **   Max=0.228965  Min=4.565227E-004
   *************
   *************  ** Warning ** HeatExchanger:AirToAir:SensibleAndLatent "SYS_6_VAV WITH REHEAT 3 ERV":  Average air volume flow rate is <50% or >130% warning continues. Air flow rate ratio statistics follow.
   *************  **   ~~~   **   This error occurred 49535 total times;
   *************  **   ~~~   **   during Warmup 0 times;
   *************  **   ~~~   **   during Sizing 0 times.
   *************  **   ~~~   **   Max=1.459393  Min=1.303627
   *************
   *************  ** Warning ** CalcDoe2DXCoil: Coil:Cooling:DX:SingleSpeed="COIL COOLING DX SINGLE SPEED 11 481KBTU/HR 8.21EER" - Full load outlet temperature indicates a possibility of frost/freeze error continues. Outlet air temperature statistics follow:
   *************  **   ~~~   **   This error occurred 73 total times;
   *************  **   ~~~   **   during Warmup 0 times;
   *************  **   ~~~   **   during Sizing 0 times.
   *************  **   ~~~   **   Max=1.965736  Min=-3.282429
   *************
   *************  ** Warning ** CalcDoe2DXCoil: Coil:Cooling:DX:SingleSpeed="COIL COOLING DX SINGLE SPEED 13 654KBTU/HR 8.21EER" - Full load outlet temperature indicates a possibility of frost/freeze error continues. Outlet air temperature statistics follow:
   *************  **   ~~~   **   This error occurred 31 total times;
   *************  **   ~~~   **   during Warmup 0 times;
   *************  **   ~~~   **   during Sizing 0 times.
   *************  **   ~~~   **   Max=1.997725  Min=-2.104875
   *************
   *************  ** Warning ** CalcDoe2DXCoil: Coil:Cooling:DX:SingleSpeed="COIL COOLING DX SINGLE SPEED 9 496KBTU/HR 8.21EER" - Full load outlet temperature indicates a possibility of frost/freeze error continues. Outlet air temperature statistics follow:
   *************  **   ~~~   **   This error occurred 9 total times;
   *************  **   ~~~   **   during Warmup 0 times;
   *************  **   ~~~   **   during Sizing 0 times.
   *************  **   ~~~   **   Max=1.979524  Min=-0.42887
   *************
   *************  ** Warning ** CalcDoe2DXCoil: Coil:Cooling:DX:SingleSpeed="COIL COOLING DX SINGLE SPEED 10 440KBTU/HR 8.21EER" - Full load outlet temperature indicates a possibility of frost/freeze error continues. Outlet air temperature statistics follow:
   *************  **   ~~~   **   This error occurred 22 total times;
   *************  **   ~~~   **   during Warmup 0 times;
   *************  **   ~~~   **   during Sizing 0 times.
   *************  **   ~~~   **   Max=1.899979  Min=-1.201411
   *************
   *************  ** Warning ** CalcDoe2DXCoil: Coil:Cooling:DX:SingleSpeed="COIL COOLING DX SINGLE SPEED 6 409KBTU/HR 8.21EER" - Full load outlet temperature indicates a possibility of frost/freeze error continues. Outlet air temperature statistics follow:
   *************  **   ~~~   **   This error occurred 3 total times;
   *************  **   ~~~   **   during Warmup 0 times;
   *************  **   ~~~   **   during Sizing 0 times.
   *************  **   ~~~   **   Max=1.907792  Min=0.240258
   *************
   *************  ** Warning ** CalcDoe2DXCoil: Coil:Cooling:DX:SingleSpeed="COIL COOLING DX SINGLE SPEED 8 404KBTU/HR 8.21EER" - Full load outlet temperature indicates a possibility of frost/freeze error continues. Outlet air temperature statistics follow:
   *************  **   ~~~   **   This error occurred 2 total times;
   *************  **   ~~~   **   during Warmup 0 times;
   *************  **   ~~~   **   during Sizing 0 times.
   *************  **   ~~~   **   Max=1.549477  Min=1.075283
   *************
   *************  ** Warning ** CalcDoe2DXCoil: Coil:Cooling:DX:SingleSpeed="COIL COOLING DX SINGLE SPEED 7 597KBTU/HR 8.21EER" - Full load outlet temperature indicates a possibility of frost/freeze error continues. Outlet air temperature statistics follow:
   *************  **   ~~~   **   This error occurred 7 total times;
   *************  **   ~~~   **   during Warmup 0 times;
   *************  **   ~~~   **   during Sizing 0 times.
   *************  **   ~~~   **   Max=1.967517  Min=9.359102E-002
   *************
   *************  ** Warning ** CalcDoe2DXCoil: Coil:Cooling:DX:SingleSpeed="COIL COOLING DX SINGLE SPEED 3 414KBTU/HR 8.21EER" - Full load outlet temperature indicates a possibility of frost/freeze error continues. Outlet air temperature statistics follow:
   *************  **   ~~~   **   This error occurred 1 total times;
   *************  **   ~~~   **   during Warmup 0 times;
   *************  **   ~~~   **   during Sizing 0 times.
   *************  **   ~~~   **   Max=1.220611  Min=1.220611
   *************
   *************  ** Warning ** CalcDoe2DXCoil: Coil:Cooling:DX:SingleSpeed="COIL COOLING DX SINGLE SPEED 5 404KBTU/HR 8.21EER" - Full load outlet temperature indicates a possibility of frost/freeze error continues. Outlet air temperature statistics follow:
   *************  **   ~~~   **   This error occurred 1 total times;
   *************  **   ~~~   **   during Warmup 0 times;
   *************  **   ~~~   **   during Sizing 0 times.
   *************  **   ~~~   **   Max=1.075283  Min=1.075283
   *************
   *************  ** Warning ** HeatExchanger:AirToAir:SensibleAndLatent "SYS_3_PSZ SP-AUDIENCE SEATING AREA PERMANENT - MOTION PICTURE THEATRE-SPACE FUNCTION SYS-3 FLR-1 SCH-C HPLCMT-NORTH ZN ERV":  Average air volume flow rate is <50% or >130% warning continues. Air flow rate ratio statistics follow.
   *************  **   ~~~   **   This error occurred 422 total times;
   *************  **   ~~~   **   during Warmup 0 times;
   *************  **   ~~~   **   during Sizing 0 times.
   *************  **   ~~~   **   Max=0.261819  Min=3.611739E-003
   *************
   *************  ** Warning ** CalcDoe2DXCoil: Coil:Cooling:DX:SingleSpeed="COIL COOLING DX SINGLE SPEED 4 587KBTU/HR 8.21EER" - Full load outlet temperature indicates a possibility of frost/freeze error continues. Outlet air temperature statistics follow:
   *************  **   ~~~   **   This error occurred 2 total times;
   *************  **   ~~~   **   during Warmup 0 times;
   *************  **   ~~~   **   during Sizing 0 times.
   *************  **   ~~~   **   Max=1.899979  Min=1.753372
   *************
   *************  ** Warning ** CalcDoe2DXCoil: Coil:Cooling:DX:SingleSpeed="COIL COOLING DX SINGLE SPEED 2 443KBTU/HR 8.21EER" - Full load outlet temperature indicates a possibility of frost/freeze error continues. Outlet air temperature statistics follow:
   *************  **   ~~~   **   This error occurred 1 total times;
   *************  **   ~~~   **   during Warmup 0 times;
   *************  **   ~~~   **   during Sizing 0 times.
   *************  **   ~~~   **   Max=0.717134  Min=0.717134
   *************
   *************  ** Warning ** CalcDoe2DXCoil: Coil:Cooling:DX:SingleSpeed="COIL COOLING DX SINGLE SPEED 1 448KBTU/HR 8.21EER" - Full load outlet temperature indicates a possibility of frost/freeze error continues. Outlet air temperature statistics follow:
   *************  **   ~~~   **   This error occurred 1 total times;
   *************  **   ~~~   **   during Warmup 0 times;
   *************  **   ~~~   **   during Sizing 0 times.
   *************  **   ~~~   **   Max=0.84364  Min=0.84364
   *************
   *************  ** Warning ** CalcDoe2DXCoil: Coil:Cooling:DX:SingleSpeed="COIL COOLING DX SINGLE SPEED 11 481KBTU/HR 8.21EER" - Low condenser dry-bulb temperature error continues...
   *************  **   ~~~   **   This error occurred 1 total times;
   *************  **   ~~~   **   during Warmup 0 times;
   *************  **   ~~~   **   during Sizing 0 times.
   *************  **   ~~~   **   Max=-2.05 [C]  Min=-2.05 [C]
   *************
   *************
   ************* ===== Final Error Summary =====
   ************* The following error categories occurred.  Consider correcting or noting.
   ************* Nominally Unused Constructions
   ************* ..The nominally unused constructions warning is provided to alert you to potential conditions that can cause
   ************* ..extra time during simulation. Each construction is calculated by the algorithm indicated in the HeatBalanceAlgorithm
   ************* ..object. You may remove the constructions indicated (when you use the DisplayExtraWarnings option).
   *************
   ************* EnergyPlus Warmup Error Summary. During Warmup: 0 Warning; 0 Severe Errors.
   ************* EnergyPlus Sizing Error Summary. During Sizing: 209 Warning; 0 Severe Errors.
   ************* EnergyPlus Completed Successfully-- 105354 Warning; 0 Severe Errors; Elapsed Time=00hr 03min 25.43sec
