Program Version,EnergyPlus, Version 8.9.0-eba93e8e1b, YMD=2019.03.28 14:31
! <Version>, Version ID
 Version, 8.9
! <Timesteps per Hour>, #TimeSteps, Minutes per TimeStep {minutes}
 Timesteps per Hour,  6, 10
! <System Convergence Limits>, Minimum System TimeStep {minutes}, Max HVAC Iterations, Minimum Plant Iterations, Maximum Plant Iterations
 System Convergence Limits, 1, 20, 2, 8
! <Simulation Control>, Do Zone Sizing, Do System Sizing, Do Plant Sizing, Do Design Days, Do Weather Simulation, Do HVAC Sizing Simulation
 Simulation Control, Yes, Yes, Yes, No, Yes, No
! <Output Reporting Tolerances>, Tolerance for Time Heating Setpoint Not Met, Tolerance for Zone Cooling Setpoint Not Met Time
 Output Reporting Tolerances, 1.000, 1.000, 
! <Site:GroundTemperature:BuildingSurface>,Jan{C},Feb{C},Mar{C},Apr{C},May{C},Jun{C},Jul{C},Aug{C},Sep{C},Oct{C},Nov{C},Dec{C}
 Site:GroundTemperature:BuildingSurface,  19.53,  19.50,  19.54,  19.60,  20.00,  21.64,  22.23,  22.38,  21.45,  20.12,  19.80,  19.63
! <Site:GroundTemperature:FCfactorMethod>,Jan{C},Feb{C},Mar{C},Apr{C},May{C},Jun{C},Jul{C},Aug{C},Sep{C},Oct{C},Nov{C},Dec{C}
 Site:GroundTemperature:FCfactorMethod, -12.27, -13.66, -11.19,  -7.33,   2.77,  10.57,  15.83,  17.43,  14.70,   8.65,   0.56,  -6.95
! <Site:GroundTemperature:Shallow>,Jan{C},Feb{C},Mar{C},Apr{C},May{C},Jun{C},Jul{C},Aug{C},Sep{C},Oct{C},Nov{C},Dec{C}
 Site:GroundTemperature:Shallow,  13.00,  13.00,  13.00,  13.00,  13.00,  13.00,  13.00,  13.00,  13.00,  13.00,  13.00,  13.00
! <Site:GroundTemperature:Deep>,Jan{C},Feb{C},Mar{C},Apr{C},May{C},Jun{C},Jul{C},Aug{C},Sep{C},Oct{C},Nov{C},Dec{C}
 Site:GroundTemperature:Deep,  16.00,  16.00,  16.00,  16.00,  16.00,  16.00,  16.00,  16.00,  16.00,  16.00,  16.00,  16.00
! <Site:GroundReflectance>,Jan{dimensionless},Feb{dimensionless},Mar{dimensionless},Apr{dimensionless},May{dimensionless},Jun{dimensionless},Jul{dimensionless},Aug{dimensionless},Sep{dimensionless},Oct{dimensionless},Nov{dimensionless},Dec{dimensionless}
 Site:GroundReflectance,  0.20,  0.20,  0.20,  0.20,  0.20,  0.20,  0.20,  0.20,  0.20,  0.20,  0.20,  0.20
! <Site:GroundReflectance:SnowModifier>, Normal, Daylighting {dimensionless}
 Site:GroundReflectance:SnowModifier,   1.000,   1.000
! <Site:GroundReflectance:Snow>,Jan{dimensionless},Feb{dimensionless},Mar{dimensionless},Apr{dimensionless},May{dimensionless},Jun{dimensionless},Jul{dimensionless},Aug{dimensionless},Sep{dimensionless},Oct{dimensionless},Nov{dimensionless},Dec{dimensionless}
 Site:GroundReflectance:Snow,  0.20,  0.20,  0.20,  0.20,  0.20,  0.20,  0.20,  0.20,  0.20,  0.20,  0.20,  0.20
! <Site:GroundReflectance:Snow:Daylighting>,Jan{dimensionless},Feb{dimensionless},Mar{dimensionless},Apr{dimensionless},May{dimensionless},Jun{dimensionless},Jul{dimensionless},Aug{dimensionless},Sep{dimensionless},Oct{dimensionless},Nov{dimensionless},Dec{dimensionless}
 Site:GroundReflectance:Snow:Daylighting,  0.20,  0.20,  0.20,  0.20,  0.20,  0.20,  0.20,  0.20,  0.20,  0.20,  0.20,  0.20
! <Environment:Weather Station>,Wind Sensor Height Above Ground {m},Wind Speed Profile Exponent {},Wind Speed Profile Boundary Layer Thickness {m},Air Temperature Sensor Height Above Ground {m},Wind Speed Modifier Coefficient-Internal,Temperature Modifier Coefficient-Internal
Environment:Weather Station,10.000,0.140,270.000,1.500,1.586,9.750E-003
! <Site:Location>, Location Name, Latitude {N+/S- Deg}, Longitude {E+/W- Deg},  Time Zone Number {GMT+/-}, Elevation {m},  Standard Pressure at Elevation {Pa}, Standard RhoAir at Elevation
Site:Location,Fort McMurray AP AB CAN CWEC2016 WMO#=716890,56.65,-111.22,-7.00,369.10,96969,1.1525
! <Building Information>, Building Name,North Axis {deg},Terrain,  Loads Convergence Tolerance Value,Temperature Convergence Tolerance Value,  Solar Distribution,Maximum Number of Warmup Days,Minimum Number of Warmup Days
 Building Information,Building 1,0.000,Suburbs,4.00000E-002,0.40000,FullExterior,25,6
! <Inside Convection Algorithm>, Algorithm {Simple | TARP | CeilingDiffuser | AdaptiveConvectionAlgorithm}
Inside Convection Algorithm,TARP
! <Outside Convection Algorithm>, Algorithm {SimpleCombined | TARP | MoWitt | DOE-2 | AdaptiveConvectionAlgorithm}
Outside Convection Algorithm,TARP
! <Sky Radiance Distribution>, Value {Anisotropic}
Sky Radiance Distribution,Anisotropic
! <Zone Air Solution Algorithm>, Value {ThirdOrderBackwardDifference | AnalyticalSolution | EulerMethod}
 Zone Air Solution Algorithm, ThirdOrderBackwardDifference
! <Zone Air Carbon Dioxide Balance Simulation>, Simulation {Yes/No}, Carbon Dioxide Concentration
 Zone Air Carbon Dioxide Balance Simulation, No,N/A
! <Zone Air Generic Contaminant Balance Simulation>, Simulation {Yes/No}, Generic Contaminant Concentration
 Zone Air Generic Contaminant Balance Simulation, No,N/A
! <Zone Air Mass Flow Balance Simulation>, Enforce Mass Balance, Adjust Zone Mixing, Adjust Zone Infiltration {AddInfiltration | AdjustInfiltration | None}, Infiltration Zones {MixingSourceZonesOnly | AllZones}
 Zone Air Mass Flow Balance Simulation, No,N/A,N/A,N/A
! <HVACSystemRootFindingAlgorithm>, Value {RegulaFalsi | Bisection | BisectionThenRegulaFalsi | RegulaFalsiThenBisection}
 HVACSystemRootFindingAlgorithm, RegulaFalsi
! <Environment:Site Atmospheric Variation>,Wind Speed Profile Exponent {},Wind Speed Profile Boundary Layer Thickness {m},Air Temperature Gradient Coefficient {K/m}
Environment:Site Atmospheric Variation,0.220,370.000,6.500000E-003
! <Surface Geometry>,Starting Corner,Vertex Input Direction,Coordinate System,Daylight Reference Point Coordinate System,Rectangular (Simple) Surface Coordinate System
 Surface Geometry,UpperLeftCorner,Counterclockwise,RelativeCoordinateSystem,RelativeCoordinateSystem,RelativeToZoneOrigin
! <Surface Heat Transfer Algorithm>, Value {CTF - ConductionTransferFunction | EMPD - MoisturePenetrationDepthConductionTransferFunction | CondFD - ConductionFiniteDifference | HAMT - CombinedHeatAndMoistureFiniteElement} - Description,Inside Surface Max Temperature Limit{C}, Surface Convection Coefficient Lower Limit {W/m2-K}, Surface Convection Coefficient Upper Limit {W/m2-K}
Surface Heat Transfer Algorithm, CTF - ConductionTransferFunction,200,0.10,1000.0
! <Shading Summary>, Number of Fixed Detached Shades, Number of Building Detached Shades, Number of Attached Shades
 Shading Summary,0,0,0
! <Zone Summary>, Number of Zones, Number of Zone Surfaces, Number of SubSurfaces
 Zone Summary,20,137,17
! <Zone Information>,Zone Name,North Axis {deg},Origin X-Coordinate {m},Origin Y-Coordinate {m},Origin Z-Coordinate {m},Centroid X-Coordinate {m},Centroid Y-Coordinate {m},Centroid Z-Coordinate {m},Type,Zone Multiplier,Zone List Multiplier,Minimum X {m},Maximum X {m},Minimum Y {m},Maximum Y {m},Minimum Z {m},Maximum Z {m},Ceiling Height {m},Volume {m3},Zone Inside Convection Algorithm {Simple-Detailed-CeilingDiffuser-TrombeWall},Zone Outside Convection Algorithm {Simple-Detailed-Tarp-MoWitt-DOE-2-BLAST}, Floor Area {m2},Exterior Gross Wall Area {m2},Exterior Net Wall Area {m2},Exterior Window Area {m2}, Number of Surfaces, Number of SubSurfaces, Number of Shading SubSurfaces,  Part of Total Building Area
 Zone Information, SP-MUSEUM RESTORATION ROOM-SPACE FUNCTION SYS-2 FLR-4 SCH-A HPLCMT-CORE ZN,0.0,25.00,25.00,11.40,50.00,50.00,13.30,1,1,1,25.00,75.00,25.00,75.00,11.40,15.20,3.80,9500.00,TARP,TARP,2500.00,0.00,0.00,50.00,6,1,0,Yes
 Zone Information, SP-POST OFFICE SORTING AREA-SPACE FUNCTION SYS-6 FLR-3 SCH-A HPLCMT-NORTH ZN,0.0,25.00,75.00,7.60,50.00,89.15,9.50,1,1,1,0.00,100.00,75.00,100.00,7.60,11.40,3.80,7125.00,TARP,TARP,1875.00,380.00,285.00,95.00,6,1,0,Yes
 Zone Information, SP-RELIGIOUS BUILDING FELLOWSHIP HALL-SPACE FUNCTION SYS-3 FLR-4 SCH-C HPLCMT-SOUTH ZN,0.0,0.00,0.00,11.40,50.00,10.85,13.30,1,1,1,0.00,100.00,0.00,25.00,11.40,15.20,3.80,7125.00,TARP,TARP,1875.00,380.00,285.00,132.50,6,2,0,Yes
 Zone Information, SP-RELIGIOUS BUILDING WORSHIP/PULPIT/CHOIR AREA-SPACE FUNCTION SYS-3 FLR-3 SCH-I HPLCMT-SOUTH ZN,0.0,0.00,0.00,7.60,50.00,10.85,9.50,1,1,1,0.00,100.00,0.00,25.00,7.60,11.40,3.80,7125.00,TARP,TARP,1875.00,380.00,285.00,95.00,6,1,0,Yes
 Zone Information, SP-RETAIL FACILITY DRESSING/FITTING ROOM-SPACE FUNCTION SYS-6 FLR-3 SCH-C HPLCMT-WEST ZN,0.0,0.00,0.00,7.60,10.85,50.00,9.50,1,1,1,0.00,25.00,0.00,100.00,7.60,11.40,3.80,7125.00,TARP,TARP,1875.00,380.00,285.00,95.00,6,1,0,Yes
 Zone Information, SP-RETAIL FACILITY MALL CONCOURSE-SPACE FUNCTION SYS-6 FLR-1 SCH-C HPLCMT-WEST ZN,0.0,0.00,0.00,0.00,10.85,50.00,1.90,1,1,1,0.00,25.00,0.00,100.00,0.00,3.80,3.80,7125.00,TARP,TARP,1875.00,0.00,0.00,0.00,6,0,0,Yes
 Zone Information, SP-SPACE DESIGNED TO ANSI/IES RP-28 CHAPEL (USED PRIMARILY BY RESIDENTS)-SPACE FUNCTION SYS-3 FLR-4 SCH-I HPLCMT-WEST ZN,0.0,0.00,0.00,11.40,10.85,50.00,13.30,1,1,1,0.00,25.00,0.00,100.00,11.40,15.20,3.80,7125.00,TARP,TARP,1875.00,380.00,285.00,132.50,6,2,0,Yes
 Zone Information, SP-SPACE DESIGNED TO ANSI/IES RP-28 RECREATION ROOM (USED PRIMARILY BY RESIDENTS)-SPACE FUNCTION SYS-3 FLR-2 SCH-B HPLCMT-NORTH ZN,0.0,25.00,75.00,3.80,50.00,89.15,5.70,1,1,1,0.00,100.00,75.00,100.00,3.80,7.60,3.80,7125.00,TARP,TARP,1875.00,380.00,285.00,95.00,6,1,0,Yes
 Zone Information, SP-SPORTS ARENA PLAYING AREA CLASS I FACILITY(4)-SPACE FUNCTION SYS-6 FLR-2 SCH-B HPLCMT-EAST ZN,0.0,75.00,25.00,3.80,89.15,50.00,5.70,1,1,1,75.00,100.00,0.00,100.00,3.80,7.60,3.80,7125.00,TARP,TARP,1875.00,380.00,285.00,95.00,6,1,0,Yes
 Zone Information, SP-SPORTS ARENA PLAYING AREA CLASS II FACILITY(4)-SPACE FUNCTION SYS-6 FLR-2 SCH-B HPLCMT-CORE ZN,0.0,25.00,25.00,3.80,50.00,50.00,5.70,1,1,1,25.00,75.00,25.00,75.00,3.80,7.60,3.80,9500.00,TARP,TARP,2500.00,0.00,0.00,0.00,6,0,0,Yes
 Zone Information, SP-SPORTS ARENA PLAYING AREA CLASS III FACILITY(4)-SPACE FUNCTION SYS-6 FLR-4 SCH-B HPLCMT-EAST ZN,0.0,75.00,25.00,11.40,89.15,50.00,13.30,1,1,1,75.00,100.00,0.00,100.00,11.40,15.20,3.80,7125.00,TARP,TARP,1875.00,380.00,285.00,132.50,6,2,0,Yes
 Zone Information, SP-SPORTS ARENA PLAYING AREA CLASS IV FACILITY(4)-SPACE FUNCTION SYS-6 FLR-1 SCH-B HPLCMT-NORTH ZN,0.0,25.00,75.00,0.00,50.00,89.15,1.90,1,1,1,0.00,100.00,75.00,100.00,0.00,3.80,3.80,7125.00,TARP,TARP,1875.00,0.00,0.00,0.00,6,0,0,Yes
 Zone Information, SP-TRANSPORTATION FACILITY AIRPORT CONCOURSE-SPACE FUNCTION SYS-6 FLR-3 SCH-H HPLCMT-EAST ZN,0.0,75.00,25.00,7.60,89.15,50.00,9.50,1,1,1,75.00,100.00,0.00,100.00,7.60,11.40,3.80,7125.00,TARP,TARP,1875.00,380.00,285.00,95.00,6,1,0,Yes
 Zone Information, SP-TRANSPORTATION FACILITY BAGGAGE/CAROUSEL AREA-SPACE FUNCTION SYS-6 FLR-1 SCH-H HPLCMT-EAST ZN,0.0,75.00,25.00,0.00,89.15,50.00,1.90,1,1,1,75.00,100.00,0.00,100.00,0.00,3.80,3.80,7125.00,TARP,TARP,1875.00,0.00,0.00,0.00,6,0,0,Yes
 Zone Information, SP-TRANSPORTATION FACILITY TERMINAL TICKET COUNTER-SPACE FUNCTION SYS-6 FLR-3 SCH-H HPLCMT-CORE ZN,0.0,25.00,25.00,7.60,50.00,50.00,9.50,1,1,1,25.00,75.00,25.00,75.00,7.60,11.40,3.80,9500.00,TARP,TARP,2500.00,0.00,0.00,0.00,6,0,0,Yes
 Zone Information, SP-WAREHOUSE STORAGE AREA MEDIUM TO BULKY PALLETIZED ITEMS-SPACE FUNCTION SYS-4 FLR-1 SCH-A HPLCMT-CORE ZN,0.0,25.00,25.00,0.00,50.00,50.00,1.90,1,1,1,25.00,75.00,25.00,75.00,0.00,3.80,3.80,9500.00,TARP,TARP,2500.00,0.00,0.00,0.00,6,0,0,Yes
 Zone Information, SP-WAREHOUSE STORAGE AREA SMALL HAND-CARRIED ITEMS(4)-SPACE FUNCTION SYS-4 FLR-4 SCH-A HPLCMT-NORTH ZN,0.0,25.00,75.00,11.40,50.00,89.15,13.30,1,1,1,0.00,100.00,75.00,100.00,11.40,15.20,3.80,7125.00,TARP,TARP,1875.00,380.00,285.00,132.50,6,2,0,Yes
 Zone Information, SP-WHOLEBUILDING-AUTOMOTIVE FACILITY 1 SYS-4 FLR-2 SCH-E HPLCMT-WEST ZN,0.0,0.00,0.00,3.80,10.85,50.00,5.70,1,1,1,0.00,25.00,0.00,100.00,3.80,7.60,3.80,7125.00,TARP,TARP,1875.00,380.00,285.00,95.00,6,1,0,Yes
 Zone Information, SP-WHOLEBUILDING-AUTOMOTIVE FACILITY 2 SYS-4 FLR-2 SCH-E HPLCMT-SOUTH ZN,0.0,0.00,0.00,3.80,50.00,10.85,5.70,1,1,1,0.00,100.00,0.00,25.00,3.80,7.60,3.80,7125.00,TARP,TARP,1875.00,380.00,285.00,95.00,6,1,0,Yes
 Zone Information, SP-WHOLEBUILDING-AUTOMOTIVE FACILITY SYS-4 FLR-1 SCH-E HPLCMT-SOUTH ZN,0.0,0.00,0.00,0.00,50.00,10.85,1.90,1,1,1,0.00,100.00,0.00,25.00,0.00,3.80,3.80,7125.00,TARP,TARP,1875.00,0.00,0.00,0.00,6,0,0,Yes
! <Zone Internal Gains Nominal>,Zone Name, Floor Area {m2},# Occupants,Area per Occupant {m2/person},Occupant per Area {person/m2},Interior Lighting {W/m2},Electric Load {W/m2},Gas Load {W/m2},Other Load {W/m2},Hot Water Eq {W/m2},Steam Equipment {W/m2},Sum Loads per Area {W/m2},Outdoor Controlled Baseboard Heat
 Zone Internal Gains Nominal, SP-MUSEUM RESTORATION ROOM-SPACE FUNCTION SYS-2 FLR-4 SCH-A HPLCMT-CORE ZN,2500.00,125.0,19.993,5.002E-002,9.200,5.002,0.000,0.000,0.000,0.000,14.202,No
 Zone Internal Gains Nominal, SP-POST OFFICE SORTING AREA-SPACE FUNCTION SYS-6 FLR-3 SCH-A HPLCMT-NORTH ZN,1875.00,93.8,19.993,5.002E-002,7.300,7.503,0.000,0.000,0.000,0.000,14.803,No
 Zone Internal Gains Nominal, SP-RELIGIOUS BUILDING FELLOWSHIP HALL-SPACE FUNCTION SYS-3 FLR-4 SCH-C HPLCMT-SOUTH ZN,1875.00,375.1,4.998,0.200,5.900,1.000,0.000,0.000,0.000,0.000,6.900,No
 Zone Internal Gains Nominal, SP-RELIGIOUS BUILDING WORSHIP/PULPIT/CHOIR AREA-SPACE FUNCTION SYS-3 FLR-3 SCH-I HPLCMT-SOUTH ZN,1875.00,375.1,4.998,0.200,16.506,1.000,0.000,0.000,0.000,0.000,17.506,No
 Zone Internal Gains Nominal, SP-RETAIL FACILITY DRESSING/FITTING ROOM-SPACE FUNCTION SYS-6 FLR-3 SCH-C HPLCMT-WEST ZN,1875.00,62.5,29.989,3.335E-002,5.400,2.501,0.000,0.000,0.000,0.000,7.901,No
 Zone Internal Gains Nominal, SP-RETAIL FACILITY MALL CONCOURSE-SPACE FUNCTION SYS-6 FLR-1 SCH-C HPLCMT-WEST ZN,1875.00,93.8,19.993,5.002E-002,9.700,1.000,0.000,0.000,0.000,0.000,10.700,No
 Zone Internal Gains Nominal, SP-SPACE DESIGNED TO ANSI/IES RP-28 CHAPEL (USED PRIMARILY BY RESIDENTS)-SPACE FUNCTION SYS-3 FLR-4 SCH-I HPLCMT-WEST ZN,1875.00,187.6,9.996,0.100,11.400,1.000,0.000,0.000,0.000,0.000,12.400,No
 Zone Internal Gains Nominal, SP-SPACE DESIGNED TO ANSI/IES RP-28 RECREATION ROOM (USED PRIMARILY BY RESIDENTS)-SPACE FUNCTION SYS-3 FLR-2 SCH-B HPLCMT-NORTH ZN,1875.00,93.8,19.993,5.002E-002,19.405,1.000,0.000,0.000,0.000,0.000,20.406,No
 Zone Internal Gains Nominal, SP-SPORTS ARENA PLAYING AREA CLASS I FACILITY(4)-SPACE FUNCTION SYS-6 FLR-2 SCH-B HPLCMT-EAST ZN,1875.00,375.1,4.998,0.200,26.600,1.501,0.000,0.000,0.000,0.000,28.100,No
 Zone Internal Gains Nominal, SP-SPORTS ARENA PLAYING AREA CLASS II FACILITY(4)-SPACE FUNCTION SYS-6 FLR-2 SCH-B HPLCMT-CORE ZN,2500.00,500.2,4.998,0.200,21.100,1.501,0.000,0.000,0.000,0.000,22.600,No
 Zone Internal Gains Nominal, SP-SPORTS ARENA PLAYING AREA CLASS III FACILITY(4)-SPACE FUNCTION SYS-6 FLR-4 SCH-B HPLCMT-EAST ZN,1875.00,375.1,4.998,0.200,18.300,1.501,0.000,0.000,0.000,0.000,19.800,No
 Zone Internal Gains Nominal, SP-SPORTS ARENA PLAYING AREA CLASS IV FACILITY(4)-SPACE FUNCTION SYS-6 FLR-1 SCH-B HPLCMT-NORTH ZN,1875.00,375.1,4.998,0.200,12.200,1.501,0.000,0.000,0.000,0.000,13.700,No
 Zone Internal Gains Nominal, SP-TRANSPORTATION FACILITY AIRPORT CONCOURSE-SPACE FUNCTION SYS-6 FLR-3 SCH-H HPLCMT-EAST ZN,1875.00,93.8,19.993,5.002E-002,3.300,0.000,0.000,0.000,0.000,0.000,3.300,No
 Zone Internal Gains Nominal, SP-TRANSPORTATION FACILITY BAGGAGE/CAROUSEL AREA-SPACE FUNCTION SYS-6 FLR-1 SCH-H HPLCMT-EAST ZN,1875.00,93.8,19.993,5.002E-002,4.800,2.501,0.000,0.000,0.000,0.000,7.301,No
 Zone Internal Gains Nominal, SP-TRANSPORTATION FACILITY TERMINAL TICKET COUNTER-SPACE FUNCTION SYS-6 FLR-3 SCH-H HPLCMT-CORE ZN,2500.00,250.1,9.996,0.100,6.700,2.501,0.000,0.000,0.000,0.000,9.201,No
 Zone Internal Gains Nominal, SP-WAREHOUSE STORAGE AREA MEDIUM TO BULKY PALLETIZED ITEMS-SPACE FUNCTION SYS-4 FLR-1 SCH-A HPLCMT-CORE ZN,2500.00,25.0,99.964,1.000E-002,3.800,1.000,0.000,0.000,0.000,0.000,4.800,No
 Zone Internal Gains Nominal, SP-WAREHOUSE STORAGE AREA SMALL HAND-CARRIED ITEMS(4)-SPACE FUNCTION SYS-4 FLR-4 SCH-A HPLCMT-NORTH ZN,1875.00,37.5,49.982,2.001E-002,7.400,1.000,0.000,0.000,0.000,0.000,8.400,No
 Zone Internal Gains Nominal, SP-WHOLEBUILDING-AUTOMOTIVE FACILITY 1 SYS-4 FLR-2 SCH-E HPLCMT-WEST ZN,1875.00,93.8,19.993,5.002E-002,7.600,5.002,0.000,0.000,0.000,0.000,12.602,No
 Zone Internal Gains Nominal, SP-WHOLEBUILDING-AUTOMOTIVE FACILITY 2 SYS-4 FLR-2 SCH-E HPLCMT-SOUTH ZN,1875.00,93.8,19.993,5.002E-002,7.600,5.002,0.000,0.000,0.000,0.000,12.602,No
 Zone Internal Gains Nominal, SP-WHOLEBUILDING-AUTOMOTIVE FACILITY SYS-4 FLR-1 SCH-E HPLCMT-SOUTH ZN,1875.00,93.8,19.993,5.002E-002,7.600,5.002,0.000,0.000,0.000,0.000,12.602,No
! <People Internal Gains Nominal>,Name,Schedule Name,Zone Name,Zone Floor Area {m2},# Zone Occupants,Number of People {},People/Floor Area {person/m2},Floor Area per person {m2/person},Fraction Radiant,Fraction Convected,Sensible Fraction Calculation,Activity level,ASHRAE 55 Warnings,Carbon Dioxide Generation Rate,Nominal Minimum Number of People,Nominal Maximum Number of People
 People Internal Gains Nominal, SP-WHOLEBUILDING-AUTOMOTIVE FACILITY SYS-4 FLR-1 SCH-E HPLCMT-SOUTH ZN AUTOMOTIVE FACILITY WHOLEBUILDING PEOPLE,NECB-E-OCCUPANCY,SP-WHOLEBUILDING-AUTOMOTIVE FACILITY SYS-4 FLR-1 SCH-E HPLCMT-SOUTH ZN,1875.00,93.8,93.8,5.002E-002,19.993,0.300,0.700,AutoCalculate,NECB-ACTIVITY,No,3.8200E-008,0,84
 People Internal Gains Nominal, SP-WHOLEBUILDING-AUTOMOTIVE FACILITY 1 SYS-4 FLR-2 SCH-E HPLCMT-WEST ZN AUTOMOTIVE FACILITY WHOLEBUILDING 1 PEOPLE,NECB-E-OCCUPANCY,SP-WHOLEBUILDING-AUTOMOTIVE FACILITY 1 SYS-4 FLR-2 SCH-E HPLCMT-WEST ZN,1875.00,93.8,93.8,5.002E-002,19.993,0.300,0.700,AutoCalculate,NECB-ACTIVITY,No,3.8200E-008,0,84
 People Internal Gains Nominal, SP-WHOLEBUILDING-AUTOMOTIVE FACILITY 2 SYS-4 FLR-2 SCH-E HPLCMT-SOUTH ZN AUTOMOTIVE FACILITY WHOLEBUILDING 2 PEOPLE,NECB-E-OCCUPANCY,SP-WHOLEBUILDING-AUTOMOTIVE FACILITY 2 SYS-4 FLR-2 SCH-E HPLCMT-SOUTH ZN,1875.00,93.8,93.8,5.002E-002,19.993,0.300,0.700,AutoCalculate,NECB-ACTIVITY,No,3.8200E-008,0,84
 People Internal Gains Nominal, SP-MUSEUM RESTORATION ROOM-SPACE FUNCTION SYS-2 FLR-4 SCH-A HPLCMT-CORE ZN SPACE FUNCTION MUSEUM RESTORATION ROOM PEOPLE,NECB-A-OCCUPANCY,SP-MUSEUM RESTORATION ROOM-SPACE FUNCTION SYS-2 FLR-4 SCH-A HPLCMT-CORE ZN,2500.00,125.0,125.0,5.002E-002,19.993,0.300,0.700,AutoCalculate,NECB-ACTIVITY,No,3.8200E-008,0,113
 People Internal Gains Nominal, SP-POST OFFICE SORTING AREA-SPACE FUNCTION SYS-6 FLR-3 SCH-A HPLCMT-NORTH ZN SPACE FUNCTION POST OFFICE SORTING AREA PEOPLE,NECB-A-OCCUPANCY,SP-POST OFFICE SORTING AREA-SPACE FUNCTION SYS-6 FLR-3 SCH-A HPLCMT-NORTH ZN,1875.00,93.8,93.8,5.002E-002,19.993,0.300,0.700,AutoCalculate,NECB-ACTIVITY,No,3.8200E-008,0,84
 People Internal Gains Nominal, SP-RELIGIOUS BUILDING FELLOWSHIP HALL-SPACE FUNCTION SYS-3 FLR-4 SCH-C HPLCMT-SOUTH ZN SPACE FUNCTION RELIGIOUS BUILDING FELLOWSHIP HALL PEOPLE,NECB-C-OCCUPANCY,SP-RELIGIOUS BUILDING FELLOWSHIP HALL-SPACE FUNCTION SYS-3 FLR-4 SCH-C HPLCMT-SOUTH ZN,1875.00,375.1,375.1,0.200,4.998,0.300,0.700,AutoCalculate,NECB-ACTIVITY,No,3.8200E-008,0,338
 People Internal Gains Nominal, SP-RELIGIOUS BUILDING WORSHIP/PULPIT/CHOIR AREA-SPACE FUNCTION SYS-3 FLR-3 SCH-I HPLCMT-SOUTH ZN SPACE FUNCTION RELIGIOUS BUILDING WORSHIP/PULPIT/CHOIR AREA PEOPLE,NECB-I-OCCUPANCY,SP-RELIGIOUS BUILDING WORSHIP/PULPIT/CHOIR AREA-SPACE FUNCTION SYS-3 FLR-3 SCH-I HPLCMT-SOUTH ZN,1875.00,375.1,375.1,0.200,4.998,0.300,0.700,AutoCalculate,NECB-ACTIVITY,No,3.8200E-008,0,300
 People Internal Gains Nominal, SP-RETAIL FACILITY DRESSING/FITTING ROOM-SPACE FUNCTION SYS-6 FLR-3 SCH-C HPLCMT-WEST ZN SPACE FUNCTION RETAIL FACILITY DRESSING/FITTING ROOM PEOPLE,NECB-C-OCCUPANCY,SP-RETAIL FACILITY DRESSING/FITTING ROOM-SPACE FUNCTION SYS-6 FLR-3 SCH-C HPLCMT-WEST ZN,1875.00,62.5,62.5,3.335E-002,29.989,0.300,0.700,AutoCalculate,NECB-ACTIVITY,No,3.8200E-008,0,56
 People Internal Gains Nominal, SP-RETAIL FACILITY MALL CONCOURSE-SPACE FUNCTION SYS-6 FLR-1 SCH-C HPLCMT-WEST ZN SPACE FUNCTION RETAIL FACILITY MALL CONCOURSE PEOPLE,NECB-C-OCCUPANCY,SP-RETAIL FACILITY MALL CONCOURSE-SPACE FUNCTION SYS-6 FLR-1 SCH-C HPLCMT-WEST ZN,1875.00,93.8,93.8,5.002E-002,19.993,0.300,0.700,AutoCalculate,NECB-ACTIVITY,No,3.8200E-008,0,84
 People Internal Gains Nominal, SP-SPACE DESIGNED TO ANSI/IES RP-28 CHAPEL (USED PRIMARILY BY RESIDENTS)-SPACE FUNCTION SYS-3 FLR-4 SCH-I HPLCMT-WEST ZN SPACE FUNCTION SPACE DESIGNED TO ANSI/IES RP-28 CHAPEL (USED PRIMARILY BY RESIDENTS) PEOPLE,NECB-I-OCCUPANCY,SP-SPACE DESIGNED TO ANSI/IES RP-28 CHAPEL (USED PRIMARILY BY RESIDENTS)-SPACE FUNCTION SYS-3 FLR-4 SCH-I HPLCMT-WEST ZN,1875.00,187.6,187.6,0.100,9.996,0.300,0.700,AutoCalculate,NECB-ACTIVITY,No,3.8200E-008,0,150
 People Internal Gains Nominal, SP-SPACE DESIGNED TO ANSI/IES RP-28 RECREATION ROOM (USED PRIMARILY BY RESIDENTS)-SPACE FUNCTION SYS-3 FLR-2 SCH-B HPLCMT-NORTH ZN SPACE FUNCTION SPACE DESIGNED TO ANSI/IES RP-28 RECREATION ROOM (USED PRIMARILY BY RESIDENTS) PEOPLE,NECB-B-OCCUPANCY,SP-SPACE DESIGNED TO ANSI/IES RP-28 RECREATION ROOM (USED PRIMARILY BY RESIDENTS)-SPACE FUNCTION SYS-3 FLR-2 SCH-B HPLCMT-NORTH ZN,1875.00,93.8,93.8,5.002E-002,19.993,0.300,0.700,AutoCalculate,NECB-ACTIVITY,No,3.8200E-008,0,84
 People Internal Gains Nominal, SP-SPORTS ARENA PLAYING AREA CLASS I FACILITY(4)-SPACE FUNCTION SYS-6 FLR-2 SCH-B HPLCMT-EAST ZN SPACE FUNCTION SPORTS ARENA PLAYING AREA CLASS I FACILITY(4) PEOPLE,NECB-B-OCCUPANCY,SP-SPORTS ARENA PLAYING AREA CLASS I FACILITY(4)-SPACE FUNCTION SYS-6 FLR-2 SCH-B HPLCMT-EAST ZN,1875.00,375.1,375.1,0.200,4.998,0.300,0.700,AutoCalculate,NECB-ACTIVITY,No,3.8200E-008,0,338
 People Internal Gains Nominal, SP-SPORTS ARENA PLAYING AREA CLASS II FACILITY(4)-SPACE FUNCTION SYS-6 FLR-2 SCH-B HPLCMT-CORE ZN SPACE FUNCTION SPORTS ARENA PLAYING AREA CLASS II FACILITY(4) PEOPLE,NECB-B-OCCUPANCY,SP-SPORTS ARENA PLAYING AREA CLASS II FACILITY(4)-SPACE FUNCTION SYS-6 FLR-2 SCH-B HPLCMT-CORE ZN,2500.00,500.2,500.2,0.200,4.998,0.300,0.700,AutoCalculate,NECB-ACTIVITY,No,3.8200E-008,0,450
 People Internal Gains Nominal, SP-SPORTS ARENA PLAYING AREA CLASS III FACILITY(4)-SPACE FUNCTION SYS-6 FLR-4 SCH-B HPLCMT-EAST ZN SPACE FUNCTION SPORTS ARENA PLAYING AREA CLASS III FACILITY(4) PEOPLE,NECB-B-OCCUPANCY,SP-SPORTS ARENA PLAYING AREA CLASS III FACILITY(4)-SPACE FUNCTION SYS-6 FLR-4 SCH-B HPLCMT-EAST ZN,1875.00,375.1,375.1,0.200,4.998,0.300,0.700,AutoCalculate,NECB-ACTIVITY,No,3.8200E-008,0,338
 People Internal Gains Nominal, SP-SPORTS ARENA PLAYING AREA CLASS IV FACILITY(4)-SPACE FUNCTION SYS-6 FLR-1 SCH-B HPLCMT-NORTH ZN SPACE FUNCTION SPORTS ARENA PLAYING AREA CLASS IV FACILITY(4) PEOPLE,NECB-B-OCCUPANCY,SP-SPORTS ARENA PLAYING AREA CLASS IV FACILITY(4)-SPACE FUNCTION SYS-6 FLR-1 SCH-B HPLCMT-NORTH ZN,1875.00,375.1,375.1,0.200,4.998,0.300,0.700,AutoCalculate,NECB-ACTIVITY,No,3.8200E-008,0,338
 People Internal Gains Nominal, SP-TRANSPORTATION FACILITY AIRPORT CONCOURSE-SPACE FUNCTION SYS-6 FLR-3 SCH-H HPLCMT-EAST ZN SPACE FUNCTION TRANSPORTATION FACILITY AIRPORT CONCOURSE PEOPLE,NECB-H-OCCUPANCY,SP-TRANSPORTATION FACILITY AIRPORT CONCOURSE-SPACE FUNCTION SYS-6 FLR-3 SCH-H HPLCMT-EAST ZN,1875.00,93.8,93.8,5.002E-002,19.993,0.300,0.700,AutoCalculate,NECB-ACTIVITY,No,3.8200E-008,84,84
 People Internal Gains Nominal, SP-TRANSPORTATION FACILITY BAGGAGE/CAROUSEL AREA-SPACE FUNCTION SYS-6 FLR-1 SCH-H HPLCMT-EAST ZN SPACE FUNCTION TRANSPORTATION FACILITY BAGGAGE/CAROUSEL AREA PEOPLE,NECB-H-OCCUPANCY,SP-TRANSPORTATION FACILITY BAGGAGE/CAROUSEL AREA-SPACE FUNCTION SYS-6 FLR-1 SCH-H HPLCMT-EAST ZN,1875.00,93.8,93.8,5.002E-002,19.993,0.300,0.700,AutoCalculate,NECB-ACTIVITY,No,3.8200E-008,84,84
 People Internal Gains Nominal, SP-TRANSPORTATION FACILITY TERMINAL TICKET COUNTER-SPACE FUNCTION SYS-6 FLR-3 SCH-H HPLCMT-CORE ZN SPACE FUNCTION TRANSPORTATION FACILITY TERMINAL TICKET COUNTER PEOPLE,NECB-H-OCCUPANCY,SP-TRANSPORTATION FACILITY TERMINAL TICKET COUNTER-SPACE FUNCTION SYS-6 FLR-3 SCH-H HPLCMT-CORE ZN,2500.00,250.1,250.1,0.100,9.996,0.300,0.700,AutoCalculate,NECB-ACTIVITY,No,3.8200E-008,225,225
 People Internal Gains Nominal, SP-WAREHOUSE STORAGE AREA MEDIUM TO BULKY PALLETIZED ITEMS-SPACE FUNCTION SYS-4 FLR-1 SCH-A HPLCMT-CORE ZN SPACE FUNCTION WAREHOUSE STORAGE AREA MEDIUM TO BULKY PALLETIZED ITEMS PEOPLE,NECB-A-OCCUPANCY,SP-WAREHOUSE STORAGE AREA MEDIUM TO BULKY PALLETIZED ITEMS-SPACE FUNCTION SYS-4 FLR-1 SCH-A HPLCMT-CORE ZN,2500.00,25.0,25.0,1.000E-002,99.964,0.300,0.700,AutoCalculate,NECB-ACTIVITY,No,3.8200E-008,0,23
 People Internal Gains Nominal, SP-WAREHOUSE STORAGE AREA SMALL HAND-CARRIED ITEMS(4)-SPACE FUNCTION SYS-4 FLR-4 SCH-A HPLCMT-NORTH ZN SPACE FUNCTION WAREHOUSE STORAGE AREA SMALL HAND-CARRIED ITEMS(4) PEOPLE,NECB-A-OCCUPANCY,SP-WAREHOUSE STORAGE AREA SMALL HAND-CARRIED ITEMS(4)-SPACE FUNCTION SYS-4 FLR-4 SCH-A HPLCMT-NORTH ZN,1875.00,37.5,37.5,2.001E-002,49.982,0.300,0.700,AutoCalculate,NECB-ACTIVITY,No,3.8200E-008,0,34
! <Lights Internal Gains Nominal>,Name,Schedule Name,Zone Name,Zone Floor Area {m2},# Zone Occupants,Lighting Level {W},Lights/Floor Area {W/m2},Lights per person {W/person},Fraction Return Air,Fraction Radiant,Fraction Short Wave,Fraction Convected,Fraction Replaceable,End-Use Category,Nominal Minimum Lighting Level {W},Nominal Maximum Lighting Level {W}
 Lights Internal Gains Nominal, SP-WHOLEBUILDING-AUTOMOTIVE FACILITY SYS-4 FLR-1 SCH-E HPLCMT-SOUTH ZN AUTOMOTIVE FACILITY WHOLEBUILDING LIGHTS,NECB-E-LIGHTING,SP-WHOLEBUILDING-AUTOMOTIVE FACILITY SYS-4 FLR-1 SCH-E HPLCMT-SOUTH ZN,1875.00,93.8,14249.877,7.600,151.943,0.000,0.500,0.200,0.300,1.000,General,712.494,12824.889
 Lights Internal Gains Nominal, SP-WHOLEBUILDING-AUTOMOTIVE FACILITY 1 SYS-4 FLR-2 SCH-E HPLCMT-WEST ZN AUTOMOTIVE FACILITY WHOLEBUILDING 1 LIGHTS,NECB-E-LIGHTING,SP-WHOLEBUILDING-AUTOMOTIVE FACILITY 1 SYS-4 FLR-2 SCH-E HPLCMT-WEST ZN,1875.00,93.8,14249.877,7.600,151.943,0.000,0.500,0.200,0.300,1.000,General,712.494,12824.889
 Lights Internal Gains Nominal, SP-WHOLEBUILDING-AUTOMOTIVE FACILITY 2 SYS-4 FLR-2 SCH-E HPLCMT-SOUTH ZN AUTOMOTIVE FACILITY WHOLEBUILDING 2 LIGHTS,NECB-E-LIGHTING,SP-WHOLEBUILDING-AUTOMOTIVE FACILITY 2 SYS-4 FLR-2 SCH-E HPLCMT-SOUTH ZN,1875.00,93.8,14249.877,7.600,151.943,0.000,0.500,0.200,0.300,1.000,General,712.494,12824.889
 Lights Internal Gains Nominal, SP-MUSEUM RESTORATION ROOM-SPACE FUNCTION SYS-2 FLR-4 SCH-A HPLCMT-CORE ZN SPACE FUNCTION MUSEUM RESTORATION ROOM LIGHTS,NECB-A-OCCUPANCY-NECB-A-LIGHTING-0.3-0.0-0.67-LIGHT RULESET,SP-MUSEUM RESTORATION ROOM-SPACE FUNCTION SYS-2 FLR-4 SCH-A HPLCMT-CORE ZN,2500.00,125.0,22999.812,9.200,183.932,0.000,0.500,0.200,0.300,1.000,General,918.843,20699.831
 Lights Internal Gains Nominal, SP-POST OFFICE SORTING AREA-SPACE FUNCTION SYS-6 FLR-3 SCH-A HPLCMT-NORTH ZN SPACE FUNCTION POST OFFICE SORTING AREA LIGHTS,NECB-A-LIGHTING,SP-POST OFFICE SORTING AREA-SPACE FUNCTION SYS-6 FLR-3 SCH-A HPLCMT-NORTH ZN,1875.00,93.8,13687.395,7.300,145.946,0.000,0.500,0.200,0.300,1.000,General,684.370,12318.656
 Lights Internal Gains Nominal, SP-RELIGIOUS BUILDING FELLOWSHIP HALL-SPACE FUNCTION SYS-3 FLR-4 SCH-C HPLCMT-SOUTH ZN SPACE FUNCTION RELIGIOUS BUILDING FELLOWSHIP HALL LIGHTS,NECB-C-LIGHTING,SP-RELIGIOUS BUILDING FELLOWSHIP HALL-SPACE FUNCTION SYS-3 FLR-4 SCH-C HPLCMT-SOUTH ZN,1875.00,375.1,11062.400,5.900,29.489,0.000,0.500,0.200,0.300,1.000,General,553.120,9956.160
 Lights Internal Gains Nominal, SP-RELIGIOUS BUILDING WORSHIP/PULPIT/CHOIR AREA-SPACE FUNCTION SYS-3 FLR-3 SCH-I HPLCMT-SOUTH ZN SPACE FUNCTION RELIGIOUS BUILDING WORSHIP/PULPIT/CHOIR AREA LIGHTS,NECB-I-OCCUPANCY-NECB-I-LIGHTING-0.1-0.0-0.67-LIGHT RULESET,SP-RELIGIOUS BUILDING WORSHIP/PULPIT/CHOIR AREA-SPACE FUNCTION SYS-3 FLR-3 SCH-I HPLCMT-SOUTH ZN,1875.00,375.1,30948.743,16.506,82.500,0.000,0.500,0.200,0.300,1.000,General,1443.759,27853.869
 Lights Internal Gains Nominal, SP-RETAIL FACILITY DRESSING/FITTING ROOM-SPACE FUNCTION SYS-6 FLR-3 SCH-C HPLCMT-WEST ZN SPACE FUNCTION RETAIL FACILITY DRESSING/FITTING ROOM LIGHTS,NECB-C-LIGHTING,SP-RETAIL FACILITY DRESSING/FITTING ROOM-SPACE FUNCTION SYS-6 FLR-3 SCH-C HPLCMT-WEST ZN,1875.00,62.5,10124.911,5.400,161.940,0.000,0.500,0.200,0.300,1.000,General,506.246,9112.420
 Lights Internal Gains Nominal, SP-RETAIL FACILITY MALL CONCOURSE-SPACE FUNCTION SYS-6 FLR-1 SCH-C HPLCMT-WEST ZN SPACE FUNCTION RETAIL FACILITY MALL CONCOURSE LIGHTS,NECB-C-OCCUPANCY-NECB-C-LIGHTING-0.0-0.0-0.67-LIGHT RULESET,SP-RETAIL FACILITY MALL CONCOURSE-SPACE FUNCTION SYS-6 FLR-1 SCH-C HPLCMT-WEST ZN,1875.00,93.8,18187.349,9.700,193.928,0.000,0.500,0.200,0.300,1.000,General,909.367,16368.614
 Lights Internal Gains Nominal, SP-SPACE DESIGNED TO ANSI/IES RP-28 CHAPEL (USED PRIMARILY BY RESIDENTS)-SPACE FUNCTION SYS-3 FLR-4 SCH-I HPLCMT-WEST ZN SPACE FUNCTION SPACE DESIGNED TO ANSI/IES RP-28 CHAPEL (USED PRIMARILY BY RESIDENTS) LIGHTS,NECB-I-OCCUPANCY-NECB-I-LIGHTING-0.5-0.0-0.67-LIGHT RULESET,SP-SPACE DESIGNED TO ANSI/IES RP-28 CHAPEL (USED PRIMARILY BY RESIDENTS)-SPACE FUNCTION SYS-3 FLR-4 SCH-I HPLCMT-WEST ZN,1875.00,187.6,21374.825,11.400,113.958,0.000,0.500,0.200,0.300,1.000,General,710.713,19237.343
 Lights Internal Gains Nominal, SP-SPACE DESIGNED TO ANSI/IES RP-28 RECREATION ROOM (USED PRIMARILY BY RESIDENTS)-SPACE FUNCTION SYS-3 FLR-2 SCH-B HPLCMT-NORTH ZN SPACE FUNCTION SPACE DESIGNED TO ANSI/IES RP-28 RECREATION ROOM (USED PRIMARILY BY RESIDENTS) LIGHTS,NECB-B-OCCUPANCY-NECB-B-LIGHTING-0.2-0.0-0.67-LIGHT RULESET,SP-SPACE DESIGNED TO ANSI/IES RP-28 RECREATION ROOM (USED PRIMARILY BY RESIDENTS)-SPACE FUNCTION SYS-3 FLR-2 SCH-B HPLCMT-NORTH ZN,1875.00,93.8,36384.789,19.405,387.963,0.000,0.500,0.200,0.300,1.000,General,3150.923,32746.310
 Lights Internal Gains Nominal, SP-SPORTS ARENA PLAYING AREA CLASS I FACILITY(4)-SPACE FUNCTION SYS-6 FLR-2 SCH-B HPLCMT-EAST ZN SPACE FUNCTION SPORTS ARENA PLAYING AREA CLASS I FACILITY(4) LIGHTS,NECB-B-OCCUPANCY-NECB-B-LIGHTING-0.0-0.0-0.67-LIGHT RULESET,SP-SPORTS ARENA PLAYING AREA CLASS I FACILITY(4)-SPACE FUNCTION SYS-6 FLR-2 SCH-B HPLCMT-EAST ZN,1875.00,375.1,49874.579,26.600,132.951,0.000,0.500,0.200,0.300,1.000,General,4987.458,44887.121
 Lights Internal Gains Nominal, SP-SPORTS ARENA PLAYING AREA CLASS II FACILITY(4)-SPACE FUNCTION SYS-6 FLR-2 SCH-B HPLCMT-CORE ZN SPACE FUNCTION SPORTS ARENA PLAYING AREA CLASS II FACILITY(4) LIGHTS,NECB-B-OCCUPANCY-NECB-B-LIGHTING-0.0-0.0-0.67-LIGHT RULESET,SP-SPORTS ARENA PLAYING AREA CLASS II FACILITY(4)-SPACE FUNCTION SYS-6 FLR-2 SCH-B HPLCMT-CORE ZN,2500.00,500.2,52749.566,21.100,105.461,0.000,0.500,0.200,0.300,1.000,General,5274.957,47474.609
 Lights Internal Gains Nominal, SP-SPORTS ARENA PLAYING AREA CLASS III FACILITY(4)-SPACE FUNCTION SYS-6 FLR-4 SCH-B HPLCMT-EAST ZN SPACE FUNCTION SPORTS ARENA PLAYING AREA CLASS III FACILITY(4) LIGHTS,NECB-B-OCCUPANCY-NECB-B-LIGHTING-0.0-0.0-0.67-LIGHT RULESET,SP-SPORTS ARENA PLAYING AREA CLASS III FACILITY(4)-SPACE FUNCTION SYS-6 FLR-4 SCH-B HPLCMT-EAST ZN,1875.00,375.1,34312.205,18.300,91.466,0.000,0.500,0.200,0.300,1.000,General,3431.220,30880.984
 Lights Internal Gains Nominal, SP-SPORTS ARENA PLAYING AREA CLASS IV FACILITY(4)-SPACE FUNCTION SYS-6 FLR-1 SCH-B HPLCMT-NORTH ZN SPACE FUNCTION SPORTS ARENA PLAYING AREA CLASS IV FACILITY(4) LIGHTS,NECB-B-OCCUPANCY-NECB-B-LIGHTING-0.0-0.0-0.67-LIGHT RULESET,SP-SPORTS ARENA PLAYING AREA CLASS IV FACILITY(4)-SPACE FUNCTION SYS-6 FLR-1 SCH-B HPLCMT-NORTH ZN,1875.00,375.1,22874.817,12.200,60.977,0.000,0.500,0.200,0.300,1.000,General,2287.482,20587.335
 Lights Internal Gains Nominal, SP-TRANSPORTATION FACILITY AIRPORT CONCOURSE-SPACE FUNCTION SYS-6 FLR-3 SCH-H HPLCMT-EAST ZN SPACE FUNCTION TRANSPORTATION FACILITY AIRPORT CONCOURSE LIGHTS,NECB-H-LIGHTING,SP-TRANSPORTATION FACILITY AIRPORT CONCOURSE-SPACE FUNCTION SYS-6 FLR-3 SCH-H HPLCMT-EAST ZN,1875.00,93.8,6187.439,3.300,65.975,0.000,0.500,0.200,0.300,1.000,General,5568.695,5568.695
 Lights Internal Gains Nominal, SP-TRANSPORTATION FACILITY BAGGAGE/CAROUSEL AREA-SPACE FUNCTION SYS-6 FLR-1 SCH-H HPLCMT-EAST ZN SPACE FUNCTION TRANSPORTATION FACILITY BAGGAGE/CAROUSEL AREA LIGHTS,NECB-H-LIGHTING,SP-TRANSPORTATION FACILITY BAGGAGE/CAROUSEL AREA-SPACE FUNCTION SYS-6 FLR-1 SCH-H HPLCMT-EAST ZN,1875.00,93.8,8999.928,4.800,95.964,0.000,0.500,0.200,0.300,1.000,General,8099.935,8099.935
 Lights Internal Gains Nominal, SP-TRANSPORTATION FACILITY TERMINAL TICKET COUNTER-SPACE FUNCTION SYS-6 FLR-3 SCH-H HPLCMT-CORE ZN SPACE FUNCTION TRANSPORTATION FACILITY TERMINAL TICKET COUNTER LIGHTS,NECB-H-LIGHTING,SP-TRANSPORTATION FACILITY TERMINAL TICKET COUNTER-SPACE FUNCTION SYS-6 FLR-3 SCH-H HPLCMT-CORE ZN,2500.00,250.1,16749.856,6.700,66.975,0.000,0.500,0.200,0.300,1.000,General,15074.870,15074.870
 Lights Internal Gains Nominal, SP-WAREHOUSE STORAGE AREA MEDIUM TO BULKY PALLETIZED ITEMS-SPACE FUNCTION SYS-4 FLR-1 SCH-A HPLCMT-CORE ZN SPACE FUNCTION WAREHOUSE STORAGE AREA MEDIUM TO BULKY PALLETIZED ITEMS LIGHTS,NECB-A-LIGHTING,SP-WAREHOUSE STORAGE AREA MEDIUM TO BULKY PALLETIZED ITEMS-SPACE FUNCTION SYS-4 FLR-1 SCH-A HPLCMT-CORE ZN,2500.00,25.0,9499.931,3.800,379.859,0.000,0.500,0.200,0.300,1.000,General,474.997,8549.938
 Lights Internal Gains Nominal, SP-WAREHOUSE STORAGE AREA SMALL HAND-CARRIED ITEMS(4)-SPACE FUNCTION SYS-4 FLR-4 SCH-A HPLCMT-NORTH ZN SPACE FUNCTION WAREHOUSE STORAGE AREA SMALL HAND-CARRIED ITEMS(4) LIGHTS,NECB-A-LIGHTING,SP-WAREHOUSE STORAGE AREA SMALL HAND-CARRIED ITEMS(4)-SPACE FUNCTION SYS-4 FLR-4 SCH-A HPLCMT-NORTH ZN,1875.00,37.5,13874.889,7.400,369.863,0.000,0.500,0.200,0.300,1.000,General,693.744,12487.400
! <ElectricEquipment Internal Gains Nominal>,Name,Schedule Name,Zone Name,Zone Floor Area {m2},# Zone Occupants,Equipment Level {W},Equipment/Floor Area {W/m2},Equipment per person {W/person},Fraction Latent,Fraction Radiant,Fraction Lost,Fraction Convected,End-Use SubCategory,Nominal Minimum Equipment Level {W},Nominal Maximum Equipment Level {W}
 ElectricEquipment Internal Gains Nominal, SP-WHOLEBUILDING-AUTOMOTIVE FACILITY SYS-4 FLR-1 SCH-E HPLCMT-SOUTH ZN AUTOMOTIVE FACILITY WHOLEBUILDING ELEC EQUIP,NECB-E-ELECTRIC-EQUIPMENT,SP-WHOLEBUILDING-AUTOMOTIVE FACILITY SYS-4 FLR-1 SCH-E HPLCMT-SOUTH ZN,1875.00,93.8,9378.407,5.002,100.000,0.000,0.500,0.000,0.500,General,468.920,8440.566
 ElectricEquipment Internal Gains Nominal, SP-WHOLEBUILDING-AUTOMOTIVE FACILITY 1 SYS-4 FLR-2 SCH-E HPLCMT-WEST ZN AUTOMOTIVE FACILITY WHOLEBUILDING 1 ELEC EQUIP,NECB-E-ELECTRIC-EQUIPMENT,SP-WHOLEBUILDING-AUTOMOTIVE FACILITY 1 SYS-4 FLR-2 SCH-E HPLCMT-WEST ZN,1875.00,93.8,9378.407,5.002,100.000,0.000,0.500,0.000,0.500,General,468.920,8440.566
 ElectricEquipment Internal Gains Nominal, SP-WHOLEBUILDING-AUTOMOTIVE FACILITY 2 SYS-4 FLR-2 SCH-E HPLCMT-SOUTH ZN AUTOMOTIVE FACILITY WHOLEBUILDING 2 ELEC EQUIP,NECB-E-ELECTRIC-EQUIPMENT,SP-WHOLEBUILDING-AUTOMOTIVE FACILITY 2 SYS-4 FLR-2 SCH-E HPLCMT-SOUTH ZN,1875.00,93.8,9378.407,5.002,100.000,0.000,0.500,0.000,0.500,General,468.920,8440.566
 ElectricEquipment Internal Gains Nominal, SP-MUSEUM RESTORATION ROOM-SPACE FUNCTION SYS-2 FLR-4 SCH-A HPLCMT-CORE ZN SPACE FUNCTION MUSEUM RESTORATION ROOM ELEC EQUIP,NECB-A-ELECTRIC-EQUIPMENT,SP-MUSEUM RESTORATION ROOM-SPACE FUNCTION SYS-2 FLR-4 SCH-A HPLCMT-CORE ZN,2500.00,125.0,12504.543,5.002,100.000,0.000,0.500,0.000,0.500,General,2500.909,11254.088
 ElectricEquipment Internal Gains Nominal, SP-POST OFFICE SORTING AREA-SPACE FUNCTION SYS-6 FLR-3 SCH-A HPLCMT-NORTH ZN SPACE FUNCTION POST OFFICE SORTING AREA ELEC EQUIP,NECB-A-ELECTRIC-EQUIPMENT,SP-POST OFFICE SORTING AREA-SPACE FUNCTION SYS-6 FLR-3 SCH-A HPLCMT-NORTH ZN,1875.00,93.8,14067.611,7.503,150.000,0.000,0.500,0.000,0.500,General,2813.522,12660.850
 ElectricEquipment Internal Gains Nominal, SP-RELIGIOUS BUILDING FELLOWSHIP HALL-SPACE FUNCTION SYS-3 FLR-4 SCH-C HPLCMT-SOUTH ZN SPACE FUNCTION RELIGIOUS BUILDING FELLOWSHIP HALL ELEC EQUIP,NECB-C-ELECTRIC-EQUIPMENT,SP-RELIGIOUS BUILDING FELLOWSHIP HALL-SPACE FUNCTION SYS-3 FLR-4 SCH-C HPLCMT-SOUTH ZN,1875.00,375.1,1875.681,1.000,5.000,0.000,0.500,0.000,0.500,General,93.784,1688.113
 ElectricEquipment Internal Gains Nominal, SP-RELIGIOUS BUILDING WORSHIP/PULPIT/CHOIR AREA-SPACE FUNCTION SYS-3 FLR-3 SCH-I HPLCMT-SOUTH ZN SPACE FUNCTION RELIGIOUS BUILDING WORSHIP/PULPIT/CHOIR AREA ELEC EQUIP,NECB-I-ELECTRIC-EQUIPMENT,SP-RELIGIOUS BUILDING WORSHIP/PULPIT/CHOIR AREA-SPACE FUNCTION SYS-3 FLR-3 SCH-I HPLCMT-SOUTH ZN,1875.00,375.1,1875.681,1.000,5.000,0.000,0.500,0.000,0.500,General,187.568,1500.545
 ElectricEquipment Internal Gains Nominal, SP-RETAIL FACILITY DRESSING/FITTING ROOM-SPACE FUNCTION SYS-6 FLR-3 SCH-C HPLCMT-WEST ZN SPACE FUNCTION RETAIL FACILITY DRESSING/FITTING ROOM ELEC EQUIP,NECB-C-ELECTRIC-EQUIPMENT,SP-RETAIL FACILITY DRESSING/FITTING ROOM-SPACE FUNCTION SYS-6 FLR-3 SCH-C HPLCMT-WEST ZN,1875.00,62.5,4689.204,2.501,75.000,0.000,0.500,0.000,0.500,General,234.460,4220.283
 ElectricEquipment Internal Gains Nominal, SP-RETAIL FACILITY MALL CONCOURSE-SPACE FUNCTION SYS-6 FLR-1 SCH-C HPLCMT-WEST ZN SPACE FUNCTION RETAIL FACILITY MALL CONCOURSE ELEC EQUIP,NECB-C-ELECTRIC-EQUIPMENT,SP-RETAIL FACILITY MALL CONCOURSE-SPACE FUNCTION SYS-6 FLR-1 SCH-C HPLCMT-WEST ZN,1875.00,93.8,1875.681,1.000,20.000,0.000,0.500,0.000,0.500,General,93.784,1688.113
 ElectricEquipment Internal Gains Nominal, SP-SPACE DESIGNED TO ANSI/IES RP-28 CHAPEL (USED PRIMARILY BY RESIDENTS)-SPACE FUNCTION SYS-3 FLR-4 SCH-I HPLCMT-WEST ZN SPACE FUNCTION SPACE DESIGNED TO ANSI/IES RP-28 CHAPEL (USED PRIMARILY BY RESIDENTS) ELEC EQUIP,NECB-I-ELECTRIC-EQUIPMENT,SP-SPACE DESIGNED TO ANSI/IES RP-28 CHAPEL (USED PRIMARILY BY RESIDENTS)-SPACE FUNCTION SYS-3 FLR-4 SCH-I HPLCMT-WEST ZN,1875.00,187.6,1875.681,1.000,10.000,0.000,0.500,0.000,0.500,General,187.568,1500.545
 ElectricEquipment Internal Gains Nominal, SP-SPACE DESIGNED TO ANSI/IES RP-28 RECREATION ROOM (USED PRIMARILY BY RESIDENTS)-SPACE FUNCTION SYS-3 FLR-2 SCH-B HPLCMT-NORTH ZN SPACE FUNCTION SPACE DESIGNED TO ANSI/IES RP-28 RECREATION ROOM (USED PRIMARILY BY RESIDENTS) ELEC EQUIP,NECB-B-ELECTRIC-EQUIPMENT,SP-SPACE DESIGNED TO ANSI/IES RP-28 RECREATION ROOM (USED PRIMARILY BY RESIDENTS)-SPACE FUNCTION SYS-3 FLR-2 SCH-B HPLCMT-NORTH ZN,1875.00,93.8,1875.681,1.000,20.000,0.000,0.500,0.000,0.500,General,187.568,1688.113
 ElectricEquipment Internal Gains Nominal, SP-SPORTS ARENA PLAYING AREA CLASS I FACILITY(4)-SPACE FUNCTION SYS-6 FLR-2 SCH-B HPLCMT-EAST ZN SPACE FUNCTION SPORTS ARENA PLAYING AREA CLASS I FACILITY(4) ELEC EQUIP,NECB-B-ELECTRIC-EQUIPMENT,SP-SPORTS ARENA PLAYING AREA CLASS I FACILITY(4)-SPACE FUNCTION SYS-6 FLR-2 SCH-B HPLCMT-EAST ZN,1875.00,375.1,2813.522,1.501,7.500,0.000,0.500,0.000,0.500,General,281.352,2532.170
 ElectricEquipment Internal Gains Nominal, SP-SPORTS ARENA PLAYING AREA CLASS II FACILITY(4)-SPACE FUNCTION SYS-6 FLR-2 SCH-B HPLCMT-CORE ZN SPACE FUNCTION SPORTS ARENA PLAYING AREA CLASS II FACILITY(4) ELEC EQUIP,NECB-B-ELECTRIC-EQUIPMENT,SP-SPORTS ARENA PLAYING AREA CLASS II FACILITY(4)-SPACE FUNCTION SYS-6 FLR-2 SCH-B HPLCMT-CORE ZN,2500.00,500.2,3751.363,1.501,7.500,0.000,0.500,0.000,0.500,General,375.136,3376.227
 ElectricEquipment Internal Gains Nominal, SP-SPORTS ARENA PLAYING AREA CLASS III FACILITY(4)-SPACE FUNCTION SYS-6 FLR-4 SCH-B HPLCMT-EAST ZN SPACE FUNCTION SPORTS ARENA PLAYING AREA CLASS III FACILITY(4) ELEC EQUIP,NECB-B-ELECTRIC-EQUIPMENT,SP-SPORTS ARENA PLAYING AREA CLASS III FACILITY(4)-SPACE FUNCTION SYS-6 FLR-4 SCH-B HPLCMT-EAST ZN,1875.00,375.1,2813.522,1.501,7.500,0.000,0.500,0.000,0.500,General,281.352,2532.170
 ElectricEquipment Internal Gains Nominal, SP-SPORTS ARENA PLAYING AREA CLASS IV FACILITY(4)-SPACE FUNCTION SYS-6 FLR-1 SCH-B HPLCMT-NORTH ZN SPACE FUNCTION SPORTS ARENA PLAYING AREA CLASS IV FACILITY(4) ELEC EQUIP,NECB-B-ELECTRIC-EQUIPMENT,SP-SPORTS ARENA PLAYING AREA CLASS IV FACILITY(4)-SPACE FUNCTION SYS-6 FLR-1 SCH-B HPLCMT-NORTH ZN,1875.00,375.1,2813.522,1.501,7.500,0.000,0.500,0.000,0.500,General,281.352,2532.170
 ElectricEquipment Internal Gains Nominal, SP-TRANSPORTATION FACILITY BAGGAGE/CAROUSEL AREA-SPACE FUNCTION SYS-6 FLR-1 SCH-H HPLCMT-EAST ZN SPACE FUNCTION TRANSPORTATION FACILITY BAGGAGE/CAROUSEL AREA ELEC EQUIP,NECB-H-ELECTRIC-EQUIPMENT,SP-TRANSPORTATION FACILITY BAGGAGE/CAROUSEL AREA-SPACE FUNCTION SYS-6 FLR-1 SCH-H HPLCMT-EAST ZN,1875.00,93.8,4689.204,2.501,50.000,0.000,0.500,0.000,0.500,General,4220.283,4220.283
 ElectricEquipment Internal Gains Nominal, SP-TRANSPORTATION FACILITY TERMINAL TICKET COUNTER-SPACE FUNCTION SYS-6 FLR-3 SCH-H HPLCMT-CORE ZN SPACE FUNCTION TRANSPORTATION FACILITY TERMINAL TICKET COUNTER ELEC EQUIP,NECB-H-ELECTRIC-EQUIPMENT,SP-TRANSPORTATION FACILITY TERMINAL TICKET COUNTER-SPACE FUNCTION SYS-6 FLR-3 SCH-H HPLCMT-CORE ZN,2500.00,250.1,6252.271,2.501,25.000,0.000,0.500,0.000,0.500,General,5627.044,5627.044
 ElectricEquipment Internal Gains Nominal, SP-WAREHOUSE STORAGE AREA MEDIUM TO BULKY PALLETIZED ITEMS-SPACE FUNCTION SYS-4 FLR-1 SCH-A HPLCMT-CORE ZN SPACE FUNCTION WAREHOUSE STORAGE AREA MEDIUM TO BULKY PALLETIZED ITEMS ELEC EQUIP,NECB-A-ELECTRIC-EQUIPMENT,SP-WAREHOUSE STORAGE AREA MEDIUM TO BULKY PALLETIZED ITEMS-SPACE FUNCTION SYS-4 FLR-1 SCH-A HPLCMT-CORE ZN,2500.00,25.0,2500.909,1.000,100.000,0.000,0.500,0.000,0.500,General,500.182,2250.818
 ElectricEquipment Internal Gains Nominal, SP-WAREHOUSE STORAGE AREA SMALL HAND-CARRIED ITEMS(4)-SPACE FUNCTION SYS-4 FLR-4 SCH-A HPLCMT-NORTH ZN SPACE FUNCTION WAREHOUSE STORAGE AREA SMALL HAND-CARRIED ITEMS(4) ELEC EQUIP,NECB-A-ELECTRIC-EQUIPMENT,SP-WAREHOUSE STORAGE AREA SMALL HAND-CARRIED ITEMS(4)-SPACE FUNCTION SYS-4 FLR-4 SCH-A HPLCMT-NORTH ZN,1875.00,37.5,1875.681,1.000,50.000,0.000,0.500,0.000,0.500,General,375.136,1688.113
! <Shadowing/Sun Position Calculations Annual Simulations>, Calculation Method, Value {days}, Allowable Number Figures in Shadow Overlap {}, Polygon Clipping Algorithm, Sky Diffuse Modeling Algorithm, External Shading Calculation Method, Output External Shading Calculation Results, Disable Self-Shading Within Shading Zone Groups, Disable Self-Shading From Shading Zone Groups to Other Zones
Shadowing/Sun Position Calculations Annual Simulations,AverageOverDaysInFrequency,20,15000,SutherlandHodgman,SimpleSkyDiffuseModeling,InternalCalculation,No,No,No
! <Water Heater Information>,Type,Name,Volume {m3},Maximum Capacity {W},Standard Rated Recovery Efficiency, Standard Rated Energy Factor
! <ZoneInfiltration Airflow Stats Nominal>,Name,Schedule Name,Zone Name, Zone Floor Area {m2}, # Zone Occupants,Design Volume Flow Rate {m3/s},Volume Flow Rate/Floor Area {m3/s/m2},Volume Flow Rate/Exterior Surface Area {m3/s/m2},ACH - Air Changes per Hour,Equation A - Constant Term Coefficient {},Equation B - Temperature Term Coefficient {1/C},Equation C - Velocity Term Coefficient {s/m}, Equation D - Velocity Squared Term Coefficient {s2/m2}
 ZoneInfiltration Airflow Stats Nominal, MUSEUM RESTORATION ROOM-SPACE FUNCTION INFILTRATION,ALWAYS ON DISCRETE,SP-MUSEUM RESTORATION ROOM-SPACE FUNCTION SYS-2 FLR-4 SCH-A HPLCMT-CORE ZN,2500.00,125.0,0.625,2.500E-004,2.500E-004,0.237,0.000,0.000,0.224,0.000
 ZoneInfiltration Airflow Stats Nominal, POST OFFICE SORTING AREA-SPACE FUNCTION INFILTRATION,ALWAYS ON DISCRETE,SP-POST OFFICE SORTING AREA-SPACE FUNCTION SYS-6 FLR-3 SCH-A HPLCMT-NORTH ZN,1875.00,93.8,9.500E-002,5.067E-005,2.500E-004,4.800E-002,0.000,0.000,0.224,0.000
 ZoneInfiltration Airflow Stats Nominal, RELIGIOUS BUILDING FELLOWSHIP HALL-SPACE FUNCTION INFILTRATION,ALWAYS ON DISCRETE,SP-RELIGIOUS BUILDING FELLOWSHIP HALL-SPACE FUNCTION SYS-3 FLR-4 SCH-C HPLCMT-SOUTH ZN,1875.00,375.1,0.564,3.007E-004,2.500E-004,0.285,0.000,0.000,0.224,0.000
 ZoneInfiltration Airflow Stats Nominal, RELIGIOUS BUILDING WORSHIP/PULPIT/CHOIR AREA-SPACE FUNCTION INFILTRATION,ALWAYS ON DISCRETE,SP-RELIGIOUS BUILDING WORSHIP/PULPIT/CHOIR AREA-SPACE FUNCTION SYS-3 FLR-3 SCH-I HPLCMT-SOUTH ZN,1875.00,375.1,9.500E-002,5.067E-005,2.500E-004,4.800E-002,0.000,0.000,0.224,0.000
 ZoneInfiltration Airflow Stats Nominal, RETAIL FACILITY DRESSING/FITTING ROOM-SPACE FUNCTION INFILTRATION,ALWAYS ON DISCRETE,SP-RETAIL FACILITY DRESSING/FITTING ROOM-SPACE FUNCTION SYS-6 FLR-3 SCH-C HPLCMT-WEST ZN,1875.00,62.5,9.500E-002,5.067E-005,2.500E-004,4.800E-002,0.000,0.000,0.224,0.000
 ZoneInfiltration Airflow Stats Nominal, SPACE DESIGNED TO ANSI/IES RP-28 CHAPEL (USED PRIMARILY BY RESIDENTS)-SPACE FUNCTION INFILTRATION,ALWAYS ON DISCRETE,SP-SPACE DESIGNED TO ANSI/IES RP-28 CHAPEL (USED PRIMARILY BY RESIDENTS)-SPACE FUNCTION SYS-3 FLR-4 SCH-I HPLCMT-WEST ZN,1875.00,187.6,0.564,3.007E-004,2.500E-004,0.285,0.000,0.000,0.224,0.000
 ZoneInfiltration Airflow Stats Nominal, SPACE DESIGNED TO ANSI/IES RP-28 RECREATION ROOM (USED PRIMARILY BY RESIDENTS)-SPACE FUNCTION INFILTRATION,ALWAYS ON DISCRETE,SP-SPACE DESIGNED TO ANSI/IES RP-28 RECREATION ROOM (USED PRIMARILY BY RESIDENTS)-SPACE FUNCTION SYS-3 FLR-2 SCH-B HPLCMT-NORTH ZN,1875.00,93.8,9.500E-002,5.067E-005,2.500E-004,4.800E-002,0.000,0.000,0.224,0.000
 ZoneInfiltration Airflow Stats Nominal, SPORTS ARENA PLAYING AREA CLASS I FACILITY(4)-SPACE FUNCTION INFILTRATION,ALWAYS ON DISCRETE,SP-SPORTS ARENA PLAYING AREA CLASS I FACILITY(4)-SPACE FUNCTION SYS-6 FLR-2 SCH-B HPLCMT-EAST ZN,1875.00,375.1,9.500E-002,5.067E-005,2.500E-004,4.800E-002,0.000,0.000,0.224,0.000
 ZoneInfiltration Airflow Stats Nominal, SPORTS ARENA PLAYING AREA CLASS III FACILITY(4)-SPACE FUNCTION INFILTRATION,ALWAYS ON DISCRETE,SP-SPORTS ARENA PLAYING AREA CLASS III FACILITY(4)-SPACE FUNCTION SYS-6 FLR-4 SCH-B HPLCMT-EAST ZN,1875.00,375.1,0.564,3.007E-004,2.500E-004,0.285,0.000,0.000,0.224,0.000
 ZoneInfiltration Airflow Stats Nominal, TRANSPORTATION FACILITY AIRPORT CONCOURSE-SPACE FUNCTION INFILTRATION,ALWAYS ON DISCRETE,SP-TRANSPORTATION FACILITY AIRPORT CONCOURSE-SPACE FUNCTION SYS-6 FLR-3 SCH-H HPLCMT-EAST ZN,1875.00,93.8,9.500E-002,5.067E-005,2.500E-004,4.800E-002,0.000,0.000,0.224,0.000
 ZoneInfiltration Airflow Stats Nominal, WAREHOUSE STORAGE AREA SMALL HAND-CARRIED ITEMS(4)-SPACE FUNCTION INFILTRATION,ALWAYS ON DISCRETE,SP-WAREHOUSE STORAGE AREA SMALL HAND-CARRIED ITEMS(4)-SPACE FUNCTION SYS-4 FLR-4 SCH-A HPLCMT-NORTH ZN,1875.00,37.5,0.564,3.007E-004,2.500E-004,0.285,0.000,0.000,0.224,0.000
 ZoneInfiltration Airflow Stats Nominal, WHOLEBUILDING-AUTOMOTIVE FACILITY 1 INFILTRATION,ALWAYS ON DISCRETE,SP-WHOLEBUILDING-AUTOMOTIVE FACILITY 1 SYS-4 FLR-2 SCH-E HPLCMT-WEST ZN,1875.00,93.8,9.500E-002,5.067E-005,2.500E-004,4.800E-002,0.000,0.000,0.224,0.000
 ZoneInfiltration Airflow Stats Nominal, WHOLEBUILDING-AUTOMOTIVE FACILITY 2 INFILTRATION,ALWAYS ON DISCRETE,SP-WHOLEBUILDING-AUTOMOTIVE FACILITY 2 SYS-4 FLR-2 SCH-E HPLCMT-SOUTH ZN,1875.00,93.8,9.500E-002,5.067E-005,2.500E-004,4.800E-002,0.000,0.000,0.224,0.000
! <AirFlow Model>, Simple
 AirFlow Model, Simple
! <RoomAir Model>, Zone Name, Mixing/Mundt/UCSDDV/UCSDCV/UCSDUFI/UCSDUFE/User Defined
RoomAir Model,SP-MUSEUM RESTORATION ROOM-SPACE FUNCTION SYS-2 FLR-4 SCH-A HPLCMT-CORE ZN,Mixing/Well-Stirred
RoomAir Model,SP-POST OFFICE SORTING AREA-SPACE FUNCTION SYS-6 FLR-3 SCH-A HPLCMT-NORTH ZN,Mixing/Well-Stirred
RoomAir Model,SP-RELIGIOUS BUILDING FELLOWSHIP HALL-SPACE FUNCTION SYS-3 FLR-4 SCH-C HPLCMT-SOUTH ZN,Mixing/Well-Stirred
RoomAir Model,SP-RELIGIOUS BUILDING WORSHIP/PULPIT/CHOIR AREA-SPACE FUNCTION SYS-3 FLR-3 SCH-I HPLCMT-SOUTH ZN,Mixing/Well-Stirred
RoomAir Model,SP-RETAIL FACILITY DRESSING/FITTING ROOM-SPACE FUNCTION SYS-6 FLR-3 SCH-C HPLCMT-WEST ZN,Mixing/Well-Stirred
RoomAir Model,SP-RETAIL FACILITY MALL CONCOURSE-SPACE FUNCTION SYS-6 FLR-1 SCH-C HPLCMT-WEST ZN,Mixing/Well-Stirred
RoomAir Model,SP-SPACE DESIGNED TO ANSI/IES RP-28 CHAPEL (USED PRIMARILY BY RESIDENTS)-SPACE FUNCTION SYS-3 FLR-4 SCH-I HPLCMT-WEST ZN,Mixing/Well-Stirred
RoomAir Model,SP-SPACE DESIGNED TO ANSI/IES RP-28 RECREATION ROOM (USED PRIMARILY BY RESIDENTS)-SPACE FUNCTION SYS-3 FLR-2 SCH-B HPLCMT-NORTH ZN,Mixing/Well-Stirred
RoomAir Model,SP-SPORTS ARENA PLAYING AREA CLASS I FACILITY(4)-SPACE FUNCTION SYS-6 FLR-2 SCH-B HPLCMT-EAST ZN,Mixing/Well-Stirred
RoomAir Model,SP-SPORTS ARENA PLAYING AREA CLASS II FACILITY(4)-SPACE FUNCTION SYS-6 FLR-2 SCH-B HPLCMT-CORE ZN,Mixing/Well-Stirred
RoomAir Model,SP-SPORTS ARENA PLAYING AREA CLASS III FACILITY(4)-SPACE FUNCTION SYS-6 FLR-4 SCH-B HPLCMT-EAST ZN,Mixing/Well-Stirred
RoomAir Model,SP-SPORTS ARENA PLAYING AREA CLASS IV FACILITY(4)-SPACE FUNCTION SYS-6 FLR-1 SCH-B HPLCMT-NORTH ZN,Mixing/Well-Stirred
RoomAir Model,SP-TRANSPORTATION FACILITY AIRPORT CONCOURSE-SPACE FUNCTION SYS-6 FLR-3 SCH-H HPLCMT-EAST ZN,Mixing/Well-Stirred
RoomAir Model,SP-TRANSPORTATION FACILITY BAGGAGE/CAROUSEL AREA-SPACE FUNCTION SYS-6 FLR-1 SCH-H HPLCMT-EAST ZN,Mixing/Well-Stirred
RoomAir Model,SP-TRANSPORTATION FACILITY TERMINAL TICKET COUNTER-SPACE FUNCTION SYS-6 FLR-3 SCH-H HPLCMT-CORE ZN,Mixing/Well-Stirred
RoomAir Model,SP-WAREHOUSE STORAGE AREA MEDIUM TO BULKY PALLETIZED ITEMS-SPACE FUNCTION SYS-4 FLR-1 SCH-A HPLCMT-CORE ZN,Mixing/Well-Stirred
RoomAir Model,SP-WAREHOUSE STORAGE AREA SMALL HAND-CARRIED ITEMS(4)-SPACE FUNCTION SYS-4 FLR-4 SCH-A HPLCMT-NORTH ZN,Mixing/Well-Stirred
RoomAir Model,SP-WHOLEBUILDING-AUTOMOTIVE FACILITY 1 SYS-4 FLR-2 SCH-E HPLCMT-WEST ZN,Mixing/Well-Stirred
RoomAir Model,SP-WHOLEBUILDING-AUTOMOTIVE FACILITY 2 SYS-4 FLR-2 SCH-E HPLCMT-SOUTH ZN,Mixing/Well-Stirred
RoomAir Model,SP-WHOLEBUILDING-AUTOMOTIVE FACILITY SYS-4 FLR-1 SCH-E HPLCMT-SOUTH ZN,Mixing/Well-Stirred
! <AirflowNetwork Model:Control>, No Multizone or Distribution/Multizone with Distribution/Multizone without Distribution/Multizone with Distribution only during Fan Operation
AirflowNetwork Model:Control,NoMultizoneOrDistribution
! <Zone Volume Capacitance Multiplier>, Sensible Heat Capacity Multiplier, Moisture Capacity Multiplier, Carbon Dioxide Capacity Multiplier, Generic Contaminant Capacity Multiplier
Zone Volume Capacitance Multiplier,   1.000 ,   1.000,   1.000,   1.000
! <Load Timesteps in Zone Design Calculation Averaging Window>, Value
 Load Timesteps in Zone Design Calculation Averaging Window,    6
! <Heating Sizing Factor Information>, Sizing Factor ID, Value
 Heating Sizing Factor Information, Global,   1.3000    
 Heating Sizing Factor Information, Zone SP-MUSEUM RESTORATION ROOM-SPACE FUNCTION SYS-2 FLR-4 SCH-A HPLCMT-CORE ZN,   1.3000    
 Heating Sizing Factor Information, Zone SP-POST OFFICE SORTING AREA-SPACE FUNCTION SYS-6 FLR-3 SCH-A HPLCMT-NORTH ZN,   1.3000    
 Heating Sizing Factor Information, Zone SP-RELIGIOUS BUILDING FELLOWSHIP HALL-SPACE FUNCTION SYS-3 FLR-4 SCH-C HPLCMT-SOUTH ZN,   1.3000    
 Heating Sizing Factor Information, Zone SP-RELIGIOUS BUILDING WORSHIP/PULPIT/CHOIR AREA-SPACE FUNCTION SYS-3 FLR-3 SCH-I HPLCMT-SOUTH ZN,   1.3000    
 Heating Sizing Factor Information, Zone SP-RETAIL FACILITY DRESSING/FITTING ROOM-SPACE FUNCTION SYS-6 FLR-3 SCH-C HPLCMT-WEST ZN,   1.3000    
 Heating Sizing Factor Information, Zone SP-RETAIL FACILITY MALL CONCOURSE-SPACE FUNCTION SYS-6 FLR-1 SCH-C HPLCMT-WEST ZN,   1.3000    
 Heating Sizing Factor Information, Zone SP-SPACE DESIGNED TO ANSI/IES RP-28 CHAPEL (USED PRIMARILY BY RESIDENTS)-SPACE FUNCTION SYS-3 FLR-4 SCH-I HPLCMT-WEST ZN,   1.3000    
 Heating Sizing Factor Information, Zone SP-SPACE DESIGNED TO ANSI/IES RP-28 RECREATION ROOM (USED PRIMARILY BY RESIDENTS)-SPACE FUNCTION SYS-3 FLR-2 SCH-B HPLCMT-NORTH ZN,   1.3000    
 Heating Sizing Factor Information, Zone SP-SPORTS ARENA PLAYING AREA CLASS I FACILITY(4)-SPACE FUNCTION SYS-6 FLR-2 SCH-B HPLCMT-EAST ZN,   1.3000    
 Heating Sizing Factor Information, Zone SP-SPORTS ARENA PLAYING AREA CLASS II FACILITY(4)-SPACE FUNCTION SYS-6 FLR-2 SCH-B HPLCMT-CORE ZN,   1.3000    
 Heating Sizing Factor Information, Zone SP-SPORTS ARENA PLAYING AREA CLASS III FACILITY(4)-SPACE FUNCTION SYS-6 FLR-4 SCH-B HPLCMT-EAST ZN,   1.3000    
 Heating Sizing Factor Information, Zone SP-SPORTS ARENA PLAYING AREA CLASS IV FACILITY(4)-SPACE FUNCTION SYS-6 FLR-1 SCH-B HPLCMT-NORTH ZN,   1.3000    
 Heating Sizing Factor Information, Zone SP-TRANSPORTATION FACILITY AIRPORT CONCOURSE-SPACE FUNCTION SYS-6 FLR-3 SCH-H HPLCMT-EAST ZN,   1.3000    
 Heating Sizing Factor Information, Zone SP-TRANSPORTATION FACILITY BAGGAGE/CAROUSEL AREA-SPACE FUNCTION SYS-6 FLR-1 SCH-H HPLCMT-EAST ZN,   1.3000    
 Heating Sizing Factor Information, Zone SP-TRANSPORTATION FACILITY TERMINAL TICKET COUNTER-SPACE FUNCTION SYS-6 FLR-3 SCH-H HPLCMT-CORE ZN,   1.3000    
 Heating Sizing Factor Information, Zone SP-WAREHOUSE STORAGE AREA MEDIUM TO BULKY PALLETIZED ITEMS-SPACE FUNCTION SYS-4 FLR-1 SCH-A HPLCMT-CORE ZN,   1.3000    
 Heating Sizing Factor Information, Zone SP-WAREHOUSE STORAGE AREA SMALL HAND-CARRIED ITEMS(4)-SPACE FUNCTION SYS-4 FLR-4 SCH-A HPLCMT-NORTH ZN,   1.3000    
 Heating Sizing Factor Information, Zone SP-WHOLEBUILDING-AUTOMOTIVE FACILITY 1 SYS-4 FLR-2 SCH-E HPLCMT-WEST ZN,   1.3000    
 Heating Sizing Factor Information, Zone SP-WHOLEBUILDING-AUTOMOTIVE FACILITY 2 SYS-4 FLR-2 SCH-E HPLCMT-SOUTH ZN,   1.3000    
 Heating Sizing Factor Information, Zone SP-WHOLEBUILDING-AUTOMOTIVE FACILITY SYS-4 FLR-1 SCH-E HPLCMT-SOUTH ZN,   1.3000    
! <Cooling Sizing Factor Information>, Sizing Factor ID, Value
 Cooling Sizing Factor Information, Global,   1.1000    
 Cooling Sizing Factor Information, Zone SP-MUSEUM RESTORATION ROOM-SPACE FUNCTION SYS-2 FLR-4 SCH-A HPLCMT-CORE ZN,   1.1000    
 Cooling Sizing Factor Information, Zone SP-POST OFFICE SORTING AREA-SPACE FUNCTION SYS-6 FLR-3 SCH-A HPLCMT-NORTH ZN,   1.1000    
 Cooling Sizing Factor Information, Zone SP-RELIGIOUS BUILDING FELLOWSHIP HALL-SPACE FUNCTION SYS-3 FLR-4 SCH-C HPLCMT-SOUTH ZN,   1.1000    
 Cooling Sizing Factor Information, Zone SP-RELIGIOUS BUILDING WORSHIP/PULPIT/CHOIR AREA-SPACE FUNCTION SYS-3 FLR-3 SCH-I HPLCMT-SOUTH ZN,   1.1000    
 Cooling Sizing Factor Information, Zone SP-RETAIL FACILITY DRESSING/FITTING ROOM-SPACE FUNCTION SYS-6 FLR-3 SCH-C HPLCMT-WEST ZN,   1.1000    
 Cooling Sizing Factor Information, Zone SP-RETAIL FACILITY MALL CONCOURSE-SPACE FUNCTION SYS-6 FLR-1 SCH-C HPLCMT-WEST ZN,   1.1000    
 Cooling Sizing Factor Information, Zone SP-SPACE DESIGNED TO ANSI/IES RP-28 CHAPEL (USED PRIMARILY BY RESIDENTS)-SPACE FUNCTION SYS-3 FLR-4 SCH-I HPLCMT-WEST ZN,   1.1000    
 Cooling Sizing Factor Information, Zone SP-SPACE DESIGNED TO ANSI/IES RP-28 RECREATION ROOM (USED PRIMARILY BY RESIDENTS)-SPACE FUNCTION SYS-3 FLR-2 SCH-B HPLCMT-NORTH ZN,   1.1000    
 Cooling Sizing Factor Information, Zone SP-SPORTS ARENA PLAYING AREA CLASS I FACILITY(4)-SPACE FUNCTION SYS-6 FLR-2 SCH-B HPLCMT-EAST ZN,   1.1000    
 Cooling Sizing Factor Information, Zone SP-SPORTS ARENA PLAYING AREA CLASS II FACILITY(4)-SPACE FUNCTION SYS-6 FLR-2 SCH-B HPLCMT-CORE ZN,   1.1000    
 Cooling Sizing Factor Information, Zone SP-SPORTS ARENA PLAYING AREA CLASS III FACILITY(4)-SPACE FUNCTION SYS-6 FLR-4 SCH-B HPLCMT-EAST ZN,   1.1000    
 Cooling Sizing Factor Information, Zone SP-SPORTS ARENA PLAYING AREA CLASS IV FACILITY(4)-SPACE FUNCTION SYS-6 FLR-1 SCH-B HPLCMT-NORTH ZN,   1.1000    
 Cooling Sizing Factor Information, Zone SP-TRANSPORTATION FACILITY AIRPORT CONCOURSE-SPACE FUNCTION SYS-6 FLR-3 SCH-H HPLCMT-EAST ZN,   1.1000    
 Cooling Sizing Factor Information, Zone SP-TRANSPORTATION FACILITY BAGGAGE/CAROUSEL AREA-SPACE FUNCTION SYS-6 FLR-1 SCH-H HPLCMT-EAST ZN,   1.1000    
 Cooling Sizing Factor Information, Zone SP-TRANSPORTATION FACILITY TERMINAL TICKET COUNTER-SPACE FUNCTION SYS-6 FLR-3 SCH-H HPLCMT-CORE ZN,   1.1000    
 Cooling Sizing Factor Information, Zone SP-WAREHOUSE STORAGE AREA MEDIUM TO BULKY PALLETIZED ITEMS-SPACE FUNCTION SYS-4 FLR-1 SCH-A HPLCMT-CORE ZN,   1.1000    
 Cooling Sizing Factor Information, Zone SP-WAREHOUSE STORAGE AREA SMALL HAND-CARRIED ITEMS(4)-SPACE FUNCTION SYS-4 FLR-4 SCH-A HPLCMT-NORTH ZN,   1.1000    
 Cooling Sizing Factor Information, Zone SP-WHOLEBUILDING-AUTOMOTIVE FACILITY 1 SYS-4 FLR-2 SCH-E HPLCMT-WEST ZN,   1.1000    
 Cooling Sizing Factor Information, Zone SP-WHOLEBUILDING-AUTOMOTIVE FACILITY 2 SYS-4 FLR-2 SCH-E HPLCMT-SOUTH ZN,   1.1000    
 Cooling Sizing Factor Information, Zone SP-WHOLEBUILDING-AUTOMOTIVE FACILITY SYS-4 FLR-1 SCH-E HPLCMT-SOUTH ZN,   1.1000    
! <Zone Sizing Information>, Zone Name, Load Type, Calc Des Load {W}, User Des Load {W}, Calc Des Air Flow Rate {m3/s}, User Des Air Flow Rate {m3/s}, Design Day Name, Date/Time of Peak, Temperature at Peak {C}, Humidity Ratio at Peak {kgWater/kgDryAir}, Floor Area {m2}, # Occupants, Calc Outdoor Air Flow Rate {m3/s}, Calc DOAS Heat Addition Rate {W}
 Zone Sizing Information, SP-MUSEUM RESTORATION ROOM-SPACE FUNCTION SYS-2 FLR-4 SCH-A HPLCMT-CORE ZN, Cooling, 64180.90773, 70598.99850, 4.96029, 5.45632, FORT MCMURRAY AP ANN CLG .4% CONDNS DB=>MWB, 7/21 15:00:00, 28.90000, 8.76969E-003, 2500.00000, 125.04543, 2.15900, 0.00000
 Zone Sizing Information, SP-MUSEUM RESTORATION ROOM-SPACE FUNCTION SYS-2 FLR-4 SCH-A HPLCMT-CORE ZN, Heating, 29591.30736, 38468.69957, 1.15817, 2.15900, FORT MCMURRAY AP ANN HTG 99.6% CONDNS DB, 1/21 08:00:00, -36.20000, 1.25811E-004, 2500.00000, 125.04543, 2.15900, 0.00000
 Zone Sizing Information, SP-POST OFFICE SORTING AREA-SPACE FUNCTION SYS-6 FLR-3 SCH-A HPLCMT-NORTH ZN, Cooling, 36755.12419, 40430.63661, 2.84083, 3.12492, FORT MCMURRAY AP ANN CLG .4% CONDNS DB=>MWB, 7/21 16:50:00, 27.32933, 8.76969E-003, 1875.00000, 93.78407, 1.64783, 0.00000
 Zone Sizing Information, SP-POST OFFICE SORTING AREA-SPACE FUNCTION SYS-6 FLR-3 SCH-A HPLCMT-NORTH ZN, Heating, 11861.60042, 15420.08055, 0.46861, 1.64783, FORT MCMURRAY AP ANN HTG 99.6% CONDNS DB, 1/21 08:00:00, -36.20000, 1.25811E-004, 1875.00000, 93.78407, 1.64783, 0.00000
 Zone Sizing Information, SP-RELIGIOUS BUILDING FELLOWSHIP HALL-SPACE FUNCTION SYS-3 FLR-4 SCH-C HPLCMT-SOUTH ZN, Cooling, 73569.28067, 80926.20874, 5.68733, 6.28650, FORT MCMURRAY AP ANN CLG .4% CONDNS DB=>MWB, 7/21 13:30:00, 28.59000, 8.76969E-003, 1875.00000, 375.13628, 6.28650, 0.00000
 Zone Sizing Information, SP-RELIGIOUS BUILDING FELLOWSHIP HALL-SPACE FUNCTION SYS-3 FLR-4 SCH-C HPLCMT-SOUTH ZN, Heating, 39938.94130, 51920.62369, 1.58690, 6.28650, FORT MCMURRAY AP ANN HTG 99.6% CONDNS DB, 1/21 09:00:00, -36.20000, 1.25811E-004, 1875.00000, 375.13628, 6.28650, 0.00000
 Zone Sizing Information, SP-RELIGIOUS BUILDING WORSHIP/PULPIT/CHOIR AREA-SPACE FUNCTION SYS-3 FLR-3 SCH-I HPLCMT-SOUTH ZN, Cooling, 52441.63331, 57685.79665, 3.59359, 6.28650, FORT MCMURRAY AP ANN CLG .4% CONDNS DB=>MWB, 7/21 15:00:00, 28.90000, 8.76969E-003, 1875.00000, 375.13628, 6.28650, 0.00000
 Zone Sizing Information, SP-RELIGIOUS BUILDING WORSHIP/PULPIT/CHOIR AREA-SPACE FUNCTION SYS-3 FLR-3 SCH-I HPLCMT-SOUTH ZN, Heating, 15623.96253, 20311.15129, 0.60315, 6.28650, FORT MCMURRAY AP ANN HTG 99.6% CONDNS DB, 1/21 16:00:00, -36.20000, 1.25811E-004, 1875.00000, 375.13628, 6.28650, 0.00000
 Zone Sizing Information, SP-RETAIL FACILITY DRESSING/FITTING ROOM-SPACE FUNCTION SYS-6 FLR-3 SCH-C HPLCMT-WEST ZN, Cooling, 45483.48429, 50031.83272, 3.51530, 3.86683, FORT MCMURRAY AP ANN CLG .4% CONDNS DB=>MWB, 7/21 18:00:00, 25.92400, 8.76969E-003, 1875.00000, 62.52271, 2.21933, 0.00000
 Zone Sizing Information, SP-RETAIL FACILITY DRESSING/FITTING ROOM-SPACE FUNCTION SYS-6 FLR-3 SCH-C HPLCMT-WEST ZN, Heating, 25422.06131, 33048.67970, 0.99960, 2.21933, FORT MCMURRAY AP ANN HTG 99.6% CONDNS DB, 1/21 09:00:00, -36.20000, 1.25811E-004, 1875.00000, 62.52271, 2.21933, 0.00000
 Zone Sizing Information, SP-RETAIL FACILITY MALL CONCOURSE-SPACE FUNCTION SYS-6 FLR-1 SCH-C HPLCMT-WEST ZN, Cooling, 21507.24681, 23657.97149, 1.66229, 3.42900, FORT MCMURRAY AP ANN CLG .4% CONDNS DB=>MWB, 7/21 17:00:00, 27.16400, 8.76969E-003, 1875.00000, 93.78407, 3.42900, 0.00000
 Zone Sizing Information, SP-RETAIL FACILITY MALL CONCOURSE-SPACE FUNCTION SYS-6 FLR-1 SCH-C HPLCMT-WEST ZN, Heating, 0.00000, 0.00000, 0.00000, 3.42900, FORT MCMURRAY AP ANN HTG 99.6% CONDNS DB, , -36.20000, 1.25811E-004, 1875.00000, 93.78407, 3.42900, 0.00000
 Zone Sizing Information, SP-SPACE DESIGNED TO ANSI/IES RP-28 CHAPEL (USED PRIMARILY BY RESIDENTS)-SPACE FUNCTION SYS-3 FLR-4 SCH-I HPLCMT-WEST ZN, Cooling, 77602.39484, 85362.63432, 5.11229, 6.28650, FORT MCMURRAY AP ANN CLG .4% CONDNS DB=>MWB, 7/21 15:00:00, 28.90000, 8.76969E-003, 1875.00000, 187.56814, 6.28650, 0.00000
 Zone Sizing Information, SP-SPACE DESIGNED TO ANSI/IES RP-28 CHAPEL (USED PRIMARILY BY RESIDENTS)-SPACE FUNCTION SYS-3 FLR-4 SCH-I HPLCMT-WEST ZN, Heating, 39442.66456, 51275.46392, 1.56631, 6.28650, FORT MCMURRAY AP ANN HTG 99.6% CONDNS DB, 1/21 16:00:00, -36.20000, 1.25811E-004, 1875.00000, 187.56814, 6.28650, 0.00000
 Zone Sizing Information, SP-SPACE DESIGNED TO ANSI/IES RP-28 RECREATION ROOM (USED PRIMARILY BY RESIDENTS)-SPACE FUNCTION SYS-3 FLR-2 SCH-B HPLCMT-NORTH ZN, Cooling, 38419.81412, 42261.79553, 2.96933, 6.85800, FORT MCMURRAY AP ANN CLG .4% CONDNS DB=>MWB, 7/21 20:20:00, 22.32800, 8.76969E-003, 1875.00000, 93.78407, 6.85800, 0.00000
 Zone Sizing Information, SP-SPACE DESIGNED TO ANSI/IES RP-28 RECREATION ROOM (USED PRIMARILY BY RESIDENTS)-SPACE FUNCTION SYS-3 FLR-2 SCH-B HPLCMT-NORTH ZN, Heating, 0.00000, 0.00000, 0.00000, 6.85800, FORT MCMURRAY AP ANN HTG 99.6% CONDNS DB, , -36.20000, 1.25811E-004, 1875.00000, 93.78407, 6.85800, 0.00000
 Zone Sizing Information, SP-SPORTS ARENA PLAYING AREA CLASS I FACILITY(4)-SPACE FUNCTION SYS-6 FLR-2 SCH-B HPLCMT-EAST ZN, Cooling, 63523.43343, 69875.77677, 4.91076, 5.40183, FORT MCMURRAY AP ANN CLG .4% CONDNS DB=>MWB, 7/21 13:00:00, 28.28000, 8.76969E-003, 1875.00000, 375.13628, 2.85750, 0.00000
 Zone Sizing Information, SP-SPORTS ARENA PLAYING AREA CLASS I FACILITY(4)-SPACE FUNCTION SYS-6 FLR-2 SCH-B HPLCMT-EAST ZN, Heating, 0.00000, 0.00000, 0.00000, 2.85750, FORT MCMURRAY AP ANN HTG 99.6% CONDNS DB, , -36.20000, 1.25811E-004, 1875.00000, 375.13628, 2.85750, 0.00000
 Zone Sizing Information, SP-SPORTS ARENA PLAYING AREA CLASS II FACILITY(4)-SPACE FUNCTION SYS-6 FLR-2 SCH-B HPLCMT-CORE ZN, Cooling, 65419.95098, 71961.94608, 5.05697, 5.56267, FORT MCMURRAY AP ANN CLG .4% CONDNS DB=>MWB, 7/21 22:00:00, 20.46800, 8.76969E-003, 2500.00000, 500.18171, 3.81000, 0.00000
 Zone Sizing Information, SP-SPORTS ARENA PLAYING AREA CLASS II FACILITY(4)-SPACE FUNCTION SYS-6 FLR-2 SCH-B HPLCMT-CORE ZN, Heating, 0.00000, 0.00000, 0.00000, 3.81000, FORT MCMURRAY AP ANN HTG 99.6% CONDNS DB, , -36.20000, 1.25811E-004, 2500.00000, 500.18171, 3.81000, 0.00000
 Zone Sizing Information, SP-SPORTS ARENA PLAYING AREA CLASS III FACILITY(4)-SPACE FUNCTION SYS-6 FLR-4 SCH-B HPLCMT-EAST ZN, Cooling, 78939.03895, 86832.94284, 6.10243, 6.71267, FORT MCMURRAY AP ANN CLG .4% CONDNS DB=>MWB, 7/21 13:00:00, 28.28000, 8.76969E-003, 1875.00000, 375.13628, 2.85750, 0.00000
 Zone Sizing Information, SP-SPORTS ARENA PLAYING AREA CLASS III FACILITY(4)-SPACE FUNCTION SYS-6 FLR-4 SCH-B HPLCMT-EAST ZN, Heating, 28949.59099, 37634.46829, 1.04518, 2.85750, FORT MCMURRAY AP ANN HTG 99.6% CONDNS DB, 1/21 09:00:00, -36.20000, 1.25811E-004, 1875.00000, 375.13628, 2.85750, 0.00000
 Zone Sizing Information, SP-SPORTS ARENA PLAYING AREA CLASS IV FACILITY(4)-SPACE FUNCTION SYS-6 FLR-1 SCH-B HPLCMT-NORTH ZN, Cooling, 39830.05903, 43813.06493, 3.07887, 3.38675, FORT MCMURRAY AP ANN CLG .4% CONDNS DB=>MWB, 7/21 22:00:00, 20.46800, 8.76969E-003, 1875.00000, 375.13628, 2.85750, 0.00000
 Zone Sizing Information, SP-SPORTS ARENA PLAYING AREA CLASS IV FACILITY(4)-SPACE FUNCTION SYS-6 FLR-1 SCH-B HPLCMT-NORTH ZN, Heating, 0.00000, 0.00000, 0.00000, 2.85750, FORT MCMURRAY AP ANN HTG 99.6% CONDNS DB, , -36.20000, 1.25811E-004, 1875.00000, 375.13628, 2.85750, 0.00000
 Zone Sizing Information, SP-TRANSPORTATION FACILITY AIRPORT CONCOURSE-SPACE FUNCTION SYS-6 FLR-3 SCH-H HPLCMT-EAST ZN, Cooling, 40669.44379, 44736.38817, 3.14339, 7.71525, FORT MCMURRAY AP ANN CLG .4% CONDNS DB=>MWB, 7/21 09:30:00, 23.13400, 8.76969E-003, 1875.00000, 93.78407, 7.71525, 0.00000
 Zone Sizing Information, SP-TRANSPORTATION FACILITY AIRPORT CONCOURSE-SPACE FUNCTION SYS-6 FLR-3 SCH-H HPLCMT-EAST ZN, Heating, 0.00000, 0.00000, 0.00000, 7.71525, FORT MCMURRAY AP ANN HTG 99.6% CONDNS DB, , -36.20000, 1.25811E-004, 1875.00000, 93.78407, 7.71525, 0.00000
 Zone Sizing Information, SP-TRANSPORTATION FACILITY BAGGAGE/CAROUSEL AREA-SPACE FUNCTION SYS-6 FLR-1 SCH-H HPLCMT-EAST ZN, Cooling, 22041.23407, 24245.35748, 1.70360, 1.87396, FORT MCMURRAY AP ANN CLG .4% CONDNS DB=>MWB, 7/21 11:50:00, 27.08133, 8.76969E-003, 1875.00000, 93.78407, 1.64783, 0.00000
 Zone Sizing Information, SP-TRANSPORTATION FACILITY BAGGAGE/CAROUSEL AREA-SPACE FUNCTION SYS-6 FLR-1 SCH-H HPLCMT-EAST ZN, Heating, 0.00000, 0.00000, 0.00000, 1.64783, FORT MCMURRAY AP ANN HTG 99.6% CONDNS DB, , -36.20000, 1.25811E-004, 1875.00000, 93.78407, 1.64783, 0.00000
 Zone Sizing Information, SP-TRANSPORTATION FACILITY TERMINAL TICKET COUNTER-SPACE FUNCTION SYS-6 FLR-3 SCH-H HPLCMT-CORE ZN, Cooling, 43760.86735, 48136.95409, 3.38273, 3.72100, FORT MCMURRAY AP ANN CLG .4% CONDNS DB=>MWB, 7/21 18:00:00, 25.92400, 8.76969E-003, 2500.00000, 250.09086, 2.19710, 0.00000
 Zone Sizing Information, SP-TRANSPORTATION FACILITY TERMINAL TICKET COUNTER-SPACE FUNCTION SYS-6 FLR-3 SCH-H HPLCMT-CORE ZN, Heating, 0.00000, 0.00000, 0.00000, 2.19710, FORT MCMURRAY AP ANN HTG 99.6% CONDNS DB, , -36.20000, 1.25811E-004, 2500.00000, 250.09086, 2.19710, 0.00000
 Zone Sizing Information, SP-WAREHOUSE STORAGE AREA MEDIUM TO BULKY PALLETIZED ITEMS-SPACE FUNCTION SYS-4 FLR-1 SCH-A HPLCMT-CORE ZN, Cooling, 21689.01299, 23857.91429, 1.56508, 1.72159, FORT MCMURRAY AP ANN CLG .4% CONDNS DB=>MWB, 7/21 07:00:00, 17.61600, 8.76969E-003, 2500.00000, 25.00909, 0.76200, 0.00000
 Zone Sizing Information, SP-WAREHOUSE STORAGE AREA MEDIUM TO BULKY PALLETIZED ITEMS-SPACE FUNCTION SYS-4 FLR-1 SCH-A HPLCMT-CORE ZN, Heating, 0.00000, 0.00000, 0.00000, 0.76200, FORT MCMURRAY AP ANN HTG 99.6% CONDNS DB, , -36.20000, 1.25811E-004, 2500.00000, 25.00909, 0.76200, 0.00000
 Zone Sizing Information, SP-WAREHOUSE STORAGE AREA SMALL HAND-CARRIED ITEMS(4)-SPACE FUNCTION SYS-4 FLR-4 SCH-A HPLCMT-NORTH ZN, Cooling, 42369.08178, 46605.98996, 3.27445, 3.60189, FORT MCMURRAY AP ANN CLG .4% CONDNS DB=>MWB, 7/21 14:30:00, 28.90000, 8.76969E-003, 1875.00000, 37.51363, 0.57150, 0.00000
 Zone Sizing Information, SP-WAREHOUSE STORAGE AREA SMALL HAND-CARRIED ITEMS(4)-SPACE FUNCTION SYS-4 FLR-4 SCH-A HPLCMT-NORTH ZN, Heating, 41920.79231, 54497.03000, 1.66720, 2.16736, FORT MCMURRAY AP ANN HTG 99.6% CONDNS DB, 1/21 08:00:00, -36.20000, 1.25811E-004, 1875.00000, 37.51363, 0.57150, 0.00000
 Zone Sizing Information, SP-WHOLEBUILDING-AUTOMOTIVE FACILITY 1 SYS-4 FLR-2 SCH-E HPLCMT-WEST ZN, Cooling, 44743.07285, 49217.38013, 3.45820, 3.80402, FORT MCMURRAY AP ANN CLG .4% CONDNS DB=>MWB, 7/21 18:00:00, 25.92400, 8.76969E-003, 1875.00000, 93.78407, 2.15265, 0.00000
 Zone Sizing Information, SP-WHOLEBUILDING-AUTOMOTIVE FACILITY 1 SYS-4 FLR-2 SCH-E HPLCMT-WEST ZN, Heating, 11745.34761, 15268.95190, 0.45712, 2.15265, FORT MCMURRAY AP ANN HTG 99.6% CONDNS DB, 1/21 09:00:00, -36.20000, 1.25811E-004, 1875.00000, 93.78407, 2.15265, 0.00000
 Zone Sizing Information, SP-WHOLEBUILDING-AUTOMOTIVE FACILITY 2 SYS-4 FLR-2 SCH-E HPLCMT-SOUTH ZN, Cooling, 41501.77477, 45651.95225, 3.20772, 3.52849, FORT MCMURRAY AP ANN CLG .4% CONDNS DB=>MWB, 7/21 13:50:00, 28.79667, 8.76969E-003, 1875.00000, 93.78407, 2.15265, 0.00000
 Zone Sizing Information, SP-WHOLEBUILDING-AUTOMOTIVE FACILITY 2 SYS-4 FLR-2 SCH-E HPLCMT-SOUTH ZN, Heating, 7974.42463, 10366.75202, 0.31220, 2.15265, FORT MCMURRAY AP ANN HTG 99.6% CONDNS DB, 1/21 09:00:00, -36.20000, 1.25811E-004, 1875.00000, 93.78407, 2.15265, 0.00000
 Zone Sizing Information, SP-WHOLEBUILDING-AUTOMOTIVE FACILITY SYS-4 FLR-1 SCH-E HPLCMT-SOUTH ZN, Cooling, 24995.52586, 27495.07844, 1.93190, 2.15265, FORT MCMURRAY AP ANN CLG .4% CONDNS DB=>MWB, 7/21 16:00:00, 28.15600, 8.76969E-003, 1875.00000, 93.78407, 2.15265, 0.00000
 Zone Sizing Information, SP-WHOLEBUILDING-AUTOMOTIVE FACILITY SYS-4 FLR-1 SCH-E HPLCMT-SOUTH ZN, Heating, 0.00000, 0.00000, 0.00000, 2.15265, FORT MCMURRAY AP ANN HTG 99.6% CONDNS DB, , -36.20000, 1.25811E-004, 1875.00000, 93.78407, 2.15265, 0.00000
! <System Sizing Information>, System Name, Load Type, Peak Load Kind, User Design Capacity, Calc Des Air Flow Rate [m3/s], User Des Air Flow Rate [m3/s], Design Day Name, Date/Time of Peak
 System Sizing Information, SYS_2_MAKE-UP AIR UNIT, Cooling, Sensible, 81760.58, 5.45632, 5.45632, FORT MCMURRAY AP ANN CLG .4% CONDNS DB=>MWB, 7/21 00:00:00
 System Sizing Information, SYS_2_MAKE-UP AIR UNIT, Heating, Sensible, 123270.08, 2.15900, 2.15900, FORT MCMURRAY AP ANN HTG 99.6% CONDNS DB, 1/21 00:10:00
 System Sizing Information, SYS_3_PSZ SP-RELIGIOUS BUILDING FELLOWSHIP HALL-SPACE FUNCTION SYS-3 FLR-4 SCH-C HPLCMT-SOUTH ZN, Cooling, Sensible, 113504.52, 6.28650, 6.28650, FORT MCMURRAY AP ANN CLG .4% CONDNS DB=>MWB, 7/21 05:00:00
 System Sizing Information, SYS_3_PSZ SP-RELIGIOUS BUILDING FELLOWSHIP HALL-SPACE FUNCTION SYS-3 FLR-4 SCH-C HPLCMT-SOUTH ZN, Heating, Sensible, 576623.34, 6.28650, 6.28650, FORT MCMURRAY AP ANN HTG 99.6% CONDNS DB, 1/21 00:10:00
 System Sizing Information, SYS_3_PSZ SP-RELIGIOUS BUILDING WORSHIP/PULPIT/CHOIR AREA-SPACE FUNCTION SYS-3 FLR-3 SCH-I HPLCMT-SOUTH ZN, Cooling, Sensible, 115761.50, 6.28650, 6.28650, FORT MCMURRAY AP ANN CLG .4% CONDNS DB=>MWB, 7/21 05:00:00
 System Sizing Information, SYS_3_PSZ SP-RELIGIOUS BUILDING WORSHIP/PULPIT/CHOIR AREA-SPACE FUNCTION SYS-3 FLR-3 SCH-I HPLCMT-SOUTH ZN, Heating, Sensible, 576623.34, 6.28650, 6.28650, FORT MCMURRAY AP ANN HTG 99.6% CONDNS DB, 1/21 00:10:00
 System Sizing Information, SYS_3_PSZ SP-SPACE DESIGNED TO ANSI/IES RP-28 CHAPEL (USED PRIMARILY BY RESIDENTS)-SPACE FUNCTION SYS-3 FLR-4 SCH-I HPLCMT-WEST ZN, Cooling, Sensible, 115761.50, 6.28650, 6.28650, FORT MCMURRAY AP ANN CLG .4% CONDNS DB=>MWB, 7/21 05:00:00
 System Sizing Information, SYS_3_PSZ SP-SPACE DESIGNED TO ANSI/IES RP-28 CHAPEL (USED PRIMARILY BY RESIDENTS)-SPACE FUNCTION SYS-3 FLR-4 SCH-I HPLCMT-WEST ZN, Heating, Sensible, 576623.34, 6.28650, 6.28650, FORT MCMURRAY AP ANN HTG 99.6% CONDNS DB, 1/21 00:10:00
 System Sizing Information, SYS_3_PSZ SP-SPACE DESIGNED TO ANSI/IES RP-28 RECREATION ROOM (USED PRIMARILY BY RESIDENTS)-SPACE FUNCTION SYS-3 FLR-2 SCH-B HPLCMT-NORTH ZN, Cooling, Sensible, 74087.36, 6.85800, 6.85800, FORT MCMURRAY AP ANN CLG .4% CONDNS DB=>MWB, 7/21 05:00:00
 System Sizing Information, SYS_3_PSZ SP-SPACE DESIGNED TO ANSI/IES RP-28 RECREATION ROOM (USED PRIMARILY BY RESIDENTS)-SPACE FUNCTION SYS-3 FLR-2 SCH-B HPLCMT-NORTH ZN, Heating, Sensible, 629043.65, 6.85800, 6.85800, FORT MCMURRAY AP ANN HTG 99.6% CONDNS DB, 1/21 00:10:00
 System Sizing Information, SYS_4_PSZ_SP-WAREHOUSE STORAGE AREA MEDIUM TO BULKY PALLETIZED ITEMS-SPACE FUNCTION SYS-4 FLR-1 SCH-A HPLCMT-CORE ZN, Cooling, Sensible, 16155.03, 1.72159, 1.72159, FORT MCMURRAY AP ANN CLG .4% CONDNS DB=>MWB, 7/21 05:00:00
 System Sizing Information, SYS_4_PSZ_SP-WAREHOUSE STORAGE AREA MEDIUM TO BULKY PALLETIZED ITEMS-SPACE FUNCTION SYS-4 FLR-1 SCH-A HPLCMT-CORE ZN, Heating, Sensible, 69893.74, 0.76200, 0.76200, FORT MCMURRAY AP ANN HTG 99.6% CONDNS DB, 1/21 00:10:00
 System Sizing Information, SYS_4_PSZ_SP-WAREHOUSE STORAGE AREA SMALL HAND-CARRIED ITEMS(4)-SPACE FUNCTION SYS-4 FLR-4 SCH-A HPLCMT-NORTH ZN, Cooling, Sensible, 49128.61, 3.60189, 3.60189, FORT MCMURRAY AP ANN CLG .4% CONDNS DB=>MWB, 7/21 05:00:00
 System Sizing Information, SYS_4_PSZ_SP-WAREHOUSE STORAGE AREA SMALL HAND-CARRIED ITEMS(4)-SPACE FUNCTION SYS-4 FLR-4 SCH-A HPLCMT-NORTH ZN, Heating, Sensible, 91545.33, 2.16736, 2.16736, FORT MCMURRAY AP ANN HTG 99.6% CONDNS DB, 1/21 08:00:00
 System Sizing Information, SYS_4_PSZ_SP-WHOLEBUILDING-AUTOMOTIVE FACILITY 1 SYS-4 FLR-2 SCH-E HPLCMT-WEST ZN, Cooling, Sensible, 53255.71, 3.80402, 3.80402, FORT MCMURRAY AP ANN CLG .4% CONDNS DB=>MWB, 7/21 05:00:00
 System Sizing Information, SYS_4_PSZ_SP-WHOLEBUILDING-AUTOMOTIVE FACILITY 1 SYS-4 FLR-2 SCH-E HPLCMT-WEST ZN, Heating, Sensible, 197449.81, 2.15265, 2.15265, FORT MCMURRAY AP ANN HTG 99.6% CONDNS DB, 1/21 00:10:00
 System Sizing Information, SYS_4_PSZ_SP-WHOLEBUILDING-AUTOMOTIVE FACILITY 2 SYS-4 FLR-2 SCH-E HPLCMT-SOUTH ZN, Cooling, Sensible, 56907.43, 3.52849, 3.52849, FORT MCMURRAY AP ANN CLG .4% CONDNS DB=>MWB, 7/21 05:00:00
 System Sizing Information, SYS_4_PSZ_SP-WHOLEBUILDING-AUTOMOTIVE FACILITY 2 SYS-4 FLR-2 SCH-E HPLCMT-SOUTH ZN, Heating, Sensible, 197449.81, 2.15265, 2.15265, FORT MCMURRAY AP ANN HTG 99.6% CONDNS DB, 1/21 00:10:00
 System Sizing Information, SYS_4_PSZ_SP-WHOLEBUILDING-AUTOMOTIVE FACILITY SYS-4 FLR-1 SCH-E HPLCMT-SOUTH ZN, Cooling, Sensible, 37784.71, 2.15265, 2.15265, FORT MCMURRAY AP ANN CLG .4% CONDNS DB=>MWB, 7/21 05:00:00
 System Sizing Information, SYS_4_PSZ_SP-WHOLEBUILDING-AUTOMOTIVE FACILITY SYS-4 FLR-1 SCH-E HPLCMT-SOUTH ZN, Heating, Sensible, 197449.81, 2.15265, 2.15265, FORT MCMURRAY AP ANN HTG 99.6% CONDNS DB, 1/21 00:10:00
 System Sizing Information, SYS_6_VAV WITH REHEAT, Cooling, Sensible, 115630.21, 8.68971, 8.68971, FORT MCMURRAY AP ANN CLG .4% CONDNS DB=>MWB, 7/21 00:00:00
 System Sizing Information, SYS_6_VAV WITH REHEAT, Heating, Sensible, 453017.55, 7.93433, 7.93433, FORT MCMURRAY AP ANN HTG 99.6% CONDNS DB, 1/21 00:10:00
 System Sizing Information, SYS_6_VAV WITH REHEAT 1, Cooling, Sensible, 142112.66, 10.96450, 10.96450, FORT MCMURRAY AP ANN CLG .4% CONDNS DB=>MWB, 7/21 00:00:00
 System Sizing Information, SYS_6_VAV WITH REHEAT 1, Heating, Sensible, 380687.01, 6.66750, 6.66750, FORT MCMURRAY AP ANN HTG 99.6% CONDNS DB, 1/21 00:10:00
 System Sizing Information, SYS_6_VAV WITH REHEAT 2, Cooling, Sensible, 250621.35, 18.42799, 18.42799, FORT MCMURRAY AP ANN CLG .4% CONDNS DB=>MWB, 7/21 00:00:00
 System Sizing Information, SYS_6_VAV WITH REHEAT 2, Heating, Sensible, 786753.16, 13.77950, 13.77950, FORT MCMURRAY AP ANN HTG 99.6% CONDNS DB, 1/21 00:10:00
 System Sizing Information, SYS_6_VAV WITH REHEAT 3, Cooling, Sensible, 99665.16, 6.71267, 6.71267, FORT MCMURRAY AP ANN CLG .4% CONDNS DB=>MWB, 7/21 00:00:00
 System Sizing Information, SYS_6_VAV WITH REHEAT 3, Heating, Sensible, 163151.58, 2.85750, 2.85750, FORT MCMURRAY AP ANN HTG 99.6% CONDNS DB, 1/21 00:10:00
! <Component Sizing Information>, Component Type, Component Name, Input Field Description, Value
 Component Sizing Information, ZoneHVAC:FourPipeFanCoil, ZONE HVAC FOUR PIPE FAN COIL 1, Design Size Maximum Supply Air Flow Rate [m3/s], 5.45632
 Component Sizing Information, Fan:ConstantVolume, FAN CONSTANT VOLUME 2, Design Size Maximum Flow Rate [m3/s], 5.45632
 Component Sizing Information, ZoneHVAC:FourPipeFanCoil, ZONE HVAC FOUR PIPE FAN COIL 1, Design Size Maximum Outdoor Air Flow Rate [m3/s], 2.15900
 Component Sizing Information, ZoneHVAC:FourPipeFanCoil, ZONE HVAC FOUR PIPE FAN COIL 1, Design Size Maximum Hot Water Flow [m3/s], 2.75561E-003
 Component Sizing Information, ZoneHVAC:FourPipeFanCoil, ZONE HVAC FOUR PIPE FAN COIL 1, Design Size Maximum Cold Water Flow [m3/s], 3.45501E-003
 Component Sizing Information, Coil:Cooling:Water, COIL COOLING WATER 1, Design Size Design Water Flow Rate [m3/s], 3.45501E-003
 Component Sizing Information, Coil:Cooling:Water, COIL COOLING WATER 1, Design Size Design Air Flow Rate [m3/s], 5.45632
 Component Sizing Information, Coil:Cooling:Water, COIL COOLING WATER 1, User-Specified Design Air Flow Rate [m3/s], 5.45632
 Component Sizing Information, Coil:Cooling:Water, COIL COOLING WATER 1, Design Size Design Inlet Air Temperature [C], 25.93829
 Component Sizing Information, Coil:Cooling:Water, COIL COOLING WATER 1, Design Size Design Inlet Water Temperature [C], 7.00000
 Component Sizing Information, Coil:Cooling:Water, COIL COOLING WATER 1, Design Size Design Inlet Air Humidity Ratio, 8.84420E-003
 Component Sizing Information, Coil:Cooling:Water, COIL COOLING WATER 1, Design Size Design Outlet Air Temperature [C], 13.00000
 Component Sizing Information, Coil:Cooling:Water, COIL COOLING WATER 1, Design Size Design Outlet Air Humidity Ratio, 8.50000E-003
! <Water Cooling Coil Capacity Information>,Component Type,Name,Nominal Total Capacity {W},Nominal Sensible Capacity {W},Nominal Latent Capacity {W},Nominal Sensible Heat Ratio, Nominal Coil UA Value {W/C}, Nominal Coil Surface Area {m2}
Water Cooling Coil Capacity Information,Coil:Cooling:Water,COIL COOLING WATER 1,116236.48,83051.94,33184.53,0.71,12480.12,126.58
 Component Sizing Information, Coil:Heating:Water, COIL HEATING WATER 1, Design Size Rated Capacity [W], 184496.79910
 Component Sizing Information, Coil:Heating:Water, COIL HEATING WATER 1, Design Size Maximum Water Flow Rate [m3/s], 2.75561E-003
 Component Sizing Information, Coil:Heating:Water, COIL HEATING WATER 1, Design Size U-Factor Times Area Value [W/K], 2664.01135
! <Water Heating Coil Capacity Information>,Component Type,Name,Nominal Total Capacity {W}
Water Heating Coil Capacity Information,Coil:Heating:Water,COIL HEATING WATER 1,101230.27
 Component Sizing Information, AirTerminal:SingleDuct:Uncontrolled, AIR TERMINAL SINGLE DUCT UNCONTROLLED 1, Design Size Maximum Air Flow Rate [m3/s], 5.45632
 Component Sizing Information, AirTerminal:SingleDuct:VAV:Reheat, AIR TERMINAL SINGLE DUCT VAV REHEAT 6, Design Size Maximum Air Flow Rate [m3/s], 3.12492
 Component Sizing Information, AirTerminal:SingleDuct:VAV:Reheat, AIR TERMINAL SINGLE DUCT VAV REHEAT 6, Design Size Constant Minimum Air Flow Fraction, 0.45721
 Component Sizing Information, AirTerminal:SingleDuct:VAV:Reheat, AIR TERMINAL SINGLE DUCT VAV REHEAT 6, User-Specified Constant Minimum Air Flow Fraction, 0.30000
 Component Sizing Information, AirTerminal:SingleDuct:VAV:Reheat, AIR TERMINAL SINGLE DUCT VAV REHEAT 6, Design Size Minimum Air Flow Rate [m3/s], 0.93748
 Component Sizing Information, AirTerminal:SingleDuct:VAV:Reheat, AIR TERMINAL SINGLE DUCT VAV REHEAT 6, Design Size Maximum Flow per Zone Floor Area during Reheat [m3/s-m2], 4.99987E-004
 Component Sizing Information, AirTerminal:SingleDuct:VAV:Reheat, AIR TERMINAL SINGLE DUCT VAV REHEAT 6, Design Size Maximum Flow Fraction during Reheat [], 0.30000
 Component Sizing Information, AirTerminal:SingleDuct:VAV:Reheat, AIR TERMINAL SINGLE DUCT VAV REHEAT 6, Design Size Maximum Reheat Water Flow Rate [m3/s], 3.85125E-004
 Component Sizing Information, AirTerminal:SingleDuct:VAV:Reheat, AIR TERMINAL SINGLE DUCT VAV REHEAT 6, Design Size Reheat Coil Sizing Air Volume Flow Rate [m3/s], 0.93748
 Component Sizing Information, AirTerminal:SingleDuct:VAV:Reheat, AIR TERMINAL SINGLE DUCT VAV REHEAT 6, Design Size Reheat Coil Sizing Inlet Air Temperature [C], 13.10000
 Component Sizing Information, AirTerminal:SingleDuct:VAV:Reheat, AIR TERMINAL SINGLE DUCT VAV REHEAT 6, Design Size Reheat Coil Sizing Inlet Air Humidity Ratio [kgWater/kgDryAir], 8.00000E-003
 Component Sizing Information, Coil:Heating:Water, COIL HEATING WATER 10, Design Size Rated Capacity [W], 25785.32173
 Component Sizing Information, Coil:Heating:Water, COIL HEATING WATER 10, Design Size Maximum Water Flow Rate [m3/s], 3.85125E-004
 Component Sizing Information, Coil:Heating:Water, COIL HEATING WATER 10, Design Size U-Factor Times Area Value [W/K], 543.11214
Water Heating Coil Capacity Information,Coil:Heating:Water,COIL HEATING WATER 10,24189.57
 Component Sizing Information, ZoneHVAC:Baseboard:Convective:Water, ZONE HVAC BASEBOARD CONVECTIVE WATER 15, Design Size Maximum Water Flow Rate [m3/s], 2.30311E-004
 Component Sizing Information, ZoneHVAC:Baseboard:Convective:Water, ZONE HVAC BASEBOARD CONVECTIVE WATER 15, Design Size U-Factor Times Area Value [W/K], 466.42700
 Component Sizing Information, AirTerminal:SingleDuct:Uncontrolled, AIR TERMINAL SINGLE DUCT UNCONTROLLED 4, Design Size Maximum Air Flow Rate [m3/s], 6.28650
 Component Sizing Information, ZoneHVAC:Baseboard:Convective:Water, ZONE HVAC BASEBOARD CONVECTIVE WATER 3, Design Size Maximum Water Flow Rate [m3/s], 7.75477E-004
 Component Sizing Information, ZoneHVAC:Baseboard:Convective:Water, ZONE HVAC BASEBOARD CONVECTIVE WATER 3, Design Size U-Factor Times Area Value [W/K], 1582.81933
[...]
 Component Sizing Information, Fan:VariableVolume, SYS6 RETURN FAN 2, Design Size Maximum Flow Rate [m3/s], 18.42799
 Component Sizing Information, Controller:OutdoorAir, CONTROLLER OUTDOOR AIR 13, Maximum Outdoor Air Flow Rate [m3/s], 18.42799
 Component Sizing Information, Controller:OutdoorAir, CONTROLLER OUTDOOR AIR 13, Minimum Outdoor Air Flow Rate [m3/s], 13.77950
 Component Sizing Information, HeatExchanger:AirToAir:SensibleAndLatent, SYS_6_VAV WITH REHEAT 2 ERV, Design Size Nominal Supply Air Flow Rate [m3/s], 13.77950
 Component Sizing Information, Coil:Cooling:Water, COIL COOLING WATER 4, Design Size Design Coil Load [W], 311805.23657
 Component Sizing Information, Coil:Cooling:Water, COIL COOLING WATER 4, Design Size Design Water Flow Rate [m3/s], 1.23804E-002
 Component Sizing Information, Coil:Cooling:Water, COIL COOLING WATER 4, Design Size Design Air Flow Rate [m3/s], 18.42799
 Component Sizing Information, Coil:Cooling:Water, COIL COOLING WATER 4, Design Size Design Inlet Air Temperature [C], 24.74308
 Component Sizing Information, Coil:Cooling:Water, COIL COOLING WATER 4, Design Size Design Inlet Water Temperature [C], 7.00000
 Component Sizing Information, Coil:Cooling:Water, COIL COOLING WATER 4, Design Size Design Outlet Air Temperature [C], 13.00000
 Component Sizing Information, Coil:Cooling:Water, COIL COOLING WATER 4, Design Size Design Inlet Air Humidity Ratio, 8.86725E-003
 Component Sizing Information, Coil:Cooling:Water, COIL COOLING WATER 4, Design Size Design Outlet Air Humidity Ratio, 8.76847E-003
Water Cooling Coil Capacity Information,Coil:Cooling:Water,COIL COOLING WATER 4,408549.21,288366.33,120182.88,0.71,44764.31,454.02
 Component Sizing Information, Coil:Heating:Water, COIL HEATING WATER 9, Design Size Rated Capacity [W], 315648.93619
 Component Sizing Information, Coil:Heating:Water, COIL HEATING WATER 9, Design Size Maximum Water Flow Rate [m3/s], 4.71447E-003
 Component Sizing Information, Coil:Heating:Water, COIL HEATING WATER 9, Design Size U-Factor Times Area Value [W/K], 3851.84256
Water Heating Coil Capacity Information,Coil:Heating:Water,COIL HEATING WATER 9,175865.29
 Component Sizing Information, Fan:VariableVolume, SYS6 SUPPLY FAN 2, Design Size Maximum Flow Rate [m3/s], 18.42799
 Component Sizing Information, Controller:WaterCoil, CONTROLLER WATER COIL 13, Maximum Actuated Flow [m3/s], 1.23804E-002
 Component Sizing Information, Controller:WaterCoil, CONTROLLER WATER COIL 13, Controller Convergence Tolerance, 3.84633E-005
 Component Sizing Information, Controller:WaterCoil, CONTROLLER WATER COIL 12, Maximum Actuated Flow [m3/s], 4.71447E-003
 Component Sizing Information, Fan:VariableVolume, SYS6 RETURN FAN 3, Design Size Maximum Flow Rate [m3/s], 6.71267
 Component Sizing Information, Controller:OutdoorAir, CONTROLLER OUTDOOR AIR 14, Maximum Outdoor Air Flow Rate [m3/s], 6.71267
 Component Sizing Information, Controller:OutdoorAir, CONTROLLER OUTDOOR AIR 14, Minimum Outdoor Air Flow Rate [m3/s], 2.85750
 Component Sizing Information, HeatExchanger:AirToAir:SensibleAndLatent, SYS_6_VAV WITH REHEAT 3 ERV, Design Size Nominal Supply Air Flow Rate [m3/s], 2.85750
 Component Sizing Information, Coil:Cooling:Water, COIL COOLING WATER 5, Design Size Design Coil Load [W], 130722.62413
 Component Sizing Information, Coil:Cooling:Water, COIL COOLING WATER 5, Design Size Design Water Flow Rate [m3/s], 5.19041E-003
 Component Sizing Information, Coil:Cooling:Water, COIL COOLING WATER 5, Design Size Design Air Flow Rate [m3/s], 6.71267
 Component Sizing Information, Coil:Cooling:Water, COIL COOLING WATER 5, Design Size Design Inlet Air Temperature [C], 25.82006
 Component Sizing Information, Coil:Cooling:Water, COIL COOLING WATER 5, Design Size Design Inlet Water Temperature [C], 7.00000
 Component Sizing Information, Coil:Cooling:Water, COIL COOLING WATER 5, Design Size Design Outlet Air Temperature [C], 13.00000
 Component Sizing Information, Coil:Cooling:Water, COIL COOLING WATER 5, Design Size Design Inlet Air Humidity Ratio, 9.21367E-003
 Component Sizing Information, Coil:Cooling:Water, COIL COOLING WATER 5, Design Size Design Outlet Air Humidity Ratio, 8.76847E-003
Water Cooling Coil Capacity Information,Coil:Cooling:Water,COIL COOLING WATER 5,160271.17,110257.19,50013.98,0.69,17634.25,178.86
 Component Sizing Information, Coil:Heating:Water, COIL HEATING WATER 14, Design Size Rated Capacity [W], 114979.80144
 Component Sizing Information, Coil:Heating:Water, COIL HEATING WATER 14, Design Size Maximum Water Flow Rate [m3/s], 1.71732E-003
 Component Sizing Information, Coil:Heating:Water, COIL HEATING WATER 14, Design Size U-Factor Times Area Value [W/K], 1403.09072
Water Heating Coil Capacity Information,Coil:Heating:Water,COIL HEATING WATER 14,64061.54
 Component Sizing Information, Fan:VariableVolume, SYS6 SUPPLY FAN 3, Design Size Maximum Flow Rate [m3/s], 6.71267
 Component Sizing Information, Controller:WaterCoil, CONTROLLER WATER COIL 19, Maximum Actuated Flow [m3/s], 5.19041E-003
 Component Sizing Information, Controller:WaterCoil, CONTROLLER WATER COIL 19, Controller Convergence Tolerance, 9.17444E-005
 Component Sizing Information, Controller:WaterCoil, CONTROLLER WATER COIL 18, Maximum Actuated Flow [m3/s], 1.71732E-003
Water Heater Information,WaterHeater:Mixed,866GAL NATURALGAS WATER HEATER - 2090KBTU/HR 0.802 THERM EFF,3.2791,612373.0,0.211,0.2092
 Component Sizing Information, PlantLoop, CHILLED WATER LOOP, Maximum Loop Flow Rate [m3/s], 3.45501E-003
 Component Sizing Information, PlantLoop, CHILLED WATER LOOP, Plant Loop Volume [m3], 0.41460
 Component Sizing Information, Pump:ConstantSpeed, PUMP CONSTANT SPEED 1, Design Flow Rate [m3/s], 3.45501E-003
 Component Sizing Information, Pump:ConstantSpeed, PUMP CONSTANT SPEED 1, Design Power Consumption [W], 1213.12154
 Component Sizing Information, Chiller:Electric:EIR, PRIMARY CHILLER WATERCOOLED SCROLL 25TONS 0.8KW/TON, Design Size Reference Chilled Water Flow Rate [m3/s], 3.45501E-003
 Component Sizing Information, Chiller:Electric:EIR, PRIMARY CHILLER WATERCOOLED SCROLL 25TONS 0.8KW/TON, Design Size Reference Capacity [W], 87014.34957
 Component Sizing Information, Chiller:Electric:EIR, PRIMARY CHILLER WATERCOOLED SCROLL 25TONS 0.8KW/TON, User-Specified Reference Capacity [W], 87014.34957
 Component Sizing Information, Chiller:Electric:EIR, PRIMARY CHILLER WATERCOOLED SCROLL 25TONS 0.8KW/TON, Design Size Reference Condenser Fluid Flow Rate [m3/s], 4.24047E-003
! <Chiller Standard Rating Information>, Component Type, Component Name, IPLV in SI Units {W/W}, IPLV in IP Units {Btu/W-h}
 Chiller Standard Rating Information, Chiller:Electric:EIR, PRIMARY CHILLER WATERCOOLED SCROLL 25TONS 0.8KW/TON, 5.61, 19.14
 Component Sizing Information, Chiller:Electric:EIR, SECONDARY CHILLER WATERCOOLED SCROLL 0TONS 0.8KW/TON, Design Size Reference Chilled Water Flow Rate [m3/s], 3.45501E-003
 Component Sizing Information, Chiller:Electric:EIR, SECONDARY CHILLER WATERCOOLED SCROLL 0TONS 0.8KW/TON, Design Size Reference Capacity [W], 87014.34957
 Component Sizing Information, Chiller:Electric:EIR, SECONDARY CHILLER WATERCOOLED SCROLL 0TONS 0.8KW/TON, User-Specified Reference Capacity [W], 1.00000E-003
 Component Sizing Information, Chiller:Electric:EIR, SECONDARY CHILLER WATERCOOLED SCROLL 0TONS 0.8KW/TON, Design Size Reference Condenser Fluid Flow Rate [m3/s], 4.87330E-011
 Chiller Standard Rating Information, Chiller:Electric:EIR, SECONDARY CHILLER WATERCOOLED SCROLL 0TONS 0.8KW/TON, 5.61, 19.14
 Component Sizing Information, PlantLoop, CHILLED WATER LOOP 1, Maximum Loop Flow Rate [m3/s], 3.09103E-002
 Component Sizing Information, PlantLoop, CHILLED WATER LOOP 1, Plant Loop Volume [m3], 3.70924
 Component Sizing Information, Pump:ConstantSpeed, PUMP CONSTANT SPEED 3, Design Flow Rate [m3/s], 3.09103E-002
 Component Sizing Information, Pump:ConstantSpeed, PUMP CONSTANT SPEED 3, Design Power Consumption [W], 10853.22850
 Component Sizing Information, Chiller:Electric:EIR, PRIMARY CHILLER WATERCOOLED SCROLL 1 223TONS 0.7KW/TON, Design Size Reference Chilled Water Flow Rate [m3/s], 3.09103E-002
 Component Sizing Information, Chiller:Electric:EIR, PRIMARY CHILLER WATERCOOLED SCROLL 1 223TONS 0.7KW/TON, Design Size Reference Capacity [W], 778476.50746
 Component Sizing Information, Chiller:Electric:EIR, PRIMARY CHILLER WATERCOOLED SCROLL 1 223TONS 0.7KW/TON, User-Specified Reference Capacity [W], 783954.05351
 Component Sizing Information, Chiller:Electric:EIR, PRIMARY CHILLER WATERCOOLED SCROLL 1 223TONS 0.7KW/TON, Design Size Reference Condenser Fluid Flow Rate [m3/s], 3.72978E-002
 Chiller Standard Rating Information, Chiller:Electric:EIR, PRIMARY CHILLER WATERCOOLED SCROLL 1 223TONS 0.7KW/TON, 6.45, 22.01
 Component Sizing Information, Chiller:Electric:EIR, SECONDARY CHILLER WATERCOOLED SCROLL 1 0TONS 0.8KW/TON, Design Size Reference Chilled Water Flow Rate [m3/s], 3.09103E-002
 Component Sizing Information, Chiller:Electric:EIR, SECONDARY CHILLER WATERCOOLED SCROLL 1 0TONS 0.8KW/TON, Design Size Reference Capacity [W], 778476.50746
 Component Sizing Information, Chiller:Electric:EIR, SECONDARY CHILLER WATERCOOLED SCROLL 1 0TONS 0.8KW/TON, User-Specified Reference Capacity [W], 1.00000E-003
 Component Sizing Information, Chiller:Electric:EIR, SECONDARY CHILLER WATERCOOLED SCROLL 1 0TONS 0.8KW/TON, Design Size Reference Condenser Fluid Flow Rate [m3/s], 4.87330E-011
 Chiller Standard Rating Information, Chiller:Electric:EIR, SECONDARY CHILLER WATERCOOLED SCROLL 1 0TONS 0.8KW/TON, 5.61, 19.14
 Component Sizing Information, PlantLoop, CONDENSER WATER LOOP, Maximum Loop Flow Rate [m3/s], 4.24047E-003
 Component Sizing Information, PlantLoop, CONDENSER WATER LOOP, Plant Loop Volume [m3], 0.50886
 Component Sizing Information, Pump:ConstantSpeed, PUMP CONSTANT SPEED 2, Design Flow Rate [m3/s], 4.24047E-003
 Component Sizing Information, Pump:ConstantSpeed, PUMP CONSTANT SPEED 2, Design Power Consumption [W], 1276.21231
 Component Sizing Information, CoolingTower:SingleSpeed, COOLING TOWER SINGLE SPEED 1, Design Water Flow Rate [m3/s], 4.24047E-003
 Component Sizing Information, CoolingTower:SingleSpeed, COOLING TOWER SINGLE SPEED 1, Fan Power at Design Air Flow Rate [W], 930.43206
 Component Sizing Information, CoolingTower:SingleSpeed, COOLING TOWER SINGLE SPEED 1, Design Air Flow Rate [m3/s], 2.55850
 Component Sizing Information, CoolingTower:SingleSpeed, COOLING TOWER SINGLE SPEED 1, U-Factor Times Area Value at Design Air Flow Rate [W/C], 4568.80116
 Component Sizing Information, CoolingTower:SingleSpeed, COOLING TOWER SINGLE SPEED 1, Free Convection Regime Air Flow Rate [m3/s], 0.25585
 Component Sizing Information, CoolingTower:SingleSpeed, COOLING TOWER SINGLE SPEED 1, Free Convection U-Factor Times Area Value [W/K], 456.88012
 Component Sizing Information, PlantLoop, CONDENSER WATER LOOP 1, Maximum Loop Flow Rate [m3/s], 3.72978E-002
 Component Sizing Information, PlantLoop, CONDENSER WATER LOOP 1, Plant Loop Volume [m3], 4.47573
 Component Sizing Information, Pump:ConstantSpeed, PUMP CONSTANT SPEED 4, Design Flow Rate [m3/s], 3.72978E-002
 Component Sizing Information, Pump:ConstantSpeed, PUMP CONSTANT SPEED 4, Design Power Consumption [W], 11225.13977
 Component Sizing Information, CoolingTower:SingleSpeed, COOLING TOWER SINGLE SPEED 2, Design Water Flow Rate [m3/s], 3.72978E-002
 Component Sizing Information, CoolingTower:SingleSpeed, COOLING TOWER SINGLE SPEED 2, Design Air Flow Rate [m3/s], 33.43475
 Component Sizing Information, CoolingTower:SingleSpeed, COOLING TOWER SINGLE SPEED 2, U-Factor Times Area Value at Design Air Flow Rate [W/C], 33881.33477
 Component Sizing Information, CoolingTower:SingleSpeed, COOLING TOWER SINGLE SPEED 2, Free Convection Regime Air Flow Rate [m3/s], 3.34348
 Component Sizing Information, CoolingTower:SingleSpeed, COOLING TOWER SINGLE SPEED 2, Free Convection U-Factor Times Area Value [W/K], 3388.13348
 Component Sizing Information, PlantLoop, HOT WATER LOOP, Maximum Loop Flow Rate [m3/s], 2.19386E-002
 Component Sizing Information, PlantLoop, HOT WATER LOOP, Plant Loop Volume [m3], 2.63263
 Component Sizing Information, Pump:VariableSpeed, PUMP VARIABLE SPEED 1, Design Flow Rate [m3/s], 2.19386E-002
 Component Sizing Information, Pump:VariableSpeed, PUMP VARIABLE SPEED 1, Design Power Consumption [W], 6602.64791
 Component Sizing Information, Boiler:HotWater, PRIMARY BOILER 5031KBTU/HR 0.833 COMBUSTION EFF, Design Size Nominal Capacity [W], 1474546.22353
 Component Sizing Information, Boiler:HotWater, PRIMARY BOILER 5031KBTU/HR 0.833 COMBUSTION EFF, User-Specified Nominal Capacity [W], 1474546.22353
 Component Sizing Information, Boiler:HotWater, PRIMARY BOILER 5031KBTU/HR 0.833 COMBUSTION EFF, Design Size Design Water Flow Rate [m3/s], 2.19386E-002
 Component Sizing Information, Boiler:HotWater, SECONDARY BOILER 0KBTU/HR 0.85 AFUE, Design Size Nominal Capacity [W], 1474546.22353
 Component Sizing Information, Boiler:HotWater, SECONDARY BOILER 0KBTU/HR 0.85 AFUE, User-Specified Nominal Capacity [W], 1.00000E-003
 Component Sizing Information, Boiler:HotWater, SECONDARY BOILER 0KBTU/HR 0.85 AFUE, Design Size Design Water Flow Rate [m3/s], 2.19386E-002
 Component Sizing Information, PlantLoop, MAIN SERVICE WATER LOOP, Maximum Loop Flow Rate [m3/s], 1.26474E-003
 Component Sizing Information, PlantLoop, MAIN SERVICE WATER LOOP, Plant Loop Volume [m3], 0.15177
 Component Sizing Information, Pump:ConstantSpeed, SERVICE WATER LOOP PUMP, Design Flow Rate [m3/s], 1.26474E-003
 Component Sizing Information, Pump:ConstantSpeed, SERVICE WATER LOOP PUMP, Design Power Consumption [W], 1691.76122
 Component Sizing Information, WaterHeater:Mixed, 866GAL NATURALGAS WATER HEATER - 2090KBTU/HR 0.802 THERM EFF, Use Side Design Flow Rate [m3/s], 1.26474E-003
! <Environment>,Environment Name,Environment Type, Start Date, End Date, Start DayOfWeek, Duration {#days}, Source:Start DayOfWeek,  Use Daylight Saving, Use Holidays, Apply Weekend Holiday Rule,  Use Rain Values, Use Snow Values
! <Environment:Special Days>, Special Day Name, Special Day Type, Source, Start Date, Duration {#days}
! <Environment:Daylight Saving>, Daylight Saving Indicator, Source, Start Date, End Date
! <Environment:WarmupDays>, NumberofWarmupDays
Environment,RUN PERIOD 1,WeatherFileRunPeriod,01/01,12/31,Sunday,365,Use RunPeriod Specified Day,No,No,No,Yes,Yes
Environment:Daylight Saving,No,RunPeriod Object
Environment:WarmupDays, 25
! <Tabular Report>,Style,Unit Conversion
Tabular Report,HTML,None
! <Warmup Convergence Information>,Zone Name,Environment Type/Name,Average Warmup Temperature Difference {deltaC},Std Dev Warmup Temperature Difference {deltaC},Max Temperature Pass/Fail Convergence,Min Temperature Pass/Fail Convergence,Average Warmup Load Difference {W},Std Dev Warmup Load Difference {W},Heating Load Pass/Fail Convergence,Cooling Load Pass/Fail Convergence
 Warmup Convergence Information,SP-MUSEUM RESTORATION ROOM-SPACE FUNCTION SYS-2 FLR-4 SCH-A HPLCMT-CORE ZN,RunPeriod: RUN PERIOD 1,2.6128069971E-005,2.7490652178E-005,Pass,Pass,4.3148209922E-002,3.6708414384E-002,Pass,Pass
 Warmup Convergence Information,SP-POST OFFICE SORTING AREA-SPACE FUNCTION SYS-6 FLR-3 SCH-A HPLCMT-NORTH ZN,RunPeriod: RUN PERIOD 1,3.7099341227E-002,7.8105742981E-002,Fail,Pass,0.2667524971,0.6638446140,Fail,Fail
 Warmup Convergence Information,SP-RELIGIOUS BUILDING FELLOWSHIP HALL-SPACE FUNCTION SYS-3 FLR-4 SCH-C HPLCMT-SOUTH ZN,RunPeriod: RUN PERIOD 1,5.7126650932E-002,0.2014127574,Pass,Pass,7.4468251829E-002,0.1751443807,Pass,Pass
 Warmup Convergence Information,SP-RELIGIOUS BUILDING WORSHIP/PULPIT/CHOIR AREA-SPACE FUNCTION SYS-3 FLR-3 SCH-I HPLCMT-SOUTH ZN,RunPeriod: RUN PERIOD 1,4.0041076023E-002,0.1027640738,Pass,Pass,3.9103042064E-002,0.1867341517,Pass,Pass
 Warmup Convergence Information,SP-RETAIL FACILITY DRESSING/FITTING ROOM-SPACE FUNCTION SYS-6 FLR-3 SCH-C HPLCMT-WEST ZN,RunPeriod: RUN PERIOD 1,5.6341341102E-002,0.2283844667,Pass,Pass,0.6079370198,4.2628195553,Pass,Fail
 Warmup Convergence Information,SP-RETAIL FACILITY MALL CONCOURSE-SPACE FUNCTION SYS-6 FLR-1 SCH-C HPLCMT-WEST ZN,RunPeriod: RUN PERIOD 1,0.1538581683,0.1562313339,Pass,Pass,0.1681298383,0.4398817344,Fail,Fail
 Warmup Convergence Information,SP-SPACE DESIGNED TO ANSI/IES RP-28 CHAPEL (USED PRIMARILY BY RESIDENTS)-SPACE FUNCTION SYS-3 FLR-4 SCH-I HPLCMT-WEST ZN,RunPeriod: RUN PERIOD 1,5.9717311964E-002,0.2582063877,Pass,Pass,0.3073780326,1.6982258372,Pass,Pass
 Warmup Convergence Information,SP-SPACE DESIGNED TO ANSI/IES RP-28 RECREATION ROOM (USED PRIMARILY BY RESIDENTS)-SPACE FUNCTION SYS-3 FLR-2 SCH-B HPLCMT-NORTH ZN,RunPeriod: RUN PERIOD 1,3.1975829389E-002,0.1222008806,Pass,Pass,5.6062319526E-002,0.2338500477,Fail,Pass
 Warmup Convergence Information,SP-SPORTS ARENA PLAYING AREA CLASS I FACILITY(4)-SPACE FUNCTION SYS-6 FLR-2 SCH-B HPLCMT-EAST ZN,RunPeriod: RUN PERIOD 1,0.3238356602,0.3632117905,Pass,Pass,0.7243091166,1.9117263848,Fail,Fail
 Warmup Convergence Information,SP-SPORTS ARENA PLAYING AREA CLASS II FACILITY(4)-SPACE FUNCTION SYS-6 FLR-2 SCH-B HPLCMT-CORE ZN,RunPeriod: RUN PERIOD 1,0.3148830131,0.3358459090,Pass,Pass,0.6732543195,1.5370858469,Fail,Fail
 Warmup Convergence Information,SP-SPORTS ARENA PLAYING AREA CLASS III FACILITY(4)-SPACE FUNCTION SYS-6 FLR-4 SCH-B HPLCMT-EAST ZN,RunPeriod: RUN PERIOD 1,6.7265376154E-002,0.2008655274,Pass,Pass,0.4409770640,2.8388537791,Fail,Fail
 Warmup Convergence Information,SP-SPORTS ARENA PLAYING AREA CLASS IV FACILITY(4)-SPACE FUNCTION SYS-6 FLR-1 SCH-B HPLCMT-NORTH ZN,RunPeriod: RUN PERIOD 1,0.1714019018,0.1630932605,Pass,Pass,0.1621438305,0.3225091331,Pass,Fail
 Warmup Convergence Information,SP-TRANSPORTATION FACILITY AIRPORT CONCOURSE-SPACE FUNCTION SYS-6 FLR-3 SCH-H HPLCMT-EAST ZN,RunPeriod: RUN PERIOD 1,0.2602601218,0.3459224023,Fail,Pass,0.4475936059,1.0151684891,Fail,Fail
 Warmup Convergence Information,SP-TRANSPORTATION FACILITY BAGGAGE/CAROUSEL AREA-SPACE FUNCTION SYS-6 FLR-1 SCH-H HPLCMT-EAST ZN,RunPeriod: RUN PERIOD 1,0.1253733134,0.1523518365,Pass,Pass,0.1547029730,0.3458000852,Pass,Fail
 Warmup Convergence Information,SP-TRANSPORTATION FACILITY TERMINAL TICKET COUNTER-SPACE FUNCTION SYS-6 FLR-3 SCH-H HPLCMT-CORE ZN,RunPeriod: RUN PERIOD 1,7.8763890203E-002,0.1050187916,Fail,Pass,0.1878202140,0.3438733296,Pass,Fail
 Warmup Convergence Information,SP-WAREHOUSE STORAGE AREA MEDIUM TO BULKY PALLETIZED ITEMS-SPACE FUNCTION SYS-4 FLR-1 SCH-A HPLCMT-CORE ZN,RunPeriod: RUN PERIOD 1,2.8991560089E-003,2.0804532421E-003,Pass,Pass,0.0000000000,0.0000000000,Pass,Pass
 Warmup Convergence Information,SP-WAREHOUSE STORAGE AREA SMALL HAND-CARRIED ITEMS(4)-SPACE FUNCTION SYS-4 FLR-4 SCH-A HPLCMT-NORTH ZN,RunPeriod: RUN PERIOD 1,6.9045882489E-005,7.6474527822E-005,Pass,Pass,8.7087310076E-002,0.1762633941,Pass,Pass
 Warmup Convergence Information,SP-WHOLEBUILDING-AUTOMOTIVE FACILITY 1 SYS-4 FLR-2 SCH-E HPLCMT-WEST ZN,RunPeriod: RUN PERIOD 1,1.6240966106E-002,1.9271536922E-002,Pass,Pass,0.0000000000,0.0000000000,Pass,Pass
 Warmup Convergence Information,SP-WHOLEBUILDING-AUTOMOTIVE FACILITY 2 SYS-4 FLR-2 SCH-E HPLCMT-SOUTH ZN,RunPeriod: RUN PERIOD 1,3.3464951991E-002,4.1489771716E-002,Pass,Pass,0.0000000000,0.0000000000,Pass,Pass
 Warmup Convergence Information,SP-WHOLEBUILDING-AUTOMOTIVE FACILITY SYS-4 FLR-1 SCH-E HPLCMT-SOUTH ZN,RunPeriod: RUN PERIOD 1,6.2213194902E-003,5.6058234736E-003,Pass,Pass,0.0000000000,0.0000000000,Pass,Pass
! <Program Control Information:Threads/Parallel Sims>, Threading Supported,Maximum Number of Threads, Env Set Threads (OMP_NUM_THREADS), EP Env Set Threads (EP_OMP_NUM_THREADS), IDF Set Threads, Number of Threads Used (Interior Radiant Exchange), Number Nominal Surfaces, Number Parallel Sims
Program Control:Threads/Parallel Sims, No,1, N/A, N/A, N/A, N/A, N/A, N/A
End of Data
