Program Version,EnergyPlus, Version 8.9.0-eba93e8e1b, YMD=2019.04.04 17:58
! <Version>, Version ID
 Version, 8.9
! <Timesteps per Hour>, #TimeSteps, Minutes per TimeStep {minutes}
 Timesteps per Hour,  6, 10
! <System Convergence Limits>, Minimum System TimeStep {minutes}, Max HVAC Iterations, Minimum Plant Iterations, Maximum Plant Iterations
 System Convergence Limits, 1, 20, 2, 8
! <Simulation Control>, Do Zone Sizing, Do System Sizing, Do Plant Sizing, Do Design Days, Do Weather Simulation, Do HVAC Sizing Simulation
 Simulation Control, Yes, No, No, Yes, No, No
! <Output Reporting Tolerances>, Tolerance for Time Heating Setpoint Not Met, Tolerance for Zone Cooling Setpoint Not Met Time
 Output Reporting Tolerances, 0.200, 0.200, 
! <Site:GroundTemperature:BuildingSurface>,Jan{C},Feb{C},Mar{C},Apr{C},May{C},Jun{C},Jul{C},Aug{C},Sep{C},Oct{C},Nov{C},Dec{C}
 Site:GroundTemperature:BuildingSurface,  19.53,  19.50,  19.54,  19.60,  20.00,  21.64,  22.23,  22.38,  21.45,  20.12,  19.80,  19.63
! <Site:GroundTemperature:FCfactorMethod>,Jan{C},Feb{C},Mar{C},Apr{C},May{C},Jun{C},Jul{C},Aug{C},Sep{C},Oct{C},Nov{C},Dec{C}
 Site:GroundTemperature:FCfactorMethod, -12.27, -13.66, -11.19,  -7.33,   2.77,  10.57,  15.83,  17.43,  14.70,   8.65,   0.56,  -6.95
! <Site:GroundTemperature:Shallow>,Jan{C},Feb{C},Mar{C},Apr{C},May{C},Jun{C},Jul{C},Aug{C},Sep{C},Oct{C},Nov{C},Dec{C}
 Site:GroundTemperature:Shallow,  13.00,  13.00,  13.00,  13.00,  13.00,  13.00,  13.00,  13.00,  13.00,  13.00,  13.00,  13.00
! <Site:GroundTemperature:Deep>,Jan{C},Feb{C},Mar{C},Apr{C},May{C},Jun{C},Jul{C},Aug{C},Sep{C},Oct{C},Nov{C},Dec{C}
 Site:GroundTemperature:Deep,  16.00,  16.00,  16.00,  16.00,  16.00,  16.00,  16.00,  16.00,  16.00,  16.00,  16.00,  16.00
! <Site:GroundReflectance>,Jan{dimensionless},Feb{dimensionless},Mar{dimensionless},Apr{dimensionless},May{dimensionless},Jun{dimensionless},Jul{dimensionless},Aug{dimensionless},Sep{dimensionless},Oct{dimensionless},Nov{dimensionless},Dec{dimensionless}
 Site:GroundReflectance,  0.20,  0.20,  0.20,  0.20,  0.20,  0.20,  0.20,  0.20,  0.20,  0.20,  0.20,  0.20
! <Site:GroundReflectance:SnowModifier>, Normal, Daylighting {dimensionless}
 Site:GroundReflectance:SnowModifier,   1.000,   1.000
! <Site:GroundReflectance:Snow>,Jan{dimensionless},Feb{dimensionless},Mar{dimensionless},Apr{dimensionless},May{dimensionless},Jun{dimensionless},Jul{dimensionless},Aug{dimensionless},Sep{dimensionless},Oct{dimensionless},Nov{dimensionless},Dec{dimensionless}
 Site:GroundReflectance:Snow,  0.20,  0.20,  0.20,  0.20,  0.20,  0.20,  0.20,  0.20,  0.20,  0.20,  0.20,  0.20
! <Site:GroundReflectance:Snow:Daylighting>,Jan{dimensionless},Feb{dimensionless},Mar{dimensionless},Apr{dimensionless},May{dimensionless},Jun{dimensionless},Jul{dimensionless},Aug{dimensionless},Sep{dimensionless},Oct{dimensionless},Nov{dimensionless},Dec{dimensionless}
 Site:GroundReflectance:Snow:Daylighting,  0.20,  0.20,  0.20,  0.20,  0.20,  0.20,  0.20,  0.20,  0.20,  0.20,  0.20,  0.20
! <Environment:Weather Station>,Wind Sensor Height Above Ground {m},Wind Speed Profile Exponent {},Wind Speed Profile Boundary Layer Thickness {m},Air Temperature Sensor Height Above Ground {m},Wind Speed Modifier Coefficient-Internal,Temperature Modifier Coefficient-Internal
Environment:Weather Station,10.000,0.140,270.000,1.500,1.586,9.750E-003
! <Site:Location>, Location Name, Latitude {N+/S- Deg}, Longitude {E+/W- Deg},  Time Zone Number {GMT+/-}, Elevation {m},  Standard Pressure at Elevation {Pa}, Standard RhoAir at Elevation
Site:Location,Fort McMurray AP AB CAN CWEC2016 WMO#=716890,56.65,-111.22,-7.00,369.10,96969,1.1525
! <Building Information>, Building Name,North Axis {deg},Terrain,  Loads Convergence Tolerance Value,Temperature Convergence Tolerance Value,  Solar Distribution,Maximum Number of Warmup Days,Minimum Number of Warmup Days
 Building Information,Building 1,0.000,Suburbs,4.00000E-002,0.40000,FullExterior,25,6
! <Inside Convection Algorithm>, Algorithm {Simple | TARP | CeilingDiffuser | AdaptiveConvectionAlgorithm}
Inside Convection Algorithm,TARP
! <Outside Convection Algorithm>, Algorithm {SimpleCombined | TARP | MoWitt | DOE-2 | AdaptiveConvectionAlgorithm}
Outside Convection Algorithm,TARP
! <Sky Radiance Distribution>, Value {Anisotropic}
Sky Radiance Distribution,Anisotropic
! <Zone Air Solution Algorithm>, Value {ThirdOrderBackwardDifference | AnalyticalSolution | EulerMethod}
 Zone Air Solution Algorithm, ThirdOrderBackwardDifference
! <Zone Air Carbon Dioxide Balance Simulation>, Simulation {Yes/No}, Carbon Dioxide Concentration
 Zone Air Carbon Dioxide Balance Simulation, No,N/A
! <Zone Air Generic Contaminant Balance Simulation>, Simulation {Yes/No}, Generic Contaminant Concentration
 Zone Air Generic Contaminant Balance Simulation, No,N/A
! <Zone Air Mass Flow Balance Simulation>, Enforce Mass Balance, Adjust Zone Mixing, Adjust Zone Infiltration {AddInfiltration | AdjustInfiltration | None}, Infiltration Zones {MixingSourceZonesOnly | AllZones}
 Zone Air Mass Flow Balance Simulation, No,N/A,N/A,N/A
! <HVACSystemRootFindingAlgorithm>, Value {RegulaFalsi | Bisection | BisectionThenRegulaFalsi | RegulaFalsiThenBisection}
 HVACSystemRootFindingAlgorithm, RegulaFalsi
! <Environment:Site Atmospheric Variation>,Wind Speed Profile Exponent {},Wind Speed Profile Boundary Layer Thickness {m},Air Temperature Gradient Coefficient {K/m}
Environment:Site Atmospheric Variation,0.220,370.000,6.500000E-003
! <Surface Geometry>,Starting Corner,Vertex Input Direction,Coordinate System,Daylight Reference Point Coordinate System,Rectangular (Simple) Surface Coordinate System
 Surface Geometry,UpperLeftCorner,Counterclockwise,RelativeCoordinateSystem,RelativeCoordinateSystem,RelativeToZoneOrigin
! <Surface Heat Transfer Algorithm>, Value {CTF - ConductionTransferFunction | EMPD - MoisturePenetrationDepthConductionTransferFunction | CondFD - ConductionFiniteDifference | HAMT - CombinedHeatAndMoistureFiniteElement} - Description,Inside Surface Max Temperature Limit{C}, Surface Convection Coefficient Lower Limit {W/m2-K}, Surface Convection Coefficient Upper Limit {W/m2-K}
Surface Heat Transfer Algorithm, CTF - ConductionTransferFunction,200,0.10,1000.0
! <Shading Summary>, Number of Fixed Detached Shades, Number of Building Detached Shades, Number of Attached Shades
 Shading Summary,0,0,0
! <Zone Summary>, Number of Zones, Number of Zone Surfaces, Number of SubSurfaces
 Zone Summary,5,30,0
! <Zone Information>,Zone Name,North Axis {deg},Origin X-Coordinate {m},Origin Y-Coordinate {m},Origin Z-Coordinate {m},Centroid X-Coordinate {m},Centroid Y-Coordinate {m},Centroid Z-Coordinate {m},Type,Zone Multiplier,Zone List Multiplier,Minimum X {m},Maximum X {m},Minimum Y {m},Maximum Y {m},Minimum Z {m},Maximum Z {m},Ceiling Height {m},Volume {m3},Zone Inside Convection Algorithm {Simple-Detailed-CeilingDiffuser-TrombeWall},Zone Outside Convection Algorithm {Simple-Detailed-Tarp-MoWitt-DOE-2-BLAST}, Floor Area {m2},Exterior Gross Wall Area {m2},Exterior Net Wall Area {m2},Exterior Window Area {m2}, Number of Surfaces, Number of SubSurfaces, Number of Shading SubSurfaces,  Part of Total Building Area
 Zone Information, WAREHOUSE - FINE - REFRIGERATED-SPACE FUNCTION ZN,0.0,0.00,0.00,0.00,50.00,10.85,1.90,1,1,1,0.00,100.00,0.00,25.00,0.00,3.80,3.80,7125.00,TARP,TARP,1875.00,0.00,0.00,0.00,6,0,0,Yes
 Zone Information, WAREHOUSE - FINE-SPACE FUNCTION ZN,0.0,25.00,25.00,0.00,50.00,50.00,1.90,1,1,1,25.00,75.00,25.00,75.00,0.00,3.80,3.80,9500.00,TARP,TARP,2500.00,0.00,0.00,0.00,6,0,0,Yes
 Zone Information, WAREHOUSE - MED/BLK - REFRIGERATED-SPACE FUNCTION ZN,0.0,25.00,75.00,0.00,50.00,89.15,1.90,1,1,1,0.00,100.00,75.00,100.00,0.00,3.80,3.80,7125.00,TARP,TARP,1875.00,0.00,0.00,0.00,6,0,0,Yes
 Zone Information, WAREHOUSE - MED/BLK-SPACE FUNCTION ZN,0.0,75.00,25.00,0.00,89.15,50.00,1.90,1,1,1,75.00,100.00,0.00,100.00,0.00,3.80,3.80,7125.00,TARP,TARP,1875.00,0.00,0.00,0.00,6,0,0,Yes
 Zone Information, WAREHOUSE - MED/BLK2-SPACE FUNCTION ZN,0.0,0.00,0.00,0.00,10.85,50.00,1.90,1,1,1,0.00,25.00,0.00,100.00,0.00,3.80,3.80,7125.00,TARP,TARP,1875.00,0.00,0.00,0.00,6,0,0,Yes
! <Zone Internal Gains Nominal>,Zone Name, Floor Area {m2},# Occupants,Area per Occupant {m2/person},Occupant per Area {person/m2},Interior Lighting {W/m2},Electric Load {W/m2},Gas Load {W/m2},Other Load {W/m2},Hot Water Eq {W/m2},Steam Equipment {W/m2},Sum Loads per Area {W/m2},Outdoor Controlled Baseboard Heat
 Zone Internal Gains Nominal, WAREHOUSE - FINE - REFRIGERATED-SPACE FUNCTION ZN,1875.00,37.5,49.948,2.002E-002,10.200,1.000,0.000,0.000,0.000,0.000,11.200,No
 Zone Internal Gains Nominal, WAREHOUSE - FINE-SPACE FUNCTION ZN,2500.00,50.1,49.948,2.002E-002,10.200,1.000,0.000,0.000,0.000,0.000,11.200,No
 Zone Internal Gains Nominal, WAREHOUSE - MED/BLK - REFRIGERATED-SPACE FUNCTION ZN,1875.00,18.8,99.896,1.001E-002,6.400,1.000,0.000,0.000,0.000,0.000,7.400,No
 Zone Internal Gains Nominal, WAREHOUSE - MED/BLK-SPACE FUNCTION ZN,1875.00,18.8,99.896,1.001E-002,6.400,1.000,0.000,0.000,0.000,0.000,7.400,No
 Zone Internal Gains Nominal, WAREHOUSE - MED/BLK2-SPACE FUNCTION ZN,1875.00,18.8,99.896,1.001E-002,10.200,1.000,0.000,0.000,0.000,0.000,11.200,No
! <People Internal Gains Nominal>,Name,Schedule Name,Zone Name,Zone Floor Area {m2},# Zone Occupants,Number of People {},People/Floor Area {person/m2},Floor Area per person {m2/person},Fraction Radiant,Fraction Convected,Sensible Fraction Calculation,Activity level,ASHRAE 55 Warnings,Carbon Dioxide Generation Rate,Nominal Minimum Number of People,Nominal Maximum Number of People
 People Internal Gains Nominal, WAREHOUSE - FINE-SPACE FUNCTION ZN SPACE FUNCTION WAREHOUSE - FINE PEOPLE,NECB-A-OCCUPANCY,WAREHOUSE - FINE-SPACE FUNCTION ZN,2500.00,50.1,50.1,2.002E-002,49.948,0.300,0.700,AutoCalculate,NECB-ACTIVITY,No,3.8200E-008,0,45
 People Internal Gains Nominal, WAREHOUSE - FINE - REFRIGERATED-SPACE FUNCTION ZN SPACE FUNCTION WAREHOUSE - FINE - REFRIGERATED PEOPLE,NECB-A-OCCUPANCY,WAREHOUSE - FINE - REFRIGERATED-SPACE FUNCTION ZN,1875.00,37.5,37.5,2.002E-002,49.948,0.300,0.700,AutoCalculate,NECB-ACTIVITY,No,3.8200E-008,0,34
 People Internal Gains Nominal, WAREHOUSE - MED/BLK-SPACE FUNCTION ZN SPACE FUNCTION WAREHOUSE - MED/BLK PEOPLE,NECB-A-OCCUPANCY,WAREHOUSE - MED/BLK-SPACE FUNCTION ZN,1875.00,18.8,18.8,1.001E-002,99.896,0.300,0.700,AutoCalculate,NECB-ACTIVITY,No,3.8200E-008,0,17
 People Internal Gains Nominal, WAREHOUSE - MED/BLK - REFRIGERATED-SPACE FUNCTION ZN SPACE FUNCTION WAREHOUSE - MED/BLK - REFRIGERATED PEOPLE,NECB-A-OCCUPANCY,WAREHOUSE - MED/BLK - REFRIGERATED-SPACE FUNCTION ZN,1875.00,18.8,18.8,1.001E-002,99.896,0.300,0.700,AutoCalculate,NECB-ACTIVITY,No,3.8200E-008,0,17
 People Internal Gains Nominal, WAREHOUSE - MED/BLK2-SPACE FUNCTION ZN SPACE FUNCTION WAREHOUSE - MED/BLK2 PEOPLE,NECB-A-OCCUPANCY,WAREHOUSE - MED/BLK2-SPACE FUNCTION ZN,1875.00,18.8,18.8,1.001E-002,99.896,0.300,0.700,AutoCalculate,NECB-ACTIVITY,No,3.8200E-008,0,17
! <Lights Internal Gains Nominal>,Name,Schedule Name,Zone Name,Zone Floor Area {m2},# Zone Occupants,Lighting Level {W},Lights/Floor Area {W/m2},Lights per person {W/person},Fraction Return Air,Fraction Radiant,Fraction Short Wave,Fraction Convected,Fraction Replaceable,End-Use Category,Nominal Minimum Lighting Level {W},Nominal Maximum Lighting Level {W}
 Lights Internal Gains Nominal, WAREHOUSE - FINE-SPACE FUNCTION ZN SPACE FUNCTION WAREHOUSE - FINE LIGHTS,NECB-A-LIGHTING,WAREHOUSE - FINE-SPACE FUNCTION ZN,2500.00,50.1,25499.788,10.200,509.464,0.000,0.500,0.200,0.300,1.000,General,1274.989,22949.809
 Lights Internal Gains Nominal, WAREHOUSE - FINE - REFRIGERATED-SPACE FUNCTION ZN SPACE FUNCTION WAREHOUSE - FINE - REFRIGERATED LIGHTS,NECB-A-LIGHTING,WAREHOUSE - FINE - REFRIGERATED-SPACE FUNCTION ZN,1875.00,37.5,19124.841,10.200,509.464,0.000,0.500,0.200,0.300,1.000,General,956.242,17212.357
 Lights Internal Gains Nominal, WAREHOUSE - MED/BLK-SPACE FUNCTION ZN SPACE FUNCTION WAREHOUSE - MED/BLK LIGHTS,NECB-A-LIGHTING,WAREHOUSE - MED/BLK-SPACE FUNCTION ZN,1875.00,18.8,11999.900,6.400,639.327,0.000,0.500,0.200,0.300,1.000,General,599.995,10799.910
 Lights Internal Gains Nominal, WAREHOUSE - MED/BLK - REFRIGERATED-SPACE FUNCTION ZN SPACE FUNCTION WAREHOUSE - MED/BLK - REFRIGERATED LIGHTS,NECB-A-LIGHTING,WAREHOUSE - MED/BLK - REFRIGERATED-SPACE FUNCTION ZN,1875.00,18.8,11999.900,6.400,639.327,0.000,0.500,0.200,0.300,1.000,General,599.995,10799.910
 Lights Internal Gains Nominal, WAREHOUSE - MED/BLK2-SPACE FUNCTION ZN SPACE FUNCTION WAREHOUSE - MED/BLK2 LIGHTS,NECB-A-LIGHTING,WAREHOUSE - MED/BLK2-SPACE FUNCTION ZN,1875.00,18.8,19124.841,10.200,1018.928,0.000,0.500,0.200,0.300,1.000,General,956.242,17212.357
! <ElectricEquipment Internal Gains Nominal>,Name,Schedule Name,Zone Name,Zone Floor Area {m2},# Zone Occupants,Equipment Level {W},Equipment/Floor Area {W/m2},Equipment per person {W/person},Fraction Latent,Fraction Radiant,Fraction Lost,Fraction Convected,End-Use SubCategory,Nominal Minimum Equipment Level {W},Nominal Maximum Equipment Level {W}
 ElectricEquipment Internal Gains Nominal, WAREHOUSE - FINE-SPACE FUNCTION ZN SPACE FUNCTION WAREHOUSE - FINE ELEC EQUIP,NECB-A-ELECTRIC-EQUIPMENT,WAREHOUSE - FINE-SPACE FUNCTION ZN,2500.00,50.1,2499.979,1.000,49.947,0.000,0.500,0.000,0.500,General,499.996,2249.981
 ElectricEquipment Internal Gains Nominal, WAREHOUSE - FINE - REFRIGERATED-SPACE FUNCTION ZN SPACE FUNCTION WAREHOUSE - FINE - REFRIGERATED ELEC EQUIP,NECB-A-ELECTRIC-EQUIPMENT,WAREHOUSE - FINE - REFRIGERATED-SPACE FUNCTION ZN,1875.00,37.5,1874.984,1.000,49.947,0.000,0.500,0.000,0.500,General,374.997,1687.486
 ElectricEquipment Internal Gains Nominal, WAREHOUSE - MED/BLK-SPACE FUNCTION ZN SPACE FUNCTION WAREHOUSE - MED/BLK ELEC EQUIP,NECB-A-ELECTRIC-EQUIPMENT,WAREHOUSE - MED/BLK-SPACE FUNCTION ZN,1875.00,18.8,1874.984,1.000,99.895,0.000,0.500,0.000,0.500,General,374.997,1687.486
 ElectricEquipment Internal Gains Nominal, WAREHOUSE - MED/BLK - REFRIGERATED-SPACE FUNCTION ZN SPACE FUNCTION WAREHOUSE - MED/BLK - REFRIGERATED ELEC EQUIP,NECB-A-ELECTRIC-EQUIPMENT,WAREHOUSE - MED/BLK - REFRIGERATED-SPACE FUNCTION ZN,1875.00,18.8,1874.984,1.000,99.895,0.000,0.500,0.000,0.500,General,374.997,1687.486
 ElectricEquipment Internal Gains Nominal, WAREHOUSE - MED/BLK2-SPACE FUNCTION ZN SPACE FUNCTION WAREHOUSE - MED/BLK2 ELEC EQUIP,NECB-A-ELECTRIC-EQUIPMENT,WAREHOUSE - MED/BLK2-SPACE FUNCTION ZN,1875.00,18.8,1874.984,1.000,99.895,0.000,0.500,0.000,0.500,General,374.997,1687.486
! <Shadowing/Sun Position Calculations Annual Simulations>, Calculation Method, Value {days}, Allowable Number Figures in Shadow Overlap {}, Polygon Clipping Algorithm, Sky Diffuse Modeling Algorithm, External Shading Calculation Method, Output External Shading Calculation Results, Disable Self-Shading Within Shading Zone Groups, Disable Self-Shading From Shading Zone Groups to Other Zones
Shadowing/Sun Position Calculations Annual Simulations,AverageOverDaysInFrequency,20,15000,SutherlandHodgman,SimpleSkyDiffuseModeling,InternalCalculation,No,No,No
! <RoomAir Model>, Zone Name, Mixing/Mundt/UCSDDV/UCSDCV/UCSDUFI/UCSDUFE/User Defined
RoomAir Model,WAREHOUSE - FINE - REFRIGERATED-SPACE FUNCTION ZN,Mixing/Well-Stirred
RoomAir Model,WAREHOUSE - FINE-SPACE FUNCTION ZN,Mixing/Well-Stirred
RoomAir Model,WAREHOUSE - MED/BLK - REFRIGERATED-SPACE FUNCTION ZN,Mixing/Well-Stirred
RoomAir Model,WAREHOUSE - MED/BLK-SPACE FUNCTION ZN,Mixing/Well-Stirred
RoomAir Model,WAREHOUSE - MED/BLK2-SPACE FUNCTION ZN,Mixing/Well-Stirred
! <AirflowNetwork Model:Control>, No Multizone or Distribution/Multizone with Distribution/Multizone without Distribution/Multizone with Distribution only during Fan Operation
AirflowNetwork Model:Control,NoMultizoneOrDistribution
! <Zone Volume Capacitance Multiplier>, Sensible Heat Capacity Multiplier, Moisture Capacity Multiplier, Carbon Dioxide Capacity Multiplier, Generic Contaminant Capacity Multiplier
Zone Volume Capacitance Multiplier,   1.000 ,   1.000,   1.000,   1.000
! <Load Timesteps in Zone Design Calculation Averaging Window>, Value
 Load Timesteps in Zone Design Calculation Averaging Window,    6
! <Heating Sizing Factor Information>, Sizing Factor ID, Value
 Heating Sizing Factor Information, Global,   1.2500    
 Heating Sizing Factor Information, Zone WAREHOUSE - FINE - REFRIGERATED-SPACE FUNCTION ZN,   1.2500    
 Heating Sizing Factor Information, Zone WAREHOUSE - FINE-SPACE FUNCTION ZN,   1.2500    
 Heating Sizing Factor Information, Zone WAREHOUSE - MED/BLK - REFRIGERATED-SPACE FUNCTION ZN,   1.2500    
 Heating Sizing Factor Information, Zone WAREHOUSE - MED/BLK-SPACE FUNCTION ZN,   1.2500    
 Heating Sizing Factor Information, Zone WAREHOUSE - MED/BLK2-SPACE FUNCTION ZN,   1.2500    
! <Cooling Sizing Factor Information>, Sizing Factor ID, Value
 Cooling Sizing Factor Information, Global,   1.1500    
 Cooling Sizing Factor Information, Zone WAREHOUSE - FINE - REFRIGERATED-SPACE FUNCTION ZN,   1.1500    
 Cooling Sizing Factor Information, Zone WAREHOUSE - FINE-SPACE FUNCTION ZN,   1.1500    
 Cooling Sizing Factor Information, Zone WAREHOUSE - MED/BLK - REFRIGERATED-SPACE FUNCTION ZN,   1.1500    
 Cooling Sizing Factor Information, Zone WAREHOUSE - MED/BLK-SPACE FUNCTION ZN,   1.1500    
 Cooling Sizing Factor Information, Zone WAREHOUSE - MED/BLK2-SPACE FUNCTION ZN,   1.1500    
! <Zone Sizing Information>, Zone Name, Load Type, Calc Des Load {W}, User Des Load {W}, Calc Des Air Flow Rate {m3/s}, User Des Air Flow Rate {m3/s}, Design Day Name, Date/Time of Peak, Temperature at Peak {C}, Humidity Ratio at Peak {kgWater/kgDryAir}, Floor Area {m2}, # Occupants, Calc Outdoor Air Flow Rate {m3/s}, Calc DOAS Heat Addition Rate {W}
 Zone Sizing Information, WAREHOUSE - FINE - REFRIGERATED-SPACE FUNCTION ZN, Cooling, 14955.99155, 17199.39029, 1.27148, 1.46220, FORT MCMURRAY AP ANN CLG .4% CONDNS DB=>MWB, 7/21 17:00:00, 27.16400, 8.76969E-003, 1875.00000, 37.53914, 0.57150, 0.00000
 Zone Sizing Information, WAREHOUSE - FINE - REFRIGERATED-SPACE FUNCTION ZN, Heating, 6430.15827, 8037.69784, 0.28030, 0.57150, FORT MCMURRAY AP ANN HTG 99.6% CONDNS DB, 1/21 07:10:00, -36.20000, 1.25811E-004, 1875.00000, 37.53914, 0.57150, 0.00000
 Zone Sizing Information, WAREHOUSE - FINE-SPACE FUNCTION ZN, Cooling, 19819.06658, 22791.92657, 1.68491, 1.93765, FORT MCMURRAY AP ANN CLG .4% CONDNS DB=>MWB, 7/21 17:00:00, 27.16400, 8.76969E-003, 2500.00000, 50.05218, 0.76200, 0.00000
 Zone Sizing Information, WAREHOUSE - FINE-SPACE FUNCTION ZN, Heating, 8396.67880, 10495.84850, 0.36660, 0.76200, FORT MCMURRAY AP ANN HTG 99.6% CONDNS DB, 1/21 07:10:00, -36.20000, 1.25811E-004, 2500.00000, 50.05218, 0.76200, 0.00000
 Zone Sizing Information, WAREHOUSE - MED/BLK - REFRIGERATED-SPACE FUNCTION ZN, Cooling, 8870.06725, 10200.57733, 0.75407, 0.86718, FORT MCMURRAY AP ANN CLG .4% CONDNS DB=>MWB, 7/21 17:00:00, 27.16400, 8.76969E-003, 1875.00000, 18.76957, 0.57150, 0.00000
 Zone Sizing Information, WAREHOUSE - MED/BLK - REFRIGERATED-SPACE FUNCTION ZN, Heating, 7388.93822, 9236.17278, 0.32093, 0.57150, FORT MCMURRAY AP ANN HTG 99.6% CONDNS DB, 1/21 07:50:00, -36.20000, 1.25811E-004, 1875.00000, 18.76957, 0.57150, 0.00000
 Zone Sizing Information, WAREHOUSE - MED/BLK-SPACE FUNCTION ZN, Cooling, 8877.88004, 10209.56205, 0.75473, 0.86794, FORT MCMURRAY AP ANN CLG .4% CONDNS DB=>MWB, 7/21 17:00:00, 27.16400, 8.76969E-003, 1875.00000, 18.76957, 0.57150, 0.00000
 Zone Sizing Information, WAREHOUSE - MED/BLK-SPACE FUNCTION ZN, Heating, 7387.20752, 9234.00941, 0.32085, 0.57150, FORT MCMURRAY AP ANN HTG 99.6% CONDNS DB, 1/21 07:50:00, -36.20000, 1.25811E-004, 1875.00000, 18.76957, 0.57150, 0.00000
 Zone Sizing Information, WAREHOUSE - MED/BLK2-SPACE FUNCTION ZN, Cooling, 13882.56768, 15964.95284, 1.18019, 1.35722, FORT MCMURRAY AP ANN CLG .4% CONDNS DB=>MWB, 7/21 17:00:00, 27.16400, 8.76969E-003, 1875.00000, 18.76957, 0.57150, 0.00000
 Zone Sizing Information, WAREHOUSE - MED/BLK2-SPACE FUNCTION ZN, Heating, 6435.69166, 8044.61458, 0.28053, 0.57150, FORT MCMURRAY AP ANN HTG 99.6% CONDNS DB, 1/21 07:10:00, -36.20000, 1.25811E-004, 1875.00000, 18.76957, 0.57150, 0.00000
! <Component Sizing Information>, Component Type, Component Name, Input Field Description, Value
 Component Sizing Information, ZoneHVAC:IdealLoadsAirSystem, ZONE HVAC IDEAL LOADS AIR SYSTEM 1, User-Specified Maximum Heating Air Flow Rate [m3/s], 0.00000
 Component Sizing Information, ZoneHVAC:IdealLoadsAirSystem, ZONE HVAC IDEAL LOADS AIR SYSTEM 1, User-Specified Maximum Cooling Air Flow Rate [m3/s], 0.00000
 Component Sizing Information, ZoneHVAC:IdealLoadsAirSystem, ZONE HVAC IDEAL LOADS AIR SYSTEM 2, User-Specified Maximum Heating Air Flow Rate [m3/s], 0.00000
 Component Sizing Information, ZoneHVAC:IdealLoadsAirSystem, ZONE HVAC IDEAL LOADS AIR SYSTEM 2, User-Specified Maximum Cooling Air Flow Rate [m3/s], 0.00000
 Component Sizing Information, ZoneHVAC:IdealLoadsAirSystem, ZONE HVAC IDEAL LOADS AIR SYSTEM 3, User-Specified Maximum Heating Air Flow Rate [m3/s], 0.00000
 Component Sizing Information, ZoneHVAC:IdealLoadsAirSystem, ZONE HVAC IDEAL LOADS AIR SYSTEM 3, User-Specified Maximum Cooling Air Flow Rate [m3/s], 0.00000
 Component Sizing Information, ZoneHVAC:IdealLoadsAirSystem, ZONE HVAC IDEAL LOADS AIR SYSTEM 4, User-Specified Maximum Heating Air Flow Rate [m3/s], 0.00000
 Component Sizing Information, ZoneHVAC:IdealLoadsAirSystem, ZONE HVAC IDEAL LOADS AIR SYSTEM 4, User-Specified Maximum Cooling Air Flow Rate [m3/s], 0.00000
 Component Sizing Information, ZoneHVAC:IdealLoadsAirSystem, ZONE HVAC IDEAL LOADS AIR SYSTEM 5, User-Specified Maximum Heating Air Flow Rate [m3/s], 0.00000
 Component Sizing Information, ZoneHVAC:IdealLoadsAirSystem, ZONE HVAC IDEAL LOADS AIR SYSTEM 5, User-Specified Maximum Cooling Air Flow Rate [m3/s], 0.00000
! <Environment>,Environment Name,Environment Type, Start Date, End Date, Start DayOfWeek, Duration {#days}, Source:Start DayOfWeek,  Use Daylight Saving, Use Holidays, Apply Weekend Holiday Rule,  Use Rain Values, Use Snow Values
! <Environment:Special Days>, Special Day Name, Special Day Type, Source, Start Date, Duration {#days}
! <Environment:Daylight Saving>, Daylight Saving Indicator, Source, Start Date, End Date
! <Environment:WarmupDays>, NumberofWarmupDays
Environment,FORT MCMURRAY AP ANN CLG .4% CONDNS DB=>MWB,SizingPeriod:DesignDay,07/21,07/21,SummerDesignDay,1,N/A,N/A,N/A,N/A,N/A,N/A
Environment:Daylight Saving,No,SizingPeriod:DesignDay
! <Environment:Design Day Data>, Max Dry-Bulb Temp {C}, Temp Range {dC}, Temp Range Ind Type, Hum Ind Value at Max Temp, Hum Ind Type,Pressure {Pa}, Wind Direction {deg CW from N}, Wind Speed {m/s}, Clearness, Rain, Snow
! <Environment:Design Day Misc>,DayOfYear,ASHRAE A Coeff,ASHRAE B Coeff,ASHRAE C Coeff,Solar Constant-Annual Variation,Eq of Time {minutes}, Solar Declination Angle {deg}, Solar Model
Environment:Design Day Data,28.90,12.40,DefaultMultipliers,96969,250,3.7,0.00,No,No
Environment:Design Day Misc,202,1084.4,0.2082,0.1365,1.0,-6.23,20.6,ASHRAETau
Environment:WarmupDays,  6
! <Tabular Report>,Style,Unit Conversion
Tabular Report,HTML,None
! <Warmup Convergence Information>,Zone Name,Environment Type/Name,Average Warmup Temperature Difference {deltaC},Std Dev Warmup Temperature Difference {deltaC},Max Temperature Pass/Fail Convergence,Min Temperature Pass/Fail Convergence,Average Warmup Load Difference {W},Std Dev Warmup Load Difference {W},Heating Load Pass/Fail Convergence,Cooling Load Pass/Fail Convergence
 Warmup Convergence Information,WAREHOUSE - FINE - REFRIGERATED-SPACE FUNCTION ZN,SizingPeriod: FORT MCMURRAY AP ANN CLG .4% CONDNS DB=>MWB,4.6826989020E-002,0.1323459497,Pass,Pass,4.3777186499E-002,0.1376894520,Pass,Pass
 Warmup Convergence Information,WAREHOUSE - FINE-SPACE FUNCTION ZN,SizingPeriod: FORT MCMURRAY AP ANN CLG .4% CONDNS DB=>MWB,4.7781637789E-002,0.1361476255,Pass,Pass,5.3208838904E-002,0.1571058775,Pass,Pass
 Warmup Convergence Information,WAREHOUSE - MED/BLK - REFRIGERATED-SPACE FUNCTION ZN,SizingPeriod: FORT MCMURRAY AP ANN CLG .4% CONDNS DB=>MWB,4.8623288256E-002,0.1360295585,Pass,Pass,6.5572511672E-002,0.2139416002,Pass,Pass
 Warmup Convergence Information,WAREHOUSE - MED/BLK-SPACE FUNCTION ZN,SizingPeriod: FORT MCMURRAY AP ANN CLG .4% CONDNS DB=>MWB,4.8622267803E-002,0.1360320878,Pass,Pass,6.5469713741E-002,0.2137281427,Pass,Pass
 Warmup Convergence Information,WAREHOUSE - MED/BLK2-SPACE FUNCTION ZN,SizingPeriod: FORT MCMURRAY AP ANN CLG .4% CONDNS DB=>MWB,4.7025397158E-002,0.1320712361,Pass,Pass,4.8034854925E-002,0.1577981339,Pass,Pass
Environment,FORT MCMURRAY AP ANN HTG 99.6% CONDNS DB,SizingPeriod:DesignDay,01/21,01/21,WinterDesignDay,1,N/A,N/A,N/A,N/A,N/A,N/A
Environment:Daylight Saving,No,SizingPeriod:DesignDay
Environment:Design Day Data,-36.20,0.00,DefaultMultipliers,96969,90,1.0,0.00,No,No
Environment:Design Day Misc, 21,1229.0,0.1415,5.7310E-002,1.0,-11.15,-20.1,ASHRAEClearSky
Environment:WarmupDays,  6
 Warmup Convergence Information,WAREHOUSE - FINE - REFRIGERATED-SPACE FUNCTION ZN,SizingPeriod: FORT MCMURRAY AP ANN HTG 99.6% CONDNS DB,6.2998398293E-002,0.3108969183,Pass,Pass,1.8017768790,12.3512029084,Pass,Pass
 Warmup Convergence Information,WAREHOUSE - FINE-SPACE FUNCTION ZN,SizingPeriod: FORT MCMURRAY AP ANN HTG 99.6% CONDNS DB,6.3045141955E-002,0.3107124893,Pass,Pass,1.5684865011,9.5844445267,Pass,Pass
 Warmup Convergence Information,WAREHOUSE - MED/BLK - REFRIGERATED-SPACE FUNCTION ZN,SizingPeriod: FORT MCMURRAY AP ANN HTG 99.6% CONDNS DB,6.2823568138E-002,0.3110659109,Pass,Pass,0.9100223383,4.4814585475,Pass,Pass
 Warmup Convergence Information,WAREHOUSE - MED/BLK-SPACE FUNCTION ZN,SizingPeriod: FORT MCMURRAY AP ANN HTG 99.6% CONDNS DB,6.2823572766E-002,0.3110644770,Pass,Pass,0.9093408578,4.4808706285,Pass,Pass
 Warmup Convergence Information,WAREHOUSE - MED/BLK2-SPACE FUNCTION ZN,SizingPeriod: FORT MCMURRAY AP ANN HTG 99.6% CONDNS DB,6.2986009718E-002,0.3110144072,Pass,Pass,1.8145454508,12.2195883849,Pass,Pass
! <Program Control Information:Threads/Parallel Sims>, Threading Supported,Maximum Number of Threads, Env Set Threads (OMP_NUM_THREADS), EP Env Set Threads (EP_OMP_NUM_THREADS), IDF Set Threads, Number of Threads Used (Interior Radiant Exchange), Number Nominal Surfaces, Number Parallel Sims
Program Control:Threads/Parallel Sims, No,1, N/A, N/A, N/A, N/A, N/A, N/A
End of Data
