Program Version,EnergyPlus, Version 8.9.0-eba93e8e1b, YMD=2019.03.27 19:58
! <Version>, Version ID
 Version, 8.9
! <Timesteps per Hour>, #TimeSteps, Minutes per TimeStep {minutes}
 Timesteps per Hour,  6, 10
! <System Convergence Limits>, Minimum System TimeStep {minutes}, Max HVAC Iterations, Minimum Plant Iterations, Maximum Plant Iterations
 System Convergence Limits, 1, 20, 2, 8
! <Simulation Control>, Do Zone Sizing, Do System Sizing, Do Plant Sizing, Do Design Days, Do Weather Simulation, Do HVAC Sizing Simulation
 Simulation Control, Yes, No, No, Yes, No, No
! <Output Reporting Tolerances>, Tolerance for Time Heating Setpoint Not Met, Tolerance for Zone Cooling Setpoint Not Met Time
 Output Reporting Tolerances, 0.200, 0.200, 
! <Site:GroundTemperature:BuildingSurface>,Jan{C},Feb{C},Mar{C},Apr{C},May{C},Jun{C},Jul{C},Aug{C},Sep{C},Oct{C},Nov{C},Dec{C}
 Site:GroundTemperature:BuildingSurface,  19.53,  19.50,  19.54,  19.60,  20.00,  21.64,  22.23,  22.38,  21.45,  20.12,  19.80,  19.63
! <Site:GroundTemperature:FCfactorMethod>,Jan{C},Feb{C},Mar{C},Apr{C},May{C},Jun{C},Jul{C},Aug{C},Sep{C},Oct{C},Nov{C},Dec{C}
 Site:GroundTemperature:FCfactorMethod, -12.27, -13.66, -11.19,  -7.33,   2.77,  10.57,  15.83,  17.43,  14.70,   8.65,   0.56,  -6.95
! <Site:GroundTemperature:Shallow>,Jan{C},Feb{C},Mar{C},Apr{C},May{C},Jun{C},Jul{C},Aug{C},Sep{C},Oct{C},Nov{C},Dec{C}
 Site:GroundTemperature:Shallow,  13.00,  13.00,  13.00,  13.00,  13.00,  13.00,  13.00,  13.00,  13.00,  13.00,  13.00,  13.00
! <Site:GroundTemperature:Deep>,Jan{C},Feb{C},Mar{C},Apr{C},May{C},Jun{C},Jul{C},Aug{C},Sep{C},Oct{C},Nov{C},Dec{C}
 Site:GroundTemperature:Deep,  16.00,  16.00,  16.00,  16.00,  16.00,  16.00,  16.00,  16.00,  16.00,  16.00,  16.00,  16.00
! <Site:GroundReflectance>,Jan{dimensionless},Feb{dimensionless},Mar{dimensionless},Apr{dimensionless},May{dimensionless},Jun{dimensionless},Jul{dimensionless},Aug{dimensionless},Sep{dimensionless},Oct{dimensionless},Nov{dimensionless},Dec{dimensionless}
 Site:GroundReflectance,  0.20,  0.20,  0.20,  0.20,  0.20,  0.20,  0.20,  0.20,  0.20,  0.20,  0.20,  0.20
! <Site:GroundReflectance:SnowModifier>, Normal, Daylighting {dimensionless}
 Site:GroundReflectance:SnowModifier,   1.000,   1.000
! <Site:GroundReflectance:Snow>,Jan{dimensionless},Feb{dimensionless},Mar{dimensionless},Apr{dimensionless},May{dimensionless},Jun{dimensionless},Jul{dimensionless},Aug{dimensionless},Sep{dimensionless},Oct{dimensionless},Nov{dimensionless},Dec{dimensionless}
 Site:GroundReflectance:Snow,  0.20,  0.20,  0.20,  0.20,  0.20,  0.20,  0.20,  0.20,  0.20,  0.20,  0.20,  0.20
! <Site:GroundReflectance:Snow:Daylighting>,Jan{dimensionless},Feb{dimensionless},Mar{dimensionless},Apr{dimensionless},May{dimensionless},Jun{dimensionless},Jul{dimensionless},Aug{dimensionless},Sep{dimensionless},Oct{dimensionless},Nov{dimensionless},Dec{dimensionless}
 Site:GroundReflectance:Snow:Daylighting,  0.20,  0.20,  0.20,  0.20,  0.20,  0.20,  0.20,  0.20,  0.20,  0.20,  0.20,  0.20
! <Environment:Weather Station>,Wind Sensor Height Above Ground {m},Wind Speed Profile Exponent {},Wind Speed Profile Boundary Layer Thickness {m},Air Temperature Sensor Height Above Ground {m},Wind Speed Modifier Coefficient-Internal,Temperature Modifier Coefficient-Internal
Environment:Weather Station,10.000,0.140,270.000,1.500,1.586,9.750E-003
! <Site:Location>, Location Name, Latitude {N+/S- Deg}, Longitude {E+/W- Deg},  Time Zone Number {GMT+/-}, Elevation {m},  Standard Pressure at Elevation {Pa}, Standard RhoAir at Elevation
Site:Location,Fort McMurray AP AB CAN CWEC2016 WMO#=716890,56.65,-111.22,-7.00,369.10,96969,1.1525
! <Building Information>, Building Name,North Axis {deg},Terrain,  Loads Convergence Tolerance Value,Temperature Convergence Tolerance Value,  Solar Distribution,Maximum Number of Warmup Days,Minimum Number of Warmup Days
 Building Information,Building 1,0.000,Suburbs,4.00000E-002,0.40000,FullExterior,25,6
! <Inside Convection Algorithm>, Algorithm {Simple | TARP | CeilingDiffuser | AdaptiveConvectionAlgorithm}
Inside Convection Algorithm,TARP
! <Outside Convection Algorithm>, Algorithm {SimpleCombined | TARP | MoWitt | DOE-2 | AdaptiveConvectionAlgorithm}
Outside Convection Algorithm,TARP
! <Sky Radiance Distribution>, Value {Anisotropic}
Sky Radiance Distribution,Anisotropic
! <Zone Air Solution Algorithm>, Value {ThirdOrderBackwardDifference | AnalyticalSolution | EulerMethod}
 Zone Air Solution Algorithm, ThirdOrderBackwardDifference
! <Zone Air Carbon Dioxide Balance Simulation>, Simulation {Yes/No}, Carbon Dioxide Concentration
 Zone Air Carbon Dioxide Balance Simulation, No,N/A
! <Zone Air Generic Contaminant Balance Simulation>, Simulation {Yes/No}, Generic Contaminant Concentration
 Zone Air Generic Contaminant Balance Simulation, No,N/A
! <Zone Air Mass Flow Balance Simulation>, Enforce Mass Balance, Adjust Zone Mixing, Adjust Zone Infiltration {AddInfiltration | AdjustInfiltration | None}, Infiltration Zones {MixingSourceZonesOnly | AllZones}
 Zone Air Mass Flow Balance Simulation, No,N/A,N/A,N/A
! <HVACSystemRootFindingAlgorithm>, Value {RegulaFalsi | Bisection | BisectionThenRegulaFalsi | RegulaFalsiThenBisection}
 HVACSystemRootFindingAlgorithm, RegulaFalsi
! <Environment:Site Atmospheric Variation>,Wind Speed Profile Exponent {},Wind Speed Profile Boundary Layer Thickness {m},Air Temperature Gradient Coefficient {K/m}
Environment:Site Atmospheric Variation,0.220,370.000,6.500000E-003
! <Surface Geometry>,Starting Corner,Vertex Input Direction,Coordinate System,Daylight Reference Point Coordinate System,Rectangular (Simple) Surface Coordinate System
 Surface Geometry,UpperLeftCorner,Counterclockwise,RelativeCoordinateSystem,RelativeCoordinateSystem,RelativeToZoneOrigin
! <Surface Heat Transfer Algorithm>, Value {CTF - ConductionTransferFunction | EMPD - MoisturePenetrationDepthConductionTransferFunction | CondFD - ConductionFiniteDifference | HAMT - CombinedHeatAndMoistureFiniteElement} - Description,Inside Surface Max Temperature Limit{C}, Surface Convection Coefficient Lower Limit {W/m2-K}, Surface Convection Coefficient Upper Limit {W/m2-K}
Surface Heat Transfer Algorithm, CTF - ConductionTransferFunction,200,0.10,1000.0
! <Shading Summary>, Number of Fixed Detached Shades, Number of Building Detached Shades, Number of Attached Shades
 Shading Summary,0,0,0
! <Zone Summary>, Number of Zones, Number of Zone Surfaces, Number of SubSurfaces
 Zone Summary,20,137,17
! <Zone Information>,Zone Name,North Axis {deg},Origin X-Coordinate {m},Origin Y-Coordinate {m},Origin Z-Coordinate {m},Centroid X-Coordinate {m},Centroid Y-Coordinate {m},Centroid Z-Coordinate {m},Type,Zone Multiplier,Zone List Multiplier,Minimum X {m},Maximum X {m},Minimum Y {m},Maximum Y {m},Minimum Z {m},Maximum Z {m},Ceiling Height {m},Volume {m3},Zone Inside Convection Algorithm {Simple-Detailed-CeilingDiffuser-TrombeWall},Zone Outside Convection Algorithm {Simple-Detailed-Tarp-MoWitt-DOE-2-BLAST}, Floor Area {m2},Exterior Gross Wall Area {m2},Exterior Net Wall Area {m2},Exterior Window Area {m2}, Number of Surfaces, Number of SubSurfaces, Number of Shading SubSurfaces,  Part of Total Building Area
 Zone Information, COURTHOUSE - CHAMBERS-SPACE FUNCTION ZN,0.0,0.00,0.00,11.40,50.00,10.85,13.30,1,1,1,0.00,100.00,0.00,25.00,11.40,15.20,3.80,7125.00,TARP,TARP,1875.00,380.00,285.00,188.75,6,2,0,Yes
 Zone Information, COURTHOUSE - COURTROOM-SPACE FUNCTION ZN,0.0,75.00,25.00,11.40,89.15,50.00,13.30,1,1,1,75.00,100.00,0.00,100.00,11.40,15.20,3.80,7125.00,TARP,TARP,1875.00,380.00,285.00,188.75,6,2,0,Yes
 Zone Information, DINING - BAR LOUNGE/LEISURE-SPACE FUNCTION ZN,0.0,0.00,0.00,11.40,10.85,50.00,13.30,1,1,1,0.00,25.00,0.00,100.00,11.40,15.20,3.80,7125.00,TARP,TARP,1875.00,380.00,285.00,188.75,6,2,0,Yes
 Zone Information, DINING - FAMILY SPACE-SPACE FUNCTION ZN,0.0,25.00,75.00,11.40,50.00,89.15,13.30,1,1,1,0.00,100.00,75.00,100.00,11.40,15.20,3.80,7125.00,TARP,TARP,1875.00,380.00,285.00,188.75,6,2,0,Yes
 Zone Information, DINING - OTHER-SPACE FUNCTION ZN,0.0,0.00,0.00,7.60,50.00,10.85,9.50,1,1,1,0.00,100.00,0.00,25.00,7.60,11.40,3.80,7125.00,TARP,TARP,1875.00,380.00,285.00,95.00,6,1,0,Yes
 Zone Information, DORMITORY - LIVING QUARTERS-SPACE FUNCTION ZN,0.0,25.00,25.00,7.60,50.00,50.00,9.50,1,1,1,25.00,75.00,25.00,75.00,7.60,11.40,3.80,9500.00,TARP,TARP,2500.00,0.00,0.00,0.00,6,0,0,Yes
 Zone Information, DRESS./FITT. - PERFORMANCE ARTS-SPACE FUNCTION ZN,0.0,0.00,0.00,0.00,10.85,50.00,1.90,1,1,1,0.00,25.00,0.00,100.00,0.00,3.80,3.80,7125.00,TARP,TARP,1875.00,0.00,0.00,0.00,6,0,0,Yes
 Zone Information, DWELLING UNIT(S)-SPACE FUNCTION ZN,0.0,25.00,75.00,7.60,50.00,89.15,9.50,1,1,1,0.00,100.00,75.00,100.00,7.60,11.40,3.80,7125.00,TARP,TARP,1875.00,380.00,285.00,95.00,6,1,0,Yes
 Zone Information, FIRE STATION - ENGINE ROOM-SPACE FUNCTION ZN,0.0,25.00,75.00,0.00,50.00,89.15,1.90,1,1,1,0.00,100.00,75.00,100.00,0.00,3.80,3.80,7125.00,TARP,TARP,1875.00,0.00,0.00,0.00,6,0,0,Yes
 Zone Information, FIRE STATION - QUARTERS-SPACE FUNCTION ZN,0.0,25.00,25.00,11.40,50.00,50.00,13.30,1,1,1,25.00,75.00,25.00,75.00,11.40,15.20,3.80,9500.00,TARP,TARP,2500.00,0.00,0.00,125.00,6,1,0,Yes
 Zone Information, FOOD PREPARATION - VENTED-SPACE FUNCTION ZN,0.0,75.00,25.00,0.00,89.15,50.00,1.90,1,1,1,75.00,100.00,0.00,100.00,0.00,3.80,3.80,7125.00,TARP,TARP,1875.00,0.00,0.00,0.00,6,0,0,Yes
 Zone Information, FOOD PREPARATION-SPACE FUNCTION ZN,0.0,0.00,0.00,3.80,10.85,50.00,5.70,1,1,1,0.00,25.00,0.00,100.00,3.80,7.60,3.80,7125.00,TARP,TARP,1875.00,380.00,285.00,95.00,6,1,0,Yes
 Zone Information, GYM - AUDIENCE-SPACE FUNCTION ZN,0.0,0.00,0.00,0.00,50.00,10.85,1.90,1,1,1,0.00,100.00,0.00,25.00,0.00,3.80,3.80,7125.00,TARP,TARP,1875.00,0.00,0.00,0.00,6,0,0,Yes
 Zone Information, GYM - FITNESS-SPACE FUNCTION ZN,0.0,0.00,0.00,7.60,10.85,50.00,9.50,1,1,1,0.00,25.00,0.00,100.00,7.60,11.40,3.80,7125.00,TARP,TARP,1875.00,380.00,285.00,95.00,6,1,0,Yes
 Zone Information, GYM - PLAY-SPACE FUNCTION ZN,0.0,25.00,25.00,3.80,50.00,50.00,5.70,1,1,1,25.00,75.00,25.00,75.00,3.80,7.60,3.80,9500.00,TARP,TARP,2500.00,0.00,0.00,0.00,6,0,0,Yes
 Zone Information, HOSPITAL - EMERGENCY-SPACE FUNCTION ZN,0.0,25.00,75.00,3.80,50.00,89.15,5.70,1,1,1,0.00,100.00,75.00,100.00,3.80,7.60,3.80,7125.00,TARP,TARP,1875.00,380.00,285.00,95.00,6,1,0,Yes
 Zone Information, HOSPITAL - EXAM-SPACE FUNCTION ZN,0.0,75.00,25.00,7.60,89.15,50.00,9.50,1,1,1,75.00,100.00,0.00,100.00,7.60,11.40,3.80,7125.00,TARP,TARP,1875.00,380.00,285.00,95.00,6,1,0,Yes
 Zone Information, HOSPITAL - LAUNDRY/WASHING-SPACE FUNCTION ZN,0.0,25.00,25.00,0.00,50.00,50.00,1.90,1,1,1,25.00,75.00,25.00,75.00,0.00,3.80,3.80,9500.00,TARP,TARP,2500.00,0.00,0.00,0.00,6,0,0,Yes
 Zone Information, HOSPITAL - LOUNGE/RECREATION-SPACE FUNCTION ZN,0.0,75.00,25.00,3.80,89.15,50.00,5.70,1,1,1,75.00,100.00,0.00,100.00,3.80,7.60,3.80,7125.00,TARP,TARP,1875.00,380.00,285.00,95.00,6,1,0,Yes
 Zone Information, HOSPITAL - MEDICAL SUPPLY-SPACE FUNCTION ZN,0.0,0.00,0.00,3.80,50.00,10.85,5.70,1,1,1,0.00,100.00,0.00,25.00,3.80,7.60,3.80,7125.00,TARP,TARP,1875.00,380.00,285.00,95.00,6,1,0,Yes
! <Zone Internal Gains Nominal>,Zone Name, Floor Area {m2},# Occupants,Area per Occupant {m2/person},Occupant per Area {person/m2},Interior Lighting {W/m2},Electric Load {W/m2},Gas Load {W/m2},Other Load {W/m2},Hot Water Eq {W/m2},Steam Equipment {W/m2},Sum Loads per Area {W/m2},Outdoor Controlled Baseboard Heat
 Zone Internal Gains Nominal, COURTHOUSE - CHAMBERS-SPACE FUNCTION ZN,1875.00,93.8,19.979,5.005E-002,12.600,7.500,0.000,0.000,0.000,0.000,20.100,No
 Zone Internal Gains Nominal, COURTHOUSE - COURTROOM-SPACE FUNCTION ZN,1875.00,375.0,5.000,0.200,18.500,2.500,0.000,0.000,0.000,0.000,21.000,No
 Zone Internal Gains Nominal, DINING - BAR LOUNGE/LEISURE-SPACE FUNCTION ZN,1875.00,187.5,10.000,10.000E-002,14.100,1.000,0.000,0.000,0.000,0.000,15.100,No
 Zone Internal Gains Nominal, DINING - FAMILY SPACE-SPACE FUNCTION ZN,1875.00,187.5,10.000,10.000E-002,9.600,1.000,0.000,0.000,0.000,0.000,10.600,No
 Zone Internal Gains Nominal, DINING - OTHER-SPACE FUNCTION ZN,1875.00,187.5,10.000,10.000E-002,7.000,1.000,0.000,0.000,0.000,0.000,8.000,No
 Zone Internal Gains Nominal, DORMITORY - LIVING QUARTERS-SPACE FUNCTION ZN,2500.00,100.1,24.974,4.004E-002,4.100,2.500,0.000,0.000,0.000,0.000,6.600,No
 Zone Internal Gains Nominal, DRESS./FITT. - PERFORMANCE ARTS-SPACE FUNCTION ZN,1875.00,62.6,29.969,3.337E-002,3.870,2.500,0.000,0.000,0.000,0.000,6.370,No
 Zone Internal Gains Nominal, DWELLING UNIT(S)-SPACE FUNCTION ZN,1875.00,31.3,59.937,1.668E-002,5.000,5.000,0.000,0.000,0.000,0.000,10.000,No
 Zone Internal Gains Nominal, FIRE STATION - ENGINE ROOM-SPACE FUNCTION ZN,1875.00,75.1,24.974,4.004E-002,6.000,2.500,0.000,0.000,0.000,0.000,8.500,No
 Zone Internal Gains Nominal, FIRE STATION - QUARTERS-SPACE FUNCTION ZN,2500.00,100.1,24.974,4.004E-002,3.400,2.500,0.000,0.000,0.000,0.000,5.900,No
 Zone Internal Gains Nominal, FOOD PREPARATION - VENTED-SPACE FUNCTION ZN,1875.00,93.8,19.979,5.005E-002,10.700,10.000,0.000,0.000,0.000,0.000,20.700,No
 Zone Internal Gains Nominal, FOOD PREPARATION-SPACE FUNCTION ZN,1875.00,93.8,19.979,5.005E-002,10.700,10.000,0.000,0.000,0.000,0.000,20.700,No
 Zone Internal Gains Nominal, GYM - AUDIENCE-SPACE FUNCTION ZN,1875.00,375.0,5.000,0.200,4.600,0.000,0.000,0.000,0.000,0.000,4.600,No
 Zone Internal Gains Nominal, GYM - FITNESS-SPACE FUNCTION ZN,1875.00,375.0,5.000,0.200,9.800,1.000,0.000,0.000,0.000,0.000,10.800,No
 Zone Internal Gains Nominal, GYM - PLAY-SPACE FUNCTION ZN,2500.00,500.0,5.000,0.200,12.900,1.500,0.000,0.000,0.000,0.000,14.400,No
 Zone Internal Gains Nominal, HOSPITAL - EMERGENCY-SPACE FUNCTION ZN,1875.00,93.8,19.979,5.005E-002,24.300,10.000,0.000,0.000,0.000,0.000,34.300,No
 Zone Internal Gains Nominal, HOSPITAL - EXAM-SPACE FUNCTION ZN,1875.00,93.8,19.979,5.005E-002,17.900,10.000,0.000,0.000,0.000,0.000,27.900,No
 Zone Internal Gains Nominal, HOSPITAL - LAUNDRY/WASHING-SPACE FUNCTION ZN,2500.00,125.1,19.979,5.005E-002,8.000,20.000,0.000,0.000,0.000,0.000,28.000,No
 Zone Internal Gains Nominal, HOSPITAL - LOUNGE/RECREATION-SPACE FUNCTION ZN,1875.00,187.5,10.000,10.000E-002,11.500,1.000,0.000,0.000,0.000,0.000,12.500,No
 Zone Internal Gains Nominal, HOSPITAL - MEDICAL SUPPLY-SPACE FUNCTION ZN,1875.00,93.8,19.979,5.005E-002,13.700,1.000,0.000,0.000,0.000,0.000,14.700,No
! <People Internal Gains Nominal>,Name,Schedule Name,Zone Name,Zone Floor Area {m2},# Zone Occupants,Number of People {},People/Floor Area {person/m2},Floor Area per person {m2/person},Fraction Radiant,Fraction Convected,Sensible Fraction Calculation,Activity level,ASHRAE 55 Warnings,Carbon Dioxide Generation Rate,Nominal Minimum Number of People,Nominal Maximum Number of People
 People Internal Gains Nominal, COURTHOUSE - CHAMBERS-SPACE FUNCTION ZN SPACE FUNCTION COURTHOUSE - CHAMBERS PEOPLE,NECB-A-OCCUPANCY,COURTHOUSE - CHAMBERS-SPACE FUNCTION ZN,1875.00,93.8,93.8,5.005E-002,19.979,0.300,0.700,AutoCalculate,NECB-ACTIVITY,No,3.8200E-008,0,84
 People Internal Gains Nominal, COURTHOUSE - COURTROOM-SPACE FUNCTION ZN SPACE FUNCTION COURTHOUSE - COURTROOM PEOPLE,NECB-A-OCCUPANCY,COURTHOUSE - COURTROOM-SPACE FUNCTION ZN,1875.00,375.0,375.0,0.200,5.000,0.300,0.700,AutoCalculate,NECB-ACTIVITY,No,3.8200E-008,0,337
 People Internal Gains Nominal, DINING - BAR LOUNGE/LEISURE-SPACE FUNCTION ZN SPACE FUNCTION DINING - BAR LOUNGE/LEISURE PEOPLE,NECB-B-OCCUPANCY,DINING - BAR LOUNGE/LEISURE-SPACE FUNCTION ZN,1875.00,187.5,187.5,10.000E-002,10.000,0.300,0.700,AutoCalculate,NECB-ACTIVITY,No,3.8200E-008,0,169
 People Internal Gains Nominal, DINING - FAMILY SPACE-SPACE FUNCTION ZN SPACE FUNCTION DINING - FAMILY SPACE PEOPLE,NECB-B-OCCUPANCY,DINING - FAMILY SPACE-SPACE FUNCTION ZN,1875.00,187.5,187.5,10.000E-002,10.000,0.300,0.700,AutoCalculate,NECB-ACTIVITY,No,3.8200E-008,0,169
 People Internal Gains Nominal, DINING - OTHER-SPACE FUNCTION ZN SPACE FUNCTION DINING - OTHER PEOPLE,NECB-B-OCCUPANCY,DINING - OTHER-SPACE FUNCTION ZN,1875.00,187.5,187.5,10.000E-002,10.000,0.300,0.700,AutoCalculate,NECB-ACTIVITY,No,3.8200E-008,0,169
 People Internal Gains Nominal, DORMITORY - LIVING QUARTERS-SPACE FUNCTION ZN SPACE FUNCTION DORMITORY - LIVING QUARTERS PEOPLE,NECB-G-OCCUPANCY,DORMITORY - LIVING QUARTERS-SPACE FUNCTION ZN,2500.00,100.1,100.1,4.004E-002,24.974,0.300,0.700,AutoCalculate,NECB-ACTIVITY,No,3.8200E-008,30,90
 People Internal Gains Nominal, DRESS./FITT. - PERFORMANCE ARTS-SPACE FUNCTION ZN SPACE FUNCTION DRESS./FITT. - PERFORMANCE ARTS PEOPLE,NECB-C-OCCUPANCY,DRESS./FITT. - PERFORMANCE ARTS-SPACE FUNCTION ZN,1875.00,62.6,62.6,3.337E-002,29.969,0.300,0.700,AutoCalculate,NECB-ACTIVITY,No,3.8200E-008,0,56
 People Internal Gains Nominal, DWELLING UNIT(S)-SPACE FUNCTION ZN SPACE FUNCTION DWELLING UNIT(S) PEOPLE,NECB-G-OCCUPANCY,DWELLING UNIT(S)-SPACE FUNCTION ZN,1875.00,31.3,31.3,1.668E-002,59.937,0.300,0.700,AutoCalculate,NECB-ACTIVITY,No,3.8200E-008,9,28
 People Internal Gains Nominal, FIRE STATION - ENGINE ROOM-SPACE FUNCTION ZN SPACE FUNCTION FIRE STATION - ENGINE ROOM PEOPLE,NECB-H-OCCUPANCY,FIRE STATION - ENGINE ROOM-SPACE FUNCTION ZN,1875.00,75.1,75.1,4.004E-002,24.974,0.300,0.700,AutoCalculate,NECB-ACTIVITY,No,3.8200E-008,68,68
 People Internal Gains Nominal, FIRE STATION - QUARTERS-SPACE FUNCTION ZN SPACE FUNCTION FIRE STATION - QUARTERS PEOPLE,NECB-G-OCCUPANCY,FIRE STATION - QUARTERS-SPACE FUNCTION ZN,2500.00,100.1,100.1,4.004E-002,24.974,0.300,0.700,AutoCalculate,NECB-ACTIVITY,No,3.8200E-008,30,90
 People Internal Gains Nominal, FOOD PREPARATION-SPACE FUNCTION ZN SPACE FUNCTION FOOD PREPARATION PEOPLE,NECB-B-OCCUPANCY,FOOD PREPARATION-SPACE FUNCTION ZN,1875.00,93.8,93.8,5.005E-002,19.979,0.300,0.700,AutoCalculate,NECB-ACTIVITY,No,3.8200E-008,0,84
 People Internal Gains Nominal, FOOD PREPARATION - VENTED-SPACE FUNCTION ZN SPACE FUNCTION FOOD PREPARATION - VENTED PEOPLE,NECB-B-OCCUPANCY,FOOD PREPARATION - VENTED-SPACE FUNCTION ZN,1875.00,93.8,93.8,5.005E-002,19.979,0.300,0.700,AutoCalculate,NECB-ACTIVITY,No,3.8200E-008,0,84
 People Internal Gains Nominal, GYM - AUDIENCE-SPACE FUNCTION ZN SPACE FUNCTION GYM - AUDIENCE PEOPLE,NECB-B-OCCUPANCY,GYM - AUDIENCE-SPACE FUNCTION ZN,1875.00,375.0,375.0,0.200,5.000,0.300,0.700,AutoCalculate,NECB-ACTIVITY,No,3.8200E-008,0,337
 People Internal Gains Nominal, GYM - FITNESS-SPACE FUNCTION ZN SPACE FUNCTION GYM - FITNESS PEOPLE,NECB-B-OCCUPANCY,GYM - FITNESS-SPACE FUNCTION ZN,1875.00,375.0,375.0,0.200,5.000,0.300,0.700,AutoCalculate,NECB-ACTIVITY,No,3.8200E-008,0,337
 People Internal Gains Nominal, GYM - PLAY-SPACE FUNCTION ZN SPACE FUNCTION GYM - PLAY PEOPLE,NECB-B-OCCUPANCY,GYM - PLAY-SPACE FUNCTION ZN,2500.00,500.0,500.0,0.200,5.000,0.300,0.700,AutoCalculate,NECB-ACTIVITY,No,3.8200E-008,0,450
 People Internal Gains Nominal, HOSPITAL - EMERGENCY-SPACE FUNCTION ZN SPACE FUNCTION HOSPITAL - EMERGENCY PEOPLE,NECB-H-OCCUPANCY,HOSPITAL - EMERGENCY-SPACE FUNCTION ZN,1875.00,93.8,93.8,5.005E-002,19.979,0.300,0.700,AutoCalculate,NECB-ACTIVITY,No,3.8200E-008,84,84
 People Internal Gains Nominal, HOSPITAL - EXAM-SPACE FUNCTION ZN SPACE FUNCTION HOSPITAL - EXAM PEOPLE,NECB-C-OCCUPANCY,HOSPITAL - EXAM-SPACE FUNCTION ZN,1875.00,93.8,93.8,5.005E-002,19.979,0.300,0.700,AutoCalculate,NECB-ACTIVITY,No,3.8200E-008,0,84
 People Internal Gains Nominal, HOSPITAL - LAUNDRY/WASHING-SPACE FUNCTION ZN SPACE FUNCTION HOSPITAL - LAUNDRY/WASHING PEOPLE,NECB-C-OCCUPANCY,HOSPITAL - LAUNDRY/WASHING-SPACE FUNCTION ZN,2500.00,125.1,125.1,5.005E-002,19.979,0.300,0.700,AutoCalculate,NECB-ACTIVITY,No,3.8200E-008,0,113
 People Internal Gains Nominal, HOSPITAL - LOUNGE/RECREATION-SPACE FUNCTION ZN SPACE FUNCTION HOSPITAL - LOUNGE/RECREATION PEOPLE,NECB-B-OCCUPANCY,HOSPITAL - LOUNGE/RECREATION-SPACE FUNCTION ZN,1875.00,187.5,187.5,10.000E-002,10.000,0.300,0.700,AutoCalculate,NECB-ACTIVITY,No,3.8200E-008,0,169
 People Internal Gains Nominal, HOSPITAL - MEDICAL SUPPLY-SPACE FUNCTION ZN SPACE FUNCTION HOSPITAL - MEDICAL SUPPLY PEOPLE,NECB-H-OCCUPANCY,HOSPITAL - MEDICAL SUPPLY-SPACE FUNCTION ZN,1875.00,93.8,93.8,5.005E-002,19.979,0.300,0.700,AutoCalculate,NECB-ACTIVITY,No,3.8200E-008,84,84
! <Lights Internal Gains Nominal>,Name,Schedule Name,Zone Name,Zone Floor Area {m2},# Zone Occupants,Lighting Level {W},Lights/Floor Area {W/m2},Lights per person {W/person},Fraction Return Air,Fraction Radiant,Fraction Short Wave,Fraction Convected,Fraction Replaceable,End-Use Category,Nominal Minimum Lighting Level {W},Nominal Maximum Lighting Level {W}
 Lights Internal Gains Nominal, COURTHOUSE - CHAMBERS-SPACE FUNCTION ZN SPACE FUNCTION COURTHOUSE - CHAMBERS LIGHTS,NECB-A-LIGHTING,COURTHOUSE - CHAMBERS-SPACE FUNCTION ZN,1875.00,93.8,23624.803,12.600,251.735,0.000,0.500,0.200,0.300,1.000,General,1181.240,21262.323
 Lights Internal Gains Nominal, COURTHOUSE - COURTROOM-SPACE FUNCTION ZN SPACE FUNCTION COURTHOUSE - COURTROOM LIGHTS,NECB-A-LIGHTING,COURTHOUSE - COURTROOM-SPACE FUNCTION ZN,1875.00,375.0,34687.211,18.500,92.502,0.000,0.500,0.200,0.300,1.000,General,1734.361,31218.490
 Lights Internal Gains Nominal, DINING - BAR LOUNGE/LEISURE-SPACE FUNCTION ZN SPACE FUNCTION DINING - BAR LOUNGE/LEISURE LIGHTS,NECB-B-LIGHTING,DINING - BAR LOUNGE/LEISURE-SPACE FUNCTION ZN,1875.00,187.5,26437.280,14.100,141.003,0.000,0.500,0.200,0.300,1.000,General,2643.728,23793.552
 Lights Internal Gains Nominal, DINING - FAMILY SPACE-SPACE FUNCTION ZN SPACE FUNCTION DINING - FAMILY SPACE LIGHTS,NECB-B-LIGHTING,DINING - FAMILY SPACE-SPACE FUNCTION ZN,1875.00,187.5,17999.850,9.600,96.002,0.000,0.500,0.200,0.300,1.000,General,1799.985,16199.865
 Lights Internal Gains Nominal, DINING - OTHER-SPACE FUNCTION ZN SPACE FUNCTION DINING - OTHER LIGHTS,NECB-B-LIGHTING,DINING - OTHER-SPACE FUNCTION ZN,1875.00,187.5,13124.891,7.000,70.002,0.000,0.500,0.200,0.300,1.000,General,1312.489,11812.402
 Lights Internal Gains Nominal, DORMITORY - LIVING QUARTERS-SPACE FUNCTION ZN SPACE FUNCTION DORMITORY - LIVING QUARTERS LIGHTS,NECB-G-LIGHTING,DORMITORY - LIVING QUARTERS-SPACE FUNCTION ZN,2500.00,100.1,10249.915,4.100,102.392,0.000,0.500,0.200,0.300,1.000,General,0.000,9224.923
 Lights Internal Gains Nominal, DRESS./FITT. - PERFORMANCE ARTS-SPACE FUNCTION ZN SPACE FUNCTION DRESS./FITT. - PERFORMANCE ARTS LIGHTS,NECB-C-LIGHTING,DRESS./FITT. - PERFORMANCE ARTS-SPACE FUNCTION ZN,1875.00,62.6,7256.190,3.870,115.978,0.000,0.500,0.200,0.300,1.000,General,362.809,6530.571
 Lights Internal Gains Nominal, DWELLING UNIT(S)-SPACE FUNCTION ZN SPACE FUNCTION DWELLING UNIT(S) LIGHTS,NECB-G-LIGHTING,DWELLING UNIT(S)-SPACE FUNCTION ZN,1875.00,31.3,9374.922,5.000,299.685,0.000,0.500,0.200,0.300,1.000,General,0.000,8437.430
 Lights Internal Gains Nominal, FIRE STATION - ENGINE ROOM-SPACE FUNCTION ZN SPACE FUNCTION FIRE STATION - ENGINE ROOM LIGHTS,NECB-H-LIGHTING,FIRE STATION - ENGINE ROOM-SPACE FUNCTION ZN,1875.00,75.1,11249.906,6.000,149.842,0.000,0.500,0.200,0.300,1.000,General,10124.916,10124.916
 Lights Internal Gains Nominal, FIRE STATION - QUARTERS-SPACE FUNCTION ZN SPACE FUNCTION FIRE STATION - QUARTERS LIGHTS,NECB-G-LIGHTING,FIRE STATION - QUARTERS-SPACE FUNCTION ZN,2500.00,100.1,8499.929,3.400,84.911,0.000,0.500,0.200,0.300,1.000,General,0.000,7649.936
 Lights Internal Gains Nominal, FOOD PREPARATION-SPACE FUNCTION ZN SPACE FUNCTION FOOD PREPARATION LIGHTS,NECB-B-LIGHTING,FOOD PREPARATION-SPACE FUNCTION ZN,1875.00,93.8,20062.333,10.700,213.775,0.000,0.500,0.200,0.300,1.000,General,2006.233,18056.100
 Lights Internal Gains Nominal, FOOD PREPARATION - VENTED-SPACE FUNCTION ZN SPACE FUNCTION FOOD PREPARATION - VENTED LIGHTS,NECB-B-LIGHTING,FOOD PREPARATION - VENTED-SPACE FUNCTION ZN,1875.00,93.8,20062.333,10.700,213.775,0.000,0.500,0.200,0.300,1.000,General,2006.233,18056.100
 Lights Internal Gains Nominal, GYM - AUDIENCE-SPACE FUNCTION ZN SPACE FUNCTION GYM - AUDIENCE LIGHTS,NECB-B-LIGHTING,GYM - AUDIENCE-SPACE FUNCTION ZN,1875.00,375.0,8624.928,4.600,23.001,0.000,0.500,0.200,0.300,1.000,General,862.493,7762.435
 Lights Internal Gains Nominal, GYM - FITNESS-SPACE FUNCTION ZN SPACE FUNCTION GYM - FITNESS LIGHTS,NECB-B-LIGHTING,GYM - FITNESS-SPACE FUNCTION ZN,1875.00,375.0,18374.847,9.800,49.001,0.000,0.500,0.200,0.300,1.000,General,1837.485,16537.362
 Lights Internal Gains Nominal, GYM - PLAY-SPACE FUNCTION ZN SPACE FUNCTION GYM - PLAY LIGHTS,NECB-B-LIGHTING,GYM - PLAY-SPACE FUNCTION ZN,2500.00,500.0,32249.732,12.900,64.502,0.000,0.500,0.200,0.300,1.000,General,3224.973,29024.758
 Lights Internal Gains Nominal, HOSPITAL - EMERGENCY-SPACE FUNCTION ZN SPACE FUNCTION HOSPITAL - EMERGENCY LIGHTS,NECB-H-LIGHTING,HOSPITAL - EMERGENCY-SPACE FUNCTION ZN,1875.00,93.8,45562.121,24.300,485.489,0.000,0.500,0.200,0.300,1.000,General,41005.909,41005.909
 Lights Internal Gains Nominal, HOSPITAL - EXAM-SPACE FUNCTION ZN SPACE FUNCTION HOSPITAL - EXAM LIGHTS,NECB-C-LIGHTING,HOSPITAL - EXAM-SPACE FUNCTION ZN,1875.00,93.8,33562.221,17.900,357.624,0.000,0.500,0.200,0.300,1.000,General,1678.111,30205.999
 Lights Internal Gains Nominal, HOSPITAL - LAUNDRY/WASHING-SPACE FUNCTION ZN SPACE FUNCTION HOSPITAL - LAUNDRY/WASHING LIGHTS,NECB-C-LIGHTING,HOSPITAL - LAUNDRY/WASHING-SPACE FUNCTION ZN,2500.00,125.1,19999.834,8.000,159.832,0.000,0.500,0.200,0.300,1.000,General,999.992,17999.850
 Lights Internal Gains Nominal, HOSPITAL - LOUNGE/RECREATION-SPACE FUNCTION ZN SPACE FUNCTION HOSPITAL - LOUNGE/RECREATION LIGHTS,NECB-B-LIGHTING,HOSPITAL - LOUNGE/RECREATION-SPACE FUNCTION ZN,1875.00,187.5,21562.321,11.500,115.003,0.000,0.500,0.200,0.300,1.000,General,2156.232,19406.088
 Lights Internal Gains Nominal, HOSPITAL - MEDICAL SUPPLY-SPACE FUNCTION ZN SPACE FUNCTION HOSPITAL - MEDICAL SUPPLY LIGHTS,NECB-H-LIGHTING,HOSPITAL - MEDICAL SUPPLY-SPACE FUNCTION ZN,1875.00,93.8,25687.286,13.700,273.712,0.000,0.500,0.200,0.300,1.000,General,23118.558,23118.558
! <ElectricEquipment Internal Gains Nominal>,Name,Schedule Name,Zone Name,Zone Floor Area {m2},# Zone Occupants,Equipment Level {W},Equipment/Floor Area {W/m2},Equipment per person {W/person},Fraction Latent,Fraction Radiant,Fraction Lost,Fraction Convected,End-Use SubCategory,Nominal Minimum Equipment Level {W},Nominal Maximum Equipment Level {W}
 ElectricEquipment Internal Gains Nominal, COURTHOUSE - CHAMBERS-SPACE FUNCTION ZN SPACE FUNCTION COURTHOUSE - CHAMBERS ELEC EQUIP,NECB-A-ELECTRIC-EQUIPMENT,COURTHOUSE - CHAMBERS-SPACE FUNCTION ZN,1875.00,93.8,14062.383,7.500,149.842,0.000,0.500,0.000,0.500,General,2812.477,12656.145
 ElectricEquipment Internal Gains Nominal, COURTHOUSE - COURTROOM-SPACE FUNCTION ZN SPACE FUNCTION COURTHOUSE - COURTROOM ELEC EQUIP,NECB-A-ELECTRIC-EQUIPMENT,COURTHOUSE - COURTROOM-SPACE FUNCTION ZN,1875.00,375.0,4687.461,2.500,12.500,0.000,0.500,0.000,0.500,General,937.492,4218.715
 ElectricEquipment Internal Gains Nominal, DINING - BAR LOUNGE/LEISURE-SPACE FUNCTION ZN SPACE FUNCTION DINING - BAR LOUNGE/LEISURE ELEC EQUIP,NECB-B-ELECTRIC-EQUIPMENT,DINING - BAR LOUNGE/LEISURE-SPACE FUNCTION ZN,1875.00,187.5,1874.984,1.000,10.000,0.000,0.500,0.000,0.500,General,187.498,1687.486
 ElectricEquipment Internal Gains Nominal, DINING - FAMILY SPACE-SPACE FUNCTION ZN SPACE FUNCTION DINING - FAMILY SPACE ELEC EQUIP,NECB-B-ELECTRIC-EQUIPMENT,DINING - FAMILY SPACE-SPACE FUNCTION ZN,1875.00,187.5,1874.984,1.000,10.000,0.000,0.500,0.000,0.500,General,187.498,1687.486
 ElectricEquipment Internal Gains Nominal, DINING - OTHER-SPACE FUNCTION ZN SPACE FUNCTION DINING - OTHER ELEC EQUIP,NECB-B-ELECTRIC-EQUIPMENT,DINING - OTHER-SPACE FUNCTION ZN,1875.00,187.5,1874.984,1.000,10.000,0.000,0.500,0.000,0.500,General,187.498,1687.486
 ElectricEquipment Internal Gains Nominal, DORMITORY - LIVING QUARTERS-SPACE FUNCTION ZN SPACE FUNCTION DORMITORY - LIVING QUARTERS ELEC EQUIP,NECB-G-ELECTRIC-EQUIPMENT,DORMITORY - LIVING QUARTERS-SPACE FUNCTION ZN,2500.00,100.1,6249.948,2.500,62.434,0.000,0.500,0.000,0.500,General,1249.990,5624.953
 ElectricEquipment Internal Gains Nominal, DRESS./FITT. - PERFORMANCE ARTS-SPACE FUNCTION ZN SPACE FUNCTION DRESS./FITT. - PERFORMANCE ARTS ELEC EQUIP,NECB-C-ELECTRIC-EQUIPMENT,DRESS./FITT. - PERFORMANCE ARTS-SPACE FUNCTION ZN,1875.00,62.6,4687.461,2.500,74.921,0.000,0.500,0.000,0.500,General,234.373,4218.715
 ElectricEquipment Internal Gains Nominal, DWELLING UNIT(S)-SPACE FUNCTION ZN SPACE FUNCTION DWELLING UNIT(S) ELEC EQUIP,NECB-G-ELECTRIC-EQUIPMENT,DWELLING UNIT(S)-SPACE FUNCTION ZN,1875.00,31.3,9374.922,5.000,299.685,0.000,0.500,0.000,0.500,General,1874.984,8437.430
 ElectricEquipment Internal Gains Nominal, FIRE STATION - ENGINE ROOM-SPACE FUNCTION ZN SPACE FUNCTION FIRE STATION - ENGINE ROOM ELEC EQUIP,NECB-H-ELECTRIC-EQUIPMENT,FIRE STATION - ENGINE ROOM-SPACE FUNCTION ZN,1875.00,75.1,4687.461,2.500,62.434,0.000,0.500,0.000,0.500,General,4218.715,4218.715
 ElectricEquipment Internal Gains Nominal, FIRE STATION - QUARTERS-SPACE FUNCTION ZN SPACE FUNCTION FIRE STATION - QUARTERS ELEC EQUIP,NECB-G-ELECTRIC-EQUIPMENT,FIRE STATION - QUARTERS-SPACE FUNCTION ZN,2500.00,100.1,6249.948,2.500,62.434,0.000,0.500,0.000,0.500,General,1249.990,5624.953
 ElectricEquipment Internal Gains Nominal, FOOD PREPARATION-SPACE FUNCTION ZN SPACE FUNCTION FOOD PREPARATION ELEC EQUIP,NECB-B-ELECTRIC-EQUIPMENT,FOOD PREPARATION-SPACE FUNCTION ZN,1875.00,93.8,18749.844,10.000,199.790,0.000,0.500,0.000,0.500,General,1874.984,16874.860
 ElectricEquipment Internal Gains Nominal, FOOD PREPARATION - VENTED-SPACE FUNCTION ZN SPACE FUNCTION FOOD PREPARATION - VENTED ELEC EQUIP,NECB-B-ELECTRIC-EQUIPMENT,FOOD PREPARATION - VENTED-SPACE FUNCTION ZN,1875.00,93.8,18749.844,10.000,199.790,0.000,0.500,0.000,0.500,General,1874.984,16874.860
 ElectricEquipment Internal Gains Nominal, GYM - FITNESS-SPACE FUNCTION ZN SPACE FUNCTION GYM - FITNESS ELEC EQUIP,NECB-B-ELECTRIC-EQUIPMENT,GYM - FITNESS-SPACE FUNCTION ZN,1875.00,375.0,1874.984,1.000,5.000,0.000,0.500,0.000,0.500,General,187.498,1687.486
 ElectricEquipment Internal Gains Nominal, GYM - PLAY-SPACE FUNCTION ZN SPACE FUNCTION GYM - PLAY ELEC EQUIP,NECB-B-ELECTRIC-EQUIPMENT,GYM - PLAY-SPACE FUNCTION ZN,2500.00,500.0,3749.969,1.500,7.500,0.000,0.500,0.000,0.500,General,374.997,3374.972
 ElectricEquipment Internal Gains Nominal, HOSPITAL - EMERGENCY-SPACE FUNCTION ZN SPACE FUNCTION HOSPITAL - EMERGENCY ELEC EQUIP,NECB-H-ELECTRIC-EQUIPMENT,HOSPITAL - EMERGENCY-SPACE FUNCTION ZN,1875.00,93.8,18749.844,10.000,199.790,0.000,0.500,0.000,0.500,General,16874.860,16874.860
 ElectricEquipment Internal Gains Nominal, HOSPITAL - EXAM-SPACE FUNCTION ZN SPACE FUNCTION HOSPITAL - EXAM ELEC EQUIP,NECB-C-ELECTRIC-EQUIPMENT,HOSPITAL - EXAM-SPACE FUNCTION ZN,1875.00,93.8,18749.844,10.000,199.790,0.000,0.500,0.000,0.500,General,937.492,16874.860
 ElectricEquipment Internal Gains Nominal, HOSPITAL - LAUNDRY/WASHING-SPACE FUNCTION ZN SPACE FUNCTION HOSPITAL - LAUNDRY/WASHING ELEC EQUIP,NECB-C-ELECTRIC-EQUIPMENT,HOSPITAL - LAUNDRY/WASHING-SPACE FUNCTION ZN,2500.00,125.1,49999.584,20.000,399.580,0.000,0.500,0.000,0.500,General,2499.979,44999.625
 ElectricEquipment Internal Gains Nominal, HOSPITAL - LOUNGE/RECREATION-SPACE FUNCTION ZN SPACE FUNCTION HOSPITAL - LOUNGE/RECREATION ELEC EQUIP,NECB-B-ELECTRIC-EQUIPMENT,HOSPITAL - LOUNGE/RECREATION-SPACE FUNCTION ZN,1875.00,187.5,1874.984,1.000,10.000,0.000,0.500,0.000,0.500,General,187.498,1687.486
 ElectricEquipment Internal Gains Nominal, HOSPITAL - MEDICAL SUPPLY-SPACE FUNCTION ZN SPACE FUNCTION HOSPITAL - MEDICAL SUPPLY ELEC EQUIP,NECB-H-ELECTRIC-EQUIPMENT,HOSPITAL - MEDICAL SUPPLY-SPACE FUNCTION ZN,1875.00,93.8,1874.984,1.000,19.979,0.000,0.500,0.000,0.500,General,1687.486,1687.486
! <Shadowing/Sun Position Calculations Annual Simulations>, Calculation Method, Value {days}, Allowable Number Figures in Shadow Overlap {}, Polygon Clipping Algorithm, Sky Diffuse Modeling Algorithm, External Shading Calculation Method, Output External Shading Calculation Results, Disable Self-Shading Within Shading Zone Groups, Disable Self-Shading From Shading Zone Groups to Other Zones
Shadowing/Sun Position Calculations Annual Simulations,AverageOverDaysInFrequency,20,15000,SutherlandHodgman,SimpleSkyDiffuseModeling,InternalCalculation,No,No,No
! <ZoneInfiltration Airflow Stats Nominal>,Name,Schedule Name,Zone Name, Zone Floor Area {m2}, # Zone Occupants,Design Volume Flow Rate {m3/s},Volume Flow Rate/Floor Area {m3/s/m2},Volume Flow Rate/Exterior Surface Area {m3/s/m2},ACH - Air Changes per Hour,Equation A - Constant Term Coefficient {},Equation B - Temperature Term Coefficient {1/C},Equation C - Velocity Term Coefficient {s/m}, Equation D - Velocity Squared Term Coefficient {s2/m2}
 ZoneInfiltration Airflow Stats Nominal, COURTHOUSE - CHAMBERS-SPACE FUNCTION INFILTRATION,ALWAYS ON DISCRETE,COURTHOUSE - CHAMBERS-SPACE FUNCTION ZN,1875.00,93.8,0.564,3.007E-004,2.500E-004,0.285,0.000,0.000,0.224,0.000
 ZoneInfiltration Airflow Stats Nominal, COURTHOUSE - COURTROOM-SPACE FUNCTION INFILTRATION,ALWAYS ON DISCRETE,COURTHOUSE - COURTROOM-SPACE FUNCTION ZN,1875.00,375.0,0.564,3.007E-004,2.500E-004,0.285,0.000,0.000,0.224,0.000
 ZoneInfiltration Airflow Stats Nominal, DINING - BAR LOUNGE/LEISURE-SPACE FUNCTION INFILTRATION,ALWAYS ON DISCRETE,DINING - BAR LOUNGE/LEISURE-SPACE FUNCTION ZN,1875.00,187.5,0.564,3.007E-004,2.500E-004,0.285,0.000,0.000,0.224,0.000
 ZoneInfiltration Airflow Stats Nominal, DINING - FAMILY SPACE-SPACE FUNCTION INFILTRATION,ALWAYS ON DISCRETE,DINING - FAMILY SPACE-SPACE FUNCTION ZN,1875.00,187.5,0.564,3.007E-004,2.500E-004,0.285,0.000,0.000,0.224,0.000
 ZoneInfiltration Airflow Stats Nominal, DINING - OTHER-SPACE FUNCTION INFILTRATION,ALWAYS ON DISCRETE,DINING - OTHER-SPACE FUNCTION ZN,1875.00,187.5,9.500E-002,5.067E-005,2.500E-004,4.800E-002,0.000,0.000,0.224,0.000
 ZoneInfiltration Airflow Stats Nominal, DWELLING UNIT(S)-SPACE FUNCTION INFILTRATION,ALWAYS ON DISCRETE,DWELLING UNIT(S)-SPACE FUNCTION ZN,1875.00,31.3,9.500E-002,5.067E-005,2.500E-004,4.800E-002,0.000,0.000,0.224,0.000
 ZoneInfiltration Airflow Stats Nominal, FIRE STATION - QUARTERS-SPACE FUNCTION INFILTRATION,ALWAYS ON DISCRETE,FIRE STATION - QUARTERS-SPACE FUNCTION ZN,2500.00,100.1,0.625,2.500E-004,2.500E-004,0.237,0.000,0.000,0.224,0.000
 ZoneInfiltration Airflow Stats Nominal, FOOD PREPARATION-SPACE FUNCTION INFILTRATION,ALWAYS ON DISCRETE,FOOD PREPARATION-SPACE FUNCTION ZN,1875.00,93.8,9.500E-002,5.067E-005,2.500E-004,4.800E-002,0.000,0.000,0.224,0.000
 ZoneInfiltration Airflow Stats Nominal, GYM - FITNESS-SPACE FUNCTION INFILTRATION,ALWAYS ON DISCRETE,GYM - FITNESS-SPACE FUNCTION ZN,1875.00,375.0,9.500E-002,5.067E-005,2.500E-004,4.800E-002,0.000,0.000,0.224,0.000
 ZoneInfiltration Airflow Stats Nominal, HOSPITAL - EMERGENCY-SPACE FUNCTION INFILTRATION,ALWAYS ON DISCRETE,HOSPITAL - EMERGENCY-SPACE FUNCTION ZN,1875.00,93.8,9.500E-002,5.067E-005,2.500E-004,4.800E-002,0.000,0.000,0.224,0.000
 ZoneInfiltration Airflow Stats Nominal, HOSPITAL - EXAM-SPACE FUNCTION INFILTRATION,ALWAYS ON DISCRETE,HOSPITAL - EXAM-SPACE FUNCTION ZN,1875.00,93.8,9.500E-002,5.067E-005,2.500E-004,4.800E-002,0.000,0.000,0.224,0.000
 ZoneInfiltration Airflow Stats Nominal, HOSPITAL - LOUNGE/RECREATION-SPACE FUNCTION INFILTRATION,ALWAYS ON DISCRETE,HOSPITAL - LOUNGE/RECREATION-SPACE FUNCTION ZN,1875.00,187.5,9.500E-002,5.067E-005,2.500E-004,4.800E-002,0.000,0.000,0.224,0.000
 ZoneInfiltration Airflow Stats Nominal, HOSPITAL - MEDICAL SUPPLY-SPACE FUNCTION INFILTRATION,ALWAYS ON DISCRETE,HOSPITAL - MEDICAL SUPPLY-SPACE FUNCTION ZN,1875.00,93.8,9.500E-002,5.067E-005,2.500E-004,4.800E-002,0.000,0.000,0.224,0.000
! <AirFlow Model>, Simple
 AirFlow Model, Simple
! <RoomAir Model>, Zone Name, Mixing/Mundt/UCSDDV/UCSDCV/UCSDUFI/UCSDUFE/User Defined
RoomAir Model,COURTHOUSE - CHAMBERS-SPACE FUNCTION ZN,Mixing/Well-Stirred
RoomAir Model,COURTHOUSE - COURTROOM-SPACE FUNCTION ZN,Mixing/Well-Stirred
RoomAir Model,DINING - BAR LOUNGE/LEISURE-SPACE FUNCTION ZN,Mixing/Well-Stirred
RoomAir Model,DINING - FAMILY SPACE-SPACE FUNCTION ZN,Mixing/Well-Stirred
RoomAir Model,DINING - OTHER-SPACE FUNCTION ZN,Mixing/Well-Stirred
RoomAir Model,DORMITORY - LIVING QUARTERS-SPACE FUNCTION ZN,Mixing/Well-Stirred
RoomAir Model,DRESS./FITT. - PERFORMANCE ARTS-SPACE FUNCTION ZN,Mixing/Well-Stirred
RoomAir Model,DWELLING UNIT(S)-SPACE FUNCTION ZN,Mixing/Well-Stirred
RoomAir Model,FIRE STATION - ENGINE ROOM-SPACE FUNCTION ZN,Mixing/Well-Stirred
RoomAir Model,FIRE STATION - QUARTERS-SPACE FUNCTION ZN,Mixing/Well-Stirred
RoomAir Model,FOOD PREPARATION - VENTED-SPACE FUNCTION ZN,Mixing/Well-Stirred
RoomAir Model,FOOD PREPARATION-SPACE FUNCTION ZN,Mixing/Well-Stirred
RoomAir Model,GYM - AUDIENCE-SPACE FUNCTION ZN,Mixing/Well-Stirred
RoomAir Model,GYM - FITNESS-SPACE FUNCTION ZN,Mixing/Well-Stirred
RoomAir Model,GYM - PLAY-SPACE FUNCTION ZN,Mixing/Well-Stirred
RoomAir Model,HOSPITAL - EMERGENCY-SPACE FUNCTION ZN,Mixing/Well-Stirred
RoomAir Model,HOSPITAL - EXAM-SPACE FUNCTION ZN,Mixing/Well-Stirred
RoomAir Model,HOSPITAL - LAUNDRY/WASHING-SPACE FUNCTION ZN,Mixing/Well-Stirred
RoomAir Model,HOSPITAL - LOUNGE/RECREATION-SPACE FUNCTION ZN,Mixing/Well-Stirred
RoomAir Model,HOSPITAL - MEDICAL SUPPLY-SPACE FUNCTION ZN,Mixing/Well-Stirred
! <AirflowNetwork Model:Control>, No Multizone or Distribution/Multizone with Distribution/Multizone without Distribution/Multizone with Distribution only during Fan Operation
AirflowNetwork Model:Control,NoMultizoneOrDistribution
! <Zone Volume Capacitance Multiplier>, Sensible Heat Capacity Multiplier, Moisture Capacity Multiplier, Carbon Dioxide Capacity Multiplier, Generic Contaminant Capacity Multiplier
Zone Volume Capacitance Multiplier,   1.000 ,   1.000,   1.000,   1.000
! <Load Timesteps in Zone Design Calculation Averaging Window>, Value
 Load Timesteps in Zone Design Calculation Averaging Window,    6
! <Heating Sizing Factor Information>, Sizing Factor ID, Value
 Heating Sizing Factor Information, Global,   1.2500    
 Heating Sizing Factor Information, Zone COURTHOUSE - CHAMBERS-SPACE FUNCTION ZN,   1.2500    
 Heating Sizing Factor Information, Zone COURTHOUSE - COURTROOM-SPACE FUNCTION ZN,   1.2500    
 Heating Sizing Factor Information, Zone DINING - BAR LOUNGE/LEISURE-SPACE FUNCTION ZN,   1.2500    
 Heating Sizing Factor Information, Zone DINING - FAMILY SPACE-SPACE FUNCTION ZN,   1.2500    
 Heating Sizing Factor Information, Zone DINING - OTHER-SPACE FUNCTION ZN,   1.2500    
 Heating Sizing Factor Information, Zone DORMITORY - LIVING QUARTERS-SPACE FUNCTION ZN,   1.2500    
 Heating Sizing Factor Information, Zone DRESS./FITT. - PERFORMANCE ARTS-SPACE FUNCTION ZN,   1.2500    
 Heating Sizing Factor Information, Zone DWELLING UNIT(S)-SPACE FUNCTION ZN,   1.2500    
 Heating Sizing Factor Information, Zone FIRE STATION - ENGINE ROOM-SPACE FUNCTION ZN,   1.2500    
 Heating Sizing Factor Information, Zone FIRE STATION - QUARTERS-SPACE FUNCTION ZN,   1.2500    
 Heating Sizing Factor Information, Zone FOOD PREPARATION - VENTED-SPACE FUNCTION ZN,   1.2500    
 Heating Sizing Factor Information, Zone FOOD PREPARATION-SPACE FUNCTION ZN,   1.2500    
 Heating Sizing Factor Information, Zone GYM - AUDIENCE-SPACE FUNCTION ZN,   1.2500    
 Heating Sizing Factor Information, Zone GYM - FITNESS-SPACE FUNCTION ZN,   1.2500    
 Heating Sizing Factor Information, Zone GYM - PLAY-SPACE FUNCTION ZN,   1.2500    
 Heating Sizing Factor Information, Zone HOSPITAL - EMERGENCY-SPACE FUNCTION ZN,   1.2500    
 Heating Sizing Factor Information, Zone HOSPITAL - EXAM-SPACE FUNCTION ZN,   1.2500    
 Heating Sizing Factor Information, Zone HOSPITAL - LAUNDRY/WASHING-SPACE FUNCTION ZN,   1.2500    
 Heating Sizing Factor Information, Zone HOSPITAL - LOUNGE/RECREATION-SPACE FUNCTION ZN,   1.2500    
 Heating Sizing Factor Information, Zone HOSPITAL - MEDICAL SUPPLY-SPACE FUNCTION ZN,   1.2500    
! <Cooling Sizing Factor Information>, Sizing Factor ID, Value
 Cooling Sizing Factor Information, Global,   1.1500    
 Cooling Sizing Factor Information, Zone COURTHOUSE - CHAMBERS-SPACE FUNCTION ZN,   1.1500    
 Cooling Sizing Factor Information, Zone COURTHOUSE - COURTROOM-SPACE FUNCTION ZN,   1.1500    
 Cooling Sizing Factor Information, Zone DINING - BAR LOUNGE/LEISURE-SPACE FUNCTION ZN,   1.1500    
 Cooling Sizing Factor Information, Zone DINING - FAMILY SPACE-SPACE FUNCTION ZN,   1.1500    
 Cooling Sizing Factor Information, Zone DINING - OTHER-SPACE FUNCTION ZN,   1.1500    
 Cooling Sizing Factor Information, Zone DORMITORY - LIVING QUARTERS-SPACE FUNCTION ZN,   1.1500    
 Cooling Sizing Factor Information, Zone DRESS./FITT. - PERFORMANCE ARTS-SPACE FUNCTION ZN,   1.1500    
 Cooling Sizing Factor Information, Zone DWELLING UNIT(S)-SPACE FUNCTION ZN,   1.1500    
 Cooling Sizing Factor Information, Zone FIRE STATION - ENGINE ROOM-SPACE FUNCTION ZN,   1.1500    
 Cooling Sizing Factor Information, Zone FIRE STATION - QUARTERS-SPACE FUNCTION ZN,   1.1500    
 Cooling Sizing Factor Information, Zone FOOD PREPARATION - VENTED-SPACE FUNCTION ZN,   1.1500    
 Cooling Sizing Factor Information, Zone FOOD PREPARATION-SPACE FUNCTION ZN,   1.1500    
 Cooling Sizing Factor Information, Zone GYM - AUDIENCE-SPACE FUNCTION ZN,   1.1500    
 Cooling Sizing Factor Information, Zone GYM - FITNESS-SPACE FUNCTION ZN,   1.1500    
 Cooling Sizing Factor Information, Zone GYM - PLAY-SPACE FUNCTION ZN,   1.1500    
 Cooling Sizing Factor Information, Zone HOSPITAL - EMERGENCY-SPACE FUNCTION ZN,   1.1500    
 Cooling Sizing Factor Information, Zone HOSPITAL - EXAM-SPACE FUNCTION ZN,   1.1500    
 Cooling Sizing Factor Information, Zone HOSPITAL - LAUNDRY/WASHING-SPACE FUNCTION ZN,   1.1500    
 Cooling Sizing Factor Information, Zone HOSPITAL - LOUNGE/RECREATION-SPACE FUNCTION ZN,   1.1500    
 Cooling Sizing Factor Information, Zone HOSPITAL - MEDICAL SUPPLY-SPACE FUNCTION ZN,   1.1500    
! <Zone Sizing Information>, Zone Name, Load Type, Calc Des Load {W}, User Des Load {W}, Calc Des Air Flow Rate {m3/s}, User Des Air Flow Rate {m3/s}, Design Day Name, Date/Time of Peak, Temperature at Peak {C}, Humidity Ratio at Peak {kgWater/kgDryAir}, Floor Area {m2}, # Occupants, Calc Outdoor Air Flow Rate {m3/s}, Calc DOAS Heat Addition Rate {W}
 Zone Sizing Information, COURTHOUSE - CHAMBERS-SPACE FUNCTION ZN, Cooling, 91133.81900, 104803.89185, 7.74787, 8.91005, FORT MCMURRAY AP ANN CLG .4% CONDNS DB=>MWB, 7/21 13:30:00, 28.59000, 8.76969E-003, 1875.00000, 93.84784, 0.80963, 0.00000
 Zone Sizing Information, COURTHOUSE - CHAMBERS-SPACE FUNCTION ZN, Heating, 45320.85590, 56651.06987, 2.10006, 2.62508, FORT MCMURRAY AP ANN HTG 99.6% CONDNS DB, 1/21 08:00:00, -36.20000, 1.25811E-004, 1875.00000, 93.84784, 0.80963, 0.00000
 Zone Sizing Information, COURTHOUSE - COURTROOM-SPACE FUNCTION ZN, Cooling, 102148.87012, 117471.20064, 8.68718, 9.99025, FORT MCMURRAY AP ANN CLG .4% CONDNS DB=>MWB, 7/21 10:30:00, 25.11800, 8.76969E-003, 1875.00000, 374.98773, 3.90525, 0.00000
 Zone Sizing Information, COURTHOUSE - COURTROOM-SPACE FUNCTION ZN, Heating, 42368.59140, 52960.73925, 1.88457, 3.90525, FORT MCMURRAY AP ANN HTG 99.6% CONDNS DB, 1/21 07:30:00, -36.20000, 1.25811E-004, 1875.00000, 374.98773, 3.90525, 0.00000
 Zone Sizing Information, DINING - BAR LOUNGE/LEISURE-SPACE FUNCTION ZN, Cooling, 80419.59456, 92482.53374, 6.83731, 7.86291, FORT MCMURRAY AP ANN CLG .4% CONDNS DB=>MWB, 7/21 15:40:00, 28.40400, 8.76969E-003, 1875.00000, 187.49386, 6.71513, 0.00000
 Zone Sizing Information, DINING - BAR LOUNGE/LEISURE-SPACE FUNCTION ZN, Heating, 38929.19916, 48661.49895, 1.77437, 6.71513, FORT MCMURRAY AP ANN HTG 99.6% CONDNS DB, 1/21 09:50:00, -36.20000, 1.25811E-004, 1875.00000, 187.49386, 6.71513, 0.00000
 Zone Sizing Information, DINING - FAMILY SPACE-SPACE FUNCTION ZN, Cooling, 66916.98640, 76954.53436, 5.68967, 6.71513, FORT MCMURRAY AP ANN CLG .4% CONDNS DB=>MWB, 7/21 13:20:00, 28.48667, 8.76969E-003, 1875.00000, 187.49386, 6.71513, 0.00000
 Zone Sizing Information, DINING - FAMILY SPACE-SPACE FUNCTION ZN, Heating, 41741.44586, 52176.80732, 1.93023, 6.71513, FORT MCMURRAY AP ANN HTG 99.6% CONDNS DB, 1/21 10:00:00, -36.20000, 1.25811E-004, 1875.00000, 187.49386, 6.71513, 0.00000
 Zone Sizing Information, DINING - OTHER-SPACE FUNCTION ZN, Cooling, 45724.90222, 52583.63755, 3.88788, 6.71513, FORT MCMURRAY AP ANN CLG .4% CONDNS DB=>MWB, 7/21 13:50:00, 28.79667, 8.76969E-003, 1875.00000, 187.49386, 6.71513, 0.00000
 Zone Sizing Information, DINING - OTHER-SPACE FUNCTION ZN, Heating, 14207.99266, 17759.99082, 0.63771, 6.71513, FORT MCMURRAY AP ANN HTG 99.6% CONDNS DB, 1/21 10:00:00, -36.20000, 1.25811E-004, 1875.00000, 187.49386, 6.71513, 0.00000
 Zone Sizing Information, DORMITORY - LIVING QUARTERS-SPACE FUNCTION ZN, Cooling, 29279.22995, 33671.11444, 2.48926, 2.86265, FORT MCMURRAY AP ANN CLG .4% CONDNS DB=>MWB, 7/21 20:00:00, 22.70000, 8.76969E-003, 2500.00000, 100.10437, 1.39700, 0.00000
 Zone Sizing Information, DORMITORY - LIVING QUARTERS-SPACE FUNCTION ZN, Heating, 0.00000, 0.00000, 0.00000, 1.39700, FORT MCMURRAY AP ANN HTG 99.6% CONDNS DB, , -36.20000, 1.25811E-004, 2500.00000, 100.10437, 1.39700, 0.00000
 Zone Sizing Information, DRESS./FITT. - PERFORMANCE ARTS-SPACE FUNCTION ZN, Cooling, 18923.52872, 21762.05803, 1.48662, 2.21933, FORT MCMURRAY AP ANN CLG .4% CONDNS DB=>MWB, 7/21 08:00:00, 19.72400, 8.76969E-003, 1875.00000, 62.56523, 2.21933, 0.00000
 Zone Sizing Information, DRESS./FITT. - PERFORMANCE ARTS-SPACE FUNCTION ZN, Heating, 0.00000, 0.00000, 0.00000, 2.21933, FORT MCMURRAY AP ANN HTG 99.6% CONDNS DB, , -36.20000, 1.25811E-004, 1875.00000, 62.56523, 2.21933, 0.00000
 Zone Sizing Information, DWELLING UNIT(S)-SPACE FUNCTION ZN, Cooling, 30927.96547, 35567.16029, 2.62930, 3.02370, FORT MCMURRAY AP ANN CLG .4% CONDNS DB=>MWB, 7/21 20:00:00, 22.70000, 8.76969E-003, 1875.00000, 31.28261, 0.64770, 0.00000
 Zone Sizing Information, DWELLING UNIT(S)-SPACE FUNCTION ZN, Heating, 4568.01148, 5710.01435, 0.21594, 0.64770, FORT MCMURRAY AP ANN HTG 99.6% CONDNS DB, 1/21 10:10:00, -36.20000, 1.25811E-004, 1875.00000, 31.28261, 0.64770, 0.00000
 Zone Sizing Information, FIRE STATION - ENGINE ROOM-SPACE FUNCTION ZN, Cooling, 21000.36556, 24150.42039, 1.78542, 2.38125, FORT MCMURRAY AP ANN CLG .4% CONDNS DB=>MWB, 7/21 19:30:00, 23.38200, 8.76969E-003, 1875.00000, 75.07828, 2.38125, 0.00000
 Zone Sizing Information, FIRE STATION - ENGINE ROOM-SPACE FUNCTION ZN, Heating, 0.00000, 0.00000, 0.00000, 2.38125, FORT MCMURRAY AP ANN HTG 99.6% CONDNS DB, , -36.20000, 1.25811E-004, 1875.00000, 75.07828, 2.38125, 0.00000
 Zone Sizing Information, FIRE STATION - QUARTERS-SPACE FUNCTION ZN, Cooling, 55477.80610, 63799.47701, 4.71636, 5.42382, FORT MCMURRAY AP ANN CLG .4% CONDNS DB=>MWB, 7/21 13:40:00, 28.69333, 8.76969E-003, 2500.00000, 100.10437, 2.03200, 0.00000
 Zone Sizing Information, FIRE STATION - QUARTERS-SPACE FUNCTION ZN, Heating, 35560.20028, 44450.25035, 1.62513, 2.03200, FORT MCMURRAY AP ANN HTG 99.6% CONDNS DB, 1/21 09:00:00, -36.20000, 1.25811E-004, 2500.00000, 100.10437, 2.03200, 0.00000
 Zone Sizing Information, FOOD PREPARATION - VENTED-SPACE FUNCTION ZN, Cooling, 36824.10468, 42347.72038, 3.13067, 3.60027, FORT MCMURRAY AP ANN CLG .4% CONDNS DB=>MWB, 7/21 13:00:00, 28.28000, 8.76969E-003, 1875.00000, 93.84784, 2.57175, 0.00000
 Zone Sizing Information, FOOD PREPARATION - VENTED-SPACE FUNCTION ZN, Heating, 0.00000, 0.00000, 0.00000, 2.57175, FORT MCMURRAY AP ANN HTG 99.6% CONDNS DB, , -36.20000, 1.25811E-004, 1875.00000, 93.84784, 2.57175, 0.00000
 Zone Sizing Information, FOOD PREPARATION-SPACE FUNCTION ZN, Cooling, 52419.96356, 60282.95810, 4.45645, 5.12492, FORT MCMURRAY AP ANN CLG .4% CONDNS DB=>MWB, 7/21 18:50:00, 24.37400, 8.76969E-003, 1875.00000, 93.84784, 2.57175, 0.00000
 Zone Sizing Information, FOOD PREPARATION-SPACE FUNCTION ZN, Heating, 0.00000, 0.00000, 0.00000, 2.57175, FORT MCMURRAY AP ANN HTG 99.6% CONDNS DB, , -36.20000, 1.25811E-004, 1875.00000, 93.84784, 2.57175, 0.00000
 Zone Sizing Information, GYM - AUDIENCE-SPACE FUNCTION ZN, Cooling, 30403.47709, 34963.99866, 2.58560, 7.71525, FORT MCMURRAY AP ANN CLG .4% CONDNS DB=>MWB, 7/21 20:10:00, 22.51400, 8.76969E-003, 1875.00000, 374.98773, 7.71525, 0.00000
 Zone Sizing Information, GYM - AUDIENCE-SPACE FUNCTION ZN, Heating, 0.00000, 0.00000, 0.00000, 7.71525, FORT MCMURRAY AP ANN HTG 99.6% CONDNS DB, , -36.20000, 1.25811E-004, 1875.00000, 374.98773, 7.71525, 0.00000
 Zone Sizing Information, GYM - FITNESS-SPACE FUNCTION ZN, Cooling, 62647.39010, 72044.49862, 5.32746, 8.19150, FORT MCMURRAY AP ANN CLG .4% CONDNS DB=>MWB, 7/21 20:00:00, 22.70000, 8.76969E-003, 1875.00000, 374.98773, 8.19150, 0.00000
 Zone Sizing Information, GYM - FITNESS-SPACE FUNCTION ZN, Heating, 9059.10961, 11323.88701, 0.40641, 8.19150, FORT MCMURRAY AP ANN HTG 99.6% CONDNS DB, 1/21 10:00:00, -36.20000, 1.25811E-004, 1875.00000, 374.98773, 8.19150, 0.00000
 Zone Sizing Information, GYM - PLAY-SPACE FUNCTION ZN, Cooling, 56527.85565, 65007.03399, 4.80760, 5.52874, FORT MCMURRAY AP ANN CLG .4% CONDNS DB=>MWB, 7/21 21:00:00, 21.58400, 8.76969E-003, 2500.00000, 499.98364, 3.81000, 0.00000
 Zone Sizing Information, GYM - PLAY-SPACE FUNCTION ZN, Heating, 0.00000, 0.00000, 0.00000, 3.81000, FORT MCMURRAY AP ANN HTG 99.6% CONDNS DB, , -36.20000, 1.25811E-004, 2500.00000, 499.98364, 3.81000, 0.00000
 Zone Sizing Information, HOSPITAL - EMERGENCY-SPACE FUNCTION ZN, Cooling, 53528.62370, 61557.91726, 4.55101, 5.71500, FORT MCMURRAY AP ANN CLG .4% CONDNS DB=>MWB, 7/21 20:20:00, 22.32800, 8.76969E-003, 1875.00000, 93.84784, 5.71500, 0.00000
 Zone Sizing Information, HOSPITAL - EMERGENCY-SPACE FUNCTION ZN, Heating, 0.00000, 0.00000, 0.00000, 5.71500, FORT MCMURRAY AP ANN HTG 99.6% CONDNS DB, , -36.20000, 1.25811E-004, 1875.00000, 93.84784, 5.71500, 0.00000
 Zone Sizing Information, HOSPITAL - EXAM-SPACE FUNCTION ZN, Cooling, 61557.34737, 70790.94947, 5.23315, 6.01812, FORT MCMURRAY AP ANN CLG .4% CONDNS DB=>MWB, 7/21 10:20:00, 24.80800, 8.76969E-003, 1875.00000, 93.84784, 2.85750, 0.00000
 Zone Sizing Information, HOSPITAL - EXAM-SPACE FUNCTION ZN, Heating, 6201.19670, 7751.49588, 0.27067, 2.85750, FORT MCMURRAY AP ANN HTG 99.6% CONDNS DB, 1/21 08:10:00, -36.20000, 1.25811E-004, 1875.00000, 93.84784, 2.85750, 0.00000
 Zone Sizing Information, HOSPITAL - LAUNDRY/WASHING-SPACE FUNCTION ZN, Cooling, 54530.99271, 62710.64162, 4.63616, 5.71500, FORT MCMURRAY AP ANN CLG .4% CONDNS DB=>MWB, 7/21 17:00:00, 27.16400, 8.76969E-003, 2500.00000, 125.13046, 5.71500, 0.00000
 Zone Sizing Information, HOSPITAL - LAUNDRY/WASHING-SPACE FUNCTION ZN, Heating, 0.00000, 0.00000, 0.00000, 5.71500, FORT MCMURRAY AP ANN HTG 99.6% CONDNS DB, , -36.20000, 1.25811E-004, 2500.00000, 125.13046, 5.71500, 0.00000
 Zone Sizing Information, HOSPITAL - LOUNGE/RECREATION-SPACE FUNCTION ZN, Cooling, 57670.96322, 66321.60770, 4.33576, 4.98612, FORT MCMURRAY AP ANN CLG .4% CONDNS DB=>MWB, 7/21 09:00:00, 22.08000, 8.76969E-003, 1875.00000, 187.49386, 2.38125, 0.00000
 Zone Sizing Information, HOSPITAL - LOUNGE/RECREATION-SPACE FUNCTION ZN, Heating, 0.00000, 0.00000, 0.00000, 2.38125, FORT MCMURRAY AP ANN HTG 99.6% CONDNS DB, , -36.20000, 1.25811E-004, 1875.00000, 187.49386, 2.38125, 0.00000
 Zone Sizing Information, HOSPITAL - MEDICAL SUPPLY-SPACE FUNCTION ZN, Cooling, 41028.85236, 47183.18022, 3.48828, 4.01153, FORT MCMURRAY AP ANN CLG .4% CONDNS DB=>MWB, 7/21 13:50:00, 28.79667, 8.76969E-003, 1875.00000, 93.84784, 2.85750, 0.00000
 Zone Sizing Information, HOSPITAL - MEDICAL SUPPLY-SPACE FUNCTION ZN, Heating, 0.00000, 0.00000, 0.00000, 2.85750, FORT MCMURRAY AP ANN HTG 99.6% CONDNS DB, , -36.20000, 1.25811E-004, 1875.00000, 93.84784, 2.85750, 0.00000
! <Component Sizing Information>, Component Type, Component Name, Input Field Description, Value
 Component Sizing Information, ZoneHVAC:IdealLoadsAirSystem, ZONE HVAC IDEAL LOADS AIR SYSTEM 1, User-Specified Maximum Heating Air Flow Rate [m3/s], 0.00000
 Component Sizing Information, ZoneHVAC:IdealLoadsAirSystem, ZONE HVAC IDEAL LOADS AIR SYSTEM 1, User-Specified Maximum Cooling Air Flow Rate [m3/s], 0.00000
 Component Sizing Information, ZoneHVAC:IdealLoadsAirSystem, ZONE HVAC IDEAL LOADS AIR SYSTEM 2, User-Specified Maximum Heating Air Flow Rate [m3/s], 0.00000
 Component Sizing Information, ZoneHVAC:IdealLoadsAirSystem, ZONE HVAC IDEAL LOADS AIR SYSTEM 2, User-Specified Maximum Cooling Air Flow Rate [m3/s], 0.00000
 Component Sizing Information, ZoneHVAC:IdealLoadsAirSystem, ZONE HVAC IDEAL LOADS AIR SYSTEM 3, User-Specified Maximum Heating Air Flow Rate [m3/s], 0.00000
 Component Sizing Information, ZoneHVAC:IdealLoadsAirSystem, ZONE HVAC IDEAL LOADS AIR SYSTEM 3, User-Specified Maximum Cooling Air Flow Rate [m3/s], 0.00000
 Component Sizing Information, ZoneHVAC:IdealLoadsAirSystem, ZONE HVAC IDEAL LOADS AIR SYSTEM 4, User-Specified Maximum Heating Air Flow Rate [m3/s], 0.00000
 Component Sizing Information, ZoneHVAC:IdealLoadsAirSystem, ZONE HVAC IDEAL LOADS AIR SYSTEM 4, User-Specified Maximum Cooling Air Flow Rate [m3/s], 0.00000
 Component Sizing Information, ZoneHVAC:IdealLoadsAirSystem, ZONE HVAC IDEAL LOADS AIR SYSTEM 5, User-Specified Maximum Heating Air Flow Rate [m3/s], 0.00000
 Component Sizing Information, ZoneHVAC:IdealLoadsAirSystem, ZONE HVAC IDEAL LOADS AIR SYSTEM 5, User-Specified Maximum Cooling Air Flow Rate [m3/s], 0.00000
 Component Sizing Information, ZoneHVAC:IdealLoadsAirSystem, ZONE HVAC IDEAL LOADS AIR SYSTEM 6, User-Specified Maximum Heating Air Flow Rate [m3/s], 0.00000
 Component Sizing Information, ZoneHVAC:IdealLoadsAirSystem, ZONE HVAC IDEAL LOADS AIR SYSTEM 6, User-Specified Maximum Cooling Air Flow Rate [m3/s], 0.00000
 Component Sizing Information, ZoneHVAC:IdealLoadsAirSystem, ZONE HVAC IDEAL LOADS AIR SYSTEM 7, User-Specified Maximum Heating Air Flow Rate [m3/s], 0.00000
 Component Sizing Information, ZoneHVAC:IdealLoadsAirSystem, ZONE HVAC IDEAL LOADS AIR SYSTEM 7, User-Specified Maximum Cooling Air Flow Rate [m3/s], 0.00000
 Component Sizing Information, ZoneHVAC:IdealLoadsAirSystem, ZONE HVAC IDEAL LOADS AIR SYSTEM 8, User-Specified Maximum Heating Air Flow Rate [m3/s], 0.00000
 Component Sizing Information, ZoneHVAC:IdealLoadsAirSystem, ZONE HVAC IDEAL LOADS AIR SYSTEM 8, User-Specified Maximum Cooling Air Flow Rate [m3/s], 0.00000
 Component Sizing Information, ZoneHVAC:IdealLoadsAirSystem, ZONE HVAC IDEAL LOADS AIR SYSTEM 9, User-Specified Maximum Heating Air Flow Rate [m3/s], 0.00000
 Component Sizing Information, ZoneHVAC:IdealLoadsAirSystem, ZONE HVAC IDEAL LOADS AIR SYSTEM 9, User-Specified Maximum Cooling Air Flow Rate [m3/s], 0.00000
 Component Sizing Information, ZoneHVAC:IdealLoadsAirSystem, ZONE HVAC IDEAL LOADS AIR SYSTEM 10, User-Specified Maximum Heating Air Flow Rate [m3/s], 0.00000
 Component Sizing Information, ZoneHVAC:IdealLoadsAirSystem, ZONE HVAC IDEAL LOADS AIR SYSTEM 10, User-Specified Maximum Cooling Air Flow Rate [m3/s], 0.00000
 Component Sizing Information, ZoneHVAC:IdealLoadsAirSystem, ZONE HVAC IDEAL LOADS AIR SYSTEM 11, User-Specified Maximum Heating Air Flow Rate [m3/s], 0.00000
 Component Sizing Information, ZoneHVAC:IdealLoadsAirSystem, ZONE HVAC IDEAL LOADS AIR SYSTEM 11, User-Specified Maximum Cooling Air Flow Rate [m3/s], 0.00000
 Component Sizing Information, ZoneHVAC:IdealLoadsAirSystem, ZONE HVAC IDEAL LOADS AIR SYSTEM 12, User-Specified Maximum Heating Air Flow Rate [m3/s], 0.00000
 Component Sizing Information, ZoneHVAC:IdealLoadsAirSystem, ZONE HVAC IDEAL LOADS AIR SYSTEM 12, User-Specified Maximum Cooling Air Flow Rate [m3/s], 0.00000
 Component Sizing Information, ZoneHVAC:IdealLoadsAirSystem, ZONE HVAC IDEAL LOADS AIR SYSTEM 13, User-Specified Maximum Heating Air Flow Rate [m3/s], 0.00000
 Component Sizing Information, ZoneHVAC:IdealLoadsAirSystem, ZONE HVAC IDEAL LOADS AIR SYSTEM 13, User-Specified Maximum Cooling Air Flow Rate [m3/s], 0.00000
 Component Sizing Information, ZoneHVAC:IdealLoadsAirSystem, ZONE HVAC IDEAL LOADS AIR SYSTEM 14, User-Specified Maximum Heating Air Flow Rate [m3/s], 0.00000
 Component Sizing Information, ZoneHVAC:IdealLoadsAirSystem, ZONE HVAC IDEAL LOADS AIR SYSTEM 14, User-Specified Maximum Cooling Air Flow Rate [m3/s], 0.00000
 Component Sizing Information, ZoneHVAC:IdealLoadsAirSystem, ZONE HVAC IDEAL LOADS AIR SYSTEM 15, User-Specified Maximum Heating Air Flow Rate [m3/s], 0.00000
 Component Sizing Information, ZoneHVAC:IdealLoadsAirSystem, ZONE HVAC IDEAL LOADS AIR SYSTEM 15, User-Specified Maximum Cooling Air Flow Rate [m3/s], 0.00000
 Component Sizing Information, ZoneHVAC:IdealLoadsAirSystem, ZONE HVAC IDEAL LOADS AIR SYSTEM 16, User-Specified Maximum Heating Air Flow Rate [m3/s], 0.00000
 Component Sizing Information, ZoneHVAC:IdealLoadsAirSystem, ZONE HVAC IDEAL LOADS AIR SYSTEM 16, User-Specified Maximum Cooling Air Flow Rate [m3/s], 0.00000
 Component Sizing Information, ZoneHVAC:IdealLoadsAirSystem, ZONE HVAC IDEAL LOADS AIR SYSTEM 17, User-Specified Maximum Heating Air Flow Rate [m3/s], 0.00000
 Component Sizing Information, ZoneHVAC:IdealLoadsAirSystem, ZONE HVAC IDEAL LOADS AIR SYSTEM 17, User-Specified Maximum Cooling Air Flow Rate [m3/s], 0.00000
 Component Sizing Information, ZoneHVAC:IdealLoadsAirSystem, ZONE HVAC IDEAL LOADS AIR SYSTEM 18, User-Specified Maximum Heating Air Flow Rate [m3/s], 0.00000
 Component Sizing Information, ZoneHVAC:IdealLoadsAirSystem, ZONE HVAC IDEAL LOADS AIR SYSTEM 18, User-Specified Maximum Cooling Air Flow Rate [m3/s], 0.00000
 Component Sizing Information, ZoneHVAC:IdealLoadsAirSystem, ZONE HVAC IDEAL LOADS AIR SYSTEM 19, User-Specified Maximum Heating Air Flow Rate [m3/s], 0.00000
 Component Sizing Information, ZoneHVAC:IdealLoadsAirSystem, ZONE HVAC IDEAL LOADS AIR SYSTEM 19, User-Specified Maximum Cooling Air Flow Rate [m3/s], 0.00000
 Component Sizing Information, ZoneHVAC:IdealLoadsAirSystem, ZONE HVAC IDEAL LOADS AIR SYSTEM 20, User-Specified Maximum Heating Air Flow Rate [m3/s], 0.00000
 Component Sizing Information, ZoneHVAC:IdealLoadsAirSystem, ZONE HVAC IDEAL LOADS AIR SYSTEM 20, User-Specified Maximum Cooling Air Flow Rate [m3/s], 0.00000
! <Environment>,Environment Name,Environment Type, Start Date, End Date, Start DayOfWeek, Duration {#days}, Source:Start DayOfWeek,  Use Daylight Saving, Use Holidays, Apply Weekend Holiday Rule,  Use Rain Values, Use Snow Values
! <Environment:Special Days>, Special Day Name, Special Day Type, Source, Start Date, Duration {#days}
! <Environment:Daylight Saving>, Daylight Saving Indicator, Source, Start Date, End Date
! <Environment:WarmupDays>, NumberofWarmupDays
Environment,FORT MCMURRAY AP ANN CLG .4% CONDNS DB=>MWB,SizingPeriod:DesignDay,07/21,07/21,SummerDesignDay,1,N/A,N/A,N/A,N/A,N/A,N/A
Environment:Daylight Saving,No,SizingPeriod:DesignDay
! <Environment:Design Day Data>, Max Dry-Bulb Temp {C}, Temp Range {dC}, Temp Range Ind Type, Hum Ind Value at Max Temp, Hum Ind Type,Pressure {Pa}, Wind Direction {deg CW from N}, Wind Speed {m/s}, Clearness, Rain, Snow
! <Environment:Design Day Misc>,DayOfYear,ASHRAE A Coeff,ASHRAE B Coeff,ASHRAE C Coeff,Solar Constant-Annual Variation,Eq of Time {minutes}, Solar Declination Angle {deg}, Solar Model
Environment:Design Day Data,28.90,12.40,DefaultMultipliers,96969,250,3.7,0.00,No,No
Environment:Design Day Misc,202,1084.4,0.2082,0.1365,1.0,-6.23,20.6,ASHRAETau
Environment:WarmupDays,  6
! <Tabular Report>,Style,Unit Conversion
Tabular Report,HTML,None
! <Warmup Convergence Information>,Zone Name,Environment Type/Name,Average Warmup Temperature Difference {deltaC},Std Dev Warmup Temperature Difference {deltaC},Max Temperature Pass/Fail Convergence,Min Temperature Pass/Fail Convergence,Average Warmup Load Difference {W},Std Dev Warmup Load Difference {W},Heating Load Pass/Fail Convergence,Cooling Load Pass/Fail Convergence
 Warmup Convergence Information,COURTHOUSE - CHAMBERS-SPACE FUNCTION ZN,SizingPeriod: FORT MCMURRAY AP ANN CLG .4% CONDNS DB=>MWB,3.3342166738E-002,6.0484395909E-002,Pass,Pass,6.4456964953E-002,0.3247920438,Pass,Pass
 Warmup Convergence Information,COURTHOUSE - COURTROOM-SPACE FUNCTION ZN,SizingPeriod: FORT MCMURRAY AP ANN CLG .4% CONDNS DB=>MWB,5.1666304937E-002,7.8026607528E-002,Pass,Pass,3.1651169473E-002,7.3690555372E-002,Pass,Pass
 Warmup Convergence Information,DINING - BAR LOUNGE/LEISURE-SPACE FUNCTION ZN,SizingPeriod: FORT MCMURRAY AP ANN CLG .4% CONDNS DB=>MWB,6.3803660517E-002,0.1133689444,Pass,Pass,3.0936785530E-002,5.3757360726E-002,Pass,Pass
 Warmup Convergence Information,DINING - FAMILY SPACE-SPACE FUNCTION ZN,SizingPeriod: FORT MCMURRAY AP ANN CLG .4% CONDNS DB=>MWB,6.4555841582E-002,0.1215548510,Pass,Pass,3.2111580754E-002,5.8382835470E-002,Pass,Pass
 Warmup Convergence Information,DINING - OTHER-SPACE FUNCTION ZN,SizingPeriod: FORT MCMURRAY AP ANN CLG .4% CONDNS DB=>MWB,4.5855418096E-002,7.1690835534E-002,Pass,Pass,2.6804171636E-002,4.2060147849E-002,Pass,Pass
 Warmup Convergence Information,DORMITORY - LIVING QUARTERS-SPACE FUNCTION ZN,SizingPeriod: FORT MCMURRAY AP ANN CLG .4% CONDNS DB=>MWB,2.4646951147E-014,2.0822133426E-014,Pass,Pass,1.6465084783E-002,3.8417536842E-002,Pass,Pass
 Warmup Convergence Information,DRESS./FITT. - PERFORMANCE ARTS-SPACE FUNCTION ZN,SizingPeriod: FORT MCMURRAY AP ANN CLG .4% CONDNS DB=>MWB,2.7892350604E-002,4.5266655595E-002,Pass,Pass,3.3674805748E-002,7.6035329609E-002,Pass,Pass
 Warmup Convergence Information,DWELLING UNIT(S)-SPACE FUNCTION ZN,SizingPeriod: FORT MCMURRAY AP ANN CLG .4% CONDNS DB=>MWB,3.5921882752E-014,2.4128796615E-014,Pass,Pass,1.8006350182E-002,3.5916288523E-002,Pass,Pass
 Warmup Convergence Information,FIRE STATION - ENGINE ROOM-SPACE FUNCTION ZN,SizingPeriod: FORT MCMURRAY AP ANN CLG .4% CONDNS DB=>MWB,2.7037613840E-003,7.4096854962E-003,Pass,Pass,2.3891972881E-003,4.6058044555E-003,Pass,Pass
 Warmup Convergence Information,FIRE STATION - QUARTERS-SPACE FUNCTION ZN,SizingPeriod: FORT MCMURRAY AP ANN CLG .4% CONDNS DB=>MWB,2.6280555673E-002,5.2308430907E-002,Pass,Pass,2.6123426253E-002,3.4889187889E-002,Pass,Pass
 Warmup Convergence Information,FOOD PREPARATION - VENTED-SPACE FUNCTION ZN,SizingPeriod: FORT MCMURRAY AP ANN CLG .4% CONDNS DB=>MWB,2.4057621617E-002,5.1742392082E-002,Pass,Pass,2.6433688027E-002,8.0088230116E-002,Pass,Pass
 Warmup Convergence Information,FOOD PREPARATION-SPACE FUNCTION ZN,SizingPeriod: FORT MCMURRAY AP ANN CLG .4% CONDNS DB=>MWB,2.3473353991E-002,5.0047457739E-002,Pass,Pass,2.8837669115E-002,7.5728679904E-002,Pass,Pass
 Warmup Convergence Information,GYM - AUDIENCE-SPACE FUNCTION ZN,SizingPeriod: FORT MCMURRAY AP ANN CLG .4% CONDNS DB=>MWB,5.9413647895E-002,0.1065729313,Pass,Pass,6.8249542434E-002,0.1597921072,Pass,Pass
 Warmup Convergence Information,GYM - FITNESS-SPACE FUNCTION ZN,SizingPeriod: FORT MCMURRAY AP ANN CLG .4% CONDNS DB=>MWB,5.0363477328E-002,8.2117420617E-002,Pass,Pass,3.6953982055E-002,6.1798510174E-002,Pass,Pass
 Warmup Convergence Information,GYM - PLAY-SPACE FUNCTION ZN,SizingPeriod: FORT MCMURRAY AP ANN CLG .4% CONDNS DB=>MWB,2.4153600807E-002,4.9332518688E-002,Pass,Pass,3.3972953112E-002,6.8575847842E-002,Pass,Pass
 Warmup Convergence Information,HOSPITAL - EMERGENCY-SPACE FUNCTION ZN,SizingPeriod: FORT MCMURRAY AP ANN CLG .4% CONDNS DB=>MWB,1.0382048662E-003,3.8441543141E-003,Pass,Pass,1.7345839197E-003,1.6746083357E-003,Pass,Pass
 Warmup Convergence Information,HOSPITAL - EXAM-SPACE FUNCTION ZN,SizingPeriod: FORT MCMURRAY AP ANN CLG .4% CONDNS DB=>MWB,3.3584148511E-002,6.4289270388E-002,Pass,Pass,2.9370529563E-002,0.1720100980,Pass,Pass
 Warmup Convergence Information,HOSPITAL - LAUNDRY/WASHING-SPACE FUNCTION ZN,SizingPeriod: FORT MCMURRAY AP ANN CLG .4% CONDNS DB=>MWB,4.3764325778E-002,8.4145791655E-002,Pass,Pass,2.7863692916E-002,8.5962857891E-002,Pass,Pass
 Warmup Convergence Information,HOSPITAL - LOUNGE/RECREATION-SPACE FUNCTION ZN,SizingPeriod: FORT MCMURRAY AP ANN CLG .4% CONDNS DB=>MWB,2.7951348280E-002,8.7020488201E-002,Pass,Pass,2.2729713578E-002,6.2755341946E-002,Pass,Pass
 Warmup Convergence Information,HOSPITAL - MEDICAL SUPPLY-SPACE FUNCTION ZN,SizingPeriod: FORT MCMURRAY AP ANN CLG .4% CONDNS DB=>MWB,3.1595015359E-003,8.8145593090E-003,Pass,Pass,7.0660547783E-003,6.6207340980E-003,Pass,Pass
Environment,FORT MCMURRAY AP ANN HTG 99.6% CONDNS DB,SizingPeriod:DesignDay,01/21,01/21,WinterDesignDay,1,N/A,N/A,N/A,N/A,N/A,N/A
Environment:Daylight Saving,No,SizingPeriod:DesignDay
Environment:Design Day Data,-36.20,0.00,DefaultMultipliers,96969,90,1.0,0.00,No,No
Environment:Design Day Misc, 21,1229.0,0.1415,5.7310E-002,1.0,-11.15,-20.1,ASHRAEClearSky
Environment:WarmupDays,  6
 Warmup Convergence Information,COURTHOUSE - CHAMBERS-SPACE FUNCTION ZN,SizingPeriod: FORT MCMURRAY AP ANN HTG 99.6% CONDNS DB,5.7096230618E-002,0.3338073898,Pass,Pass,0.1145423087,0.4544053550,Pass,Pass
 Warmup Convergence Information,COURTHOUSE - COURTROOM-SPACE FUNCTION ZN,SizingPeriod: FORT MCMURRAY AP ANN HTG 99.6% CONDNS DB,5.5555555556E-002,0.3773867201,Pass,Pass,0.4691027261,2.9183458158,Pass,Pass
 Warmup Convergence Information,DINING - BAR LOUNGE/LEISURE-SPACE FUNCTION ZN,SizingPeriod: FORT MCMURRAY AP ANN HTG 99.6% CONDNS DB,5.5555555556E-002,0.3883646354,Pass,Pass,0.1075625257,0.4202075492,Pass,Pass
 Warmup Convergence Information,DINING - FAMILY SPACE-SPACE FUNCTION ZN,SizingPeriod: FORT MCMURRAY AP ANN HTG 99.6% CONDNS DB,5.5555555556E-002,0.3884077850,Pass,Pass,0.1216870111,0.6273315651,Pass,Pass
 Warmup Convergence Information,DINING - OTHER-SPACE FUNCTION ZN,SizingPeriod: FORT MCMURRAY AP ANN HTG 99.6% CONDNS DB,5.5555555556E-002,0.3879417091,Pass,Pass,4.1412401174,47.3875272867,Pass,Pass
 Warmup Convergence Information,DORMITORY - LIVING QUARTERS-SPACE FUNCTION ZN,SizingPeriod: FORT MCMURRAY AP ANN HTG 99.6% CONDNS DB,5.9625270145E-002,0.3261246977,Pass,Pass,0.2161834119,0.9223068646,Pass,Pass
 Warmup Convergence Information,DRESS./FITT. - PERFORMANCE ARTS-SPACE FUNCTION ZN,SizingPeriod: FORT MCMURRAY AP ANN HTG 99.6% CONDNS DB,5.5977501378E-002,0.3592407443,Pass,Pass,0.4337867429,2.4859734660,Pass,Pass
 Warmup Convergence Information,DWELLING UNIT(S)-SPACE FUNCTION ZN,SizingPeriod: FORT MCMURRAY AP ANN HTG 99.6% CONDNS DB,6.1833510704E-002,0.3128706003,Pass,Pass,0.2712678454,1.6639931939,Pass,Pass
 Warmup Convergence Information,FIRE STATION - ENGINE ROOM-SPACE FUNCTION ZN,SizingPeriod: FORT MCMURRAY AP ANN HTG 99.6% CONDNS DB,5.6086686262E-002,0.3577620723,Pass,Pass,0.4555409998,4.2951230365,Pass,Pass
 Warmup Convergence Information,FIRE STATION - QUARTERS-SPACE FUNCTION ZN,SizingPeriod: FORT MCMURRAY AP ANN HTG 99.6% CONDNS DB,5.6389572701E-002,0.3511969374,Pass,Pass,0.1269655236,0.6703818306,Pass,Pass
 Warmup Convergence Information,FOOD PREPARATION - VENTED-SPACE FUNCTION ZN,SizingPeriod: FORT MCMURRAY AP ANN HTG 99.6% CONDNS DB,5.5642076704E-002,0.3629659659,Pass,Pass,0.2386381080,1.1744384985,Pass,Pass
 Warmup Convergence Information,FOOD PREPARATION-SPACE FUNCTION ZN,SizingPeriod: FORT MCMURRAY AP ANN HTG 99.6% CONDNS DB,5.5555555556E-002,0.3648576790,Pass,Pass,0.1957528864,0.6292239432,Pass,Pass
 Warmup Convergence Information,GYM - AUDIENCE-SPACE FUNCTION ZN,SizingPeriod: FORT MCMURRAY AP ANN HTG 99.6% CONDNS DB,5.5555555556E-002,0.3893903962,Pass,Pass,0.3118807068,1.3235147866,Pass,Pass
 Warmup Convergence Information,GYM - FITNESS-SPACE FUNCTION ZN,SizingPeriod: FORT MCMURRAY AP ANN HTG 99.6% CONDNS DB,5.5555555556E-002,0.3901864352,Pass,Pass,0.2065042146,0.5965442847,Pass,Pass
 Warmup Convergence Information,GYM - PLAY-SPACE FUNCTION ZN,SizingPeriod: FORT MCMURRAY AP ANN HTG 99.6% CONDNS DB,5.5555555556E-002,0.3655330400,Pass,Pass,0.2619101491,1.2204238737,Pass,Pass
 Warmup Convergence Information,HOSPITAL - EMERGENCY-SPACE FUNCTION ZN,SizingPeriod: FORT MCMURRAY AP ANN HTG 99.6% CONDNS DB,5.5555555556E-002,0.3824429048,Pass,Pass,5.9934147529E-002,0.2776918698,Pass,Pass
 Warmup Convergence Information,HOSPITAL - EXAM-SPACE FUNCTION ZN,SizingPeriod: FORT MCMURRAY AP ANN HTG 99.6% CONDNS DB,5.5555555556E-002,0.3670042483,Pass,Pass,0.3223821171,2.5348759702,Pass,Pass
 Warmup Convergence Information,HOSPITAL - LAUNDRY/WASHING-SPACE FUNCTION ZN,SizingPeriod: FORT MCMURRAY AP ANN HTG 99.6% CONDNS DB,5.5555555556E-002,0.3768541402,Pass,Pass,2.0028544978,22.0190393186,Pass,Pass
 Warmup Convergence Information,HOSPITAL - LOUNGE/RECREATION-SPACE FUNCTION ZN,SizingPeriod: FORT MCMURRAY AP ANN HTG 99.6% CONDNS DB,5.5681316810E-002,0.3623152023,Pass,Pass,0.4929502421,2.5592418415,Pass,Pass
 Warmup Convergence Information,HOSPITAL - MEDICAL SUPPLY-SPACE FUNCTION ZN,SizingPeriod: FORT MCMURRAY AP ANN HTG 99.6% CONDNS DB,5.5555555556E-002,0.3650342691,Pass,Pass,0.2983859307,1.7486305508,Pass,Pass
! <Program Control Information:Threads/Parallel Sims>, Threading Supported,Maximum Number of Threads, Env Set Threads (OMP_NUM_THREADS), EP Env Set Threads (EP_OMP_NUM_THREADS), IDF Set Threads, Number of Threads Used (Interior Radiant Exchange), Number Nominal Surfaces, Number Parallel Sims
Program Control:Threads/Parallel Sims, No,1, N/A, N/A, N/A, N/A, N/A, N/A
End of Data
