! Program Version,EnergyPlus, Version 8.9.0-eba93e8e1b, YMD=2019.03.28 13:14,
! Output:Meter Objects (applicable to this run)
Output:Meter,Electricity:Facility,hourly; !- [J]
Output:Meter:Cumulative,Electricity:Facility,hourly; !- [J]
Output:Meter,Electricity:Building,hourly; !- [J]
Output:Meter:Cumulative,Electricity:Building,hourly; !- [J]
Output:Meter,Electricity:Zone:HOSPITAL - MEDICAL SUPPLY - OCCSENS-SPACE FUNCTION ZN,hourly; !- [J]
Output:Meter:Cumulative,Electricity:Zone:HOSPITAL - MEDICAL SUPPLY - OCCSENS-SPACE FUNCTION ZN,hourly; !- [J]
Output:Meter,InteriorLights:Electricity,hourly; !- [J]
Output:Meter:Cumulative,InteriorLights:Electricity,hourly; !- [J]
Output:Meter,InteriorLights:Electricity:Zone:HOSPITAL - MEDICAL SUPPLY - OCCSENS-SPACE FUNCTION ZN,hourly; !- [J]
Output:Meter:Cumulative,InteriorLights:Electricity:Zone:HOSPITAL - MEDICAL SUPPLY - OCCSENS-SPACE FUNCTION ZN,hourly; !- [J]
Output:Meter,General:InteriorLights:Electricity,hourly; !- [J]
Output:Meter:Cumulative,General:InteriorLights:Electricity,hourly; !- [J]
Output:Meter,Electricity:Zone:HOSPITAL - NURSERY-SPACE FUNCTION ZN,hourly; !- [J]
Output:Meter:Cumulative,Electricity:Zone:HOSPITAL - NURSERY-SPACE FUNCTION ZN,hourly; !- [J]
Output:Meter,InteriorLights:Electricity:Zone:HOSPITAL - NURSERY-SPACE FUNCTION ZN,hourly; !- [J]
Output:Meter:Cumulative,InteriorLights:Electricity:Zone:HOSPITAL - NURSERY-SPACE FUNCTION ZN,hourly; !- [J]
Output:Meter,Electricity:Zone:HOSPITAL - NURSES STATION-SPACE FUNCTION ZN,hourly; !- [J]
Output:Meter:Cumulative,Electricity:Zone:HOSPITAL - NURSES STATION-SPACE FUNCTION ZN,hourly; !- [J]
Output:Meter,InteriorLights:Electricity:Zone:HOSPITAL - NURSES STATION-SPACE FUNCTION ZN,hourly; !- [J]
Output:Meter:Cumulative,InteriorLights:Electricity:Zone:HOSPITAL - NURSES STATION-SPACE FUNCTION ZN,hourly; !- [J]
Output:Meter,Electricity:Zone:HOSPITAL - OPERATING ROOM-SPACE FUNCTION ZN,hourly; !- [J]
Output:Meter:Cumulative,Electricity:Zone:HOSPITAL - OPERATING ROOM-SPACE FUNCTION ZN,hourly; !- [J]
Output:Meter,InteriorLights:Electricity:Zone:HOSPITAL - OPERATING ROOM-SPACE FUNCTION ZN,hourly; !- [J]
Output:Meter:Cumulative,InteriorLights:Electricity:Zone:HOSPITAL - OPERATING ROOM-SPACE FUNCTION ZN,hourly; !- [J]
Output:Meter,Electricity:Zone:HOSPITAL - PATIENT ROOM-SPACE FUNCTION ZN,hourly; !- [J]
Output:Meter:Cumulative,Electricity:Zone:HOSPITAL - PATIENT ROOM-SPACE FUNCTION ZN,hourly; !- [J]
Output:Meter,InteriorLights:Electricity:Zone:HOSPITAL - PATIENT ROOM-SPACE FUNCTION ZN,hourly; !- [J]
Output:Meter:Cumulative,InteriorLights:Electricity:Zone:HOSPITAL - PATIENT ROOM-SPACE FUNCTION ZN,hourly; !- [J]
Output:Meter,Electricity:Zone:HOSPITAL - PHARMACY-SPACE FUNCTION ZN,hourly; !- [J]
Output:Meter:Cumulative,Electricity:Zone:HOSPITAL - PHARMACY-SPACE FUNCTION ZN,hourly; !- [J]
Output:Meter,InteriorLights:Electricity:Zone:HOSPITAL - PHARMACY-SPACE FUNCTION ZN,hourly; !- [J]
Output:Meter:Cumulative,InteriorLights:Electricity:Zone:HOSPITAL - PHARMACY-SPACE FUNCTION ZN,hourly; !- [J]
Output:Meter,Electricity:Zone:HOSPITAL - PHYSICAL THERAPY-SPACE FUNCTION ZN,hourly; !- [J]
Output:Meter:Cumulative,Electricity:Zone:HOSPITAL - PHYSICAL THERAPY-SPACE FUNCTION ZN,hourly; !- [J]
Output:Meter,InteriorLights:Electricity:Zone:HOSPITAL - PHYSICAL THERAPY-SPACE FUNCTION ZN,hourly; !- [J]
Output:Meter:Cumulative,InteriorLights:Electricity:Zone:HOSPITAL - PHYSICAL THERAPY-SPACE FUNCTION ZN,hourly; !- [J]
Output:Meter,Electricity:Zone:HOSPITAL - RADIOLOGY/IMAGING-SPACE FUNCTION ZN,hourly; !- [J]
Output:Meter:Cumulative,Electricity:Zone:HOSPITAL - RADIOLOGY/IMAGING-SPACE FUNCTION ZN,hourly; !- [J]
Output:Meter,InteriorLights:Electricity:Zone:HOSPITAL - RADIOLOGY/IMAGING-SPACE FUNCTION ZN,hourly; !- [J]
Output:Meter:Cumulative,InteriorLights:Electricity:Zone:HOSPITAL - RADIOLOGY/IMAGING-SPACE FUNCTION ZN,hourly; !- [J]
Output:Meter,Electricity:Zone:HOSPITAL - RECOVERY-SPACE FUNCTION ZN,hourly; !- [J]
Output:Meter:Cumulative,Electricity:Zone:HOSPITAL - RECOVERY-SPACE FUNCTION ZN,hourly; !- [J]
Output:Meter,InteriorLights:Electricity:Zone:HOSPITAL - RECOVERY-SPACE FUNCTION ZN,hourly; !- [J]
Output:Meter:Cumulative,InteriorLights:Electricity:Zone:HOSPITAL - RECOVERY-SPACE FUNCTION ZN,hourly; !- [J]
Output:Meter,Electricity:Zone:HOTEL/MOTEL - DINING-SPACE FUNCTION ZN,hourly; !- [J]
Output:Meter:Cumulative,Electricity:Zone:HOTEL/MOTEL - DINING-SPACE FUNCTION ZN,hourly; !- [J]
Output:Meter,InteriorLights:Electricity:Zone:HOTEL/MOTEL - DINING-SPACE FUNCTION ZN,hourly; !- [J]
Output:Meter:Cumulative,InteriorLights:Electricity:Zone:HOTEL/MOTEL - DINING-SPACE FUNCTION ZN,hourly; !- [J]
Output:Meter,Electricity:Zone:HOTEL/MOTEL - LOBBY-SPACE FUNCTION ZN,hourly; !- [J]
Output:Meter:Cumulative,Electricity:Zone:HOTEL/MOTEL - LOBBY-SPACE FUNCTION ZN,hourly; !- [J]
Output:Meter,InteriorLights:Electricity:Zone:HOTEL/MOTEL - LOBBY-SPACE FUNCTION ZN,hourly; !- [J]
Output:Meter:Cumulative,InteriorLights:Electricity:Zone:HOTEL/MOTEL - LOBBY-SPACE FUNCTION ZN,hourly; !- [J]
Output:Meter,Electricity:Zone:HOTEL/MOTEL - ROOMS-SPACE FUNCTION ZN,hourly; !- [J]
Output:Meter:Cumulative,Electricity:Zone:HOTEL/MOTEL - ROOMS-SPACE FUNCTION ZN,hourly; !- [J]
Output:Meter,InteriorLights:Electricity:Zone:HOTEL/MOTEL - ROOMS-SPACE FUNCTION ZN,hourly; !- [J]
Output:Meter:Cumulative,InteriorLights:Electricity:Zone:HOTEL/MOTEL - ROOMS-SPACE FUNCTION ZN,hourly; !- [J]
Output:Meter,Electricity:Zone:HWAY LODGING - DINING-SPACE FUNCTION ZN,hourly; !- [J]
Output:Meter:Cumulative,Electricity:Zone:HWAY LODGING - DINING-SPACE FUNCTION ZN,hourly; !- [J]
Output:Meter,InteriorLights:Electricity:Zone:HWAY LODGING - DINING-SPACE FUNCTION ZN,hourly; !- [J]
Output:Meter:Cumulative,InteriorLights:Electricity:Zone:HWAY LODGING - DINING-SPACE FUNCTION ZN,hourly; !- [J]
Output:Meter,Electricity:Zone:HWAY LODGING - ROOMS-SPACE FUNCTION ZN,hourly; !- [J]
Output:Meter:Cumulative,Electricity:Zone:HWAY LODGING - ROOMS-SPACE FUNCTION ZN,hourly; !- [J]
Output:Meter,InteriorLights:Electricity:Zone:HWAY LODGING - ROOMS-SPACE FUNCTION ZN,hourly; !- [J]
Output:Meter:Cumulative,InteriorLights:Electricity:Zone:HWAY LODGING - ROOMS-SPACE FUNCTION ZN,hourly; !- [J]
Output:Meter,Electricity:Zone:LAB - CLASSROOMS-SPACE FUNCTION ZN,hourly; !- [J]
Output:Meter:Cumulative,Electricity:Zone:LAB - CLASSROOMS-SPACE FUNCTION ZN,hourly; !- [J]
Output:Meter,InteriorLights:Electricity:Zone:LAB - CLASSROOMS-SPACE FUNCTION ZN,hourly; !- [J]
Output:Meter:Cumulative,InteriorLights:Electricity:Zone:LAB - CLASSROOMS-SPACE FUNCTION ZN,hourly; !- [J]
Output:Meter,Electricity:Zone:LAB - RESEARCH-SPACE FUNCTION ZN,hourly; !- [J]
Output:Meter:Cumulative,Electricity:Zone:LAB - RESEARCH-SPACE FUNCTION ZN,hourly; !- [J]
Output:Meter,InteriorLights:Electricity:Zone:LAB - RESEARCH-SPACE FUNCTION ZN,hourly; !- [J]
Output:Meter:Cumulative,InteriorLights:Electricity:Zone:LAB - RESEARCH-SPACE FUNCTION ZN,hourly; !- [J]
Output:Meter,Electricity:Zone:LIBRARY - CATALOGING-SPACE FUNCTION ZN,hourly; !- [J]
Output:Meter:Cumulative,Electricity:Zone:LIBRARY - CATALOGING-SPACE FUNCTION ZN,hourly; !- [J]
Output:Meter,InteriorLights:Electricity:Zone:LIBRARY - CATALOGING-SPACE FUNCTION ZN,hourly; !- [J]
Output:Meter:Cumulative,InteriorLights:Electricity:Zone:LIBRARY - CATALOGING-SPACE FUNCTION ZN,hourly; !- [J]
Output:Meter,Electricity:Zone:LIBRARY - READING-SPACE FUNCTION ZN,hourly; !- [J]
Output:Meter:Cumulative,Electricity:Zone:LIBRARY - READING-SPACE FUNCTION ZN,hourly; !- [J]
Output:Meter,InteriorLights:Electricity:Zone:LIBRARY - READING-SPACE FUNCTION ZN,hourly; !- [J]
Output:Meter:Cumulative,InteriorLights:Electricity:Zone:LIBRARY - READING-SPACE FUNCTION ZN,hourly; !- [J]
Output:Meter,Electricity:Zone:LIBRARY - STACKS-SPACE FUNCTION ZN,hourly; !- [J]
Output:Meter:Cumulative,Electricity:Zone:LIBRARY - STACKS-SPACE FUNCTION ZN,hourly; !- [J]
Output:Meter,InteriorLights:Electricity:Zone:LIBRARY - STACKS-SPACE FUNCTION ZN,hourly; !- [J]
Output:Meter:Cumulative,InteriorLights:Electricity:Zone:LIBRARY - STACKS-SPACE FUNCTION ZN,hourly; !- [J]
Output:Meter,Electricity:Zone:LOBBY - ELEVATOR-SPACE FUNCTION ZN,hourly; !- [J]
Output:Meter:Cumulative,Electricity:Zone:LOBBY - ELEVATOR-SPACE FUNCTION ZN,hourly; !- [J]
Output:Meter,InteriorLights:Electricity:Zone:LOBBY - ELEVATOR-SPACE FUNCTION ZN,hourly; !- [J]
Output:Meter:Cumulative,InteriorLights:Electricity:Zone:LOBBY - ELEVATOR-SPACE FUNCTION ZN,hourly; !- [J]
Output:Meter,InteriorEquipment:Electricity,hourly; !- [J]
Output:Meter:Cumulative,InteriorEquipment:Electricity,hourly; !- [J]
Output:Meter,InteriorEquipment:Electricity:Zone:HOSPITAL - MEDICAL SUPPLY - OCCSENS-SPACE FUNCTION ZN,hourly; !- [J]
Output:Meter:Cumulative,InteriorEquipment:Electricity:Zone:HOSPITAL - MEDICAL SUPPLY - OCCSENS-SPACE FUNCTION ZN,hourly; !- [J]
Output:Meter,General:InteriorEquipment:Electricity,hourly; !- [J]
Output:Meter:Cumulative,General:InteriorEquipment:Electricity,hourly; !- [J]
Output:Meter,InteriorEquipment:Electricity:Zone:HOSPITAL - NURSERY-SPACE FUNCTION ZN,hourly; !- [J]
Output:Meter:Cumulative,InteriorEquipment:Electricity:Zone:HOSPITAL - NURSERY-SPACE FUNCTION ZN,hourly; !- [J]
Output:Meter,InteriorEquipment:Electricity:Zone:HOSPITAL - NURSES STATION-SPACE FUNCTION ZN,hourly; !- [J]
Output:Meter:Cumulative,InteriorEquipment:Electricity:Zone:HOSPITAL - NURSES STATION-SPACE FUNCTION ZN,hourly; !- [J]
Output:Meter,InteriorEquipment:Electricity:Zone:HOSPITAL - OPERATING ROOM-SPACE FUNCTION ZN,hourly; !- [J]
Output:Meter:Cumulative,InteriorEquipment:Electricity:Zone:HOSPITAL - OPERATING ROOM-SPACE FUNCTION ZN,hourly; !- [J]
Output:Meter,InteriorEquipment:Electricity:Zone:HOSPITAL - PATIENT ROOM-SPACE FUNCTION ZN,hourly; !- [J]
Output:Meter:Cumulative,InteriorEquipment:Electricity:Zone:HOSPITAL - PATIENT ROOM-SPACE FUNCTION ZN,hourly; !- [J]
Output:Meter,InteriorEquipment:Electricity:Zone:HOSPITAL - PHARMACY-SPACE FUNCTION ZN,hourly; !- [J]
Output:Meter:Cumulative,InteriorEquipment:Electricity:Zone:HOSPITAL - PHARMACY-SPACE FUNCTION ZN,hourly; !- [J]
Output:Meter,InteriorEquipment:Electricity:Zone:HOSPITAL - PHYSICAL THERAPY-SPACE FUNCTION ZN,hourly; !- [J]
Output:Meter:Cumulative,InteriorEquipment:Electricity:Zone:HOSPITAL - PHYSICAL THERAPY-SPACE FUNCTION ZN,hourly; !- [J]
Output:Meter,InteriorEquipment:Electricity:Zone:HOSPITAL - RADIOLOGY/IMAGING-SPACE FUNCTION ZN,hourly; !- [J]
Output:Meter:Cumulative,InteriorEquipment:Electricity:Zone:HOSPITAL - RADIOLOGY/IMAGING-SPACE FUNCTION ZN,hourly; !- [J]
Output:Meter,InteriorEquipment:Electricity:Zone:HOSPITAL - RECOVERY-SPACE FUNCTION ZN,hourly; !- [J]
Output:Meter:Cumulative,InteriorEquipment:Electricity:Zone:HOSPITAL - RECOVERY-SPACE FUNCTION ZN,hourly; !- [J]
Output:Meter,InteriorEquipment:Electricity:Zone:HOTEL/MOTEL - DINING-SPACE FUNCTION ZN,hourly; !- [J]
Output:Meter:Cumulative,InteriorEquipment:Electricity:Zone:HOTEL/MOTEL - DINING-SPACE FUNCTION ZN,hourly; !- [J]
Output:Meter,InteriorEquipment:Electricity:Zone:HOTEL/MOTEL - LOBBY-SPACE FUNCTION ZN,hourly; !- [J]
Output:Meter:Cumulative,InteriorEquipment:Electricity:Zone:HOTEL/MOTEL - LOBBY-SPACE FUNCTION ZN,hourly; !- [J]
Output:Meter,InteriorEquipment:Electricity:Zone:HOTEL/MOTEL - ROOMS-SPACE FUNCTION ZN,hourly; !- [J]
Output:Meter:Cumulative,InteriorEquipment:Electricity:Zone:HOTEL/MOTEL - ROOMS-SPACE FUNCTION ZN,hourly; !- [J]
Output:Meter,InteriorEquipment:Electricity:Zone:HWAY LODGING - DINING-SPACE FUNCTION ZN,hourly; !- [J]
Output:Meter:Cumulative,InteriorEquipment:Electricity:Zone:HWAY LODGING - DINING-SPACE FUNCTION ZN,hourly; !- [J]
Output:Meter,InteriorEquipment:Electricity:Zone:HWAY LODGING - ROOMS-SPACE FUNCTION ZN,hourly; !- [J]
Output:Meter:Cumulative,InteriorEquipment:Electricity:Zone:HWAY LODGING - ROOMS-SPACE FUNCTION ZN,hourly; !- [J]
Output:Meter,InteriorEquipment:Electricity:Zone:LAB - CLASSROOMS-SPACE FUNCTION ZN,hourly; !- [J]
Output:Meter:Cumulative,InteriorEquipment:Electricity:Zone:LAB - CLASSROOMS-SPACE FUNCTION ZN,hourly; !- [J]
Output:Meter,InteriorEquipment:Electricity:Zone:LAB - RESEARCH-SPACE FUNCTION ZN,hourly; !- [J]
Output:Meter:Cumulative,InteriorEquipment:Electricity:Zone:LAB - RESEARCH-SPACE FUNCTION ZN,hourly; !- [J]
Output:Meter,InteriorEquipment:Electricity:Zone:LIBRARY - CATALOGING-SPACE FUNCTION ZN,hourly; !- [J]
Output:Meter:Cumulative,InteriorEquipment:Electricity:Zone:LIBRARY - CATALOGING-SPACE FUNCTION ZN,hourly; !- [J]
Output:Meter,InteriorEquipment:Electricity:Zone:LIBRARY - READING-SPACE FUNCTION ZN,hourly; !- [J]
Output:Meter:Cumulative,InteriorEquipment:Electricity:Zone:LIBRARY - READING-SPACE FUNCTION ZN,hourly; !- [J]
Output:Meter,InteriorEquipment:Electricity:Zone:LOBBY - ELEVATOR-SPACE FUNCTION ZN,hourly; !- [J]
Output:Meter:Cumulative,InteriorEquipment:Electricity:Zone:LOBBY - ELEVATOR-SPACE FUNCTION ZN,hourly; !- [J]
Output:Meter,EnergyTransfer:Facility,hourly; !- [J]
Output:Meter:Cumulative,EnergyTransfer:Facility,hourly; !- [J]
Output:Meter,EnergyTransfer:Building,hourly; !- [J]
Output:Meter:Cumulative,EnergyTransfer:Building,hourly; !- [J]
Output:Meter,EnergyTransfer:Zone:HOSPITAL - MEDICAL SUPPLY - OCCSENS-SPACE FUNCTION ZN,hourly; !- [J]
Output:Meter:Cumulative,EnergyTransfer:Zone:HOSPITAL - MEDICAL SUPPLY - OCCSENS-SPACE FUNCTION ZN,hourly; !- [J]
Output:Meter,Heating:EnergyTransfer,hourly; !- [J]
Output:Meter:Cumulative,Heating:EnergyTransfer,hourly; !- [J]
Output:Meter,Heating:EnergyTransfer:Zone:HOSPITAL - MEDICAL SUPPLY - OCCSENS-SPACE FUNCTION ZN,hourly; !- [J]
Output:Meter:Cumulative,Heating:EnergyTransfer:Zone:HOSPITAL - MEDICAL SUPPLY - OCCSENS-SPACE FUNCTION ZN,hourly; !- [J]
Output:Meter,Cooling:EnergyTransfer,hourly; !- [J]
Output:Meter:Cumulative,Cooling:EnergyTransfer,hourly; !- [J]
Output:Meter,Cooling:EnergyTransfer:Zone:HOSPITAL - MEDICAL SUPPLY - OCCSENS-SPACE FUNCTION ZN,hourly; !- [J]
Output:Meter:Cumulative,Cooling:EnergyTransfer:Zone:HOSPITAL - MEDICAL SUPPLY - OCCSENS-SPACE FUNCTION ZN,hourly; !- [J]
Output:Meter,EnergyTransfer:Zone:HOSPITAL - NURSERY-SPACE FUNCTION ZN,hourly; !- [J]
Output:Meter:Cumulative,EnergyTransfer:Zone:HOSPITAL - NURSERY-SPACE FUNCTION ZN,hourly; !- [J]
Output:Meter,Heating:EnergyTransfer:Zone:HOSPITAL - NURSERY-SPACE FUNCTION ZN,hourly; !- [J]
Output:Meter:Cumulative,Heating:EnergyTransfer:Zone:HOSPITAL - NURSERY-SPACE FUNCTION ZN,hourly; !- [J]
Output:Meter,Cooling:EnergyTransfer:Zone:HOSPITAL - NURSERY-SPACE FUNCTION ZN,hourly; !- [J]
Output:Meter:Cumulative,Cooling:EnergyTransfer:Zone:HOSPITAL - NURSERY-SPACE FUNCTION ZN,hourly; !- [J]
Output:Meter,EnergyTransfer:Zone:HOSPITAL - NURSES STATION-SPACE FUNCTION ZN,hourly; !- [J]
Output:Meter:Cumulative,EnergyTransfer:Zone:HOSPITAL - NURSES STATION-SPACE FUNCTION ZN,hourly; !- [J]
Output:Meter,Heating:EnergyTransfer:Zone:HOSPITAL - NURSES STATION-SPACE FUNCTION ZN,hourly; !- [J]
Output:Meter:Cumulative,Heating:EnergyTransfer:Zone:HOSPITAL - NURSES STATION-SPACE FUNCTION ZN,hourly; !- [J]
Output:Meter,Cooling:EnergyTransfer:Zone:HOSPITAL - NURSES STATION-SPACE FUNCTION ZN,hourly; !- [J]
Output:Meter:Cumulative,Cooling:EnergyTransfer:Zone:HOSPITAL - NURSES STATION-SPACE FUNCTION ZN,hourly; !- [J]
Output:Meter,EnergyTransfer:Zone:HOSPITAL - OPERATING ROOM-SPACE FUNCTION ZN,hourly; !- [J]
Output:Meter:Cumulative,EnergyTransfer:Zone:HOSPITAL - OPERATING ROOM-SPACE FUNCTION ZN,hourly; !- [J]
Output:Meter,Heating:EnergyTransfer:Zone:HOSPITAL - OPERATING ROOM-SPACE FUNCTION ZN,hourly; !- [J]
Output:Meter:Cumulative,Heating:EnergyTransfer:Zone:HOSPITAL - OPERATING ROOM-SPACE FUNCTION ZN,hourly; !- [J]
Output:Meter,Cooling:EnergyTransfer:Zone:HOSPITAL - OPERATING ROOM-SPACE FUNCTION ZN,hourly; !- [J]
Output:Meter:Cumulative,Cooling:EnergyTransfer:Zone:HOSPITAL - OPERATING ROOM-SPACE FUNCTION ZN,hourly; !- [J]
Output:Meter,EnergyTransfer:Zone:HOSPITAL - PATIENT ROOM-SPACE FUNCTION ZN,hourly; !- [J]
Output:Meter:Cumulative,EnergyTransfer:Zone:HOSPITAL - PATIENT ROOM-SPACE FUNCTION ZN,hourly; !- [J]
Output:Meter,Heating:EnergyTransfer:Zone:HOSPITAL - PATIENT ROOM-SPACE FUNCTION ZN,hourly; !- [J]
Output:Meter:Cumulative,Heating:EnergyTransfer:Zone:HOSPITAL - PATIENT ROOM-SPACE FUNCTION ZN,hourly; !- [J]
Output:Meter,Cooling:EnergyTransfer:Zone:HOSPITAL - PATIENT ROOM-SPACE FUNCTION ZN,hourly; !- [J]
Output:Meter:Cumulative,Cooling:EnergyTransfer:Zone:HOSPITAL - PATIENT ROOM-SPACE FUNCTION ZN,hourly; !- [J]
Output:Meter,EnergyTransfer:Zone:HOSPITAL - PHARMACY-SPACE FUNCTION ZN,hourly; !- [J]
Output:Meter:Cumulative,EnergyTransfer:Zone:HOSPITAL - PHARMACY-SPACE FUNCTION ZN,hourly; !- [J]
Output:Meter,Heating:EnergyTransfer:Zone:HOSPITAL - PHARMACY-SPACE FUNCTION ZN,hourly; !- [J]
Output:Meter:Cumulative,Heating:EnergyTransfer:Zone:HOSPITAL - PHARMACY-SPACE FUNCTION ZN,hourly; !- [J]
Output:Meter,Cooling:EnergyTransfer:Zone:HOSPITAL - PHARMACY-SPACE FUNCTION ZN,hourly; !- [J]
Output:Meter:Cumulative,Cooling:EnergyTransfer:Zone:HOSPITAL - PHARMACY-SPACE FUNCTION ZN,hourly; !- [J]
Output:Meter,EnergyTransfer:Zone:HOSPITAL - PHYSICAL THERAPY-SPACE FUNCTION ZN,hourly; !- [J]
Output:Meter:Cumulative,EnergyTransfer:Zone:HOSPITAL - PHYSICAL THERAPY-SPACE FUNCTION ZN,hourly; !- [J]
Output:Meter,Heating:EnergyTransfer:Zone:HOSPITAL - PHYSICAL THERAPY-SPACE FUNCTION ZN,hourly; !- [J]
Output:Meter:Cumulative,Heating:EnergyTransfer:Zone:HOSPITAL - PHYSICAL THERAPY-SPACE FUNCTION ZN,hourly; !- [J]
Output:Meter,Cooling:EnergyTransfer:Zone:HOSPITAL - PHYSICAL THERAPY-SPACE FUNCTION ZN,hourly; !- [J]
Output:Meter:Cumulative,Cooling:EnergyTransfer:Zone:HOSPITAL - PHYSICAL THERAPY-SPACE FUNCTION ZN,hourly; !- [J]
Output:Meter,EnergyTransfer:Zone:HOSPITAL - RADIOLOGY/IMAGING-SPACE FUNCTION ZN,hourly; !- [J]
Output:Meter:Cumulative,EnergyTransfer:Zone:HOSPITAL - RADIOLOGY/IMAGING-SPACE FUNCTION ZN,hourly; !- [J]
Output:Meter,Heating:EnergyTransfer:Zone:HOSPITAL - RADIOLOGY/IMAGING-SPACE FUNCTION ZN,hourly; !- [J]
Output:Meter:Cumulative,Heating:EnergyTransfer:Zone:HOSPITAL - RADIOLOGY/IMAGING-SPACE FUNCTION ZN,hourly; !- [J]
Output:Meter,Cooling:EnergyTransfer:Zone:HOSPITAL - RADIOLOGY/IMAGING-SPACE FUNCTION ZN,hourly; !- [J]
Output:Meter:Cumulative,Cooling:EnergyTransfer:Zone:HOSPITAL - RADIOLOGY/IMAGING-SPACE FUNCTION ZN,hourly; !- [J]
Output:Meter,EnergyTransfer:Zone:HOSPITAL - RECOVERY-SPACE FUNCTION ZN,hourly; !- [J]
Output:Meter:Cumulative,EnergyTransfer:Zone:HOSPITAL - RECOVERY-SPACE FUNCTION ZN,hourly; !- [J]
Output:Meter,Heating:EnergyTransfer:Zone:HOSPITAL - RECOVERY-SPACE FUNCTION ZN,hourly; !- [J]
Output:Meter:Cumulative,Heating:EnergyTransfer:Zone:HOSPITAL - RECOVERY-SPACE FUNCTION ZN,hourly; !- [J]
Output:Meter,Cooling:EnergyTransfer:Zone:HOSPITAL - RECOVERY-SPACE FUNCTION ZN,hourly; !- [J]
Output:Meter:Cumulative,Cooling:EnergyTransfer:Zone:HOSPITAL - RECOVERY-SPACE FUNCTION ZN,hourly; !- [J]
Output:Meter,EnergyTransfer:Zone:HOTEL/MOTEL - DINING-SPACE FUNCTION ZN,hourly; !- [J]
Output:Meter:Cumulative,EnergyTransfer:Zone:HOTEL/MOTEL - DINING-SPACE FUNCTION ZN,hourly; !- [J]
Output:Meter,Heating:EnergyTransfer:Zone:HOTEL/MOTEL - DINING-SPACE FUNCTION ZN,hourly; !- [J]
Output:Meter:Cumulative,Heating:EnergyTransfer:Zone:HOTEL/MOTEL - DINING-SPACE FUNCTION ZN,hourly; !- [J]
Output:Meter,Cooling:EnergyTransfer:Zone:HOTEL/MOTEL - DINING-SPACE FUNCTION ZN,hourly; !- [J]
Output:Meter:Cumulative,Cooling:EnergyTransfer:Zone:HOTEL/MOTEL - DINING-SPACE FUNCTION ZN,hourly; !- [J]
Output:Meter,EnergyTransfer:Zone:HOTEL/MOTEL - LOBBY-SPACE FUNCTION ZN,hourly; !- [J]
Output:Meter:Cumulative,EnergyTransfer:Zone:HOTEL/MOTEL - LOBBY-SPACE FUNCTION ZN,hourly; !- [J]
Output:Meter,Heating:EnergyTransfer:Zone:HOTEL/MOTEL - LOBBY-SPACE FUNCTION ZN,hourly; !- [J]
Output:Meter:Cumulative,Heating:EnergyTransfer:Zone:HOTEL/MOTEL - LOBBY-SPACE FUNCTION ZN,hourly; !- [J]
Output:Meter,Cooling:EnergyTransfer:Zone:HOTEL/MOTEL - LOBBY-SPACE FUNCTION ZN,hourly; !- [J]
Output:Meter:Cumulative,Cooling:EnergyTransfer:Zone:HOTEL/MOTEL - LOBBY-SPACE FUNCTION ZN,hourly; !- [J]
Output:Meter,EnergyTransfer:Zone:HOTEL/MOTEL - ROOMS-SPACE FUNCTION ZN,hourly; !- [J]
Output:Meter:Cumulative,EnergyTransfer:Zone:HOTEL/MOTEL - ROOMS-SPACE FUNCTION ZN,hourly; !- [J]
Output:Meter,Heating:EnergyTransfer:Zone:HOTEL/MOTEL - ROOMS-SPACE FUNCTION ZN,hourly; !- [J]
Output:Meter:Cumulative,Heating:EnergyTransfer:Zone:HOTEL/MOTEL - ROOMS-SPACE FUNCTION ZN,hourly; !- [J]
Output:Meter,Cooling:EnergyTransfer:Zone:HOTEL/MOTEL - ROOMS-SPACE FUNCTION ZN,hourly; !- [J]
Output:Meter:Cumulative,Cooling:EnergyTransfer:Zone:HOTEL/MOTEL - ROOMS-SPACE FUNCTION ZN,hourly; !- [J]
Output:Meter,EnergyTransfer:Zone:HWAY LODGING - DINING-SPACE FUNCTION ZN,hourly; !- [J]
Output:Meter:Cumulative,EnergyTransfer:Zone:HWAY LODGING - DINING-SPACE FUNCTION ZN,hourly; !- [J]
Output:Meter,Heating:EnergyTransfer:Zone:HWAY LODGING - DINING-SPACE FUNCTION ZN,hourly; !- [J]
Output:Meter:Cumulative,Heating:EnergyTransfer:Zone:HWAY LODGING - DINING-SPACE FUNCTION ZN,hourly; !- [J]
Output:Meter,Cooling:EnergyTransfer:Zone:HWAY LODGING - DINING-SPACE FUNCTION ZN,hourly; !- [J]
Output:Meter:Cumulative,Cooling:EnergyTransfer:Zone:HWAY LODGING - DINING-SPACE FUNCTION ZN,hourly; !- [J]
Output:Meter,EnergyTransfer:Zone:HWAY LODGING - ROOMS-SPACE FUNCTION ZN,hourly; !- [J]
Output:Meter:Cumulative,EnergyTransfer:Zone:HWAY LODGING - ROOMS-SPACE FUNCTION ZN,hourly; !- [J]
Output:Meter,Heating:EnergyTransfer:Zone:HWAY LODGING - ROOMS-SPACE FUNCTION ZN,hourly; !- [J]
Output:Meter:Cumulative,Heating:EnergyTransfer:Zone:HWAY LODGING - ROOMS-SPACE FUNCTION ZN,hourly; !- [J]
Output:Meter,Cooling:EnergyTransfer:Zone:HWAY LODGING - ROOMS-SPACE FUNCTION ZN,hourly; !- [J]
Output:Meter:Cumulative,Cooling:EnergyTransfer:Zone:HWAY LODGING - ROOMS-SPACE FUNCTION ZN,hourly; !- [J]
Output:Meter,EnergyTransfer:Zone:LAB - CLASSROOMS-SPACE FUNCTION ZN,hourly; !- [J]
Output:Meter:Cumulative,EnergyTransfer:Zone:LAB - CLASSROOMS-SPACE FUNCTION ZN,hourly; !- [J]
Output:Meter,Heating:EnergyTransfer:Zone:LAB - CLASSROOMS-SPACE FUNCTION ZN,hourly; !- [J]
Output:Meter:Cumulative,Heating:EnergyTransfer:Zone:LAB - CLASSROOMS-SPACE FUNCTION ZN,hourly; !- [J]
Output:Meter,Cooling:EnergyTransfer:Zone:LAB - CLASSROOMS-SPACE FUNCTION ZN,hourly; !- [J]
Output:Meter:Cumulative,Cooling:EnergyTransfer:Zone:LAB - CLASSROOMS-SPACE FUNCTION ZN,hourly; !- [J]
Output:Meter,EnergyTransfer:Zone:LAB - RESEARCH-SPACE FUNCTION ZN,hourly; !- [J]
Output:Meter:Cumulative,EnergyTransfer:Zone:LAB - RESEARCH-SPACE FUNCTION ZN,hourly; !- [J]
Output:Meter,Heating:EnergyTransfer:Zone:LAB - RESEARCH-SPACE FUNCTION ZN,hourly; !- [J]
Output:Meter:Cumulative,Heating:EnergyTransfer:Zone:LAB - RESEARCH-SPACE FUNCTION ZN,hourly; !- [J]
Output:Meter,Cooling:EnergyTransfer:Zone:LAB - RESEARCH-SPACE FUNCTION ZN,hourly; !- [J]
Output:Meter:Cumulative,Cooling:EnergyTransfer:Zone:LAB - RESEARCH-SPACE FUNCTION ZN,hourly; !- [J]
Output:Meter,EnergyTransfer:Zone:LIBRARY - CATALOGING-SPACE FUNCTION ZN,hourly; !- [J]
Output:Meter:Cumulative,EnergyTransfer:Zone:LIBRARY - CATALOGING-SPACE FUNCTION ZN,hourly; !- [J]
Output:Meter,Heating:EnergyTransfer:Zone:LIBRARY - CATALOGING-SPACE FUNCTION ZN,hourly; !- [J]
Output:Meter:Cumulative,Heating:EnergyTransfer:Zone:LIBRARY - CATALOGING-SPACE FUNCTION ZN,hourly; !- [J]
Output:Meter,Cooling:EnergyTransfer:Zone:LIBRARY - CATALOGING-SPACE FUNCTION ZN,hourly; !- [J]
Output:Meter:Cumulative,Cooling:EnergyTransfer:Zone:LIBRARY - CATALOGING-SPACE FUNCTION ZN,hourly; !- [J]
Output:Meter,EnergyTransfer:Zone:LIBRARY - READING-SPACE FUNCTION ZN,hourly; !- [J]
Output:Meter:Cumulative,EnergyTransfer:Zone:LIBRARY - READING-SPACE FUNCTION ZN,hourly; !- [J]
Output:Meter,Heating:EnergyTransfer:Zone:LIBRARY - READING-SPACE FUNCTION ZN,hourly; !- [J]
Output:Meter:Cumulative,Heating:EnergyTransfer:Zone:LIBRARY - READING-SPACE FUNCTION ZN,hourly; !- [J]
Output:Meter,Cooling:EnergyTransfer:Zone:LIBRARY - READING-SPACE FUNCTION ZN,hourly; !- [J]
Output:Meter:Cumulative,Cooling:EnergyTransfer:Zone:LIBRARY - READING-SPACE FUNCTION ZN,hourly; !- [J]
Output:Meter,EnergyTransfer:Zone:LIBRARY - STACKS-SPACE FUNCTION ZN,hourly; !- [J]
Output:Meter:Cumulative,EnergyTransfer:Zone:LIBRARY - STACKS-SPACE FUNCTION ZN,hourly; !- [J]
Output:Meter,Heating:EnergyTransfer:Zone:LIBRARY - STACKS-SPACE FUNCTION ZN,hourly; !- [J]
Output:Meter:Cumulative,Heating:EnergyTransfer:Zone:LIBRARY - STACKS-SPACE FUNCTION ZN,hourly; !- [J]
Output:Meter,Cooling:EnergyTransfer:Zone:LIBRARY - STACKS-SPACE FUNCTION ZN,hourly; !- [J]
Output:Meter:Cumulative,Cooling:EnergyTransfer:Zone:LIBRARY - STACKS-SPACE FUNCTION ZN,hourly; !- [J]
Output:Meter,EnergyTransfer:Zone:LOBBY - ELEVATOR-SPACE FUNCTION ZN,hourly; !- [J]
Output:Meter:Cumulative,EnergyTransfer:Zone:LOBBY - ELEVATOR-SPACE FUNCTION ZN,hourly; !- [J]
Output:Meter,Heating:EnergyTransfer:Zone:LOBBY - ELEVATOR-SPACE FUNCTION ZN,hourly; !- [J]
Output:Meter:Cumulative,Heating:EnergyTransfer:Zone:LOBBY - ELEVATOR-SPACE FUNCTION ZN,hourly; !- [J]
Output:Meter,Cooling:EnergyTransfer:Zone:LOBBY - ELEVATOR-SPACE FUNCTION ZN,hourly; !- [J]
Output:Meter:Cumulative,Cooling:EnergyTransfer:Zone:LOBBY - ELEVATOR-SPACE FUNCTION ZN,hourly; !- [J]
Output:Meter,ElectricityPurchased:Facility,hourly; !- [J]
Output:Meter:Cumulative,ElectricityPurchased:Facility,hourly; !- [J]
Output:Meter,ElectricityPurchased:Plant,hourly; !- [J]
Output:Meter:Cumulative,ElectricityPurchased:Plant,hourly; !- [J]
Output:Meter,Cogeneration:ElectricityPurchased,hourly; !- [J]
Output:Meter:Cumulative,Cogeneration:ElectricityPurchased,hourly; !- [J]
Output:Meter,ElectricitySurplusSold:Facility,hourly; !- [J]
Output:Meter:Cumulative,ElectricitySurplusSold:Facility,hourly; !- [J]
Output:Meter,ElectricitySurplusSold:Plant,hourly; !- [J]
Output:Meter:Cumulative,ElectricitySurplusSold:Plant,hourly; !- [J]
Output:Meter,Cogeneration:ElectricitySurplusSold,hourly; !- [J]
Output:Meter:Cumulative,Cogeneration:ElectricitySurplusSold,hourly; !- [J]
Output:Meter,ElectricityNet:Facility,hourly; !- [J]
Output:Meter:Cumulative,ElectricityNet:Facility,hourly; !- [J]
Output:Meter,ElectricityNet:Plant,hourly; !- [J]
Output:Meter:Cumulative,ElectricityNet:Plant,hourly; !- [J]
Output:Meter,Cogeneration:ElectricityNet,hourly; !- [J]
Output:Meter:Cumulative,Cogeneration:ElectricityNet,hourly; !- [J]
Output:Meter,DistrictHeating:Facility,hourly; !- [J]
Output:Meter:Cumulative,DistrictHeating:Facility,hourly; !- [J]
Output:Meter,DistrictHeating:HVAC,hourly; !- [J]
Output:Meter:Cumulative,DistrictHeating:HVAC,hourly; !- [J]
Output:Meter,Heating:DistrictHeating,hourly; !- [J]
Output:Meter:Cumulative,Heating:DistrictHeating,hourly; !- [J]
Output:Meter,DistrictCooling:Facility,hourly; !- [J]
Output:Meter:Cumulative,DistrictCooling:Facility,hourly; !- [J]
Output:Meter,DistrictCooling:HVAC,hourly; !- [J]
Output:Meter:Cumulative,DistrictCooling:HVAC,hourly; !- [J]
Output:Meter,Cooling:DistrictCooling,hourly; !- [J]
Output:Meter:Cumulative,Cooling:DistrictCooling,hourly; !- [J]
Output:Meter,Carbon Equivalent:Facility,hourly; !- [kg]
Output:Meter:Cumulative,Carbon Equivalent:Facility,hourly; !- [kg]
Output:Meter,CarbonEquivalentEmissions:Carbon Equivalent,hourly; !- [kg]
Output:Meter:Cumulative,CarbonEquivalentEmissions:Carbon Equivalent,hourly; !- [kg]
