Program Version,EnergyPlus, Version 8.9.0-eba93e8e1b, YMD=2019.03.06 15:05
! This file shows details about the branches, nodes, and other
! elements of the flow connections.
! This file is intended for use in "debugging" potential problems
! that may also be detected by the program, but may be more easily
! identified by "eye".
! This file is also intended to support software which draws a
! schematic diagram of the HVAC system.
! ===============================================================
! #Nodes,<Number of Unique Nodes>
 #Nodes,205
! <Node>,<NodeNumber>,<Node Name>,<Node Fluid Type>,<# Times Node Referenced After Definition>
 Node,1,NODE 105,Air,4
 Node,2,NODE 118,Air,4
 Node,3,NODE 131,Air,4
 Node,4,NODE 144,Air,4
 Node,5,NODE 53,Air,4
 Node,6,NODE 79,Air,4
 Node,7,NODE 92,Air,4
 Node,8,NODE 66,Air,4
 Node,9,NODE 40,Air,4
 Node,10,NODE 27,Air,4
 Node,11,NODE 102,Air,10
 Node,12,NODE 103,Air,3
 Node,13,NODE 115,Air,10
 Node,14,NODE 116,Air,3
 Node,15,NODE 128,Air,10
 Node,16,NODE 129,Air,3
 Node,17,NODE 141,Air,10
 Node,18,NODE 142,Air,3
 Node,19,NODE 76,Air,10
 Node,20,NODE 77,Air,3
 Node,21,NODE 89,Air,10
 Node,22,NODE 90,Air,3
 Node,23,NODE 63,Air,10
 Node,24,NODE 64,Air,3
 Node,25,NODE 23,Air,10
 Node,26,NODE 24,Air,3
 Node,27,NODE 50,Air,10
 Node,28,NODE 51,Air,3
 Node,29,NODE 37,Air,10
 Node,30,NODE 38,Air,3
 Node,31,NODE 101,Air,4
 Node,32,NODE 110,Air,8
 Node,33,NODE 109,Air,6
 Node,34,NODE 108,Air,8
 Node,35,NODE 114,Air,4
 Node,36,NODE 123,Air,8
 Node,37,NODE 122,Air,6
 Node,38,NODE 121,Air,8
 Node,39,NODE 127,Air,4
 Node,40,NODE 136,Air,8
 Node,41,NODE 135,Air,6
 Node,42,NODE 134,Air,8
 Node,43,NODE 140,Air,4
 Node,44,NODE 149,Air,8
 Node,45,NODE 148,Air,6
 Node,46,NODE 147,Air,8
 Node,47,NODE 75,Air,3
 Node,48,NODE 84,Air,6
 Node,49,NODE 83,Air,6
 Node,50,NODE 82,Air,8
 Node,51,NODE 88,Air,4
 Node,52,NODE 97,Air,8
 Node,53,NODE 96,Air,6
 Node,54,NODE 95,Air,8
 Node,55,NODE 62,Air,3
 Node,56,NODE 71,Air,6
 Node,57,NODE 70,Air,6
 Node,58,NODE 69,Air,8
 Node,59,NODE 21,Air,3
 Node,60,NODE 33,Air,6
 Node,61,NODE 32,Air,6
 Node,62,NODE 31,Air,8
 Node,63,NODE 49,Air,3
 Node,64,NODE 58,Air,6
 Node,65,NODE 57,Air,6
 Node,66,NODE 56,Air,8
 Node,67,NODE 36,Air,4
 Node,68,NODE 45,Air,8
 Node,69,NODE 44,Air,6
 Node,70,NODE 43,Air,8
 Node,71,NODE 2,Water,2
 Node,72,NODE 11,Water,1
 Node,73,NODE 5,Water,1
 Node,74,NODE 12,Water,1
 Node,75,NODE 14,Water,1
 Node,76,NODE 15,Water,1
 Node,77,NODE 17,Water,1
 Node,78,NODE 18,Water,1
 Node,79,NODE 20,Water,1
 Node,80,NODE 3,Water,4
 Node,81,NODE 6,Water,2
 Node,82,HOT WATER LOOP DEMAND INLET PIPE NODE,Water,1
 Node,83,NODE 9,Water,1
 Node,84,NODE 35,Water,1
 Node,85,NODE 47,Water,1
 Node,86,NODE 48,Water,1
 Node,87,NODE 60,Water,1
 Node,88,NODE 61,Water,1
 Node,89,NODE 73,Water,1
 Node,90,NODE 74,Water,1
 Node,91,NODE 86,Water,1
 Node,92,NODE 87,Water,1
 Node,93,NODE 99,Water,1
 Node,94,NODE 100,Water,1
 Node,95,NODE 112,Water,1
 Node,96,NODE 113,Water,1
 Node,97,NODE 125,Water,1
 Node,98,NODE 126,Water,1
 Node,99,NODE 138,Water,1
 Node,100,NODE 139,Water,1
 Node,101,NODE 151,Water,1
 Node,102,NODE 152,Water,1
 Node,103,HOT WATER LOOP DEMAND BYPASS PIPE INLET NODE,Water,1
 Node,104,HOT WATER LOOP DEMAND BYPASS PIPE OUTLET NODE,Water,1
 Node,105,HOT WATER LOOP DEMAND OUTLET PIPE NODE,Water,1
 Node,106,NODE 8,Water,2
 Node,107,NODE 153,Water,2
 Node,108,NODE 159,Water,1
 Node,109,NODE 155,Water,1
 Node,110,NODE 160,Water,1
 Node,111,NODE 161,Water,1
 Node,112,NODE 162,Water,1
 Node,113,NODE 164,Water,1
 Node,114,NODE 154,Water,4
 Node,115,NODE 156,Water,2
 Node,116,NODE 165,Water,1
 Node,117,NODE 158,Water,1
 Node,118,NODE 163,Water,1
 Node,119,NODE 167,Water,1
 Node,120,NODE 168,Water,1
 Node,121,NODE 169,Water,1
 Node,122,NODE 170,Water,1
 Node,123,NODE 171,Water,1
 Node,124,NODE 172,Water,1
 Node,125,NODE 173,Water,1
 Node,126,NODE 174,Water,1
 Node,127,NODE 175,Water,1
 Node,128,NODE 176,Water,1
 Node,129,NODE 177,Water,1
 Node,130,NODE 178,Water,1
 Node,131,NODE 179,Water,1
 Node,132,NODE 180,Water,1
 Node,133,NODE 181,Water,1
 Node,134,NODE 182,Water,1
 Node,135,NODE 183,Water,1
 Node,136,NODE 184,Water,1
 Node,137,NODE 185,Water,1
 Node,138,NODE 186,Water,1
 Node,139,MAIN SERVICE WATER LOOP DEMAND BYPASS PIPE INLET NODE,Water,1
 Node,140,MAIN SERVICE WATER LOOP DEMAND BYPASS PIPE OUTLET NODE,Water,1
 Node,141,NODE 166,Water,1
 Node,142,NODE 157,Water,2
 Node,143,NODE 16,Air,1
 Node,144,NODE 111,Air,1
 Node,145,NODE 19,Air,1
 Node,146,NODE 124,Air,1
 Node,147,NODE 22,Air,1
 Node,148,NODE 137,Air,1
 Node,149,NODE 28,Air,1
 Node,150,NODE 150,Air,1
 Node,151,NODE 25,Air,1
 Node,152,NODE 59,Air,1
 Node,153,NODE 10,Air,1
 Node,154,NODE 85,Air,1
 Node,155,NODE 13,Air,1
 Node,156,NODE 98,Air,1
 Node,157,NODE 7,Air,1
 Node,158,NODE 72,Air,1
 Node,159,NODE 4,Air,1
 Node,160,NODE 46,Air,1
 Node,161,NODE 1,Air,1
 Node,162,NODE 34,Air,1
 Node,163,NODE 104,Air,2
 Node,164,NODE 117,Air,2
 Node,165,NODE 130,Air,2
 Node,166,NODE 143,Air,2
 Node,167,NODE 78,Air,2
 Node,168,NODE 91,Air,2
 Node,169,NODE 65,Air,2
 Node,170,NODE 26,Air,2
 Node,171,NODE 52,Air,2
 Node,172,NODE 39,Air,2
 Node,173,NODE 106,Air,3
 Node,174,NODE 119,Air,3
 Node,175,NODE 132,Air,3
 Node,176,NODE 145,Air,3
 Node,177,NODE 80,Air,2
 Node,178,NODE 93,Air,3
 Node,179,NODE 67,Air,2
 Node,180,NODE 29,Air,2
 Node,181,NODE 54,Air,2
 Node,182,NODE 41,Air,3
 Node,183,MODEL OUTDOOR AIR NODE,Air,0
 Node,184,NODE 188,Air,2
 Node,185,NODE 190,Air,2
 Node,186,NODE 192,Air,2
 Node,187,NODE 194,Air,2
 Node,188,NODE 196,Air,2
 Node,189,NODE 198,Air,2
 Node,190,NODE 189,Air,2
 Node,191,NODE 191,Air,2
 Node,192,NODE 193,Air,2
 Node,193,NODE 195,Air,2
 Node,194,NODE 81,Air,1
 Node,195,NODE 197,Air,2
 Node,196,NODE 68,Air,1
 Node,197,NODE 30,Air,1
 Node,198,NODE 55,Air,1
 Node,199,NODE 199,Air,2
 Node,200,NODE 107,Air,0
 Node,201,NODE 120,Air,0
 Node,202,NODE 133,Air,0
 Node,203,NODE 146,Air,0
 Node,204,NODE 94,Air,0
 Node,205,NODE 42,Air,0
! ===============================================================
! Suspicious nodes have 0 references.  It is normal for some nodes, however.
! Listing nodes with 0 references (culled from previous list):
! <Suspicious Node>,<NodeNumber>,<Node Name>,<Node Fluid Type>,<# Times Node Referenced After Definition>
 Suspicious Node,183,MODEL OUTDOOR AIR NODE,Air,0
 Suspicious Node,200,NODE 107,Air,0
 Suspicious Node,201,NODE 120,Air,0
 Suspicious Node,202,NODE 133,Air,0
 Suspicious Node,203,NODE 146,Air,0
 Suspicious Node,204,NODE 94,Air,0
 Suspicious Node,205,NODE 42,Air,0
! ===============================================================
! <#Branch Lists>,<Number of Branch Lists>
 #Branch Lists,14
! <Branch List>,<Branch List Count>,<Branch List Name>,<Loop Name>,<Loop Type>,<Number of Branches>
! <Branch>,<Branch Count>,<Branch Name>,<Loop Name>,<Loop Type>,<Branch Inlet Node Name>,<Branch Outlet Node Name>
 Branch List,1,SYS_3_PSZ ALL_ST=WHOLEBUILDING_FL=STORY 1_SCH=B SUPPLY BRANCHES,SYS_3_PSZ ALL_ST=WHOLEBUILDING_FL=STORY 1_SCH=B,Air,1
   Branch,1,SYS_3_PSZ ALL_ST=WHOLEBUILDING_FL=STORY 1_SCH=B MAIN BRANCH,SYS_3_PSZ ALL_ST=WHOLEBUILDING_FL=STORY 1_SCH=B,Air,NODE 101,NODE 102
 Branch List,2,SYS_3_PSZ ALL_ST=WHOLEBUILDING_FL=STORY 1_SCH=B 1 SUPPLY BRANCHES,SYS_3_PSZ ALL_ST=WHOLEBUILDING_FL=STORY 1_SCH=B 1,Air,1
   Branch,1,SYS_3_PSZ ALL_ST=WHOLEBUILDING_FL=STORY 1_SCH=B 1 MAIN BRANCH,SYS_3_PSZ ALL_ST=WHOLEBUILDING_FL=STORY 1_SCH=B 1,Air,NODE 114,NODE 115
 Branch List,3,SYS_3_PSZ ALL_ST=WHOLEBUILDING_FL=STORY 1_SCH=B 2 SUPPLY BRANCHES,SYS_3_PSZ ALL_ST=WHOLEBUILDING_FL=STORY 1_SCH=B 2,Air,1
   Branch,1,SYS_3_PSZ ALL_ST=WHOLEBUILDING_FL=STORY 1_SCH=B 2 MAIN BRANCH,SYS_3_PSZ ALL_ST=WHOLEBUILDING_FL=STORY 1_SCH=B 2,Air,NODE 127,NODE 128
 Branch List,4,SYS_3_PSZ ALL_ST=WHOLEBUILDING_FL=STORY 1_SCH=B 3 SUPPLY BRANCHES,SYS_3_PSZ ALL_ST=WHOLEBUILDING_FL=STORY 1_SCH=B 3,Air,1
   Branch,1,SYS_3_PSZ ALL_ST=WHOLEBUILDING_FL=STORY 1_SCH=B 3 MAIN BRANCH,SYS_3_PSZ ALL_ST=WHOLEBUILDING_FL=STORY 1_SCH=B 3,Air,NODE 140,NODE 141
 Branch List,5,SYS_3_PSZ ALL_ST=WHOLEBUILDING_FL=STORY 2_SCH=A SUPPLY BRANCHES,SYS_3_PSZ ALL_ST=WHOLEBUILDING_FL=STORY 2_SCH=A,Air,1
   Branch,1,SYS_3_PSZ ALL_ST=WHOLEBUILDING_FL=STORY 2_SCH=A MAIN BRANCH,SYS_3_PSZ ALL_ST=WHOLEBUILDING_FL=STORY 2_SCH=A,Air,NODE 75,NODE 76
 Branch List,6,SYS_3_PSZ ALL_ST=WHOLEBUILDING_FL=STORY 2_SCH=B SUPPLY BRANCHES,SYS_3_PSZ ALL_ST=WHOLEBUILDING_FL=STORY 2_SCH=B,Air,1
   Branch,1,SYS_3_PSZ ALL_ST=WHOLEBUILDING_FL=STORY 2_SCH=B MAIN BRANCH,SYS_3_PSZ ALL_ST=WHOLEBUILDING_FL=STORY 2_SCH=B,Air,NODE 88,NODE 89
 Branch List,7,SYS_3_PSZ ALL_ST=WHOLEBUILDING_FL=STORY 2_SCH=C SUPPLY BRANCHES,SYS_3_PSZ ALL_ST=WHOLEBUILDING_FL=STORY 2_SCH=C,Air,1
   Branch,1,SYS_3_PSZ ALL_ST=WHOLEBUILDING_FL=STORY 2_SCH=C MAIN BRANCH,SYS_3_PSZ ALL_ST=WHOLEBUILDING_FL=STORY 2_SCH=C,Air,NODE 62,NODE 63
 Branch List,8,SYS_3_PSZ DU_BT=DORMITORY_ST=WHOLEBUILDING_FL=STORY 2_SCHG SUPPLY BRANCHES,SYS_3_PSZ DU_BT=DORMITORY_ST=WHOLEBUILDING_FL=STORY 2_SCHG,Air,1
   Branch,1,SYS_3_PSZ DU_BT=DORMITORY_ST=WHOLEBUILDING_FL=STORY 2_SCHG MAIN BRANCH,SYS_3_PSZ DU_BT=DORMITORY_ST=WHOLEBUILDING_FL=STORY 2_SCHG,Air,NODE 21,NODE 23
 Branch List,9,SYS_4_PSZ_ALL_ST=WHOLEBUILDING_FL=STORY 1_SCH=F SUPPLY BRANCHES,SYS_4_PSZ_ALL_ST=WHOLEBUILDING_FL=STORY 1_SCH=F,Air,1
   Branch,1,SYS_4_PSZ_ALL_ST=WHOLEBUILDING_FL=STORY 1_SCH=F MAIN BRANCH,SYS_4_PSZ_ALL_ST=WHOLEBUILDING_FL=STORY 1_SCH=F,Air,NODE 49,NODE 50
 Branch List,10,SYS_4_PSZ_ALL_ST=WHOLEBUILDING_FL=STORY 2_SCH=E SUPPLY BRANCHES,SYS_4_PSZ_ALL_ST=WHOLEBUILDING_FL=STORY 2_SCH=E,Air,1
   Branch,1,SYS_4_PSZ_ALL_ST=WHOLEBUILDING_FL=STORY 2_SCH=E MAIN BRANCH,SYS_4_PSZ_ALL_ST=WHOLEBUILDING_FL=STORY 2_SCH=E,Air,NODE 36,NODE 37
 Branch List,11,HOT WATER LOOP SUPPLY BRANCHES,HOT WATER LOOP,Plant Supply,5
   Branch,1,HOT WATER LOOP SUPPLY INLET BRANCH,HOT WATER LOOP,Plant Supply,NODE 2,NODE 11
   Branch,2,HOT WATER LOOP SUPPLY BRANCH 1,HOT WATER LOOP,Plant Supply,NODE 5,NODE 12
   Branch,3,HOT WATER LOOP SUPPLY BRANCH 2,HOT WATER LOOP,Plant Supply,NODE 14,NODE 15
   Branch,4,HOT WATER LOOP SUPPLY BRANCH 3,HOT WATER LOOP,Plant Supply,NODE 17,NODE 18
   Branch,5,HOT WATER LOOP SUPPLY OUTLET BRANCH,HOT WATER LOOP,Plant Supply,NODE 20,NODE 3
 Branch List,12,HOT WATER LOOP DEMAND BRANCHES,HOT WATER LOOP,Plant Demand,13
   Branch,1,HOT WATER LOOP DEMAND INLET BRANCH,HOT WATER LOOP,Plant Demand,NODE 6,HOT WATER LOOP DEMAND INLET PIPE NODE
   Branch,2,HOT WATER LOOP DEMAND BRANCH 1,HOT WATER LOOP,Plant Demand,NODE 9,NODE 35
   Branch,3,HOT WATER LOOP DEMAND BRANCH 2,HOT WATER LOOP,Plant Demand,NODE 47,NODE 48
   Branch,4,HOT WATER LOOP DEMAND BRANCH 3,HOT WATER LOOP,Plant Demand,NODE 60,NODE 61
   Branch,5,HOT WATER LOOP DEMAND BRANCH 4,HOT WATER LOOP,Plant Demand,NODE 73,NODE 74
   Branch,6,HOT WATER LOOP DEMAND BRANCH 5,HOT WATER LOOP,Plant Demand,NODE 86,NODE 87
   Branch,7,HOT WATER LOOP DEMAND BRANCH 6,HOT WATER LOOP,Plant Demand,NODE 99,NODE 100
   Branch,8,HOT WATER LOOP DEMAND BRANCH 7,HOT WATER LOOP,Plant Demand,NODE 112,NODE 113
   Branch,9,HOT WATER LOOP DEMAND BRANCH 8,HOT WATER LOOP,Plant Demand,NODE 125,NODE 126
   Branch,10,HOT WATER LOOP DEMAND BRANCH 9,HOT WATER LOOP,Plant Demand,NODE 138,NODE 139
   Branch,11,HOT WATER LOOP DEMAND BRANCH 10,HOT WATER LOOP,Plant Demand,NODE 151,NODE 152
   Branch,12,HOT WATER LOOP DEMAND BYPASS BRANCH,HOT WATER LOOP,Plant Demand,HOT WATER LOOP DEMAND BYPASS PIPE INLET NODE,HOT WATER LOOP DEMAND BYPASS PIPE OUTLET NODE
   Branch,13,HOT WATER LOOP DEMAND OUTLET BRANCH,HOT WATER LOOP,Plant Demand,HOT WATER LOOP DEMAND OUTLET PIPE NODE,NODE 8
 Branch List,13,MAIN SERVICE WATER LOOP SUPPLY BRANCHES,MAIN SERVICE WATER LOOP,Plant Supply,4
   Branch,1,MAIN SERVICE WATER LOOP SUPPLY INLET BRANCH,MAIN SERVICE WATER LOOP,Plant Supply,NODE 153,NODE 159
   Branch,2,MAIN SERVICE WATER LOOP SUPPLY BRANCH 1,MAIN SERVICE WATER LOOP,Plant Supply,NODE 155,NODE 160
   Branch,3,MAIN SERVICE WATER LOOP SUPPLY BRANCH 2,MAIN SERVICE WATER LOOP,Plant Supply,NODE 161,NODE 162
   Branch,4,MAIN SERVICE WATER LOOP SUPPLY OUTLET BRANCH,MAIN SERVICE WATER LOOP,Plant Supply,NODE 164,NODE 154
 Branch List,14,MAIN SERVICE WATER LOOP DEMAND BRANCHES,MAIN SERVICE WATER LOOP,Plant Demand,14
   Branch,1,MAIN SERVICE WATER LOOP DEMAND INLET BRANCH,MAIN SERVICE WATER LOOP,Plant Demand,NODE 156,NODE 165
   Branch,2,MAIN SERVICE WATER LOOP DEMAND BRANCH 1,MAIN SERVICE WATER LOOP,Plant Demand,NODE 158,NODE 163
   Branch,3,MAIN SERVICE WATER LOOP DEMAND BRANCH 2,MAIN SERVICE WATER LOOP,Plant Demand,NODE 167,NODE 168
   Branch,4,MAIN SERVICE WATER LOOP DEMAND BRANCH 3,MAIN SERVICE WATER LOOP,Plant Demand,NODE 169,NODE 170
   Branch,5,MAIN SERVICE WATER LOOP DEMAND BRANCH 4,MAIN SERVICE WATER LOOP,Plant Demand,NODE 171,NODE 172
   Branch,6,MAIN SERVICE WATER LOOP DEMAND BRANCH 5,MAIN SERVICE WATER LOOP,Plant Demand,NODE 173,NODE 174
   Branch,7,MAIN SERVICE WATER LOOP DEMAND BRANCH 6,MAIN SERVICE WATER LOOP,Plant Demand,NODE 175,NODE 176
   Branch,8,MAIN SERVICE WATER LOOP DEMAND BRANCH 7,MAIN SERVICE WATER LOOP,Plant Demand,NODE 177,NODE 178
   Branch,9,MAIN SERVICE WATER LOOP DEMAND BRANCH 8,MAIN SERVICE WATER LOOP,Plant Demand,NODE 179,NODE 180
   Branch,10,MAIN SERVICE WATER LOOP DEMAND BRANCH 9,MAIN SERVICE WATER LOOP,Plant Demand,NODE 181,NODE 182
   Branch,11,MAIN SERVICE WATER LOOP DEMAND BRANCH 10,MAIN SERVICE WATER LOOP,Plant Demand,NODE 183,NODE 184
   Branch,12,MAIN SERVICE WATER LOOP DEMAND BRANCH 11,MAIN SERVICE WATER LOOP,Plant Demand,NODE 185,NODE 186
   Branch,13,MAIN SERVICE WATER LOOP DEMAND BYPASS BRANCH,MAIN SERVICE WATER LOOP,Plant Demand,MAIN SERVICE WATER LOOP DEMAND BYPASS PIPE INLET NODE,MAIN SERVICE WATER LOOP DEMAND BYPASS PIPE OUTLET NODE
   Branch,14,MAIN SERVICE WATER LOOP DEMAND OUTLET BRANCH,MAIN SERVICE WATER LOOP,Plant Demand,NODE 166,NODE 157
! ===============================================================
! <#Supply Air Paths>,<Number of Supply Air Paths>
 #Supply Air Paths,10
! <Supply Air Path>,<Supply Air Path Count>,<Supply Air Path Name>,<AirLoopHVAC Name>
! <#Components on Supply Air Path>,<Number of Components>
! <Supply Air Path Component>,<Component Count>,<Component Type>,<Component Name>,<AirLoopHVAC Name>
! <#Outlet Nodes on Supply Air Path Component>,<Number of Nodes>
! <Supply Air Path Component Nodes>,<Node Count>,<Component Type>,<Component Name>,<Inlet Node Name>,<Outlet Node Name>,<AirLoopHVAC Name>
 Supply Air Path,1,SYS_3_PSZ ALL_ST=WHOLEBUILDING_FL=STORY 1_SCH=B NODE 103 SUPPLY PATH,SYS_3_PSZ ALL_ST=WHOLEBUILDING_FL=STORY 1_SCH=B
   #Components on Supply Air Path,1
   Supply Air Path Component,1,AIRLOOPHVAC:ZONESPLITTER,AIR LOOP HVAC ZONE SPLITTER 7,SYS_3_PSZ ALL_ST=WHOLEBUILDING_FL=STORY 1_SCH=B
     #Outlet Nodes on Supply Air Path Component,1
     Supply Air Path Component Nodes,1,AIRLOOPHVAC:ZONESPLITTER,AIR LOOP HVAC ZONE SPLITTER 7,NODE 103,NODE 105,SYS_3_PSZ ALL_ST=WHOLEBUILDING_FL=STORY 1_SCH=B
! <#Nodes on Supply Air Path>,<Number of Nodes>
! <Supply Air Path Node>,<Node Type>,<Node Count>,<Node Name>,<AirLoopHVAC Name>
#Nodes on Supply Air Path,2
   Supply Air Path Node,Inlet Node,1,NODE 103,SYS_3_PSZ ALL_ST=WHOLEBUILDING_FL=STORY 1_SCH=B
   Supply Air Path Node,Outlet Node,2,NODE 105,SYS_3_PSZ ALL_ST=WHOLEBUILDING_FL=STORY 1_SCH=B
 Supply Air Path,2,SYS_3_PSZ ALL_ST=WHOLEBUILDING_FL=STORY 1_SCH=B 1 NODE 116 SUPPLY PATH,SYS_3_PSZ ALL_ST=WHOLEBUILDING_FL=STORY 1_SCH=B 1
   #Components on Supply Air Path,1
   Supply Air Path Component,1,AIRLOOPHVAC:ZONESPLITTER,AIR LOOP HVAC ZONE SPLITTER 8,SYS_3_PSZ ALL_ST=WHOLEBUILDING_FL=STORY 1_SCH=B 1
     #Outlet Nodes on Supply Air Path Component,1
     Supply Air Path Component Nodes,1,AIRLOOPHVAC:ZONESPLITTER,AIR LOOP HVAC ZONE SPLITTER 8,NODE 116,NODE 118,SYS_3_PSZ ALL_ST=WHOLEBUILDING_FL=STORY 1_SCH=B 1
! <#Nodes on Supply Air Path>,<Number of Nodes>
! <Supply Air Path Node>,<Node Type>,<Node Count>,<Node Name>,<AirLoopHVAC Name>
#Nodes on Supply Air Path,2
   Supply Air Path Node,Inlet Node,1,NODE 116,SYS_3_PSZ ALL_ST=WHOLEBUILDING_FL=STORY 1_SCH=B 1
   Supply Air Path Node,Outlet Node,2,NODE 118,SYS_3_PSZ ALL_ST=WHOLEBUILDING_FL=STORY 1_SCH=B 1
 Supply Air Path,3,SYS_3_PSZ ALL_ST=WHOLEBUILDING_FL=STORY 1_SCH=B 2 NODE 129 SUPPLY PATH,SYS_3_PSZ ALL_ST=WHOLEBUILDING_FL=STORY 1_SCH=B 2
   #Components on Supply Air Path,1
   Supply Air Path Component,1,AIRLOOPHVAC:ZONESPLITTER,AIR LOOP HVAC ZONE SPLITTER 9,SYS_3_PSZ ALL_ST=WHOLEBUILDING_FL=STORY 1_SCH=B 2
     #Outlet Nodes on Supply Air Path Component,1
     Supply Air Path Component Nodes,1,AIRLOOPHVAC:ZONESPLITTER,AIR LOOP HVAC ZONE SPLITTER 9,NODE 129,NODE 131,SYS_3_PSZ ALL_ST=WHOLEBUILDING_FL=STORY 1_SCH=B 2
! <#Nodes on Supply Air Path>,<Number of Nodes>
! <Supply Air Path Node>,<Node Type>,<Node Count>,<Node Name>,<AirLoopHVAC Name>
#Nodes on Supply Air Path,2
   Supply Air Path Node,Inlet Node,1,NODE 129,SYS_3_PSZ ALL_ST=WHOLEBUILDING_FL=STORY 1_SCH=B 2
   Supply Air Path Node,Outlet Node,2,NODE 131,SYS_3_PSZ ALL_ST=WHOLEBUILDING_FL=STORY 1_SCH=B 2
 Supply Air Path,4,SYS_3_PSZ ALL_ST=WHOLEBUILDING_FL=STORY 1_SCH=B 3 NODE 142 SUPPLY PATH,SYS_3_PSZ ALL_ST=WHOLEBUILDING_FL=STORY 1_SCH=B 3
   #Components on Supply Air Path,1
   Supply Air Path Component,1,AIRLOOPHVAC:ZONESPLITTER,AIR LOOP HVAC ZONE SPLITTER 10,SYS_3_PSZ ALL_ST=WHOLEBUILDING_FL=STORY 1_SCH=B 3
     #Outlet Nodes on Supply Air Path Component,1
     Supply Air Path Component Nodes,1,AIRLOOPHVAC:ZONESPLITTER,AIR LOOP HVAC ZONE SPLITTER 10,NODE 142,NODE 144,SYS_3_PSZ ALL_ST=WHOLEBUILDING_FL=STORY 1_SCH=B 3
! <#Nodes on Supply Air Path>,<Number of Nodes>
! <Supply Air Path Node>,<Node Type>,<Node Count>,<Node Name>,<AirLoopHVAC Name>
#Nodes on Supply Air Path,2
   Supply Air Path Node,Inlet Node,1,NODE 142,SYS_3_PSZ ALL_ST=WHOLEBUILDING_FL=STORY 1_SCH=B 3
   Supply Air Path Node,Outlet Node,2,NODE 144,SYS_3_PSZ ALL_ST=WHOLEBUILDING_FL=STORY 1_SCH=B 3
 Supply Air Path,5,SYS_3_PSZ ALL_ST=WHOLEBUILDING_FL=STORY 2_SCH=A NODE 77 SUPPLY PATH,SYS_3_PSZ ALL_ST=WHOLEBUILDING_FL=STORY 2_SCH=A
   #Components on Supply Air Path,1
   Supply Air Path Component,1,AIRLOOPHVAC:ZONESPLITTER,AIR LOOP HVAC ZONE SPLITTER 5,SYS_3_PSZ ALL_ST=WHOLEBUILDING_FL=STORY 2_SCH=A
     #Outlet Nodes on Supply Air Path Component,1
     Supply Air Path Component Nodes,1,AIRLOOPHVAC:ZONESPLITTER,AIR LOOP HVAC ZONE SPLITTER 5,NODE 77,NODE 79,SYS_3_PSZ ALL_ST=WHOLEBUILDING_FL=STORY 2_SCH=A
! <#Nodes on Supply Air Path>,<Number of Nodes>
! <Supply Air Path Node>,<Node Type>,<Node Count>,<Node Name>,<AirLoopHVAC Name>
#Nodes on Supply Air Path,2
   Supply Air Path Node,Inlet Node,1,NODE 77,SYS_3_PSZ ALL_ST=WHOLEBUILDING_FL=STORY 2_SCH=A
   Supply Air Path Node,Outlet Node,2,NODE 79,SYS_3_PSZ ALL_ST=WHOLEBUILDING_FL=STORY 2_SCH=A
 Supply Air Path,6,SYS_3_PSZ ALL_ST=WHOLEBUILDING_FL=STORY 2_SCH=B NODE 90 SUPPLY PATH,SYS_3_PSZ ALL_ST=WHOLEBUILDING_FL=STORY 2_SCH=B
   #Components on Supply Air Path,1
   Supply Air Path Component,1,AIRLOOPHVAC:ZONESPLITTER,AIR LOOP HVAC ZONE SPLITTER 6,SYS_3_PSZ ALL_ST=WHOLEBUILDING_FL=STORY 2_SCH=B
     #Outlet Nodes on Supply Air Path Component,1
     Supply Air Path Component Nodes,1,AIRLOOPHVAC:ZONESPLITTER,AIR LOOP HVAC ZONE SPLITTER 6,NODE 90,NODE 92,SYS_3_PSZ ALL_ST=WHOLEBUILDING_FL=STORY 2_SCH=B
! <#Nodes on Supply Air Path>,<Number of Nodes>
! <Supply Air Path Node>,<Node Type>,<Node Count>,<Node Name>,<AirLoopHVAC Name>
#Nodes on Supply Air Path,2
   Supply Air Path Node,Inlet Node,1,NODE 90,SYS_3_PSZ ALL_ST=WHOLEBUILDING_FL=STORY 2_SCH=B
   Supply Air Path Node,Outlet Node,2,NODE 92,SYS_3_PSZ ALL_ST=WHOLEBUILDING_FL=STORY 2_SCH=B
 Supply Air Path,7,SYS_3_PSZ ALL_ST=WHOLEBUILDING_FL=STORY 2_SCH=C NODE 64 SUPPLY PATH,SYS_3_PSZ ALL_ST=WHOLEBUILDING_FL=STORY 2_SCH=C
   #Components on Supply Air Path,1
   Supply Air Path Component,1,AIRLOOPHVAC:ZONESPLITTER,AIR LOOP HVAC ZONE SPLITTER 4,SYS_3_PSZ ALL_ST=WHOLEBUILDING_FL=STORY 2_SCH=C
     #Outlet Nodes on Supply Air Path Component,1
     Supply Air Path Component Nodes,1,AIRLOOPHVAC:ZONESPLITTER,AIR LOOP HVAC ZONE SPLITTER 4,NODE 64,NODE 66,SYS_3_PSZ ALL_ST=WHOLEBUILDING_FL=STORY 2_SCH=C
! <#Nodes on Supply Air Path>,<Number of Nodes>
! <Supply Air Path Node>,<Node Type>,<Node Count>,<Node Name>,<AirLoopHVAC Name>
#Nodes on Supply Air Path,2
   Supply Air Path Node,Inlet Node,1,NODE 64,SYS_3_PSZ ALL_ST=WHOLEBUILDING_FL=STORY 2_SCH=C
   Supply Air Path Node,Outlet Node,2,NODE 66,SYS_3_PSZ ALL_ST=WHOLEBUILDING_FL=STORY 2_SCH=C
 Supply Air Path,8,SYS_3_PSZ DU_BT=DORMITORY_ST=WHOLEBUILDING_FL=STORY 2_SCHG NODE 24 SUPPLY PATH,SYS_3_PSZ DU_BT=DORMITORY_ST=WHOLEBUILDING_FL=STORY 2_SCHG
   #Components on Supply Air Path,1
   Supply Air Path Component,1,AIRLOOPHVAC:ZONESPLITTER,AIR LOOP HVAC ZONE SPLITTER 1,SYS_3_PSZ DU_BT=DORMITORY_ST=WHOLEBUILDING_FL=STORY 2_SCHG
     #Outlet Nodes on Supply Air Path Component,1
     Supply Air Path Component Nodes,1,AIRLOOPHVAC:ZONESPLITTER,AIR LOOP HVAC ZONE SPLITTER 1,NODE 24,NODE 27,SYS_3_PSZ DU_BT=DORMITORY_ST=WHOLEBUILDING_FL=STORY 2_SCHG
! <#Nodes on Supply Air Path>,<Number of Nodes>
! <Supply Air Path Node>,<Node Type>,<Node Count>,<Node Name>,<AirLoopHVAC Name>
#Nodes on Supply Air Path,2
   Supply Air Path Node,Inlet Node,1,NODE 24,SYS_3_PSZ DU_BT=DORMITORY_ST=WHOLEBUILDING_FL=STORY 2_SCHG
   Supply Air Path Node,Outlet Node,2,NODE 27,SYS_3_PSZ DU_BT=DORMITORY_ST=WHOLEBUILDING_FL=STORY 2_SCHG
 Supply Air Path,9,SYS_4_PSZ_ALL_ST=WHOLEBUILDING_FL=STORY 1_SCH=F NODE 51 SUPPLY PATH,SYS_4_PSZ_ALL_ST=WHOLEBUILDING_FL=STORY 1_SCH=F
   #Components on Supply Air Path,1
   Supply Air Path Component,1,AIRLOOPHVAC:ZONESPLITTER,AIR LOOP HVAC ZONE SPLITTER 3,SYS_4_PSZ_ALL_ST=WHOLEBUILDING_FL=STORY 1_SCH=F
     #Outlet Nodes on Supply Air Path Component,1
     Supply Air Path Component Nodes,1,AIRLOOPHVAC:ZONESPLITTER,AIR LOOP HVAC ZONE SPLITTER 3,NODE 51,NODE 53,SYS_4_PSZ_ALL_ST=WHOLEBUILDING_FL=STORY 1_SCH=F
! <#Nodes on Supply Air Path>,<Number of Nodes>
! <Supply Air Path Node>,<Node Type>,<Node Count>,<Node Name>,<AirLoopHVAC Name>
#Nodes on Supply Air Path,2
   Supply Air Path Node,Inlet Node,1,NODE 51,SYS_4_PSZ_ALL_ST=WHOLEBUILDING_FL=STORY 1_SCH=F
   Supply Air Path Node,Outlet Node,2,NODE 53,SYS_4_PSZ_ALL_ST=WHOLEBUILDING_FL=STORY 1_SCH=F
 Supply Air Path,10,SYS_4_PSZ_ALL_ST=WHOLEBUILDING_FL=STORY 2_SCH=E NODE 38 SUPPLY PATH,SYS_4_PSZ_ALL_ST=WHOLEBUILDING_FL=STORY 2_SCH=E
   #Components on Supply Air Path,1
   Supply Air Path Component,1,AIRLOOPHVAC:ZONESPLITTER,AIR LOOP HVAC ZONE SPLITTER 2,SYS_4_PSZ_ALL_ST=WHOLEBUILDING_FL=STORY 2_SCH=E
     #Outlet Nodes on Supply Air Path Component,1
     Supply Air Path Component Nodes,1,AIRLOOPHVAC:ZONESPLITTER,AIR LOOP HVAC ZONE SPLITTER 2,NODE 38,NODE 40,SYS_4_PSZ_ALL_ST=WHOLEBUILDING_FL=STORY 2_SCH=E
! <#Nodes on Supply Air Path>,<Number of Nodes>
! <Supply Air Path Node>,<Node Type>,<Node Count>,<Node Name>,<AirLoopHVAC Name>
#Nodes on Supply Air Path,2
   Supply Air Path Node,Inlet Node,1,NODE 38,SYS_4_PSZ_ALL_ST=WHOLEBUILDING_FL=STORY 2_SCH=E
   Supply Air Path Node,Outlet Node,2,NODE 40,SYS_4_PSZ_ALL_ST=WHOLEBUILDING_FL=STORY 2_SCH=E
! ===============================================================
! <#Return Air Paths>,<Number of Return Air Paths>
 #Return Air Paths,10
! <Return Air Path>,<Return Air Path Count>,<Return Air Path Name>,<AirLoopHVAC Name>
! <#Components on Return Air Path>,<Number of Components>
! <Return Air Path Component>,<Component Count>,<Component Type>,<Component Name>,<AirLoopHVAC Name>
! <#Inlet Nodes on Return Air Path Component>,<Number of Nodes>
! <Return Air Path Component Nodes>,<Node Count>,<Component Type>,<Component Name>,<Inlet Node Name>,<Outlet Node Name>,<AirLoopHVAC Name>
 Return Air Path,1,SYS_3_PSZ ALL_ST=WHOLEBUILDING_FL=STORY 1_SCH=B RETURN PATH,SYS_3_PSZ ALL_ST=WHOLEBUILDING_FL=STORY 1_SCH=B
   #Components on Return Air Path,1
   Return Air Path Component,1,AIRLOOPHVAC:ZONEMIXER,AIR LOOP HVAC ZONE MIXER 7,SYS_3_PSZ ALL_ST=WHOLEBUILDING_FL=STORY 1_SCH=B
     #Inlet Nodes on Return Air Path Component,1
     Return Air Path Component Nodes,1,AIRLOOPHVAC:ZONEMIXER,AIR LOOP HVAC ZONE MIXER 7,NODE 111,NODE 104,SYS_3_PSZ ALL_ST=WHOLEBUILDING_FL=STORY 1_SCH=B
! <#Nodes on Return Air Path>,<Number of Nodes>
! <Return Air Path Node>,<Node Type>,<Node Count>,<Node Name>,<AirLoopHVAC Name>
   #Nodes on Return Air Path,2
   Return Air Path Node,Outlet Node,1,NODE 104,SYS_3_PSZ ALL_ST=WHOLEBUILDING_FL=STORY 1_SCH=B
   Return Air Path Node,Inlet Node,2,NODE 111,SYS_3_PSZ ALL_ST=WHOLEBUILDING_FL=STORY 1_SCH=B
 Return Air Path,2,SYS_3_PSZ ALL_ST=WHOLEBUILDING_FL=STORY 1_SCH=B 1 RETURN PATH,SYS_3_PSZ ALL_ST=WHOLEBUILDING_FL=STORY 1_SCH=B 1
   #Components on Return Air Path,1
   Return Air Path Component,1,AIRLOOPHVAC:ZONEMIXER,AIR LOOP HVAC ZONE MIXER 8,SYS_3_PSZ ALL_ST=WHOLEBUILDING_FL=STORY 1_SCH=B 1
     #Inlet Nodes on Return Air Path Component,1
     Return Air Path Component Nodes,1,AIRLOOPHVAC:ZONEMIXER,AIR LOOP HVAC ZONE MIXER 8,NODE 124,NODE 117,SYS_3_PSZ ALL_ST=WHOLEBUILDING_FL=STORY 1_SCH=B 1
! <#Nodes on Return Air Path>,<Number of Nodes>
! <Return Air Path Node>,<Node Type>,<Node Count>,<Node Name>,<AirLoopHVAC Name>
   #Nodes on Return Air Path,2
   Return Air Path Node,Outlet Node,1,NODE 117,SYS_3_PSZ ALL_ST=WHOLEBUILDING_FL=STORY 1_SCH=B 1
   Return Air Path Node,Inlet Node,2,NODE 124,SYS_3_PSZ ALL_ST=WHOLEBUILDING_FL=STORY 1_SCH=B 1
 Return Air Path,3,SYS_3_PSZ ALL_ST=WHOLEBUILDING_FL=STORY 1_SCH=B 2 RETURN PATH,SYS_3_PSZ ALL_ST=WHOLEBUILDING_FL=STORY 1_SCH=B 2
   #Components on Return Air Path,1
   Return Air Path Component,1,AIRLOOPHVAC:ZONEMIXER,AIR LOOP HVAC ZONE MIXER 9,SYS_3_PSZ ALL_ST=WHOLEBUILDING_FL=STORY 1_SCH=B 2
     #Inlet Nodes on Return Air Path Component,1
     Return Air Path Component Nodes,1,AIRLOOPHVAC:ZONEMIXER,AIR LOOP HVAC ZONE MIXER 9,NODE 137,NODE 130,SYS_3_PSZ ALL_ST=WHOLEBUILDING_FL=STORY 1_SCH=B 2
! <#Nodes on Return Air Path>,<Number of Nodes>
! <Return Air Path Node>,<Node Type>,<Node Count>,<Node Name>,<AirLoopHVAC Name>
   #Nodes on Return Air Path,2
   Return Air Path Node,Outlet Node,1,NODE 130,SYS_3_PSZ ALL_ST=WHOLEBUILDING_FL=STORY 1_SCH=B 2
   Return Air Path Node,Inlet Node,2,NODE 137,SYS_3_PSZ ALL_ST=WHOLEBUILDING_FL=STORY 1_SCH=B 2
 Return Air Path,4,SYS_3_PSZ ALL_ST=WHOLEBUILDING_FL=STORY 1_SCH=B 3 RETURN PATH,SYS_3_PSZ ALL_ST=WHOLEBUILDING_FL=STORY 1_SCH=B 3
   #Components on Return Air Path,1
   Return Air Path Component,1,AIRLOOPHVAC:ZONEMIXER,AIR LOOP HVAC ZONE MIXER 10,SYS_3_PSZ ALL_ST=WHOLEBUILDING_FL=STORY 1_SCH=B 3
     #Inlet Nodes on Return Air Path Component,1
     Return Air Path Component Nodes,1,AIRLOOPHVAC:ZONEMIXER,AIR LOOP HVAC ZONE MIXER 10,NODE 150,NODE 143,SYS_3_PSZ ALL_ST=WHOLEBUILDING_FL=STORY 1_SCH=B 3
! <#Nodes on Return Air Path>,<Number of Nodes>
! <Return Air Path Node>,<Node Type>,<Node Count>,<Node Name>,<AirLoopHVAC Name>
   #Nodes on Return Air Path,2
   Return Air Path Node,Outlet Node,1,NODE 143,SYS_3_PSZ ALL_ST=WHOLEBUILDING_FL=STORY 1_SCH=B 3
   Return Air Path Node,Inlet Node,2,NODE 150,SYS_3_PSZ ALL_ST=WHOLEBUILDING_FL=STORY 1_SCH=B 3
 Return Air Path,5,SYS_3_PSZ ALL_ST=WHOLEBUILDING_FL=STORY 2_SCH=A RETURN PATH,SYS_3_PSZ ALL_ST=WHOLEBUILDING_FL=STORY 2_SCH=A
   #Components on Return Air Path,1
   Return Air Path Component,1,AIRLOOPHVAC:ZONEMIXER,AIR LOOP HVAC ZONE MIXER 5,SYS_3_PSZ ALL_ST=WHOLEBUILDING_FL=STORY 2_SCH=A
     #Inlet Nodes on Return Air Path Component,1
     Return Air Path Component Nodes,1,AIRLOOPHVAC:ZONEMIXER,AIR LOOP HVAC ZONE MIXER 5,NODE 85,NODE 78,SYS_3_PSZ ALL_ST=WHOLEBUILDING_FL=STORY 2_SCH=A
! <#Nodes on Return Air Path>,<Number of Nodes>
! <Return Air Path Node>,<Node Type>,<Node Count>,<Node Name>,<AirLoopHVAC Name>
   #Nodes on Return Air Path,2
   Return Air Path Node,Outlet Node,1,NODE 78,SYS_3_PSZ ALL_ST=WHOLEBUILDING_FL=STORY 2_SCH=A
   Return Air Path Node,Inlet Node,2,NODE 85,SYS_3_PSZ ALL_ST=WHOLEBUILDING_FL=STORY 2_SCH=A
 Return Air Path,6,SYS_3_PSZ ALL_ST=WHOLEBUILDING_FL=STORY 2_SCH=B RETURN PATH,SYS_3_PSZ ALL_ST=WHOLEBUILDING_FL=STORY 2_SCH=B
   #Components on Return Air Path,1
   Return Air Path Component,1,AIRLOOPHVAC:ZONEMIXER,AIR LOOP HVAC ZONE MIXER 6,SYS_3_PSZ ALL_ST=WHOLEBUILDING_FL=STORY 2_SCH=B
     #Inlet Nodes on Return Air Path Component,1
     Return Air Path Component Nodes,1,AIRLOOPHVAC:ZONEMIXER,AIR LOOP HVAC ZONE MIXER 6,NODE 98,NODE 91,SYS_3_PSZ ALL_ST=WHOLEBUILDING_FL=STORY 2_SCH=B
! <#Nodes on Return Air Path>,<Number of Nodes>
! <Return Air Path Node>,<Node Type>,<Node Count>,<Node Name>,<AirLoopHVAC Name>
   #Nodes on Return Air Path,2
   Return Air Path Node,Outlet Node,1,NODE 91,SYS_3_PSZ ALL_ST=WHOLEBUILDING_FL=STORY 2_SCH=B
   Return Air Path Node,Inlet Node,2,NODE 98,SYS_3_PSZ ALL_ST=WHOLEBUILDING_FL=STORY 2_SCH=B
 Return Air Path,7,SYS_3_PSZ ALL_ST=WHOLEBUILDING_FL=STORY 2_SCH=C RETURN PATH,SYS_3_PSZ ALL_ST=WHOLEBUILDING_FL=STORY 2_SCH=C
   #Components on Return Air Path,1
   Return Air Path Component,1,AIRLOOPHVAC:ZONEMIXER,AIR LOOP HVAC ZONE MIXER 4,SYS_3_PSZ ALL_ST=WHOLEBUILDING_FL=STORY 2_SCH=C
     #Inlet Nodes on Return Air Path Component,1
     Return Air Path Component Nodes,1,AIRLOOPHVAC:ZONEMIXER,AIR LOOP HVAC ZONE MIXER 4,NODE 72,NODE 65,SYS_3_PSZ ALL_ST=WHOLEBUILDING_FL=STORY 2_SCH=C
! <#Nodes on Return Air Path>,<Number of Nodes>
! <Return Air Path Node>,<Node Type>,<Node Count>,<Node Name>,<AirLoopHVAC Name>
   #Nodes on Return Air Path,2
   Return Air Path Node,Outlet Node,1,NODE 65,SYS_3_PSZ ALL_ST=WHOLEBUILDING_FL=STORY 2_SCH=C
   Return Air Path Node,Inlet Node,2,NODE 72,SYS_3_PSZ ALL_ST=WHOLEBUILDING_FL=STORY 2_SCH=C
 Return Air Path,8,SYS_3_PSZ DU_BT=DORMITORY_ST=WHOLEBUILDING_FL=STORY 2_SCHG RETURN PATH,SYS_3_PSZ DU_BT=DORMITORY_ST=WHOLEBUILDING_FL=STORY 2_SCHG
   #Components on Return Air Path,1
   Return Air Path Component,1,AIRLOOPHVAC:ZONEMIXER,AIR LOOP HVAC ZONE MIXER 1,SYS_3_PSZ DU_BT=DORMITORY_ST=WHOLEBUILDING_FL=STORY 2_SCHG
     #Inlet Nodes on Return Air Path Component,1
     Return Air Path Component Nodes,1,AIRLOOPHVAC:ZONEMIXER,AIR LOOP HVAC ZONE MIXER 1,NODE 34,NODE 26,SYS_3_PSZ DU_BT=DORMITORY_ST=WHOLEBUILDING_FL=STORY 2_SCHG
! <#Nodes on Return Air Path>,<Number of Nodes>
! <Return Air Path Node>,<Node Type>,<Node Count>,<Node Name>,<AirLoopHVAC Name>
   #Nodes on Return Air Path,2
   Return Air Path Node,Outlet Node,1,NODE 26,SYS_3_PSZ DU_BT=DORMITORY_ST=WHOLEBUILDING_FL=STORY 2_SCHG
   Return Air Path Node,Inlet Node,2,NODE 34,SYS_3_PSZ DU_BT=DORMITORY_ST=WHOLEBUILDING_FL=STORY 2_SCHG
 Return Air Path,9,SYS_4_PSZ_ALL_ST=WHOLEBUILDING_FL=STORY 1_SCH=F RETURN PATH,SYS_4_PSZ_ALL_ST=WHOLEBUILDING_FL=STORY 1_SCH=F
   #Components on Return Air Path,1
   Return Air Path Component,1,AIRLOOPHVAC:ZONEMIXER,AIR LOOP HVAC ZONE MIXER 3,SYS_4_PSZ_ALL_ST=WHOLEBUILDING_FL=STORY 1_SCH=F
     #Inlet Nodes on Return Air Path Component,1
     Return Air Path Component Nodes,1,AIRLOOPHVAC:ZONEMIXER,AIR LOOP HVAC ZONE MIXER 3,NODE 59,NODE 52,SYS_4_PSZ_ALL_ST=WHOLEBUILDING_FL=STORY 1_SCH=F
! <#Nodes on Return Air Path>,<Number of Nodes>
! <Return Air Path Node>,<Node Type>,<Node Count>,<Node Name>,<AirLoopHVAC Name>
   #Nodes on Return Air Path,2
   Return Air Path Node,Outlet Node,1,NODE 52,SYS_4_PSZ_ALL_ST=WHOLEBUILDING_FL=STORY 1_SCH=F
   Return Air Path Node,Inlet Node,2,NODE 59,SYS_4_PSZ_ALL_ST=WHOLEBUILDING_FL=STORY 1_SCH=F
 Return Air Path,10,SYS_4_PSZ_ALL_ST=WHOLEBUILDING_FL=STORY 2_SCH=E RETURN PATH,SYS_4_PSZ_ALL_ST=WHOLEBUILDING_FL=STORY 2_SCH=E
   #Components on Return Air Path,1
   Return Air Path Component,1,AIRLOOPHVAC:ZONEMIXER,AIR LOOP HVAC ZONE MIXER 2,SYS_4_PSZ_ALL_ST=WHOLEBUILDING_FL=STORY 2_SCH=E
     #Inlet Nodes on Return Air Path Component,1
     Return Air Path Component Nodes,1,AIRLOOPHVAC:ZONEMIXER,AIR LOOP HVAC ZONE MIXER 2,NODE 46,NODE 39,SYS_4_PSZ_ALL_ST=WHOLEBUILDING_FL=STORY 2_SCH=E
! <#Nodes on Return Air Path>,<Number of Nodes>
! <Return Air Path Node>,<Node Type>,<Node Count>,<Node Name>,<AirLoopHVAC Name>
   #Nodes on Return Air Path,2
   Return Air Path Node,Outlet Node,1,NODE 39,SYS_4_PSZ_ALL_ST=WHOLEBUILDING_FL=STORY 2_SCH=E
   Return Air Path Node,Inlet Node,2,NODE 46,SYS_4_PSZ_ALL_ST=WHOLEBUILDING_FL=STORY 2_SCH=E
! ===============================================================
! #Outdoor Air Nodes,<Number of Outdoor Air Nodes>
 #Outdoor Air Nodes,11
! <Outdoor Air Node>,<NodeNumber>,<Node Name>
 Outdoor Air Node,173,NODE 106
 Outdoor Air Node,174,NODE 119
 Outdoor Air Node,175,NODE 132
 Outdoor Air Node,176,NODE 145
 Outdoor Air Node,177,NODE 80
 Outdoor Air Node,178,NODE 93
 Outdoor Air Node,179,NODE 67
 Outdoor Air Node,180,NODE 29
 Outdoor Air Node,181,NODE 54
 Outdoor Air Node,182,NODE 41
 Outdoor Air Node,183,MODEL OUTDOOR AIR NODE
! ===============================================================
! <#Component Sets>,<Number of Component Sets>
 #Component Sets,102
! <Component Set>,<Component Set Count>,<Parent Object Type>,<Parent Object Name>,<Component Type>,<Component Name>,<Inlet Node ID>,<Outlet Node ID>,<Description>
 Component Set,1,BRANCH,SYS_3_PSZ ALL_ST=WHOLEBUILDING_FL=STORY 1_SCH=B MAIN BRANCH,AIRLOOPHVAC:OUTDOORAIRSYSTEM,AIR LOOP HVAC OUTDOOR AIR SYSTEM 7,NODE 101,NODE 110,Air Nodes
 Component Set,2,BRANCH,SYS_3_PSZ ALL_ST=WHOLEBUILDING_FL=STORY 1_SCH=B MAIN BRANCH,COILSYSTEM:COOLING:DX,COIL COOLING DX SINGLE SPEED 7 186KBTU/HR 9.7EER COILSYSTEM,NODE 110,NODE 109,Air Nodes
 Component Set,3,BRANCH,SYS_3_PSZ ALL_ST=WHOLEBUILDING_FL=STORY 1_SCH=B MAIN BRANCH,COIL:HEATING:FUEL,COIL HEATING GAS 7,NODE 109,NODE 108,Air Nodes
 Component Set,4,BRANCH,SYS_3_PSZ ALL_ST=WHOLEBUILDING_FL=STORY 1_SCH=B MAIN BRANCH,FAN:CONSTANTVOLUME,FAN CONSTANT VOLUME 7,NODE 108,NODE 102,Air Nodes
 Component Set,5,BRANCH,SYS_3_PSZ ALL_ST=WHOLEBUILDING_FL=STORY 1_SCH=B 1 MAIN BRANCH,AIRLOOPHVAC:OUTDOORAIRSYSTEM,AIR LOOP HVAC OUTDOOR AIR SYSTEM 8,NODE 114,NODE 123,Air Nodes
 Component Set,6,BRANCH,SYS_3_PSZ ALL_ST=WHOLEBUILDING_FL=STORY 1_SCH=B 1 MAIN BRANCH,COILSYSTEM:COOLING:DX,COIL COOLING DX SINGLE SPEED 8 151KBTU/HR 9.7EER COILSYSTEM,NODE 123,NODE 122,Air Nodes
 Component Set,7,BRANCH,SYS_3_PSZ ALL_ST=WHOLEBUILDING_FL=STORY 1_SCH=B 1 MAIN BRANCH,COIL:HEATING:FUEL,COIL HEATING GAS 8,NODE 122,NODE 121,Air Nodes
 Component Set,8,BRANCH,SYS_3_PSZ ALL_ST=WHOLEBUILDING_FL=STORY 1_SCH=B 1 MAIN BRANCH,FAN:CONSTANTVOLUME,FAN CONSTANT VOLUME 8,NODE 121,NODE 115,Air Nodes
 Component Set,9,BRANCH,SYS_3_PSZ ALL_ST=WHOLEBUILDING_FL=STORY 1_SCH=B 2 MAIN BRANCH,AIRLOOPHVAC:OUTDOORAIRSYSTEM,AIR LOOP HVAC OUTDOOR AIR SYSTEM 9,NODE 127,NODE 136,Air Nodes
 Component Set,10,BRANCH,SYS_3_PSZ ALL_ST=WHOLEBUILDING_FL=STORY 1_SCH=B 2 MAIN BRANCH,COILSYSTEM:COOLING:DX,COIL COOLING DX SINGLE SPEED 9 139KBTU/HR 9.7EER COILSYSTEM,NODE 136,NODE 135,Air Nodes
 Component Set,11,BRANCH,SYS_3_PSZ ALL_ST=WHOLEBUILDING_FL=STORY 1_SCH=B 2 MAIN BRANCH,COIL:HEATING:FUEL,COIL HEATING GAS 9,NODE 135,NODE 134,Air Nodes
 Component Set,12,BRANCH,SYS_3_PSZ ALL_ST=WHOLEBUILDING_FL=STORY 1_SCH=B 2 MAIN BRANCH,FAN:CONSTANTVOLUME,FAN CONSTANT VOLUME 9,NODE 134,NODE 128,Air Nodes
 Component Set,13,BRANCH,SYS_3_PSZ ALL_ST=WHOLEBUILDING_FL=STORY 1_SCH=B 3 MAIN BRANCH,AIRLOOPHVAC:OUTDOORAIRSYSTEM,AIR LOOP HVAC OUTDOOR AIR SYSTEM 10,NODE 140,NODE 149,Air Nodes
 Component Set,14,BRANCH,SYS_3_PSZ ALL_ST=WHOLEBUILDING_FL=STORY 1_SCH=B 3 MAIN BRANCH,COILSYSTEM:COOLING:DX,COIL COOLING DX SINGLE SPEED 10 164KBTU/HR 9.7EER COILSYSTEM,NODE 149,NODE 148,Air Nodes
 Component Set,15,BRANCH,SYS_3_PSZ ALL_ST=WHOLEBUILDING_FL=STORY 1_SCH=B 3 MAIN BRANCH,COIL:HEATING:FUEL,COIL HEATING GAS 10,NODE 148,NODE 147,Air Nodes
 Component Set,16,BRANCH,SYS_3_PSZ ALL_ST=WHOLEBUILDING_FL=STORY 1_SCH=B 3 MAIN BRANCH,FAN:CONSTANTVOLUME,FAN CONSTANT VOLUME 10,NODE 147,NODE 141,Air Nodes
 Component Set,17,BRANCH,SYS_3_PSZ ALL_ST=WHOLEBUILDING_FL=STORY 2_SCH=A MAIN BRANCH,AIRLOOPHVAC:OUTDOORAIRSYSTEM,AIR LOOP HVAC OUTDOOR AIR SYSTEM 5,NODE 75,NODE 84,Air Nodes
 Component Set,18,BRANCH,SYS_3_PSZ ALL_ST=WHOLEBUILDING_FL=STORY 2_SCH=A MAIN BRANCH,COILSYSTEM:COOLING:DX,COIL COOLING DX SINGLE SPEED 5 315KBTU/HR 8.21EER COILSYSTEM,NODE 84,NODE 83,Air Nodes
 Component Set,19,BRANCH,SYS_3_PSZ ALL_ST=WHOLEBUILDING_FL=STORY 2_SCH=A MAIN BRANCH,COIL:HEATING:FUEL,COIL HEATING GAS 5,NODE 83,NODE 82,Air Nodes
 Component Set,20,BRANCH,SYS_3_PSZ ALL_ST=WHOLEBUILDING_FL=STORY 2_SCH=A MAIN BRANCH,FAN:CONSTANTVOLUME,FAN CONSTANT VOLUME 5,NODE 82,NODE 76,Air Nodes
 Component Set,21,BRANCH,SYS_3_PSZ ALL_ST=WHOLEBUILDING_FL=STORY 2_SCH=B MAIN BRANCH,AIRLOOPHVAC:OUTDOORAIRSYSTEM,AIR LOOP HVAC OUTDOOR AIR SYSTEM 6,NODE 88,NODE 97,Air Nodes
 Component Set,22,BRANCH,SYS_3_PSZ ALL_ST=WHOLEBUILDING_FL=STORY 2_SCH=B MAIN BRANCH,COILSYSTEM:COOLING:DX,COIL COOLING DX SINGLE SPEED 6 345KBTU/HR 8.21EER COILSYSTEM,NODE 97,NODE 96,Air Nodes
 Component Set,23,BRANCH,SYS_3_PSZ ALL_ST=WHOLEBUILDING_FL=STORY 2_SCH=B MAIN BRANCH,COIL:HEATING:FUEL,COIL HEATING GAS 6,NODE 96,NODE 95,Air Nodes
 Component Set,24,BRANCH,SYS_3_PSZ ALL_ST=WHOLEBUILDING_FL=STORY 2_SCH=B MAIN BRANCH,FAN:CONSTANTVOLUME,FAN CONSTANT VOLUME 6,NODE 95,NODE 89,Air Nodes
 Component Set,25,BRANCH,SYS_3_PSZ ALL_ST=WHOLEBUILDING_FL=STORY 2_SCH=C MAIN BRANCH,AIRLOOPHVAC:OUTDOORAIRSYSTEM,AIR LOOP HVAC OUTDOOR AIR SYSTEM 4,NODE 62,NODE 71,Air Nodes
 Component Set,26,BRANCH,SYS_3_PSZ ALL_ST=WHOLEBUILDING_FL=STORY 2_SCH=C MAIN BRANCH,COILSYSTEM:COOLING:DX,COIL COOLING DX SINGLE SPEED 4 410KBTU/HR 8.21EER COILSYSTEM,NODE 71,NODE 70,Air Nodes
 Component Set,27,BRANCH,SYS_3_PSZ ALL_ST=WHOLEBUILDING_FL=STORY 2_SCH=C MAIN BRANCH,COIL:HEATING:FUEL,COIL HEATING GAS 4,NODE 70,NODE 69,Air Nodes
 Component Set,28,BRANCH,SYS_3_PSZ ALL_ST=WHOLEBUILDING_FL=STORY 2_SCH=C MAIN BRANCH,FAN:CONSTANTVOLUME,FAN CONSTANT VOLUME 4,NODE 69,NODE 63,Air Nodes
 Component Set,29,BRANCH,SYS_3_PSZ DU_BT=DORMITORY_ST=WHOLEBUILDING_FL=STORY 2_SCHG MAIN BRANCH,AIRLOOPHVAC:OUTDOORAIRSYSTEM,AIR LOOP HVAC OUTDOOR AIR SYSTEM 1,NODE 21,NODE 33,Air Nodes
 Component Set,30,BRANCH,SYS_3_PSZ DU_BT=DORMITORY_ST=WHOLEBUILDING_FL=STORY 2_SCHG MAIN BRANCH,COILSYSTEM:COOLING:DX,COIL COOLING DX SINGLE SPEED 1 242KBTU/HR 9.7EER COILSYSTEM,NODE 33,NODE 32,Air Nodes
 Component Set,31,BRANCH,SYS_3_PSZ DU_BT=DORMITORY_ST=WHOLEBUILDING_FL=STORY 2_SCHG MAIN BRANCH,COIL:HEATING:FUEL,COIL HEATING GAS 1,NODE 32,NODE 31,Air Nodes
 Component Set,32,BRANCH,SYS_3_PSZ DU_BT=DORMITORY_ST=WHOLEBUILDING_FL=STORY 2_SCHG MAIN BRANCH,FAN:CONSTANTVOLUME,FAN CONSTANT VOLUME 1,NODE 31,NODE 23,Air Nodes
 Component Set,33,BRANCH,SYS_4_PSZ_ALL_ST=WHOLEBUILDING_FL=STORY 1_SCH=F MAIN BRANCH,AIRLOOPHVAC:OUTDOORAIRSYSTEM,AIR LOOP HVAC OUTDOOR AIR SYSTEM 3,NODE 49,NODE 58,Air Nodes
 Component Set,34,BRANCH,SYS_4_PSZ_ALL_ST=WHOLEBUILDING_FL=STORY 1_SCH=F MAIN BRANCH,COILSYSTEM:COOLING:DX,COIL COOLING DX SINGLE SPEED 3 95KBTU/HR 9.7EER COILSYSTEM,NODE 58,NODE 57,Air Nodes
 Component Set,35,BRANCH,SYS_4_PSZ_ALL_ST=WHOLEBUILDING_FL=STORY 1_SCH=F MAIN BRANCH,COIL:HEATING:FUEL,COIL HEATING GAS 3,NODE 57,NODE 56,Air Nodes
 Component Set,36,BRANCH,SYS_4_PSZ_ALL_ST=WHOLEBUILDING_FL=STORY 1_SCH=F MAIN BRANCH,FAN:CONSTANTVOLUME,FAN CONSTANT VOLUME 3,NODE 56,NODE 50,Air Nodes
 Component Set,37,BRANCH,SYS_4_PSZ_ALL_ST=WHOLEBUILDING_FL=STORY 2_SCH=E MAIN BRANCH,AIRLOOPHVAC:OUTDOORAIRSYSTEM,AIR LOOP HVAC OUTDOOR AIR SYSTEM 2,NODE 36,NODE 45,Air Nodes
 Component Set,38,BRANCH,SYS_4_PSZ_ALL_ST=WHOLEBUILDING_FL=STORY 2_SCH=E MAIN BRANCH,COILSYSTEM:COOLING:DX,COIL COOLING DX SINGLE SPEED 2 388KBTU/HR 8.21EER COILSYSTEM,NODE 45,NODE 44,Air Nodes
 Component Set,39,BRANCH,SYS_4_PSZ_ALL_ST=WHOLEBUILDING_FL=STORY 2_SCH=E MAIN BRANCH,COIL:HEATING:FUEL,COIL HEATING GAS 2,NODE 44,NODE 43,Air Nodes
 Component Set,40,BRANCH,SYS_4_PSZ_ALL_ST=WHOLEBUILDING_FL=STORY 2_SCH=E MAIN BRANCH,FAN:CONSTANTVOLUME,FAN CONSTANT VOLUME 2,NODE 43,NODE 37,Air Nodes
 Component Set,41,BRANCH,HOT WATER LOOP SUPPLY INLET BRANCH,PUMP:VARIABLESPEED,PUMP VARIABLE SPEED 1,NODE 2,NODE 11,Water Nodes
 Component Set,42,BRANCH,HOT WATER LOOP SUPPLY BRANCH 1,BOILER:HOTWATER,PRIMARY BOILER 539KBTU/HR 0.83 THERMAL EFF,NODE 5,NODE 12,Hot Water Nodes
 Component Set,43,BRANCH,HOT WATER LOOP SUPPLY BRANCH 2,BOILER:HOTWATER,SECONDARY BOILER 539KBTU/HR 0.83 THERMAL EFF,NODE 14,NODE 15,Hot Water Nodes
 Component Set,44,BRANCH,HOT WATER LOOP SUPPLY BRANCH 3,PIPE:ADIABATIC,PIPE ADIABATIC 1,NODE 17,NODE 18,Pipe Nodes
 Component Set,45,BRANCH,HOT WATER LOOP SUPPLY OUTLET BRANCH,PIPE:ADIABATIC,PIPE ADIABATIC 2,NODE 20,NODE 3,Pipe Nodes
 Component Set,46,BRANCH,HOT WATER LOOP DEMAND INLET BRANCH,PIPE:ADIABATIC,HOT WATER LOOP DEMAND INLET PIPE,NODE 6,HOT WATER LOOP DEMAND INLET PIPE NODE,Pipe Nodes
 Component Set,47,BRANCH,HOT WATER LOOP DEMAND BRANCH 1,ZONEHVAC:BASEBOARD:CONVECTIVE:WATER,ZONE HVAC BASEBOARD CONVECTIVE WATER 1,NODE 9,NODE 35,Hot Water Nodes
 Component Set,48,BRANCH,HOT WATER LOOP DEMAND BRANCH 2,ZONEHVAC:BASEBOARD:CONVECTIVE:WATER,ZONE HVAC BASEBOARD CONVECTIVE WATER 2,NODE 47,NODE 48,Hot Water Nodes
 Component Set,49,BRANCH,HOT WATER LOOP DEMAND BRANCH 3,ZONEHVAC:BASEBOARD:CONVECTIVE:WATER,ZONE HVAC BASEBOARD CONVECTIVE WATER 3,NODE 60,NODE 61,Hot Water Nodes
 Component Set,50,BRANCH,HOT WATER LOOP DEMAND BRANCH 4,ZONEHVAC:BASEBOARD:CONVECTIVE:WATER,ZONE HVAC BASEBOARD CONVECTIVE WATER 4,NODE 73,NODE 74,Hot Water Nodes
 Component Set,51,BRANCH,HOT WATER LOOP DEMAND BRANCH 5,ZONEHVAC:BASEBOARD:CONVECTIVE:WATER,ZONE HVAC BASEBOARD CONVECTIVE WATER 5,NODE 86,NODE 87,Hot Water Nodes
 Component Set,52,BRANCH,HOT WATER LOOP DEMAND BRANCH 6,ZONEHVAC:BASEBOARD:CONVECTIVE:WATER,ZONE HVAC BASEBOARD CONVECTIVE WATER 6,NODE 99,NODE 100,Hot Water Nodes
 Component Set,53,BRANCH,HOT WATER LOOP DEMAND BRANCH 7,ZONEHVAC:BASEBOARD:CONVECTIVE:WATER,ZONE HVAC BASEBOARD CONVECTIVE WATER 7,NODE 112,NODE 113,Hot Water Nodes
 Component Set,54,BRANCH,HOT WATER LOOP DEMAND BRANCH 8,ZONEHVAC:BASEBOARD:CONVECTIVE:WATER,ZONE HVAC BASEBOARD CONVECTIVE WATER 8,NODE 125,NODE 126,Hot Water Nodes
 Component Set,55,BRANCH,HOT WATER LOOP DEMAND BRANCH 9,ZONEHVAC:BASEBOARD:CONVECTIVE:WATER,ZONE HVAC BASEBOARD CONVECTIVE WATER 9,NODE 138,NODE 139,Hot Water Nodes
 Component Set,56,BRANCH,HOT WATER LOOP DEMAND BRANCH 10,ZONEHVAC:BASEBOARD:CONVECTIVE:WATER,ZONE HVAC BASEBOARD CONVECTIVE WATER 10,NODE 151,NODE 152,Hot Water Nodes
 Component Set,57,BRANCH,HOT WATER LOOP DEMAND BYPASS BRANCH,PIPE:ADIABATIC,HOT WATER LOOP DEMAND BYPASS PIPE,HOT WATER LOOP DEMAND BYPASS PIPE INLET NODE,HOT WATER LOOP DEMAND BYPASS PIPE OUTLET NODE,Pipe Nodes
 Component Set,58,BRANCH,HOT WATER LOOP DEMAND OUTLET BRANCH,PIPE:ADIABATIC,HOT WATER LOOP DEMAND OUTLET PIPE,HOT WATER LOOP DEMAND OUTLET PIPE NODE,NODE 8,Pipe Nodes
 Component Set,59,BRANCH,MAIN SERVICE WATER LOOP SUPPLY INLET BRANCH,PUMP:CONSTANTSPEED,SERVICE WATER LOOP PUMP,NODE 153,NODE 159,Water Nodes
 Component Set,60,BRANCH,MAIN SERVICE WATER LOOP SUPPLY BRANCH 1,WATERHEATER:MIXED,648GAL NATURALGAS WATER HEATER - 1278KBTU/HR 0.803 THERM EFF,NODE 155,NODE 160,Use Side Water Nodes
 Component Set,61,BRANCH,MAIN SERVICE WATER LOOP SUPPLY BRANCH 2,PIPE:ADIABATIC,PIPE ADIABATIC 3,NODE 161,NODE 162,Pipe Nodes
 Component Set,62,BRANCH,MAIN SERVICE WATER LOOP SUPPLY OUTLET BRANCH,PIPE:ADIABATIC,PIPE ADIABATIC 5,NODE 164,NODE 154,Pipe Nodes
 Component Set,63,BRANCH,MAIN SERVICE WATER LOOP DEMAND INLET BRANCH,PIPE:ADIABATIC,PIPE ADIABATIC 6,NODE 156,NODE 165,Pipe Nodes
 Component Set,64,BRANCH,MAIN SERVICE WATER LOOP DEMAND BRANCH 1,PIPE:ADIABATIC,PIPE ADIABATIC 4,NODE 158,NODE 163,Pipe Nodes
 Component Set,65,BRANCH,MAIN SERVICE WATER LOOP DEMAND BRANCH 2,WATERUSE:CONNECTIONS,WATER USE CONNECTIONS 1,NODE 167,NODE 168,DHW Nodes
 Component Set,66,BRANCH,MAIN SERVICE WATER LOOP DEMAND BRANCH 3,WATERUSE:CONNECTIONS,WATER USE CONNECTIONS 2,NODE 169,NODE 170,DHW Nodes
 Component Set,67,BRANCH,MAIN SERVICE WATER LOOP DEMAND BRANCH 4,WATERUSE:CONNECTIONS,WATER USE CONNECTIONS 3,NODE 171,NODE 172,DHW Nodes
 Component Set,68,BRANCH,MAIN SERVICE WATER LOOP DEMAND BRANCH 5,WATERUSE:CONNECTIONS,WATER USE CONNECTIONS 4,NODE 173,NODE 174,DHW Nodes
 Component Set,69,BRANCH,MAIN SERVICE WATER LOOP DEMAND BRANCH 6,WATERUSE:CONNECTIONS,WATER USE CONNECTIONS 5,NODE 175,NODE 176,DHW Nodes
 Component Set,70,BRANCH,MAIN SERVICE WATER LOOP DEMAND BRANCH 7,WATERUSE:CONNECTIONS,WATER USE CONNECTIONS 6,NODE 177,NODE 178,DHW Nodes
 Component Set,71,BRANCH,MAIN SERVICE WATER LOOP DEMAND BRANCH 8,WATERUSE:CONNECTIONS,WATER USE CONNECTIONS 7,NODE 179,NODE 180,DHW Nodes
 Component Set,72,BRANCH,MAIN SERVICE WATER LOOP DEMAND BRANCH 9,WATERUSE:CONNECTIONS,WATER USE CONNECTIONS 8,NODE 181,NODE 182,DHW Nodes
 Component Set,73,BRANCH,MAIN SERVICE WATER LOOP DEMAND BRANCH 10,WATERUSE:CONNECTIONS,WATER USE CONNECTIONS 9,NODE 183,NODE 184,DHW Nodes
 Component Set,74,BRANCH,MAIN SERVICE WATER LOOP DEMAND BRANCH 11,WATERUSE:CONNECTIONS,WATER USE CONNECTIONS 10,NODE 185,NODE 186,DHW Nodes
 Component Set,75,BRANCH,MAIN SERVICE WATER LOOP DEMAND BYPASS BRANCH,PIPE:ADIABATIC,MAIN SERVICE WATER LOOP DEMAND BYPASS PIPE,MAIN SERVICE WATER LOOP DEMAND BYPASS PIPE INLET NODE,MAIN SERVICE WATER LOOP DEMAND BYPASS PIPE OUTLET NODE,Pipe Nodes
 Component Set,76,BRANCH,MAIN SERVICE WATER LOOP DEMAND OUTLET BRANCH,PIPE:ADIABATIC,PIPE ADIABATIC 7,NODE 166,NODE 157,Pipe Nodes
 Component Set,77,AIRLOOPHVAC:OUTDOORAIRSYSTEM,AIR LOOP HVAC OUTDOOR AIR SYSTEM 7,HEATEXCHANGER:AIRTOAIR:SENSIBLEANDLATENT,SYS_3_PSZ ALL_ST=WHOLEBUILDING_FL=STORY 1_SCH=B ERV,NODE 106,NODE 188,Process Air Nodes
 Component Set,78,AIRLOOPHVAC:OUTDOORAIRSYSTEM,AIR LOOP HVAC OUTDOOR AIR SYSTEM 7,OUTDOORAIR:MIXER,AIR LOOP HVAC OUTDOOR AIR SYSTEM 7 OUTDOOR AIR MIXER,NODE 188,NODE 110,Air Nodes
 Component Set,79,AIRLOOPHVAC:OUTDOORAIRSYSTEM,AIR LOOP HVAC OUTDOOR AIR SYSTEM 8,HEATEXCHANGER:AIRTOAIR:SENSIBLEANDLATENT,SYS_3_PSZ ALL_ST=WHOLEBUILDING_FL=STORY 1_SCH=B 1 ERV,NODE 119,NODE 190,Process Air Nodes
 Component Set,80,AIRLOOPHVAC:OUTDOORAIRSYSTEM,AIR LOOP HVAC OUTDOOR AIR SYSTEM 8,OUTDOORAIR:MIXER,AIR LOOP HVAC OUTDOOR AIR SYSTEM 8 OUTDOOR AIR MIXER,NODE 190,NODE 123,Air Nodes
 Component Set,81,AIRLOOPHVAC:OUTDOORAIRSYSTEM,AIR LOOP HVAC OUTDOOR AIR SYSTEM 9,HEATEXCHANGER:AIRTOAIR:SENSIBLEANDLATENT,SYS_3_PSZ ALL_ST=WHOLEBUILDING_FL=STORY 1_SCH=B 2 ERV,NODE 132,NODE 192,Process Air Nodes
 Component Set,82,AIRLOOPHVAC:OUTDOORAIRSYSTEM,AIR LOOP HVAC OUTDOOR AIR SYSTEM 9,OUTDOORAIR:MIXER,AIR LOOP HVAC OUTDOOR AIR SYSTEM 9 OUTDOOR AIR MIXER,NODE 192,NODE 136,Air Nodes
 Component Set,83,AIRLOOPHVAC:OUTDOORAIRSYSTEM,AIR LOOP HVAC OUTDOOR AIR SYSTEM 10,HEATEXCHANGER:AIRTOAIR:SENSIBLEANDLATENT,SYS_3_PSZ ALL_ST=WHOLEBUILDING_FL=STORY 1_SCH=B 3 ERV,NODE 145,NODE 194,Process Air Nodes
 Component Set,84,AIRLOOPHVAC:OUTDOORAIRSYSTEM,AIR LOOP HVAC OUTDOOR AIR SYSTEM 10,OUTDOORAIR:MIXER,AIR LOOP HVAC OUTDOOR AIR SYSTEM 10 OUTDOOR AIR MIXER,NODE 194,NODE 149,Air Nodes
 Component Set,85,AIRLOOPHVAC:OUTDOORAIRSYSTEM,AIR LOOP HVAC OUTDOOR AIR SYSTEM 5,OUTDOORAIR:MIXER,AIR LOOP HVAC OUTDOOR AIR SYSTEM 5 OUTDOOR AIR MIXER,NODE 80,NODE 84,Air Nodes
 Component Set,86,AIRLOOPHVAC:OUTDOORAIRSYSTEM,AIR LOOP HVAC OUTDOOR AIR SYSTEM 6,HEATEXCHANGER:AIRTOAIR:SENSIBLEANDLATENT,SYS_3_PSZ ALL_ST=WHOLEBUILDING_FL=STORY 2_SCH=B ERV,NODE 93,NODE 196,Process Air Nodes
 Component Set,87,AIRLOOPHVAC:OUTDOORAIRSYSTEM,AIR LOOP HVAC OUTDOOR AIR SYSTEM 6,OUTDOORAIR:MIXER,AIR LOOP HVAC OUTDOOR AIR SYSTEM 6 OUTDOOR AIR MIXER,NODE 196,NODE 97,Air Nodes
 Component Set,88,AIRLOOPHVAC:OUTDOORAIRSYSTEM,AIR LOOP HVAC OUTDOOR AIR SYSTEM 4,OUTDOORAIR:MIXER,AIR LOOP HVAC OUTDOOR AIR SYSTEM 4 OUTDOOR AIR MIXER,NODE 67,NODE 71,Air Nodes
 Component Set,89,AIRLOOPHVAC:OUTDOORAIRSYSTEM,AIR LOOP HVAC OUTDOOR AIR SYSTEM 1,OUTDOORAIR:MIXER,AIR LOOP HVAC OUTDOOR AIR SYSTEM 1 OUTDOOR AIR MIXER,NODE 29,NODE 33,Air Nodes
 Component Set,90,AIRLOOPHVAC:OUTDOORAIRSYSTEM,AIR LOOP HVAC OUTDOOR AIR SYSTEM 3,OUTDOORAIR:MIXER,AIR LOOP HVAC OUTDOOR AIR SYSTEM 3 OUTDOOR AIR MIXER,NODE 54,NODE 58,Air Nodes
 Component Set,91,AIRLOOPHVAC:OUTDOORAIRSYSTEM,AIR LOOP HVAC OUTDOOR AIR SYSTEM 2,HEATEXCHANGER:AIRTOAIR:SENSIBLEANDLATENT,SYS_4_PSZ_ALL_ST=WHOLEBUILDING_FL=STORY 2_SCH=E ERV,NODE 41,NODE 198,Process Air Nodes
 Component Set,92,AIRLOOPHVAC:OUTDOORAIRSYSTEM,AIR LOOP HVAC OUTDOOR AIR SYSTEM 2,OUTDOORAIR:MIXER,AIR LOOP HVAC OUTDOOR AIR SYSTEM 2 OUTDOOR AIR MIXER,NODE 198,NODE 45,Air Nodes
 Component Set,93,COILSYSTEM:COOLING:DX,COIL COOLING DX SINGLE SPEED 7 186KBTU/HR 9.7EER COILSYSTEM,COIL:COOLING:DX:SINGLESPEED,COIL COOLING DX SINGLE SPEED 7 186KBTU/HR 9.7EER,NODE 110,NODE 109,Air Nodes
 Component Set,94,COILSYSTEM:COOLING:DX,COIL COOLING DX SINGLE SPEED 8 151KBTU/HR 9.7EER COILSYSTEM,COIL:COOLING:DX:SINGLESPEED,COIL COOLING DX SINGLE SPEED 8 151KBTU/HR 9.7EER,NODE 123,NODE 122,Air Nodes
 Component Set,95,COILSYSTEM:COOLING:DX,COIL COOLING DX SINGLE SPEED 9 139KBTU/HR 9.7EER COILSYSTEM,COIL:COOLING:DX:SINGLESPEED,COIL COOLING DX SINGLE SPEED 9 139KBTU/HR 9.7EER,NODE 136,NODE 135,Air Nodes
 Component Set,96,COILSYSTEM:COOLING:DX,COIL COOLING DX SINGLE SPEED 10 164KBTU/HR 9.7EER COILSYSTEM,COIL:COOLING:DX:SINGLESPEED,COIL COOLING DX SINGLE SPEED 10 164KBTU/HR 9.7EER,NODE 149,NODE 148,Air Nodes
 Component Set,97,COILSYSTEM:COOLING:DX,COIL COOLING DX SINGLE SPEED 5 315KBTU/HR 8.21EER COILSYSTEM,COIL:COOLING:DX:SINGLESPEED,COIL COOLING DX SINGLE SPEED 5 315KBTU/HR 8.21EER,NODE 84,NODE 83,Air Nodes
 Component Set,98,COILSYSTEM:COOLING:DX,COIL COOLING DX SINGLE SPEED 6 345KBTU/HR 8.21EER COILSYSTEM,COIL:COOLING:DX:SINGLESPEED,COIL COOLING DX SINGLE SPEED 6 345KBTU/HR 8.21EER,NODE 97,NODE 96,Air Nodes
 Component Set,99,COILSYSTEM:COOLING:DX,COIL COOLING DX SINGLE SPEED 4 410KBTU/HR 8.21EER COILSYSTEM,COIL:COOLING:DX:SINGLESPEED,COIL COOLING DX SINGLE SPEED 4 410KBTU/HR 8.21EER,NODE 71,NODE 70,Air Nodes
 Component Set,100,COILSYSTEM:COOLING:DX,COIL COOLING DX SINGLE SPEED 1 242KBTU/HR 9.7EER COILSYSTEM,COIL:COOLING:DX:SINGLESPEED,COIL COOLING DX SINGLE SPEED 1 242KBTU/HR 9.7EER,NODE 33,NODE 32,Air Nodes
 Component Set,101,COILSYSTEM:COOLING:DX,COIL COOLING DX SINGLE SPEED 3 95KBTU/HR 9.7EER COILSYSTEM,COIL:COOLING:DX:SINGLESPEED,COIL COOLING DX SINGLE SPEED 3 95KBTU/HR 9.7EER,NODE 58,NODE 57,Air Nodes
 Component Set,102,COILSYSTEM:COOLING:DX,COIL COOLING DX SINGLE SPEED 2 388KBTU/HR 8.21EER COILSYSTEM,COIL:COOLING:DX:SINGLESPEED,COIL COOLING DX SINGLE SPEED 2 388KBTU/HR 8.21EER,NODE 45,NODE 44,Air Nodes
! ===============================================================
! <# Plant Loops>,<Number of Plant Loops>
 #Plant Loops,2
! <Plant Loop>,<Plant Loop Name>,<Loop Type>,<Inlet Node Name>,<Outlet Node Name>,<Branch List>,<Connector List>
! <Plant Loop Connector>,<Connector Type>,<Connector Name>,<Loop Name>,<Loop Type>,<Number of Inlets/Outlets>
! <Plant Loop Connector Branches>,<Connector Node Count>,<Connector Type>,<Connector Name>,<Inlet Branch>,<Outlet Branch>,<Loop Name>,<Loop Type>
! <Plant Loop Connector Nodes>,<Connector Node Count>,<Connector Type>,<Connector Name>,<Inlet Node>,<Outlet Node>,<Loop Name>,<Loop Type>
! <Plant Loop Supply Connection>,<Plant Loop Name>,<Supply Side Outlet Node Name>,<Demand Side Inlet Node Name>
! <Plant Loop Return Connection>,<Plant Loop Name>,<Demand Side Outlet Node Name>,<Supply Side Inlet Node Name>
 Plant Loop,HOT WATER LOOP,Demand,NODE 6,NODE 8,HOT WATER LOOP DEMAND BRANCHES,HOT WATER LOOP DEMAND CONNECTOR LIST
   Plant Loop Connector,Splitter,HOT WATER LOOP DEMAND SPLITTER,HOT WATER LOOP,Demand,11
     Plant Loop Connector Branches,1,Splitter,HOT WATER LOOP DEMAND SPLITTER,HOT WATER LOOP DEMAND INLET BRANCH,HOT WATER LOOP DEMAND BRANCH 1,HOT WATER LOOP,Demand
     Plant Loop Connector Nodes,   1,Splitter,HOT WATER LOOP DEMAND SPLITTER,HOT WATER LOOP DEMAND INLET PIPE NODE,NODE 9,HOT WATER LOOP,Demand
     Plant Loop Connector Branches,2,Splitter,HOT WATER LOOP DEMAND SPLITTER,HOT WATER LOOP DEMAND INLET BRANCH,HOT WATER LOOP DEMAND BRANCH 2,HOT WATER LOOP,Demand
     Plant Loop Connector Nodes,   2,Splitter,HOT WATER LOOP DEMAND SPLITTER,HOT WATER LOOP DEMAND INLET PIPE NODE,NODE 47,HOT WATER LOOP,Demand
     Plant Loop Connector Branches,3,Splitter,HOT WATER LOOP DEMAND SPLITTER,HOT WATER LOOP DEMAND INLET BRANCH,HOT WATER LOOP DEMAND BRANCH 3,HOT WATER LOOP,Demand
     Plant Loop Connector Nodes,   3,Splitter,HOT WATER LOOP DEMAND SPLITTER,HOT WATER LOOP DEMAND INLET PIPE NODE,NODE 60,HOT WATER LOOP,Demand
     Plant Loop Connector Branches,4,Splitter,HOT WATER LOOP DEMAND SPLITTER,HOT WATER LOOP DEMAND INLET BRANCH,HOT WATER LOOP DEMAND BRANCH 4,HOT WATER LOOP,Demand
     Plant Loop Connector Nodes,   4,Splitter,HOT WATER LOOP DEMAND SPLITTER,HOT WATER LOOP DEMAND INLET PIPE NODE,NODE 73,HOT WATER LOOP,Demand
     Plant Loop Connector Branches,5,Splitter,HOT WATER LOOP DEMAND SPLITTER,HOT WATER LOOP DEMAND INLET BRANCH,HOT WATER LOOP DEMAND BRANCH 5,HOT WATER LOOP,Demand
     Plant Loop Connector Nodes,   5,Splitter,HOT WATER LOOP DEMAND SPLITTER,HOT WATER LOOP DEMAND INLET PIPE NODE,NODE 86,HOT WATER LOOP,Demand
     Plant Loop Connector Branches,6,Splitter,HOT WATER LOOP DEMAND SPLITTER,HOT WATER LOOP DEMAND INLET BRANCH,HOT WATER LOOP DEMAND BRANCH 6,HOT WATER LOOP,Demand
     Plant Loop Connector Nodes,   6,Splitter,HOT WATER LOOP DEMAND SPLITTER,HOT WATER LOOP DEMAND INLET PIPE NODE,NODE 99,HOT WATER LOOP,Demand
     Plant Loop Connector Branches,7,Splitter,HOT WATER LOOP DEMAND SPLITTER,HOT WATER LOOP DEMAND INLET BRANCH,HOT WATER LOOP DEMAND BRANCH 7,HOT WATER LOOP,Demand
     Plant Loop Connector Nodes,   7,Splitter,HOT WATER LOOP DEMAND SPLITTER,HOT WATER LOOP DEMAND INLET PIPE NODE,NODE 112,HOT WATER LOOP,Demand
     Plant Loop Connector Branches,8,Splitter,HOT WATER LOOP DEMAND SPLITTER,HOT WATER LOOP DEMAND INLET BRANCH,HOT WATER LOOP DEMAND BRANCH 8,HOT WATER LOOP,Demand
     Plant Loop Connector Nodes,   8,Splitter,HOT WATER LOOP DEMAND SPLITTER,HOT WATER LOOP DEMAND INLET PIPE NODE,NODE 125,HOT WATER LOOP,Demand
     Plant Loop Connector Branches,9,Splitter,HOT WATER LOOP DEMAND SPLITTER,HOT WATER LOOP DEMAND INLET BRANCH,HOT WATER LOOP DEMAND BRANCH 9,HOT WATER LOOP,Demand
     Plant Loop Connector Nodes,   9,Splitter,HOT WATER LOOP DEMAND SPLITTER,HOT WATER LOOP DEMAND INLET PIPE NODE,NODE 138,HOT WATER LOOP,Demand
     Plant Loop Connector Branches,10,Splitter,HOT WATER LOOP DEMAND SPLITTER,HOT WATER LOOP DEMAND INLET BRANCH,HOT WATER LOOP DEMAND BRANCH 10,HOT WATER LOOP,Demand
     Plant Loop Connector Nodes,   10,Splitter,HOT WATER LOOP DEMAND SPLITTER,HOT WATER LOOP DEMAND INLET PIPE NODE,NODE 151,HOT WATER LOOP,Demand
     Plant Loop Connector Branches,11,Splitter,HOT WATER LOOP DEMAND SPLITTER,HOT WATER LOOP DEMAND INLET BRANCH,HOT WATER LOOP DEMAND BYPASS BRANCH,HOT WATER LOOP,Demand
     Plant Loop Connector Nodes,   11,Splitter,HOT WATER LOOP DEMAND SPLITTER,HOT WATER LOOP DEMAND INLET PIPE NODE,HOT WATER LOOP DEMAND BYPASS PIPE INLET NODE,HOT WATER LOOP,Demand
   Plant Loop Connector,Mixer,HOT WATER LOOP DEMAND MIXER,HOT WATER LOOP,Demand,11
     Plant Loop Connector Branches,1,Mixer,HOT WATER LOOP DEMAND MIXER,HOT WATER LOOP DEMAND BRANCH 1,HOT WATER LOOP DEMAND OUTLET BRANCH,HOT WATER LOOP,Demand
     Plant Loop Connector Nodes,   1,Mixer,HOT WATER LOOP DEMAND MIXER,NODE 35,HOT WATER LOOP DEMAND OUTLET PIPE NODE,HOT WATER LOOP,Demand
     Plant Loop Connector Branches,2,Mixer,HOT WATER LOOP DEMAND MIXER,HOT WATER LOOP DEMAND BRANCH 2,HOT WATER LOOP DEMAND OUTLET BRANCH,HOT WATER LOOP,Demand
     Plant Loop Connector Nodes,   2,Mixer,HOT WATER LOOP DEMAND MIXER,NODE 48,HOT WATER LOOP DEMAND OUTLET PIPE NODE,HOT WATER LOOP,Demand
     Plant Loop Connector Branches,3,Mixer,HOT WATER LOOP DEMAND MIXER,HOT WATER LOOP DEMAND BRANCH 3,HOT WATER LOOP DEMAND OUTLET BRANCH,HOT WATER LOOP,Demand
     Plant Loop Connector Nodes,   3,Mixer,HOT WATER LOOP DEMAND MIXER,NODE 61,HOT WATER LOOP DEMAND OUTLET PIPE NODE,HOT WATER LOOP,Demand
     Plant Loop Connector Branches,4,Mixer,HOT WATER LOOP DEMAND MIXER,HOT WATER LOOP DEMAND BRANCH 4,HOT WATER LOOP DEMAND OUTLET BRANCH,HOT WATER LOOP,Demand
     Plant Loop Connector Nodes,   4,Mixer,HOT WATER LOOP DEMAND MIXER,NODE 74,HOT WATER LOOP DEMAND OUTLET PIPE NODE,HOT WATER LOOP,Demand
     Plant Loop Connector Branches,5,Mixer,HOT WATER LOOP DEMAND MIXER,HOT WATER LOOP DEMAND BRANCH 5,HOT WATER LOOP DEMAND OUTLET BRANCH,HOT WATER LOOP,Demand
     Plant Loop Connector Nodes,   5,Mixer,HOT WATER LOOP DEMAND MIXER,NODE 87,HOT WATER LOOP DEMAND OUTLET PIPE NODE,HOT WATER LOOP,Demand
     Plant Loop Connector Branches,6,Mixer,HOT WATER LOOP DEMAND MIXER,HOT WATER LOOP DEMAND BRANCH 6,HOT WATER LOOP DEMAND OUTLET BRANCH,HOT WATER LOOP,Demand
     Plant Loop Connector Nodes,   6,Mixer,HOT WATER LOOP DEMAND MIXER,NODE 100,HOT WATER LOOP DEMAND OUTLET PIPE NODE,HOT WATER LOOP,Demand
     Plant Loop Connector Branches,7,Mixer,HOT WATER LOOP DEMAND MIXER,HOT WATER LOOP DEMAND BRANCH 7,HOT WATER LOOP DEMAND OUTLET BRANCH,HOT WATER LOOP,Demand
     Plant Loop Connector Nodes,   7,Mixer,HOT WATER LOOP DEMAND MIXER,NODE 113,HOT WATER LOOP DEMAND OUTLET PIPE NODE,HOT WATER LOOP,Demand
     Plant Loop Connector Branches,8,Mixer,HOT WATER LOOP DEMAND MIXER,HOT WATER LOOP DEMAND BRANCH 8,HOT WATER LOOP DEMAND OUTLET BRANCH,HOT WATER LOOP,Demand
     Plant Loop Connector Nodes,   8,Mixer,HOT WATER LOOP DEMAND MIXER,NODE 126,HOT WATER LOOP DEMAND OUTLET PIPE NODE,HOT WATER LOOP,Demand
     Plant Loop Connector Branches,9,Mixer,HOT WATER LOOP DEMAND MIXER,HOT WATER LOOP DEMAND BRANCH 9,HOT WATER LOOP DEMAND OUTLET BRANCH,HOT WATER LOOP,Demand
     Plant Loop Connector Nodes,   9,Mixer,HOT WATER LOOP DEMAND MIXER,NODE 139,HOT WATER LOOP DEMAND OUTLET PIPE NODE,HOT WATER LOOP,Demand
     Plant Loop Connector Branches,10,Mixer,HOT WATER LOOP DEMAND MIXER,HOT WATER LOOP DEMAND BRANCH 10,HOT WATER LOOP DEMAND OUTLET BRANCH,HOT WATER LOOP,Demand
     Plant Loop Connector Nodes,   10,Mixer,HOT WATER LOOP DEMAND MIXER,NODE 152,HOT WATER LOOP DEMAND OUTLET PIPE NODE,HOT WATER LOOP,Demand
     Plant Loop Connector Branches,11,Mixer,HOT WATER LOOP DEMAND MIXER,HOT WATER LOOP DEMAND BYPASS BRANCH,HOT WATER LOOP DEMAND OUTLET BRANCH,HOT WATER LOOP,Demand
     Plant Loop Connector Nodes,   11,Mixer,HOT WATER LOOP DEMAND MIXER,HOT WATER LOOP DEMAND BYPASS PIPE OUTLET NODE,HOT WATER LOOP DEMAND OUTLET PIPE NODE,HOT WATER LOOP,Demand
 Plant Loop,HOT WATER LOOP,Supply,NODE 2,NODE 3,HOT WATER LOOP SUPPLY BRANCHES,HOT WATER LOOP SUPPLY CONNECTOR LIST
   Plant Loop Connector,Splitter,HOT WATER LOOP SUPPLY SPLITTER,HOT WATER LOOP,Supply,3
     Plant Loop Connector Branches,1,Splitter,HOT WATER LOOP SUPPLY SPLITTER,HOT WATER LOOP SUPPLY INLET BRANCH,HOT WATER LOOP SUPPLY BRANCH 1,HOT WATER LOOP,Supply
     Plant Loop Connector Nodes,   1,Splitter,HOT WATER LOOP SUPPLY SPLITTER,NODE 11,NODE 5,HOT WATER LOOP,Supply
     Plant Loop Connector Branches,2,Splitter,HOT WATER LOOP SUPPLY SPLITTER,HOT WATER LOOP SUPPLY INLET BRANCH,HOT WATER LOOP SUPPLY BRANCH 2,HOT WATER LOOP,Supply
     Plant Loop Connector Nodes,   2,Splitter,HOT WATER LOOP SUPPLY SPLITTER,NODE 11,NODE 14,HOT WATER LOOP,Supply
     Plant Loop Connector Branches,3,Splitter,HOT WATER LOOP SUPPLY SPLITTER,HOT WATER LOOP SUPPLY INLET BRANCH,HOT WATER LOOP SUPPLY BRANCH 3,HOT WATER LOOP,Supply
     Plant Loop Connector Nodes,   3,Splitter,HOT WATER LOOP SUPPLY SPLITTER,NODE 11,NODE 17,HOT WATER LOOP,Supply
   Plant Loop Connector,Mixer,HOT WATER LOOP SUPPLY MIXER,HOT WATER LOOP,Supply,3
     Plant Loop Connector Branches,1,Mixer,HOT WATER LOOP SUPPLY MIXER,HOT WATER LOOP SUPPLY BRANCH 1,HOT WATER LOOP SUPPLY OUTLET BRANCH,HOT WATER LOOP,Supply
     Plant Loop Connector Nodes,   1,Mixer,HOT WATER LOOP SUPPLY MIXER,NODE 12,NODE 20,HOT WATER LOOP,Supply
     Plant Loop Connector Branches,2,Mixer,HOT WATER LOOP SUPPLY MIXER,HOT WATER LOOP SUPPLY BRANCH 2,HOT WATER LOOP SUPPLY OUTLET BRANCH,HOT WATER LOOP,Supply
     Plant Loop Connector Nodes,   2,Mixer,HOT WATER LOOP SUPPLY MIXER,NODE 15,NODE 20,HOT WATER LOOP,Supply
     Plant Loop Connector Branches,3,Mixer,HOT WATER LOOP SUPPLY MIXER,HOT WATER LOOP SUPPLY BRANCH 3,HOT WATER LOOP SUPPLY OUTLET BRANCH,HOT WATER LOOP,Supply
     Plant Loop Connector Nodes,   3,Mixer,HOT WATER LOOP SUPPLY MIXER,NODE 18,NODE 20,HOT WATER LOOP,Supply
 Plant Loop Supply Connection,HOT WATER LOOP,NODE 3,NODE 6
 Plant Loop Return Connection,HOT WATER LOOP,NODE 8,NODE 2
 Plant Loop,MAIN SERVICE WATER LOOP,Demand,NODE 156,NODE 157,MAIN SERVICE WATER LOOP DEMAND BRANCHES,MAIN SERVICE WATER LOOP DEMAND CONNECTOR LIST
   Plant Loop Connector,Splitter,MAIN SERVICE WATER LOOP DEMAND SPLITTER,MAIN SERVICE WATER LOOP,Demand,12
     Plant Loop Connector Branches,1,Splitter,MAIN SERVICE WATER LOOP DEMAND SPLITTER,MAIN SERVICE WATER LOOP DEMAND INLET BRANCH,MAIN SERVICE WATER LOOP DEMAND BRANCH 1,MAIN SERVICE WATER LOOP,Demand
     Plant Loop Connector Nodes,   1,Splitter,MAIN SERVICE WATER LOOP DEMAND SPLITTER,NODE 165,NODE 158,MAIN SERVICE WATER LOOP,Demand
     Plant Loop Connector Branches,2,Splitter,MAIN SERVICE WATER LOOP DEMAND SPLITTER,MAIN SERVICE WATER LOOP DEMAND INLET BRANCH,MAIN SERVICE WATER LOOP DEMAND BRANCH 2,MAIN SERVICE WATER LOOP,Demand
     Plant Loop Connector Nodes,   2,Splitter,MAIN SERVICE WATER LOOP DEMAND SPLITTER,NODE 165,NODE 167,MAIN SERVICE WATER LOOP,Demand
     Plant Loop Connector Branches,3,Splitter,MAIN SERVICE WATER LOOP DEMAND SPLITTER,MAIN SERVICE WATER LOOP DEMAND INLET BRANCH,MAIN SERVICE WATER LOOP DEMAND BRANCH 3,MAIN SERVICE WATER LOOP,Demand
     Plant Loop Connector Nodes,   3,Splitter,MAIN SERVICE WATER LOOP DEMAND SPLITTER,NODE 165,NODE 169,MAIN SERVICE WATER LOOP,Demand
     Plant Loop Connector Branches,4,Splitter,MAIN SERVICE WATER LOOP DEMAND SPLITTER,MAIN SERVICE WATER LOOP DEMAND INLET BRANCH,MAIN SERVICE WATER LOOP DEMAND BRANCH 4,MAIN SERVICE WATER LOOP,Demand
     Plant Loop Connector Nodes,   4,Splitter,MAIN SERVICE WATER LOOP DEMAND SPLITTER,NODE 165,NODE 171,MAIN SERVICE WATER LOOP,Demand
     Plant Loop Connector Branches,5,Splitter,MAIN SERVICE WATER LOOP DEMAND SPLITTER,MAIN SERVICE WATER LOOP DEMAND INLET BRANCH,MAIN SERVICE WATER LOOP DEMAND BRANCH 5,MAIN SERVICE WATER LOOP,Demand
     Plant Loop Connector Nodes,   5,Splitter,MAIN SERVICE WATER LOOP DEMAND SPLITTER,NODE 165,NODE 173,MAIN SERVICE WATER LOOP,Demand
     Plant Loop Connector Branches,6,Splitter,MAIN SERVICE WATER LOOP DEMAND SPLITTER,MAIN SERVICE WATER LOOP DEMAND INLET BRANCH,MAIN SERVICE WATER LOOP DEMAND BRANCH 6,MAIN SERVICE WATER LOOP,Demand
     Plant Loop Connector Nodes,   6,Splitter,MAIN SERVICE WATER LOOP DEMAND SPLITTER,NODE 165,NODE 175,MAIN SERVICE WATER LOOP,Demand
     Plant Loop Connector Branches,7,Splitter,MAIN SERVICE WATER LOOP DEMAND SPLITTER,MAIN SERVICE WATER LOOP DEMAND INLET BRANCH,MAIN SERVICE WATER LOOP DEMAND BRANCH 7,MAIN SERVICE WATER LOOP,Demand
     Plant Loop Connector Nodes,   7,Splitter,MAIN SERVICE WATER LOOP DEMAND SPLITTER,NODE 165,NODE 177,MAIN SERVICE WATER LOOP,Demand
     Plant Loop Connector Branches,8,Splitter,MAIN SERVICE WATER LOOP DEMAND SPLITTER,MAIN SERVICE WATER LOOP DEMAND INLET BRANCH,MAIN SERVICE WATER LOOP DEMAND BRANCH 8,MAIN SERVICE WATER LOOP,Demand
     Plant Loop Connector Nodes,   8,Splitter,MAIN SERVICE WATER LOOP DEMAND SPLITTER,NODE 165,NODE 179,MAIN SERVICE WATER LOOP,Demand
     Plant Loop Connector Branches,9,Splitter,MAIN SERVICE WATER LOOP DEMAND SPLITTER,MAIN SERVICE WATER LOOP DEMAND INLET BRANCH,MAIN SERVICE WATER LOOP DEMAND BRANCH 9,MAIN SERVICE WATER LOOP,Demand
     Plant Loop Connector Nodes,   9,Splitter,MAIN SERVICE WATER LOOP DEMAND SPLITTER,NODE 165,NODE 181,MAIN SERVICE WATER LOOP,Demand
     Plant Loop Connector Branches,10,Splitter,MAIN SERVICE WATER LOOP DEMAND SPLITTER,MAIN SERVICE WATER LOOP DEMAND INLET BRANCH,MAIN SERVICE WATER LOOP DEMAND BRANCH 10,MAIN SERVICE WATER LOOP,Demand
     Plant Loop Connector Nodes,   10,Splitter,MAIN SERVICE WATER LOOP DEMAND SPLITTER,NODE 165,NODE 183,MAIN SERVICE WATER LOOP,Demand
     Plant Loop Connector Branches,11,Splitter,MAIN SERVICE WATER LOOP DEMAND SPLITTER,MAIN SERVICE WATER LOOP DEMAND INLET BRANCH,MAIN SERVICE WATER LOOP DEMAND BRANCH 11,MAIN SERVICE WATER LOOP,Demand
     Plant Loop Connector Nodes,   11,Splitter,MAIN SERVICE WATER LOOP DEMAND SPLITTER,NODE 165,NODE 185,MAIN SERVICE WATER LOOP,Demand
     Plant Loop Connector Branches,12,Splitter,MAIN SERVICE WATER LOOP DEMAND SPLITTER,MAIN SERVICE WATER LOOP DEMAND INLET BRANCH,MAIN SERVICE WATER LOOP DEMAND BYPASS BRANCH,MAIN SERVICE WATER LOOP,Demand
     Plant Loop Connector Nodes,   12,Splitter,MAIN SERVICE WATER LOOP DEMAND SPLITTER,NODE 165,MAIN SERVICE WATER LOOP DEMAND BYPASS PIPE INLET NODE,MAIN SERVICE WATER LOOP,Demand
   Plant Loop Connector,Mixer,MAIN SERVICE WATER LOOP DEMAND MIXER,MAIN SERVICE WATER LOOP,Demand,12
     Plant Loop Connector Branches,1,Mixer,MAIN SERVICE WATER LOOP DEMAND MIXER,MAIN SERVICE WATER LOOP DEMAND BRANCH 1,MAIN SERVICE WATER LOOP DEMAND OUTLET BRANCH,MAIN SERVICE WATER LOOP,Demand
     Plant Loop Connector Nodes,   1,Mixer,MAIN SERVICE WATER LOOP DEMAND MIXER,NODE 163,NODE 166,MAIN SERVICE WATER LOOP,Demand
     Plant Loop Connector Branches,2,Mixer,MAIN SERVICE WATER LOOP DEMAND MIXER,MAIN SERVICE WATER LOOP DEMAND BRANCH 2,MAIN SERVICE WATER LOOP DEMAND OUTLET BRANCH,MAIN SERVICE WATER LOOP,Demand
     Plant Loop Connector Nodes,   2,Mixer,MAIN SERVICE WATER LOOP DEMAND MIXER,NODE 168,NODE 166,MAIN SERVICE WATER LOOP,Demand
     Plant Loop Connector Branches,3,Mixer,MAIN SERVICE WATER LOOP DEMAND MIXER,MAIN SERVICE WATER LOOP DEMAND BRANCH 3,MAIN SERVICE WATER LOOP DEMAND OUTLET BRANCH,MAIN SERVICE WATER LOOP,Demand
     Plant Loop Connector Nodes,   3,Mixer,MAIN SERVICE WATER LOOP DEMAND MIXER,NODE 170,NODE 166,MAIN SERVICE WATER LOOP,Demand
     Plant Loop Connector Branches,4,Mixer,MAIN SERVICE WATER LOOP DEMAND MIXER,MAIN SERVICE WATER LOOP DEMAND BRANCH 4,MAIN SERVICE WATER LOOP DEMAND OUTLET BRANCH,MAIN SERVICE WATER LOOP,Demand
     Plant Loop Connector Nodes,   4,Mixer,MAIN SERVICE WATER LOOP DEMAND MIXER,NODE 172,NODE 166,MAIN SERVICE WATER LOOP,Demand
     Plant Loop Connector Branches,5,Mixer,MAIN SERVICE WATER LOOP DEMAND MIXER,MAIN SERVICE WATER LOOP DEMAND BRANCH 5,MAIN SERVICE WATER LOOP DEMAND OUTLET BRANCH,MAIN SERVICE WATER LOOP,Demand
     Plant Loop Connector Nodes,   5,Mixer,MAIN SERVICE WATER LOOP DEMAND MIXER,NODE 174,NODE 166,MAIN SERVICE WATER LOOP,Demand
     Plant Loop Connector Branches,6,Mixer,MAIN SERVICE WATER LOOP DEMAND MIXER,MAIN SERVICE WATER LOOP DEMAND BRANCH 6,MAIN SERVICE WATER LOOP DEMAND OUTLET BRANCH,MAIN SERVICE WATER LOOP,Demand
     Plant Loop Connector Nodes,   6,Mixer,MAIN SERVICE WATER LOOP DEMAND MIXER,NODE 176,NODE 166,MAIN SERVICE WATER LOOP,Demand
     Plant Loop Connector Branches,7,Mixer,MAIN SERVICE WATER LOOP DEMAND MIXER,MAIN SERVICE WATER LOOP DEMAND BRANCH 7,MAIN SERVICE WATER LOOP DEMAND OUTLET BRANCH,MAIN SERVICE WATER LOOP,Demand
     Plant Loop Connector Nodes,   7,Mixer,MAIN SERVICE WATER LOOP DEMAND MIXER,NODE 178,NODE 166,MAIN SERVICE WATER LOOP,Demand
     Plant Loop Connector Branches,8,Mixer,MAIN SERVICE WATER LOOP DEMAND MIXER,MAIN SERVICE WATER LOOP DEMAND BRANCH 8,MAIN SERVICE WATER LOOP DEMAND OUTLET BRANCH,MAIN SERVICE WATER LOOP,Demand
     Plant Loop Connector Nodes,   8,Mixer,MAIN SERVICE WATER LOOP DEMAND MIXER,NODE 180,NODE 166,MAIN SERVICE WATER LOOP,Demand
     Plant Loop Connector Branches,9,Mixer,MAIN SERVICE WATER LOOP DEMAND MIXER,MAIN SERVICE WATER LOOP DEMAND BRANCH 9,MAIN SERVICE WATER LOOP DEMAND OUTLET BRANCH,MAIN SERVICE WATER LOOP,Demand
     Plant Loop Connector Nodes,   9,Mixer,MAIN SERVICE WATER LOOP DEMAND MIXER,NODE 182,NODE 166,MAIN SERVICE WATER LOOP,Demand
     Plant Loop Connector Branches,10,Mixer,MAIN SERVICE WATER LOOP DEMAND MIXER,MAIN SERVICE WATER LOOP DEMAND BRANCH 10,MAIN SERVICE WATER LOOP DEMAND OUTLET BRANCH,MAIN SERVICE WATER LOOP,Demand
     Plant Loop Connector Nodes,   10,Mixer,MAIN SERVICE WATER LOOP DEMAND MIXER,NODE 184,NODE 166,MAIN SERVICE WATER LOOP,Demand
     Plant Loop Connector Branches,11,Mixer,MAIN SERVICE WATER LOOP DEMAND MIXER,MAIN SERVICE WATER LOOP DEMAND BRANCH 11,MAIN SERVICE WATER LOOP DEMAND OUTLET BRANCH,MAIN SERVICE WATER LOOP,Demand
     Plant Loop Connector Nodes,   11,Mixer,MAIN SERVICE WATER LOOP DEMAND MIXER,NODE 186,NODE 166,MAIN SERVICE WATER LOOP,Demand
     Plant Loop Connector Branches,12,Mixer,MAIN SERVICE WATER LOOP DEMAND MIXER,MAIN SERVICE WATER LOOP DEMAND BYPASS BRANCH,MAIN SERVICE WATER LOOP DEMAND OUTLET BRANCH,MAIN SERVICE WATER LOOP,Demand
     Plant Loop Connector Nodes,   12,Mixer,MAIN SERVICE WATER LOOP DEMAND MIXER,MAIN SERVICE WATER LOOP DEMAND BYPASS PIPE OUTLET NODE,NODE 166,MAIN SERVICE WATER LOOP,Demand
 Plant Loop,MAIN SERVICE WATER LOOP,Supply,NODE 153,NODE 154,MAIN SERVICE WATER LOOP SUPPLY BRANCHES,MAIN SERVICE WATER LOOP SUPPLY CONNECTOR LIST
   Plant Loop Connector,Splitter,MAIN SERVICE WATER LOOP SUPPLY SPLITTER,MAIN SERVICE WATER LOOP,Supply,2
     Plant Loop Connector Branches,1,Splitter,MAIN SERVICE WATER LOOP SUPPLY SPLITTER,MAIN SERVICE WATER LOOP SUPPLY INLET BRANCH,MAIN SERVICE WATER LOOP SUPPLY BRANCH 1,MAIN SERVICE WATER LOOP,Supply
     Plant Loop Connector Nodes,   1,Splitter,MAIN SERVICE WATER LOOP SUPPLY SPLITTER,NODE 159,NODE 155,MAIN SERVICE WATER LOOP,Supply
     Plant Loop Connector Branches,2,Splitter,MAIN SERVICE WATER LOOP SUPPLY SPLITTER,MAIN SERVICE WATER LOOP SUPPLY INLET BRANCH,MAIN SERVICE WATER LOOP SUPPLY BRANCH 2,MAIN SERVICE WATER LOOP,Supply
     Plant Loop Connector Nodes,   2,Splitter,MAIN SERVICE WATER LOOP SUPPLY SPLITTER,NODE 159,NODE 161,MAIN SERVICE WATER LOOP,Supply
   Plant Loop Connector,Mixer,MAIN SERVICE WATER LOOP SUPPLY MIXER,MAIN SERVICE WATER LOOP,Supply,2
     Plant Loop Connector Branches,1,Mixer,MAIN SERVICE WATER LOOP SUPPLY MIXER,MAIN SERVICE WATER LOOP SUPPLY BRANCH 1,MAIN SERVICE WATER LOOP SUPPLY OUTLET BRANCH,MAIN SERVICE WATER LOOP,Supply
     Plant Loop Connector Nodes,   1,Mixer,MAIN SERVICE WATER LOOP SUPPLY MIXER,NODE 160,NODE 164,MAIN SERVICE WATER LOOP,Supply
     Plant Loop Connector Branches,2,Mixer,MAIN SERVICE WATER LOOP SUPPLY MIXER,MAIN SERVICE WATER LOOP SUPPLY BRANCH 2,MAIN SERVICE WATER LOOP SUPPLY OUTLET BRANCH,MAIN SERVICE WATER LOOP,Supply
     Plant Loop Connector Nodes,   2,Mixer,MAIN SERVICE WATER LOOP SUPPLY MIXER,NODE 162,NODE 164,MAIN SERVICE WATER LOOP,Supply
 Plant Loop Supply Connection,MAIN SERVICE WATER LOOP,NODE 154,NODE 156
 Plant Loop Return Connection,MAIN SERVICE WATER LOOP,NODE 157,NODE 153
! ===============================================================
! <# Condenser Loops>,<Number of Condenser Loops>
 #Condenser Loops,0
! <Condenser Loop>,<Condenser Loop Name>,<Loop Type>,<Inlet Node Name>,<Outlet Node Name>,<Branch List>,<Connector List>
! <Condenser Loop Connector>,<Connector Type>,<Connector Name>,<Loop Name>,<Loop Type>,<Number of Inlets/Outlets>
! <Condenser Loop Connector Branches>,<Connector Node Count>,<Connector Type>,<Connector Name>,<Inlet Branch>,<Outlet Branch>,<Loop Name>,<Loop Type>
! <Condenser Loop Connector Nodes>,<Connector Node Count>,<Connector Type>,<Connector Name>,<Inlet Node>,<Outlet Node>,<Loop Name>,<Loop Type>
! <Condenser Loop Supply Connection>,<Condenser Loop Name>,<Supply Side Outlet Node Name>,<Demand Side Inlet Node Name>
! <Condenser Loop Return Connection>,<Condenser Loop Name>,<Demand Side Outlet Node Name>,<Supply Side Inlet Node Name>
! ===============================================================
! <# Controlled Zones>,<Number of Controlled Zones>
 #Controlled Zones,10
! <Controlled Zone>,<Controlled Zone Name>,<Equip List Name>,<Control List Name>,<Zone Node Name>,<# Inlet Nodes>,<# Exhaust Nodes>,<# Return Nodes>
! <Controlled Zone Inlet>,<Inlet Node Count>,<Controlled Zone Name>,<Supply Air Inlet Node Name>,<SD Sys:Cooling/Heating [DD:Cooling] Inlet Node Name>,<DD Sys:Heating Inlet Node Name>
! <Controlled Zone Exhaust>,<Exhaust Node Count>,<Controlled Zone Name>,<Exhaust Air Node Name>
 Controlled Zone,ALL_ST=WHOLEBUILDING_FL=STORY 1_SCH=B,ALL_ST=WHOLEBUILDING_FL=STORY 1_SCH=B EQUIPMENT LIST,,NODE 16,1,0,1
   Controlled Zone Inlet,1,ALL_ST=WHOLEBUILDING_FL=STORY 1_SCH=B,NODE 105,NODE 105,N/A
   Controlled Zone Return,1,ALL_ST=WHOLEBUILDING_FL=STORY 1_SCH=B,NODE 111
 Controlled Zone,ALL_ST=WHOLEBUILDING_FL=STORY 1_SCH=B 1,ALL_ST=WHOLEBUILDING_FL=STORY 1_SCH=B 1 EQUIPMENT LIST,,NODE 19,1,0,1
   Controlled Zone Inlet,1,ALL_ST=WHOLEBUILDING_FL=STORY 1_SCH=B 1,NODE 118,NODE 118,N/A
   Controlled Zone Return,1,ALL_ST=WHOLEBUILDING_FL=STORY 1_SCH=B 1,NODE 124
 Controlled Zone,ALL_ST=WHOLEBUILDING_FL=STORY 1_SCH=B 2,ALL_ST=WHOLEBUILDING_FL=STORY 1_SCH=B 2 EQUIPMENT LIST,,NODE 22,1,0,1
   Controlled Zone Inlet,1,ALL_ST=WHOLEBUILDING_FL=STORY 1_SCH=B 2,NODE 131,NODE 131,N/A
   Controlled Zone Return,1,ALL_ST=WHOLEBUILDING_FL=STORY 1_SCH=B 2,NODE 137
 Controlled Zone,ALL_ST=WHOLEBUILDING_FL=STORY 1_SCH=B 3,ALL_ST=WHOLEBUILDING_FL=STORY 1_SCH=B 3 EQUIPMENT LIST,,NODE 28,1,0,1
   Controlled Zone Inlet,1,ALL_ST=WHOLEBUILDING_FL=STORY 1_SCH=B 3,NODE 144,NODE 144,N/A
   Controlled Zone Return,1,ALL_ST=WHOLEBUILDING_FL=STORY 1_SCH=B 3,NODE 150
 Controlled Zone,ALL_ST=WHOLEBUILDING_FL=STORY 1_SCH=F,ALL_ST=WHOLEBUILDING_FL=STORY 1_SCH=F EQUIPMENT LIST,,NODE 25,1,0,1
   Controlled Zone Inlet,1,ALL_ST=WHOLEBUILDING_FL=STORY 1_SCH=F,NODE 53,NODE 53,N/A
   Controlled Zone Return,1,ALL_ST=WHOLEBUILDING_FL=STORY 1_SCH=F,NODE 59
 Controlled Zone,ALL_ST=WHOLEBUILDING_FL=STORY 2_SCH=A,ALL_ST=WHOLEBUILDING_FL=STORY 2_SCH=A EQUIPMENT LIST,,NODE 10,1,0,1
   Controlled Zone Inlet,1,ALL_ST=WHOLEBUILDING_FL=STORY 2_SCH=A,NODE 79,NODE 79,N/A
   Controlled Zone Return,1,ALL_ST=WHOLEBUILDING_FL=STORY 2_SCH=A,NODE 85
 Controlled Zone,ALL_ST=WHOLEBUILDING_FL=STORY 2_SCH=B,ALL_ST=WHOLEBUILDING_FL=STORY 2_SCH=B EQUIPMENT LIST,,NODE 13,1,0,1
   Controlled Zone Inlet,1,ALL_ST=WHOLEBUILDING_FL=STORY 2_SCH=B,NODE 92,NODE 92,N/A
   Controlled Zone Return,1,ALL_ST=WHOLEBUILDING_FL=STORY 2_SCH=B,NODE 98
 Controlled Zone,ALL_ST=WHOLEBUILDING_FL=STORY 2_SCH=C,ALL_ST=WHOLEBUILDING_FL=STORY 2_SCH=C EQUIPMENT LIST,,NODE 7,1,0,1
   Controlled Zone Inlet,1,ALL_ST=WHOLEBUILDING_FL=STORY 2_SCH=C,NODE 66,NODE 66,N/A
   Controlled Zone Return,1,ALL_ST=WHOLEBUILDING_FL=STORY 2_SCH=C,NODE 72
 Controlled Zone,ALL_ST=WHOLEBUILDING_FL=STORY 2_SCH=E,ALL_ST=WHOLEBUILDING_FL=STORY 2_SCH=E EQUIPMENT LIST,,NODE 4,1,0,1
   Controlled Zone Inlet,1,ALL_ST=WHOLEBUILDING_FL=STORY 2_SCH=E,NODE 40,NODE 40,N/A
   Controlled Zone Return,1,ALL_ST=WHOLEBUILDING_FL=STORY 2_SCH=E,NODE 46
 Controlled Zone,DU_BT=DORMITORY_ST=WHOLEBUILDING_FL=STORY 2_SCHG,DU_BT=DORMITORY_ST=WHOLEBUILDING_FL=STORY 2_SCHG EQUIPMENT LIST,,NODE 1,1,0,1
   Controlled Zone Inlet,1,DU_BT=DORMITORY_ST=WHOLEBUILDING_FL=STORY 2_SCHG,NODE 27,NODE 27,N/A
   Controlled Zone Return,1,DU_BT=DORMITORY_ST=WHOLEBUILDING_FL=STORY 2_SCHG,NODE 34
! ===============================================================
! <#Zone Equipment Lists>,<Number of Zone Equipment Lists>
 #Zone Equipment Lists,10
! <Zone Equipment List>,<Zone Equipment List Count>,<Zone Equipment List Name>,<Zone Name>,<Number of Components>
! <Zone Equipment Component>,<Component Count>,<Component Type>,<Component Name>,<Zone Name>,<Heating Priority>,<Cooling Priority>
 Zone Equipment List,1,ALL_ST=WHOLEBUILDING_FL=STORY 1_SCH=B EQUIPMENT LIST,ALL_ST=WHOLEBUILDING_FL=STORY 1_SCH=B,2
   Zone Equipment Component,1,AIRTERMINAL:SINGLEDUCT:UNCONTROLLED,AIR TERMINAL SINGLE DUCT UNCONTROLLED 7,ALL_ST=WHOLEBUILDING_FL=STORY 1_SCH=B,1,1
   Zone Equipment Component,2,ZONEHVAC:BASEBOARD:CONVECTIVE:WATER,ZONE HVAC BASEBOARD CONVECTIVE WATER 7,ALL_ST=WHOLEBUILDING_FL=STORY 1_SCH=B,2,2
 Zone Equipment List,2,ALL_ST=WHOLEBUILDING_FL=STORY 1_SCH=B 1 EQUIPMENT LIST,ALL_ST=WHOLEBUILDING_FL=STORY 1_SCH=B 1,2
   Zone Equipment Component,1,AIRTERMINAL:SINGLEDUCT:UNCONTROLLED,AIR TERMINAL SINGLE DUCT UNCONTROLLED 8,ALL_ST=WHOLEBUILDING_FL=STORY 1_SCH=B 1,1,1
   Zone Equipment Component,2,ZONEHVAC:BASEBOARD:CONVECTIVE:WATER,ZONE HVAC BASEBOARD CONVECTIVE WATER 8,ALL_ST=WHOLEBUILDING_FL=STORY 1_SCH=B 1,2,2
 Zone Equipment List,3,ALL_ST=WHOLEBUILDING_FL=STORY 1_SCH=B 2 EQUIPMENT LIST,ALL_ST=WHOLEBUILDING_FL=STORY 1_SCH=B 2,2
   Zone Equipment Component,1,AIRTERMINAL:SINGLEDUCT:UNCONTROLLED,AIR TERMINAL SINGLE DUCT UNCONTROLLED 9,ALL_ST=WHOLEBUILDING_FL=STORY 1_SCH=B 2,1,1
   Zone Equipment Component,2,ZONEHVAC:BASEBOARD:CONVECTIVE:WATER,ZONE HVAC BASEBOARD CONVECTIVE WATER 9,ALL_ST=WHOLEBUILDING_FL=STORY 1_SCH=B 2,2,2
 Zone Equipment List,4,ALL_ST=WHOLEBUILDING_FL=STORY 1_SCH=B 3 EQUIPMENT LIST,ALL_ST=WHOLEBUILDING_FL=STORY 1_SCH=B 3,2
   Zone Equipment Component,1,AIRTERMINAL:SINGLEDUCT:UNCONTROLLED,AIR TERMINAL SINGLE DUCT UNCONTROLLED 10,ALL_ST=WHOLEBUILDING_FL=STORY 1_SCH=B 3,1,1
   Zone Equipment Component,2,ZONEHVAC:BASEBOARD:CONVECTIVE:WATER,ZONE HVAC BASEBOARD CONVECTIVE WATER 10,ALL_ST=WHOLEBUILDING_FL=STORY 1_SCH=B 3,2,2
 Zone Equipment List,5,ALL_ST=WHOLEBUILDING_FL=STORY 1_SCH=F EQUIPMENT LIST,ALL_ST=WHOLEBUILDING_FL=STORY 1_SCH=F,2
   Zone Equipment Component,1,AIRTERMINAL:SINGLEDUCT:UNCONTROLLED,AIR TERMINAL SINGLE DUCT UNCONTROLLED 3,ALL_ST=WHOLEBUILDING_FL=STORY 1_SCH=F,1,1
   Zone Equipment Component,2,ZONEHVAC:BASEBOARD:CONVECTIVE:WATER,ZONE HVAC BASEBOARD CONVECTIVE WATER 3,ALL_ST=WHOLEBUILDING_FL=STORY 1_SCH=F,2,2
 Zone Equipment List,6,ALL_ST=WHOLEBUILDING_FL=STORY 2_SCH=A EQUIPMENT LIST,ALL_ST=WHOLEBUILDING_FL=STORY 2_SCH=A,2
   Zone Equipment Component,1,AIRTERMINAL:SINGLEDUCT:UNCONTROLLED,AIR TERMINAL SINGLE DUCT UNCONTROLLED 5,ALL_ST=WHOLEBUILDING_FL=STORY 2_SCH=A,1,1
   Zone Equipment Component,2,ZONEHVAC:BASEBOARD:CONVECTIVE:WATER,ZONE HVAC BASEBOARD CONVECTIVE WATER 5,ALL_ST=WHOLEBUILDING_FL=STORY 2_SCH=A,2,2
 Zone Equipment List,7,ALL_ST=WHOLEBUILDING_FL=STORY 2_SCH=B EQUIPMENT LIST,ALL_ST=WHOLEBUILDING_FL=STORY 2_SCH=B,2
   Zone Equipment Component,1,AIRTERMINAL:SINGLEDUCT:UNCONTROLLED,AIR TERMINAL SINGLE DUCT UNCONTROLLED 6,ALL_ST=WHOLEBUILDING_FL=STORY 2_SCH=B,1,1
   Zone Equipment Component,2,ZONEHVAC:BASEBOARD:CONVECTIVE:WATER,ZONE HVAC BASEBOARD CONVECTIVE WATER 6,ALL_ST=WHOLEBUILDING_FL=STORY 2_SCH=B,2,2
 Zone Equipment List,8,ALL_ST=WHOLEBUILDING_FL=STORY 2_SCH=C EQUIPMENT LIST,ALL_ST=WHOLEBUILDING_FL=STORY 2_SCH=C,2
   Zone Equipment Component,1,AIRTERMINAL:SINGLEDUCT:UNCONTROLLED,AIR TERMINAL SINGLE DUCT UNCONTROLLED 4,ALL_ST=WHOLEBUILDING_FL=STORY 2_SCH=C,1,1
   Zone Equipment Component,2,ZONEHVAC:BASEBOARD:CONVECTIVE:WATER,ZONE HVAC BASEBOARD CONVECTIVE WATER 4,ALL_ST=WHOLEBUILDING_FL=STORY 2_SCH=C,2,2
 Zone Equipment List,9,ALL_ST=WHOLEBUILDING_FL=STORY 2_SCH=E EQUIPMENT LIST,ALL_ST=WHOLEBUILDING_FL=STORY 2_SCH=E,2
   Zone Equipment Component,1,AIRTERMINAL:SINGLEDUCT:UNCONTROLLED,AIR TERMINAL SINGLE DUCT UNCONTROLLED 2,ALL_ST=WHOLEBUILDING_FL=STORY 2_SCH=E,1,1
   Zone Equipment Component,2,ZONEHVAC:BASEBOARD:CONVECTIVE:WATER,ZONE HVAC BASEBOARD CONVECTIVE WATER 2,ALL_ST=WHOLEBUILDING_FL=STORY 2_SCH=E,2,2
 Zone Equipment List,10,DU_BT=DORMITORY_ST=WHOLEBUILDING_FL=STORY 2_SCHG EQUIPMENT LIST,DU_BT=DORMITORY_ST=WHOLEBUILDING_FL=STORY 2_SCHG,2
   Zone Equipment Component,1,AIRTERMINAL:SINGLEDUCT:UNCONTROLLED,AIR TERMINAL SINGLE DUCT UNCONTROLLED 1,DU_BT=DORMITORY_ST=WHOLEBUILDING_FL=STORY 2_SCHG,1,1
   Zone Equipment Component,2,ZONEHVAC:BASEBOARD:CONVECTIVE:WATER,ZONE HVAC BASEBOARD CONVECTIVE WATER 1,DU_BT=DORMITORY_ST=WHOLEBUILDING_FL=STORY 2_SCHG,2,2
! ===============================================================
! <#AirLoopHVACs>,<Number of AirLoopHVACs>
 #AirLoopHVACs,10
! <AirLoopHVAC>,<Air Loop Name>,<# Return Nodes>,<# Supply Nodes>,<# Zones Cooled>,<# Zones Heated>,<Outdoor Air Used>
! <AirLoop Return Connections>,<Connection Count>,<AirLoopHVAC Name>,<Zn Eqp Return Node #>,<Zn Eqp Return Node Name>,<AirLoop Return Node #>,<Air Loop Return Node Name>
[...]
 Non-Parent Node Connection,NODE 98,AIRLOOPHVAC:ZONEMIXER,AIR LOOP HVAC ZONE MIXER 6,Inlet,1
 Non-Parent Node Connection,NODE 65,AIRLOOPHVAC:ZONEMIXER,AIR LOOP HVAC ZONE MIXER 4,Outlet,1
 Non-Parent Node Connection,NODE 72,AIRLOOPHVAC:ZONEMIXER,AIR LOOP HVAC ZONE MIXER 4,Inlet,1
 Non-Parent Node Connection,NODE 26,AIRLOOPHVAC:ZONEMIXER,AIR LOOP HVAC ZONE MIXER 1,Outlet,1
 Non-Parent Node Connection,NODE 34,AIRLOOPHVAC:ZONEMIXER,AIR LOOP HVAC ZONE MIXER 1,Inlet,1
 Non-Parent Node Connection,NODE 52,AIRLOOPHVAC:ZONEMIXER,AIR LOOP HVAC ZONE MIXER 3,Outlet,1
 Non-Parent Node Connection,NODE 59,AIRLOOPHVAC:ZONEMIXER,AIR LOOP HVAC ZONE MIXER 3,Inlet,1
 Non-Parent Node Connection,NODE 39,AIRLOOPHVAC:ZONEMIXER,AIR LOOP HVAC ZONE MIXER 2,Outlet,1
 Non-Parent Node Connection,NODE 46,AIRLOOPHVAC:ZONEMIXER,AIR LOOP HVAC ZONE MIXER 2,Inlet,1
 Non-Parent Node Connection,NODE 110,OUTDOORAIR:MIXER,AIR LOOP HVAC OUTDOOR AIR SYSTEM 7 OUTDOOR AIR MIXER,Outlet,1
 Non-Parent Node Connection,NODE 188,OUTDOORAIR:MIXER,AIR LOOP HVAC OUTDOOR AIR SYSTEM 7 OUTDOOR AIR MIXER,Inlet,1
 Non-Parent Node Connection,NODE 189,OUTDOORAIR:MIXER,AIR LOOP HVAC OUTDOOR AIR SYSTEM 7 OUTDOOR AIR MIXER,ReliefAir,1
 Non-Parent Node Connection,NODE 101,OUTDOORAIR:MIXER,AIR LOOP HVAC OUTDOOR AIR SYSTEM 7 OUTDOOR AIR MIXER,Inlet,1
 Non-Parent Node Connection,NODE 123,OUTDOORAIR:MIXER,AIR LOOP HVAC OUTDOOR AIR SYSTEM 8 OUTDOOR AIR MIXER,Outlet,1
 Non-Parent Node Connection,NODE 190,OUTDOORAIR:MIXER,AIR LOOP HVAC OUTDOOR AIR SYSTEM 8 OUTDOOR AIR MIXER,Inlet,1
 Non-Parent Node Connection,NODE 191,OUTDOORAIR:MIXER,AIR LOOP HVAC OUTDOOR AIR SYSTEM 8 OUTDOOR AIR MIXER,ReliefAir,1
 Non-Parent Node Connection,NODE 114,OUTDOORAIR:MIXER,AIR LOOP HVAC OUTDOOR AIR SYSTEM 8 OUTDOOR AIR MIXER,Inlet,1
 Non-Parent Node Connection,NODE 136,OUTDOORAIR:MIXER,AIR LOOP HVAC OUTDOOR AIR SYSTEM 9 OUTDOOR AIR MIXER,Outlet,1
 Non-Parent Node Connection,NODE 192,OUTDOORAIR:MIXER,AIR LOOP HVAC OUTDOOR AIR SYSTEM 9 OUTDOOR AIR MIXER,Inlet,1
 Non-Parent Node Connection,NODE 193,OUTDOORAIR:MIXER,AIR LOOP HVAC OUTDOOR AIR SYSTEM 9 OUTDOOR AIR MIXER,ReliefAir,1
 Non-Parent Node Connection,NODE 127,OUTDOORAIR:MIXER,AIR LOOP HVAC OUTDOOR AIR SYSTEM 9 OUTDOOR AIR MIXER,Inlet,1
 Non-Parent Node Connection,NODE 149,OUTDOORAIR:MIXER,AIR LOOP HVAC OUTDOOR AIR SYSTEM 10 OUTDOOR AIR MIXER,Outlet,1
 Non-Parent Node Connection,NODE 194,OUTDOORAIR:MIXER,AIR LOOP HVAC OUTDOOR AIR SYSTEM 10 OUTDOOR AIR MIXER,Inlet,1
 Non-Parent Node Connection,NODE 195,OUTDOORAIR:MIXER,AIR LOOP HVAC OUTDOOR AIR SYSTEM 10 OUTDOOR AIR MIXER,ReliefAir,1
 Non-Parent Node Connection,NODE 140,OUTDOORAIR:MIXER,AIR LOOP HVAC OUTDOOR AIR SYSTEM 10 OUTDOOR AIR MIXER,Inlet,1
 Non-Parent Node Connection,NODE 84,OUTDOORAIR:MIXER,AIR LOOP HVAC OUTDOOR AIR SYSTEM 5 OUTDOOR AIR MIXER,Outlet,1
 Non-Parent Node Connection,NODE 80,OUTDOORAIR:MIXER,AIR LOOP HVAC OUTDOOR AIR SYSTEM 5 OUTDOOR AIR MIXER,Inlet,1
 Non-Parent Node Connection,NODE 81,OUTDOORAIR:MIXER,AIR LOOP HVAC OUTDOOR AIR SYSTEM 5 OUTDOOR AIR MIXER,ReliefAir,1
 Non-Parent Node Connection,NODE 75,OUTDOORAIR:MIXER,AIR LOOP HVAC OUTDOOR AIR SYSTEM 5 OUTDOOR AIR MIXER,Inlet,1
 Non-Parent Node Connection,NODE 97,OUTDOORAIR:MIXER,AIR LOOP HVAC OUTDOOR AIR SYSTEM 6 OUTDOOR AIR MIXER,Outlet,1
 Non-Parent Node Connection,NODE 196,OUTDOORAIR:MIXER,AIR LOOP HVAC OUTDOOR AIR SYSTEM 6 OUTDOOR AIR MIXER,Inlet,1
 Non-Parent Node Connection,NODE 197,OUTDOORAIR:MIXER,AIR LOOP HVAC OUTDOOR AIR SYSTEM 6 OUTDOOR AIR MIXER,ReliefAir,1
 Non-Parent Node Connection,NODE 88,OUTDOORAIR:MIXER,AIR LOOP HVAC OUTDOOR AIR SYSTEM 6 OUTDOOR AIR MIXER,Inlet,1
 Non-Parent Node Connection,NODE 71,OUTDOORAIR:MIXER,AIR LOOP HVAC OUTDOOR AIR SYSTEM 4 OUTDOOR AIR MIXER,Outlet,1
 Non-Parent Node Connection,NODE 67,OUTDOORAIR:MIXER,AIR LOOP HVAC OUTDOOR AIR SYSTEM 4 OUTDOOR AIR MIXER,Inlet,1
 Non-Parent Node Connection,NODE 68,OUTDOORAIR:MIXER,AIR LOOP HVAC OUTDOOR AIR SYSTEM 4 OUTDOOR AIR MIXER,ReliefAir,1
 Non-Parent Node Connection,NODE 62,OUTDOORAIR:MIXER,AIR LOOP HVAC OUTDOOR AIR SYSTEM 4 OUTDOOR AIR MIXER,Inlet,1
 Non-Parent Node Connection,NODE 33,OUTDOORAIR:MIXER,AIR LOOP HVAC OUTDOOR AIR SYSTEM 1 OUTDOOR AIR MIXER,Outlet,1
 Non-Parent Node Connection,NODE 29,OUTDOORAIR:MIXER,AIR LOOP HVAC OUTDOOR AIR SYSTEM 1 OUTDOOR AIR MIXER,Inlet,1
 Non-Parent Node Connection,NODE 30,OUTDOORAIR:MIXER,AIR LOOP HVAC OUTDOOR AIR SYSTEM 1 OUTDOOR AIR MIXER,ReliefAir,1
 Non-Parent Node Connection,NODE 21,OUTDOORAIR:MIXER,AIR LOOP HVAC OUTDOOR AIR SYSTEM 1 OUTDOOR AIR MIXER,Inlet,1
 Non-Parent Node Connection,NODE 58,OUTDOORAIR:MIXER,AIR LOOP HVAC OUTDOOR AIR SYSTEM 3 OUTDOOR AIR MIXER,Outlet,1
 Non-Parent Node Connection,NODE 54,OUTDOORAIR:MIXER,AIR LOOP HVAC OUTDOOR AIR SYSTEM 3 OUTDOOR AIR MIXER,Inlet,1
 Non-Parent Node Connection,NODE 55,OUTDOORAIR:MIXER,AIR LOOP HVAC OUTDOOR AIR SYSTEM 3 OUTDOOR AIR MIXER,ReliefAir,1
 Non-Parent Node Connection,NODE 49,OUTDOORAIR:MIXER,AIR LOOP HVAC OUTDOOR AIR SYSTEM 3 OUTDOOR AIR MIXER,Inlet,1
 Non-Parent Node Connection,NODE 45,OUTDOORAIR:MIXER,AIR LOOP HVAC OUTDOOR AIR SYSTEM 2 OUTDOOR AIR MIXER,Outlet,1
 Non-Parent Node Connection,NODE 198,OUTDOORAIR:MIXER,AIR LOOP HVAC OUTDOOR AIR SYSTEM 2 OUTDOOR AIR MIXER,Inlet,1
 Non-Parent Node Connection,NODE 199,OUTDOORAIR:MIXER,AIR LOOP HVAC OUTDOOR AIR SYSTEM 2 OUTDOOR AIR MIXER,ReliefAir,1
 Non-Parent Node Connection,NODE 36,OUTDOORAIR:MIXER,AIR LOOP HVAC OUTDOOR AIR SYSTEM 2 OUTDOOR AIR MIXER,Inlet,1
 Non-Parent Node Connection,NODE 108,FAN:CONSTANTVOLUME,FAN CONSTANT VOLUME 7,Inlet,1
 Non-Parent Node Connection,NODE 102,FAN:CONSTANTVOLUME,FAN CONSTANT VOLUME 7,Outlet,1
 Non-Parent Node Connection,NODE 121,FAN:CONSTANTVOLUME,FAN CONSTANT VOLUME 8,Inlet,1
 Non-Parent Node Connection,NODE 115,FAN:CONSTANTVOLUME,FAN CONSTANT VOLUME 8,Outlet,1
 Non-Parent Node Connection,NODE 134,FAN:CONSTANTVOLUME,FAN CONSTANT VOLUME 9,Inlet,1
 Non-Parent Node Connection,NODE 128,FAN:CONSTANTVOLUME,FAN CONSTANT VOLUME 9,Outlet,1
 Non-Parent Node Connection,NODE 147,FAN:CONSTANTVOLUME,FAN CONSTANT VOLUME 10,Inlet,1
 Non-Parent Node Connection,NODE 141,FAN:CONSTANTVOLUME,FAN CONSTANT VOLUME 10,Outlet,1
 Non-Parent Node Connection,NODE 82,FAN:CONSTANTVOLUME,FAN CONSTANT VOLUME 5,Inlet,1
 Non-Parent Node Connection,NODE 76,FAN:CONSTANTVOLUME,FAN CONSTANT VOLUME 5,Outlet,1
 Non-Parent Node Connection,NODE 95,FAN:CONSTANTVOLUME,FAN CONSTANT VOLUME 6,Inlet,1
 Non-Parent Node Connection,NODE 89,FAN:CONSTANTVOLUME,FAN CONSTANT VOLUME 6,Outlet,1
 Non-Parent Node Connection,NODE 69,FAN:CONSTANTVOLUME,FAN CONSTANT VOLUME 4,Inlet,1
 Non-Parent Node Connection,NODE 63,FAN:CONSTANTVOLUME,FAN CONSTANT VOLUME 4,Outlet,1
 Non-Parent Node Connection,NODE 31,FAN:CONSTANTVOLUME,FAN CONSTANT VOLUME 1,Inlet,1
 Non-Parent Node Connection,NODE 23,FAN:CONSTANTVOLUME,FAN CONSTANT VOLUME 1,Outlet,1
 Non-Parent Node Connection,NODE 56,FAN:CONSTANTVOLUME,FAN CONSTANT VOLUME 3,Inlet,1
 Non-Parent Node Connection,NODE 50,FAN:CONSTANTVOLUME,FAN CONSTANT VOLUME 3,Outlet,1
 Non-Parent Node Connection,NODE 43,FAN:CONSTANTVOLUME,FAN CONSTANT VOLUME 2,Inlet,1
 Non-Parent Node Connection,NODE 37,FAN:CONSTANTVOLUME,FAN CONSTANT VOLUME 2,Outlet,1
 Non-Parent Node Connection,NODE 110,CONTROLLER:OUTDOORAIR,CONTROLLER OUTDOOR AIR 7,Sensor,1
 Non-Parent Node Connection,NODE 106,CONTROLLER:OUTDOORAIR,CONTROLLER OUTDOOR AIR 7,Actuator,1
 Non-Parent Node Connection,NODE 189,CONTROLLER:OUTDOORAIR,CONTROLLER OUTDOOR AIR 7,Actuator,1
 Non-Parent Node Connection,NODE 101,CONTROLLER:OUTDOORAIR,CONTROLLER OUTDOOR AIR 7,Sensor,1
 Non-Parent Node Connection,NODE 123,CONTROLLER:OUTDOORAIR,CONTROLLER OUTDOOR AIR 8,Sensor,1
 Non-Parent Node Connection,NODE 119,CONTROLLER:OUTDOORAIR,CONTROLLER OUTDOOR AIR 8,Actuator,1
 Non-Parent Node Connection,NODE 191,CONTROLLER:OUTDOORAIR,CONTROLLER OUTDOOR AIR 8,Actuator,1
 Non-Parent Node Connection,NODE 114,CONTROLLER:OUTDOORAIR,CONTROLLER OUTDOOR AIR 8,Sensor,1
 Non-Parent Node Connection,NODE 136,CONTROLLER:OUTDOORAIR,CONTROLLER OUTDOOR AIR 9,Sensor,1
 Non-Parent Node Connection,NODE 132,CONTROLLER:OUTDOORAIR,CONTROLLER OUTDOOR AIR 9,Actuator,1
 Non-Parent Node Connection,NODE 193,CONTROLLER:OUTDOORAIR,CONTROLLER OUTDOOR AIR 9,Actuator,1
 Non-Parent Node Connection,NODE 127,CONTROLLER:OUTDOORAIR,CONTROLLER OUTDOOR AIR 9,Sensor,1
 Non-Parent Node Connection,NODE 149,CONTROLLER:OUTDOORAIR,CONTROLLER OUTDOOR AIR 10,Sensor,1
 Non-Parent Node Connection,NODE 145,CONTROLLER:OUTDOORAIR,CONTROLLER OUTDOOR AIR 10,Actuator,1
 Non-Parent Node Connection,NODE 195,CONTROLLER:OUTDOORAIR,CONTROLLER OUTDOOR AIR 10,Actuator,1
 Non-Parent Node Connection,NODE 140,CONTROLLER:OUTDOORAIR,CONTROLLER OUTDOOR AIR 10,Sensor,1
 Non-Parent Node Connection,NODE 84,CONTROLLER:OUTDOORAIR,CONTROLLER OUTDOOR AIR 5,Sensor,1
 Non-Parent Node Connection,NODE 80,CONTROLLER:OUTDOORAIR,CONTROLLER OUTDOOR AIR 5,Actuator,1
 Non-Parent Node Connection,NODE 81,CONTROLLER:OUTDOORAIR,CONTROLLER OUTDOOR AIR 5,Actuator,1
 Non-Parent Node Connection,NODE 75,CONTROLLER:OUTDOORAIR,CONTROLLER OUTDOOR AIR 5,Sensor,1
 Non-Parent Node Connection,NODE 97,CONTROLLER:OUTDOORAIR,CONTROLLER OUTDOOR AIR 6,Sensor,1
 Non-Parent Node Connection,NODE 93,CONTROLLER:OUTDOORAIR,CONTROLLER OUTDOOR AIR 6,Actuator,1
 Non-Parent Node Connection,NODE 197,CONTROLLER:OUTDOORAIR,CONTROLLER OUTDOOR AIR 6,Actuator,1
 Non-Parent Node Connection,NODE 88,CONTROLLER:OUTDOORAIR,CONTROLLER OUTDOOR AIR 6,Sensor,1
 Non-Parent Node Connection,NODE 71,CONTROLLER:OUTDOORAIR,CONTROLLER OUTDOOR AIR 4,Sensor,1
 Non-Parent Node Connection,NODE 67,CONTROLLER:OUTDOORAIR,CONTROLLER OUTDOOR AIR 4,Actuator,1
 Non-Parent Node Connection,NODE 68,CONTROLLER:OUTDOORAIR,CONTROLLER OUTDOOR AIR 4,Actuator,1
 Non-Parent Node Connection,NODE 62,CONTROLLER:OUTDOORAIR,CONTROLLER OUTDOOR AIR 4,Sensor,1
 Non-Parent Node Connection,NODE 33,CONTROLLER:OUTDOORAIR,CONTROLLER OUTDOOR AIR 1,Sensor,1
 Non-Parent Node Connection,NODE 29,CONTROLLER:OUTDOORAIR,CONTROLLER OUTDOOR AIR 1,Actuator,1
 Non-Parent Node Connection,NODE 30,CONTROLLER:OUTDOORAIR,CONTROLLER OUTDOOR AIR 1,Actuator,1
 Non-Parent Node Connection,NODE 21,CONTROLLER:OUTDOORAIR,CONTROLLER OUTDOOR AIR 1,Sensor,1
 Non-Parent Node Connection,NODE 58,CONTROLLER:OUTDOORAIR,CONTROLLER OUTDOOR AIR 3,Sensor,1
 Non-Parent Node Connection,NODE 54,CONTROLLER:OUTDOORAIR,CONTROLLER OUTDOOR AIR 3,Actuator,1
 Non-Parent Node Connection,NODE 55,CONTROLLER:OUTDOORAIR,CONTROLLER OUTDOOR AIR 3,Actuator,1
 Non-Parent Node Connection,NODE 49,CONTROLLER:OUTDOORAIR,CONTROLLER OUTDOOR AIR 3,Sensor,1
 Non-Parent Node Connection,NODE 45,CONTROLLER:OUTDOORAIR,CONTROLLER OUTDOOR AIR 2,Sensor,1
 Non-Parent Node Connection,NODE 41,CONTROLLER:OUTDOORAIR,CONTROLLER OUTDOOR AIR 2,Actuator,1
 Non-Parent Node Connection,NODE 199,CONTROLLER:OUTDOORAIR,CONTROLLER OUTDOOR AIR 2,Actuator,1
 Non-Parent Node Connection,NODE 36,CONTROLLER:OUTDOORAIR,CONTROLLER OUTDOOR AIR 2,Sensor,1
 Non-Parent Node Connection,NODE 106,HEATEXCHANGER:AIRTOAIR:SENSIBLEANDLATENT,SYS_3_PSZ ALL_ST=WHOLEBUILDING_FL=STORY 1_SCH=B ERV,Inlet,1
 Non-Parent Node Connection,NODE 188,HEATEXCHANGER:AIRTOAIR:SENSIBLEANDLATENT,SYS_3_PSZ ALL_ST=WHOLEBUILDING_FL=STORY 1_SCH=B ERV,Outlet,1
 Non-Parent Node Connection,NODE 189,HEATEXCHANGER:AIRTOAIR:SENSIBLEANDLATENT,SYS_3_PSZ ALL_ST=WHOLEBUILDING_FL=STORY 1_SCH=B ERV,Inlet,2
 Non-Parent Node Connection,NODE 107,HEATEXCHANGER:AIRTOAIR:SENSIBLEANDLATENT,SYS_3_PSZ ALL_ST=WHOLEBUILDING_FL=STORY 1_SCH=B ERV,Outlet,2
 Non-Parent Node Connection,NODE 119,HEATEXCHANGER:AIRTOAIR:SENSIBLEANDLATENT,SYS_3_PSZ ALL_ST=WHOLEBUILDING_FL=STORY 1_SCH=B 1 ERV,Inlet,1
 Non-Parent Node Connection,NODE 190,HEATEXCHANGER:AIRTOAIR:SENSIBLEANDLATENT,SYS_3_PSZ ALL_ST=WHOLEBUILDING_FL=STORY 1_SCH=B 1 ERV,Outlet,1
 Non-Parent Node Connection,NODE 191,HEATEXCHANGER:AIRTOAIR:SENSIBLEANDLATENT,SYS_3_PSZ ALL_ST=WHOLEBUILDING_FL=STORY 1_SCH=B 1 ERV,Inlet,2
 Non-Parent Node Connection,NODE 120,HEATEXCHANGER:AIRTOAIR:SENSIBLEANDLATENT,SYS_3_PSZ ALL_ST=WHOLEBUILDING_FL=STORY 1_SCH=B 1 ERV,Outlet,2
 Non-Parent Node Connection,NODE 132,HEATEXCHANGER:AIRTOAIR:SENSIBLEANDLATENT,SYS_3_PSZ ALL_ST=WHOLEBUILDING_FL=STORY 1_SCH=B 2 ERV,Inlet,1
 Non-Parent Node Connection,NODE 192,HEATEXCHANGER:AIRTOAIR:SENSIBLEANDLATENT,SYS_3_PSZ ALL_ST=WHOLEBUILDING_FL=STORY 1_SCH=B 2 ERV,Outlet,1
 Non-Parent Node Connection,NODE 193,HEATEXCHANGER:AIRTOAIR:SENSIBLEANDLATENT,SYS_3_PSZ ALL_ST=WHOLEBUILDING_FL=STORY 1_SCH=B 2 ERV,Inlet,2
 Non-Parent Node Connection,NODE 133,HEATEXCHANGER:AIRTOAIR:SENSIBLEANDLATENT,SYS_3_PSZ ALL_ST=WHOLEBUILDING_FL=STORY 1_SCH=B 2 ERV,Outlet,2
 Non-Parent Node Connection,NODE 145,HEATEXCHANGER:AIRTOAIR:SENSIBLEANDLATENT,SYS_3_PSZ ALL_ST=WHOLEBUILDING_FL=STORY 1_SCH=B 3 ERV,Inlet,1
 Non-Parent Node Connection,NODE 194,HEATEXCHANGER:AIRTOAIR:SENSIBLEANDLATENT,SYS_3_PSZ ALL_ST=WHOLEBUILDING_FL=STORY 1_SCH=B 3 ERV,Outlet,1
 Non-Parent Node Connection,NODE 195,HEATEXCHANGER:AIRTOAIR:SENSIBLEANDLATENT,SYS_3_PSZ ALL_ST=WHOLEBUILDING_FL=STORY 1_SCH=B 3 ERV,Inlet,2
 Non-Parent Node Connection,NODE 146,HEATEXCHANGER:AIRTOAIR:SENSIBLEANDLATENT,SYS_3_PSZ ALL_ST=WHOLEBUILDING_FL=STORY 1_SCH=B 3 ERV,Outlet,2
 Non-Parent Node Connection,NODE 93,HEATEXCHANGER:AIRTOAIR:SENSIBLEANDLATENT,SYS_3_PSZ ALL_ST=WHOLEBUILDING_FL=STORY 2_SCH=B ERV,Inlet,1
 Non-Parent Node Connection,NODE 196,HEATEXCHANGER:AIRTOAIR:SENSIBLEANDLATENT,SYS_3_PSZ ALL_ST=WHOLEBUILDING_FL=STORY 2_SCH=B ERV,Outlet,1
 Non-Parent Node Connection,NODE 197,HEATEXCHANGER:AIRTOAIR:SENSIBLEANDLATENT,SYS_3_PSZ ALL_ST=WHOLEBUILDING_FL=STORY 2_SCH=B ERV,Inlet,2
 Non-Parent Node Connection,NODE 94,HEATEXCHANGER:AIRTOAIR:SENSIBLEANDLATENT,SYS_3_PSZ ALL_ST=WHOLEBUILDING_FL=STORY 2_SCH=B ERV,Outlet,2
 Non-Parent Node Connection,NODE 41,HEATEXCHANGER:AIRTOAIR:SENSIBLEANDLATENT,SYS_4_PSZ_ALL_ST=WHOLEBUILDING_FL=STORY 2_SCH=E ERV,Inlet,1
 Non-Parent Node Connection,NODE 198,HEATEXCHANGER:AIRTOAIR:SENSIBLEANDLATENT,SYS_4_PSZ_ALL_ST=WHOLEBUILDING_FL=STORY 2_SCH=E ERV,Outlet,1
 Non-Parent Node Connection,NODE 199,HEATEXCHANGER:AIRTOAIR:SENSIBLEANDLATENT,SYS_4_PSZ_ALL_ST=WHOLEBUILDING_FL=STORY 2_SCH=E ERV,Inlet,2
 Non-Parent Node Connection,NODE 42,HEATEXCHANGER:AIRTOAIR:SENSIBLEANDLATENT,SYS_4_PSZ_ALL_ST=WHOLEBUILDING_FL=STORY 2_SCH=E ERV,Outlet,2
 Non-Parent Node Connection,NODE 110,COIL:COOLING:DX:SINGLESPEED,COIL COOLING DX SINGLE SPEED 7 186KBTU/HR 9.7EER,Inlet,1
 Non-Parent Node Connection,NODE 109,COIL:COOLING:DX:SINGLESPEED,COIL COOLING DX SINGLE SPEED 7 186KBTU/HR 9.7EER,Outlet,1
 Non-Parent Node Connection,NODE 123,COIL:COOLING:DX:SINGLESPEED,COIL COOLING DX SINGLE SPEED 8 151KBTU/HR 9.7EER,Inlet,1
 Non-Parent Node Connection,NODE 122,COIL:COOLING:DX:SINGLESPEED,COIL COOLING DX SINGLE SPEED 8 151KBTU/HR 9.7EER,Outlet,1
 Non-Parent Node Connection,NODE 136,COIL:COOLING:DX:SINGLESPEED,COIL COOLING DX SINGLE SPEED 9 139KBTU/HR 9.7EER,Inlet,1
 Non-Parent Node Connection,NODE 135,COIL:COOLING:DX:SINGLESPEED,COIL COOLING DX SINGLE SPEED 9 139KBTU/HR 9.7EER,Outlet,1
 Non-Parent Node Connection,NODE 149,COIL:COOLING:DX:SINGLESPEED,COIL COOLING DX SINGLE SPEED 10 164KBTU/HR 9.7EER,Inlet,1
 Non-Parent Node Connection,NODE 148,COIL:COOLING:DX:SINGLESPEED,COIL COOLING DX SINGLE SPEED 10 164KBTU/HR 9.7EER,Outlet,1
 Non-Parent Node Connection,NODE 84,COIL:COOLING:DX:SINGLESPEED,COIL COOLING DX SINGLE SPEED 5 315KBTU/HR 8.21EER,Inlet,1
 Non-Parent Node Connection,NODE 83,COIL:COOLING:DX:SINGLESPEED,COIL COOLING DX SINGLE SPEED 5 315KBTU/HR 8.21EER,Outlet,1
 Non-Parent Node Connection,NODE 97,COIL:COOLING:DX:SINGLESPEED,COIL COOLING DX SINGLE SPEED 6 345KBTU/HR 8.21EER,Inlet,1
 Non-Parent Node Connection,NODE 96,COIL:COOLING:DX:SINGLESPEED,COIL COOLING DX SINGLE SPEED 6 345KBTU/HR 8.21EER,Outlet,1
 Non-Parent Node Connection,NODE 71,COIL:COOLING:DX:SINGLESPEED,COIL COOLING DX SINGLE SPEED 4 410KBTU/HR 8.21EER,Inlet,1
 Non-Parent Node Connection,NODE 70,COIL:COOLING:DX:SINGLESPEED,COIL COOLING DX SINGLE SPEED 4 410KBTU/HR 8.21EER,Outlet,1
 Non-Parent Node Connection,NODE 33,COIL:COOLING:DX:SINGLESPEED,COIL COOLING DX SINGLE SPEED 1 242KBTU/HR 9.7EER,Inlet,1
 Non-Parent Node Connection,NODE 32,COIL:COOLING:DX:SINGLESPEED,COIL COOLING DX SINGLE SPEED 1 242KBTU/HR 9.7EER,Outlet,1
 Non-Parent Node Connection,NODE 58,COIL:COOLING:DX:SINGLESPEED,COIL COOLING DX SINGLE SPEED 3 95KBTU/HR 9.7EER,Inlet,1
 Non-Parent Node Connection,NODE 57,COIL:COOLING:DX:SINGLESPEED,COIL COOLING DX SINGLE SPEED 3 95KBTU/HR 9.7EER,Outlet,1
 Non-Parent Node Connection,NODE 45,COIL:COOLING:DX:SINGLESPEED,COIL COOLING DX SINGLE SPEED 2 388KBTU/HR 8.21EER,Inlet,1
 Non-Parent Node Connection,NODE 44,COIL:COOLING:DX:SINGLESPEED,COIL COOLING DX SINGLE SPEED 2 388KBTU/HR 8.21EER,Outlet,1
 Non-Parent Node Connection,NODE 109,COIL:HEATING:FUEL,COIL HEATING GAS 7,Inlet,1
 Non-Parent Node Connection,NODE 108,COIL:HEATING:FUEL,COIL HEATING GAS 7,Outlet,1
 Non-Parent Node Connection,NODE 108,COIL:HEATING:FUEL,COIL HEATING GAS 7,Sensor,1
 Non-Parent Node Connection,NODE 122,COIL:HEATING:FUEL,COIL HEATING GAS 8,Inlet,1
 Non-Parent Node Connection,NODE 121,COIL:HEATING:FUEL,COIL HEATING GAS 8,Outlet,1
 Non-Parent Node Connection,NODE 121,COIL:HEATING:FUEL,COIL HEATING GAS 8,Sensor,1
 Non-Parent Node Connection,NODE 135,COIL:HEATING:FUEL,COIL HEATING GAS 9,Inlet,1
 Non-Parent Node Connection,NODE 134,COIL:HEATING:FUEL,COIL HEATING GAS 9,Outlet,1
 Non-Parent Node Connection,NODE 134,COIL:HEATING:FUEL,COIL HEATING GAS 9,Sensor,1
 Non-Parent Node Connection,NODE 148,COIL:HEATING:FUEL,COIL HEATING GAS 10,Inlet,1
 Non-Parent Node Connection,NODE 147,COIL:HEATING:FUEL,COIL HEATING GAS 10,Outlet,1
 Non-Parent Node Connection,NODE 147,COIL:HEATING:FUEL,COIL HEATING GAS 10,Sensor,1
 Non-Parent Node Connection,NODE 83,COIL:HEATING:FUEL,COIL HEATING GAS 5,Inlet,1
 Non-Parent Node Connection,NODE 82,COIL:HEATING:FUEL,COIL HEATING GAS 5,Outlet,1
 Non-Parent Node Connection,NODE 82,COIL:HEATING:FUEL,COIL HEATING GAS 5,Sensor,1
 Non-Parent Node Connection,NODE 96,COIL:HEATING:FUEL,COIL HEATING GAS 6,Inlet,1
 Non-Parent Node Connection,NODE 95,COIL:HEATING:FUEL,COIL HEATING GAS 6,Outlet,1
 Non-Parent Node Connection,NODE 95,COIL:HEATING:FUEL,COIL HEATING GAS 6,Sensor,1
 Non-Parent Node Connection,NODE 70,COIL:HEATING:FUEL,COIL HEATING GAS 4,Inlet,1
 Non-Parent Node Connection,NODE 69,COIL:HEATING:FUEL,COIL HEATING GAS 4,Outlet,1
 Non-Parent Node Connection,NODE 69,COIL:HEATING:FUEL,COIL HEATING GAS 4,Sensor,1
 Non-Parent Node Connection,NODE 32,COIL:HEATING:FUEL,COIL HEATING GAS 1,Inlet,1
 Non-Parent Node Connection,NODE 31,COIL:HEATING:FUEL,COIL HEATING GAS 1,Outlet,1
 Non-Parent Node Connection,NODE 31,COIL:HEATING:FUEL,COIL HEATING GAS 1,Sensor,1
 Non-Parent Node Connection,NODE 57,COIL:HEATING:FUEL,COIL HEATING GAS 3,Inlet,1
 Non-Parent Node Connection,NODE 56,COIL:HEATING:FUEL,COIL HEATING GAS 3,Outlet,1
 Non-Parent Node Connection,NODE 56,COIL:HEATING:FUEL,COIL HEATING GAS 3,Sensor,1
 Non-Parent Node Connection,NODE 44,COIL:HEATING:FUEL,COIL HEATING GAS 2,Inlet,1
 Non-Parent Node Connection,NODE 43,COIL:HEATING:FUEL,COIL HEATING GAS 2,Outlet,1
 Non-Parent Node Connection,NODE 43,COIL:HEATING:FUEL,COIL HEATING GAS 2,Sensor,1
 Non-Parent Node Connection,NODE 5,BOILER:HOTWATER,PRIMARY BOILER 539KBTU/HR 0.83 THERMAL EFF,Inlet,1
 Non-Parent Node Connection,NODE 12,BOILER:HOTWATER,PRIMARY BOILER 539KBTU/HR 0.83 THERMAL EFF,Outlet,1
 Non-Parent Node Connection,NODE 14,BOILER:HOTWATER,SECONDARY BOILER 539KBTU/HR 0.83 THERMAL EFF,Inlet,1
 Non-Parent Node Connection,NODE 15,BOILER:HOTWATER,SECONDARY BOILER 539KBTU/HR 0.83 THERMAL EFF,Outlet,1
 Non-Parent Node Connection,NODE 2,PUMP:VARIABLESPEED,PUMP VARIABLE SPEED 1,Inlet,1
 Non-Parent Node Connection,NODE 11,PUMP:VARIABLESPEED,PUMP VARIABLE SPEED 1,Outlet,1
 Non-Parent Node Connection,NODE 153,PUMP:CONSTANTSPEED,SERVICE WATER LOOP PUMP,Inlet,1
 Non-Parent Node Connection,NODE 159,PUMP:CONSTANTSPEED,SERVICE WATER LOOP PUMP,Outlet,1
