Program Version,EnergyPlus, Version 8.9.0-eba93e8e1b, YMD=2019.03.11 19:40
! This file shows details about the branches, nodes, and other
! elements of the flow connections.
! This file is intended for use in "debugging" potential problems
! that may also be detected by the program, but may be more easily
! identified by "eye".
! This file is also intended to support software which draws a
! schematic diagram of the HVAC system.
! ===============================================================
! #Nodes,<Number of Unique Nodes>
 #Nodes,732
! <Node>,<NodeNumber>,<Node Name>,<Node Fluid Type>,<# Times Node Referenced After Definition>
 Node,1,NODE 144,Air,4
 Node,2,NODE 372,Air,4
 Node,3,NODE 391,Air,4
 Node,4,NODE 330,Air,4
 Node,5,NODE 349,Air,4
 Node,6,NODE 356,Air,4
 Node,7,NODE 281,Air,4
 Node,8,NODE 363,Air,4
 Node,9,NODE 300,Air,4
 Node,10,NODE 398,Air,4
 Node,11,NODE 307,Air,4
 Node,12,NODE 246,Air,4
 Node,13,NODE 265,Air,4
 Node,14,NODE 184,Air,4
 Node,15,NODE 314,Air,4
 Node,16,NODE 65,Air,3
 Node,17,NODE 77,Air,3
 Node,18,NODE 71,Air,3
 Node,19,NODE 51,Air,4
 Node,20,NODE 225,Air,4
 Node,21,NODE 321,Air,4
 Node,22,NODE 272,Air,4
 Node,23,NODE 204,Air,4
 Node,24,NODE 483,Air,3
 Node,25,NODE 473,Air,4
 Node,26,NODE 482,Air,3
 Node,27,NODE 407,Air,4
 Node,28,NODE 526,Air,3
 Node,29,NODE 516,Air,4
 Node,30,NODE 525,Air,3
 Node,31,NODE 569,Air,3
 Node,32,NODE 559,Air,4
 Node,33,NODE 568,Air,3
 Node,34,NODE 433,Air,4
 Node,35,NODE 420,Air,4
 Node,36,NODE 27,Air,4
 Node,37,NODE 39,Air,3
 Node,38,NODE 89,Air,4
 Node,39,NODE 102,Air,3
 Node,40,NODE 108,Air,3
 Node,41,NODE 114,Air,3
 Node,42,NODE 120,Air,3
 Node,43,NODE 124,Air,3
 Node,44,NODE 128,Air,3
 Node,45,NODE 132,Air,3
 Node,46,NODE 136,Air,3
 Node,47,NODE 470,Air,10
 Node,48,NODE 471,Air,3
 Node,49,NODE 513,Air,10
 Node,50,NODE 514,Air,3
 Node,51,NODE 556,Air,10
 Node,52,NODE 557,Air,3
 Node,53,NODE 141,Air,10
 Node,54,NODE 142,Air,3
 Node,55,NODE 47,Air,10
 Node,56,NODE 48,Air,3
 Node,57,NODE 404,Air,10
 Node,58,NODE 405,Air,3
 Node,59,NODE 430,Air,10
 Node,60,NODE 431,Air,3
 Node,61,NODE 417,Air,10
 Node,62,NODE 418,Air,3
 Node,63,NODE 23,Air,10
 Node,64,NODE 24,Air,3
 Node,65,NODE 84,Air,10
 Node,66,NODE 86,Air,3
 Node,67,NODE 181,Air,12
 Node,68,NODE 182,Air,3
 Node,69,NODE 201,Air,12
 Node,70,NODE 202,Air,3
 Node,71,NODE 222,Air,12
 Node,72,NODE 223,Air,3
 Node,73,NODE 243,Air,12
 Node,74,NODE 244,Air,3
 Node,75,NODE 278,Air,12
 Node,76,NODE 279,Air,3
 Node,77,NODE 327,Air,12
 Node,78,NODE 328,Air,3
 Node,79,NODE 369,Air,12
 Node,80,NODE 370,Air,3
 Node,81,NODE 469,Air,3
 Node,82,NODE 478,Air,6
 Node,83,NODE 477,Air,6
 Node,84,NODE 476,Air,8
 Node,85,NODE 512,Air,3
 Node,86,NODE 521,Air,6
 Node,87,NODE 520,Air,6
 Node,88,NODE 519,Air,8
 Node,89,NODE 555,Air,3
 Node,90,NODE 564,Air,6
 Node,91,NODE 563,Air,6
 Node,92,NODE 562,Air,8
 Node,93,NODE 140,Air,4
 Node,94,NODE 149,Air,8
 Node,95,NODE 148,Air,6
 Node,96,NODE 147,Air,8
 Node,97,NODE 45,Air,4
 Node,98,NODE 59,Air,8
 Node,99,NODE 57,Air,6
 Node,100,NODE 56,Air,8
 Node,101,NODE 403,Air,3
 Node,102,NODE 412,Air,6
 Node,103,NODE 411,Air,6
 Node,104,NODE 410,Air,8
 Node,105,NODE 429,Air,3
 Node,106,NODE 438,Air,6
 Node,107,NODE 437,Air,6
 Node,108,NODE 436,Air,8
 Node,109,NODE 416,Air,3
 Node,110,NODE 425,Air,6
 Node,111,NODE 424,Air,6
 Node,112,NODE 423,Air,8
 Node,113,NODE 21,Air,3
 Node,114,NODE 35,Air,6
 Node,115,NODE 33,Air,6
 Node,116,NODE 32,Air,8
 Node,117,NODE 83,Air,4
 Node,118,NODE 96,Air,8
 Node,119,NODE 95,Air,6
 Node,120,NODE 93,Air,8
 Node,121,NODE 180,Air,2
 Node,122,NODE 193,Air,6
 Node,123,NODE 192,Air,7
 Node,124,NODE 191,Air,5
 Node,125,NODE 190,Air,9
 Node,126,NODE 200,Air,2
 Node,127,NODE 214,Air,6
 Node,128,NODE 213,Air,7
 Node,129,NODE 212,Air,5
 Node,130,NODE 211,Air,9
 Node,131,NODE 221,Air,2
 Node,132,NODE 235,Air,5
 Node,133,NODE 234,Air,5
 Node,134,NODE 233,Air,5
 Node,135,NODE 232,Air,9
 Node,136,NODE 242,Air,2
 Node,137,NODE 256,Air,6
 Node,138,NODE 255,Air,7
 Node,139,NODE 254,Air,5
 Node,140,NODE 253,Air,9
 Node,141,NODE 277,Air,2
 Node,142,NODE 291,Air,6
 Node,143,NODE 290,Air,7
 Node,144,NODE 289,Air,5
 Node,145,NODE 288,Air,9
 Node,146,NODE 326,Air,2
 Node,147,NODE 340,Air,6
 Node,148,NODE 339,Air,7
 Node,149,NODE 338,Air,5
 Node,150,NODE 337,Air,9
 Node,151,NODE 368,Air,2
 Node,152,NODE 382,Air,6
 Node,153,NODE 381,Air,7
 Node,154,NODE 380,Air,5
 Node,155,NODE 379,Air,9
 Node,156,NODE 153,Water,2
 Node,157,NODE 159,Water,1
 Node,158,NODE 155,Water,1
 Node,159,NODE 160,Water,1
 Node,160,NODE 161,Water,1
 Node,161,NODE 162,Water,1
 Node,162,NODE 163,Water,1
 Node,163,NODE 164,Water,1
 Node,164,NODE 165,Water,1
 Node,165,NODE 154,Water,4
 Node,166,NODE 156,Water,2
 Node,167,CHILLED WATER LOOP DEMAND INLET PIPE NODE,Water,1
 Node,168,NODE 158,Water,2
 Node,169,NODE 187,Water,1
 Node,170,NODE 207,Water,2
 Node,171,NODE 208,Water,1
 Node,172,NODE 228,Water,2
 Node,173,NODE 229,Water,1
 Node,174,NODE 249,Water,2
 Node,175,NODE 250,Water,1
 Node,176,NODE 284,Water,2
 Node,177,NODE 285,Water,1
 Node,178,NODE 333,Water,2
 Node,179,NODE 334,Water,1
 Node,180,NODE 375,Water,2
 Node,181,NODE 376,Water,1
 Node,182,CHILLED WATER LOOP DEMAND BYPASS PIPE INLET NODE,Water,1
 Node,183,CHILLED WATER LOOP DEMAND BYPASS PIPE OUTLET NODE,Water,1
 Node,184,CHILLED WATER LOOP DEMAND OUTLET PIPE NODE,Water,1
 Node,185,NODE 157,Water,2
 Node,186,NODE 442,Water,2
 Node,187,NODE 448,Water,1
 Node,188,NODE 444,Water,1
 Node,189,NODE 449,Water,1
 Node,190,NODE 450,Water,1
 Node,191,NODE 451,Water,1
 Node,192,NODE 452,Water,1
 Node,193,NODE 453,Water,1
 Node,194,NODE 454,Water,1
 Node,195,NODE 443,Water,4
 Node,196,NODE 445,Water,2
 Node,197,CHILLED WATER LOOP 1 DEMAND INLET PIPE NODE,Water,1
 Node,198,NODE 447,Water,1
 Node,199,NODE 481,Water,1
 Node,200,CHILLED WATER LOOP 1 DEMAND BYPASS PIPE INLET NODE,Water,1
 Node,201,CHILLED WATER LOOP 1 DEMAND BYPASS PIPE OUTLET NODE,Water,1
 Node,202,CHILLED WATER LOOP 1 DEMAND OUTLET PIPE NODE,Water,1
 Node,203,NODE 446,Water,2
 Node,204,NODE 485,Water,2
 Node,205,NODE 491,Water,1
 Node,206,NODE 487,Water,1
 Node,207,NODE 492,Water,1
 Node,208,NODE 493,Water,1
 Node,209,NODE 494,Water,1
 Node,210,NODE 495,Water,1
 Node,211,NODE 496,Water,1
 Node,212,NODE 497,Water,1
 Node,213,NODE 486,Water,4
 Node,214,NODE 488,Water,2
 Node,215,CHILLED WATER LOOP 2 DEMAND INLET PIPE NODE,Water,1
 Node,216,NODE 490,Water,1
 Node,217,NODE 524,Water,1
 Node,218,CHILLED WATER LOOP 2 DEMAND BYPASS PIPE INLET NODE,Water,1
 Node,219,CHILLED WATER LOOP 2 DEMAND BYPASS PIPE OUTLET NODE,Water,1
 Node,220,CHILLED WATER LOOP 2 DEMAND OUTLET PIPE NODE,Water,1
 Node,221,NODE 489,Water,2
 Node,222,NODE 528,Water,2
 Node,223,NODE 534,Water,1
 Node,224,NODE 530,Water,1
 Node,225,NODE 535,Water,1
 Node,226,NODE 536,Water,1
 Node,227,NODE 537,Water,1
 Node,228,NODE 538,Water,1
 Node,229,NODE 539,Water,1
 Node,230,NODE 540,Water,1
 Node,231,NODE 529,Water,4
 Node,232,NODE 531,Water,2
 Node,233,CHILLED WATER LOOP 3 DEMAND INLET PIPE NODE,Water,1
 Node,234,NODE 533,Water,1
 Node,235,NODE 567,Water,1
 Node,236,CHILLED WATER LOOP 3 DEMAND BYPASS PIPE INLET NODE,Water,1
 Node,237,CHILLED WATER LOOP 3 DEMAND BYPASS PIPE OUTLET NODE,Water,1
 Node,238,CHILLED WATER LOOP 3 DEMAND OUTLET PIPE NODE,Water,1
 Node,239,NODE 532,Water,2
 Node,240,NODE 166,Water,2
 Node,241,NODE 172,Water,1
 Node,242,NODE 168,Water,1
 Node,243,NODE 173,Water,1
 Node,244,NODE 174,Water,1
 Node,245,NODE 175,Water,1
 Node,246,NODE 176,Water,1
 Node,247,NODE 167,Water,4
 Node,248,NODE 169,Water,2
 Node,249,CONDENSER WATER LOOP DEMAND INLET PIPE NODE,Water,1
 Node,250,NODE 171,Water,1
 Node,251,NODE 177,Water,1
 Node,252,NODE 178,Water,1
 Node,253,NODE 179,Water,1
 Node,254,CONDENSER WATER LOOP DEMAND BYPASS PIPE INLET NODE,Water,1
 Node,255,CONDENSER WATER LOOP DEMAND BYPASS PIPE OUTLET NODE,Water,1
 Node,256,CONDENSER WATER LOOP DEMAND OUTLET PIPE NODE,Water,1
 Node,257,NODE 170,Water,2
 Node,258,NODE 455,Water,2
 Node,259,NODE 461,Water,1
 Node,260,NODE 457,Water,1
 Node,261,NODE 462,Water,1
 Node,262,NODE 463,Water,1
 Node,263,NODE 464,Water,1
 Node,264,NODE 465,Water,1
 Node,265,NODE 456,Water,4
 Node,266,NODE 458,Water,2
 Node,267,CONDENSER WATER LOOP 1 DEMAND INLET PIPE NODE,Water,1
 Node,268,NODE 460,Water,1
 Node,269,NODE 466,Water,1
 Node,270,NODE 467,Water,1
 Node,271,NODE 468,Water,1
 Node,272,CONDENSER WATER LOOP 1 DEMAND BYPASS PIPE INLET NODE,Water,1
 Node,273,CONDENSER WATER LOOP 1 DEMAND BYPASS PIPE OUTLET NODE,Water,1
 Node,274,CONDENSER WATER LOOP 1 DEMAND OUTLET PIPE NODE,Water,1
 Node,275,NODE 459,Water,2
 Node,276,NODE 498,Water,2
 Node,277,NODE 504,Water,1
 Node,278,NODE 500,Water,1
 Node,279,NODE 505,Water,1
 Node,280,NODE 506,Water,1
 Node,281,NODE 507,Water,1
 Node,282,NODE 508,Water,1
 Node,283,NODE 499,Water,4
 Node,284,NODE 501,Water,2
 Node,285,CONDENSER WATER LOOP 2 DEMAND INLET PIPE NODE,Water,1
 Node,286,NODE 503,Water,1
 Node,287,NODE 509,Water,1
 Node,288,NODE 510,Water,1
 Node,289,NODE 511,Water,1
 Node,290,CONDENSER WATER LOOP 2 DEMAND BYPASS PIPE INLET NODE,Water,1
 Node,291,CONDENSER WATER LOOP 2 DEMAND BYPASS PIPE OUTLET NODE,Water,1
 Node,292,CONDENSER WATER LOOP 2 DEMAND OUTLET PIPE NODE,Water,1
 Node,293,NODE 502,Water,2
 Node,294,NODE 541,Water,2
 Node,295,NODE 547,Water,1
 Node,296,NODE 543,Water,1
 Node,297,NODE 548,Water,1
 Node,298,NODE 549,Water,1
 Node,299,NODE 550,Water,1
 Node,300,NODE 551,Water,1
 Node,301,NODE 542,Water,4
 Node,302,NODE 544,Water,2
 Node,303,CONDENSER WATER LOOP 3 DEMAND INLET PIPE NODE,Water,1
 Node,304,NODE 546,Water,1
 Node,305,NODE 552,Water,1
 Node,306,NODE 553,Water,1
 Node,307,NODE 554,Water,1
 Node,308,CONDENSER WATER LOOP 3 DEMAND BYPASS PIPE INLET NODE,Water,1
 Node,309,CONDENSER WATER LOOP 3 DEMAND BYPASS PIPE OUTLET NODE,Water,1
 Node,310,CONDENSER WATER LOOP 3 DEMAND OUTLET PIPE NODE,Water,1
 Node,311,NODE 545,Water,2
 Node,312,NODE 2,Water,2
 Node,313,NODE 11,Water,1
 Node,314,NODE 5,Water,1
 Node,315,NODE 12,Water,1
 Node,316,NODE 14,Water,1
 Node,317,NODE 15,Water,1
 Node,318,NODE 17,Water,1
 Node,319,NODE 18,Water,1
 Node,320,NODE 20,Water,1
 Node,321,NODE 3,Water,4
 Node,322,NODE 6,Water,2
 Node,323,HOT WATER LOOP DEMAND INLET PIPE NODE,Water,1
 Node,324,NODE 9,Water,1
 Node,325,NODE 38,Water,1
 Node,326,NODE 42,Water,1
 Node,327,NODE 44,Water,1
 Node,328,NODE 62,Water,1
 Node,329,NODE 63,Water,1
 Node,330,NODE 68,Water,1
 Node,331,NODE 69,Water,1
 Node,332,NODE 74,Water,1
 Node,333,NODE 75,Water,1
 Node,334,NODE 80,Water,1
 Node,335,NODE 81,Water,1
 Node,336,NODE 99,Water,1
 Node,337,NODE 101,Water,1
 Node,338,NODE 105,Water,1
 Node,339,NODE 107,Water,1
 Node,340,NODE 111,Water,1
 Node,341,NODE 113,Water,1
 Node,342,NODE 117,Water,1
 Node,343,NODE 119,Water,1
 Node,344,NODE 122,Water,1
 Node,345,NODE 123,Water,1
 Node,346,NODE 126,Water,1
 Node,347,NODE 127,Water,1
 Node,348,NODE 130,Water,1
 Node,349,NODE 131,Water,1
 Node,350,NODE 134,Water,1
 Node,351,NODE 135,Water,1
 Node,352,NODE 138,Water,1
 Node,353,NODE 139,Water,1
 Node,354,NODE 151,Water,1
 Node,355,NODE 152,Water,1
 Node,356,NODE 185,Water,2
 Node,357,NODE 186,Water,1
 Node,358,NODE 194,Water,1
 Node,359,NODE 195,Water,1
 Node,360,NODE 198,Water,1
 Node,361,NODE 199,Water,1
 Node,362,NODE 205,Water,2
 Node,363,NODE 206,Water,1
 Node,364,NODE 215,Water,1
 Node,365,NODE 216,Water,1
 Node,366,NODE 219,Water,1
 Node,367,NODE 220,Water,1
 Node,368,NODE 226,Water,2
 Node,369,NODE 227,Water,1
 Node,370,NODE 236,Water,1
 Node,371,NODE 237,Water,1
 Node,372,NODE 240,Water,1
 Node,373,NODE 241,Water,1
 Node,374,NODE 247,Water,2
 Node,375,NODE 248,Water,1
 Node,376,NODE 257,Water,1
 Node,377,NODE 258,Water,1
 Node,378,NODE 261,Water,1
 Node,379,NODE 262,Water,1
 Node,380,NODE 263,Water,1
 Node,381,NODE 264,Water,1
 Node,382,NODE 268,Water,1
 Node,383,NODE 269,Water,1
 Node,384,NODE 270,Water,1
 Node,385,NODE 271,Water,1
 Node,386,NODE 275,Water,1
 Node,387,NODE 276,Water,1
 Node,388,NODE 282,Water,2
 Node,389,NODE 283,Water,1
 Node,390,NODE 292,Water,1
 Node,391,NODE 293,Water,1
 Node,392,NODE 296,Water,1
 Node,393,NODE 297,Water,1
 Node,394,NODE 298,Water,1
 Node,395,NODE 299,Water,1
 Node,396,NODE 303,Water,1
 Node,397,NODE 304,Water,1
 Node,398,NODE 305,Water,1
 Node,399,NODE 306,Water,1
 Node,400,NODE 310,Water,1
 Node,401,NODE 311,Water,1
 Node,402,NODE 312,Water,1
 Node,403,NODE 313,Water,1
 Node,404,NODE 317,Water,1
 Node,405,NODE 318,Water,1
 Node,406,NODE 319,Water,1
 Node,407,NODE 320,Water,1
 Node,408,NODE 324,Water,1
 Node,409,NODE 325,Water,1
 Node,410,NODE 331,Water,2
 Node,411,NODE 332,Water,1
 Node,412,NODE 341,Water,1
 Node,413,NODE 342,Water,1
 Node,414,NODE 345,Water,1
 Node,415,NODE 346,Water,1
 Node,416,NODE 347,Water,1
 Node,417,NODE 348,Water,1
 Node,418,NODE 352,Water,1
 Node,419,NODE 353,Water,1
 Node,420,NODE 354,Water,1
 Node,421,NODE 355,Water,1
 Node,422,NODE 359,Water,1
 Node,423,NODE 360,Water,1
 Node,424,NODE 361,Water,1
 Node,425,NODE 362,Water,1
 Node,426,NODE 366,Water,1
 Node,427,NODE 367,Water,1
 Node,428,NODE 373,Water,2
 Node,429,NODE 374,Water,1
 Node,430,NODE 383,Water,1
 Node,431,NODE 384,Water,1
 Node,432,NODE 387,Water,1
 Node,433,NODE 388,Water,1
 Node,434,NODE 389,Water,1
 Node,435,NODE 390,Water,1
 Node,436,NODE 394,Water,1
 Node,437,NODE 395,Water,1
 Node,438,NODE 396,Water,1
 Node,439,NODE 397,Water,1
 Node,440,NODE 401,Water,1
 Node,441,NODE 402,Water,1
 Node,442,NODE 414,Water,1
 Node,443,NODE 415,Water,1
 Node,444,NODE 427,Water,1
 Node,445,NODE 428,Water,1
 Node,446,NODE 440,Water,1
 Node,447,NODE 441,Water,1
 Node,448,NODE 479,Water,1
 Node,449,NODE 480,Water,1
 Node,450,NODE 522,Water,1
 Node,451,NODE 523,Water,1
 Node,452,NODE 565,Water,1
 Node,453,NODE 566,Water,1
 Node,454,HOT WATER LOOP DEMAND BYPASS PIPE INLET NODE,Water,1
 Node,455,HOT WATER LOOP DEMAND BYPASS PIPE OUTLET NODE,Water,1
 Node,456,HOT WATER LOOP DEMAND OUTLET PIPE NODE,Water,1
 Node,457,NODE 8,Water,2
 Node,458,NODE 571,Water,2
 Node,459,NODE 577,Water,1
 Node,460,NODE 573,Water,1
 Node,461,NODE 578,Water,1
 Node,462,NODE 579,Water,1
 Node,463,NODE 580,Water,1
 Node,464,NODE 582,Water,1
 Node,465,NODE 572,Water,4
 Node,466,NODE 574,Water,2
 Node,467,NODE 583,Water,1
 Node,468,NODE 576,Water,1
 Node,469,NODE 581,Water,1
 Node,470,NODE 585,Water,1
 Node,471,NODE 586,Water,1
 Node,472,NODE 587,Water,1
 Node,473,NODE 588,Water,1
 Node,474,NODE 589,Water,1
 Node,475,NODE 590,Water,1
 Node,476,NODE 591,Water,1
 Node,477,NODE 592,Water,1
 Node,478,NODE 593,Water,1
 Node,479,NODE 594,Water,1
 Node,480,NODE 595,Water,1
 Node,481,NODE 596,Water,1
 Node,482,NODE 597,Water,1
 Node,483,NODE 598,Water,1
 Node,484,NODE 599,Water,1
 Node,485,NODE 600,Water,1
 Node,486,NODE 601,Water,1
 Node,487,NODE 602,Water,1
 Node,488,NODE 603,Water,1
 Node,489,NODE 604,Water,1
 Node,490,NODE 605,Water,1
 Node,491,NODE 606,Water,1
 Node,492,NODE 607,Water,1
 Node,493,NODE 608,Water,1
 Node,494,NODE 609,Water,1
 Node,495,NODE 610,Water,1
 Node,496,NODE 611,Water,1
 Node,497,NODE 612,Water,1
 Node,498,NODE 613,Water,1
 Node,499,NODE 614,Water,1
 Node,500,NODE 615,Water,1
 Node,501,NODE 616,Water,1
 Node,502,NODE 617,Water,1
 Node,503,NODE 618,Water,1
 Node,504,NODE 619,Water,1
 Node,505,NODE 620,Water,1
 Node,506,NODE 621,Water,1
 Node,507,NODE 622,Water,1
 Node,508,NODE 623,Water,1
 Node,509,NODE 624,Water,1
 Node,510,NODE 625,Water,1
 Node,511,NODE 626,Water,1
 Node,512,NODE 627,Water,1
 Node,513,NODE 628,Water,1
 Node,514,NODE 629,Water,1
 Node,515,NODE 630,Water,1
 Node,516,NODE 631,Water,1
 Node,517,NODE 632,Water,1
 Node,518,NODE 633,Water,1
 Node,519,NODE 634,Water,1
 Node,520,NODE 635,Water,1
 Node,521,NODE 636,Water,1
 Node,522,NODE 637,Water,1
 Node,523,NODE 638,Water,1
 Node,524,NODE 639,Water,1
 Node,525,NODE 640,Water,1
 Node,526,NODE 641,Water,1
 Node,527,NODE 642,Water,1
 Node,528,MAIN SERVICE WATER LOOP DEMAND BYPASS PIPE INLET NODE,Water,1
 Node,529,MAIN SERVICE WATER LOOP DEMAND BYPASS PIPE OUTLET NODE,Water,1
 Node,530,NODE 584,Water,1
 Node,531,NODE 575,Water,2
 Node,532,NODE 7,Air,1
 Node,533,NODE 150,Air,1
 Node,534,NODE 10,Air,0
 Node,535,NODE 385,Air,1
 Node,536,NODE 13,Air,0
 Node,537,NODE 392,Air,1
 Node,538,NODE 16,Air,0
 Node,539,NODE 343,Air,1
 Node,540,NODE 19,Air,0
 Node,541,NODE 350,Air,1
 Node,542,NODE 22,Air,0
 Node,543,NODE 357,Air,1
 Node,544,NODE 25,Air,0
 Node,545,NODE 294,Air,1
 Node,546,NODE 28,Air,0
 Node,547,NODE 364,Air,1
 Node,548,NODE 31,Air,0
 Node,549,NODE 301,Air,1
 Node,550,NODE 34,Air,0
 Node,551,NODE 399,Air,1
 Node,552,NODE 37,Air,0
 Node,553,NODE 308,Air,1
 Node,554,NODE 40,Air,0
 Node,555,NODE 259,Air,1
 Node,556,NODE 43,Air,0
 Node,557,NODE 266,Air,1
 Node,558,NODE 46,Air,0
 Node,559,NODE 196,Air,1
 Node,560,NODE 49,Air,0
 Node,561,NODE 315,Air,1
 Node,562,NODE 55,Air,0
 Node,563,NODE 66,Air,1
 Node,564,NODE 61,Air,0
 Node,565,NODE 78,Air,1
 Node,566,NODE 58,Air,0
 Node,567,NODE 72,Air,1
 Node,568,NODE 52,Air,1
 Node,569,NODE 60,Air,1
 Node,570,NODE 64,Air,0
 Node,571,NODE 238,Air,1
 Node,572,NODE 67,Air,0
 Node,573,NODE 322,Air,1
 Node,574,NODE 70,Air,0
 Node,575,NODE 273,Air,1
 Node,576,NODE 73,Air,0
 Node,577,NODE 217,Air,1
 Node,578,NODE 79,Air,1
 Node,579,NODE 484,Air,1
 Node,580,NODE 76,Air,1
 Node,581,NODE 413,Air,1
 Node,582,NODE 85,Air,1
 Node,583,NODE 527,Air,1
 Node,584,NODE 91,Air,1
 Node,585,NODE 570,Air,1
 Node,586,NODE 88,Air,1
 Node,587,NODE 439,Air,1
 Node,588,NODE 82,Air,1
 Node,589,NODE 426,Air,1
 Node,590,NODE 1,Air,1
 Node,591,NODE 36,Air,1
 Node,592,NODE 4,Air,0
 Node,593,NODE 41,Air,1
 Node,594,NODE 94,Air,1
 Node,595,NODE 98,Air,1
 Node,596,NODE 97,Air,0
 Node,597,NODE 104,Air,1
 Node,598,NODE 100,Air,0
 Node,599,NODE 110,Air,1
 Node,600,NODE 103,Air,0
 Node,601,NODE 116,Air,1
 Node,602,NODE 106,Air,0
 Node,603,NODE 121,Air,1
 Node,604,NODE 109,Air,0
 Node,605,NODE 125,Air,1
 Node,606,NODE 112,Air,0
 Node,607,NODE 129,Air,1
 Node,608,NODE 115,Air,0
 Node,609,NODE 133,Air,1
 Node,610,NODE 118,Air,0
 Node,611,NODE 137,Air,1
 Node,612,NODE 472,Air,2
 Node,613,NODE 515,Air,2
 Node,614,NODE 558,Air,2
 Node,615,NODE 143,Air,2
 Node,616,NODE 50,Air,2
 Node,617,NODE 406,Air,2
 Node,618,NODE 432,Air,2
 Node,619,NODE 419,Air,2
 Node,620,NODE 26,Air,2
 Node,621,NODE 87,Air,2
 Node,622,NODE 183,Air,2
 Node,623,NODE 203,Air,2
 Node,624,NODE 224,Air,2
 Node,625,NODE 245,Air,2
 Node,626,NODE 280,Air,2
 Node,627,NODE 329,Air,2
 Node,628,NODE 371,Air,2
 Node,629,ZONE HVAC FOUR PIPE FAN COIL 1 OA NODE,Air,1
 Node,630,ZONE HVAC FOUR PIPE FAN COIL 2 OA NODE,Air,1
 Node,631,ZONE HVAC FOUR PIPE FAN COIL 3 OA NODE,Air,1
 Node,632,NODE 474,Air,2
 Node,633,NODE 517,Air,2
 Node,634,NODE 560,Air,2
 Node,635,NODE 145,Air,3
 Node,636,NODE 53,Air,3
 Node,637,NODE 408,Air,2
 Node,638,NODE 434,Air,2
 Node,639,NODE 421,Air,2
 Node,640,NODE 29,Air,2
 Node,641,NODE 90,Air,3
 Node,642,NODE 188,Air,3
 Node,643,NODE 209,Air,3
 Node,644,NODE 230,Air,2
 Node,645,NODE 251,Air,3
 Node,646,NODE 286,Air,3
 Node,647,NODE 335,Air,3
 Node,648,NODE 377,Air,3
 Node,649,MODEL OUTDOOR AIR NODE,Air,0
 Node,650,NODE 644,Air,2
 Node,651,NODE 646,Air,2
 Node,652,NODE 648,Air,2
 Node,653,NODE 650,Air,2
 Node,654,NODE 652,Air,2
 Node,655,NODE 654,Air,2
 Node,656,NODE 656,Air,2
 Node,657,NODE 658,Air,2
 Node,658,NODE 660,Air,2
 Node,659,NODE 197,Air,1
 Node,660,NODE 218,Air,1
 Node,661,NODE 239,Air,1
 Node,662,NODE 260,Air,1
 Node,663,NODE 267,Air,1
 Node,664,NODE 274,Air,1
 Node,665,NODE 295,Air,1
 Node,666,NODE 302,Air,1
 Node,667,NODE 309,Air,1
 Node,668,NODE 316,Air,1
 Node,669,NODE 323,Air,1
 Node,670,NODE 344,Air,1
 Node,671,NODE 351,Air,1
 Node,672,NODE 358,Air,1
 Node,673,NODE 365,Air,1
 Node,674,NODE 386,Air,1
 Node,675,NODE 393,Air,1
 Node,676,NODE 400,Air,1
 Node,677,AIR TERMINAL SINGLE DUCT VAV REHEAT 16 DAMPER OUTLET,Air,1
 Node,678,AIR TERMINAL SINGLE DUCT VAV REHEAT 17 DAMPER OUTLET,Air,1
 Node,679,AIR TERMINAL SINGLE DUCT VAV REHEAT 12 DAMPER OUTLET,Air,1
 Node,680,AIR TERMINAL SINGLE DUCT VAV REHEAT 13 DAMPER OUTLET,Air,1
 Node,681,AIR TERMINAL SINGLE DUCT VAV REHEAT 14 DAMPER OUTLET,Air,1
 Node,682,AIR TERMINAL SINGLE DUCT VAV REHEAT 7 DAMPER OUTLET,Air,1
 Node,683,AIR TERMINAL SINGLE DUCT VAV REHEAT 15 DAMPER OUTLET,Air,1
 Node,684,AIR TERMINAL SINGLE DUCT VAV REHEAT 8 DAMPER OUTLET,Air,1
 Node,685,AIR TERMINAL SINGLE DUCT VAV REHEAT 18 DAMPER OUTLET,Air,1
 Node,686,AIR TERMINAL SINGLE DUCT VAV REHEAT 9 DAMPER OUTLET,Air,1
 Node,687,AIR TERMINAL SINGLE DUCT VAV REHEAT 4 DAMPER OUTLET,Air,1
 Node,688,AIR TERMINAL SINGLE DUCT VAV REHEAT 5 DAMPER OUTLET,Air,1
 Node,689,AIR TERMINAL SINGLE DUCT VAV REHEAT 1 DAMPER OUTLET,Air,1
 Node,690,AIR TERMINAL SINGLE DUCT VAV REHEAT 10 DAMPER OUTLET,Air,1
 Node,691,AIR TERMINAL SINGLE DUCT VAV REHEAT 3 DAMPER OUTLET,Air,1
 Node,692,AIR TERMINAL SINGLE DUCT VAV REHEAT 11 DAMPER OUTLET,Air,1
 Node,693,AIR TERMINAL SINGLE DUCT VAV REHEAT 6 DAMPER OUTLET,Air,1
 Node,694,AIR TERMINAL SINGLE DUCT VAV REHEAT 2 DAMPER OUTLET,Air,1
 Node,695,ZONE HVAC FOUR PIPE FAN COIL 1 COOLING COIL OUTLET NODE,Air,1
 Node,696,ZONE HVAC FOUR PIPE FAN COIL 2 COOLING COIL OUTLET NODE,Air,1
 Node,697,ZONE HVAC FOUR PIPE FAN COIL 3 COOLING COIL OUTLET NODE,Air,1
 Node,698,ZONE HVAC FOUR PIPE FAN COIL 1 FAN OUTLET NODE,Air,1
 Node,699,ZONE HVAC FOUR PIPE FAN COIL 2 FAN OUTLET NODE,Air,1
 Node,700,ZONE HVAC FOUR PIPE FAN COIL 3 FAN OUTLET NODE,Air,1
 Node,701,ZONE HVAC FOUR PIPE FAN COIL 1 MIXED AIR NODE,Air,1
 Node,702,ZONE HVAC FOUR PIPE FAN COIL 1 RELIEF AIR NODE,Air,0
 Node,703,ZONE HVAC FOUR PIPE FAN COIL 2 MIXED AIR NODE,Air,1
 Node,704,ZONE HVAC FOUR PIPE FAN COIL 2 RELIEF AIR NODE,Air,0
 Node,705,ZONE HVAC FOUR PIPE FAN COIL 3 MIXED AIR NODE,Air,1
 Node,706,ZONE HVAC FOUR PIPE FAN COIL 3 RELIEF AIR NODE,Air,0
 Node,707,NODE 475,Air,1
 Node,708,NODE 518,Air,1
 Node,709,NODE 561,Air,1
 Node,710,NODE 645,Air,2
 Node,711,NODE 647,Air,2
 Node,712,NODE 409,Air,1
 Node,713,NODE 435,Air,1
 Node,714,NODE 422,Air,1
 Node,715,NODE 30,Air,1
 Node,716,NODE 649,Air,2
 Node,717,NODE 651,Air,2
 Node,718,NODE 653,Air,2
 Node,719,NODE 231,Air,1
 Node,720,NODE 655,Air,2
 Node,721,NODE 657,Air,2
 Node,722,NODE 659,Air,2
 Node,723,NODE 661,Air,2
 Node,724,NODE 146,Air,0
 Node,725,NODE 54,Air,0
 Node,726,NODE 92,Air,0
 Node,727,NODE 189,Air,0
 Node,728,NODE 210,Air,0
 Node,729,NODE 252,Air,0
 Node,730,NODE 287,Air,0
 Node,731,NODE 336,Air,0
 Node,732,NODE 378,Air,0
! ===============================================================
! Suspicious nodes have 0 references.  It is normal for some nodes, however.
! Listing nodes with 0 references (culled from previous list):
! <Suspicious Node>,<NodeNumber>,<Node Name>,<Node Fluid Type>,<# Times Node Referenced After Definition>
 Suspicious Node,534,NODE 10,Air,0
 Suspicious Node,536,NODE 13,Air,0
 Suspicious Node,538,NODE 16,Air,0
 Suspicious Node,540,NODE 19,Air,0
 Suspicious Node,542,NODE 22,Air,0
 Suspicious Node,544,NODE 25,Air,0
 Suspicious Node,546,NODE 28,Air,0
 Suspicious Node,548,NODE 31,Air,0
 Suspicious Node,550,NODE 34,Air,0
 Suspicious Node,552,NODE 37,Air,0
 Suspicious Node,554,NODE 40,Air,0
 Suspicious Node,556,NODE 43,Air,0
 Suspicious Node,558,NODE 46,Air,0
 Suspicious Node,560,NODE 49,Air,0
 Suspicious Node,562,NODE 55,Air,0
 Suspicious Node,564,NODE 61,Air,0
 Suspicious Node,566,NODE 58,Air,0
 Suspicious Node,570,NODE 64,Air,0
 Suspicious Node,572,NODE 67,Air,0
 Suspicious Node,574,NODE 70,Air,0
 Suspicious Node,576,NODE 73,Air,0
 Suspicious Node,592,NODE 4,Air,0
 Suspicious Node,596,NODE 97,Air,0
 Suspicious Node,598,NODE 100,Air,0
 Suspicious Node,600,NODE 103,Air,0
 Suspicious Node,602,NODE 106,Air,0
 Suspicious Node,604,NODE 109,Air,0
 Suspicious Node,606,NODE 112,Air,0
 Suspicious Node,608,NODE 115,Air,0
 Suspicious Node,610,NODE 118,Air,0
 Suspicious Node,649,MODEL OUTDOOR AIR NODE,Air,0
 Suspicious Node,702,ZONE HVAC FOUR PIPE FAN COIL 1 RELIEF AIR NODE,Air,0
 Suspicious Node,704,ZONE HVAC FOUR PIPE FAN COIL 2 RELIEF AIR NODE,Air,0
 Suspicious Node,706,ZONE HVAC FOUR PIPE FAN COIL 3 RELIEF AIR NODE,Air,0
 Suspicious Node,724,NODE 146,Air,0
 Suspicious Node,725,NODE 54,Air,0
 Suspicious Node,726,NODE 92,Air,0
 Suspicious Node,727,NODE 189,Air,0
 Suspicious Node,728,NODE 210,Air,0
 Suspicious Node,729,NODE 252,Air,0
 Suspicious Node,730,NODE 287,Air,0
 Suspicious Node,731,NODE 336,Air,0
 Suspicious Node,732,NODE 378,Air,0
! ===============================================================
! <#Branch Lists>,<Number of Branch Lists>
 #Branch Lists,37
! <Branch List>,<Branch List Count>,<Branch List Name>,<Loop Name>,<Loop Type>,<Number of Branches>
! <Branch>,<Branch Count>,<Branch Name>,<Loop Name>,<Loop Type>,<Branch Inlet Node Name>,<Branch Outlet Node Name>
 Branch List,1,SYS_2_MAKE-UP AIR UNIT SUPPLY BRANCHES,SYS_2_MAKE-UP AIR UNIT,Air,1
   Branch,1,SYS_2_MAKE-UP AIR UNIT MAIN BRANCH,SYS_2_MAKE-UP AIR UNIT,Air,NODE 469,NODE 470
 Branch List,2,SYS_2_MAKE-UP AIR UNIT 1 SUPPLY BRANCHES,SYS_2_MAKE-UP AIR UNIT 1,Air,1
   Branch,1,SYS_2_MAKE-UP AIR UNIT 1 MAIN BRANCH,SYS_2_MAKE-UP AIR UNIT 1,Air,NODE 512,NODE 513
 Branch List,3,SYS_2_MAKE-UP AIR UNIT 2 SUPPLY BRANCHES,SYS_2_MAKE-UP AIR UNIT 2,Air,1
   Branch,1,SYS_2_MAKE-UP AIR UNIT 2 MAIN BRANCH,SYS_2_MAKE-UP AIR UNIT 2,Air,NODE 555,NODE 556
 Branch List,4,SYS_3_PSZ ALL_ST=PENITENTIARY - DINING_FL=STORY 8_SCH=B SUPPLY BRANCHES,SYS_3_PSZ ALL_ST=PENITENTIARY - DINING_FL=STORY 8_SCH=B,Air,1
   Branch,1,SYS_3_PSZ ALL_ST=PENITENTIARY - DINING_FL=STORY 8_SCH=B MAIN BRANCH,SYS_3_PSZ ALL_ST=PENITENTIARY - DINING_FL=STORY 8_SCH=B,Air,NODE 140,NODE 141
 Branch List,5,SYS_4_PSZ_ALL_ST=STORAGE AREA_FL=STORY 2_SCH=E SUPPLY BRANCHES,SYS_4_PSZ_ALL_ST=STORAGE AREA_FL=STORY 2_SCH=E,Air,1
   Branch,1,SYS_4_PSZ_ALL_ST=STORAGE AREA_FL=STORY 2_SCH=E MAIN BRANCH,SYS_4_PSZ_ALL_ST=STORAGE AREA_FL=STORY 2_SCH=E,Air,NODE 45,NODE 47
 Branch List,6,SYS_4_PSZ_ALL_ST=WAREHOUSE - FINE_FL=STORY 7_SCH=A SUPPLY BRANCHES,SYS_4_PSZ_ALL_ST=WAREHOUSE - FINE_FL=STORY 7_SCH=A,Air,1
   Branch,1,SYS_4_PSZ_ALL_ST=WAREHOUSE - FINE_FL=STORY 7_SCH=A MAIN BRANCH,SYS_4_PSZ_ALL_ST=WAREHOUSE - FINE_FL=STORY 7_SCH=A,Air,NODE 403,NODE 404
 Branch List,7,SYS_4_PSZ_ALL_ST=WAREHOUSE - MED/BLK2_FL=STORY 4_SCH=A SUPPLY BRANCHES,SYS_4_PSZ_ALL_ST=WAREHOUSE - MED/BLK2_FL=STORY 4_SCH=A,Air,1
   Branch,1,SYS_4_PSZ_ALL_ST=WAREHOUSE - MED/BLK2_FL=STORY 4_SCH=A MAIN BRANCH,SYS_4_PSZ_ALL_ST=WAREHOUSE - MED/BLK2_FL=STORY 4_SCH=A,Air,NODE 429,NODE 430
 Branch List,8,SYS_4_PSZ_ALL_ST=WAREHOUSE - MED/BLK_FL=STORY 2_SCH=A SUPPLY BRANCHES,SYS_4_PSZ_ALL_ST=WAREHOUSE - MED/BLK_FL=STORY 2_SCH=A,Air,1
   Branch,1,SYS_4_PSZ_ALL_ST=WAREHOUSE - MED/BLK_FL=STORY 2_SCH=A MAIN BRANCH,SYS_4_PSZ_ALL_ST=WAREHOUSE - MED/BLK_FL=STORY 2_SCH=A,Air,NODE 416,NODE 417
 Branch List,9,SYS_4_PSZ_WET_ST=WASHROOM-SCH-A_FL=STORY 1_SCHA SUPPLY BRANCHES,SYS_4_PSZ_WET_ST=WASHROOM-SCH-A_FL=STORY 1_SCHA,Air,1
   Branch,1,SYS_4_PSZ_WET_ST=WASHROOM-SCH-A_FL=STORY 1_SCHA MAIN BRANCH,SYS_4_PSZ_WET_ST=WASHROOM-SCH-A_FL=STORY 1_SCHA,Air,NODE 21,NODE 23
 Branch List,10,SYS_4_PSZ_WILD_ST=STAIRWAY-SCH-A_FL=STORY 4_SCH=A SUPPLY BRANCHES,SYS_4_PSZ_WILD_ST=STAIRWAY-SCH-A_FL=STORY 4_SCH=A,Air,1
   Branch,1,SYS_4_PSZ_WILD_ST=STAIRWAY-SCH-A_FL=STORY 4_SCH=A MAIN BRANCH,SYS_4_PSZ_WILD_ST=STAIRWAY-SCH-A_FL=STORY 4_SCH=A,Air,NODE 83,NODE 84
 Branch List,11,SYS_6_VAV WITH REHEAT SUPPLY BRANCHES,SYS_6_VAV WITH REHEAT,Air,1
   Branch,1,SYS_6_VAV WITH REHEAT MAIN BRANCH,SYS_6_VAV WITH REHEAT,Air,NODE 180,NODE 181
 Branch List,12,SYS_6_VAV WITH REHEAT 1 SUPPLY BRANCHES,SYS_6_VAV WITH REHEAT 1,Air,1
   Branch,1,SYS_6_VAV WITH REHEAT 1 MAIN BRANCH,SYS_6_VAV WITH REHEAT 1,Air,NODE 200,NODE 201
 Branch List,13,SYS_6_VAV WITH REHEAT 2 SUPPLY BRANCHES,SYS_6_VAV WITH REHEAT 2,Air,1
   Branch,1,SYS_6_VAV WITH REHEAT 2 MAIN BRANCH,SYS_6_VAV WITH REHEAT 2,Air,NODE 221,NODE 222
 Branch List,14,SYS_6_VAV WITH REHEAT 3 SUPPLY BRANCHES,SYS_6_VAV WITH REHEAT 3,Air,1
   Branch,1,SYS_6_VAV WITH REHEAT 3 MAIN BRANCH,SYS_6_VAV WITH REHEAT 3,Air,NODE 242,NODE 243
 Branch List,15,SYS_6_VAV WITH REHEAT 4 SUPPLY BRANCHES,SYS_6_VAV WITH REHEAT 4,Air,1
   Branch,1,SYS_6_VAV WITH REHEAT 4 MAIN BRANCH,SYS_6_VAV WITH REHEAT 4,Air,NODE 277,NODE 278
 Branch List,16,SYS_6_VAV WITH REHEAT 5 SUPPLY BRANCHES,SYS_6_VAV WITH REHEAT 5,Air,1
   Branch,1,SYS_6_VAV WITH REHEAT 5 MAIN BRANCH,SYS_6_VAV WITH REHEAT 5,Air,NODE 326,NODE 327
 Branch List,17,SYS_6_VAV WITH REHEAT 6 SUPPLY BRANCHES,SYS_6_VAV WITH REHEAT 6,Air,1
   Branch,1,SYS_6_VAV WITH REHEAT 6 MAIN BRANCH,SYS_6_VAV WITH REHEAT 6,Air,NODE 368,NODE 369
 Branch List,18,CHILLED WATER LOOP SUPPLY BRANCHES,CHILLED WATER LOOP,Plant Supply,5
   Branch,1,CHILLED WATER LOOP SUPPLY INLET BRANCH,CHILLED WATER LOOP,Plant Supply,NODE 153,NODE 159
   Branch,2,CHILLED WATER LOOP SUPPLY BRANCH 1,CHILLED WATER LOOP,Plant Supply,NODE 155,NODE 160
   Branch,3,CHILLED WATER LOOP SUPPLY BRANCH 2,CHILLED WATER LOOP,Plant Supply,NODE 161,NODE 162
   Branch,4,CHILLED WATER LOOP SUPPLY BRANCH 3,CHILLED WATER LOOP,Plant Supply,NODE 163,NODE 164
   Branch,5,CHILLED WATER LOOP SUPPLY OUTLET BRANCH,CHILLED WATER LOOP,Plant Supply,NODE 165,NODE 154
 Branch List,19,CHILLED WATER LOOP DEMAND BRANCHES,CHILLED WATER LOOP,Plant Demand,10
   Branch,1,CHILLED WATER LOOP DEMAND INLET BRANCH,CHILLED WATER LOOP,Plant Demand,NODE 156,CHILLED WATER LOOP DEMAND INLET PIPE NODE
   Branch,2,CHILLED WATER LOOP DEMAND BRANCH 1,CHILLED WATER LOOP,Plant Demand,NODE 158,NODE 187
   Branch,3,CHILLED WATER LOOP DEMAND BRANCH 2,CHILLED WATER LOOP,Plant Demand,NODE 207,NODE 208
   Branch,4,CHILLED WATER LOOP DEMAND BRANCH 3,CHILLED WATER LOOP,Plant Demand,NODE 228,NODE 229
   Branch,5,CHILLED WATER LOOP DEMAND BRANCH 4,CHILLED WATER LOOP,Plant Demand,NODE 249,NODE 250
   Branch,6,CHILLED WATER LOOP DEMAND BRANCH 5,CHILLED WATER LOOP,Plant Demand,NODE 284,NODE 285
   Branch,7,CHILLED WATER LOOP DEMAND BRANCH 6,CHILLED WATER LOOP,Plant Demand,NODE 333,NODE 334
   Branch,8,CHILLED WATER LOOP DEMAND BRANCH 7,CHILLED WATER LOOP,Plant Demand,NODE 375,NODE 376
   Branch,9,CHILLED WATER LOOP DEMAND BYPASS BRANCH,CHILLED WATER LOOP,Plant Demand,CHILLED WATER LOOP DEMAND BYPASS PIPE INLET NODE,CHILLED WATER LOOP DEMAND BYPASS PIPE OUTLET NODE
   Branch,10,CHILLED WATER LOOP DEMAND OUTLET BRANCH,CHILLED WATER LOOP,Plant Demand,CHILLED WATER LOOP DEMAND OUTLET PIPE NODE,NODE 157
 Branch List,20,CHILLED WATER LOOP 1 SUPPLY BRANCHES,CHILLED WATER LOOP 1,Plant Supply,5
   Branch,1,CHILLED WATER LOOP 1 SUPPLY INLET BRANCH,CHILLED WATER LOOP 1,Plant Supply,NODE 442,NODE 448
   Branch,2,CHILLED WATER LOOP 1 SUPPLY BRANCH 1,CHILLED WATER LOOP 1,Plant Supply,NODE 444,NODE 449
   Branch,3,CHILLED WATER LOOP 1 SUPPLY BRANCH 2,CHILLED WATER LOOP 1,Plant Supply,NODE 450,NODE 451
   Branch,4,CHILLED WATER LOOP 1 SUPPLY BRANCH 3,CHILLED WATER LOOP 1,Plant Supply,NODE 452,NODE 453
   Branch,5,CHILLED WATER LOOP 1 SUPPLY OUTLET BRANCH,CHILLED WATER LOOP 1,Plant Supply,NODE 454,NODE 443
 Branch List,21,CHILLED WATER LOOP 1 DEMAND BRANCHES,CHILLED WATER LOOP 1,Plant Demand,4
   Branch,1,CHILLED WATER LOOP 1 DEMAND INLET BRANCH,CHILLED WATER LOOP 1,Plant Demand,NODE 445,CHILLED WATER LOOP 1 DEMAND INLET PIPE NODE
   Branch,2,CHILLED WATER LOOP 1 DEMAND BRANCH 1,CHILLED WATER LOOP 1,Plant Demand,NODE 447,NODE 481
   Branch,3,CHILLED WATER LOOP 1 DEMAND BYPASS BRANCH,CHILLED WATER LOOP 1,Plant Demand,CHILLED WATER LOOP 1 DEMAND BYPASS PIPE INLET NODE,CHILLED WATER LOOP 1 DEMAND BYPASS PIPE OUTLET NODE
   Branch,4,CHILLED WATER LOOP 1 DEMAND OUTLET BRANCH,CHILLED WATER LOOP 1,Plant Demand,CHILLED WATER LOOP 1 DEMAND OUTLET PIPE NODE,NODE 446
 Branch List,22,CHILLED WATER LOOP 2 SUPPLY BRANCHES,CHILLED WATER LOOP 2,Plant Supply,5
   Branch,1,CHILLED WATER LOOP 2 SUPPLY INLET BRANCH,CHILLED WATER LOOP 2,Plant Supply,NODE 485,NODE 491
   Branch,2,CHILLED WATER LOOP 2 SUPPLY BRANCH 1,CHILLED WATER LOOP 2,Plant Supply,NODE 487,NODE 492
   Branch,3,CHILLED WATER LOOP 2 SUPPLY BRANCH 2,CHILLED WATER LOOP 2,Plant Supply,NODE 493,NODE 494
   Branch,4,CHILLED WATER LOOP 2 SUPPLY BRANCH 3,CHILLED WATER LOOP 2,Plant Supply,NODE 495,NODE 496
   Branch,5,CHILLED WATER LOOP 2 SUPPLY OUTLET BRANCH,CHILLED WATER LOOP 2,Plant Supply,NODE 497,NODE 486
 Branch List,23,CHILLED WATER LOOP 2 DEMAND BRANCHES,CHILLED WATER LOOP 2,Plant Demand,4
   Branch,1,CHILLED WATER LOOP 2 DEMAND INLET BRANCH,CHILLED WATER LOOP 2,Plant Demand,NODE 488,CHILLED WATER LOOP 2 DEMAND INLET PIPE NODE
   Branch,2,CHILLED WATER LOOP 2 DEMAND BRANCH 1,CHILLED WATER LOOP 2,Plant Demand,NODE 490,NODE 524
   Branch,3,CHILLED WATER LOOP 2 DEMAND BYPASS BRANCH,CHILLED WATER LOOP 2,Plant Demand,CHILLED WATER LOOP 2 DEMAND BYPASS PIPE INLET NODE,CHILLED WATER LOOP 2 DEMAND BYPASS PIPE OUTLET NODE
   Branch,4,CHILLED WATER LOOP 2 DEMAND OUTLET BRANCH,CHILLED WATER LOOP 2,Plant Demand,CHILLED WATER LOOP 2 DEMAND OUTLET PIPE NODE,NODE 489
 Branch List,24,CHILLED WATER LOOP 3 SUPPLY BRANCHES,CHILLED WATER LOOP 3,Plant Supply,5
   Branch,1,CHILLED WATER LOOP 3 SUPPLY INLET BRANCH,CHILLED WATER LOOP 3,Plant Supply,NODE 528,NODE 534
   Branch,2,CHILLED WATER LOOP 3 SUPPLY BRANCH 1,CHILLED WATER LOOP 3,Plant Supply,NODE 530,NODE 535
   Branch,3,CHILLED WATER LOOP 3 SUPPLY BRANCH 2,CHILLED WATER LOOP 3,Plant Supply,NODE 536,NODE 537
   Branch,4,CHILLED WATER LOOP 3 SUPPLY BRANCH 3,CHILLED WATER LOOP 3,Plant Supply,NODE 538,NODE 539
   Branch,5,CHILLED WATER LOOP 3 SUPPLY OUTLET BRANCH,CHILLED WATER LOOP 3,Plant Supply,NODE 540,NODE 529
 Branch List,25,CHILLED WATER LOOP 3 DEMAND BRANCHES,CHILLED WATER LOOP 3,Plant Demand,4
   Branch,1,CHILLED WATER LOOP 3 DEMAND INLET BRANCH,CHILLED WATER LOOP 3,Plant Demand,NODE 531,CHILLED WATER LOOP 3 DEMAND INLET PIPE NODE
   Branch,2,CHILLED WATER LOOP 3 DEMAND BRANCH 1,CHILLED WATER LOOP 3,Plant Demand,NODE 533,NODE 567
   Branch,3,CHILLED WATER LOOP 3 DEMAND BYPASS BRANCH,CHILLED WATER LOOP 3,Plant Demand,CHILLED WATER LOOP 3 DEMAND BYPASS PIPE INLET NODE,CHILLED WATER LOOP 3 DEMAND BYPASS PIPE OUTLET NODE
   Branch,4,CHILLED WATER LOOP 3 DEMAND OUTLET BRANCH,CHILLED WATER LOOP 3,Plant Demand,CHILLED WATER LOOP 3 DEMAND OUTLET PIPE NODE,NODE 532
 Branch List,26,CONDENSER WATER LOOP SUPPLY BRANCHES,CONDENSER WATER LOOP,Plant Supply,4
   Branch,1,CONDENSER WATER LOOP SUPPLY INLET BRANCH,CONDENSER WATER LOOP,Plant Supply,NODE 166,NODE 172
   Branch,2,CONDENSER WATER LOOP SUPPLY BRANCH 1,CONDENSER WATER LOOP,Plant Supply,NODE 168,NODE 173
   Branch,3,CONDENSER WATER LOOP SUPPLY BRANCH 2,CONDENSER WATER LOOP,Plant Supply,NODE 174,NODE 175
   Branch,4,CONDENSER WATER LOOP SUPPLY OUTLET BRANCH,CONDENSER WATER LOOP,Plant Supply,NODE 176,NODE 167
 Branch List,27,CONDENSER WATER LOOP DEMAND BRANCHES,CONDENSER WATER LOOP,Plant Demand,5
   Branch,1,CONDENSER WATER LOOP DEMAND INLET BRANCH,CONDENSER WATER LOOP,Plant Demand,NODE 169,CONDENSER WATER LOOP DEMAND INLET PIPE NODE
   Branch,2,CONDENSER WATER LOOP DEMAND BRANCH 1,CONDENSER WATER LOOP,Plant Demand,NODE 171,NODE 177
   Branch,3,CONDENSER WATER LOOP DEMAND BRANCH 2,CONDENSER WATER LOOP,Plant Demand,NODE 178,NODE 179
   Branch,4,CONDENSER WATER LOOP DEMAND BYPASS BRANCH,CONDENSER WATER LOOP,Plant Demand,CONDENSER WATER LOOP DEMAND BYPASS PIPE INLET NODE,CONDENSER WATER LOOP DEMAND BYPASS PIPE OUTLET NODE
   Branch,5,CONDENSER WATER LOOP DEMAND OUTLET BRANCH,CONDENSER WATER LOOP,Plant Demand,CONDENSER WATER LOOP DEMAND OUTLET PIPE NODE,NODE 170
 Branch List,28,CONDENSER WATER LOOP 1 SUPPLY BRANCHES,CONDENSER WATER LOOP 1,Plant Supply,4
   Branch,1,CONDENSER WATER LOOP 1 SUPPLY INLET BRANCH,CONDENSER WATER LOOP 1,Plant Supply,NODE 455,NODE 461
   Branch,2,CONDENSER WATER LOOP 1 SUPPLY BRANCH 1,CONDENSER WATER LOOP 1,Plant Supply,NODE 457,NODE 462
   Branch,3,CONDENSER WATER LOOP 1 SUPPLY BRANCH 2,CONDENSER WATER LOOP 1,Plant Supply,NODE 463,NODE 464
   Branch,4,CONDENSER WATER LOOP 1 SUPPLY OUTLET BRANCH,CONDENSER WATER LOOP 1,Plant Supply,NODE 465,NODE 456
 Branch List,29,CONDENSER WATER LOOP 1 DEMAND BRANCHES,CONDENSER WATER LOOP 1,Plant Demand,5
   Branch,1,CONDENSER WATER LOOP 1 DEMAND INLET BRANCH,CONDENSER WATER LOOP 1,Plant Demand,NODE 458,CONDENSER WATER LOOP 1 DEMAND INLET PIPE NODE
   Branch,2,CONDENSER WATER LOOP 1 DEMAND BRANCH 1,CONDENSER WATER LOOP 1,Plant Demand,NODE 460,NODE 466
   Branch,3,CONDENSER WATER LOOP 1 DEMAND BRANCH 2,CONDENSER WATER LOOP 1,Plant Demand,NODE 467,NODE 468
   Branch,4,CONDENSER WATER LOOP 1 DEMAND BYPASS BRANCH,CONDENSER WATER LOOP 1,Plant Demand,CONDENSER WATER LOOP 1 DEMAND BYPASS PIPE INLET NODE,CONDENSER WATER LOOP 1 DEMAND BYPASS PIPE OUTLET NODE
   Branch,5,CONDENSER WATER LOOP 1 DEMAND OUTLET BRANCH,CONDENSER WATER LOOP 1,Plant Demand,CONDENSER WATER LOOP 1 DEMAND OUTLET PIPE NODE,NODE 459
 Branch List,30,CONDENSER WATER LOOP 2 SUPPLY BRANCHES,CONDENSER WATER LOOP 2,Plant Supply,4
   Branch,1,CONDENSER WATER LOOP 2 SUPPLY INLET BRANCH,CONDENSER WATER LOOP 2,Plant Supply,NODE 498,NODE 504
   Branch,2,CONDENSER WATER LOOP 2 SUPPLY BRANCH 1,CONDENSER WATER LOOP 2,Plant Supply,NODE 500,NODE 505
   Branch,3,CONDENSER WATER LOOP 2 SUPPLY BRANCH 2,CONDENSER WATER LOOP 2,Plant Supply,NODE 506,NODE 507
   Branch,4,CONDENSER WATER LOOP 2 SUPPLY OUTLET BRANCH,CONDENSER WATER LOOP 2,Plant Supply,NODE 508,NODE 499
 Branch List,31,CONDENSER WATER LOOP 2 DEMAND BRANCHES,CONDENSER WATER LOOP 2,Plant Demand,5
   Branch,1,CONDENSER WATER LOOP 2 DEMAND INLET BRANCH,CONDENSER WATER LOOP 2,Plant Demand,NODE 501,CONDENSER WATER LOOP 2 DEMAND INLET PIPE NODE
   Branch,2,CONDENSER WATER LOOP 2 DEMAND BRANCH 1,CONDENSER WATER LOOP 2,Plant Demand,NODE 503,NODE 509
   Branch,3,CONDENSER WATER LOOP 2 DEMAND BRANCH 2,CONDENSER WATER LOOP 2,Plant Demand,NODE 510,NODE 511
   Branch,4,CONDENSER WATER LOOP 2 DEMAND BYPASS BRANCH,CONDENSER WATER LOOP 2,Plant Demand,CONDENSER WATER LOOP 2 DEMAND BYPASS PIPE INLET NODE,CONDENSER WATER LOOP 2 DEMAND BYPASS PIPE OUTLET NODE
   Branch,5,CONDENSER WATER LOOP 2 DEMAND OUTLET BRANCH,CONDENSER WATER LOOP 2,Plant Demand,CONDENSER WATER LOOP 2 DEMAND OUTLET PIPE NODE,NODE 502
 Branch List,32,CONDENSER WATER LOOP 3 SUPPLY BRANCHES,CONDENSER WATER LOOP 3,Plant Supply,4
   Branch,1,CONDENSER WATER LOOP 3 SUPPLY INLET BRANCH,CONDENSER WATER LOOP 3,Plant Supply,NODE 541,NODE 547
   Branch,2,CONDENSER WATER LOOP 3 SUPPLY BRANCH 1,CONDENSER WATER LOOP 3,Plant Supply,NODE 543,NODE 548
   Branch,3,CONDENSER WATER LOOP 3 SUPPLY BRANCH 2,CONDENSER WATER LOOP 3,Plant Supply,NODE 549,NODE 550
   Branch,4,CONDENSER WATER LOOP 3 SUPPLY OUTLET BRANCH,CONDENSER WATER LOOP 3,Plant Supply,NODE 551,NODE 542
 Branch List,33,CONDENSER WATER LOOP 3 DEMAND BRANCHES,CONDENSER WATER LOOP 3,Plant Demand,5
   Branch,1,CONDENSER WATER LOOP 3 DEMAND INLET BRANCH,CONDENSER WATER LOOP 3,Plant Demand,NODE 544,CONDENSER WATER LOOP 3 DEMAND INLET PIPE NODE
   Branch,2,CONDENSER WATER LOOP 3 DEMAND BRANCH 1,CONDENSER WATER LOOP 3,Plant Demand,NODE 546,NODE 552
   Branch,3,CONDENSER WATER LOOP 3 DEMAND BRANCH 2,CONDENSER WATER LOOP 3,Plant Demand,NODE 553,NODE 554
   Branch,4,CONDENSER WATER LOOP 3 DEMAND BYPASS BRANCH,CONDENSER WATER LOOP 3,Plant Demand,CONDENSER WATER LOOP 3 DEMAND BYPASS PIPE INLET NODE,CONDENSER WATER LOOP 3 DEMAND BYPASS PIPE OUTLET NODE
   Branch,5,CONDENSER WATER LOOP 3 DEMAND OUTLET BRANCH,CONDENSER WATER LOOP 3,Plant Demand,CONDENSER WATER LOOP 3 DEMAND OUTLET PIPE NODE,NODE 545
 Branch List,34,HOT WATER LOOP SUPPLY BRANCHES,HOT WATER LOOP,Plant Supply,5
   Branch,1,HOT WATER LOOP SUPPLY INLET BRANCH,HOT WATER LOOP,Plant Supply,NODE 2,NODE 11
   Branch,2,HOT WATER LOOP SUPPLY BRANCH 1,HOT WATER LOOP,Plant Supply,NODE 5,NODE 12
   Branch,3,HOT WATER LOOP SUPPLY BRANCH 2,HOT WATER LOOP,Plant Supply,NODE 14,NODE 15
   Branch,4,HOT WATER LOOP SUPPLY BRANCH 3,HOT WATER LOOP,Plant Supply,NODE 17,NODE 18
   Branch,5,HOT WATER LOOP SUPPLY OUTLET BRANCH,HOT WATER LOOP,Plant Supply,NODE 20,NODE 3
 Branch List,35,HOT WATER LOOP DEMAND BRANCHES,HOT WATER LOOP,Plant Demand,68
   Branch,1,HOT WATER LOOP DEMAND INLET BRANCH,HOT WATER LOOP,Plant Demand,NODE 6,HOT WATER LOOP DEMAND INLET PIPE NODE
   Branch,2,HOT WATER LOOP DEMAND BRANCH 1,HOT WATER LOOP,Plant Demand,NODE 9,NODE 38
   Branch,3,HOT WATER LOOP DEMAND BRANCH 2,HOT WATER LOOP,Plant Demand,NODE 42,NODE 44
   Branch,4,HOT WATER LOOP DEMAND BRANCH 3,HOT WATER LOOP,Plant Demand,NODE 62,NODE 63
   Branch,5,HOT WATER LOOP DEMAND BRANCH 4,HOT WATER LOOP,Plant Demand,NODE 68,NODE 69
   Branch,6,HOT WATER LOOP DEMAND BRANCH 5,HOT WATER LOOP,Plant Demand,NODE 74,NODE 75
   Branch,7,HOT WATER LOOP DEMAND BRANCH 6,HOT WATER LOOP,Plant Demand,NODE 80,NODE 81
   Branch,8,HOT WATER LOOP DEMAND BRANCH 7,HOT WATER LOOP,Plant Demand,NODE 99,NODE 101
   Branch,9,HOT WATER LOOP DEMAND BRANCH 8,HOT WATER LOOP,Plant Demand,NODE 105,NODE 107
   Branch,10,HOT WATER LOOP DEMAND BRANCH 9,HOT WATER LOOP,Plant Demand,NODE 111,NODE 113
   Branch,11,HOT WATER LOOP DEMAND BRANCH 10,HOT WATER LOOP,Plant Demand,NODE 117,NODE 119
   Branch,12,HOT WATER LOOP DEMAND BRANCH 11,HOT WATER LOOP,Plant Demand,NODE 122,NODE 123
   Branch,13,HOT WATER LOOP DEMAND BRANCH 12,HOT WATER LOOP,Plant Demand,NODE 126,NODE 127
   Branch,14,HOT WATER LOOP DEMAND BRANCH 13,HOT WATER LOOP,Plant Demand,NODE 130,NODE 131
   Branch,15,HOT WATER LOOP DEMAND BRANCH 14,HOT WATER LOOP,Plant Demand,NODE 134,NODE 135
   Branch,16,HOT WATER LOOP DEMAND BRANCH 15,HOT WATER LOOP,Plant Demand,NODE 138,NODE 139
   Branch,17,HOT WATER LOOP DEMAND BRANCH 16,HOT WATER LOOP,Plant Demand,NODE 151,NODE 152
   Branch,18,HOT WATER LOOP DEMAND BRANCH 17,HOT WATER LOOP,Plant Demand,NODE 185,NODE 186
   Branch,19,HOT WATER LOOP DEMAND BRANCH 18,HOT WATER LOOP,Plant Demand,NODE 194,NODE 195
   Branch,20,HOT WATER LOOP DEMAND BRANCH 19,HOT WATER LOOP,Plant Demand,NODE 198,NODE 199
   Branch,21,HOT WATER LOOP DEMAND BRANCH 20,HOT WATER LOOP,Plant Demand,NODE 205,NODE 206
   Branch,22,HOT WATER LOOP DEMAND BRANCH 21,HOT WATER LOOP,Plant Demand,NODE 215,NODE 216
   Branch,23,HOT WATER LOOP DEMAND BRANCH 22,HOT WATER LOOP,Plant Demand,NODE 219,NODE 220
   Branch,24,HOT WATER LOOP DEMAND BRANCH 23,HOT WATER LOOP,Plant Demand,NODE 226,NODE 227
   Branch,25,HOT WATER LOOP DEMAND BRANCH 24,HOT WATER LOOP,Plant Demand,NODE 236,NODE 237
   Branch,26,HOT WATER LOOP DEMAND BRANCH 25,HOT WATER LOOP,Plant Demand,NODE 240,NODE 241
   Branch,27,HOT WATER LOOP DEMAND BRANCH 26,HOT WATER LOOP,Plant Demand,NODE 247,NODE 248
   Branch,28,HOT WATER LOOP DEMAND BRANCH 27,HOT WATER LOOP,Plant Demand,NODE 257,NODE 258
   Branch,29,HOT WATER LOOP DEMAND BRANCH 28,HOT WATER LOOP,Plant Demand,NODE 261,NODE 262
   Branch,30,HOT WATER LOOP DEMAND BRANCH 29,HOT WATER LOOP,Plant Demand,NODE 263,NODE 264
   Branch,31,HOT WATER LOOP DEMAND BRANCH 30,HOT WATER LOOP,Plant Demand,NODE 268,NODE 269
   Branch,32,HOT WATER LOOP DEMAND BRANCH 31,HOT WATER LOOP,Plant Demand,NODE 270,NODE 271
   Branch,33,HOT WATER LOOP DEMAND BRANCH 32,HOT WATER LOOP,Plant Demand,NODE 275,NODE 276
   Branch,34,HOT WATER LOOP DEMAND BRANCH 33,HOT WATER LOOP,Plant Demand,NODE 282,NODE 283
   Branch,35,HOT WATER LOOP DEMAND BRANCH 34,HOT WATER LOOP,Plant Demand,NODE 292,NODE 293
   Branch,36,HOT WATER LOOP DEMAND BRANCH 35,HOT WATER LOOP,Plant Demand,NODE 296,NODE 297
   Branch,37,HOT WATER LOOP DEMAND BRANCH 36,HOT WATER LOOP,Plant Demand,NODE 298,NODE 299
   Branch,38,HOT WATER LOOP DEMAND BRANCH 37,HOT WATER LOOP,Plant Demand,NODE 303,NODE 304
   Branch,39,HOT WATER LOOP DEMAND BRANCH 38,HOT WATER LOOP,Plant Demand,NODE 305,NODE 306
   Branch,40,HOT WATER LOOP DEMAND BRANCH 39,HOT WATER LOOP,Plant Demand,NODE 310,NODE 311
   Branch,41,HOT WATER LOOP DEMAND BRANCH 40,HOT WATER LOOP,Plant Demand,NODE 312,NODE 313
   Branch,42,HOT WATER LOOP DEMAND BRANCH 41,HOT WATER LOOP,Plant Demand,NODE 317,NODE 318
   Branch,43,HOT WATER LOOP DEMAND BRANCH 42,HOT WATER LOOP,Plant Demand,NODE 319,NODE 320
   Branch,44,HOT WATER LOOP DEMAND BRANCH 43,HOT WATER LOOP,Plant Demand,NODE 324,NODE 325
   Branch,45,HOT WATER LOOP DEMAND BRANCH 44,HOT WATER LOOP,Plant Demand,NODE 331,NODE 332
   Branch,46,HOT WATER LOOP DEMAND BRANCH 45,HOT WATER LOOP,Plant Demand,NODE 341,NODE 342
   Branch,47,HOT WATER LOOP DEMAND BRANCH 46,HOT WATER LOOP,Plant Demand,NODE 345,NODE 346
   Branch,48,HOT WATER LOOP DEMAND BRANCH 47,HOT WATER LOOP,Plant Demand,NODE 347,NODE 348
   Branch,49,HOT WATER LOOP DEMAND BRANCH 48,HOT WATER LOOP,Plant Demand,NODE 352,NODE 353
   Branch,50,HOT WATER LOOP DEMAND BRANCH 49,HOT WATER LOOP,Plant Demand,NODE 354,NODE 355
   Branch,51,HOT WATER LOOP DEMAND BRANCH 50,HOT WATER LOOP,Plant Demand,NODE 359,NODE 360
   Branch,52,HOT WATER LOOP DEMAND BRANCH 51,HOT WATER LOOP,Plant Demand,NODE 361,NODE 362
   Branch,53,HOT WATER LOOP DEMAND BRANCH 52,HOT WATER LOOP,Plant Demand,NODE 366,NODE 367
   Branch,54,HOT WATER LOOP DEMAND BRANCH 53,HOT WATER LOOP,Plant Demand,NODE 373,NODE 374
   Branch,55,HOT WATER LOOP DEMAND BRANCH 54,HOT WATER LOOP,Plant Demand,NODE 383,NODE 384
   Branch,56,HOT WATER LOOP DEMAND BRANCH 55,HOT WATER LOOP,Plant Demand,NODE 387,NODE 388
   Branch,57,HOT WATER LOOP DEMAND BRANCH 56,HOT WATER LOOP,Plant Demand,NODE 389,NODE 390
   Branch,58,HOT WATER LOOP DEMAND BRANCH 57,HOT WATER LOOP,Plant Demand,NODE 394,NODE 395
   Branch,59,HOT WATER LOOP DEMAND BRANCH 58,HOT WATER LOOP,Plant Demand,NODE 396,NODE 397
   Branch,60,HOT WATER LOOP DEMAND BRANCH 59,HOT WATER LOOP,Plant Demand,NODE 401,NODE 402
   Branch,61,HOT WATER LOOP DEMAND BRANCH 60,HOT WATER LOOP,Plant Demand,NODE 414,NODE 415
   Branch,62,HOT WATER LOOP DEMAND BRANCH 61,HOT WATER LOOP,Plant Demand,NODE 427,NODE 428
   Branch,63,HOT WATER LOOP DEMAND BRANCH 62,HOT WATER LOOP,Plant Demand,NODE 440,NODE 441
   Branch,64,HOT WATER LOOP DEMAND BRANCH 63,HOT WATER LOOP,Plant Demand,NODE 479,NODE 480
   Branch,65,HOT WATER LOOP DEMAND BRANCH 64,HOT WATER LOOP,Plant Demand,NODE 522,NODE 523
   Branch,66,HOT WATER LOOP DEMAND BRANCH 65,HOT WATER LOOP,Plant Demand,NODE 565,NODE 566
   Branch,67,HOT WATER LOOP DEMAND BYPASS BRANCH,HOT WATER LOOP,Plant Demand,HOT WATER LOOP DEMAND BYPASS PIPE INLET NODE,HOT WATER LOOP DEMAND BYPASS PIPE OUTLET NODE
   Branch,68,HOT WATER LOOP DEMAND OUTLET BRANCH,HOT WATER LOOP,Plant Demand,HOT WATER LOOP DEMAND OUTLET PIPE NODE,NODE 8
 Branch List,36,MAIN SERVICE WATER LOOP SUPPLY BRANCHES,MAIN SERVICE WATER LOOP,Plant Supply,4
   Branch,1,MAIN SERVICE WATER LOOP SUPPLY INLET BRANCH,MAIN SERVICE WATER LOOP,Plant Supply,NODE 571,NODE 577
   Branch,2,MAIN SERVICE WATER LOOP SUPPLY BRANCH 1,MAIN SERVICE WATER LOOP,Plant Supply,NODE 573,NODE 578
   Branch,3,MAIN SERVICE WATER LOOP SUPPLY BRANCH 2,MAIN SERVICE WATER LOOP,Plant Supply,NODE 579,NODE 580
   Branch,4,MAIN SERVICE WATER LOOP SUPPLY OUTLET BRANCH,MAIN SERVICE WATER LOOP,Plant Supply,NODE 582,NODE 572
 Branch List,37,MAIN SERVICE WATER LOOP DEMAND BRANCHES,MAIN SERVICE WATER LOOP,Plant Demand,33
   Branch,1,MAIN SERVICE WATER LOOP DEMAND INLET BRANCH,MAIN SERVICE WATER LOOP,Plant Demand,NODE 574,NODE 583
   Branch,2,MAIN SERVICE WATER LOOP DEMAND BRANCH 1,MAIN SERVICE WATER LOOP,Plant Demand,NODE 576,NODE 581
   Branch,3,MAIN SERVICE WATER LOOP DEMAND BRANCH 2,MAIN SERVICE WATER LOOP,Plant Demand,NODE 585,NODE 586
   Branch,4,MAIN SERVICE WATER LOOP DEMAND BRANCH 3,MAIN SERVICE WATER LOOP,Plant Demand,NODE 587,NODE 588
   Branch,5,MAIN SERVICE WATER LOOP DEMAND BRANCH 4,MAIN SERVICE WATER LOOP,Plant Demand,NODE 589,NODE 590
   Branch,6,MAIN SERVICE WATER LOOP DEMAND BRANCH 5,MAIN SERVICE WATER LOOP,Plant Demand,NODE 591,NODE 592
   Branch,7,MAIN SERVICE WATER LOOP DEMAND BRANCH 6,MAIN SERVICE WATER LOOP,Plant Demand,NODE 593,NODE 594
   Branch,8,MAIN SERVICE WATER LOOP DEMAND BRANCH 7,MAIN SERVICE WATER LOOP,Plant Demand,NODE 595,NODE 596
   Branch,9,MAIN SERVICE WATER LOOP DEMAND BRANCH 8,MAIN SERVICE WATER LOOP,Plant Demand,NODE 597,NODE 598
   Branch,10,MAIN SERVICE WATER LOOP DEMAND BRANCH 9,MAIN SERVICE WATER LOOP,Plant Demand,NODE 599,NODE 600
   Branch,11,MAIN SERVICE WATER LOOP DEMAND BRANCH 10,MAIN SERVICE WATER LOOP,Plant Demand,NODE 601,NODE 602
   Branch,12,MAIN SERVICE WATER LOOP DEMAND BRANCH 11,MAIN SERVICE WATER LOOP,Plant Demand,NODE 603,NODE 604
   Branch,13,MAIN SERVICE WATER LOOP DEMAND BRANCH 12,MAIN SERVICE WATER LOOP,Plant Demand,NODE 605,NODE 606
   Branch,14,MAIN SERVICE WATER LOOP DEMAND BRANCH 13,MAIN SERVICE WATER LOOP,Plant Demand,NODE 607,NODE 608
   Branch,15,MAIN SERVICE WATER LOOP DEMAND BRANCH 14,MAIN SERVICE WATER LOOP,Plant Demand,NODE 609,NODE 610
   Branch,16,MAIN SERVICE WATER LOOP DEMAND BRANCH 15,MAIN SERVICE WATER LOOP,Plant Demand,NODE 611,NODE 612
   Branch,17,MAIN SERVICE WATER LOOP DEMAND BRANCH 16,MAIN SERVICE WATER LOOP,Plant Demand,NODE 613,NODE 614
   Branch,18,MAIN SERVICE WATER LOOP DEMAND BRANCH 17,MAIN SERVICE WATER LOOP,Plant Demand,NODE 615,NODE 616
   Branch,19,MAIN SERVICE WATER LOOP DEMAND BRANCH 18,MAIN SERVICE WATER LOOP,Plant Demand,NODE 617,NODE 618
   Branch,20,MAIN SERVICE WATER LOOP DEMAND BRANCH 19,MAIN SERVICE WATER LOOP,Plant Demand,NODE 619,NODE 620
   Branch,21,MAIN SERVICE WATER LOOP DEMAND BRANCH 20,MAIN SERVICE WATER LOOP,Plant Demand,NODE 621,NODE 622
   Branch,22,MAIN SERVICE WATER LOOP DEMAND BRANCH 21,MAIN SERVICE WATER LOOP,Plant Demand,NODE 623,NODE 624
   Branch,23,MAIN SERVICE WATER LOOP DEMAND BRANCH 22,MAIN SERVICE WATER LOOP,Plant Demand,NODE 625,NODE 626
   Branch,24,MAIN SERVICE WATER LOOP DEMAND BRANCH 23,MAIN SERVICE WATER LOOP,Plant Demand,NODE 627,NODE 628
   Branch,25,MAIN SERVICE WATER LOOP DEMAND BRANCH 24,MAIN SERVICE WATER LOOP,Plant Demand,NODE 629,NODE 630
   Branch,26,MAIN SERVICE WATER LOOP DEMAND BRANCH 25,MAIN SERVICE WATER LOOP,Plant Demand,NODE 631,NODE 632
   Branch,27,MAIN SERVICE WATER LOOP DEMAND BRANCH 26,MAIN SERVICE WATER LOOP,Plant Demand,NODE 633,NODE 634
   Branch,28,MAIN SERVICE WATER LOOP DEMAND BRANCH 27,MAIN SERVICE WATER LOOP,Plant Demand,NODE 635,NODE 636
   Branch,29,MAIN SERVICE WATER LOOP DEMAND BRANCH 28,MAIN SERVICE WATER LOOP,Plant Demand,NODE 637,NODE 638
   Branch,30,MAIN SERVICE WATER LOOP DEMAND BRANCH 29,MAIN SERVICE WATER LOOP,Plant Demand,NODE 639,NODE 640
   Branch,31,MAIN SERVICE WATER LOOP DEMAND BRANCH 30,MAIN SERVICE WATER LOOP,Plant Demand,NODE 641,NODE 642
   Branch,32,MAIN SERVICE WATER LOOP DEMAND BYPASS BRANCH,MAIN SERVICE WATER LOOP,Plant Demand,MAIN SERVICE WATER LOOP DEMAND BYPASS PIPE INLET NODE,MAIN SERVICE WATER LOOP DEMAND BYPASS PIPE OUTLET NODE
   Branch,33,MAIN SERVICE WATER LOOP DEMAND OUTLET BRANCH,MAIN SERVICE WATER LOOP,Plant Demand,NODE 584,NODE 575
! ===============================================================
! <#Supply Air Paths>,<Number of Supply Air Paths>
 #Supply Air Paths,17
! <Supply Air Path>,<Supply Air Path Count>,<Supply Air Path Name>,<AirLoopHVAC Name>
! <#Components on Supply Air Path>,<Number of Components>
! <Supply Air Path Component>,<Component Count>,<Component Type>,<Component Name>,<AirLoopHVAC Name>
! <#Outlet Nodes on Supply Air Path Component>,<Number of Nodes>
! <Supply Air Path Component Nodes>,<Node Count>,<Component Type>,<Component Name>,<Inlet Node Name>,<Outlet Node Name>,<AirLoopHVAC Name>
 Supply Air Path,1,SYS_2_MAKE-UP AIR UNIT NODE 471 SUPPLY PATH,SYS_2_MAKE-UP AIR UNIT
   #Components on Supply Air Path,1
   Supply Air Path Component,1,AIRLOOPHVAC:ZONESPLITTER,AIR LOOP HVAC ZONE SPLITTER 15,SYS_2_MAKE-UP AIR UNIT
     #Outlet Nodes on Supply Air Path Component,1
     Supply Air Path Component Nodes,1,AIRLOOPHVAC:ZONESPLITTER,AIR LOOP HVAC ZONE SPLITTER 15,NODE 471,NODE 473,SYS_2_MAKE-UP AIR UNIT
! <#Nodes on Supply Air Path>,<Number of Nodes>
! <Supply Air Path Node>,<Node Type>,<Node Count>,<Node Name>,<AirLoopHVAC Name>
#Nodes on Supply Air Path,2
   Supply Air Path Node,Inlet Node,1,NODE 471,SYS_2_MAKE-UP AIR UNIT
   Supply Air Path Node,Outlet Node,2,NODE 473,SYS_2_MAKE-UP AIR UNIT
 Supply Air Path,2,SYS_2_MAKE-UP AIR UNIT 1 NODE 514 SUPPLY PATH,SYS_2_MAKE-UP AIR UNIT 1
   #Components on Supply Air Path,1
   Supply Air Path Component,1,AIRLOOPHVAC:ZONESPLITTER,AIR LOOP HVAC ZONE SPLITTER 16,SYS_2_MAKE-UP AIR UNIT 1
     #Outlet Nodes on Supply Air Path Component,1
     Supply Air Path Component Nodes,1,AIRLOOPHVAC:ZONESPLITTER,AIR LOOP HVAC ZONE SPLITTER 16,NODE 514,NODE 516,SYS_2_MAKE-UP AIR UNIT 1
! <#Nodes on Supply Air Path>,<Number of Nodes>
! <Supply Air Path Node>,<Node Type>,<Node Count>,<Node Name>,<AirLoopHVAC Name>
#Nodes on Supply Air Path,2
   Supply Air Path Node,Inlet Node,1,NODE 514,SYS_2_MAKE-UP AIR UNIT 1
   Supply Air Path Node,Outlet Node,2,NODE 516,SYS_2_MAKE-UP AIR UNIT 1
 Supply Air Path,3,SYS_2_MAKE-UP AIR UNIT 2 NODE 557 SUPPLY PATH,SYS_2_MAKE-UP AIR UNIT 2
   #Components on Supply Air Path,1
   Supply Air Path Component,1,AIRLOOPHVAC:ZONESPLITTER,AIR LOOP HVAC ZONE SPLITTER 17,SYS_2_MAKE-UP AIR UNIT 2
     #Outlet Nodes on Supply Air Path Component,1
     Supply Air Path Component Nodes,1,AIRLOOPHVAC:ZONESPLITTER,AIR LOOP HVAC ZONE SPLITTER 17,NODE 557,NODE 559,SYS_2_MAKE-UP AIR UNIT 2
! <#Nodes on Supply Air Path>,<Number of Nodes>
! <Supply Air Path Node>,<Node Type>,<Node Count>,<Node Name>,<AirLoopHVAC Name>
#Nodes on Supply Air Path,2
   Supply Air Path Node,Inlet Node,1,NODE 557,SYS_2_MAKE-UP AIR UNIT 2
   Supply Air Path Node,Outlet Node,2,NODE 559,SYS_2_MAKE-UP AIR UNIT 2
 Supply Air Path,4,SYS_3_PSZ ALL_ST=PENITENTIARY - DINING_FL=STORY 8_SCH=B NODE 142 SUPPLY PATH,SYS_3_PSZ ALL_ST=PENITENTIARY - DINING_FL=STORY 8_SCH=B
   #Components on Supply Air Path,1
   Supply Air Path Component,1,AIRLOOPHVAC:ZONESPLITTER,AIR LOOP HVAC ZONE SPLITTER 4,SYS_3_PSZ ALL_ST=PENITENTIARY - DINING_FL=STORY 8_SCH=B
     #Outlet Nodes on Supply Air Path Component,1
     Supply Air Path Component Nodes,1,AIRLOOPHVAC:ZONESPLITTER,AIR LOOP HVAC ZONE SPLITTER 4,NODE 142,NODE 144,SYS_3_PSZ ALL_ST=PENITENTIARY - DINING_FL=STORY 8_SCH=B
! <#Nodes on Supply Air Path>,<Number of Nodes>
! <Supply Air Path Node>,<Node Type>,<Node Count>,<Node Name>,<AirLoopHVAC Name>
#Nodes on Supply Air Path,2
   Supply Air Path Node,Inlet Node,1,NODE 142,SYS_3_PSZ ALL_ST=PENITENTIARY - DINING_FL=STORY 8_SCH=B
   Supply Air Path Node,Outlet Node,2,NODE 144,SYS_3_PSZ ALL_ST=PENITENTIARY - DINING_FL=STORY 8_SCH=B
 Supply Air Path,5,SYS_4_PSZ_ALL_ST=STORAGE AREA_FL=STORY 2_SCH=E NODE 48 SUPPLY PATH,SYS_4_PSZ_ALL_ST=STORAGE AREA_FL=STORY 2_SCH=E
   #Components on Supply Air Path,1
   Supply Air Path Component,1,AIRLOOPHVAC:ZONESPLITTER,AIR LOOP HVAC ZONE SPLITTER 2,SYS_4_PSZ_ALL_ST=STORAGE AREA_FL=STORY 2_SCH=E
     #Outlet Nodes on Supply Air Path Component,4
     Supply Air Path Component Nodes,1,AIRLOOPHVAC:ZONESPLITTER,AIR LOOP HVAC ZONE SPLITTER 2,NODE 48,NODE 51,SYS_4_PSZ_ALL_ST=STORAGE AREA_FL=STORY 2_SCH=E
     Supply Air Path Component Nodes,2,AIRLOOPHVAC:ZONESPLITTER,AIR LOOP HVAC ZONE SPLITTER 2,NODE 48,NODE 65,SYS_4_PSZ_ALL_ST=STORAGE AREA_FL=STORY 2_SCH=E
     Supply Air Path Component Nodes,3,AIRLOOPHVAC:ZONESPLITTER,AIR LOOP HVAC ZONE SPLITTER 2,NODE 48,NODE 71,SYS_4_PSZ_ALL_ST=STORAGE AREA_FL=STORY 2_SCH=E
     Supply Air Path Component Nodes,4,AIRLOOPHVAC:ZONESPLITTER,AIR LOOP HVAC ZONE SPLITTER 2,NODE 48,NODE 77,SYS_4_PSZ_ALL_ST=STORAGE AREA_FL=STORY 2_SCH=E
! <#Nodes on Supply Air Path>,<Number of Nodes>
! <Supply Air Path Node>,<Node Type>,<Node Count>,<Node Name>,<AirLoopHVAC Name>
#Nodes on Supply Air Path,5
   Supply Air Path Node,Inlet Node,1,NODE 48,SYS_4_PSZ_ALL_ST=STORAGE AREA_FL=STORY 2_SCH=E
   Supply Air Path Node,Outlet Node,2,NODE 51,SYS_4_PSZ_ALL_ST=STORAGE AREA_FL=STORY 2_SCH=E
   Supply Air Path Node,Outlet Node,3,NODE 65,SYS_4_PSZ_ALL_ST=STORAGE AREA_FL=STORY 2_SCH=E
   Supply Air Path Node,Outlet Node,4,NODE 71,SYS_4_PSZ_ALL_ST=STORAGE AREA_FL=STORY 2_SCH=E
   Supply Air Path Node,Outlet Node,5,NODE 77,SYS_4_PSZ_ALL_ST=STORAGE AREA_FL=STORY 2_SCH=E
 Supply Air Path,6,SYS_4_PSZ_ALL_ST=WAREHOUSE - FINE_FL=STORY 7_SCH=A NODE 405 SUPPLY PATH,SYS_4_PSZ_ALL_ST=WAREHOUSE - FINE_FL=STORY 7_SCH=A
   #Components on Supply Air Path,1
   Supply Air Path Component,1,AIRLOOPHVAC:ZONESPLITTER,AIR LOOP HVAC ZONE SPLITTER 12,SYS_4_PSZ_ALL_ST=WAREHOUSE - FINE_FL=STORY 7_SCH=A
     #Outlet Nodes on Supply Air Path Component,1
     Supply Air Path Component Nodes,1,AIRLOOPHVAC:ZONESPLITTER,AIR LOOP HVAC ZONE SPLITTER 12,NODE 405,NODE 407,SYS_4_PSZ_ALL_ST=WAREHOUSE - FINE_FL=STORY 7_SCH=A
! <#Nodes on Supply Air Path>,<Number of Nodes>
! <Supply Air Path Node>,<Node Type>,<Node Count>,<Node Name>,<AirLoopHVAC Name>
#Nodes on Supply Air Path,2
   Supply Air Path Node,Inlet Node,1,NODE 405,SYS_4_PSZ_ALL_ST=WAREHOUSE - FINE_FL=STORY 7_SCH=A
   Supply Air Path Node,Outlet Node,2,NODE 407,SYS_4_PSZ_ALL_ST=WAREHOUSE - FINE_FL=STORY 7_SCH=A
 Supply Air Path,7,SYS_4_PSZ_ALL_ST=WAREHOUSE - MED/BLK2_FL=STORY 4_SCH=A NODE 431 SUPPLY PATH,SYS_4_PSZ_ALL_ST=WAREHOUSE - MED/BLK2_FL=STORY 4_SCH=A
   #Components on Supply Air Path,1
   Supply Air Path Component,1,AIRLOOPHVAC:ZONESPLITTER,AIR LOOP HVAC ZONE SPLITTER 14,SYS_4_PSZ_ALL_ST=WAREHOUSE - MED/BLK2_FL=STORY 4_SCH=A
     #Outlet Nodes on Supply Air Path Component,1
     Supply Air Path Component Nodes,1,AIRLOOPHVAC:ZONESPLITTER,AIR LOOP HVAC ZONE SPLITTER 14,NODE 431,NODE 433,SYS_4_PSZ_ALL_ST=WAREHOUSE - MED/BLK2_FL=STORY 4_SCH=A
! <#Nodes on Supply Air Path>,<Number of Nodes>
! <Supply Air Path Node>,<Node Type>,<Node Count>,<Node Name>,<AirLoopHVAC Name>
#Nodes on Supply Air Path,2
   Supply Air Path Node,Inlet Node,1,NODE 431,SYS_4_PSZ_ALL_ST=WAREHOUSE - MED/BLK2_FL=STORY 4_SCH=A
   Supply Air Path Node,Outlet Node,2,NODE 433,SYS_4_PSZ_ALL_ST=WAREHOUSE - MED/BLK2_FL=STORY 4_SCH=A
 Supply Air Path,8,SYS_4_PSZ_ALL_ST=WAREHOUSE - MED/BLK_FL=STORY 2_SCH=A NODE 418 SUPPLY PATH,SYS_4_PSZ_ALL_ST=WAREHOUSE - MED/BLK_FL=STORY 2_SCH=A
   #Components on Supply Air Path,1
   Supply Air Path Component,1,AIRLOOPHVAC:ZONESPLITTER,AIR LOOP HVAC ZONE SPLITTER 13,SYS_4_PSZ_ALL_ST=WAREHOUSE - MED/BLK_FL=STORY 2_SCH=A
     #Outlet Nodes on Supply Air Path Component,1
     Supply Air Path Component Nodes,1,AIRLOOPHVAC:ZONESPLITTER,AIR LOOP HVAC ZONE SPLITTER 13,NODE 418,NODE 420,SYS_4_PSZ_ALL_ST=WAREHOUSE - MED/BLK_FL=STORY 2_SCH=A
! <#Nodes on Supply Air Path>,<Number of Nodes>
! <Supply Air Path Node>,<Node Type>,<Node Count>,<Node Name>,<AirLoopHVAC Name>
#Nodes on Supply Air Path,2
   Supply Air Path Node,Inlet Node,1,NODE 418,SYS_4_PSZ_ALL_ST=WAREHOUSE - MED/BLK_FL=STORY 2_SCH=A
   Supply Air Path Node,Outlet Node,2,NODE 420,SYS_4_PSZ_ALL_ST=WAREHOUSE - MED/BLK_FL=STORY 2_SCH=A
 Supply Air Path,9,SYS_4_PSZ_WET_ST=WASHROOM-SCH-A_FL=STORY 1_SCHA NODE 24 SUPPLY PATH,SYS_4_PSZ_WET_ST=WASHROOM-SCH-A_FL=STORY 1_SCHA
   #Components on Supply Air Path,1
   Supply Air Path Component,1,AIRLOOPHVAC:ZONESPLITTER,AIR LOOP HVAC ZONE SPLITTER 1,SYS_4_PSZ_WET_ST=WASHROOM-SCH-A_FL=STORY 1_SCHA
     #Outlet Nodes on Supply Air Path Component,2
     Supply Air Path Component Nodes,1,AIRLOOPHVAC:ZONESPLITTER,AIR LOOP HVAC ZONE SPLITTER 1,NODE 24,NODE 27,SYS_4_PSZ_WET_ST=WASHROOM-SCH-A_FL=STORY 1_SCHA
     Supply Air Path Component Nodes,2,AIRLOOPHVAC:ZONESPLITTER,AIR LOOP HVAC ZONE SPLITTER 1,NODE 24,NODE 39,SYS_4_PSZ_WET_ST=WASHROOM-SCH-A_FL=STORY 1_SCHA
! <#Nodes on Supply Air Path>,<Number of Nodes>
! <Supply Air Path Node>,<Node Type>,<Node Count>,<Node Name>,<AirLoopHVAC Name>
#Nodes on Supply Air Path,3
   Supply Air Path Node,Inlet Node,1,NODE 24,SYS_4_PSZ_WET_ST=WASHROOM-SCH-A_FL=STORY 1_SCHA
   Supply Air Path Node,Outlet Node,2,NODE 27,SYS_4_PSZ_WET_ST=WASHROOM-SCH-A_FL=STORY 1_SCHA
   Supply Air Path Node,Outlet Node,3,NODE 39,SYS_4_PSZ_WET_ST=WASHROOM-SCH-A_FL=STORY 1_SCHA
 Supply Air Path,10,SYS_4_PSZ_WILD_ST=STAIRWAY-SCH-A_FL=STORY 4_SCH=A NODE 86 SUPPLY PATH,SYS_4_PSZ_WILD_ST=STAIRWAY-SCH-A_FL=STORY 4_SCH=A
   #Components on Supply Air Path,1
   Supply Air Path Component,1,AIRLOOPHVAC:ZONESPLITTER,AIR LOOP HVAC ZONE SPLITTER 3,SYS_4_PSZ_WILD_ST=STAIRWAY-SCH-A_FL=STORY 4_SCH=A
     #Outlet Nodes on Supply Air Path Component,9
     Supply Air Path Component Nodes,1,AIRLOOPHVAC:ZONESPLITTER,AIR LOOP HVAC ZONE SPLITTER 3,NODE 86,NODE 89,SYS_4_PSZ_WILD_ST=STAIRWAY-SCH-A_FL=STORY 4_SCH=A
     Supply Air Path Component Nodes,2,AIRLOOPHVAC:ZONESPLITTER,AIR LOOP HVAC ZONE SPLITTER 3,NODE 86,NODE 102,SYS_4_PSZ_WILD_ST=STAIRWAY-SCH-A_FL=STORY 4_SCH=A
     Supply Air Path Component Nodes,3,AIRLOOPHVAC:ZONESPLITTER,AIR LOOP HVAC ZONE SPLITTER 3,NODE 86,NODE 108,SYS_4_PSZ_WILD_ST=STAIRWAY-SCH-A_FL=STORY 4_SCH=A
     Supply Air Path Component Nodes,4,AIRLOOPHVAC:ZONESPLITTER,AIR LOOP HVAC ZONE SPLITTER 3,NODE 86,NODE 114,SYS_4_PSZ_WILD_ST=STAIRWAY-SCH-A_FL=STORY 4_SCH=A
     Supply Air Path Component Nodes,5,AIRLOOPHVAC:ZONESPLITTER,AIR LOOP HVAC ZONE SPLITTER 3,NODE 86,NODE 120,SYS_4_PSZ_WILD_ST=STAIRWAY-SCH-A_FL=STORY 4_SCH=A
     Supply Air Path Component Nodes,6,AIRLOOPHVAC:ZONESPLITTER,AIR LOOP HVAC ZONE SPLITTER 3,NODE 86,NODE 124,SYS_4_PSZ_WILD_ST=STAIRWAY-SCH-A_FL=STORY 4_SCH=A
     Supply Air Path Component Nodes,7,AIRLOOPHVAC:ZONESPLITTER,AIR LOOP HVAC ZONE SPLITTER 3,NODE 86,NODE 128,SYS_4_PSZ_WILD_ST=STAIRWAY-SCH-A_FL=STORY 4_SCH=A
     Supply Air Path Component Nodes,8,AIRLOOPHVAC:ZONESPLITTER,AIR LOOP HVAC ZONE SPLITTER 3,NODE 86,NODE 132,SYS_4_PSZ_WILD_ST=STAIRWAY-SCH-A_FL=STORY 4_SCH=A
     Supply Air Path Component Nodes,9,AIRLOOPHVAC:ZONESPLITTER,AIR LOOP HVAC ZONE SPLITTER 3,NODE 86,NODE 136,SYS_4_PSZ_WILD_ST=STAIRWAY-SCH-A_FL=STORY 4_SCH=A
! <#Nodes on Supply Air Path>,<Number of Nodes>
! <Supply Air Path Node>,<Node Type>,<Node Count>,<Node Name>,<AirLoopHVAC Name>
#Nodes on Supply Air Path,10
   Supply Air Path Node,Inlet Node,1,NODE 86,SYS_4_PSZ_WILD_ST=STAIRWAY-SCH-A_FL=STORY 4_SCH=A
   Supply Air Path Node,Outlet Node,2,NODE 89,SYS_4_PSZ_WILD_ST=STAIRWAY-SCH-A_FL=STORY 4_SCH=A
   Supply Air Path Node,Outlet Node,3,NODE 102,SYS_4_PSZ_WILD_ST=STAIRWAY-SCH-A_FL=STORY 4_SCH=A
   Supply Air Path Node,Outlet Node,4,NODE 108,SYS_4_PSZ_WILD_ST=STAIRWAY-SCH-A_FL=STORY 4_SCH=A
   Supply Air Path Node,Outlet Node,5,NODE 114,SYS_4_PSZ_WILD_ST=STAIRWAY-SCH-A_FL=STORY 4_SCH=A
   Supply Air Path Node,Outlet Node,6,NODE 120,SYS_4_PSZ_WILD_ST=STAIRWAY-SCH-A_FL=STORY 4_SCH=A
   Supply Air Path Node,Outlet Node,7,NODE 124,SYS_4_PSZ_WILD_ST=STAIRWAY-SCH-A_FL=STORY 4_SCH=A
   Supply Air Path Node,Outlet Node,8,NODE 128,SYS_4_PSZ_WILD_ST=STAIRWAY-SCH-A_FL=STORY 4_SCH=A
   Supply Air Path Node,Outlet Node,9,NODE 132,SYS_4_PSZ_WILD_ST=STAIRWAY-SCH-A_FL=STORY 4_SCH=A
   Supply Air Path Node,Outlet Node,10,NODE 136,SYS_4_PSZ_WILD_ST=STAIRWAY-SCH-A_FL=STORY 4_SCH=A
 Supply Air Path,11,SYS_6_VAV WITH REHEAT NODE 182 SUPPLY PATH,SYS_6_VAV WITH REHEAT
   #Components on Supply Air Path,1
   Supply Air Path Component,1,AIRLOOPHVAC:ZONESPLITTER,AIR LOOP HVAC ZONE SPLITTER 5,SYS_6_VAV WITH REHEAT
     #Outlet Nodes on Supply Air Path Component,1
     Supply Air Path Component Nodes,1,AIRLOOPHVAC:ZONESPLITTER,AIR LOOP HVAC ZONE SPLITTER 5,NODE 182,NODE 197,SYS_6_VAV WITH REHEAT
! <#Nodes on Supply Air Path>,<Number of Nodes>
! <Supply Air Path Node>,<Node Type>,<Node Count>,<Node Name>,<AirLoopHVAC Name>
#Nodes on Supply Air Path,2
   Supply Air Path Node,Inlet Node,1,NODE 182,SYS_6_VAV WITH REHEAT
   Supply Air Path Node,Outlet Node,2,NODE 197,SYS_6_VAV WITH REHEAT
 Supply Air Path,12,SYS_6_VAV WITH REHEAT 1 NODE 202 SUPPLY PATH,SYS_6_VAV WITH REHEAT 1
   #Components on Supply Air Path,1
   Supply Air Path Component,1,AIRLOOPHVAC:ZONESPLITTER,AIR LOOP HVAC ZONE SPLITTER 6,SYS_6_VAV WITH REHEAT 1
     #Outlet Nodes on Supply Air Path Component,1
     Supply Air Path Component Nodes,1,AIRLOOPHVAC:ZONESPLITTER,AIR LOOP HVAC ZONE SPLITTER 6,NODE 202,NODE 218,SYS_6_VAV WITH REHEAT 1
! <#Nodes on Supply Air Path>,<Number of Nodes>
! <Supply Air Path Node>,<Node Type>,<Node Count>,<Node Name>,<AirLoopHVAC Name>
#Nodes on Supply Air Path,2
   Supply Air Path Node,Inlet Node,1,NODE 202,SYS_6_VAV WITH REHEAT 1
   Supply Air Path Node,Outlet Node,2,NODE 218,SYS_6_VAV WITH REHEAT 1
 Supply Air Path,13,SYS_6_VAV WITH REHEAT 2 NODE 223 SUPPLY PATH,SYS_6_VAV WITH REHEAT 2
   #Components on Supply Air Path,1
   Supply Air Path Component,1,AIRLOOPHVAC:ZONESPLITTER,AIR LOOP HVAC ZONE SPLITTER 7,SYS_6_VAV WITH REHEAT 2
     #Outlet Nodes on Supply Air Path Component,1
     Supply Air Path Component Nodes,1,AIRLOOPHVAC:ZONESPLITTER,AIR LOOP HVAC ZONE SPLITTER 7,NODE 223,NODE 239,SYS_6_VAV WITH REHEAT 2
! <#Nodes on Supply Air Path>,<Number of Nodes>
! <Supply Air Path Node>,<Node Type>,<Node Count>,<Node Name>,<AirLoopHVAC Name>
#Nodes on Supply Air Path,2
   Supply Air Path Node,Inlet Node,1,NODE 223,SYS_6_VAV WITH REHEAT 2
   Supply Air Path Node,Outlet Node,2,NODE 239,SYS_6_VAV WITH REHEAT 2
 Supply Air Path,14,SYS_6_VAV WITH REHEAT 3 NODE 244 SUPPLY PATH,SYS_6_VAV WITH REHEAT 3
   #Components on Supply Air Path,1
   Supply Air Path Component,1,AIRLOOPHVAC:ZONESPLITTER,AIR LOOP HVAC ZONE SPLITTER 8,SYS_6_VAV WITH REHEAT 3
     #Outlet Nodes on Supply Air Path Component,3
     Supply Air Path Component Nodes,1,AIRLOOPHVAC:ZONESPLITTER,AIR LOOP HVAC ZONE SPLITTER 8,NODE 244,NODE 260,SYS_6_VAV WITH REHEAT 3
     Supply Air Path Component Nodes,2,AIRLOOPHVAC:ZONESPLITTER,AIR LOOP HVAC ZONE SPLITTER 8,NODE 244,NODE 267,SYS_6_VAV WITH REHEAT 3
     Supply Air Path Component Nodes,3,AIRLOOPHVAC:ZONESPLITTER,AIR LOOP HVAC ZONE SPLITTER 8,NODE 244,NODE 274,SYS_6_VAV WITH REHEAT 3
! <#Nodes on Supply Air Path>,<Number of Nodes>
! <Supply Air Path Node>,<Node Type>,<Node Count>,<Node Name>,<AirLoopHVAC Name>
#Nodes on Supply Air Path,4
   Supply Air Path Node,Inlet Node,1,NODE 244,SYS_6_VAV WITH REHEAT 3
   Supply Air Path Node,Outlet Node,2,NODE 260,SYS_6_VAV WITH REHEAT 3
   Supply Air Path Node,Outlet Node,3,NODE 267,SYS_6_VAV WITH REHEAT 3
   Supply Air Path Node,Outlet Node,4,NODE 274,SYS_6_VAV WITH REHEAT 3
 Supply Air Path,15,SYS_6_VAV WITH REHEAT 4 NODE 279 SUPPLY PATH,SYS_6_VAV WITH REHEAT 4
   #Components on Supply Air Path,1
   Supply Air Path Component,1,AIRLOOPHVAC:ZONESPLITTER,AIR LOOP HVAC ZONE SPLITTER 9,SYS_6_VAV WITH REHEAT 4
     #Outlet Nodes on Supply Air Path Component,5
     Supply Air Path Component Nodes,1,AIRLOOPHVAC:ZONESPLITTER,AIR LOOP HVAC ZONE SPLITTER 9,NODE 279,NODE 295,SYS_6_VAV WITH REHEAT 4
     Supply Air Path Component Nodes,2,AIRLOOPHVAC:ZONESPLITTER,AIR LOOP HVAC ZONE SPLITTER 9,NODE 279,NODE 302,SYS_6_VAV WITH REHEAT 4
     Supply Air Path Component Nodes,3,AIRLOOPHVAC:ZONESPLITTER,AIR LOOP HVAC ZONE SPLITTER 9,NODE 279,NODE 309,SYS_6_VAV WITH REHEAT 4
     Supply Air Path Component Nodes,4,AIRLOOPHVAC:ZONESPLITTER,AIR LOOP HVAC ZONE SPLITTER 9,NODE 279,NODE 316,SYS_6_VAV WITH REHEAT 4
     Supply Air Path Component Nodes,5,AIRLOOPHVAC:ZONESPLITTER,AIR LOOP HVAC ZONE SPLITTER 9,NODE 279,NODE 323,SYS_6_VAV WITH REHEAT 4
! <#Nodes on Supply Air Path>,<Number of Nodes>
! <Supply Air Path Node>,<Node Type>,<Node Count>,<Node Name>,<AirLoopHVAC Name>
#Nodes on Supply Air Path,6
   Supply Air Path Node,Inlet Node,1,NODE 279,SYS_6_VAV WITH REHEAT 4
   Supply Air Path Node,Outlet Node,2,NODE 295,SYS_6_VAV WITH REHEAT 4
   Supply Air Path Node,Outlet Node,3,NODE 302,SYS_6_VAV WITH REHEAT 4
   Supply Air Path Node,Outlet Node,4,NODE 309,SYS_6_VAV WITH REHEAT 4
   Supply Air Path Node,Outlet Node,5,NODE 316,SYS_6_VAV WITH REHEAT 4
   Supply Air Path Node,Outlet Node,6,NODE 323,SYS_6_VAV WITH REHEAT 4
 Supply Air Path,16,SYS_6_VAV WITH REHEAT 5 NODE 328 SUPPLY PATH,SYS_6_VAV WITH REHEAT 5
   #Components on Supply Air Path,1
   Supply Air Path Component,1,AIRLOOPHVAC:ZONESPLITTER,AIR LOOP HVAC ZONE SPLITTER 10,SYS_6_VAV WITH REHEAT 5
     #Outlet Nodes on Supply Air Path Component,4
     Supply Air Path Component Nodes,1,AIRLOOPHVAC:ZONESPLITTER,AIR LOOP HVAC ZONE SPLITTER 10,NODE 328,NODE 344,SYS_6_VAV WITH REHEAT 5
     Supply Air Path Component Nodes,2,AIRLOOPHVAC:ZONESPLITTER,AIR LOOP HVAC ZONE SPLITTER 10,NODE 328,NODE 351,SYS_6_VAV WITH REHEAT 5
     Supply Air Path Component Nodes,3,AIRLOOPHVAC:ZONESPLITTER,AIR LOOP HVAC ZONE SPLITTER 10,NODE 328,NODE 358,SYS_6_VAV WITH REHEAT 5
     Supply Air Path Component Nodes,4,AIRLOOPHVAC:ZONESPLITTER,AIR LOOP HVAC ZONE SPLITTER 10,NODE 328,NODE 365,SYS_6_VAV WITH REHEAT 5
! <#Nodes on Supply Air Path>,<Number of Nodes>
! <Supply Air Path Node>,<Node Type>,<Node Count>,<Node Name>,<AirLoopHVAC Name>
#Nodes on Supply Air Path,5
   Supply Air Path Node,Inlet Node,1,NODE 328,SYS_6_VAV WITH REHEAT 5
   Supply Air Path Node,Outlet Node,2,NODE 344,SYS_6_VAV WITH REHEAT 5
   Supply Air Path Node,Outlet Node,3,NODE 351,SYS_6_VAV WITH REHEAT 5
   Supply Air Path Node,Outlet Node,4,NODE 358,SYS_6_VAV WITH REHEAT 5
   Supply Air Path Node,Outlet Node,5,NODE 365,SYS_6_VAV WITH REHEAT 5
 Supply Air Path,17,SYS_6_VAV WITH REHEAT 6 NODE 370 SUPPLY PATH,SYS_6_VAV WITH REHEAT 6
   #Components on Supply Air Path,1
   Supply Air Path Component,1,AIRLOOPHVAC:ZONESPLITTER,AIR LOOP HVAC ZONE SPLITTER 11,SYS_6_VAV WITH REHEAT 6
     #Outlet Nodes on Supply Air Path Component,3
     Supply Air Path Component Nodes,1,AIRLOOPHVAC:ZONESPLITTER,AIR LOOP HVAC ZONE SPLITTER 11,NODE 370,NODE 386,SYS_6_VAV WITH REHEAT 6
     Supply Air Path Component Nodes,2,AIRLOOPHVAC:ZONESPLITTER,AIR LOOP HVAC ZONE SPLITTER 11,NODE 370,NODE 393,SYS_6_VAV WITH REHEAT 6
     Supply Air Path Component Nodes,3,AIRLOOPHVAC:ZONESPLITTER,AIR LOOP HVAC ZONE SPLITTER 11,NODE 370,NODE 400,SYS_6_VAV WITH REHEAT 6
! <#Nodes on Supply Air Path>,<Number of Nodes>
! <Supply Air Path Node>,<Node Type>,<Node Count>,<Node Name>,<AirLoopHVAC Name>
#Nodes on Supply Air Path,4
   Supply Air Path Node,Inlet Node,1,NODE 370,SYS_6_VAV WITH REHEAT 6
   Supply Air Path Node,Outlet Node,2,NODE 386,SYS_6_VAV WITH REHEAT 6
   Supply Air Path Node,Outlet Node,3,NODE 393,SYS_6_VAV WITH REHEAT 6
   Supply Air Path Node,Outlet Node,4,NODE 400,SYS_6_VAV WITH REHEAT 6
! ===============================================================
! <#Return Air Paths>,<Number of Return Air Paths>
 #Return Air Paths,17
! <Return Air Path>,<Return Air Path Count>,<Return Air Path Name>,<AirLoopHVAC Name>
! <#Components on Return Air Path>,<Number of Components>
! <Return Air Path Component>,<Component Count>,<Component Type>,<Component Name>,<AirLoopHVAC Name>
! <#Inlet Nodes on Return Air Path Component>,<Number of Nodes>
! <Return Air Path Component Nodes>,<Node Count>,<Component Type>,<Component Name>,<Inlet Node Name>,<Outlet Node Name>,<AirLoopHVAC Name>
 Return Air Path,1,SYS_2_MAKE-UP AIR UNIT RETURN PATH,SYS_2_MAKE-UP AIR UNIT
   #Components on Return Air Path,1
   Return Air Path Component,1,AIRLOOPHVAC:ZONEMIXER,AIR LOOP HVAC ZONE MIXER 15,SYS_2_MAKE-UP AIR UNIT
     #Inlet Nodes on Return Air Path Component,1
     Return Air Path Component Nodes,1,AIRLOOPHVAC:ZONEMIXER,AIR LOOP HVAC ZONE MIXER 15,NODE 484,NODE 472,SYS_2_MAKE-UP AIR UNIT
! <#Nodes on Return Air Path>,<Number of Nodes>
! <Return Air Path Node>,<Node Type>,<Node Count>,<Node Name>,<AirLoopHVAC Name>
   #Nodes on Return Air Path,2
   Return Air Path Node,Outlet Node,1,NODE 472,SYS_2_MAKE-UP AIR UNIT
   Return Air Path Node,Inlet Node,2,NODE 484,SYS_2_MAKE-UP AIR UNIT
 Return Air Path,2,SYS_2_MAKE-UP AIR UNIT 1 RETURN PATH,SYS_2_MAKE-UP AIR UNIT 1
   #Components on Return Air Path,1
   Return Air Path Component,1,AIRLOOPHVAC:ZONEMIXER,AIR LOOP HVAC ZONE MIXER 16,SYS_2_MAKE-UP AIR UNIT 1
     #Inlet Nodes on Return Air Path Component,1
     Return Air Path Component Nodes,1,AIRLOOPHVAC:ZONEMIXER,AIR LOOP HVAC ZONE MIXER 16,NODE 527,NODE 515,SYS_2_MAKE-UP AIR UNIT 1
! <#Nodes on Return Air Path>,<Number of Nodes>
! <Return Air Path Node>,<Node Type>,<Node Count>,<Node Name>,<AirLoopHVAC Name>
   #Nodes on Return Air Path,2
   Return Air Path Node,Outlet Node,1,NODE 515,SYS_2_MAKE-UP AIR UNIT 1
   Return Air Path Node,Inlet Node,2,NODE 527,SYS_2_MAKE-UP AIR UNIT 1
 Return Air Path,3,SYS_2_MAKE-UP AIR UNIT 2 RETURN PATH,SYS_2_MAKE-UP AIR UNIT 2
   #Components on Return Air Path,1
   Return Air Path Component,1,AIRLOOPHVAC:ZONEMIXER,AIR LOOP HVAC ZONE MIXER 17,SYS_2_MAKE-UP AIR UNIT 2
     #Inlet Nodes on Return Air Path Component,1
     Return Air Path Component Nodes,1,AIRLOOPHVAC:ZONEMIXER,AIR LOOP HVAC ZONE MIXER 17,NODE 570,NODE 558,SYS_2_MAKE-UP AIR UNIT 2
! <#Nodes on Return Air Path>,<Number of Nodes>
! <Return Air Path Node>,<Node Type>,<Node Count>,<Node Name>,<AirLoopHVAC Name>
   #Nodes on Return Air Path,2
   Return Air Path Node,Outlet Node,1,NODE 558,SYS_2_MAKE-UP AIR UNIT 2
   Return Air Path Node,Inlet Node,2,NODE 570,SYS_2_MAKE-UP AIR UNIT 2
 Return Air Path,4,SYS_3_PSZ ALL_ST=PENITENTIARY - DINING_FL=STORY 8_SCH=B RETURN PATH,SYS_3_PSZ ALL_ST=PENITENTIARY - DINING_FL=STORY 8_SCH=B
   #Components on Return Air Path,1
   Return Air Path Component,1,AIRLOOPHVAC:ZONEMIXER,AIR LOOP HVAC ZONE MIXER 4,SYS_3_PSZ ALL_ST=PENITENTIARY - DINING_FL=STORY 8_SCH=B
     #Inlet Nodes on Return Air Path Component,1
     Return Air Path Component Nodes,1,AIRLOOPHVAC:ZONEMIXER,AIR LOOP HVAC ZONE MIXER 4,NODE 150,NODE 143,SYS_3_PSZ ALL_ST=PENITENTIARY - DINING_FL=STORY 8_SCH=B
! <#Nodes on Return Air Path>,<Number of Nodes>
! <Return Air Path Node>,<Node Type>,<Node Count>,<Node Name>,<AirLoopHVAC Name>
   #Nodes on Return Air Path,2
   Return Air Path Node,Outlet Node,1,NODE 143,SYS_3_PSZ ALL_ST=PENITENTIARY - DINING_FL=STORY 8_SCH=B
   Return Air Path Node,Inlet Node,2,NODE 150,SYS_3_PSZ ALL_ST=PENITENTIARY - DINING_FL=STORY 8_SCH=B
 Return Air Path,5,SYS_4_PSZ_ALL_ST=STORAGE AREA_FL=STORY 2_SCH=E RETURN PATH,SYS_4_PSZ_ALL_ST=STORAGE AREA_FL=STORY 2_SCH=E
   #Components on Return Air Path,1
   Return Air Path Component,1,AIRLOOPHVAC:ZONEMIXER,AIR LOOP HVAC ZONE MIXER 2,SYS_4_PSZ_ALL_ST=STORAGE AREA_FL=STORY 2_SCH=E
     #Inlet Nodes on Return Air Path Component,4
     Return Air Path Component Nodes,1,AIRLOOPHVAC:ZONEMIXER,AIR LOOP HVAC ZONE MIXER 2,NODE 60,NODE 50,SYS_4_PSZ_ALL_ST=STORAGE AREA_FL=STORY 2_SCH=E
     Return Air Path Component Nodes,2,AIRLOOPHVAC:ZONEMIXER,AIR LOOP HVAC ZONE MIXER 2,NODE 66,NODE 50,SYS_4_PSZ_ALL_ST=STORAGE AREA_FL=STORY 2_SCH=E
     Return Air Path Component Nodes,3,AIRLOOPHVAC:ZONEMIXER,AIR LOOP HVAC ZONE MIXER 2,NODE 72,NODE 50,SYS_4_PSZ_ALL_ST=STORAGE AREA_FL=STORY 2_SCH=E
     Return Air Path Component Nodes,4,AIRLOOPHVAC:ZONEMIXER,AIR LOOP HVAC ZONE MIXER 2,NODE 78,NODE 50,SYS_4_PSZ_ALL_ST=STORAGE AREA_FL=STORY 2_SCH=E
! <#Nodes on Return Air Path>,<Number of Nodes>
! <Return Air Path Node>,<Node Type>,<Node Count>,<Node Name>,<AirLoopHVAC Name>
   #Nodes on Return Air Path,5
   Return Air Path Node,Outlet Node,1,NODE 50,SYS_4_PSZ_ALL_ST=STORAGE AREA_FL=STORY 2_SCH=E
   Return Air Path Node,Inlet Node,2,NODE 60,SYS_4_PSZ_ALL_ST=STORAGE AREA_FL=STORY 2_SCH=E
   Return Air Path Node,Inlet Node,3,NODE 66,SYS_4_PSZ_ALL_ST=STORAGE AREA_FL=STORY 2_SCH=E
   Return Air Path Node,Inlet Node,4,NODE 72,SYS_4_PSZ_ALL_ST=STORAGE AREA_FL=STORY 2_SCH=E
   Return Air Path Node,Inlet Node,5,NODE 78,SYS_4_PSZ_ALL_ST=STORAGE AREA_FL=STORY 2_SCH=E
 Return Air Path,6,SYS_4_PSZ_ALL_ST=WAREHOUSE - FINE_FL=STORY 7_SCH=A RETURN PATH,SYS_4_PSZ_ALL_ST=WAREHOUSE - FINE_FL=STORY 7_SCH=A
   #Components on Return Air Path,1
   Return Air Path Component,1,AIRLOOPHVAC:ZONEMIXER,AIR LOOP HVAC ZONE MIXER 12,SYS_4_PSZ_ALL_ST=WAREHOUSE - FINE_FL=STORY 7_SCH=A
     #Inlet Nodes on Return Air Path Component,1
     Return Air Path Component Nodes,1,AIRLOOPHVAC:ZONEMIXER,AIR LOOP HVAC ZONE MIXER 12,NODE 413,NODE 406,SYS_4_PSZ_ALL_ST=WAREHOUSE - FINE_FL=STORY 7_SCH=A
! <#Nodes on Return Air Path>,<Number of Nodes>
! <Return Air Path Node>,<Node Type>,<Node Count>,<Node Name>,<AirLoopHVAC Name>
   #Nodes on Return Air Path,2
   Return Air Path Node,Outlet Node,1,NODE 406,SYS_4_PSZ_ALL_ST=WAREHOUSE - FINE_FL=STORY 7_SCH=A
   Return Air Path Node,Inlet Node,2,NODE 413,SYS_4_PSZ_ALL_ST=WAREHOUSE - FINE_FL=STORY 7_SCH=A
 Return Air Path,7,SYS_4_PSZ_ALL_ST=WAREHOUSE - MED/BLK2_FL=STORY 4_SCH=A RETURN PATH,SYS_4_PSZ_ALL_ST=WAREHOUSE - MED/BLK2_FL=STORY 4_SCH=A
   #Components on Return Air Path,1
   Return Air Path Component,1,AIRLOOPHVAC:ZONEMIXER,AIR LOOP HVAC ZONE MIXER 14,SYS_4_PSZ_ALL_ST=WAREHOUSE - MED/BLK2_FL=STORY 4_SCH=A
     #Inlet Nodes on Return Air Path Component,1
     Return Air Path Component Nodes,1,AIRLOOPHVAC:ZONEMIXER,AIR LOOP HVAC ZONE MIXER 14,NODE 439,NODE 432,SYS_4_PSZ_ALL_ST=WAREHOUSE - MED/BLK2_FL=STORY 4_SCH=A
! <#Nodes on Return Air Path>,<Number of Nodes>
! <Return Air Path Node>,<Node Type>,<Node Count>,<Node Name>,<AirLoopHVAC Name>
   #Nodes on Return Air Path,2
   Return Air Path Node,Outlet Node,1,NODE 432,SYS_4_PSZ_ALL_ST=WAREHOUSE - MED/BLK2_FL=STORY 4_SCH=A
   Return Air Path Node,Inlet Node,2,NODE 439,SYS_4_PSZ_ALL_ST=WAREHOUSE - MED/BLK2_FL=STORY 4_SCH=A
 Return Air Path,8,SYS_4_PSZ_ALL_ST=WAREHOUSE - MED/BLK_FL=STORY 2_SCH=A RETURN PATH,SYS_4_PSZ_ALL_ST=WAREHOUSE - MED/BLK_FL=STORY 2_SCH=A
   #Components on Return Air Path,1
   Return Air Path Component,1,AIRLOOPHVAC:ZONEMIXER,AIR LOOP HVAC ZONE MIXER 13,SYS_4_PSZ_ALL_ST=WAREHOUSE - MED/BLK_FL=STORY 2_SCH=A
     #Inlet Nodes on Return Air Path Component,1
     Return Air Path Component Nodes,1,AIRLOOPHVAC:ZONEMIXER,AIR LOOP HVAC ZONE MIXER 13,NODE 426,NODE 419,SYS_4_PSZ_ALL_ST=WAREHOUSE - MED/BLK_FL=STORY 2_SCH=A
! <#Nodes on Return Air Path>,<Number of Nodes>
! <Return Air Path Node>,<Node Type>,<Node Count>,<Node Name>,<AirLoopHVAC Name>
   #Nodes on Return Air Path,2
   Return Air Path Node,Outlet Node,1,NODE 419,SYS_4_PSZ_ALL_ST=WAREHOUSE - MED/BLK_FL=STORY 2_SCH=A
   Return Air Path Node,Inlet Node,2,NODE 426,SYS_4_PSZ_ALL_ST=WAREHOUSE - MED/BLK_FL=STORY 2_SCH=A
 Return Air Path,9,SYS_4_PSZ_WET_ST=WASHROOM-SCH-A_FL=STORY 1_SCHA RETURN PATH,SYS_4_PSZ_WET_ST=WASHROOM-SCH-A_FL=STORY 1_SCHA
   #Components on Return Air Path,1
   Return Air Path Component,1,AIRLOOPHVAC:ZONEMIXER,AIR LOOP HVAC ZONE MIXER 1,SYS_4_PSZ_WET_ST=WASHROOM-SCH-A_FL=STORY 1_SCHA
     #Inlet Nodes on Return Air Path Component,2
     Return Air Path Component Nodes,1,AIRLOOPHVAC:ZONEMIXER,AIR LOOP HVAC ZONE MIXER 1,NODE 36,NODE 26,SYS_4_PSZ_WET_ST=WASHROOM-SCH-A_FL=STORY 1_SCHA
     Return Air Path Component Nodes,2,AIRLOOPHVAC:ZONEMIXER,AIR LOOP HVAC ZONE MIXER 1,NODE 41,NODE 26,SYS_4_PSZ_WET_ST=WASHROOM-SCH-A_FL=STORY 1_SCHA
! <#Nodes on Return Air Path>,<Number of Nodes>
! <Return Air Path Node>,<Node Type>,<Node Count>,<Node Name>,<AirLoopHVAC Name>
   #Nodes on Return Air Path,3
   Return Air Path Node,Outlet Node,1,NODE 26,SYS_4_PSZ_WET_ST=WASHROOM-SCH-A_FL=STORY 1_SCHA
   Return Air Path Node,Inlet Node,2,NODE 36,SYS_4_PSZ_WET_ST=WASHROOM-SCH-A_FL=STORY 1_SCHA
   Return Air Path Node,Inlet Node,3,NODE 41,SYS_4_PSZ_WET_ST=WASHROOM-SCH-A_FL=STORY 1_SCHA
 Return Air Path,10,SYS_4_PSZ_WILD_ST=STAIRWAY-SCH-A_FL=STORY 4_SCH=A RETURN PATH,SYS_4_PSZ_WILD_ST=STAIRWAY-SCH-A_FL=STORY 4_SCH=A
   #Components on Return Air Path,1
   Return Air Path Component,1,AIRLOOPHVAC:ZONEMIXER,AIR LOOP HVAC ZONE MIXER 3,SYS_4_PSZ_WILD_ST=STAIRWAY-SCH-A_FL=STORY 4_SCH=A
     #Inlet Nodes on Return Air Path Component,9
     Return Air Path Component Nodes,1,AIRLOOPHVAC:ZONEMIXER,AIR LOOP HVAC ZONE MIXER 3,NODE 98,NODE 87,SYS_4_PSZ_WILD_ST=STAIRWAY-SCH-A_FL=STORY 4_SCH=A
     Return Air Path Component Nodes,2,AIRLOOPHVAC:ZONEMIXER,AIR LOOP HVAC ZONE MIXER 3,NODE 104,NODE 87,SYS_4_PSZ_WILD_ST=STAIRWAY-SCH-A_FL=STORY 4_SCH=A
     Return Air Path Component Nodes,3,AIRLOOPHVAC:ZONEMIXER,AIR LOOP HVAC ZONE MIXER 3,NODE 110,NODE 87,SYS_4_PSZ_WILD_ST=STAIRWAY-SCH-A_FL=STORY 4_SCH=A
     Return Air Path Component Nodes,4,AIRLOOPHVAC:ZONEMIXER,AIR LOOP HVAC ZONE MIXER 3,NODE 116,NODE 87,SYS_4_PSZ_WILD_ST=STAIRWAY-SCH-A_FL=STORY 4_SCH=A
     Return Air Path Component Nodes,5,AIRLOOPHVAC:ZONEMIXER,AIR LOOP HVAC ZONE MIXER 3,NODE 121,NODE 87,SYS_4_PSZ_WILD_ST=STAIRWAY-SCH-A_FL=STORY 4_SCH=A
     Return Air Path Component Nodes,6,AIRLOOPHVAC:ZONEMIXER,AIR LOOP HVAC ZONE MIXER 3,NODE 125,NODE 87,SYS_4_PSZ_WILD_ST=STAIRWAY-SCH-A_FL=STORY 4_SCH=A
[...]
 Non-Parent Node Connection,NODE 425,CONTROLLER:OUTDOORAIR,CONTROLLER OUTDOOR AIR 13,Sensor,1
 Non-Parent Node Connection,NODE 421,CONTROLLER:OUTDOORAIR,CONTROLLER OUTDOOR AIR 13,Actuator,1
 Non-Parent Node Connection,NODE 422,CONTROLLER:OUTDOORAIR,CONTROLLER OUTDOOR AIR 13,Actuator,1
 Non-Parent Node Connection,NODE 416,CONTROLLER:OUTDOORAIR,CONTROLLER OUTDOOR AIR 13,Sensor,1
 Non-Parent Node Connection,NODE 35,CONTROLLER:OUTDOORAIR,CONTROLLER OUTDOOR AIR 1,Sensor,1
 Non-Parent Node Connection,NODE 29,CONTROLLER:OUTDOORAIR,CONTROLLER OUTDOOR AIR 1,Actuator,1
 Non-Parent Node Connection,NODE 30,CONTROLLER:OUTDOORAIR,CONTROLLER OUTDOOR AIR 1,Actuator,1
 Non-Parent Node Connection,NODE 21,CONTROLLER:OUTDOORAIR,CONTROLLER OUTDOOR AIR 1,Sensor,1
 Non-Parent Node Connection,NODE 96,CONTROLLER:OUTDOORAIR,CONTROLLER OUTDOOR AIR 3,Sensor,1
 Non-Parent Node Connection,NODE 90,CONTROLLER:OUTDOORAIR,CONTROLLER OUTDOOR AIR 3,Actuator,1
 Non-Parent Node Connection,NODE 649,CONTROLLER:OUTDOORAIR,CONTROLLER OUTDOOR AIR 3,Actuator,1
 Non-Parent Node Connection,NODE 83,CONTROLLER:OUTDOORAIR,CONTROLLER OUTDOOR AIR 3,Sensor,1
 Non-Parent Node Connection,NODE 192,CONTROLLER:OUTDOORAIR,CONTROLLER OUTDOOR AIR 5,Sensor,1
 Non-Parent Node Connection,NODE 188,CONTROLLER:OUTDOORAIR,CONTROLLER OUTDOOR AIR 5,Actuator,1
 Non-Parent Node Connection,NODE 651,CONTROLLER:OUTDOORAIR,CONTROLLER OUTDOOR AIR 5,Actuator,1
 Non-Parent Node Connection,NODE 193,CONTROLLER:OUTDOORAIR,CONTROLLER OUTDOOR AIR 5,Sensor,1
 Non-Parent Node Connection,NODE 213,CONTROLLER:OUTDOORAIR,CONTROLLER OUTDOOR AIR 6,Sensor,1
 Non-Parent Node Connection,NODE 209,CONTROLLER:OUTDOORAIR,CONTROLLER OUTDOOR AIR 6,Actuator,1
 Non-Parent Node Connection,NODE 653,CONTROLLER:OUTDOORAIR,CONTROLLER OUTDOOR AIR 6,Actuator,1
 Non-Parent Node Connection,NODE 214,CONTROLLER:OUTDOORAIR,CONTROLLER OUTDOOR AIR 6,Sensor,1
 Non-Parent Node Connection,NODE 234,CONTROLLER:OUTDOORAIR,CONTROLLER OUTDOOR AIR 7,Sensor,1
 Non-Parent Node Connection,NODE 230,CONTROLLER:OUTDOORAIR,CONTROLLER OUTDOOR AIR 7,Actuator,1
 Non-Parent Node Connection,NODE 231,CONTROLLER:OUTDOORAIR,CONTROLLER OUTDOOR AIR 7,Actuator,1
 Non-Parent Node Connection,NODE 235,CONTROLLER:OUTDOORAIR,CONTROLLER OUTDOOR AIR 7,Sensor,1
 Non-Parent Node Connection,NODE 255,CONTROLLER:OUTDOORAIR,CONTROLLER OUTDOOR AIR 8,Sensor,1
 Non-Parent Node Connection,NODE 251,CONTROLLER:OUTDOORAIR,CONTROLLER OUTDOOR AIR 8,Actuator,1
 Non-Parent Node Connection,NODE 655,CONTROLLER:OUTDOORAIR,CONTROLLER OUTDOOR AIR 8,Actuator,1
 Non-Parent Node Connection,NODE 256,CONTROLLER:OUTDOORAIR,CONTROLLER OUTDOOR AIR 8,Sensor,1
 Non-Parent Node Connection,NODE 290,CONTROLLER:OUTDOORAIR,CONTROLLER OUTDOOR AIR 9,Sensor,1
 Non-Parent Node Connection,NODE 286,CONTROLLER:OUTDOORAIR,CONTROLLER OUTDOOR AIR 9,Actuator,1
 Non-Parent Node Connection,NODE 657,CONTROLLER:OUTDOORAIR,CONTROLLER OUTDOOR AIR 9,Actuator,1
 Non-Parent Node Connection,NODE 291,CONTROLLER:OUTDOORAIR,CONTROLLER OUTDOOR AIR 9,Sensor,1
 Non-Parent Node Connection,NODE 339,CONTROLLER:OUTDOORAIR,CONTROLLER OUTDOOR AIR 10,Sensor,1
 Non-Parent Node Connection,NODE 335,CONTROLLER:OUTDOORAIR,CONTROLLER OUTDOOR AIR 10,Actuator,1
 Non-Parent Node Connection,NODE 659,CONTROLLER:OUTDOORAIR,CONTROLLER OUTDOOR AIR 10,Actuator,1
 Non-Parent Node Connection,NODE 340,CONTROLLER:OUTDOORAIR,CONTROLLER OUTDOOR AIR 10,Sensor,1
 Non-Parent Node Connection,NODE 381,CONTROLLER:OUTDOORAIR,CONTROLLER OUTDOOR AIR 11,Sensor,1
 Non-Parent Node Connection,NODE 377,CONTROLLER:OUTDOORAIR,CONTROLLER OUTDOOR AIR 11,Actuator,1
 Non-Parent Node Connection,NODE 661,CONTROLLER:OUTDOORAIR,CONTROLLER OUTDOOR AIR 11,Actuator,1
 Non-Parent Node Connection,NODE 382,CONTROLLER:OUTDOORAIR,CONTROLLER OUTDOOR AIR 11,Sensor,1
 Non-Parent Node Connection,NODE 478,COIL:COOLING:DX:SINGLESPEED,COIL COOLING DX SINGLE SPEED 8 120KBTU/HR 9.7EER,Inlet,1
 Non-Parent Node Connection,NODE 477,COIL:COOLING:DX:SINGLESPEED,COIL COOLING DX SINGLE SPEED 8 120KBTU/HR 9.7EER,Outlet,1
 Non-Parent Node Connection,NODE 521,COIL:COOLING:DX:SINGLESPEED,COIL COOLING DX SINGLE SPEED 9 64KBTU/HR 14.0SEER,Inlet,1
 Non-Parent Node Connection,NODE 520,COIL:COOLING:DX:SINGLESPEED,COIL COOLING DX SINGLE SPEED 9 64KBTU/HR 14.0SEER,Outlet,1
 Non-Parent Node Connection,NODE 564,COIL:COOLING:DX:SINGLESPEED,COIL COOLING DX SINGLE SPEED 10 218KBTU/HR 9.7EER,Inlet,1
 Non-Parent Node Connection,NODE 563,COIL:COOLING:DX:SINGLESPEED,COIL COOLING DX SINGLE SPEED 10 218KBTU/HR 9.7EER,Outlet,1
 Non-Parent Node Connection,NODE 149,COIL:COOLING:DX:SINGLESPEED,COIL COOLING DX SINGLE SPEED 4 379KBTU/HR 8.21EER,Inlet,1
 Non-Parent Node Connection,NODE 148,COIL:COOLING:DX:SINGLESPEED,COIL COOLING DX SINGLE SPEED 4 379KBTU/HR 8.21EER,Outlet,1
 Non-Parent Node Connection,NODE 59,COIL:COOLING:DX:SINGLESPEED,COIL COOLING DX SINGLE SPEED 2 457KBTU/HR 8.21EER,Inlet,1
 Non-Parent Node Connection,NODE 57,COIL:COOLING:DX:SINGLESPEED,COIL COOLING DX SINGLE SPEED 2 457KBTU/HR 8.21EER,Outlet,1
 Non-Parent Node Connection,NODE 412,COIL:COOLING:DX:SINGLESPEED,COIL COOLING DX SINGLE SPEED 5 172KBTU/HR 9.7EER,Inlet,1
 Non-Parent Node Connection,NODE 411,COIL:COOLING:DX:SINGLESPEED,COIL COOLING DX SINGLE SPEED 5 172KBTU/HR 9.7EER,Outlet,1
 Non-Parent Node Connection,NODE 438,COIL:COOLING:DX:SINGLESPEED,COIL COOLING DX SINGLE SPEED 7 195KBTU/HR 9.7EER,Inlet,1
 Non-Parent Node Connection,NODE 437,COIL:COOLING:DX:SINGLESPEED,COIL COOLING DX SINGLE SPEED 7 195KBTU/HR 9.7EER,Outlet,1
 Non-Parent Node Connection,NODE 425,COIL:COOLING:DX:SINGLESPEED,COIL COOLING DX SINGLE SPEED 6 141KBTU/HR 9.7EER,Inlet,1
 Non-Parent Node Connection,NODE 424,COIL:COOLING:DX:SINGLESPEED,COIL COOLING DX SINGLE SPEED 6 141KBTU/HR 9.7EER,Outlet,1
 Non-Parent Node Connection,NODE 35,COIL:COOLING:DX:SINGLESPEED,COIL COOLING DX SINGLE SPEED 1 222KBTU/HR 9.7EER,Inlet,1
 Non-Parent Node Connection,NODE 33,COIL:COOLING:DX:SINGLESPEED,COIL COOLING DX SINGLE SPEED 1 222KBTU/HR 9.7EER,Outlet,1
 Non-Parent Node Connection,NODE 96,COIL:COOLING:DX:SINGLESPEED,COIL COOLING DX SINGLE SPEED 3 1267KBTU/HR 7.94EER,Inlet,1
 Non-Parent Node Connection,NODE 95,COIL:COOLING:DX:SINGLESPEED,COIL COOLING DX SINGLE SPEED 3 1267KBTU/HR 7.94EER,Outlet,1
 Non-Parent Node Connection,NODE 477,COIL:HEATING:FUEL,COIL HEATING GAS 8,Inlet,1
 Non-Parent Node Connection,NODE 476,COIL:HEATING:FUEL,COIL HEATING GAS 8,Outlet,1
 Non-Parent Node Connection,NODE 476,COIL:HEATING:FUEL,COIL HEATING GAS 8,Sensor,1
 Non-Parent Node Connection,NODE 520,COIL:HEATING:FUEL,COIL HEATING GAS 9,Inlet,1
 Non-Parent Node Connection,NODE 519,COIL:HEATING:FUEL,COIL HEATING GAS 9,Outlet,1
 Non-Parent Node Connection,NODE 519,COIL:HEATING:FUEL,COIL HEATING GAS 9,Sensor,1
 Non-Parent Node Connection,NODE 563,COIL:HEATING:FUEL,COIL HEATING GAS 10,Inlet,1
 Non-Parent Node Connection,NODE 562,COIL:HEATING:FUEL,COIL HEATING GAS 10,Outlet,1
 Non-Parent Node Connection,NODE 562,COIL:HEATING:FUEL,COIL HEATING GAS 10,Sensor,1
 Non-Parent Node Connection,NODE 148,COIL:HEATING:FUEL,COIL HEATING GAS 4,Inlet,1
 Non-Parent Node Connection,NODE 147,COIL:HEATING:FUEL,COIL HEATING GAS 4,Outlet,1
 Non-Parent Node Connection,NODE 147,COIL:HEATING:FUEL,COIL HEATING GAS 4,Sensor,1
 Non-Parent Node Connection,NODE 57,COIL:HEATING:FUEL,COIL HEATING GAS 2,Inlet,1
 Non-Parent Node Connection,NODE 56,COIL:HEATING:FUEL,COIL HEATING GAS 2,Outlet,1
 Non-Parent Node Connection,NODE 56,COIL:HEATING:FUEL,COIL HEATING GAS 2,Sensor,1
 Non-Parent Node Connection,NODE 411,COIL:HEATING:FUEL,COIL HEATING GAS 5,Inlet,1
 Non-Parent Node Connection,NODE 410,COIL:HEATING:FUEL,COIL HEATING GAS 5,Outlet,1
 Non-Parent Node Connection,NODE 410,COIL:HEATING:FUEL,COIL HEATING GAS 5,Sensor,1
 Non-Parent Node Connection,NODE 437,COIL:HEATING:FUEL,COIL HEATING GAS 7,Inlet,1
 Non-Parent Node Connection,NODE 436,COIL:HEATING:FUEL,COIL HEATING GAS 7,Outlet,1
 Non-Parent Node Connection,NODE 436,COIL:HEATING:FUEL,COIL HEATING GAS 7,Sensor,1
 Non-Parent Node Connection,NODE 424,COIL:HEATING:FUEL,COIL HEATING GAS 6,Inlet,1
 Non-Parent Node Connection,NODE 423,COIL:HEATING:FUEL,COIL HEATING GAS 6,Outlet,1
 Non-Parent Node Connection,NODE 423,COIL:HEATING:FUEL,COIL HEATING GAS 6,Sensor,1
 Non-Parent Node Connection,NODE 33,COIL:HEATING:FUEL,COIL HEATING GAS 1,Inlet,1
 Non-Parent Node Connection,NODE 32,COIL:HEATING:FUEL,COIL HEATING GAS 1,Outlet,1
 Non-Parent Node Connection,NODE 32,COIL:HEATING:FUEL,COIL HEATING GAS 1,Sensor,1
 Non-Parent Node Connection,NODE 95,COIL:HEATING:FUEL,COIL HEATING GAS 3,Inlet,1
 Non-Parent Node Connection,NODE 93,COIL:HEATING:FUEL,COIL HEATING GAS 3,Outlet,1
 Non-Parent Node Connection,NODE 93,COIL:HEATING:FUEL,COIL HEATING GAS 3,Sensor,1
 Non-Parent Node Connection,NODE 145,HEATEXCHANGER:AIRTOAIR:SENSIBLEANDLATENT,SYS_3_PSZ ALL_ST=PENITENTIARY - DINING_FL=STORY 8_SCH=B ERV,Inlet,1
 Non-Parent Node Connection,NODE 644,HEATEXCHANGER:AIRTOAIR:SENSIBLEANDLATENT,SYS_3_PSZ ALL_ST=PENITENTIARY - DINING_FL=STORY 8_SCH=B ERV,Outlet,1
 Non-Parent Node Connection,NODE 645,HEATEXCHANGER:AIRTOAIR:SENSIBLEANDLATENT,SYS_3_PSZ ALL_ST=PENITENTIARY - DINING_FL=STORY 8_SCH=B ERV,Inlet,2
 Non-Parent Node Connection,NODE 146,HEATEXCHANGER:AIRTOAIR:SENSIBLEANDLATENT,SYS_3_PSZ ALL_ST=PENITENTIARY - DINING_FL=STORY 8_SCH=B ERV,Outlet,2
 Non-Parent Node Connection,NODE 53,HEATEXCHANGER:AIRTOAIR:SENSIBLEANDLATENT,SYS_4_PSZ_ALL_ST=STORAGE AREA_FL=STORY 2_SCH=E ERV,Inlet,1
 Non-Parent Node Connection,NODE 646,HEATEXCHANGER:AIRTOAIR:SENSIBLEANDLATENT,SYS_4_PSZ_ALL_ST=STORAGE AREA_FL=STORY 2_SCH=E ERV,Outlet,1
 Non-Parent Node Connection,NODE 647,HEATEXCHANGER:AIRTOAIR:SENSIBLEANDLATENT,SYS_4_PSZ_ALL_ST=STORAGE AREA_FL=STORY 2_SCH=E ERV,Inlet,2
 Non-Parent Node Connection,NODE 54,HEATEXCHANGER:AIRTOAIR:SENSIBLEANDLATENT,SYS_4_PSZ_ALL_ST=STORAGE AREA_FL=STORY 2_SCH=E ERV,Outlet,2
 Non-Parent Node Connection,NODE 90,HEATEXCHANGER:AIRTOAIR:SENSIBLEANDLATENT,SYS_4_PSZ_WILD_ST=STAIRWAY-SCH-A_FL=STORY 4_SCH=A ERV,Inlet,1
 Non-Parent Node Connection,NODE 648,HEATEXCHANGER:AIRTOAIR:SENSIBLEANDLATENT,SYS_4_PSZ_WILD_ST=STAIRWAY-SCH-A_FL=STORY 4_SCH=A ERV,Outlet,1
 Non-Parent Node Connection,NODE 649,HEATEXCHANGER:AIRTOAIR:SENSIBLEANDLATENT,SYS_4_PSZ_WILD_ST=STAIRWAY-SCH-A_FL=STORY 4_SCH=A ERV,Inlet,2
 Non-Parent Node Connection,NODE 92,HEATEXCHANGER:AIRTOAIR:SENSIBLEANDLATENT,SYS_4_PSZ_WILD_ST=STAIRWAY-SCH-A_FL=STORY 4_SCH=A ERV,Outlet,2
 Non-Parent Node Connection,NODE 188,HEATEXCHANGER:AIRTOAIR:SENSIBLEANDLATENT,SYS_6_VAV WITH REHEAT ERV,Inlet,1
 Non-Parent Node Connection,NODE 650,HEATEXCHANGER:AIRTOAIR:SENSIBLEANDLATENT,SYS_6_VAV WITH REHEAT ERV,Outlet,1
 Non-Parent Node Connection,NODE 651,HEATEXCHANGER:AIRTOAIR:SENSIBLEANDLATENT,SYS_6_VAV WITH REHEAT ERV,Inlet,2
 Non-Parent Node Connection,NODE 189,HEATEXCHANGER:AIRTOAIR:SENSIBLEANDLATENT,SYS_6_VAV WITH REHEAT ERV,Outlet,2
 Non-Parent Node Connection,NODE 209,HEATEXCHANGER:AIRTOAIR:SENSIBLEANDLATENT,SYS_6_VAV WITH REHEAT 1 ERV,Inlet,1
 Non-Parent Node Connection,NODE 652,HEATEXCHANGER:AIRTOAIR:SENSIBLEANDLATENT,SYS_6_VAV WITH REHEAT 1 ERV,Outlet,1
 Non-Parent Node Connection,NODE 653,HEATEXCHANGER:AIRTOAIR:SENSIBLEANDLATENT,SYS_6_VAV WITH REHEAT 1 ERV,Inlet,2
 Non-Parent Node Connection,NODE 210,HEATEXCHANGER:AIRTOAIR:SENSIBLEANDLATENT,SYS_6_VAV WITH REHEAT 1 ERV,Outlet,2
 Non-Parent Node Connection,NODE 251,HEATEXCHANGER:AIRTOAIR:SENSIBLEANDLATENT,SYS_6_VAV WITH REHEAT 3 ERV,Inlet,1
 Non-Parent Node Connection,NODE 654,HEATEXCHANGER:AIRTOAIR:SENSIBLEANDLATENT,SYS_6_VAV WITH REHEAT 3 ERV,Outlet,1
 Non-Parent Node Connection,NODE 655,HEATEXCHANGER:AIRTOAIR:SENSIBLEANDLATENT,SYS_6_VAV WITH REHEAT 3 ERV,Inlet,2
 Non-Parent Node Connection,NODE 252,HEATEXCHANGER:AIRTOAIR:SENSIBLEANDLATENT,SYS_6_VAV WITH REHEAT 3 ERV,Outlet,2
 Non-Parent Node Connection,NODE 286,HEATEXCHANGER:AIRTOAIR:SENSIBLEANDLATENT,SYS_6_VAV WITH REHEAT 4 ERV,Inlet,1
 Non-Parent Node Connection,NODE 656,HEATEXCHANGER:AIRTOAIR:SENSIBLEANDLATENT,SYS_6_VAV WITH REHEAT 4 ERV,Outlet,1
 Non-Parent Node Connection,NODE 657,HEATEXCHANGER:AIRTOAIR:SENSIBLEANDLATENT,SYS_6_VAV WITH REHEAT 4 ERV,Inlet,2
 Non-Parent Node Connection,NODE 287,HEATEXCHANGER:AIRTOAIR:SENSIBLEANDLATENT,SYS_6_VAV WITH REHEAT 4 ERV,Outlet,2
 Non-Parent Node Connection,NODE 335,HEATEXCHANGER:AIRTOAIR:SENSIBLEANDLATENT,SYS_6_VAV WITH REHEAT 5 ERV,Inlet,1
 Non-Parent Node Connection,NODE 658,HEATEXCHANGER:AIRTOAIR:SENSIBLEANDLATENT,SYS_6_VAV WITH REHEAT 5 ERV,Outlet,1
 Non-Parent Node Connection,NODE 659,HEATEXCHANGER:AIRTOAIR:SENSIBLEANDLATENT,SYS_6_VAV WITH REHEAT 5 ERV,Inlet,2
 Non-Parent Node Connection,NODE 336,HEATEXCHANGER:AIRTOAIR:SENSIBLEANDLATENT,SYS_6_VAV WITH REHEAT 5 ERV,Outlet,2
 Non-Parent Node Connection,NODE 377,HEATEXCHANGER:AIRTOAIR:SENSIBLEANDLATENT,SYS_6_VAV WITH REHEAT 6 ERV,Inlet,1
 Non-Parent Node Connection,NODE 660,HEATEXCHANGER:AIRTOAIR:SENSIBLEANDLATENT,SYS_6_VAV WITH REHEAT 6 ERV,Outlet,1
 Non-Parent Node Connection,NODE 661,HEATEXCHANGER:AIRTOAIR:SENSIBLEANDLATENT,SYS_6_VAV WITH REHEAT 6 ERV,Inlet,2
 Non-Parent Node Connection,NODE 378,HEATEXCHANGER:AIRTOAIR:SENSIBLEANDLATENT,SYS_6_VAV WITH REHEAT 6 ERV,Outlet,2
 Non-Parent Node Connection,NODE 155,CHILLER:ELECTRIC:EIR,PRIMARY CHILLER WATERCOOLED SCROLL 521TONS 0.6KW/TON,Inlet,1
 Non-Parent Node Connection,NODE 160,CHILLER:ELECTRIC:EIR,PRIMARY CHILLER WATERCOOLED SCROLL 521TONS 0.6KW/TON,Outlet,1
 Non-Parent Node Connection,NODE 171,CHILLER:ELECTRIC:EIR,PRIMARY CHILLER WATERCOOLED SCROLL 521TONS 0.6KW/TON,Inlet,2
 Non-Parent Node Connection,NODE 177,CHILLER:ELECTRIC:EIR,PRIMARY CHILLER WATERCOOLED SCROLL 521TONS 0.6KW/TON,Outlet,2
 Non-Parent Node Connection,NODE 161,CHILLER:ELECTRIC:EIR,SECONDARY CHILLER WATERCOOLED SCROLL 0TONS 0.8KW/TON,Inlet,1
 Non-Parent Node Connection,NODE 162,CHILLER:ELECTRIC:EIR,SECONDARY CHILLER WATERCOOLED SCROLL 0TONS 0.8KW/TON,Outlet,1
 Non-Parent Node Connection,NODE 178,CHILLER:ELECTRIC:EIR,SECONDARY CHILLER WATERCOOLED SCROLL 0TONS 0.8KW/TON,Inlet,2
 Non-Parent Node Connection,NODE 179,CHILLER:ELECTRIC:EIR,SECONDARY CHILLER WATERCOOLED SCROLL 0TONS 0.8KW/TON,Outlet,2
 Non-Parent Node Connection,NODE 444,CHILLER:ELECTRIC:EIR,PRIMARY CHILLER WATERCOOLED SCROLL 1 9TONS 0.8KW/TON,Inlet,1
 Non-Parent Node Connection,NODE 449,CHILLER:ELECTRIC:EIR,PRIMARY CHILLER WATERCOOLED SCROLL 1 9TONS 0.8KW/TON,Outlet,1
 Non-Parent Node Connection,NODE 460,CHILLER:ELECTRIC:EIR,PRIMARY CHILLER WATERCOOLED SCROLL 1 9TONS 0.8KW/TON,Inlet,2
 Non-Parent Node Connection,NODE 466,CHILLER:ELECTRIC:EIR,PRIMARY CHILLER WATERCOOLED SCROLL 1 9TONS 0.8KW/TON,Outlet,2
 Non-Parent Node Connection,NODE 450,CHILLER:ELECTRIC:EIR,SECONDARY CHILLER WATERCOOLED SCROLL 1 0TONS 0.8KW/TON,Inlet,1
 Non-Parent Node Connection,NODE 451,CHILLER:ELECTRIC:EIR,SECONDARY CHILLER WATERCOOLED SCROLL 1 0TONS 0.8KW/TON,Outlet,1
 Non-Parent Node Connection,NODE 467,CHILLER:ELECTRIC:EIR,SECONDARY CHILLER WATERCOOLED SCROLL 1 0TONS 0.8KW/TON,Inlet,2
 Non-Parent Node Connection,NODE 468,CHILLER:ELECTRIC:EIR,SECONDARY CHILLER WATERCOOLED SCROLL 1 0TONS 0.8KW/TON,Outlet,2
 Non-Parent Node Connection,NODE 487,CHILLER:ELECTRIC:EIR,PRIMARY CHILLER WATERCOOLED SCROLL 2 5TONS 0.8KW/TON,Inlet,1
 Non-Parent Node Connection,NODE 492,CHILLER:ELECTRIC:EIR,PRIMARY CHILLER WATERCOOLED SCROLL 2 5TONS 0.8KW/TON,Outlet,1
 Non-Parent Node Connection,NODE 503,CHILLER:ELECTRIC:EIR,PRIMARY CHILLER WATERCOOLED SCROLL 2 5TONS 0.8KW/TON,Inlet,2
 Non-Parent Node Connection,NODE 509,CHILLER:ELECTRIC:EIR,PRIMARY CHILLER WATERCOOLED SCROLL 2 5TONS 0.8KW/TON,Outlet,2
 Non-Parent Node Connection,NODE 493,CHILLER:ELECTRIC:EIR,SECONDARY CHILLER WATERCOOLED SCROLL 2 0TONS 0.8KW/TON,Inlet,1
 Non-Parent Node Connection,NODE 494,CHILLER:ELECTRIC:EIR,SECONDARY CHILLER WATERCOOLED SCROLL 2 0TONS 0.8KW/TON,Outlet,1
 Non-Parent Node Connection,NODE 510,CHILLER:ELECTRIC:EIR,SECONDARY CHILLER WATERCOOLED SCROLL 2 0TONS 0.8KW/TON,Inlet,2
 Non-Parent Node Connection,NODE 511,CHILLER:ELECTRIC:EIR,SECONDARY CHILLER WATERCOOLED SCROLL 2 0TONS 0.8KW/TON,Outlet,2
 Non-Parent Node Connection,NODE 530,CHILLER:ELECTRIC:EIR,PRIMARY CHILLER WATERCOOLED SCROLL 3 15TONS 0.8KW/TON,Inlet,1
 Non-Parent Node Connection,NODE 535,CHILLER:ELECTRIC:EIR,PRIMARY CHILLER WATERCOOLED SCROLL 3 15TONS 0.8KW/TON,Outlet,1
 Non-Parent Node Connection,NODE 546,CHILLER:ELECTRIC:EIR,PRIMARY CHILLER WATERCOOLED SCROLL 3 15TONS 0.8KW/TON,Inlet,2
 Non-Parent Node Connection,NODE 552,CHILLER:ELECTRIC:EIR,PRIMARY CHILLER WATERCOOLED SCROLL 3 15TONS 0.8KW/TON,Outlet,2
 Non-Parent Node Connection,NODE 536,CHILLER:ELECTRIC:EIR,SECONDARY CHILLER WATERCOOLED SCROLL 3 0TONS 0.8KW/TON,Inlet,1
 Non-Parent Node Connection,NODE 537,CHILLER:ELECTRIC:EIR,SECONDARY CHILLER WATERCOOLED SCROLL 3 0TONS 0.8KW/TON,Outlet,1
 Non-Parent Node Connection,NODE 553,CHILLER:ELECTRIC:EIR,SECONDARY CHILLER WATERCOOLED SCROLL 3 0TONS 0.8KW/TON,Inlet,2
 Non-Parent Node Connection,NODE 554,CHILLER:ELECTRIC:EIR,SECONDARY CHILLER WATERCOOLED SCROLL 3 0TONS 0.8KW/TON,Outlet,2
 Non-Parent Node Connection,NODE 168,COOLINGTOWER:SINGLESPEED,COOLING TOWER SINGLE SPEED 1,Inlet,1
 Non-Parent Node Connection,NODE 173,COOLINGTOWER:SINGLESPEED,COOLING TOWER SINGLE SPEED 1,Outlet,1
 Non-Parent Node Connection,NODE 457,COOLINGTOWER:SINGLESPEED,COOLING TOWER SINGLE SPEED 2,Inlet,1
 Non-Parent Node Connection,NODE 462,COOLINGTOWER:SINGLESPEED,COOLING TOWER SINGLE SPEED 2,Outlet,1
 Non-Parent Node Connection,NODE 500,COOLINGTOWER:SINGLESPEED,COOLING TOWER SINGLE SPEED 3,Inlet,1
 Non-Parent Node Connection,NODE 505,COOLINGTOWER:SINGLESPEED,COOLING TOWER SINGLE SPEED 3,Outlet,1
 Non-Parent Node Connection,NODE 543,COOLINGTOWER:SINGLESPEED,COOLING TOWER SINGLE SPEED 4,Inlet,1
 Non-Parent Node Connection,NODE 548,COOLINGTOWER:SINGLESPEED,COOLING TOWER SINGLE SPEED 4,Outlet,1
 Non-Parent Node Connection,NODE 5,BOILER:HOTWATER,PRIMARY BOILER 11387KBTU/HR 0.833 COMBUSTION EFF,Inlet,1
 Non-Parent Node Connection,NODE 12,BOILER:HOTWATER,PRIMARY BOILER 11387KBTU/HR 0.833 COMBUSTION EFF,Outlet,1
 Non-Parent Node Connection,NODE 14,BOILER:HOTWATER,SECONDARY BOILER 0KBTU/HR 0.85 AFUE,Inlet,1
 Non-Parent Node Connection,NODE 15,BOILER:HOTWATER,SECONDARY BOILER 0KBTU/HR 0.85 AFUE,Outlet,1
 Non-Parent Node Connection,NODE 2,PUMP:VARIABLESPEED,PUMP VARIABLE SPEED 1,Inlet,1
 Non-Parent Node Connection,NODE 11,PUMP:VARIABLESPEED,PUMP VARIABLE SPEED 1,Outlet,1
 Non-Parent Node Connection,NODE 153,PUMP:CONSTANTSPEED,PUMP CONSTANT SPEED 1,Inlet,1
 Non-Parent Node Connection,NODE 159,PUMP:CONSTANTSPEED,PUMP CONSTANT SPEED 1,Outlet,1
 Non-Parent Node Connection,NODE 442,PUMP:CONSTANTSPEED,PUMP CONSTANT SPEED 3,Inlet,1
 Non-Parent Node Connection,NODE 448,PUMP:CONSTANTSPEED,PUMP CONSTANT SPEED 3,Outlet,1
 Non-Parent Node Connection,NODE 485,PUMP:CONSTANTSPEED,PUMP CONSTANT SPEED 5,Inlet,1
 Non-Parent Node Connection,NODE 491,PUMP:CONSTANTSPEED,PUMP CONSTANT SPEED 5,Outlet,1
 Non-Parent Node Connection,NODE 528,PUMP:CONSTANTSPEED,PUMP CONSTANT SPEED 7,Inlet,1
 Non-Parent Node Connection,NODE 534,PUMP:CONSTANTSPEED,PUMP CONSTANT SPEED 7,Outlet,1
 Non-Parent Node Connection,NODE 166,PUMP:CONSTANTSPEED,PUMP CONSTANT SPEED 2,Inlet,1
 Non-Parent Node Connection,NODE 172,PUMP:CONSTANTSPEED,PUMP CONSTANT SPEED 2,Outlet,1
 Non-Parent Node Connection,NODE 455,PUMP:CONSTANTSPEED,PUMP CONSTANT SPEED 4,Inlet,1
 Non-Parent Node Connection,NODE 461,PUMP:CONSTANTSPEED,PUMP CONSTANT SPEED 4,Outlet,1
 Non-Parent Node Connection,NODE 498,PUMP:CONSTANTSPEED,PUMP CONSTANT SPEED 6,Inlet,1
 Non-Parent Node Connection,NODE 504,PUMP:CONSTANTSPEED,PUMP CONSTANT SPEED 6,Outlet,1
 Non-Parent Node Connection,NODE 541,PUMP:CONSTANTSPEED,PUMP CONSTANT SPEED 8,Inlet,1
 Non-Parent Node Connection,NODE 547,PUMP:CONSTANTSPEED,PUMP CONSTANT SPEED 8,Outlet,1
 Non-Parent Node Connection,NODE 571,PUMP:CONSTANTSPEED,SERVICE WATER LOOP PUMP,Inlet,1
 Non-Parent Node Connection,NODE 577,PUMP:CONSTANTSPEED,SERVICE WATER LOOP PUMP,Outlet,1
