Program Version,EnergyPlus, Version 8.9.0-eba93e8e1b, YMD=2019.03.06 15:05
! <Version>, Version ID
 Version, 8.9
! <Timesteps per Hour>, #TimeSteps, Minutes per TimeStep {minutes}
 Timesteps per Hour,  6, 10
! <System Convergence Limits>, Minimum System TimeStep {minutes}, Max HVAC Iterations, Minimum Plant Iterations, Maximum Plant Iterations
 System Convergence Limits, 1, 20, 2, 8
! <Simulation Control>, Do Zone Sizing, Do System Sizing, Do Plant Sizing, Do Design Days, Do Weather Simulation, Do HVAC Sizing Simulation
 Simulation Control, Yes, Yes, Yes, No, Yes, No
! <Output Reporting Tolerances>, Tolerance for Time Heating Setpoint Not Met, Tolerance for Zone Cooling Setpoint Not Met Time
 Output Reporting Tolerances, 1.000, 1.000, 
! <Site:GroundTemperature:BuildingSurface>,Jan{C},Feb{C},Mar{C},Apr{C},May{C},Jun{C},Jul{C},Aug{C},Sep{C},Oct{C},Nov{C},Dec{C}
 Site:GroundTemperature:BuildingSurface,  19.53,  19.50,  19.54,  19.60,  20.00,  21.64,  22.23,  22.38,  21.45,  20.12,  19.80,  19.63
! <Site:GroundTemperature:FCfactorMethod>,Jan{C},Feb{C},Mar{C},Apr{C},May{C},Jun{C},Jul{C},Aug{C},Sep{C},Oct{C},Nov{C},Dec{C}
 Site:GroundTemperature:FCfactorMethod, -12.27, -13.66, -11.19,  -7.33,   2.77,  10.57,  15.83,  17.43,  14.70,   8.65,   0.56,  -6.95
! <Site:GroundTemperature:Shallow>,Jan{C},Feb{C},Mar{C},Apr{C},May{C},Jun{C},Jul{C},Aug{C},Sep{C},Oct{C},Nov{C},Dec{C}
 Site:GroundTemperature:Shallow,  13.00,  13.00,  13.00,  13.00,  13.00,  13.00,  13.00,  13.00,  13.00,  13.00,  13.00,  13.00
! <Site:GroundTemperature:Deep>,Jan{C},Feb{C},Mar{C},Apr{C},May{C},Jun{C},Jul{C},Aug{C},Sep{C},Oct{C},Nov{C},Dec{C}
 Site:GroundTemperature:Deep,  16.00,  16.00,  16.00,  16.00,  16.00,  16.00,  16.00,  16.00,  16.00,  16.00,  16.00,  16.00
! <Site:GroundReflectance>,Jan{dimensionless},Feb{dimensionless},Mar{dimensionless},Apr{dimensionless},May{dimensionless},Jun{dimensionless},Jul{dimensionless},Aug{dimensionless},Sep{dimensionless},Oct{dimensionless},Nov{dimensionless},Dec{dimensionless}
 Site:GroundReflectance,  0.20,  0.20,  0.20,  0.20,  0.20,  0.20,  0.20,  0.20,  0.20,  0.20,  0.20,  0.20
! <Site:GroundReflectance:SnowModifier>, Normal, Daylighting {dimensionless}
 Site:GroundReflectance:SnowModifier,   1.000,   1.000
! <Site:GroundReflectance:Snow>,Jan{dimensionless},Feb{dimensionless},Mar{dimensionless},Apr{dimensionless},May{dimensionless},Jun{dimensionless},Jul{dimensionless},Aug{dimensionless},Sep{dimensionless},Oct{dimensionless},Nov{dimensionless},Dec{dimensionless}
 Site:GroundReflectance:Snow,  0.20,  0.20,  0.20,  0.20,  0.20,  0.20,  0.20,  0.20,  0.20,  0.20,  0.20,  0.20
! <Site:GroundReflectance:Snow:Daylighting>,Jan{dimensionless},Feb{dimensionless},Mar{dimensionless},Apr{dimensionless},May{dimensionless},Jun{dimensionless},Jul{dimensionless},Aug{dimensionless},Sep{dimensionless},Oct{dimensionless},Nov{dimensionless},Dec{dimensionless}
 Site:GroundReflectance:Snow:Daylighting,  0.20,  0.20,  0.20,  0.20,  0.20,  0.20,  0.20,  0.20,  0.20,  0.20,  0.20,  0.20
! <Environment:Weather Station>,Wind Sensor Height Above Ground {m},Wind Speed Profile Exponent {},Wind Speed Profile Boundary Layer Thickness {m},Air Temperature Sensor Height Above Ground {m},Wind Speed Modifier Coefficient-Internal,Temperature Modifier Coefficient-Internal
Environment:Weather Station,10.000,0.140,270.000,1.500,1.586,9.750E-003
! <Site:Location>, Location Name, Latitude {N+/S- Deg}, Longitude {E+/W- Deg},  Time Zone Number {GMT+/-}, Elevation {m},  Standard Pressure at Elevation {Pa}, Standard RhoAir at Elevation
Site:Location,Fort McMurray AP AB CAN CWEC2016 WMO#=716890,56.65,-111.22,-7.00,369.10,96969,1.1525
! <Building Information>, Building Name,North Axis {deg},Terrain,  Loads Convergence Tolerance Value,Temperature Convergence Tolerance Value,  Solar Distribution,Maximum Number of Warmup Days,Minimum Number of Warmup Days
 Building Information,Building 1,0.000,Suburbs,4.00000E-002,0.40000,FullExterior,25,6
! <Inside Convection Algorithm>, Algorithm {Simple | TARP | CeilingDiffuser | AdaptiveConvectionAlgorithm}
Inside Convection Algorithm,TARP
! <Outside Convection Algorithm>, Algorithm {SimpleCombined | TARP | MoWitt | DOE-2 | AdaptiveConvectionAlgorithm}
Outside Convection Algorithm,TARP
! <Sky Radiance Distribution>, Value {Anisotropic}
Sky Radiance Distribution,Anisotropic
! <Zone Air Solution Algorithm>, Value {ThirdOrderBackwardDifference | AnalyticalSolution | EulerMethod}
 Zone Air Solution Algorithm, ThirdOrderBackwardDifference
! <Zone Air Carbon Dioxide Balance Simulation>, Simulation {Yes/No}, Carbon Dioxide Concentration
 Zone Air Carbon Dioxide Balance Simulation, No,N/A
! <Zone Air Generic Contaminant Balance Simulation>, Simulation {Yes/No}, Generic Contaminant Concentration
 Zone Air Generic Contaminant Balance Simulation, No,N/A
! <Zone Air Mass Flow Balance Simulation>, Enforce Mass Balance, Adjust Zone Mixing, Adjust Zone Infiltration {AddInfiltration | AdjustInfiltration | None}, Infiltration Zones {MixingSourceZonesOnly | AllZones}
 Zone Air Mass Flow Balance Simulation, No,N/A,N/A,N/A
! <HVACSystemRootFindingAlgorithm>, Value {RegulaFalsi | Bisection | BisectionThenRegulaFalsi | RegulaFalsiThenBisection}
 HVACSystemRootFindingAlgorithm, RegulaFalsi
! <Environment:Site Atmospheric Variation>,Wind Speed Profile Exponent {},Wind Speed Profile Boundary Layer Thickness {m},Air Temperature Gradient Coefficient {K/m}
Environment:Site Atmospheric Variation,0.220,370.000,6.500000E-003
! <Surface Geometry>,Starting Corner,Vertex Input Direction,Coordinate System,Daylight Reference Point Coordinate System,Rectangular (Simple) Surface Coordinate System
 Surface Geometry,UpperLeftCorner,Counterclockwise,RelativeCoordinateSystem,RelativeCoordinateSystem,RelativeToZoneOrigin
! <Surface Heat Transfer Algorithm>, Value {CTF - ConductionTransferFunction | EMPD - MoisturePenetrationDepthConductionTransferFunction | CondFD - ConductionFiniteDifference | HAMT - CombinedHeatAndMoistureFiniteElement} - Description,Inside Surface Max Temperature Limit{C}, Surface Convection Coefficient Lower Limit {W/m2-K}, Surface Convection Coefficient Upper Limit {W/m2-K}
Surface Heat Transfer Algorithm, CTF - ConductionTransferFunction,200,0.10,1000.0
! <Shading Summary>, Number of Fixed Detached Shades, Number of Building Detached Shades, Number of Attached Shades
 Shading Summary,0,0,0
! <Zone Summary>, Number of Zones, Number of Zone Surfaces, Number of SubSurfaces
 Zone Summary,10,69,9
! <Zone Information>,Zone Name,North Axis {deg},Origin X-Coordinate {m},Origin Y-Coordinate {m},Origin Z-Coordinate {m},Centroid X-Coordinate {m},Centroid Y-Coordinate {m},Centroid Z-Coordinate {m},Type,Zone Multiplier,Zone List Multiplier,Minimum X {m},Maximum X {m},Minimum Y {m},Maximum Y {m},Minimum Z {m},Maximum Z {m},Ceiling Height {m},Volume {m3},Zone Inside Convection Algorithm {Simple-Detailed-CeilingDiffuser-TrombeWall},Zone Outside Convection Algorithm {Simple-Detailed-Tarp-MoWitt-DOE-2-BLAST}, Floor Area {m2},Exterior Gross Wall Area {m2},Exterior Net Wall Area {m2},Exterior Window Area {m2}, Number of Surfaces, Number of SubSurfaces, Number of Shading SubSurfaces,  Part of Total Building Area
 Zone Information, ALL_ST=WHOLEBUILDING_FL=STORY 1_SCH=B,0.0,25.00,25.00,0.00,50.00,50.00,1.90,1,1,1,25.00,75.00,25.00,75.00,0.00,3.80,3.80,9500.00,TARP,TARP,2500.00,0.00,0.00,0.00,6,0,0,Yes
 Zone Information, ALL_ST=WHOLEBUILDING_FL=STORY 1_SCH=B 1,0.0,0.00,0.00,0.00,50.00,10.85,1.90,1,1,1,0.00,100.00,0.00,25.00,0.00,3.80,3.80,7125.00,TARP,TARP,1875.00,0.00,0.00,0.00,6,0,0,Yes
 Zone Information, ALL_ST=WHOLEBUILDING_FL=STORY 1_SCH=B 2,0.0,75.00,25.00,0.00,89.15,50.00,1.90,1,1,1,75.00,100.00,0.00,100.00,0.00,3.80,3.80,7125.00,TARP,TARP,1875.00,0.00,0.00,0.00,6,0,0,Yes
 Zone Information, ALL_ST=WHOLEBUILDING_FL=STORY 1_SCH=B 3,0.0,0.00,0.00,0.00,10.85,50.00,1.90,1,1,1,0.00,25.00,0.00,100.00,0.00,3.80,3.80,7125.00,TARP,TARP,1875.00,0.00,0.00,0.00,6,0,0,Yes
 Zone Information, ALL_ST=WHOLEBUILDING_FL=STORY 1_SCH=F,0.0,25.00,75.00,0.00,50.00,89.15,1.90,1,1,1,0.00,100.00,75.00,100.00,0.00,3.80,3.80,7125.00,TARP,TARP,1875.00,0.00,0.00,0.00,6,0,0,Yes
 Zone Information, ALL_ST=WHOLEBUILDING_FL=STORY 2_SCH=A,0.0,25.00,75.00,3.80,50.00,89.15,5.70,1,1,1,0.00,100.00,75.00,100.00,3.80,7.60,3.80,7125.00,TARP,TARP,1875.00,380.00,285.00,188.75,6,2,0,Yes
 Zone Information, ALL_ST=WHOLEBUILDING_FL=STORY 2_SCH=B,0.0,0.00,0.00,3.80,10.85,50.00,5.70,1,1,1,0.00,25.00,0.00,100.00,3.80,7.60,3.80,7125.00,TARP,TARP,1875.00,380.00,285.00,188.75,6,2,0,Yes
 Zone Information, ALL_ST=WHOLEBUILDING_FL=STORY 2_SCH=C,0.0,0.00,0.00,3.80,50.00,10.85,5.70,1,1,1,0.00,100.00,0.00,25.00,3.80,7.60,3.80,7125.00,TARP,TARP,1875.00,380.00,285.00,188.75,6,2,0,Yes
 Zone Information, ALL_ST=WHOLEBUILDING_FL=STORY 2_SCH=E,0.0,25.00,25.00,3.80,50.00,50.00,5.70,1,1,1,25.00,75.00,25.00,75.00,3.80,7.60,3.80,9500.00,TARP,TARP,2500.00,0.00,0.00,125.00,6,1,0,Yes
 Zone Information, DU_BT=DORMITORY_ST=WHOLEBUILDING_FL=STORY 2_SCHG,0.0,75.00,25.00,3.80,89.15,50.00,5.70,1,1,1,75.00,100.00,0.00,100.00,3.80,7.60,3.80,7125.00,TARP,TARP,1875.00,380.00,285.00,188.75,6,2,0,Yes
! <Zone Internal Gains Nominal>,Zone Name, Floor Area {m2},# Occupants,Area per Occupant {m2/person},Occupant per Area {person/m2},Interior Lighting {W/m2},Electric Load {W/m2},Gas Load {W/m2},Other Load {W/m2},Hot Water Eq {W/m2},Steam Equipment {W/m2},Sum Loads per Area {W/m2},Outdoor Controlled Baseboard Heat
 Zone Internal Gains Nominal, ALL_ST=WHOLEBUILDING_FL=STORY 1_SCH=B,2500.00,250.0,10.000,10.000E-002,9.700,1.000,0.000,0.000,0.000,0.000,10.700,No
 Zone Internal Gains Nominal, ALL_ST=WHOLEBUILDING_FL=STORY 1_SCH=B 1,1875.00,187.5,10.000,10.000E-002,9.600,1.000,0.000,0.000,0.000,0.000,10.600,No
 Zone Internal Gains Nominal, ALL_ST=WHOLEBUILDING_FL=STORY 1_SCH=B 2,1875.00,187.5,10.000,10.000E-002,9.500,1.000,0.000,0.000,0.000,0.000,10.500,No
 Zone Internal Gains Nominal, ALL_ST=WHOLEBUILDING_FL=STORY 1_SCH=B 3,1875.00,187.5,10.000,10.000E-002,10.800,1.000,0.000,0.000,0.000,0.000,11.800,No
 Zone Internal Gains Nominal, ALL_ST=WHOLEBUILDING_FL=STORY 1_SCH=F,1875.00,75.1,24.974,4.004E-002,7.600,2.500,0.000,0.000,0.000,0.000,10.100,No
 Zone Internal Gains Nominal, ALL_ST=WHOLEBUILDING_FL=STORY 2_SCH=A,1875.00,124.9,15.009,6.663E-002,11.300,5.000,0.000,0.000,0.000,0.000,16.300,No
 Zone Internal Gains Nominal, ALL_ST=WHOLEBUILDING_FL=STORY 2_SCH=B,1875.00,187.5,10.000,10.000E-002,10.700,1.000,0.000,0.000,0.000,0.000,11.700,No
 Zone Internal Gains Nominal, ALL_ST=WHOLEBUILDING_FL=STORY 2_SCH=C,1875.00,234.3,8.002,0.125,11.600,2.500,0.000,0.000,0.000,0.000,14.100,No
 Zone Internal Gains Nominal, ALL_ST=WHOLEBUILDING_FL=STORY 2_SCH=E,2500.00,125.1,19.979,5.005E-002,8.800,5.000,0.000,0.000,0.000,0.000,13.800,No
 Zone Internal Gains Nominal, DU_BT=DORMITORY_ST=WHOLEBUILDING_FL=STORY 2_SCHG,1875.00,62.6,29.969,3.337E-002,6.600,2.500,0.000,0.000,0.000,0.000,9.100,No
! <People Internal Gains Nominal>,Name,Schedule Name,Zone Name,Zone Floor Area {m2},# Zone Occupants,Number of People {},People/Floor Area {person/m2},Floor Area per person {m2/person},Fraction Radiant,Fraction Convected,Sensible Fraction Calculation,Activity level,ASHRAE 55 Warnings,Carbon Dioxide Generation Rate,Nominal Minimum Number of People,Nominal Maximum Number of People
 People Internal Gains Nominal, ALL_ST=WHOLEBUILDING_FL=STORY 2_SCH=E AUTOMOTIVE FACILITY WHOLEBUILDING PEOPLE,NECB-E-OCCUPANCY,ALL_ST=WHOLEBUILDING_FL=STORY 2_SCH=E,2500.00,125.1,125.1,5.005E-002,19.979,0.300,0.700,AutoCalculate,NECB-ACTIVITY,No,3.8200E-008,0,113
 People Internal Gains Nominal, ALL_ST=WHOLEBUILDING_FL=STORY 2_SCH=C CONVENTION CENTRE WHOLEBUILDING PEOPLE,NECB-C-OCCUPANCY,ALL_ST=WHOLEBUILDING_FL=STORY 2_SCH=C,1875.00,234.3,234.3,0.125,8.002,0.300,0.700,AutoCalculate,NECB-ACTIVITY,No,3.8200E-008,0,211
 People Internal Gains Nominal, ALL_ST=WHOLEBUILDING_FL=STORY 2_SCH=A COURTHOUSE WHOLEBUILDING PEOPLE,NECB-A-OCCUPANCY,ALL_ST=WHOLEBUILDING_FL=STORY 2_SCH=A,1875.00,124.9,124.9,6.663E-002,15.009,0.300,0.700,AutoCalculate,NECB-ACTIVITY,No,3.8200E-008,0,112
 People Internal Gains Nominal, ALL_ST=WHOLEBUILDING_FL=STORY 2_SCH=B DINING - BAR/LOUNGE WHOLEBUILDING PEOPLE,NECB-B-OCCUPANCY,ALL_ST=WHOLEBUILDING_FL=STORY 2_SCH=B,1875.00,187.5,187.5,10.000E-002,10.000,0.300,0.700,AutoCalculate,NECB-ACTIVITY,No,3.8200E-008,0,169
 People Internal Gains Nominal, ALL_ST=WHOLEBUILDING_FL=STORY 1_SCH=B DINING - CAFETERIA WHOLEBUILDING PEOPLE,NECB-B-OCCUPANCY,ALL_ST=WHOLEBUILDING_FL=STORY 1_SCH=B,2500.00,250.0,250.0,10.000E-002,10.000,0.300,0.700,AutoCalculate,NECB-ACTIVITY,No,3.8200E-008,0,225
 People Internal Gains Nominal, ALL_ST=WHOLEBUILDING_FL=STORY 1_SCH=B 1 DINING - FAMILY WHOLEBUILDING PEOPLE,NECB-B-OCCUPANCY,ALL_ST=WHOLEBUILDING_FL=STORY 1_SCH=B 1,1875.00,187.5,187.5,10.000E-002,10.000,0.300,0.700,AutoCalculate,NECB-ACTIVITY,No,3.8200E-008,0,169
 People Internal Gains Nominal, DU_BT=DORMITORY_ST=WHOLEBUILDING_FL=STORY 2_SCHG DORMITORY WHOLEBUILDING PEOPLE,NECB-G-OCCUPANCY,DU_BT=DORMITORY_ST=WHOLEBUILDING_FL=STORY 2_SCHG,1875.00,62.6,62.6,3.337E-002,29.969,0.300,0.700,AutoCalculate,NECB-ACTIVITY,No,3.8200E-008,19,56
 People Internal Gains Nominal, ALL_ST=WHOLEBUILDING_FL=STORY 1_SCH=B 2 EXERCISE CENTRE WHOLEBUILDING PEOPLE,NECB-B-OCCUPANCY,ALL_ST=WHOLEBUILDING_FL=STORY 1_SCH=B 2,1875.00,187.5,187.5,10.000E-002,10.000,0.300,0.700,AutoCalculate,NECB-ACTIVITY,No,3.8200E-008,0,169
 People Internal Gains Nominal, ALL_ST=WHOLEBUILDING_FL=STORY 1_SCH=F FIRE STATION WHOLEBUILDING PEOPLE,NECB-F-OCCUPANCY,ALL_ST=WHOLEBUILDING_FL=STORY 1_SCH=F,1875.00,75.1,75.1,4.004E-002,24.974,0.300,0.700,AutoCalculate,NECB-ACTIVITY,No,3.8200E-008,15,68
 People Internal Gains Nominal, ALL_ST=WHOLEBUILDING_FL=STORY 1_SCH=B 3 GYMNASIUM WHOLEBUILDING PEOPLE,NECB-B-OCCUPANCY,ALL_ST=WHOLEBUILDING_FL=STORY 1_SCH=B 3,1875.00,187.5,187.5,10.000E-002,10.000,0.300,0.700,AutoCalculate,NECB-ACTIVITY,No,3.8200E-008,0,169
! <Lights Internal Gains Nominal>,Name,Schedule Name,Zone Name,Zone Floor Area {m2},# Zone Occupants,Lighting Level {W},Lights/Floor Area {W/m2},Lights per person {W/person},Fraction Return Air,Fraction Radiant,Fraction Short Wave,Fraction Convected,Fraction Replaceable,End-Use Category,Nominal Minimum Lighting Level {W},Nominal Maximum Lighting Level {W}
 Lights Internal Gains Nominal, ALL_ST=WHOLEBUILDING_FL=STORY 2_SCH=E AUTOMOTIVE FACILITY WHOLEBUILDING LIGHTS,NECB-E-LIGHTING,ALL_ST=WHOLEBUILDING_FL=STORY 2_SCH=E,2500.00,125.1,21999.817,8.800,175.815,0.000,0.500,0.200,0.300,1.000,General,1099.991,19799.835
 Lights Internal Gains Nominal, ALL_ST=WHOLEBUILDING_FL=STORY 2_SCH=C CONVENTION CENTRE WHOLEBUILDING LIGHTS,NECB-C-LIGHTING,ALL_ST=WHOLEBUILDING_FL=STORY 2_SCH=C,1875.00,234.3,21749.819,11.600,92.822,0.000,0.500,0.200,0.300,1.000,General,1087.491,19574.837
 Lights Internal Gains Nominal, ALL_ST=WHOLEBUILDING_FL=STORY 2_SCH=A COURTHOUSE WHOLEBUILDING LIGHTS,NECB-A-LIGHTING,ALL_ST=WHOLEBUILDING_FL=STORY 2_SCH=A,1875.00,124.9,21187.324,11.300,169.595,0.000,0.500,0.200,0.300,1.000,General,1059.366,19068.591
 Lights Internal Gains Nominal, ALL_ST=WHOLEBUILDING_FL=STORY 2_SCH=B DINING - BAR/LOUNGE WHOLEBUILDING LIGHTS,NECB-B-LIGHTING,ALL_ST=WHOLEBUILDING_FL=STORY 2_SCH=B,1875.00,187.5,20062.333,10.700,107.003,0.000,0.500,0.200,0.300,1.000,General,2006.233,18056.100
 Lights Internal Gains Nominal, ALL_ST=WHOLEBUILDING_FL=STORY 1_SCH=B DINING - CAFETERIA WHOLEBUILDING LIGHTS,NECB-B-LIGHTING,ALL_ST=WHOLEBUILDING_FL=STORY 1_SCH=B,2500.00,250.0,24249.798,9.700,97.002,0.000,0.500,0.200,0.300,1.000,General,2424.980,21824.818
 Lights Internal Gains Nominal, ALL_ST=WHOLEBUILDING_FL=STORY 1_SCH=B 1 DINING - FAMILY WHOLEBUILDING LIGHTS,NECB-B-LIGHTING,ALL_ST=WHOLEBUILDING_FL=STORY 1_SCH=B 1,1875.00,187.5,17999.850,9.600,96.002,0.000,0.500,0.200,0.300,1.000,General,1799.985,16199.865
 Lights Internal Gains Nominal, DU_BT=DORMITORY_ST=WHOLEBUILDING_FL=STORY 2_SCHG DORMITORY WHOLEBUILDING LIGHTS,NECB-G-LIGHTING,DU_BT=DORMITORY_ST=WHOLEBUILDING_FL=STORY 2_SCHG,1875.00,62.6,12374.897,6.600,197.792,0.000,0.500,0.200,0.300,1.000,General,0.000,11137.407
 Lights Internal Gains Nominal, ALL_ST=WHOLEBUILDING_FL=STORY 1_SCH=B 2 EXERCISE CENTRE WHOLEBUILDING LIGHTS,NECB-B-LIGHTING,ALL_ST=WHOLEBUILDING_FL=STORY 1_SCH=B 2,1875.00,187.5,17812.352,9.500,95.002,0.000,0.500,0.200,0.300,1.000,General,1781.235,16031.117
 Lights Internal Gains Nominal, ALL_ST=WHOLEBUILDING_FL=STORY 1_SCH=F FIRE STATION WHOLEBUILDING LIGHTS,NECB-F-LIGHTING,ALL_ST=WHOLEBUILDING_FL=STORY 1_SCH=F,1875.00,75.1,14249.881,7.600,189.800,0.000,0.500,0.200,0.300,1.000,General,1424.988,12824.893
 Lights Internal Gains Nominal, ALL_ST=WHOLEBUILDING_FL=STORY 1_SCH=B 3 GYMNASIUM WHOLEBUILDING LIGHTS,NECB-B-LIGHTING,ALL_ST=WHOLEBUILDING_FL=STORY 1_SCH=B 3,1875.00,187.5,20249.831,10.800,108.003,0.000,0.500,0.200,0.300,1.000,General,2024.983,18224.848
! <ElectricEquipment Internal Gains Nominal>,Name,Schedule Name,Zone Name,Zone Floor Area {m2},# Zone Occupants,Equipment Level {W},Equipment/Floor Area {W/m2},Equipment per person {W/person},Fraction Latent,Fraction Radiant,Fraction Lost,Fraction Convected,End-Use SubCategory,Nominal Minimum Equipment Level {W},Nominal Maximum Equipment Level {W}
 ElectricEquipment Internal Gains Nominal, ALL_ST=WHOLEBUILDING_FL=STORY 2_SCH=E AUTOMOTIVE FACILITY WHOLEBUILDING ELEC EQUIP,NECB-E-ELECTRIC-EQUIPMENT,ALL_ST=WHOLEBUILDING_FL=STORY 2_SCH=E,2500.00,125.1,12499.896,5.000,99.895,0.000,0.500,0.000,0.500,General,624.995,11249.906
 ElectricEquipment Internal Gains Nominal, ALL_ST=WHOLEBUILDING_FL=STORY 2_SCH=C CONVENTION CENTRE WHOLEBUILDING ELEC EQUIP,NECB-C-ELECTRIC-EQUIPMENT,ALL_ST=WHOLEBUILDING_FL=STORY 2_SCH=C,1875.00,234.3,4687.461,2.500,20.005,0.000,0.500,0.000,0.500,General,234.373,4218.715
 ElectricEquipment Internal Gains Nominal, ALL_ST=WHOLEBUILDING_FL=STORY 2_SCH=A COURTHOUSE WHOLEBUILDING ELEC EQUIP,NECB-A-ELECTRIC-EQUIPMENT,ALL_ST=WHOLEBUILDING_FL=STORY 2_SCH=A,1875.00,124.9,9374.922,5.000,75.042,0.000,0.500,0.000,0.500,General,1874.984,8437.430
 ElectricEquipment Internal Gains Nominal, ALL_ST=WHOLEBUILDING_FL=STORY 2_SCH=B DINING - BAR/LOUNGE WHOLEBUILDING ELEC EQUIP,NECB-B-ELECTRIC-EQUIPMENT,ALL_ST=WHOLEBUILDING_FL=STORY 2_SCH=B,1875.00,187.5,1874.984,1.000,10.000,0.000,0.500,0.000,0.500,General,187.498,1687.486
 ElectricEquipment Internal Gains Nominal, ALL_ST=WHOLEBUILDING_FL=STORY 1_SCH=B DINING - CAFETERIA WHOLEBUILDING ELEC EQUIP,NECB-B-ELECTRIC-EQUIPMENT,ALL_ST=WHOLEBUILDING_FL=STORY 1_SCH=B,2500.00,250.0,2499.979,1.000,10.000,0.000,0.500,0.000,0.500,General,249.998,2249.981
 ElectricEquipment Internal Gains Nominal, ALL_ST=WHOLEBUILDING_FL=STORY 1_SCH=B 1 DINING - FAMILY WHOLEBUILDING ELEC EQUIP,NECB-B-ELECTRIC-EQUIPMENT,ALL_ST=WHOLEBUILDING_FL=STORY 1_SCH=B 1,1875.00,187.5,1874.984,1.000,10.000,0.000,0.500,0.000,0.500,General,187.498,1687.486
 ElectricEquipment Internal Gains Nominal, DU_BT=DORMITORY_ST=WHOLEBUILDING_FL=STORY 2_SCHG DORMITORY WHOLEBUILDING ELEC EQUIP,NECB-G-ELECTRIC-EQUIPMENT,DU_BT=DORMITORY_ST=WHOLEBUILDING_FL=STORY 2_SCHG,1875.00,62.6,4687.461,2.500,74.921,0.000,0.500,0.000,0.500,General,937.492,4218.715
 ElectricEquipment Internal Gains Nominal, ALL_ST=WHOLEBUILDING_FL=STORY 1_SCH=B 2 EXERCISE CENTRE WHOLEBUILDING ELEC EQUIP,NECB-B-ELECTRIC-EQUIPMENT,ALL_ST=WHOLEBUILDING_FL=STORY 1_SCH=B 2,1875.00,187.5,1874.984,1.000,10.000,0.000,0.500,0.000,0.500,General,187.498,1687.486
 ElectricEquipment Internal Gains Nominal, ALL_ST=WHOLEBUILDING_FL=STORY 1_SCH=F FIRE STATION WHOLEBUILDING ELEC EQUIP,NECB-F-ELECTRIC-EQUIPMENT,ALL_ST=WHOLEBUILDING_FL=STORY 1_SCH=F,1875.00,75.1,4687.461,2.500,62.434,0.000,0.500,0.000,0.500,General,468.746,4218.715
 ElectricEquipment Internal Gains Nominal, ALL_ST=WHOLEBUILDING_FL=STORY 1_SCH=B 3 GYMNASIUM WHOLEBUILDING ELEC EQUIP,NECB-B-ELECTRIC-EQUIPMENT,ALL_ST=WHOLEBUILDING_FL=STORY 1_SCH=B 3,1875.00,187.5,1874.984,1.000,10.000,0.000,0.500,0.000,0.500,General,187.498,1687.486
! <Shadowing/Sun Position Calculations Annual Simulations>, Calculation Method, Value {days}, Allowable Number Figures in Shadow Overlap {}, Polygon Clipping Algorithm, Sky Diffuse Modeling Algorithm, External Shading Calculation Method, Output External Shading Calculation Results, Disable Self-Shading Within Shading Zone Groups, Disable Self-Shading From Shading Zone Groups to Other Zones
Shadowing/Sun Position Calculations Annual Simulations,AverageOverDaysInFrequency,20,15000,SutherlandHodgman,SimpleSkyDiffuseModeling,InternalCalculation,No,No,No
! <Water Heater Information>,Type,Name,Volume {m3},Maximum Capacity {W},Standard Rated Recovery Efficiency, Standard Rated Energy Factor
! <ZoneInfiltration Airflow Stats Nominal>,Name,Schedule Name,Zone Name, Zone Floor Area {m2}, # Zone Occupants,Design Volume Flow Rate {m3/s},Volume Flow Rate/Floor Area {m3/s/m2},Volume Flow Rate/Exterior Surface Area {m3/s/m2},ACH - Air Changes per Hour,Equation A - Constant Term Coefficient {},Equation B - Temperature Term Coefficient {1/C},Equation C - Velocity Term Coefficient {s/m}, Equation D - Velocity Squared Term Coefficient {s2/m2}
 ZoneInfiltration Airflow Stats Nominal, WHOLEBUILDING-COURTHOUSE INFILTRATION,ALWAYS ON DISCRETE,ALL_ST=WHOLEBUILDING_FL=STORY 2_SCH=A,1875.00,124.9,0.564,3.007E-004,2.500E-004,0.285,0.000,0.000,0.224,0.000
 ZoneInfiltration Airflow Stats Nominal, WHOLEBUILDING-DINING - BAR/LOUNGE INFILTRATION,ALWAYS ON DISCRETE,ALL_ST=WHOLEBUILDING_FL=STORY 2_SCH=B,1875.00,187.5,0.564,3.007E-004,2.500E-004,0.285,0.000,0.000,0.224,0.000
 ZoneInfiltration Airflow Stats Nominal, WHOLEBUILDING-CONVENTION CENTRE INFILTRATION,ALWAYS ON DISCRETE,ALL_ST=WHOLEBUILDING_FL=STORY 2_SCH=C,1875.00,234.3,0.564,3.007E-004,2.500E-004,0.285,0.000,0.000,0.224,0.000
 ZoneInfiltration Airflow Stats Nominal, WHOLEBUILDING-AUTOMOTIVE FACILITY INFILTRATION,ALWAYS ON DISCRETE,ALL_ST=WHOLEBUILDING_FL=STORY 2_SCH=E,2500.00,125.1,0.625,2.500E-004,2.500E-004,0.237,0.000,0.000,0.224,0.000
 ZoneInfiltration Airflow Stats Nominal, WHOLEBUILDING-DORMITORY INFILTRATION,ALWAYS ON DISCRETE,DU_BT=DORMITORY_ST=WHOLEBUILDING_FL=STORY 2_SCHG,1875.00,62.6,0.564,3.007E-004,2.500E-004,0.285,0.000,0.000,0.224,0.000
! <AirFlow Model>, Simple
 AirFlow Model, Simple
! <RoomAir Model>, Zone Name, Mixing/Mundt/UCSDDV/UCSDCV/UCSDUFI/UCSDUFE/User Defined
RoomAir Model,ALL_ST=WHOLEBUILDING_FL=STORY 1_SCH=B,Mixing/Well-Stirred
RoomAir Model,ALL_ST=WHOLEBUILDING_FL=STORY 1_SCH=B 1,Mixing/Well-Stirred
RoomAir Model,ALL_ST=WHOLEBUILDING_FL=STORY 1_SCH=B 2,Mixing/Well-Stirred
RoomAir Model,ALL_ST=WHOLEBUILDING_FL=STORY 1_SCH=B 3,Mixing/Well-Stirred
RoomAir Model,ALL_ST=WHOLEBUILDING_FL=STORY 1_SCH=F,Mixing/Well-Stirred
RoomAir Model,ALL_ST=WHOLEBUILDING_FL=STORY 2_SCH=A,Mixing/Well-Stirred
RoomAir Model,ALL_ST=WHOLEBUILDING_FL=STORY 2_SCH=B,Mixing/Well-Stirred
RoomAir Model,ALL_ST=WHOLEBUILDING_FL=STORY 2_SCH=C,Mixing/Well-Stirred
RoomAir Model,ALL_ST=WHOLEBUILDING_FL=STORY 2_SCH=E,Mixing/Well-Stirred
RoomAir Model,DU_BT=DORMITORY_ST=WHOLEBUILDING_FL=STORY 2_SCHG,Mixing/Well-Stirred
! <AirflowNetwork Model:Control>, No Multizone or Distribution/Multizone with Distribution/Multizone without Distribution/Multizone with Distribution only during Fan Operation
AirflowNetwork Model:Control,NoMultizoneOrDistribution
! <Zone Volume Capacitance Multiplier>, Sensible Heat Capacity Multiplier, Moisture Capacity Multiplier, Carbon Dioxide Capacity Multiplier, Generic Contaminant Capacity Multiplier
Zone Volume Capacitance Multiplier,   1.000 ,   1.000,   1.000,   1.000
! <Load Timesteps in Zone Design Calculation Averaging Window>, Value
 Load Timesteps in Zone Design Calculation Averaging Window,    6
! <Heating Sizing Factor Information>, Sizing Factor ID, Value
 Heating Sizing Factor Information, Global,   1.3000    
 Heating Sizing Factor Information, Zone ALL_ST=WHOLEBUILDING_FL=STORY 1_SCH=B,   1.3000    
 Heating Sizing Factor Information, Zone ALL_ST=WHOLEBUILDING_FL=STORY 1_SCH=B 1,   1.3000    
 Heating Sizing Factor Information, Zone ALL_ST=WHOLEBUILDING_FL=STORY 1_SCH=B 2,   1.3000    
 Heating Sizing Factor Information, Zone ALL_ST=WHOLEBUILDING_FL=STORY 1_SCH=B 3,   1.3000    
 Heating Sizing Factor Information, Zone ALL_ST=WHOLEBUILDING_FL=STORY 1_SCH=F,   1.3000    
 Heating Sizing Factor Information, Zone ALL_ST=WHOLEBUILDING_FL=STORY 2_SCH=A,   1.3000    
 Heating Sizing Factor Information, Zone ALL_ST=WHOLEBUILDING_FL=STORY 2_SCH=B,   1.3000    
 Heating Sizing Factor Information, Zone ALL_ST=WHOLEBUILDING_FL=STORY 2_SCH=C,   1.3000    
 Heating Sizing Factor Information, Zone ALL_ST=WHOLEBUILDING_FL=STORY 2_SCH=E,   1.3000    
 Heating Sizing Factor Information, Zone DU_BT=DORMITORY_ST=WHOLEBUILDING_FL=STORY 2_SCHG,   1.3000    
! <Cooling Sizing Factor Information>, Sizing Factor ID, Value
 Cooling Sizing Factor Information, Global,   1.1000    
 Cooling Sizing Factor Information, Zone ALL_ST=WHOLEBUILDING_FL=STORY 1_SCH=B,   1.1000    
 Cooling Sizing Factor Information, Zone ALL_ST=WHOLEBUILDING_FL=STORY 1_SCH=B 1,   1.1000    
 Cooling Sizing Factor Information, Zone ALL_ST=WHOLEBUILDING_FL=STORY 1_SCH=B 2,   1.1000    
 Cooling Sizing Factor Information, Zone ALL_ST=WHOLEBUILDING_FL=STORY 1_SCH=B 3,   1.1000    
 Cooling Sizing Factor Information, Zone ALL_ST=WHOLEBUILDING_FL=STORY 1_SCH=F,   1.1000    
 Cooling Sizing Factor Information, Zone ALL_ST=WHOLEBUILDING_FL=STORY 2_SCH=A,   1.1000    
 Cooling Sizing Factor Information, Zone ALL_ST=WHOLEBUILDING_FL=STORY 2_SCH=B,   1.1000    
 Cooling Sizing Factor Information, Zone ALL_ST=WHOLEBUILDING_FL=STORY 2_SCH=C,   1.1000    
 Cooling Sizing Factor Information, Zone ALL_ST=WHOLEBUILDING_FL=STORY 2_SCH=E,   1.1000    
 Cooling Sizing Factor Information, Zone DU_BT=DORMITORY_ST=WHOLEBUILDING_FL=STORY 2_SCHG,   1.1000    
! <Zone Sizing Information>, Zone Name, Load Type, Calc Des Load {W}, User Des Load {W}, Calc Des Air Flow Rate {m3/s}, User Des Air Flow Rate {m3/s}, Design Day Name, Date/Time of Peak, Temperature at Peak {C}, Humidity Ratio at Peak {kgWater/kgDryAir}, Floor Area {m2}, # Occupants, Calc Outdoor Air Flow Rate {m3/s}, Calc DOAS Heat Addition Rate {W}
 Zone Sizing Information, ALL_ST=WHOLEBUILDING_FL=STORY 1_SCH=B, Cooling, 38705.96115, 42576.55727, 2.99166, 3.29082, FORT MCMURRAY AP ANN CLG .4% CONDNS DB=>MWB, 7/21 20:00:00, 22.70000, 8.76969E-003, 2500.00000, 249.99182, 3.17500, 0.00000
 Zone Sizing Information, ALL_ST=WHOLEBUILDING_FL=STORY 1_SCH=B, Heating, 8386.53684, 10902.49789, 0.33000, 3.17500, FORT MCMURRAY AP ANN HTG 99.6% CONDNS DB, 1/21 10:00:00, -36.20000, 1.25811E-004, 2500.00000, 249.99182, 3.17500, 0.00000
 Zone Sizing Information, ALL_ST=WHOLEBUILDING_FL=STORY 1_SCH=B 1, Cooling, 31501.96605, 34652.16265, 2.43484, 2.67833, FORT MCMURRAY AP ANN CLG .4% CONDNS DB=>MWB, 7/21 20:00:00, 22.70000, 8.76969E-003, 1875.00000, 187.49386, 2.38125, 0.00000
 Zone Sizing Information, ALL_ST=WHOLEBUILDING_FL=STORY 1_SCH=B 1, Heating, 8620.16125, 11206.20963, 0.33829, 2.38125, FORT MCMURRAY AP ANN HTG 99.6% CONDNS DB, 1/21 10:00:00, -36.20000, 1.25811E-004, 1875.00000, 187.49386, 2.38125, 0.00000
 Zone Sizing Information, ALL_ST=WHOLEBUILDING_FL=STORY 1_SCH=B 2, Cooling, 28964.48410, 31860.93251, 2.23872, 2.46259, FORT MCMURRAY AP ANN CLG .4% CONDNS DB=>MWB, 7/21 20:00:00, 22.70000, 8.76969E-003, 1875.00000, 187.49386, 2.34315, 0.00000
 Zone Sizing Information, ALL_ST=WHOLEBUILDING_FL=STORY 1_SCH=B 2, Heating, 7130.71811, 9269.93355, 0.28061, 2.34315, FORT MCMURRAY AP ANN HTG 99.6% CONDNS DB, 1/21 10:00:00, -36.20000, 1.25811E-004, 1875.00000, 187.49386, 2.34315, 0.00000
 Zone Sizing Information, ALL_ST=WHOLEBUILDING_FL=STORY 1_SCH=B 3, Cooling, 34160.75971, 37576.83568, 2.64036, 2.90439, FORT MCMURRAY AP ANN CLG .4% CONDNS DB=>MWB, 7/21 20:00:00, 22.70000, 8.76969E-003, 1875.00000, 187.49386, 2.34315, 0.00000
 Zone Sizing Information, ALL_ST=WHOLEBUILDING_FL=STORY 1_SCH=B 3, Heating, 3963.41362, 5152.43770, 0.15677, 2.34315, FORT MCMURRAY AP ANN HTG 99.6% CONDNS DB, 1/21 09:40:00, -36.20000, 1.25811E-004, 1875.00000, 187.49386, 2.34315, 0.00000
 Zone Sizing Information, ALL_ST=WHOLEBUILDING_FL=STORY 1_SCH=F, Cooling, 19879.99898, 21867.99887, 1.53647, 1.69012, FORT MCMURRAY AP ANN CLG .4% CONDNS DB=>MWB, 7/21 22:00:00, 20.46800, 8.76969E-003, 1875.00000, 75.07828, 1.40970, 0.00000
 Zone Sizing Information, ALL_ST=WHOLEBUILDING_FL=STORY 1_SCH=F, Heating, 4982.49015, 6477.23720, 0.20028, 1.40970, FORT MCMURRAY AP ANN HTG 99.6% CONDNS DB, 1/21 09:00:00, -36.20000, 1.25811E-004, 1875.00000, 75.07828, 1.40970, 0.00000
 Zone Sizing Information, ALL_ST=WHOLEBUILDING_FL=STORY 2_SCH=A, Cooling, 65592.60337, 72151.86370, 5.06966, 5.57663, FORT MCMURRAY AP ANN CLG .4% CONDNS DB=>MWB, 7/21 15:00:00, 28.90000, 8.76969E-003, 1875.00000, 124.92864, 0.86678, 0.00000
 Zone Sizing Information, ALL_ST=WHOLEBUILDING_FL=STORY 2_SCH=A, Heating, 45511.36539, 59164.77501, 1.81292, 2.35680, FORT MCMURRAY AP ANN HTG 99.6% CONDNS DB, 1/21 08:00:00, -36.20000, 1.25811E-004, 1875.00000, 124.92864, 0.86678, 0.00000
 Zone Sizing Information, ALL_ST=WHOLEBUILDING_FL=STORY 2_SCH=B, Cooling, 71929.23849, 79122.16234, 5.55953, 6.11548, FORT MCMURRAY AP ANN CLG .4% CONDNS DB=>MWB, 7/21 15:40:00, 28.40400, 8.76969E-003, 1875.00000, 187.49386, 2.38125, 0.00000
 Zone Sizing Information, ALL_ST=WHOLEBUILDING_FL=STORY 2_SCH=B, Heating, 40889.39210, 53156.20973, 1.62519, 2.38125, FORT MCMURRAY AP ANN HTG 99.6% CONDNS DB, 1/21 10:00:00, -36.20000, 1.25811E-004, 1875.00000, 187.49386, 2.38125, 0.00000
 Zone Sizing Information, ALL_ST=WHOLEBUILDING_FL=STORY 2_SCH=C, Cooling, 85300.92064, 93831.01270, 6.59352, 7.25287, FORT MCMURRAY AP ANN CLG .4% CONDNS DB=>MWB, 7/21 13:30:00, 28.59000, 8.76969E-003, 1875.00000, 234.31687, 1.40018, 0.00000
 Zone Sizing Information, ALL_ST=WHOLEBUILDING_FL=STORY 2_SCH=C, Heating, 41117.36638, 53452.57630, 1.55077, 2.01600, FORT MCMURRAY AP ANN HTG 99.6% CONDNS DB, 1/21 08:20:00, -36.20000, 1.25811E-004, 1875.00000, 234.31687, 1.40018, 0.00000
 Zone Sizing Information, ALL_ST=WHOLEBUILDING_FL=STORY 2_SCH=E, Cooling, 80762.23663, 88838.46030, 6.24218, 6.86640, FORT MCMURRAY AP ANN CLG .4% CONDNS DB=>MWB, 7/21 13:40:00, 28.69333, 8.76969E-003, 2500.00000, 125.13046, 2.87020, 0.00000
 Zone Sizing Information, ALL_ST=WHOLEBUILDING_FL=STORY 2_SCH=E, Heating, 40616.61959, 52801.60547, 1.60546, 2.87020, FORT MCMURRAY AP ANN HTG 99.6% CONDNS DB, 1/21 09:00:00, -36.20000, 1.25811E-004, 2500.00000, 125.13046, 2.87020, 0.00000
 Zone Sizing Information, DU_BT=DORMITORY_ST=WHOLEBUILDING_FL=STORY 2_SCHG, Cooling, 50455.47301, 55501.02031, 3.89955, 4.28950, FORT MCMURRAY AP ANN CLG .4% CONDNS DB=>MWB, 7/21 09:30:00, 23.13400, 8.76969E-003, 1875.00000, 62.56523, 0.71438, 0.00000
 Zone Sizing Information, DU_BT=DORMITORY_ST=WHOLEBUILDING_FL=STORY 2_SCHG, Heating, 40723.22987, 52940.19882, 1.61928, 2.10507, FORT MCMURRAY AP ANN HTG 99.6% CONDNS DB, 1/21 09:00:00, -36.20000, 1.25811E-004, 1875.00000, 62.56523, 0.71438, 0.00000
! <System Sizing Information>, System Name, Load Type, Peak Load Kind, User Design Capacity, Calc Des Air Flow Rate [m3/s], User Des Air Flow Rate [m3/s], Design Day Name, Date/Time of Peak
 System Sizing Information, SYS_3_PSZ ALL_ST=WHOLEBUILDING_FL=STORY 1_SCH=B, Cooling, Sensible, 37142.90, 3.29082, 3.29082, FORT MCMURRAY AP ANN CLG .4% CONDNS DB=>MWB, 7/21 05:00:00
 System Sizing Information, SYS_3_PSZ ALL_ST=WHOLEBUILDING_FL=STORY 1_SCH=B, Heating, Sensible, 291223.91, 3.17500, 3.17500, FORT MCMURRAY AP ANN HTG 99.6% CONDNS DB, 1/21 00:10:00
 System Sizing Information, SYS_3_PSZ ALL_ST=WHOLEBUILDING_FL=STORY 1_SCH=B 1, Cooling, Sensible, 30534.85, 2.67833, 2.67833, FORT MCMURRAY AP ANN CLG .4% CONDNS DB=>MWB, 7/21 05:00:00
 System Sizing Information, SYS_3_PSZ ALL_ST=WHOLEBUILDING_FL=STORY 1_SCH=B 1, Heating, Sensible, 218417.93, 2.38125, 2.38125, FORT MCMURRAY AP ANN HTG 99.6% CONDNS DB, 1/21 00:10:00
 System Sizing Information, SYS_3_PSZ ALL_ST=WHOLEBUILDING_FL=STORY 1_SCH=B 2, Cooling, Sensible, 27844.05, 2.46259, 2.46259, FORT MCMURRAY AP ANN CLG .4% CONDNS DB=>MWB, 7/21 05:00:00
 System Sizing Information, SYS_3_PSZ ALL_ST=WHOLEBUILDING_FL=STORY 1_SCH=B 2, Heating, Sensible, 214923.25, 2.34315, 2.34315, FORT MCMURRAY AP ANN HTG 99.6% CONDNS DB, 1/21 00:10:00
 System Sizing Information, SYS_3_PSZ ALL_ST=WHOLEBUILDING_FL=STORY 1_SCH=B 3, Cooling, Sensible, 33471.69, 2.90439, 2.90439, FORT MCMURRAY AP ANN CLG .4% CONDNS DB=>MWB, 7/21 05:00:00
 System Sizing Information, SYS_3_PSZ ALL_ST=WHOLEBUILDING_FL=STORY 1_SCH=B 3, Heating, Sensible, 214923.25, 2.34315, 2.34315, FORT MCMURRAY AP ANN HTG 99.6% CONDNS DB, 1/21 00:10:00
 System Sizing Information, SYS_3_PSZ ALL_ST=WHOLEBUILDING_FL=STORY 2_SCH=A, Cooling, Sensible, 75956.06, 5.57663, 5.57663, FORT MCMURRAY AP ANN CLG .4% CONDNS DB=>MWB, 7/21 05:00:00
 System Sizing Information, SYS_3_PSZ ALL_ST=WHOLEBUILDING_FL=STORY 2_SCH=A, Heating, Sensible, 116032.82, 2.35680, 2.35680, FORT MCMURRAY AP ANN HTG 99.6% CONDNS DB, 1/21 08:00:00
 System Sizing Information, SYS_3_PSZ ALL_ST=WHOLEBUILDING_FL=STORY 2_SCH=B, Cooling, Sensible, 90047.64, 6.11548, 6.11548, FORT MCMURRAY AP ANN CLG .4% CONDNS DB=>MWB, 7/21 05:00:00
 System Sizing Information, SYS_3_PSZ ALL_ST=WHOLEBUILDING_FL=STORY 2_SCH=B, Heating, Sensible, 218417.93, 2.38125, 2.38125, FORT MCMURRAY AP ANN HTG 99.6% CONDNS DB, 1/21 00:10:00
 System Sizing Information, SYS_3_PSZ ALL_ST=WHOLEBUILDING_FL=STORY 2_SCH=C, Cooling, Sensible, 99826.56, 7.25287, 7.25287, FORT MCMURRAY AP ANN CLG .4% CONDNS DB=>MWB, 7/21 05:00:00
 System Sizing Information, SYS_3_PSZ ALL_ST=WHOLEBUILDING_FL=STORY 2_SCH=C, Heating, Sensible, 144474.42, 2.01600, 2.01600, FORT MCMURRAY AP ANN HTG 99.6% CONDNS DB, 1/21 09:00:00
 System Sizing Information, SYS_3_PSZ DU_BT=DORMITORY_ST=WHOLEBUILDING_FL=STORY 2_SCHG, Cooling, Sensible, 53926.85, 4.28950, 4.28950, FORT MCMURRAY AP ANN CLG .4% CONDNS DB=>MWB, 7/21 05:00:00
 System Sizing Information, SYS_3_PSZ DU_BT=DORMITORY_ST=WHOLEBUILDING_FL=STORY 2_SCHG, Heating, Sensible, 99606.04, 2.10507, 2.10507, FORT MCMURRAY AP ANN HTG 99.6% CONDNS DB, 1/21 09:00:00
 System Sizing Information, SYS_4_PSZ_ALL_ST=WHOLEBUILDING_FL=STORY 1_SCH=F, Cooling, Sensible, 15764.53, 1.69012, 1.69012, FORT MCMURRAY AP ANN CLG .4% CONDNS DB=>MWB, 7/21 05:00:00
 System Sizing Information, SYS_4_PSZ_ALL_ST=WHOLEBUILDING_FL=STORY 1_SCH=F, Heating, Sensible, 129303.42, 1.40970, 1.40970, FORT MCMURRAY AP ANN HTG 99.6% CONDNS DB, 1/21 00:10:00
 System Sizing Information, SYS_4_PSZ_ALL_ST=WHOLEBUILDING_FL=STORY 2_SCH=E, Cooling, Sensible, 103069.64, 6.86640, 6.86640, FORT MCMURRAY AP ANN CLG .4% CONDNS DB=>MWB, 7/21 05:00:00
 System Sizing Information, SYS_4_PSZ_ALL_ST=WHOLEBUILDING_FL=STORY 2_SCH=E, Heating, Sensible, 263266.42, 2.87020, 2.87020, FORT MCMURRAY AP ANN HTG 99.6% CONDNS DB, 1/21 00:20:00
! <Component Sizing Information>, Component Type, Component Name, Input Field Description, Value
 Component Sizing Information, AirTerminal:SingleDuct:Uncontrolled, AIR TERMINAL SINGLE DUCT UNCONTROLLED 7, Design Size Maximum Air Flow Rate [m3/s], 3.29082
 Component Sizing Information, ZoneHVAC:Baseboard:Convective:Water, ZONE HVAC BASEBOARD CONVECTIVE WATER 7, Design Size Maximum Water Flow Rate [m3/s], 1.62838E-004
 Component Sizing Information, ZoneHVAC:Baseboard:Convective:Water, ZONE HVAC BASEBOARD CONVECTIVE WATER 7, Design Size U-Factor Times Area Value [W/K], 329.46759
 Component Sizing Information, AirTerminal:SingleDuct:Uncontrolled, AIR TERMINAL SINGLE DUCT UNCONTROLLED 8, Design Size Maximum Air Flow Rate [m3/s], 2.67833
 Component Sizing Information, ZoneHVAC:Baseboard:Convective:Water, ZONE HVAC BASEBOARD CONVECTIVE WATER 8, Design Size Maximum Water Flow Rate [m3/s], 1.67374E-004
 Component Sizing Information, ZoneHVAC:Baseboard:Convective:Water, ZONE HVAC BASEBOARD CONVECTIVE WATER 8, Design Size U-Factor Times Area Value [W/K], 338.79313
 Component Sizing Information, AirTerminal:SingleDuct:Uncontrolled, AIR TERMINAL SINGLE DUCT UNCONTROLLED 9, Design Size Maximum Air Flow Rate [m3/s], 2.46259
 Component Sizing Information, ZoneHVAC:Baseboard:Convective:Water, ZONE HVAC BASEBOARD CONVECTIVE WATER 9, Design Size Maximum Water Flow Rate [m3/s], 1.38454E-004
 Component Sizing Information, ZoneHVAC:Baseboard:Convective:Water, ZONE HVAC BASEBOARD CONVECTIVE WATER 9, Design Size U-Factor Times Area Value [W/K], 280.17320
 Component Sizing Information, AirTerminal:SingleDuct:Uncontrolled, AIR TERMINAL SINGLE DUCT UNCONTROLLED 10, Design Size Maximum Air Flow Rate [m3/s], 2.90439
 Component Sizing Information, ZoneHVAC:Baseboard:Convective:Water, ZONE HVAC BASEBOARD CONVECTIVE WATER 10, Design Size Maximum Water Flow Rate [m3/s], 7.69558E-005
 Component Sizing Information, ZoneHVAC:Baseboard:Convective:Water, ZONE HVAC BASEBOARD CONVECTIVE WATER 10, Design Size U-Factor Times Area Value [W/K], 155.78146
 Component Sizing Information, AirTerminal:SingleDuct:Uncontrolled, AIR TERMINAL SINGLE DUCT UNCONTROLLED 3, Design Size Maximum Air Flow Rate [m3/s], 1.69012
 Component Sizing Information, ZoneHVAC:Baseboard:Convective:Water, ZONE HVAC BASEBOARD CONVECTIVE WATER 3, Design Size Maximum Water Flow Rate [m3/s], 9.67428E-005
 Component Sizing Information, ZoneHVAC:Baseboard:Convective:Water, ZONE HVAC BASEBOARD CONVECTIVE WATER 3, Design Size U-Factor Times Area Value [W/K], 195.61951
 Component Sizing Information, AirTerminal:SingleDuct:Uncontrolled, AIR TERMINAL SINGLE DUCT UNCONTROLLED 5, Design Size Maximum Air Flow Rate [m3/s], 5.57663
 Component Sizing Information, ZoneHVAC:Baseboard:Convective:Water, ZONE HVAC BASEBOARD CONVECTIVE WATER 5, Design Size Maximum Water Flow Rate [m3/s], 8.83674E-004
 Component Sizing Information, ZoneHVAC:Baseboard:Convective:Water, ZONE HVAC BASEBOARD CONVECTIVE WATER 5, Design Size U-Factor Times Area Value [W/K], 1803.51402
 Component Sizing Information, AirTerminal:SingleDuct:Uncontrolled, AIR TERMINAL SINGLE DUCT UNCONTROLLED 6, Design Size Maximum Air Flow Rate [m3/s], 6.11548
 Component Sizing Information, ZoneHVAC:Baseboard:Convective:Water, ZONE HVAC BASEBOARD CONVECTIVE WATER 6, Design Size Maximum Water Flow Rate [m3/s], 7.93931E-004
 Component Sizing Information, ZoneHVAC:Baseboard:Convective:Water, ZONE HVAC BASEBOARD CONVECTIVE WATER 6, Design Size U-Factor Times Area Value [W/K], 1620.35815
 Component Sizing Information, AirTerminal:SingleDuct:Uncontrolled, AIR TERMINAL SINGLE DUCT UNCONTROLLED 4, Design Size Maximum Air Flow Rate [m3/s], 7.25287
 Component Sizing Information, ZoneHVAC:Baseboard:Convective:Water, ZONE HVAC BASEBOARD CONVECTIVE WATER 4, Design Size Maximum Water Flow Rate [m3/s], 7.98358E-004
 Component Sizing Information, ZoneHVAC:Baseboard:Convective:Water, ZONE HVAC BASEBOARD CONVECTIVE WATER 4, Design Size U-Factor Times Area Value [W/K], 1635.69887
 Component Sizing Information, AirTerminal:SingleDuct:Uncontrolled, AIR TERMINAL SINGLE DUCT UNCONTROLLED 2, Design Size Maximum Air Flow Rate [m3/s], 6.86640
 Component Sizing Information, ZoneHVAC:Baseboard:Convective:Water, ZONE HVAC BASEBOARD CONVECTIVE WATER 2, Design Size Maximum Water Flow Rate [m3/s], 7.88635E-004
 Component Sizing Information, ZoneHVAC:Baseboard:Convective:Water, ZONE HVAC BASEBOARD CONVECTIVE WATER 2, Design Size U-Factor Times Area Value [W/K], 1609.91773
 Component Sizing Information, AirTerminal:SingleDuct:Uncontrolled, AIR TERMINAL SINGLE DUCT UNCONTROLLED 1, Design Size Maximum Air Flow Rate [m3/s], 4.28950
 Component Sizing Information, ZoneHVAC:Baseboard:Convective:Water, ZONE HVAC BASEBOARD CONVECTIVE WATER 1, Design Size Maximum Water Flow Rate [m3/s], 7.90705E-004
 Component Sizing Information, ZoneHVAC:Baseboard:Convective:Water, ZONE HVAC BASEBOARD CONVECTIVE WATER 1, Design Size U-Factor Times Area Value [W/K], 1613.20421
 Component Sizing Information, AirLoopHVAC, SYS_3_PSZ ALL_ST=WHOLEBUILDING_FL=STORY 1_SCH=B, Sum of Air Terminal Maximum Heating Flow Rates [m3/s], 3.29082
 Component Sizing Information, AirLoopHVAC, SYS_3_PSZ ALL_ST=WHOLEBUILDING_FL=STORY 1_SCH=B, Sum of Air Terminal Minimum Heating Flow Rates [m3/s], 3.29082
 Component Sizing Information, AirLoopHVAC, SYS_3_PSZ ALL_ST=WHOLEBUILDING_FL=STORY 1_SCH=B, Sum of Air Terminal Maximum Flow Rates [m3/s], 3.29082
 Component Sizing Information, AirLoopHVAC, SYS_3_PSZ ALL_ST=WHOLEBUILDING_FL=STORY 1_SCH=B, Adjusted Heating Design Air Flow Rate [m3/s], 3.29082
 Component Sizing Information, AirLoopHVAC, SYS_3_PSZ ALL_ST=WHOLEBUILDING_FL=STORY 1_SCH=B, Adjusted Cooling Design Air Flow Rate [m3/s], 3.29082
 Component Sizing Information, AirLoopHVAC, SYS_3_PSZ ALL_ST=WHOLEBUILDING_FL=STORY 1_SCH=B, Adjusted Main Design Air Flow Rate [m3/s], 3.29082
 Component Sizing Information, AirLoopHVAC, SYS_3_PSZ ALL_ST=WHOLEBUILDING_FL=STORY 1_SCH=B, User Heating Air Flow Ratio [], 1.00000
 Component Sizing Information, AirLoopHVAC, SYS_3_PSZ ALL_ST=WHOLEBUILDING_FL=STORY 1_SCH=B, Calculated Heating Air Flow Ratio [], 1.00000
 Component Sizing Information, AirLoopHVAC, SYS_3_PSZ ALL_ST=WHOLEBUILDING_FL=STORY 1_SCH=B 1, Sum of Air Terminal Maximum Heating Flow Rates [m3/s], 2.67833
 Component Sizing Information, AirLoopHVAC, SYS_3_PSZ ALL_ST=WHOLEBUILDING_FL=STORY 1_SCH=B 1, Sum of Air Terminal Minimum Heating Flow Rates [m3/s], 2.67833
 Component Sizing Information, AirLoopHVAC, SYS_3_PSZ ALL_ST=WHOLEBUILDING_FL=STORY 1_SCH=B 1, Sum of Air Terminal Maximum Flow Rates [m3/s], 2.67833
 Component Sizing Information, AirLoopHVAC, SYS_3_PSZ ALL_ST=WHOLEBUILDING_FL=STORY 1_SCH=B 1, Adjusted Heating Design Air Flow Rate [m3/s], 2.67833
 Component Sizing Information, AirLoopHVAC, SYS_3_PSZ ALL_ST=WHOLEBUILDING_FL=STORY 1_SCH=B 1, Adjusted Cooling Design Air Flow Rate [m3/s], 2.67833
 Component Sizing Information, AirLoopHVAC, SYS_3_PSZ ALL_ST=WHOLEBUILDING_FL=STORY 1_SCH=B 1, Adjusted Main Design Air Flow Rate [m3/s], 2.67833
 Component Sizing Information, AirLoopHVAC, SYS_3_PSZ ALL_ST=WHOLEBUILDING_FL=STORY 1_SCH=B 1, User Heating Air Flow Ratio [], 1.00000
 Component Sizing Information, AirLoopHVAC, SYS_3_PSZ ALL_ST=WHOLEBUILDING_FL=STORY 1_SCH=B 1, Calculated Heating Air Flow Ratio [], 1.00000
 Component Sizing Information, AirLoopHVAC, SYS_3_PSZ ALL_ST=WHOLEBUILDING_FL=STORY 1_SCH=B 2, Sum of Air Terminal Maximum Heating Flow Rates [m3/s], 2.46259
 Component Sizing Information, AirLoopHVAC, SYS_3_PSZ ALL_ST=WHOLEBUILDING_FL=STORY 1_SCH=B 2, Sum of Air Terminal Minimum Heating Flow Rates [m3/s], 2.46259
 Component Sizing Information, AirLoopHVAC, SYS_3_PSZ ALL_ST=WHOLEBUILDING_FL=STORY 1_SCH=B 2, Sum of Air Terminal Maximum Flow Rates [m3/s], 2.46259
 Component Sizing Information, AirLoopHVAC, SYS_3_PSZ ALL_ST=WHOLEBUILDING_FL=STORY 1_SCH=B 2, Adjusted Heating Design Air Flow Rate [m3/s], 2.46259
 Component Sizing Information, AirLoopHVAC, SYS_3_PSZ ALL_ST=WHOLEBUILDING_FL=STORY 1_SCH=B 2, Adjusted Cooling Design Air Flow Rate [m3/s], 2.46259
 Component Sizing Information, AirLoopHVAC, SYS_3_PSZ ALL_ST=WHOLEBUILDING_FL=STORY 1_SCH=B 2, Adjusted Main Design Air Flow Rate [m3/s], 2.46259
 Component Sizing Information, AirLoopHVAC, SYS_3_PSZ ALL_ST=WHOLEBUILDING_FL=STORY 1_SCH=B 2, User Heating Air Flow Ratio [], 1.00000
 Component Sizing Information, AirLoopHVAC, SYS_3_PSZ ALL_ST=WHOLEBUILDING_FL=STORY 1_SCH=B 2, Calculated Heating Air Flow Ratio [], 1.00000
 Component Sizing Information, AirLoopHVAC, SYS_3_PSZ ALL_ST=WHOLEBUILDING_FL=STORY 1_SCH=B 3, Sum of Air Terminal Maximum Heating Flow Rates [m3/s], 2.90439
 Component Sizing Information, AirLoopHVAC, SYS_3_PSZ ALL_ST=WHOLEBUILDING_FL=STORY 1_SCH=B 3, Sum of Air Terminal Minimum Heating Flow Rates [m3/s], 2.90439
 Component Sizing Information, AirLoopHVAC, SYS_3_PSZ ALL_ST=WHOLEBUILDING_FL=STORY 1_SCH=B 3, Sum of Air Terminal Maximum Flow Rates [m3/s], 2.90439
 Component Sizing Information, AirLoopHVAC, SYS_3_PSZ ALL_ST=WHOLEBUILDING_FL=STORY 1_SCH=B 3, Adjusted Heating Design Air Flow Rate [m3/s], 2.90439
 Component Sizing Information, AirLoopHVAC, SYS_3_PSZ ALL_ST=WHOLEBUILDING_FL=STORY 1_SCH=B 3, Adjusted Cooling Design Air Flow Rate [m3/s], 2.90439
 Component Sizing Information, AirLoopHVAC, SYS_3_PSZ ALL_ST=WHOLEBUILDING_FL=STORY 1_SCH=B 3, Adjusted Main Design Air Flow Rate [m3/s], 2.90439
 Component Sizing Information, AirLoopHVAC, SYS_3_PSZ ALL_ST=WHOLEBUILDING_FL=STORY 1_SCH=B 3, User Heating Air Flow Ratio [], 1.00000
 Component Sizing Information, AirLoopHVAC, SYS_3_PSZ ALL_ST=WHOLEBUILDING_FL=STORY 1_SCH=B 3, Calculated Heating Air Flow Ratio [], 1.00000
 Component Sizing Information, AirLoopHVAC, SYS_3_PSZ ALL_ST=WHOLEBUILDING_FL=STORY 2_SCH=A, Sum of Air Terminal Maximum Heating Flow Rates [m3/s], 5.57663
 Component Sizing Information, AirLoopHVAC, SYS_3_PSZ ALL_ST=WHOLEBUILDING_FL=STORY 2_SCH=A, Sum of Air Terminal Minimum Heating Flow Rates [m3/s], 5.57663
 Component Sizing Information, AirLoopHVAC, SYS_3_PSZ ALL_ST=WHOLEBUILDING_FL=STORY 2_SCH=A, Sum of Air Terminal Maximum Flow Rates [m3/s], 5.57663
 Component Sizing Information, AirLoopHVAC, SYS_3_PSZ ALL_ST=WHOLEBUILDING_FL=STORY 2_SCH=A, Adjusted Heating Design Air Flow Rate [m3/s], 5.57663
 Component Sizing Information, AirLoopHVAC, SYS_3_PSZ ALL_ST=WHOLEBUILDING_FL=STORY 2_SCH=A, Adjusted Cooling Design Air Flow Rate [m3/s], 5.57663
 Component Sizing Information, AirLoopHVAC, SYS_3_PSZ ALL_ST=WHOLEBUILDING_FL=STORY 2_SCH=A, Adjusted Main Design Air Flow Rate [m3/s], 5.57663
 Component Sizing Information, AirLoopHVAC, SYS_3_PSZ ALL_ST=WHOLEBUILDING_FL=STORY 2_SCH=A, User Heating Air Flow Ratio [], 1.00000
 Component Sizing Information, AirLoopHVAC, SYS_3_PSZ ALL_ST=WHOLEBUILDING_FL=STORY 2_SCH=A, Calculated Heating Air Flow Ratio [], 1.00000
 Component Sizing Information, AirLoopHVAC, SYS_3_PSZ ALL_ST=WHOLEBUILDING_FL=STORY 2_SCH=B, Sum of Air Terminal Maximum Heating Flow Rates [m3/s], 6.11548
 Component Sizing Information, AirLoopHVAC, SYS_3_PSZ ALL_ST=WHOLEBUILDING_FL=STORY 2_SCH=B, Sum of Air Terminal Minimum Heating Flow Rates [m3/s], 6.11548
 Component Sizing Information, AirLoopHVAC, SYS_3_PSZ ALL_ST=WHOLEBUILDING_FL=STORY 2_SCH=B, Sum of Air Terminal Maximum Flow Rates [m3/s], 6.11548
 Component Sizing Information, AirLoopHVAC, SYS_3_PSZ ALL_ST=WHOLEBUILDING_FL=STORY 2_SCH=B, Adjusted Heating Design Air Flow Rate [m3/s], 6.11548
 Component Sizing Information, AirLoopHVAC, SYS_3_PSZ ALL_ST=WHOLEBUILDING_FL=STORY 2_SCH=B, Adjusted Cooling Design Air Flow Rate [m3/s], 6.11548
 Component Sizing Information, AirLoopHVAC, SYS_3_PSZ ALL_ST=WHOLEBUILDING_FL=STORY 2_SCH=B, Adjusted Main Design Air Flow Rate [m3/s], 6.11548
 Component Sizing Information, AirLoopHVAC, SYS_3_PSZ ALL_ST=WHOLEBUILDING_FL=STORY 2_SCH=B, User Heating Air Flow Ratio [], 1.00000
 Component Sizing Information, AirLoopHVAC, SYS_3_PSZ ALL_ST=WHOLEBUILDING_FL=STORY 2_SCH=B, Calculated Heating Air Flow Ratio [], 1.00000
 Component Sizing Information, AirLoopHVAC, SYS_3_PSZ ALL_ST=WHOLEBUILDING_FL=STORY 2_SCH=C, Sum of Air Terminal Maximum Heating Flow Rates [m3/s], 7.25287
 Component Sizing Information, AirLoopHVAC, SYS_3_PSZ ALL_ST=WHOLEBUILDING_FL=STORY 2_SCH=C, Sum of Air Terminal Minimum Heating Flow Rates [m3/s], 7.25287
 Component Sizing Information, AirLoopHVAC, SYS_3_PSZ ALL_ST=WHOLEBUILDING_FL=STORY 2_SCH=C, Sum of Air Terminal Maximum Flow Rates [m3/s], 7.25287
 Component Sizing Information, AirLoopHVAC, SYS_3_PSZ ALL_ST=WHOLEBUILDING_FL=STORY 2_SCH=C, Adjusted Heating Design Air Flow Rate [m3/s], 7.25287
 Component Sizing Information, AirLoopHVAC, SYS_3_PSZ ALL_ST=WHOLEBUILDING_FL=STORY 2_SCH=C, Adjusted Cooling Design Air Flow Rate [m3/s], 7.25287
 Component Sizing Information, AirLoopHVAC, SYS_3_PSZ ALL_ST=WHOLEBUILDING_FL=STORY 2_SCH=C, Adjusted Main Design Air Flow Rate [m3/s], 7.25287
 Component Sizing Information, AirLoopHVAC, SYS_3_PSZ ALL_ST=WHOLEBUILDING_FL=STORY 2_SCH=C, User Heating Air Flow Ratio [], 1.00000
 Component Sizing Information, AirLoopHVAC, SYS_3_PSZ ALL_ST=WHOLEBUILDING_FL=STORY 2_SCH=C, Calculated Heating Air Flow Ratio [], 1.00000
 Component Sizing Information, AirLoopHVAC, SYS_3_PSZ DU_BT=DORMITORY_ST=WHOLEBUILDING_FL=STORY 2_SCHG, Sum of Air Terminal Maximum Heating Flow Rates [m3/s], 4.28950
 Component Sizing Information, AirLoopHVAC, SYS_3_PSZ DU_BT=DORMITORY_ST=WHOLEBUILDING_FL=STORY 2_SCHG, Sum of Air Terminal Minimum Heating Flow Rates [m3/s], 4.28950
 Component Sizing Information, AirLoopHVAC, SYS_3_PSZ DU_BT=DORMITORY_ST=WHOLEBUILDING_FL=STORY 2_SCHG, Sum of Air Terminal Maximum Flow Rates [m3/s], 4.28950
 Component Sizing Information, AirLoopHVAC, SYS_3_PSZ DU_BT=DORMITORY_ST=WHOLEBUILDING_FL=STORY 2_SCHG, Adjusted Heating Design Air Flow Rate [m3/s], 4.28950
 Component Sizing Information, AirLoopHVAC, SYS_3_PSZ DU_BT=DORMITORY_ST=WHOLEBUILDING_FL=STORY 2_SCHG, Adjusted Cooling Design Air Flow Rate [m3/s], 4.28950
 Component Sizing Information, AirLoopHVAC, SYS_3_PSZ DU_BT=DORMITORY_ST=WHOLEBUILDING_FL=STORY 2_SCHG, Adjusted Main Design Air Flow Rate [m3/s], 4.28950
 Component Sizing Information, AirLoopHVAC, SYS_3_PSZ DU_BT=DORMITORY_ST=WHOLEBUILDING_FL=STORY 2_SCHG, User Heating Air Flow Ratio [], 1.00000
 Component Sizing Information, AirLoopHVAC, SYS_3_PSZ DU_BT=DORMITORY_ST=WHOLEBUILDING_FL=STORY 2_SCHG, Calculated Heating Air Flow Ratio [], 1.00000
 Component Sizing Information, AirLoopHVAC, SYS_4_PSZ_ALL_ST=WHOLEBUILDING_FL=STORY 1_SCH=F, Sum of Air Terminal Maximum Heating Flow Rates [m3/s], 1.69012
 Component Sizing Information, AirLoopHVAC, SYS_4_PSZ_ALL_ST=WHOLEBUILDING_FL=STORY 1_SCH=F, Sum of Air Terminal Minimum Heating Flow Rates [m3/s], 1.69012
 Component Sizing Information, AirLoopHVAC, SYS_4_PSZ_ALL_ST=WHOLEBUILDING_FL=STORY 1_SCH=F, Sum of Air Terminal Maximum Flow Rates [m3/s], 1.69012
 Component Sizing Information, AirLoopHVAC, SYS_4_PSZ_ALL_ST=WHOLEBUILDING_FL=STORY 1_SCH=F, Adjusted Heating Design Air Flow Rate [m3/s], 1.69012
 Component Sizing Information, AirLoopHVAC, SYS_4_PSZ_ALL_ST=WHOLEBUILDING_FL=STORY 1_SCH=F, Adjusted Cooling Design Air Flow Rate [m3/s], 1.69012
 Component Sizing Information, AirLoopHVAC, SYS_4_PSZ_ALL_ST=WHOLEBUILDING_FL=STORY 1_SCH=F, Adjusted Main Design Air Flow Rate [m3/s], 1.69012
 Component Sizing Information, AirLoopHVAC, SYS_4_PSZ_ALL_ST=WHOLEBUILDING_FL=STORY 1_SCH=F, User Heating Air Flow Ratio [], 1.00000
 Component Sizing Information, AirLoopHVAC, SYS_4_PSZ_ALL_ST=WHOLEBUILDING_FL=STORY 1_SCH=F, Calculated Heating Air Flow Ratio [], 1.00000
 Component Sizing Information, AirLoopHVAC, SYS_4_PSZ_ALL_ST=WHOLEBUILDING_FL=STORY 2_SCH=E, Sum of Air Terminal Maximum Heating Flow Rates [m3/s], 6.86640
 Component Sizing Information, AirLoopHVAC, SYS_4_PSZ_ALL_ST=WHOLEBUILDING_FL=STORY 2_SCH=E, Sum of Air Terminal Minimum Heating Flow Rates [m3/s], 6.86640
 Component Sizing Information, AirLoopHVAC, SYS_4_PSZ_ALL_ST=WHOLEBUILDING_FL=STORY 2_SCH=E, Sum of Air Terminal Maximum Flow Rates [m3/s], 6.86640
 Component Sizing Information, AirLoopHVAC, SYS_4_PSZ_ALL_ST=WHOLEBUILDING_FL=STORY 2_SCH=E, Adjusted Heating Design Air Flow Rate [m3/s], 6.86640
 Component Sizing Information, AirLoopHVAC, SYS_4_PSZ_ALL_ST=WHOLEBUILDING_FL=STORY 2_SCH=E, Adjusted Cooling Design Air Flow Rate [m3/s], 6.86640
 Component Sizing Information, AirLoopHVAC, SYS_4_PSZ_ALL_ST=WHOLEBUILDING_FL=STORY 2_SCH=E, Adjusted Main Design Air Flow Rate [m3/s], 6.86640
 Component Sizing Information, AirLoopHVAC, SYS_4_PSZ_ALL_ST=WHOLEBUILDING_FL=STORY 2_SCH=E, User Heating Air Flow Ratio [], 1.00000
 Component Sizing Information, AirLoopHVAC, SYS_4_PSZ_ALL_ST=WHOLEBUILDING_FL=STORY 2_SCH=E, Calculated Heating Air Flow Ratio [], 1.00000
 Component Sizing Information, AirLoopHVAC, SYS_3_PSZ ALL_ST=WHOLEBUILDING_FL=STORY 1_SCH=B, Design Supply Air Flow Rate [m3/s], 3.29082
 Component Sizing Information, AirLoopHVAC, SYS_3_PSZ ALL_ST=WHOLEBUILDING_FL=STORY 1_SCH=B 1, Design Supply Air Flow Rate [m3/s], 2.67833
 Component Sizing Information, AirLoopHVAC, SYS_3_PSZ ALL_ST=WHOLEBUILDING_FL=STORY 1_SCH=B 2, Design Supply Air Flow Rate [m3/s], 2.46259
 Component Sizing Information, AirLoopHVAC, SYS_3_PSZ ALL_ST=WHOLEBUILDING_FL=STORY 1_SCH=B 3, Design Supply Air Flow Rate [m3/s], 2.90439
 Component Sizing Information, AirLoopHVAC, SYS_3_PSZ ALL_ST=WHOLEBUILDING_FL=STORY 2_SCH=A, Design Supply Air Flow Rate [m3/s], 5.57663
 Component Sizing Information, AirLoopHVAC, SYS_3_PSZ ALL_ST=WHOLEBUILDING_FL=STORY 2_SCH=B, Design Supply Air Flow Rate [m3/s], 6.11548
 Component Sizing Information, AirLoopHVAC, SYS_3_PSZ ALL_ST=WHOLEBUILDING_FL=STORY 2_SCH=C, Design Supply Air Flow Rate [m3/s], 7.25287
 Component Sizing Information, AirLoopHVAC, SYS_3_PSZ DU_BT=DORMITORY_ST=WHOLEBUILDING_FL=STORY 2_SCHG, Design Supply Air Flow Rate [m3/s], 4.28950
 Component Sizing Information, AirLoopHVAC, SYS_4_PSZ_ALL_ST=WHOLEBUILDING_FL=STORY 1_SCH=F, Design Supply Air Flow Rate [m3/s], 1.69012
 Component Sizing Information, AirLoopHVAC, SYS_4_PSZ_ALL_ST=WHOLEBUILDING_FL=STORY 2_SCH=E, Design Supply Air Flow Rate [m3/s], 6.86640
!<Controller:MechanicalVentilation>,Name,Availability Schedule Name,Demand Controlled Ventilation {Yes/No},System Outdoor Air Method,Zone Maximum Outdoor Air Fraction,Number of Zones,Zone Name,DSOA Name,DSZAD Name
 Controller:MechanicalVentilation,CONTROLLER MECHANICAL VENTILATION 7,SYS_3_PSZ ALL_ST=WHOLEBUILDING_FL=STORY 1_SCH=B OCC SCH,No,ZoneSum,1.00,1,ALL_ST=WHOLEBUILDING_FL=STORY 1_SCH=B,DINING - CAFETERIA WHOLEBUILDING VENTILATION,ALL_ST=WHOLEBUILDING_FL=STORY 1_SCH=B DESIGN SPEC ZONE AIR DIST
 Controller:MechanicalVentilation,CONTROLLER MECHANICAL VENTILATION 8,SYS_3_PSZ ALL_ST=WHOLEBUILDING_FL=STORY 1_SCH=B 1 OCC SCH,No,ZoneSum,1.00,1,ALL_ST=WHOLEBUILDING_FL=STORY 1_SCH=B 1,DINING - FAMILY WHOLEBUILDING VENTILATION,ALL_ST=WHOLEBUILDING_FL=STORY 1_SCH=B 1 DESIGN SPEC ZONE AIR DIST
 Controller:MechanicalVentilation,CONTROLLER MECHANICAL VENTILATION 9,SYS_3_PSZ ALL_ST=WHOLEBUILDING_FL=STORY 1_SCH=B 2 OCC SCH,No,ZoneSum,1.00,1,ALL_ST=WHOLEBUILDING_FL=STORY 1_SCH=B 2,EXERCISE CENTRE WHOLEBUILDING VENTILATION,ALL_ST=WHOLEBUILDING_FL=STORY 1_SCH=B 2 DESIGN SPEC ZONE AIR DIST
 Controller:MechanicalVentilation,CONTROLLER MECHANICAL VENTILATION 10,SYS_3_PSZ ALL_ST=WHOLEBUILDING_FL=STORY 1_SCH=B 3 OCC SCH,No,ZoneSum,1.00,1,ALL_ST=WHOLEBUILDING_FL=STORY 1_SCH=B 3,GYMNASIUM WHOLEBUILDING VENTILATION,ALL_ST=WHOLEBUILDING_FL=STORY 1_SCH=B 3 DESIGN SPEC ZONE AIR DIST
 Controller:MechanicalVentilation,CONTROLLER MECHANICAL VENTILATION 3,SYS_4_PSZ_ALL_ST=WHOLEBUILDING_FL=STORY 1_SCH=F OCC SCH,No,ZoneSum,1.00,1,ALL_ST=WHOLEBUILDING_FL=STORY 1_SCH=F,FIRE STATION WHOLEBUILDING VENTILATION,ALL_ST=WHOLEBUILDING_FL=STORY 1_SCH=F DESIGN SPEC ZONE AIR DIST
 Controller:MechanicalVentilation,CONTROLLER MECHANICAL VENTILATION 5,SYS_3_PSZ ALL_ST=WHOLEBUILDING_FL=STORY 2_SCH=A OCC SCH,No,ZoneSum,1.00,1,ALL_ST=WHOLEBUILDING_FL=STORY 2_SCH=A,COURTHOUSE WHOLEBUILDING VENTILATION,ALL_ST=WHOLEBUILDING_FL=STORY 2_SCH=A DESIGN SPEC ZONE AIR DIST
 Controller:MechanicalVentilation,CONTROLLER MECHANICAL VENTILATION 6,SYS_3_PSZ ALL_ST=WHOLEBUILDING_FL=STORY 2_SCH=B OCC SCH,No,ZoneSum,1.00,1,ALL_ST=WHOLEBUILDING_FL=STORY 2_SCH=B,DINING - BAR/LOUNGE WHOLEBUILDING VENTILATION,ALL_ST=WHOLEBUILDING_FL=STORY 2_SCH=B DESIGN SPEC ZONE AIR DIST
 Controller:MechanicalVentilation,CONTROLLER MECHANICAL VENTILATION 4,SYS_3_PSZ ALL_ST=WHOLEBUILDING_FL=STORY 2_SCH=C OCC SCH,No,ZoneSum,1.00,1,ALL_ST=WHOLEBUILDING_FL=STORY 2_SCH=C,CONVENTION CENTRE WHOLEBUILDING VENTILATION,ALL_ST=WHOLEBUILDING_FL=STORY 2_SCH=C DESIGN SPEC ZONE AIR DIST
 Controller:MechanicalVentilation,CONTROLLER MECHANICAL VENTILATION 2,SYS_4_PSZ_ALL_ST=WHOLEBUILDING_FL=STORY 2_SCH=E OCC SCH,No,ZoneSum,1.00,1,ALL_ST=WHOLEBUILDING_FL=STORY 2_SCH=E,AUTOMOTIVE FACILITY WHOLEBUILDING VENTILATION,ALL_ST=WHOLEBUILDING_FL=STORY 2_SCH=E DESIGN SPEC ZONE AIR DIST
 Controller:MechanicalVentilation,CONTROLLER MECHANICAL VENTILATION 1,SYS_3_PSZ DU_BT=DORMITORY_ST=WHOLEBUILDING_FL=STORY 2_SCHG OCC SCH,No,ZoneSum,1.00,1,DU_BT=DORMITORY_ST=WHOLEBUILDING_FL=STORY 2_SCHG,DORMITORY WHOLEBUILDING VENTILATION,DU_BT=DORMITORY_ST=WHOLEBUILDING_FL=STORY 2_SCHG DESIGN SPEC ZONE AIR DIST
 Component Sizing Information, Controller:OutdoorAir, CONTROLLER OUTDOOR AIR 7, Maximum Outdoor Air Flow Rate [m3/s], 3.29082
 Component Sizing Information, Controller:OutdoorAir, CONTROLLER OUTDOOR AIR 7, Minimum Outdoor Air Flow Rate [m3/s], 3.17500
 Component Sizing Information, HeatExchanger:AirToAir:SensibleAndLatent, SYS_3_PSZ ALL_ST=WHOLEBUILDING_FL=STORY 1_SCH=B ERV, Design Size Nominal Supply Air Flow Rate [m3/s], 3.17500
 Component Sizing Information, Coil:Cooling:DX:SingleSpeed, COIL COOLING DX SINGLE SPEED 7 186KBTU/HR 9.7EER, Design Size Rated Air Flow Rate [m3/s], 3.29082
 Component Sizing Information, Coil:Cooling:DX:SingleSpeed, COIL COOLING DX SINGLE SPEED 7 186KBTU/HR 9.7EER, Design Size Gross Rated Total Cooling Capacity [W], 54474.77936
 Component Sizing Information, Coil:Cooling:DX:SingleSpeed, COIL COOLING DX SINGLE SPEED 7 186KBTU/HR 9.7EER, Design Size Gross Rated Sensible Heat Ratio, 0.80066
! <DX Cooling Coil Standard Rating Information>, Component Type, Component Name, Standard Rating (Net) Cooling Capacity {W}, Standard Rated Net COP {W/W}, EER {Btu/W-h}, SEER {Btu/W-h}, IEER {Btu/W-h}
 DX Cooling Coil Standard Rating Information, Coil:Cooling:DX:SingleSpeed, COIL COOLING DX SINGLE SPEED 7 186KBTU/HR 9.7EER, 51916.8, 2.81, 9.59, 10.12, 9.55
 Component Sizing Information, Coil:Heating:Fuel, COIL HEATING GAS 7, Design Size Nominal Capacity [W], 294082.40534
 Component Sizing Information, Fan:ConstantVolume, FAN CONSTANT VOLUME 7, Design Size Maximum Flow Rate [m3/s], 3.29082
 Component Sizing Information, Controller:OutdoorAir, CONTROLLER OUTDOOR AIR 8, Maximum Outdoor Air Flow Rate [m3/s], 2.67833
 Component Sizing Information, Controller:OutdoorAir, CONTROLLER OUTDOOR AIR 8, Minimum Outdoor Air Flow Rate [m3/s], 2.38125
 Component Sizing Information, HeatExchanger:AirToAir:SensibleAndLatent, SYS_3_PSZ ALL_ST=WHOLEBUILDING_FL=STORY 1_SCH=B 1 ERV, Design Size Nominal Supply Air Flow Rate [m3/s], 2.38125
 Component Sizing Information, Coil:Cooling:DX:SingleSpeed, COIL COOLING DX SINGLE SPEED 8 151KBTU/HR 9.7EER, Design Size Rated Air Flow Rate [m3/s], 2.67833
 Component Sizing Information, Coil:Cooling:DX:SingleSpeed, COIL COOLING DX SINGLE SPEED 8 151KBTU/HR 9.7EER, Design Size Gross Rated Total Cooling Capacity [W], 44335.85412
 Component Sizing Information, Coil:Cooling:DX:SingleSpeed, COIL COOLING DX SINGLE SPEED 8 151KBTU/HR 9.7EER, Design Size Gross Rated Sensible Heat Ratio, 0.80066
 DX Cooling Coil Standard Rating Information, Coil:Cooling:DX:SingleSpeed, COIL COOLING DX SINGLE SPEED 8 151KBTU/HR 9.7EER, 42253.9, 2.79, 9.53, 10.05, 9.50
 Component Sizing Information, Coil:Heating:Fuel, COIL HEATING GAS 8, Design Size Nominal Capacity [W], 225777.33090
 Component Sizing Information, Fan:ConstantVolume, FAN CONSTANT VOLUME 8, Design Size Maximum Flow Rate [m3/s], 2.67833
 Component Sizing Information, Controller:OutdoorAir, CONTROLLER OUTDOOR AIR 9, Maximum Outdoor Air Flow Rate [m3/s], 2.46259
 Component Sizing Information, Controller:OutdoorAir, CONTROLLER OUTDOOR AIR 9, Minimum Outdoor Air Flow Rate [m3/s], 2.34315
 Component Sizing Information, HeatExchanger:AirToAir:SensibleAndLatent, SYS_3_PSZ ALL_ST=WHOLEBUILDING_FL=STORY 1_SCH=B 2 ERV, Design Size Nominal Supply Air Flow Rate [m3/s], 2.34315
 Component Sizing Information, Coil:Cooling:DX:SingleSpeed, COIL COOLING DX SINGLE SPEED 9 139KBTU/HR 9.7EER, Design Size Rated Air Flow Rate [m3/s], 2.46259
 Component Sizing Information, Coil:Cooling:DX:SingleSpeed, COIL COOLING DX SINGLE SPEED 9 139KBTU/HR 9.7EER, Design Size Gross Rated Total Cooling Capacity [W], 40764.55707
 Component Sizing Information, Coil:Cooling:DX:SingleSpeed, COIL COOLING DX SINGLE SPEED 9 139KBTU/HR 9.7EER, Design Size Gross Rated Sensible Heat Ratio, 0.80066
 DX Cooling Coil Standard Rating Information, Coil:Cooling:DX:SingleSpeed, COIL COOLING DX SINGLE SPEED 9 139KBTU/HR 9.7EER, 38850.3, 2.79, 9.51, 10.03, 9.48
 Component Sizing Information, Coil:Heating:Fuel, COIL HEATING GAS 9, Design Size Nominal Capacity [W], 217874.25747
 Component Sizing Information, Fan:ConstantVolume, FAN CONSTANT VOLUME 9, Design Size Maximum Flow Rate [m3/s], 2.46259
 Component Sizing Information, Controller:OutdoorAir, CONTROLLER OUTDOOR AIR 10, Maximum Outdoor Air Flow Rate [m3/s], 2.90439
 Component Sizing Information, Controller:OutdoorAir, CONTROLLER OUTDOOR AIR 10, Minimum Outdoor Air Flow Rate [m3/s], 2.34315
 Component Sizing Information, HeatExchanger:AirToAir:SensibleAndLatent, SYS_3_PSZ ALL_ST=WHOLEBUILDING_FL=STORY 1_SCH=B 3 ERV, Design Size Nominal Supply Air Flow Rate [m3/s], 2.34315
 Component Sizing Information, Coil:Cooling:DX:SingleSpeed, COIL COOLING DX SINGLE SPEED 10 164KBTU/HR 9.7EER, Design Size Rated Air Flow Rate [m3/s], 2.90439
 Component Sizing Information, Coil:Cooling:DX:SingleSpeed, COIL COOLING DX SINGLE SPEED 10 164KBTU/HR 9.7EER, Design Size Gross Rated Total Cooling Capacity [W], 48077.97910
 Component Sizing Information, Coil:Cooling:DX:SingleSpeed, COIL COOLING DX SINGLE SPEED 10 164KBTU/HR 9.7EER, Design Size Gross Rated Sensible Heat Ratio, 0.80066
 DX Cooling Coil Standard Rating Information, Coil:Cooling:DX:SingleSpeed, COIL COOLING DX SINGLE SPEED 10 164KBTU/HR 9.7EER, 45820.3, 2.80, 9.55, 10.08, 9.52
 Component Sizing Information, Coil:Heating:Fuel, COIL HEATING GAS 10, Design Size Nominal Capacity [W], 228710.12184
 Component Sizing Information, Fan:ConstantVolume, FAN CONSTANT VOLUME 10, Design Size Maximum Flow Rate [m3/s], 2.90439
 Component Sizing Information, Controller:OutdoorAir, CONTROLLER OUTDOOR AIR 5, Maximum Outdoor Air Flow Rate [m3/s], 5.57663
 Component Sizing Information, Controller:OutdoorAir, CONTROLLER OUTDOOR AIR 5, Minimum Outdoor Air Flow Rate [m3/s], 0.86678
 Component Sizing Information, Coil:Cooling:DX:SingleSpeed, COIL COOLING DX SINGLE SPEED 5 315KBTU/HR 8.21EER, Design Size Rated Air Flow Rate [m3/s], 5.57663
 Component Sizing Information, Coil:Cooling:DX:SingleSpeed, COIL COOLING DX SINGLE SPEED 5 315KBTU/HR 8.21EER, Design Size Gross Rated Total Cooling Capacity [W], 92623.13594
 Component Sizing Information, Coil:Cooling:DX:SingleSpeed, COIL COOLING DX SINGLE SPEED 5 315KBTU/HR 8.21EER, Design Size Gross Rated Sensible Heat Ratio, 0.80042
 DX Cooling Coil Standard Rating Information, Coil:Cooling:DX:SingleSpeed, COIL COOLING DX SINGLE SPEED 5 315KBTU/HR 8.21EER, 88288.2, 2.49, 8.51, 8.99, 8.58
 Component Sizing Information, Coil:Heating:Fuel, COIL HEATING GAS 5, Design Size Nominal Capacity [W], 194968.37423
 Component Sizing Information, Fan:ConstantVolume, FAN CONSTANT VOLUME 5, Design Size Maximum Flow Rate [m3/s], 5.57663
 Component Sizing Information, Controller:OutdoorAir, CONTROLLER OUTDOOR AIR 6, Maximum Outdoor Air Flow Rate [m3/s], 6.11548
 Component Sizing Information, Controller:OutdoorAir, CONTROLLER OUTDOOR AIR 6, Minimum Outdoor Air Flow Rate [m3/s], 2.38125
 Component Sizing Information, HeatExchanger:AirToAir:SensibleAndLatent, SYS_3_PSZ ALL_ST=WHOLEBUILDING_FL=STORY 2_SCH=B ERV, Design Size Nominal Supply Air Flow Rate [m3/s], 2.38125
 Component Sizing Information, Coil:Cooling:DX:SingleSpeed, COIL COOLING DX SINGLE SPEED 6 345KBTU/HR 8.21EER, Design Size Rated Air Flow Rate [m3/s], 6.11548
 Component Sizing Information, Coil:Cooling:DX:SingleSpeed, COIL COOLING DX SINGLE SPEED 6 345KBTU/HR 8.21EER, Design Size Gross Rated Total Cooling Capacity [W], 104159.77200
 Component Sizing Information, Coil:Cooling:DX:SingleSpeed, COIL COOLING DX SINGLE SPEED 6 345KBTU/HR 8.21EER, Design Size Gross Rated Sensible Heat Ratio, 0.80032
 DX Cooling Coil Standard Rating Information, Coil:Cooling:DX:SingleSpeed, COIL COOLING DX SINGLE SPEED 6 345KBTU/HR 8.21EER, 99405.4, 2.52, 8.59, 9.08, 8.68
 Component Sizing Information, Coil:Heating:Fuel, COIL HEATING GAS 6, Design Size Nominal Capacity [W], 310116.40480
 Component Sizing Information, Fan:ConstantVolume, FAN CONSTANT VOLUME 6, Design Size Maximum Flow Rate [m3/s], 6.11548
 Component Sizing Information, Controller:OutdoorAir, CONTROLLER OUTDOOR AIR 4, Maximum Outdoor Air Flow Rate [m3/s], 7.25287
 Component Sizing Information, Controller:OutdoorAir, CONTROLLER OUTDOOR AIR 4, Minimum Outdoor Air Flow Rate [m3/s], 1.40018
 Component Sizing Information, Coil:Cooling:DX:SingleSpeed, COIL COOLING DX SINGLE SPEED 4 410KBTU/HR 8.21EER, Design Size Rated Air Flow Rate [m3/s], 7.25287
 Component Sizing Information, Coil:Cooling:DX:SingleSpeed, COIL COOLING DX SINGLE SPEED 4 410KBTU/HR 8.21EER, Design Size Gross Rated Total Cooling Capacity [W], 121958.70545
 Component Sizing Information, Coil:Cooling:DX:SingleSpeed, COIL COOLING DX SINGLE SPEED 4 410KBTU/HR 8.21EER, Design Size Gross Rated Sensible Heat Ratio, 0.80093
 DX Cooling Coil Standard Rating Information, Coil:Cooling:DX:SingleSpeed, COIL COOLING DX SINGLE SPEED 4 410KBTU/HR 8.21EER, 116320.5, 2.54, 8.68, 9.17, 8.75
 Component Sizing Information, Coil:Heating:Fuel, COIL HEATING GAS 4, Design Size Nominal Capacity [W], 280915.41874
 Component Sizing Information, Fan:ConstantVolume, FAN CONSTANT VOLUME 4, Design Size Maximum Flow Rate [m3/s], 7.25287
 Component Sizing Information, Controller:OutdoorAir, CONTROLLER OUTDOOR AIR 1, Maximum Outdoor Air Flow Rate [m3/s], 4.28950
 Component Sizing Information, Controller:OutdoorAir, CONTROLLER OUTDOOR AIR 1, Minimum Outdoor Air Flow Rate [m3/s], 0.71438
 Component Sizing Information, Coil:Cooling:DX:SingleSpeed, COIL COOLING DX SINGLE SPEED 1 242KBTU/HR 9.7EER, Design Size Rated Air Flow Rate [m3/s], 4.28950
 Component Sizing Information, Coil:Cooling:DX:SingleSpeed, COIL COOLING DX SINGLE SPEED 1 242KBTU/HR 9.7EER, Design Size Gross Rated Total Cooling Capacity [W], 71006.49375
 Component Sizing Information, Coil:Cooling:DX:SingleSpeed, COIL COOLING DX SINGLE SPEED 1 242KBTU/HR 9.7EER, Design Size Gross Rated Sensible Heat Ratio, 0.80066
 DX Cooling Coil Standard Rating Information, Coil:Cooling:DX:SingleSpeed, COIL COOLING DX SINGLE SPEED 1 242KBTU/HR 9.7EER, 67672.2, 2.84, 9.69, 10.23, 9.64
 Component Sizing Information, Coil:Heating:Fuel, COIL HEATING GAS 1, Design Size Nominal Capacity [W], 153138.23817
 Component Sizing Information, Fan:ConstantVolume, FAN CONSTANT VOLUME 1, Design Size Maximum Flow Rate [m3/s], 4.28950
 Component Sizing Information, Controller:OutdoorAir, CONTROLLER OUTDOOR AIR 3, Maximum Outdoor Air Flow Rate [m3/s], 1.69012
 Component Sizing Information, Controller:OutdoorAir, CONTROLLER OUTDOOR AIR 3, Minimum Outdoor Air Flow Rate [m3/s], 1.40970
 Component Sizing Information, Coil:Cooling:DX:SingleSpeed, COIL COOLING DX SINGLE SPEED 3 95KBTU/HR 9.7EER, Design Size Rated Air Flow Rate [m3/s], 1.69012
 Component Sizing Information, Coil:Cooling:DX:SingleSpeed, COIL COOLING DX SINGLE SPEED 3 95KBTU/HR 9.7EER, Design Size Gross Rated Total Cooling Capacity [W], 27977.41891
 Component Sizing Information, Coil:Cooling:DX:SingleSpeed, COIL COOLING DX SINGLE SPEED 3 95KBTU/HR 9.7EER, Design Size Gross Rated Sensible Heat Ratio, 0.80066
 DX Cooling Coil Standard Rating Information, Coil:Cooling:DX:SingleSpeed, COIL COOLING DX SINGLE SPEED 3 95KBTU/HR 9.7EER, 26663.7, 2.76, 9.42, 9.94, 9.40
 Component Sizing Information, Coil:Heating:Fuel, COIL HEATING GAS 3, Design Size Nominal Capacity [W], 136158.64117
 Component Sizing Information, Fan:ConstantVolume, FAN CONSTANT VOLUME 3, Design Size Maximum Flow Rate [m3/s], 1.69012
 Component Sizing Information, Controller:OutdoorAir, CONTROLLER OUTDOOR AIR 2, Maximum Outdoor Air Flow Rate [m3/s], 6.86640
 Component Sizing Information, Controller:OutdoorAir, CONTROLLER OUTDOOR AIR 2, Minimum Outdoor Air Flow Rate [m3/s], 2.87020
 Component Sizing Information, HeatExchanger:AirToAir:SensibleAndLatent, SYS_4_PSZ_ALL_ST=WHOLEBUILDING_FL=STORY 2_SCH=E ERV, Design Size Nominal Supply Air Flow Rate [m3/s], 2.87020
 Component Sizing Information, Coil:Cooling:DX:SingleSpeed, COIL COOLING DX SINGLE SPEED 2 388KBTU/HR 8.21EER, Design Size Rated Air Flow Rate [m3/s], 6.86640
 Component Sizing Information, Coil:Cooling:DX:SingleSpeed, COIL COOLING DX SINGLE SPEED 2 388KBTU/HR 8.21EER, Design Size Gross Rated Total Cooling Capacity [W], 120441.67060
 Component Sizing Information, Coil:Cooling:DX:SingleSpeed, COIL COOLING DX SINGLE SPEED 2 388KBTU/HR 8.21EER, Design Size Gross Rated Sensible Heat Ratio, 0.80096
 DX Cooling Coil Standard Rating Information, Coil:Cooling:DX:SingleSpeed, COIL COOLING DX SINGLE SPEED 2 388KBTU/HR 8.21EER, 115102.6, 2.55, 8.70, 9.20, 8.81
 Component Sizing Information, Coil:Heating:Fuel, COIL HEATING GAS 2, Design Size Nominal Capacity [W], 361391.80126
 Component Sizing Information, Fan:ConstantVolume, FAN CONSTANT VOLUME 2, Design Size Maximum Flow Rate [m3/s], 6.86640
Water Heater Information,WaterHeater:Mixed,648GAL NATURALGAS WATER HEATER - 1278KBTU/HR 0.803 THERM EFF,2.4523,374435.6,0.288,0.2382
 Component Sizing Information, PlantLoop, HOT WATER LOOP, Maximum Loop Flow Rate [m3/s], 4.69767E-003
 Component Sizing Information, PlantLoop, HOT WATER LOOP, Plant Loop Volume [m3], 0.56372
 Component Sizing Information, Pump:VariableSpeed, PUMP VARIABLE SPEED 1, Design Flow Rate [m3/s], 4.69767E-003
 Component Sizing Information, Pump:VariableSpeed, PUMP VARIABLE SPEED 1, Design Power Consumption [W], 1248.75638
 Component Sizing Information, Boiler:HotWater, PRIMARY BOILER 539KBTU/HR 0.83 THERMAL EFF, Design Size Nominal Capacity [W], 315741.19231
 Component Sizing Information, Boiler:HotWater, PRIMARY BOILER 539KBTU/HR 0.83 THERMAL EFF, User-Specified Nominal Capacity [W], 157870.59615
 Component Sizing Information, Boiler:HotWater, PRIMARY BOILER 539KBTU/HR 0.83 THERMAL EFF, Design Size Design Water Flow Rate [m3/s], 4.69767E-003
 Component Sizing Information, Boiler:HotWater, SECONDARY BOILER 539KBTU/HR 0.83 THERMAL EFF, Design Size Nominal Capacity [W], 315741.19231
 Component Sizing Information, Boiler:HotWater, SECONDARY BOILER 539KBTU/HR 0.83 THERMAL EFF, User-Specified Nominal Capacity [W], 157870.59615
 Component Sizing Information, Boiler:HotWater, SECONDARY BOILER 539KBTU/HR 0.83 THERMAL EFF, Design Size Design Water Flow Rate [m3/s], 4.69767E-003
 Component Sizing Information, PlantLoop, MAIN SERVICE WATER LOOP, Maximum Loop Flow Rate [m3/s], 1.03560E-003
 Component Sizing Information, PlantLoop, MAIN SERVICE WATER LOOP, Plant Loop Volume [m3], 0.12427
 Component Sizing Information, Pump:ConstantSpeed, SERVICE WATER LOOP PUMP, Design Flow Rate [m3/s], 1.03560E-003
 Component Sizing Information, Pump:ConstantSpeed, SERVICE WATER LOOP PUMP, Design Power Consumption [W], 278.78798
 Component Sizing Information, WaterHeater:Mixed, 648GAL NATURALGAS WATER HEATER - 1278KBTU/HR 0.803 THERM EFF, Use Side Design Flow Rate [m3/s], 1.03560E-003
! <Environment>,Environment Name,Environment Type, Start Date, End Date, Start DayOfWeek, Duration {#days}, Source:Start DayOfWeek,  Use Daylight Saving, Use Holidays, Apply Weekend Holiday Rule,  Use Rain Values, Use Snow Values
! <Environment:Special Days>, Special Day Name, Special Day Type, Source, Start Date, Duration {#days}
! <Environment:Daylight Saving>, Daylight Saving Indicator, Source, Start Date, End Date
! <Environment:WarmupDays>, NumberofWarmupDays
Environment,RUN PERIOD 1,WeatherFileRunPeriod,01/01,12/31,Sunday,365,Use RunPeriod Specified Day,No,No,No,Yes,Yes
Environment:Daylight Saving,No,RunPeriod Object
Environment:WarmupDays,  6
! <Tabular Report>,Style,Unit Conversion
Tabular Report,HTML,None
! <Warmup Convergence Information>,Zone Name,Environment Type/Name,Average Warmup Temperature Difference {deltaC},Std Dev Warmup Temperature Difference {deltaC},Max Temperature Pass/Fail Convergence,Min Temperature Pass/Fail Convergence,Average Warmup Load Difference {W},Std Dev Warmup Load Difference {W},Heating Load Pass/Fail Convergence,Cooling Load Pass/Fail Convergence
 Warmup Convergence Information,ALL_ST=WHOLEBUILDING_FL=STORY 1_SCH=B,RunPeriod: RUN PERIOD 1,2.8895836436E-002,0.1149884364,Pass,Pass,6.1633475346E-002,0.1703975807,Pass,Pass
 Warmup Convergence Information,ALL_ST=WHOLEBUILDING_FL=STORY 1_SCH=B 1,RunPeriod: RUN PERIOD 1,3.8583541154E-002,0.1134261611,Pass,Pass,5.6144746955E-002,0.2280529967,Pass,Pass
 Warmup Convergence Information,ALL_ST=WHOLEBUILDING_FL=STORY 1_SCH=B 2,RunPeriod: RUN PERIOD 1,3.4842598201E-002,0.1011574226,Pass,Pass,5.6417242845E-002,0.2130348209,Pass,Pass
 Warmup Convergence Information,ALL_ST=WHOLEBUILDING_FL=STORY 1_SCH=B 3,RunPeriod: RUN PERIOD 1,4.0288716024E-002,0.1241347003,Pass,Pass,6.3729570105E-002,0.2316377917,Pass,Pass
 Warmup Convergence Information,ALL_ST=WHOLEBUILDING_FL=STORY 1_SCH=F,RunPeriod: RUN PERIOD 1,4.8222576682E-002,0.1820662502,Pass,Pass,0.1998688234,0.7428641673,Pass,Pass
 Warmup Convergence Information,ALL_ST=WHOLEBUILDING_FL=STORY 2_SCH=A,RunPeriod: RUN PERIOD 1,4.4747446000E-003,1.5815731792E-002,Pass,Pass,7.5422501422E-002,0.1823635277,Pass,Pass
 Warmup Convergence Information,ALL_ST=WHOLEBUILDING_FL=STORY 2_SCH=B,RunPeriod: RUN PERIOD 1,9.4802333457E-002,0.3016300881,Pass,Pass,0.4540147791,1.9191967386,Pass,Pass
 Warmup Convergence Information,ALL_ST=WHOLEBUILDING_FL=STORY 2_SCH=C,RunPeriod: RUN PERIOD 1,7.7084545930E-002,0.2329645216,Pass,Pass,1.0098015882,10.9610678703,Pass,Pass
 Warmup Convergence Information,ALL_ST=WHOLEBUILDING_FL=STORY 2_SCH=E,RunPeriod: RUN PERIOD 1,2.0549489618E-002,3.0641071574E-002,Pass,Pass,4.3929722180E-002,0.1158378194,Pass,Pass
 Warmup Convergence Information,DU_BT=DORMITORY_ST=WHOLEBUILDING_FL=STORY 2_SCHG,RunPeriod: RUN PERIOD 1,5.5885381091E-002,0.2835936373,Pass,Pass,0.4202025582,2.9001648391,Pass,Pass
! <Program Control Information:Threads/Parallel Sims>, Threading Supported,Maximum Number of Threads, Env Set Threads (OMP_NUM_THREADS), EP Env Set Threads (EP_OMP_NUM_THREADS), IDF Set Threads, Number of Threads Used (Interior Radiant Exchange), Number Nominal Surfaces, Number Parallel Sims
Program Control:Threads/Parallel Sims, No,1, N/A, N/A, N/A, N/A, N/A, N/A
End of Data
