Program Version,EnergyPlus, Version 8.9.0-eba93e8e1b, YMD=2019.03.07 21:46
! <Version>, Version ID
 Version, 8.9
! <Timesteps per Hour>, #TimeSteps, Minutes per TimeStep {minutes}
 Timesteps per Hour,  6, 10
! <System Convergence Limits>, Minimum System TimeStep {minutes}, Max HVAC Iterations, Minimum Plant Iterations, Maximum Plant Iterations
 System Convergence Limits, 1, 20, 2, 8
! <Simulation Control>, Do Zone Sizing, Do System Sizing, Do Plant Sizing, Do Design Days, Do Weather Simulation, Do HVAC Sizing Simulation
 Simulation Control, Yes, Yes, Yes, No, Yes, No
! <Output Reporting Tolerances>, Tolerance for Time Heating Setpoint Not Met, Tolerance for Zone Cooling Setpoint Not Met Time
 Output Reporting Tolerances, 1.000, 1.000, 
! <Site:GroundTemperature:BuildingSurface>,Jan{C},Feb{C},Mar{C},Apr{C},May{C},Jun{C},Jul{C},Aug{C},Sep{C},Oct{C},Nov{C},Dec{C}
 Site:GroundTemperature:BuildingSurface,  19.53,  19.50,  19.54,  19.60,  20.00,  21.64,  22.23,  22.38,  21.45,  20.12,  19.80,  19.63
! <Site:GroundTemperature:FCfactorMethod>,Jan{C},Feb{C},Mar{C},Apr{C},May{C},Jun{C},Jul{C},Aug{C},Sep{C},Oct{C},Nov{C},Dec{C}
 Site:GroundTemperature:FCfactorMethod, -12.27, -13.66, -11.19,  -7.33,   2.77,  10.57,  15.83,  17.43,  14.70,   8.65,   0.56,  -6.95
! <Site:GroundTemperature:Shallow>,Jan{C},Feb{C},Mar{C},Apr{C},May{C},Jun{C},Jul{C},Aug{C},Sep{C},Oct{C},Nov{C},Dec{C}
 Site:GroundTemperature:Shallow,  13.00,  13.00,  13.00,  13.00,  13.00,  13.00,  13.00,  13.00,  13.00,  13.00,  13.00,  13.00
! <Site:GroundTemperature:Deep>,Jan{C},Feb{C},Mar{C},Apr{C},May{C},Jun{C},Jul{C},Aug{C},Sep{C},Oct{C},Nov{C},Dec{C}
 Site:GroundTemperature:Deep,  16.00,  16.00,  16.00,  16.00,  16.00,  16.00,  16.00,  16.00,  16.00,  16.00,  16.00,  16.00
! <Site:GroundReflectance>,Jan{dimensionless},Feb{dimensionless},Mar{dimensionless},Apr{dimensionless},May{dimensionless},Jun{dimensionless},Jul{dimensionless},Aug{dimensionless},Sep{dimensionless},Oct{dimensionless},Nov{dimensionless},Dec{dimensionless}
 Site:GroundReflectance,  0.20,  0.20,  0.20,  0.20,  0.20,  0.20,  0.20,  0.20,  0.20,  0.20,  0.20,  0.20
! <Site:GroundReflectance:SnowModifier>, Normal, Daylighting {dimensionless}
 Site:GroundReflectance:SnowModifier,   1.000,   1.000
! <Site:GroundReflectance:Snow>,Jan{dimensionless},Feb{dimensionless},Mar{dimensionless},Apr{dimensionless},May{dimensionless},Jun{dimensionless},Jul{dimensionless},Aug{dimensionless},Sep{dimensionless},Oct{dimensionless},Nov{dimensionless},Dec{dimensionless}
 Site:GroundReflectance:Snow,  0.20,  0.20,  0.20,  0.20,  0.20,  0.20,  0.20,  0.20,  0.20,  0.20,  0.20,  0.20
! <Site:GroundReflectance:Snow:Daylighting>,Jan{dimensionless},Feb{dimensionless},Mar{dimensionless},Apr{dimensionless},May{dimensionless},Jun{dimensionless},Jul{dimensionless},Aug{dimensionless},Sep{dimensionless},Oct{dimensionless},Nov{dimensionless},Dec{dimensionless}
 Site:GroundReflectance:Snow:Daylighting,  0.20,  0.20,  0.20,  0.20,  0.20,  0.20,  0.20,  0.20,  0.20,  0.20,  0.20,  0.20
! <Environment:Weather Station>,Wind Sensor Height Above Ground {m},Wind Speed Profile Exponent {},Wind Speed Profile Boundary Layer Thickness {m},Air Temperature Sensor Height Above Ground {m},Wind Speed Modifier Coefficient-Internal,Temperature Modifier Coefficient-Internal
Environment:Weather Station,10.000,0.140,270.000,1.500,1.586,9.750E-003
! <Site:Location>, Location Name, Latitude {N+/S- Deg}, Longitude {E+/W- Deg},  Time Zone Number {GMT+/-}, Elevation {m},  Standard Pressure at Elevation {Pa}, Standard RhoAir at Elevation
Site:Location,Fort McMurray AP AB CAN CWEC2016 WMO#=716890,56.65,-111.22,-7.00,369.10,96969,1.1525
! <Building Information>, Building Name,North Axis {deg},Terrain,  Loads Convergence Tolerance Value,Temperature Convergence Tolerance Value,  Solar Distribution,Maximum Number of Warmup Days,Minimum Number of Warmup Days
 Building Information,Building 1,0.000,Suburbs,4.00000E-002,0.40000,FullExterior,25,6
! <Inside Convection Algorithm>, Algorithm {Simple | TARP | CeilingDiffuser | AdaptiveConvectionAlgorithm}
Inside Convection Algorithm,TARP
! <Outside Convection Algorithm>, Algorithm {SimpleCombined | TARP | MoWitt | DOE-2 | AdaptiveConvectionAlgorithm}
Outside Convection Algorithm,TARP
! <Sky Radiance Distribution>, Value {Anisotropic}
Sky Radiance Distribution,Anisotropic
! <Zone Air Solution Algorithm>, Value {ThirdOrderBackwardDifference | AnalyticalSolution | EulerMethod}
 Zone Air Solution Algorithm, ThirdOrderBackwardDifference
! <Zone Air Carbon Dioxide Balance Simulation>, Simulation {Yes/No}, Carbon Dioxide Concentration
 Zone Air Carbon Dioxide Balance Simulation, No,N/A
! <Zone Air Generic Contaminant Balance Simulation>, Simulation {Yes/No}, Generic Contaminant Concentration
 Zone Air Generic Contaminant Balance Simulation, No,N/A
! <Zone Air Mass Flow Balance Simulation>, Enforce Mass Balance, Adjust Zone Mixing, Adjust Zone Infiltration {AddInfiltration | AdjustInfiltration | None}, Infiltration Zones {MixingSourceZonesOnly | AllZones}
 Zone Air Mass Flow Balance Simulation, No,N/A,N/A,N/A
! <HVACSystemRootFindingAlgorithm>, Value {RegulaFalsi | Bisection | BisectionThenRegulaFalsi | RegulaFalsiThenBisection}
 HVACSystemRootFindingAlgorithm, RegulaFalsi
! <Environment:Site Atmospheric Variation>,Wind Speed Profile Exponent {},Wind Speed Profile Boundary Layer Thickness {m},Air Temperature Gradient Coefficient {K/m}
Environment:Site Atmospheric Variation,0.220,370.000,6.500000E-003
! <Surface Geometry>,Starting Corner,Vertex Input Direction,Coordinate System,Daylight Reference Point Coordinate System,Rectangular (Simple) Surface Coordinate System
 Surface Geometry,UpperLeftCorner,Counterclockwise,RelativeCoordinateSystem,RelativeCoordinateSystem,RelativeToZoneOrigin
! <Surface Heat Transfer Algorithm>, Value {CTF - ConductionTransferFunction | EMPD - MoisturePenetrationDepthConductionTransferFunction | CondFD - ConductionFiniteDifference | HAMT - CombinedHeatAndMoistureFiniteElement} - Description,Inside Surface Max Temperature Limit{C}, Surface Convection Coefficient Lower Limit {W/m2-K}, Surface Convection Coefficient Upper Limit {W/m2-K}
Surface Heat Transfer Algorithm, CTF - ConductionTransferFunction,200,0.10,1000.0
! <Shading Summary>, Number of Fixed Detached Shades, Number of Building Detached Shades, Number of Attached Shades
 Shading Summary,0,0,0
! <Zone Summary>, Number of Zones, Number of Zone Surfaces, Number of SubSurfaces
 Zone Summary,20,137,17
! <Zone Information>,Zone Name,North Axis {deg},Origin X-Coordinate {m},Origin Y-Coordinate {m},Origin Z-Coordinate {m},Centroid X-Coordinate {m},Centroid Y-Coordinate {m},Centroid Z-Coordinate {m},Type,Zone Multiplier,Zone List Multiplier,Minimum X {m},Maximum X {m},Minimum Y {m},Maximum Y {m},Minimum Z {m},Maximum Z {m},Ceiling Height {m},Volume {m3},Zone Inside Convection Algorithm {Simple-Detailed-CeilingDiffuser-TrombeWall},Zone Outside Convection Algorithm {Simple-Detailed-Tarp-MoWitt-DOE-2-BLAST}, Floor Area {m2},Exterior Gross Wall Area {m2},Exterior Net Wall Area {m2},Exterior Window Area {m2}, Number of Surfaces, Number of SubSurfaces, Number of Shading SubSurfaces,  Part of Total Building Area
 Zone Information, ALL_ST=WAREHOUSE - MED/BLK - REFRIGERATED_FL=STORY 4_SCH=A,0.0,0.00,0.00,11.40,10.85,50.00,13.30,1,1,1,0.00,25.00,0.00,100.00,11.40,15.20,3.80,7125.00,TARP,TARP,1875.00,380.00,285.00,188.75,6,2,0,Yes
 Zone Information, ALL_ST=WAREHOUSE - MED/BLK2 - REFRIGERATED_FL=STORY 3_SCH=A,0.0,25.00,75.00,7.60,50.00,89.15,9.50,1,1,1,0.00,100.00,75.00,100.00,7.60,11.40,3.80,7125.00,TARP,TARP,1875.00,380.00,285.00,95.00,6,1,0,Yes
 Zone Information, ALL_ST=WAREHOUSE - MED/BLK2_FL=STORY 3_SCH=A,0.0,25.00,25.00,7.60,50.00,50.00,9.50,1,1,1,25.00,75.00,25.00,75.00,7.60,11.40,3.80,9500.00,TARP,TARP,2500.00,0.00,0.00,0.00,6,0,0,Yes
 Zone Information, ALL_ST=WAREHOUSE - MED/BLK_FL=STORY 4_SCH=A,0.0,25.00,75.00,11.40,50.00,89.15,13.30,1,1,1,0.00,100.00,75.00,100.00,11.40,15.20,3.80,7125.00,TARP,TARP,1875.00,380.00,285.00,188.75,6,2,0,Yes
 Zone Information, ALL_ST=WHOLEBUILDING_FL=STORY 2_SCH=A,0.0,25.00,75.00,3.80,50.00,89.15,5.70,1,1,1,0.00,100.00,75.00,100.00,3.80,7.60,3.80,7125.00,TARP,TARP,1875.00,380.00,285.00,95.00,6,1,0,Yes
 Zone Information, ALL_ST=WHOLEBUILDING_FL=STORY 2_SCH=A 1,0.0,0.00,0.00,3.80,50.00,10.85,5.70,1,1,1,0.00,100.00,0.00,25.00,3.80,7.60,3.80,7125.00,TARP,TARP,1875.00,380.00,285.00,95.00,6,1,0,Yes
 Zone Information, ALL_ST=WHOLEBUILDING_FL=STORY 2_SCH=A 2,0.0,25.00,25.00,3.80,50.00,50.00,5.70,1,1,1,25.00,75.00,25.00,75.00,3.80,7.60,3.80,9500.00,TARP,TARP,2500.00,0.00,0.00,0.00,6,0,0,Yes
 Zone Information, ALL_ST=WHOLEBUILDING_FL=STORY 2_SCH=B,0.0,0.00,0.00,3.80,10.85,50.00,5.70,1,1,1,0.00,25.00,0.00,100.00,3.80,7.60,3.80,7125.00,TARP,TARP,1875.00,380.00,285.00,95.00,6,1,0,Yes
 Zone Information, ALL_ST=WHOLEBUILDING_FL=STORY 2_SCH=H,0.0,75.00,25.00,3.80,89.15,50.00,5.70,1,1,1,75.00,100.00,0.00,100.00,3.80,7.60,3.80,7125.00,TARP,TARP,1875.00,380.00,285.00,95.00,6,1,0,Yes
 Zone Information, ALL_ST=WHOLEBUILDING_FL=STORY 4_SCH=D,0.0,0.00,0.00,11.40,50.00,10.85,13.30,1,1,1,0.00,100.00,0.00,25.00,11.40,15.20,3.80,7125.00,TARP,TARP,1875.00,380.00,285.00,188.75,6,2,0,Yes
 Zone Information, ALL_ST=WORKSHOP SPACE_FL=STORY 1_SCH=A,0.0,25.00,25.00,0.00,50.00,50.00,1.90,1,1,1,25.00,75.00,25.00,75.00,0.00,3.80,3.80,9500.00,TARP,TARP,2500.00,0.00,0.00,0.00,6,0,0,Yes
 Zone Information, WET_ST=WASHROOM-SCH-A_FL=STORY 3_SCHA,0.0,0.00,0.00,7.60,10.85,50.00,9.50,1,1,1,0.00,25.00,0.00,100.00,7.60,11.40,3.80,7125.00,TARP,TARP,1875.00,380.00,285.00,95.00,6,1,0,Yes
 Zone Information, WET_ST=WASHROOM-SCH-B_FL=STORY 1_SCHA,0.0,0.00,0.00,0.00,10.85,50.00,1.90,1,1,1,0.00,25.00,0.00,100.00,0.00,3.80,3.80,7125.00,TARP,TARP,1875.00,0.00,0.00,0.00,6,0,0,Yes
 Zone Information, WET_ST=WASHROOM-SCH-C_FL=STORY 1_SCHA,0.0,25.00,75.00,0.00,50.00,89.15,1.90,1,1,1,0.00,100.00,75.00,100.00,0.00,3.80,3.80,7125.00,TARP,TARP,1875.00,0.00,0.00,0.00,6,0,0,Yes
 Zone Information, WET_ST=WASHROOM-SCH-D_FL=STORY 1_SCHA,0.0,75.00,25.00,0.00,89.15,50.00,1.90,1,1,1,75.00,100.00,0.00,100.00,0.00,3.80,3.80,7125.00,TARP,TARP,1875.00,0.00,0.00,0.00,6,0,0,Yes
 Zone Information, WET_ST=WASHROOM-SCH-E_FL=STORY 4_SCHA,0.0,75.00,25.00,11.40,89.15,50.00,13.30,1,1,1,75.00,100.00,0.00,100.00,11.40,15.20,3.80,7125.00,TARP,TARP,1875.00,380.00,285.00,188.75,6,2,0,Yes
 Zone Information, WET_ST=WASHROOM-SCH-F_FL=STORY 3_SCHA,0.0,0.00,0.00,7.60,50.00,10.85,9.50,1,1,1,0.00,100.00,0.00,25.00,7.60,11.40,3.80,7125.00,TARP,TARP,1875.00,380.00,285.00,95.00,6,1,0,Yes
 Zone Information, WET_ST=WASHROOM-SCH-G_FL=STORY 3_SCHA,0.0,75.00,25.00,7.60,89.15,50.00,9.50,1,1,1,75.00,100.00,0.00,100.00,7.60,11.40,3.80,7125.00,TARP,TARP,1875.00,380.00,285.00,95.00,6,1,0,Yes
 Zone Information, WET_ST=WASHROOM-SCH-H_FL=STORY 1_SCHA,0.0,0.00,0.00,0.00,50.00,10.85,1.90,1,1,1,0.00,100.00,0.00,25.00,0.00,3.80,3.80,7125.00,TARP,TARP,1875.00,0.00,0.00,0.00,6,0,0,Yes
 Zone Information, WET_ST=WASHROOM-SCH-I_FL=STORY 4_SCHA,0.0,25.00,25.00,11.40,50.00,50.00,13.30,1,1,1,25.00,75.00,25.00,75.00,11.40,15.20,3.80,9500.00,TARP,TARP,2500.00,0.00,0.00,125.00,6,1,0,Yes
! <Zone Internal Gains Nominal>,Zone Name, Floor Area {m2},# Occupants,Area per Occupant {m2/person},Occupant per Area {person/m2},Interior Lighting {W/m2},Electric Load {W/m2},Gas Load {W/m2},Other Load {W/m2},Hot Water Eq {W/m2},Steam Equipment {W/m2},Sum Loads per Area {W/m2},Outdoor Controlled Baseboard Heat
 Zone Internal Gains Nominal, ALL_ST=WAREHOUSE - MED/BLK - REFRIGERATED_FL=STORY 4_SCH=A,1875.00,18.8,99.896,1.001E-002,6.400,1.000,0.000,0.000,0.000,0.000,7.400,No
 Zone Internal Gains Nominal, ALL_ST=WAREHOUSE - MED/BLK2 - REFRIGERATED_FL=STORY 3_SCH=A,1875.00,18.8,99.896,1.001E-002,10.200,1.000,0.000,0.000,0.000,0.000,11.200,No
 Zone Internal Gains Nominal, ALL_ST=WAREHOUSE - MED/BLK2_FL=STORY 3_SCH=A,2500.00,25.0,99.896,1.001E-002,10.200,1.000,0.000,0.000,0.000,0.000,11.200,No
 Zone Internal Gains Nominal, ALL_ST=WAREHOUSE - MED/BLK_FL=STORY 4_SCH=A,1875.00,18.8,99.896,1.001E-002,6.400,1.000,0.000,0.000,0.000,0.000,7.400,No
 Zone Internal Gains Nominal, ALL_ST=WHOLEBUILDING_FL=STORY 2_SCH=A,1875.00,1.2,1548.384,6.458E-004,7.100,1.000,0.000,0.000,0.000,0.000,8.100,No
 Zone Internal Gains Nominal, ALL_ST=WHOLEBUILDING_FL=STORY 2_SCH=A 1,1875.00,1.2,1548.384,6.458E-004,7.100,1.000,0.000,0.000,0.000,0.000,8.100,No
 Zone Internal Gains Nominal, ALL_ST=WHOLEBUILDING_FL=STORY 2_SCH=A 2,2500.00,83.4,29.969,3.337E-002,12.900,10.000,0.000,0.000,0.000,0.000,22.900,No
 Zone Internal Gains Nominal, ALL_ST=WHOLEBUILDING_FL=STORY 2_SCH=B,1875.00,187.5,10.000,10.000E-002,8.400,1.000,0.000,0.000,0.000,0.000,9.400,No
 Zone Internal Gains Nominal, ALL_ST=WHOLEBUILDING_FL=STORY 2_SCH=H,1875.00,124.9,15.009,6.663E-002,8.300,1.000,0.000,0.000,0.000,0.000,9.300,No
 Zone Internal Gains Nominal, ALL_ST=WHOLEBUILDING_FL=STORY 4_SCH=D,1875.00,75.1,24.974,4.004E-002,9.900,7.500,0.000,0.000,0.000,0.000,17.400,No
 Zone Internal Gains Nominal, ALL_ST=WORKSHOP SPACE_FL=STORY 1_SCH=A,2500.00,83.4,29.969,3.337E-002,17.100,10.000,0.000,0.000,0.000,0.000,27.100,No
 Zone Internal Gains Nominal, WET_ST=WASHROOM-SCH-A_FL=STORY 3_SCHA,1875.00,62.6,29.969,3.337E-002,9.450,1.000,0.000,0.000,0.000,0.000,10.450,No
 Zone Internal Gains Nominal, WET_ST=WASHROOM-SCH-B_FL=STORY 1_SCHA,1875.00,62.6,29.969,3.337E-002,9.450,1.000,0.000,0.000,0.000,0.000,10.450,No
 Zone Internal Gains Nominal, WET_ST=WASHROOM-SCH-C_FL=STORY 1_SCHA,1875.00,62.6,29.969,3.337E-002,9.450,1.000,0.000,0.000,0.000,0.000,10.450,No
 Zone Internal Gains Nominal, WET_ST=WASHROOM-SCH-D_FL=STORY 1_SCHA,1875.00,62.6,29.969,3.337E-002,9.450,1.000,0.000,0.000,0.000,0.000,10.450,No
 Zone Internal Gains Nominal, WET_ST=WASHROOM-SCH-E_FL=STORY 4_SCHA,1875.00,62.6,29.969,3.337E-002,9.450,1.000,0.000,0.000,0.000,0.000,10.450,No
 Zone Internal Gains Nominal, WET_ST=WASHROOM-SCH-F_FL=STORY 3_SCHA,1875.00,62.6,29.969,3.337E-002,9.450,1.000,0.000,0.000,0.000,0.000,10.450,No
 Zone Internal Gains Nominal, WET_ST=WASHROOM-SCH-G_FL=STORY 3_SCHA,1875.00,62.6,29.969,3.337E-002,9.450,1.000,0.000,0.000,0.000,0.000,10.450,No
 Zone Internal Gains Nominal, WET_ST=WASHROOM-SCH-H_FL=STORY 1_SCHA,1875.00,62.6,29.969,3.337E-002,9.450,1.000,0.000,0.000,0.000,0.000,10.450,No
 Zone Internal Gains Nominal, WET_ST=WASHROOM-SCH-I_FL=STORY 4_SCHA,2500.00,83.4,29.969,3.337E-002,9.450,1.000,0.000,0.000,0.000,0.000,10.450,No
! <People Internal Gains Nominal>,Name,Schedule Name,Zone Name,Zone Floor Area {m2},# Zone Occupants,Number of People {},People/Floor Area {person/m2},Floor Area per person {m2/person},Fraction Radiant,Fraction Convected,Sensible Fraction Calculation,Activity level,ASHRAE 55 Warnings,Carbon Dioxide Generation Rate,Nominal Minimum Number of People,Nominal Maximum Number of People
 People Internal Gains Nominal, ALL_ST=WAREHOUSE - MED/BLK_FL=STORY 4_SCH=A SPACE FUNCTION WAREHOUSE - MED/BLK PEOPLE,NECB-A-OCCUPANCY,ALL_ST=WAREHOUSE - MED/BLK_FL=STORY 4_SCH=A,1875.00,18.8,18.8,1.001E-002,99.896,0.300,0.700,AutoCalculate,NECB-ACTIVITY,No,3.8200E-008,0,17
 People Internal Gains Nominal, ALL_ST=WAREHOUSE - MED/BLK - REFRIGERATED_FL=STORY 4_SCH=A SPACE FUNCTION WAREHOUSE - MED/BLK - REFRIGERATED PEOPLE,NECB-A-OCCUPANCY,ALL_ST=WAREHOUSE - MED/BLK - REFRIGERATED_FL=STORY 4_SCH=A,1875.00,18.8,18.8,1.001E-002,99.896,0.300,0.700,AutoCalculate,NECB-ACTIVITY,No,3.8200E-008,0,17
 People Internal Gains Nominal, ALL_ST=WAREHOUSE - MED/BLK2_FL=STORY 3_SCH=A SPACE FUNCTION WAREHOUSE - MED/BLK2 PEOPLE,NECB-A-OCCUPANCY,ALL_ST=WAREHOUSE - MED/BLK2_FL=STORY 3_SCH=A,2500.00,25.0,25.0,1.001E-002,99.896,0.300,0.700,AutoCalculate,NECB-ACTIVITY,No,3.8200E-008,0,23
 People Internal Gains Nominal, ALL_ST=WAREHOUSE - MED/BLK2 - REFRIGERATED_FL=STORY 3_SCH=A SPACE FUNCTION WAREHOUSE - MED/BLK2 - REFRIGERATED PEOPLE,NECB-A-OCCUPANCY,ALL_ST=WAREHOUSE - MED/BLK2 - REFRIGERATED_FL=STORY 3_SCH=A,1875.00,18.8,18.8,1.001E-002,99.896,0.300,0.700,AutoCalculate,NECB-ACTIVITY,No,3.8200E-008,0,17
 People Internal Gains Nominal, WET_ST=WASHROOM-SCH-A_FL=STORY 3_SCHA SPACE FUNCTION WASHROOM-SCH-A PEOPLE,NECB-A-OCCUPANCY,WET_ST=WASHROOM-SCH-A_FL=STORY 3_SCHA,1875.00,62.6,62.6,3.337E-002,29.969,0.300,0.700,AutoCalculate,NECB-ACTIVITY,No,3.8200E-008,0,56
 People Internal Gains Nominal, WET_ST=WASHROOM-SCH-B_FL=STORY 1_SCHA SPACE FUNCTION WASHROOM-SCH-A PEOPLE,NECB-A-OCCUPANCY,WET_ST=WASHROOM-SCH-B_FL=STORY 1_SCHA,1875.00,62.6,62.6,3.337E-002,29.969,0.300,0.700,AutoCalculate,NECB-ACTIVITY,No,3.8200E-008,0,56
 People Internal Gains Nominal, WET_ST=WASHROOM-SCH-C_FL=STORY 1_SCHA SPACE FUNCTION WASHROOM-SCH-A PEOPLE,NECB-A-OCCUPANCY,WET_ST=WASHROOM-SCH-C_FL=STORY 1_SCHA,1875.00,62.6,62.6,3.337E-002,29.969,0.300,0.700,AutoCalculate,NECB-ACTIVITY,No,3.8200E-008,0,56
 People Internal Gains Nominal, WET_ST=WASHROOM-SCH-D_FL=STORY 1_SCHA SPACE FUNCTION WASHROOM-SCH-A PEOPLE,NECB-A-OCCUPANCY,WET_ST=WASHROOM-SCH-D_FL=STORY 1_SCHA,1875.00,62.6,62.6,3.337E-002,29.969,0.300,0.700,AutoCalculate,NECB-ACTIVITY,No,3.8200E-008,0,56
 People Internal Gains Nominal, WET_ST=WASHROOM-SCH-E_FL=STORY 4_SCHA SPACE FUNCTION WASHROOM-SCH-A PEOPLE,NECB-A-OCCUPANCY,WET_ST=WASHROOM-SCH-E_FL=STORY 4_SCHA,1875.00,62.6,62.6,3.337E-002,29.969,0.300,0.700,AutoCalculate,NECB-ACTIVITY,No,3.8200E-008,0,56
 People Internal Gains Nominal, WET_ST=WASHROOM-SCH-F_FL=STORY 3_SCHA SPACE FUNCTION WASHROOM-SCH-A PEOPLE,NECB-A-OCCUPANCY,WET_ST=WASHROOM-SCH-F_FL=STORY 3_SCHA,1875.00,62.6,62.6,3.337E-002,29.969,0.300,0.700,AutoCalculate,NECB-ACTIVITY,No,3.8200E-008,0,56
 People Internal Gains Nominal, WET_ST=WASHROOM-SCH-G_FL=STORY 3_SCHA SPACE FUNCTION WASHROOM-SCH-A PEOPLE,NECB-A-OCCUPANCY,WET_ST=WASHROOM-SCH-G_FL=STORY 3_SCHA,1875.00,62.6,62.6,3.337E-002,29.969,0.300,0.700,AutoCalculate,NECB-ACTIVITY,No,3.8200E-008,0,56
 People Internal Gains Nominal, WET_ST=WASHROOM-SCH-H_FL=STORY 1_SCHA SPACE FUNCTION WASHROOM-SCH-A PEOPLE,NECB-A-OCCUPANCY,WET_ST=WASHROOM-SCH-H_FL=STORY 1_SCHA,1875.00,62.6,62.6,3.337E-002,29.969,0.300,0.700,AutoCalculate,NECB-ACTIVITY,No,3.8200E-008,0,56
 People Internal Gains Nominal, WET_ST=WASHROOM-SCH-I_FL=STORY 4_SCHA SPACE FUNCTION WASHROOM-SCH-A PEOPLE,NECB-A-OCCUPANCY,WET_ST=WASHROOM-SCH-I_FL=STORY 4_SCHA,2500.00,83.4,83.4,3.337E-002,29.969,0.300,0.700,AutoCalculate,NECB-ACTIVITY,No,3.8200E-008,0,75
 People Internal Gains Nominal, ALL_ST=WORKSHOP SPACE_FL=STORY 1_SCH=A SPACE FUNCTION WORKSHOP SPACE PEOPLE,NECB-A-OCCUPANCY,ALL_ST=WORKSHOP SPACE_FL=STORY 1_SCH=A,2500.00,83.4,83.4,3.337E-002,29.969,0.300,0.700,AutoCalculate,NECB-ACTIVITY,No,3.8200E-008,0,75
 People Internal Gains Nominal, ALL_ST=WHOLEBUILDING_FL=STORY 2_SCH=B SPORTS ARENA WHOLEBUILDING PEOPLE,NECB-B-OCCUPANCY,ALL_ST=WHOLEBUILDING_FL=STORY 2_SCH=B,1875.00,187.5,187.5,10.000E-002,10.000,0.300,0.700,AutoCalculate,NECB-ACTIVITY,No,3.8200E-008,0,169
 People Internal Gains Nominal, ALL_ST=WHOLEBUILDING_FL=STORY 4_SCH=D TOWN HALL WHOLEBUILDING PEOPLE,NECB-D-OCCUPANCY,ALL_ST=WHOLEBUILDING_FL=STORY 4_SCH=D,1875.00,75.1,75.1,4.004E-002,24.974,0.300,0.700,AutoCalculate,NECB-ACTIVITY,No,3.8200E-008,0,68
 People Internal Gains Nominal, ALL_ST=WHOLEBUILDING_FL=STORY 2_SCH=H TRANSPORTATION WHOLEBUILDING PEOPLE,NECB-H-OCCUPANCY,ALL_ST=WHOLEBUILDING_FL=STORY 2_SCH=H,1875.00,124.9,124.9,6.663E-002,15.009,0.300,0.700,AutoCalculate,NECB-ACTIVITY,No,3.8200E-008,112,112
 People Internal Gains Nominal, ALL_ST=WHOLEBUILDING_FL=STORY 2_SCH=A 1 WAREHOUSE - REFRIGERATED WHOLEBUILDING PEOPLE,NECB-A-OCCUPANCY,ALL_ST=WHOLEBUILDING_FL=STORY 2_SCH=A 1,1875.00,1.2,1.2,6.458E-004,1548.384,0.300,0.700,AutoCalculate,NECB-ACTIVITY,No,3.8200E-008,0,1
 People Internal Gains Nominal, ALL_ST=WHOLEBUILDING_FL=STORY 2_SCH=A WAREHOUSE WHOLEBUILDING PEOPLE,NECB-A-OCCUPANCY,ALL_ST=WHOLEBUILDING_FL=STORY 2_SCH=A,1875.00,1.2,1.2,6.458E-004,1548.384,0.300,0.700,AutoCalculate,NECB-ACTIVITY,No,3.8200E-008,0,1
 People Internal Gains Nominal, ALL_ST=WHOLEBUILDING_FL=STORY 2_SCH=A 2 WORKSHOP WHOLEBUILDING PEOPLE,NECB-A-OCCUPANCY,ALL_ST=WHOLEBUILDING_FL=STORY 2_SCH=A 2,2500.00,83.4,83.4,3.337E-002,29.969,0.300,0.700,AutoCalculate,NECB-ACTIVITY,No,3.8200E-008,0,75
! <Lights Internal Gains Nominal>,Name,Schedule Name,Zone Name,Zone Floor Area {m2},# Zone Occupants,Lighting Level {W},Lights/Floor Area {W/m2},Lights per person {W/person},Fraction Return Air,Fraction Radiant,Fraction Short Wave,Fraction Convected,Fraction Replaceable,End-Use Category,Nominal Minimum Lighting Level {W},Nominal Maximum Lighting Level {W}
 Lights Internal Gains Nominal, ALL_ST=WAREHOUSE - MED/BLK_FL=STORY 4_SCH=A SPACE FUNCTION WAREHOUSE - MED/BLK LIGHTS,NECB-A-LIGHTING,ALL_ST=WAREHOUSE - MED/BLK_FL=STORY 4_SCH=A,1875.00,18.8,11999.900,6.400,639.327,0.000,0.500,0.200,0.300,1.000,General,599.995,10799.910
 Lights Internal Gains Nominal, ALL_ST=WAREHOUSE - MED/BLK - REFRIGERATED_FL=STORY 4_SCH=A SPACE FUNCTION WAREHOUSE - MED/BLK - REFRIGERATED LIGHTS,NECB-A-LIGHTING,ALL_ST=WAREHOUSE - MED/BLK - REFRIGERATED_FL=STORY 4_SCH=A,1875.00,18.8,11999.900,6.400,639.327,0.000,0.500,0.200,0.300,1.000,General,599.995,10799.910
 Lights Internal Gains Nominal, ALL_ST=WAREHOUSE - MED/BLK2_FL=STORY 3_SCH=A SPACE FUNCTION WAREHOUSE - MED/BLK2 LIGHTS,NECB-A-LIGHTING,ALL_ST=WAREHOUSE - MED/BLK2_FL=STORY 3_SCH=A,2500.00,25.0,25499.788,10.200,1018.928,0.000,0.500,0.200,0.300,1.000,General,1274.989,22949.809
 Lights Internal Gains Nominal, ALL_ST=WAREHOUSE - MED/BLK2 - REFRIGERATED_FL=STORY 3_SCH=A SPACE FUNCTION WAREHOUSE - MED/BLK2 - REFRIGERATED LIGHTS,NECB-A-LIGHTING,ALL_ST=WAREHOUSE - MED/BLK2 - REFRIGERATED_FL=STORY 3_SCH=A,1875.00,18.8,19124.841,10.200,1018.928,0.000,0.500,0.200,0.300,1.000,General,956.242,17212.357
 Lights Internal Gains Nominal, WET_ST=WASHROOM-SCH-A_FL=STORY 3_SCHA SPACE FUNCTION WASHROOM-SCH-A LIGHTS,NECB-A-LIGHTING,WET_ST=WASHROOM-SCH-A_FL=STORY 3_SCHA,1875.00,62.6,17718.603,9.450,283.202,0.000,0.500,0.200,0.300,1.000,General,885.930,15946.742
 Lights Internal Gains Nominal, WET_ST=WASHROOM-SCH-B_FL=STORY 1_SCHA SPACE FUNCTION WASHROOM-SCH-A LIGHTS,NECB-A-LIGHTING,WET_ST=WASHROOM-SCH-B_FL=STORY 1_SCHA,1875.00,62.6,17718.603,9.450,283.202,0.000,0.500,0.200,0.300,1.000,General,885.930,15946.742
 Lights Internal Gains Nominal, WET_ST=WASHROOM-SCH-C_FL=STORY 1_SCHA SPACE FUNCTION WASHROOM-SCH-A LIGHTS,NECB-A-LIGHTING,WET_ST=WASHROOM-SCH-C_FL=STORY 1_SCHA,1875.00,62.6,17718.603,9.450,283.202,0.000,0.500,0.200,0.300,1.000,General,885.930,15946.742
 Lights Internal Gains Nominal, WET_ST=WASHROOM-SCH-D_FL=STORY 1_SCHA SPACE FUNCTION WASHROOM-SCH-A LIGHTS,NECB-A-LIGHTING,WET_ST=WASHROOM-SCH-D_FL=STORY 1_SCHA,1875.00,62.6,17718.603,9.450,283.202,0.000,0.500,0.200,0.300,1.000,General,885.930,15946.742
 Lights Internal Gains Nominal, WET_ST=WASHROOM-SCH-E_FL=STORY 4_SCHA SPACE FUNCTION WASHROOM-SCH-A LIGHTS,NECB-A-LIGHTING,WET_ST=WASHROOM-SCH-E_FL=STORY 4_SCHA,1875.00,62.6,17718.603,9.450,283.202,0.000,0.500,0.200,0.300,1.000,General,885.930,15946.742
 Lights Internal Gains Nominal, WET_ST=WASHROOM-SCH-F_FL=STORY 3_SCHA SPACE FUNCTION WASHROOM-SCH-A LIGHTS,NECB-A-LIGHTING,WET_ST=WASHROOM-SCH-F_FL=STORY 3_SCHA,1875.00,62.6,17718.603,9.450,283.202,0.000,0.500,0.200,0.300,1.000,General,885.930,15946.742
 Lights Internal Gains Nominal, WET_ST=WASHROOM-SCH-G_FL=STORY 3_SCHA SPACE FUNCTION WASHROOM-SCH-A LIGHTS,NECB-A-LIGHTING,WET_ST=WASHROOM-SCH-G_FL=STORY 3_SCHA,1875.00,62.6,17718.603,9.450,283.202,0.000,0.500,0.200,0.300,1.000,General,885.930,15946.742
 Lights Internal Gains Nominal, WET_ST=WASHROOM-SCH-H_FL=STORY 1_SCHA SPACE FUNCTION WASHROOM-SCH-A LIGHTS,NECB-A-LIGHTING,WET_ST=WASHROOM-SCH-H_FL=STORY 1_SCHA,1875.00,62.6,17718.603,9.450,283.202,0.000,0.500,0.200,0.300,1.000,General,885.930,15946.742
 Lights Internal Gains Nominal, WET_ST=WASHROOM-SCH-I_FL=STORY 4_SCHA SPACE FUNCTION WASHROOM-SCH-A LIGHTS,NECB-A-LIGHTING,WET_ST=WASHROOM-SCH-I_FL=STORY 4_SCHA,2500.00,83.4,23624.803,9.450,283.202,0.000,0.500,0.200,0.300,1.000,General,1181.240,21262.323
 Lights Internal Gains Nominal, ALL_ST=WORKSHOP SPACE_FL=STORY 1_SCH=A SPACE FUNCTION WORKSHOP SPACE LIGHTS,NECB-A-LIGHTING,ALL_ST=WORKSHOP SPACE_FL=STORY 1_SCH=A,2500.00,83.4,42749.644,17.100,512.461,0.000,0.500,0.200,0.300,1.000,General,2137.482,38474.680
 Lights Internal Gains Nominal, ALL_ST=WHOLEBUILDING_FL=STORY 2_SCH=B SPORTS ARENA WHOLEBUILDING LIGHTS,NECB-B-LIGHTING,ALL_ST=WHOLEBUILDING_FL=STORY 2_SCH=B,1875.00,187.5,15749.869,8.400,84.002,0.000,0.500,0.200,0.300,1.000,General,1574.987,14174.882
 Lights Internal Gains Nominal, ALL_ST=WHOLEBUILDING_FL=STORY 4_SCH=D TOWN HALL WHOLEBUILDING LIGHTS,NECB-D-LIGHTING,ALL_ST=WHOLEBUILDING_FL=STORY 4_SCH=D,1875.00,75.1,18562.346,9.900,247.240,0.000,0.500,0.200,0.300,1.000,General,928.117,16706.111
 Lights Internal Gains Nominal, ALL_ST=WHOLEBUILDING_FL=STORY 2_SCH=H TRANSPORTATION WHOLEBUILDING LIGHTS,NECB-H-LIGHTING,ALL_ST=WHOLEBUILDING_FL=STORY 2_SCH=H,1875.00,124.9,15562.370,8.300,124.570,0.000,0.500,0.200,0.300,1.000,General,14006.133,14006.133
 Lights Internal Gains Nominal, ALL_ST=WHOLEBUILDING_FL=STORY 2_SCH=A 1 WAREHOUSE - REFRIGERATED WHOLEBUILDING LIGHTS,NECB-A-LIGHTING,ALL_ST=WHOLEBUILDING_FL=STORY 2_SCH=A 1,1875.00,1.2,13312.389,7.100,10993.435,0.000,0.500,0.200,0.300,1.000,General,665.619,11981.150
 Lights Internal Gains Nominal, ALL_ST=WHOLEBUILDING_FL=STORY 2_SCH=A WAREHOUSE WHOLEBUILDING LIGHTS,NECB-A-LIGHTING,ALL_ST=WHOLEBUILDING_FL=STORY 2_SCH=A,1875.00,1.2,13312.389,7.100,10993.435,0.000,0.500,0.200,0.300,1.000,General,665.619,11981.150
 Lights Internal Gains Nominal, ALL_ST=WHOLEBUILDING_FL=STORY 2_SCH=A 2 WORKSHOP WHOLEBUILDING LIGHTS,NECB-A-LIGHTING,ALL_ST=WHOLEBUILDING_FL=STORY 2_SCH=A 2,2500.00,83.4,32249.732,12.900,386.593,0.000,0.500,0.200,0.300,1.000,General,1612.487,29024.758
! <ElectricEquipment Internal Gains Nominal>,Name,Schedule Name,Zone Name,Zone Floor Area {m2},# Zone Occupants,Equipment Level {W},Equipment/Floor Area {W/m2},Equipment per person {W/person},Fraction Latent,Fraction Radiant,Fraction Lost,Fraction Convected,End-Use SubCategory,Nominal Minimum Equipment Level {W},Nominal Maximum Equipment Level {W}
 ElectricEquipment Internal Gains Nominal, ALL_ST=WAREHOUSE - MED/BLK_FL=STORY 4_SCH=A SPACE FUNCTION WAREHOUSE - MED/BLK ELEC EQUIP,NECB-A-ELECTRIC-EQUIPMENT,ALL_ST=WAREHOUSE - MED/BLK_FL=STORY 4_SCH=A,1875.00,18.8,1874.984,1.000,99.895,0.000,0.500,0.000,0.500,General,374.997,1687.486
 ElectricEquipment Internal Gains Nominal, ALL_ST=WAREHOUSE - MED/BLK - REFRIGERATED_FL=STORY 4_SCH=A SPACE FUNCTION WAREHOUSE - MED/BLK - REFRIGERATED ELEC EQUIP,NECB-A-ELECTRIC-EQUIPMENT,ALL_ST=WAREHOUSE - MED/BLK - REFRIGERATED_FL=STORY 4_SCH=A,1875.00,18.8,1874.984,1.000,99.895,0.000,0.500,0.000,0.500,General,374.997,1687.486
 ElectricEquipment Internal Gains Nominal, ALL_ST=WAREHOUSE - MED/BLK2_FL=STORY 3_SCH=A SPACE FUNCTION WAREHOUSE - MED/BLK2 ELEC EQUIP,NECB-A-ELECTRIC-EQUIPMENT,ALL_ST=WAREHOUSE - MED/BLK2_FL=STORY 3_SCH=A,2500.00,25.0,2499.979,1.000,99.895,0.000,0.500,0.000,0.500,General,499.996,2249.981
 ElectricEquipment Internal Gains Nominal, ALL_ST=WAREHOUSE - MED/BLK2 - REFRIGERATED_FL=STORY 3_SCH=A SPACE FUNCTION WAREHOUSE - MED/BLK2 - REFRIGERATED ELEC EQUIP,NECB-A-ELECTRIC-EQUIPMENT,ALL_ST=WAREHOUSE - MED/BLK2 - REFRIGERATED_FL=STORY 3_SCH=A,1875.00,18.8,1874.984,1.000,99.895,0.000,0.500,0.000,0.500,General,374.997,1687.486
 ElectricEquipment Internal Gains Nominal, WET_ST=WASHROOM-SCH-A_FL=STORY 3_SCHA SPACE FUNCTION WASHROOM-SCH-A ELEC EQUIP,NECB-A-ELECTRIC-EQUIPMENT,WET_ST=WASHROOM-SCH-A_FL=STORY 3_SCHA,1875.00,62.6,1874.984,1.000,29.968,0.000,0.500,0.000,0.500,General,374.997,1687.486
 ElectricEquipment Internal Gains Nominal, WET_ST=WASHROOM-SCH-B_FL=STORY 1_SCHA SPACE FUNCTION WASHROOM-SCH-A ELEC EQUIP,NECB-A-ELECTRIC-EQUIPMENT,WET_ST=WASHROOM-SCH-B_FL=STORY 1_SCHA,1875.00,62.6,1874.984,1.000,29.968,0.000,0.500,0.000,0.500,General,374.997,1687.486
 ElectricEquipment Internal Gains Nominal, WET_ST=WASHROOM-SCH-C_FL=STORY 1_SCHA SPACE FUNCTION WASHROOM-SCH-A ELEC EQUIP,NECB-A-ELECTRIC-EQUIPMENT,WET_ST=WASHROOM-SCH-C_FL=STORY 1_SCHA,1875.00,62.6,1874.984,1.000,29.968,0.000,0.500,0.000,0.500,General,374.997,1687.486
 ElectricEquipment Internal Gains Nominal, WET_ST=WASHROOM-SCH-D_FL=STORY 1_SCHA SPACE FUNCTION WASHROOM-SCH-A ELEC EQUIP,NECB-A-ELECTRIC-EQUIPMENT,WET_ST=WASHROOM-SCH-D_FL=STORY 1_SCHA,1875.00,62.6,1874.984,1.000,29.968,0.000,0.500,0.000,0.500,General,374.997,1687.486
 ElectricEquipment Internal Gains Nominal, WET_ST=WASHROOM-SCH-E_FL=STORY 4_SCHA SPACE FUNCTION WASHROOM-SCH-A ELEC EQUIP,NECB-A-ELECTRIC-EQUIPMENT,WET_ST=WASHROOM-SCH-E_FL=STORY 4_SCHA,1875.00,62.6,1874.984,1.000,29.968,0.000,0.500,0.000,0.500,General,374.997,1687.486
 ElectricEquipment Internal Gains Nominal, WET_ST=WASHROOM-SCH-F_FL=STORY 3_SCHA SPACE FUNCTION WASHROOM-SCH-A ELEC EQUIP,NECB-A-ELECTRIC-EQUIPMENT,WET_ST=WASHROOM-SCH-F_FL=STORY 3_SCHA,1875.00,62.6,1874.984,1.000,29.968,0.000,0.500,0.000,0.500,General,374.997,1687.486
 ElectricEquipment Internal Gains Nominal, WET_ST=WASHROOM-SCH-G_FL=STORY 3_SCHA SPACE FUNCTION WASHROOM-SCH-A ELEC EQUIP,NECB-A-ELECTRIC-EQUIPMENT,WET_ST=WASHROOM-SCH-G_FL=STORY 3_SCHA,1875.00,62.6,1874.984,1.000,29.968,0.000,0.500,0.000,0.500,General,374.997,1687.486
 ElectricEquipment Internal Gains Nominal, WET_ST=WASHROOM-SCH-H_FL=STORY 1_SCHA SPACE FUNCTION WASHROOM-SCH-A ELEC EQUIP,NECB-A-ELECTRIC-EQUIPMENT,WET_ST=WASHROOM-SCH-H_FL=STORY 1_SCHA,1875.00,62.6,1874.984,1.000,29.968,0.000,0.500,0.000,0.500,General,374.997,1687.486
 ElectricEquipment Internal Gains Nominal, WET_ST=WASHROOM-SCH-I_FL=STORY 4_SCHA SPACE FUNCTION WASHROOM-SCH-A ELEC EQUIP,NECB-A-ELECTRIC-EQUIPMENT,WET_ST=WASHROOM-SCH-I_FL=STORY 4_SCHA,2500.00,83.4,2499.979,1.000,29.968,0.000,0.500,0.000,0.500,General,499.996,2249.981
 ElectricEquipment Internal Gains Nominal, ALL_ST=WORKSHOP SPACE_FL=STORY 1_SCH=A SPACE FUNCTION WORKSHOP SPACE ELEC EQUIP,NECB-A-ELECTRIC-EQUIPMENT,ALL_ST=WORKSHOP SPACE_FL=STORY 1_SCH=A,2500.00,83.4,24999.792,10.000,299.685,0.000,0.500,0.000,0.500,General,4999.958,22499.813
 ElectricEquipment Internal Gains Nominal, ALL_ST=WHOLEBUILDING_FL=STORY 2_SCH=B SPORTS ARENA WHOLEBUILDING ELEC EQUIP,NECB-B-ELECTRIC-EQUIPMENT,ALL_ST=WHOLEBUILDING_FL=STORY 2_SCH=B,1875.00,187.5,1874.984,1.000,10.000,0.000,0.500,0.000,0.500,General,187.498,1687.486
 ElectricEquipment Internal Gains Nominal, ALL_ST=WHOLEBUILDING_FL=STORY 4_SCH=D TOWN HALL WHOLEBUILDING ELEC EQUIP,NECB-D-ELECTRIC-EQUIPMENT,ALL_ST=WHOLEBUILDING_FL=STORY 4_SCH=D,1875.00,75.1,14062.383,7.500,187.303,0.000,0.500,0.000,0.500,General,703.119,12656.145
 ElectricEquipment Internal Gains Nominal, ALL_ST=WHOLEBUILDING_FL=STORY 2_SCH=H TRANSPORTATION WHOLEBUILDING ELEC EQUIP,NECB-H-ELECTRIC-EQUIPMENT,ALL_ST=WHOLEBUILDING_FL=STORY 2_SCH=H,1875.00,124.9,1874.984,1.000,15.008,0.000,0.500,0.000,0.500,General,1687.486,1687.486
 ElectricEquipment Internal Gains Nominal, ALL_ST=WHOLEBUILDING_FL=STORY 2_SCH=A 1 WAREHOUSE - REFRIGERATED WHOLEBUILDING ELEC EQUIP,NECB-A-ELECTRIC-EQUIPMENT,ALL_ST=WHOLEBUILDING_FL=STORY 2_SCH=A 1,1875.00,1.2,1874.984,1.000,1548.371,0.000,0.500,0.000,0.500,General,374.997,1687.486
 ElectricEquipment Internal Gains Nominal, ALL_ST=WHOLEBUILDING_FL=STORY 2_SCH=A WAREHOUSE WHOLEBUILDING ELEC EQUIP,NECB-A-ELECTRIC-EQUIPMENT,ALL_ST=WHOLEBUILDING_FL=STORY 2_SCH=A,1875.00,1.2,1874.984,1.000,1548.371,0.000,0.500,0.000,0.500,General,374.997,1687.486
 ElectricEquipment Internal Gains Nominal, ALL_ST=WHOLEBUILDING_FL=STORY 2_SCH=A 2 WORKSHOP WHOLEBUILDING ELEC EQUIP,NECB-A-ELECTRIC-EQUIPMENT,ALL_ST=WHOLEBUILDING_FL=STORY 2_SCH=A 2,2500.00,83.4,24999.792,10.000,299.685,0.000,0.500,0.000,0.500,General,4999.958,22499.813
! <Shadowing/Sun Position Calculations Annual Simulations>, Calculation Method, Value {days}, Allowable Number Figures in Shadow Overlap {}, Polygon Clipping Algorithm, Sky Diffuse Modeling Algorithm, External Shading Calculation Method, Output External Shading Calculation Results, Disable Self-Shading Within Shading Zone Groups, Disable Self-Shading From Shading Zone Groups to Other Zones
Shadowing/Sun Position Calculations Annual Simulations,AverageOverDaysInFrequency,20,15000,SutherlandHodgman,SimpleSkyDiffuseModeling,InternalCalculation,No,No,No
! <Water Heater Information>,Type,Name,Volume {m3},Maximum Capacity {W},Standard Rated Recovery Efficiency, Standard Rated Energy Factor
! <ZoneInfiltration Airflow Stats Nominal>,Name,Schedule Name,Zone Name, Zone Floor Area {m2}, # Zone Occupants,Design Volume Flow Rate {m3/s},Volume Flow Rate/Floor Area {m3/s/m2},Volume Flow Rate/Exterior Surface Area {m3/s/m2},ACH - Air Changes per Hour,Equation A - Constant Term Coefficient {},Equation B - Temperature Term Coefficient {1/C},Equation C - Velocity Term Coefficient {s/m}, Equation D - Velocity Squared Term Coefficient {s2/m2}
 ZoneInfiltration Airflow Stats Nominal, WAREHOUSE - MED/BLK - REFRIGERATED-SPACE FUNCTION INFILTRATION,ALWAYS ON DISCRETE,ALL_ST=WAREHOUSE - MED/BLK - REFRIGERATED_FL=STORY 4_SCH=A,1875.00,18.8,0.564,3.007E-004,2.500E-004,0.285,0.000,0.000,0.224,0.000
 ZoneInfiltration Airflow Stats Nominal, WAREHOUSE - MED/BLK2 - REFRIGERATED-SPACE FUNCTION INFILTRATION,ALWAYS ON DISCRETE,ALL_ST=WAREHOUSE - MED/BLK2 - REFRIGERATED_FL=STORY 3_SCH=A,1875.00,18.8,9.500E-002,5.067E-005,2.500E-004,4.800E-002,0.000,0.000,0.224,0.000
 ZoneInfiltration Airflow Stats Nominal, WAREHOUSE - MED/BLK-SPACE FUNCTION INFILTRATION,ALWAYS ON DISCRETE,ALL_ST=WAREHOUSE - MED/BLK_FL=STORY 4_SCH=A,1875.00,18.8,0.564,3.007E-004,2.500E-004,0.285,0.000,0.000,0.224,0.000
 ZoneInfiltration Airflow Stats Nominal, WHOLEBUILDING-WAREHOUSE INFILTRATION,ALWAYS ON DISCRETE,ALL_ST=WHOLEBUILDING_FL=STORY 2_SCH=A,1875.00,1.2,9.500E-002,5.067E-005,2.500E-004,4.800E-002,0.000,0.000,0.224,0.000
 ZoneInfiltration Airflow Stats Nominal, WHOLEBUILDING-WAREHOUSE - REFRIGERATED INFILTRATION,ALWAYS ON DISCRETE,ALL_ST=WHOLEBUILDING_FL=STORY 2_SCH=A 1,1875.00,1.2,9.500E-002,5.067E-005,2.500E-004,4.800E-002,0.000,0.000,0.224,0.000
 ZoneInfiltration Airflow Stats Nominal, WHOLEBUILDING-SPORTS ARENA INFILTRATION,ALWAYS ON DISCRETE,ALL_ST=WHOLEBUILDING_FL=STORY 2_SCH=B,1875.00,187.5,9.500E-002,5.067E-005,2.500E-004,4.800E-002,0.000,0.000,0.224,0.000
 ZoneInfiltration Airflow Stats Nominal, WHOLEBUILDING-TRANSPORTATION INFILTRATION,ALWAYS ON DISCRETE,ALL_ST=WHOLEBUILDING_FL=STORY 2_SCH=H,1875.00,124.9,9.500E-002,5.067E-005,2.500E-004,4.800E-002,0.000,0.000,0.224,0.000
 ZoneInfiltration Airflow Stats Nominal, WHOLEBUILDING-TOWN HALL INFILTRATION,ALWAYS ON DISCRETE,ALL_ST=WHOLEBUILDING_FL=STORY 4_SCH=D,1875.00,75.1,0.564,3.007E-004,2.500E-004,0.285,0.000,0.000,0.224,0.000
 ZoneInfiltration Airflow Stats Nominal, WASHROOM-SCH-A-SPACE FUNCTION INFILTRATION,ALWAYS ON DISCRETE,WET_ST=WASHROOM-SCH-A_FL=STORY 3_SCHA,1875.00,62.6,9.500E-002,5.067E-005,2.500E-004,4.800E-002,0.000,0.000,0.224,0.000
 ZoneInfiltration Airflow Stats Nominal, WASHROOM-SCH-E-SPACE FUNCTION INFILTRATION,ALWAYS ON DISCRETE,WET_ST=WASHROOM-SCH-E_FL=STORY 4_SCHA,1875.00,62.6,0.564,3.007E-004,2.500E-004,0.285,0.000,0.000,0.224,0.000
 ZoneInfiltration Airflow Stats Nominal, WASHROOM-SCH-F-SPACE FUNCTION INFILTRATION,ALWAYS ON DISCRETE,WET_ST=WASHROOM-SCH-F_FL=STORY 3_SCHA,1875.00,62.6,9.500E-002,5.067E-005,2.500E-004,4.800E-002,0.000,0.000,0.224,0.000
 ZoneInfiltration Airflow Stats Nominal, WASHROOM-SCH-G-SPACE FUNCTION INFILTRATION,ALWAYS ON DISCRETE,WET_ST=WASHROOM-SCH-G_FL=STORY 3_SCHA,1875.00,62.6,9.500E-002,5.067E-005,2.500E-004,4.800E-002,0.000,0.000,0.224,0.000
 ZoneInfiltration Airflow Stats Nominal, WASHROOM-SCH-I-SPACE FUNCTION INFILTRATION,ALWAYS ON DISCRETE,WET_ST=WASHROOM-SCH-I_FL=STORY 4_SCHA,2500.00,83.4,0.625,2.500E-004,2.500E-004,0.237,0.000,0.000,0.224,0.000
! <AirFlow Model>, Simple
 AirFlow Model, Simple
! <RoomAir Model>, Zone Name, Mixing/Mundt/UCSDDV/UCSDCV/UCSDUFI/UCSDUFE/User Defined
RoomAir Model,ALL_ST=WAREHOUSE - MED/BLK - REFRIGERATED_FL=STORY 4_SCH=A,Mixing/Well-Stirred
RoomAir Model,ALL_ST=WAREHOUSE - MED/BLK2 - REFRIGERATED_FL=STORY 3_SCH=A,Mixing/Well-Stirred
RoomAir Model,ALL_ST=WAREHOUSE - MED/BLK2_FL=STORY 3_SCH=A,Mixing/Well-Stirred
RoomAir Model,ALL_ST=WAREHOUSE - MED/BLK_FL=STORY 4_SCH=A,Mixing/Well-Stirred
RoomAir Model,ALL_ST=WHOLEBUILDING_FL=STORY 2_SCH=A,Mixing/Well-Stirred
RoomAir Model,ALL_ST=WHOLEBUILDING_FL=STORY 2_SCH=A 1,Mixing/Well-Stirred
RoomAir Model,ALL_ST=WHOLEBUILDING_FL=STORY 2_SCH=A 2,Mixing/Well-Stirred
RoomAir Model,ALL_ST=WHOLEBUILDING_FL=STORY 2_SCH=B,Mixing/Well-Stirred
RoomAir Model,ALL_ST=WHOLEBUILDING_FL=STORY 2_SCH=H,Mixing/Well-Stirred
RoomAir Model,ALL_ST=WHOLEBUILDING_FL=STORY 4_SCH=D,Mixing/Well-Stirred
RoomAir Model,ALL_ST=WORKSHOP SPACE_FL=STORY 1_SCH=A,Mixing/Well-Stirred
RoomAir Model,WET_ST=WASHROOM-SCH-A_FL=STORY 3_SCHA,Mixing/Well-Stirred
RoomAir Model,WET_ST=WASHROOM-SCH-B_FL=STORY 1_SCHA,Mixing/Well-Stirred
RoomAir Model,WET_ST=WASHROOM-SCH-C_FL=STORY 1_SCHA,Mixing/Well-Stirred
RoomAir Model,WET_ST=WASHROOM-SCH-D_FL=STORY 1_SCHA,Mixing/Well-Stirred
RoomAir Model,WET_ST=WASHROOM-SCH-E_FL=STORY 4_SCHA,Mixing/Well-Stirred
RoomAir Model,WET_ST=WASHROOM-SCH-F_FL=STORY 3_SCHA,Mixing/Well-Stirred
RoomAir Model,WET_ST=WASHROOM-SCH-G_FL=STORY 3_SCHA,Mixing/Well-Stirred
RoomAir Model,WET_ST=WASHROOM-SCH-H_FL=STORY 1_SCHA,Mixing/Well-Stirred
RoomAir Model,WET_ST=WASHROOM-SCH-I_FL=STORY 4_SCHA,Mixing/Well-Stirred
! <AirflowNetwork Model:Control>, No Multizone or Distribution/Multizone with Distribution/Multizone without Distribution/Multizone with Distribution only during Fan Operation
AirflowNetwork Model:Control,NoMultizoneOrDistribution
! <Zone Volume Capacitance Multiplier>, Sensible Heat Capacity Multiplier, Moisture Capacity Multiplier, Carbon Dioxide Capacity Multiplier, Generic Contaminant Capacity Multiplier
Zone Volume Capacitance Multiplier,   1.000 ,   1.000,   1.000,   1.000
! <Load Timesteps in Zone Design Calculation Averaging Window>, Value
 Load Timesteps in Zone Design Calculation Averaging Window,    6
! <Heating Sizing Factor Information>, Sizing Factor ID, Value
 Heating Sizing Factor Information, Global,   1.3000    
 Heating Sizing Factor Information, Zone ALL_ST=WAREHOUSE - MED/BLK - REFRIGERATED_FL=STORY 4_SCH=A,   1.3000    
 Heating Sizing Factor Information, Zone ALL_ST=WAREHOUSE - MED/BLK2 - REFRIGERATED_FL=STORY 3_SCH=A,   1.3000    
 Heating Sizing Factor Information, Zone ALL_ST=WAREHOUSE - MED/BLK2_FL=STORY 3_SCH=A,   1.3000    
 Heating Sizing Factor Information, Zone ALL_ST=WAREHOUSE - MED/BLK_FL=STORY 4_SCH=A,   1.3000    
 Heating Sizing Factor Information, Zone ALL_ST=WHOLEBUILDING_FL=STORY 2_SCH=A,   1.3000    
 Heating Sizing Factor Information, Zone ALL_ST=WHOLEBUILDING_FL=STORY 2_SCH=A 1,   1.3000    
 Heating Sizing Factor Information, Zone ALL_ST=WHOLEBUILDING_FL=STORY 2_SCH=A 2,   1.3000    
 Heating Sizing Factor Information, Zone ALL_ST=WHOLEBUILDING_FL=STORY 2_SCH=B,   1.3000    
 Heating Sizing Factor Information, Zone ALL_ST=WHOLEBUILDING_FL=STORY 2_SCH=H,   1.3000    
 Heating Sizing Factor Information, Zone ALL_ST=WHOLEBUILDING_FL=STORY 4_SCH=D,   1.3000    
 Heating Sizing Factor Information, Zone ALL_ST=WORKSHOP SPACE_FL=STORY 1_SCH=A,   1.3000    
 Heating Sizing Factor Information, Zone WET_ST=WASHROOM-SCH-A_FL=STORY 3_SCHA,   1.3000    
 Heating Sizing Factor Information, Zone WET_ST=WASHROOM-SCH-B_FL=STORY 1_SCHA,   1.3000    
 Heating Sizing Factor Information, Zone WET_ST=WASHROOM-SCH-C_FL=STORY 1_SCHA,   1.3000    
 Heating Sizing Factor Information, Zone WET_ST=WASHROOM-SCH-D_FL=STORY 1_SCHA,   1.3000    
 Heating Sizing Factor Information, Zone WET_ST=WASHROOM-SCH-E_FL=STORY 4_SCHA,   1.3000    
 Heating Sizing Factor Information, Zone WET_ST=WASHROOM-SCH-F_FL=STORY 3_SCHA,   1.3000    
 Heating Sizing Factor Information, Zone WET_ST=WASHROOM-SCH-G_FL=STORY 3_SCHA,   1.3000    
 Heating Sizing Factor Information, Zone WET_ST=WASHROOM-SCH-H_FL=STORY 1_SCHA,   1.3000    
 Heating Sizing Factor Information, Zone WET_ST=WASHROOM-SCH-I_FL=STORY 4_SCHA,   1.3000    
! <Cooling Sizing Factor Information>, Sizing Factor ID, Value
 Cooling Sizing Factor Information, Global,   1.1000    
 Cooling Sizing Factor Information, Zone ALL_ST=WAREHOUSE - MED/BLK - REFRIGERATED_FL=STORY 4_SCH=A,   1.1000    
 Cooling Sizing Factor Information, Zone ALL_ST=WAREHOUSE - MED/BLK2 - REFRIGERATED_FL=STORY 3_SCH=A,   1.1000    
 Cooling Sizing Factor Information, Zone ALL_ST=WAREHOUSE - MED/BLK2_FL=STORY 3_SCH=A,   1.1000    
 Cooling Sizing Factor Information, Zone ALL_ST=WAREHOUSE - MED/BLK_FL=STORY 4_SCH=A,   1.1000    
 Cooling Sizing Factor Information, Zone ALL_ST=WHOLEBUILDING_FL=STORY 2_SCH=A,   1.1000    
 Cooling Sizing Factor Information, Zone ALL_ST=WHOLEBUILDING_FL=STORY 2_SCH=A 1,   1.1000    
 Cooling Sizing Factor Information, Zone ALL_ST=WHOLEBUILDING_FL=STORY 2_SCH=A 2,   1.1000    
 Cooling Sizing Factor Information, Zone ALL_ST=WHOLEBUILDING_FL=STORY 2_SCH=B,   1.1000    
 Cooling Sizing Factor Information, Zone ALL_ST=WHOLEBUILDING_FL=STORY 2_SCH=H,   1.1000    
 Cooling Sizing Factor Information, Zone ALL_ST=WHOLEBUILDING_FL=STORY 4_SCH=D,   1.1000    
 Cooling Sizing Factor Information, Zone ALL_ST=WORKSHOP SPACE_FL=STORY 1_SCH=A,   1.1000    
 Cooling Sizing Factor Information, Zone WET_ST=WASHROOM-SCH-A_FL=STORY 3_SCHA,   1.1000    
 Cooling Sizing Factor Information, Zone WET_ST=WASHROOM-SCH-B_FL=STORY 1_SCHA,   1.1000    
 Cooling Sizing Factor Information, Zone WET_ST=WASHROOM-SCH-C_FL=STORY 1_SCHA,   1.1000    
 Cooling Sizing Factor Information, Zone WET_ST=WASHROOM-SCH-D_FL=STORY 1_SCHA,   1.1000    
 Cooling Sizing Factor Information, Zone WET_ST=WASHROOM-SCH-E_FL=STORY 4_SCHA,   1.1000    
 Cooling Sizing Factor Information, Zone WET_ST=WASHROOM-SCH-F_FL=STORY 3_SCHA,   1.1000    
 Cooling Sizing Factor Information, Zone WET_ST=WASHROOM-SCH-G_FL=STORY 3_SCHA,   1.1000    
 Cooling Sizing Factor Information, Zone WET_ST=WASHROOM-SCH-H_FL=STORY 1_SCHA,   1.1000    
 Cooling Sizing Factor Information, Zone WET_ST=WASHROOM-SCH-I_FL=STORY 4_SCHA,   1.1000    
! <Zone Sizing Information>, Zone Name, Load Type, Calc Des Load {W}, User Des Load {W}, Calc Des Air Flow Rate {m3/s}, User Des Air Flow Rate {m3/s}, Design Day Name, Date/Time of Peak, Temperature at Peak {C}, Humidity Ratio at Peak {kgWater/kgDryAir}, Floor Area {m2}, # Occupants, Calc Outdoor Air Flow Rate {m3/s}, Calc DOAS Heat Addition Rate {W}
 Zone Sizing Information, ALL_ST=WAREHOUSE - MED/BLK - REFRIGERATED_FL=STORY 4_SCH=A, Cooling, 67438.14209, 74181.95630, 5.21192, 5.73311, FORT MCMURRAY AP ANN CLG .4% CONDNS DB=>MWB, 7/21 16:10:00, 27.99067, 8.76969E-003, 1875.00000, 18.76957, 0.57150, 0.00000
 Zone Sizing Information, ALL_ST=WAREHOUSE - MED/BLK - REFRIGERATED_FL=STORY 4_SCH=A, Heating, 55618.69926, 72304.30903, 2.22045, 2.88659, FORT MCMURRAY AP ANN HTG 99.6% CONDNS DB, 1/21 08:00:00, -36.20000, 1.25811E-004, 1875.00000, 18.76957, 0.57150, 0.00000
 Zone Sizing Information, ALL_ST=WAREHOUSE - MED/BLK2 - REFRIGERATED_FL=STORY 3_SCH=A, Cooling, 26905.01279, 29595.51407, 2.07933, 2.28727, FORT MCMURRAY AP ANN CLG .4% CONDNS DB=>MWB, 7/21 17:00:00, 27.16400, 8.76969E-003, 1875.00000, 18.76957, 0.57150, 0.00000
 Zone Sizing Information, ALL_ST=WAREHOUSE - MED/BLK2 - REFRIGERATED_FL=STORY 3_SCH=A, Heating, 30857.37315, 40114.58510, 1.22017, 1.58623, FORT MCMURRAY AP ANN HTG 99.6% CONDNS DB, 1/21 08:00:00, -36.20000, 1.25811E-004, 1875.00000, 18.76957, 0.57150, 0.00000
 Zone Sizing Information, ALL_ST=WAREHOUSE - MED/BLK2_FL=STORY 3_SCH=A, Cooling, 35966.72051, 39563.39256, 2.77966, 3.05763, FORT MCMURRAY AP ANN CLG .4% CONDNS DB=>MWB, 7/21 17:00:00, 27.16400, 8.76969E-003, 2500.00000, 25.02609, 0.76200, 0.00000
 Zone Sizing Information, ALL_ST=WAREHOUSE - MED/BLK2_FL=STORY 3_SCH=A, Heating, 0.00000, 0.00000, 0.00000, 0.76200, FORT MCMURRAY AP ANN HTG 99.6% CONDNS DB, , -36.20000, 1.25811E-004, 2500.00000, 25.02609, 0.76200, 0.00000
 Zone Sizing Information, ALL_ST=WAREHOUSE - MED/BLK_FL=STORY 4_SCH=A, Cooling, 53232.27376, 58555.50113, 4.11399, 4.52539, FORT MCMURRAY AP ANN CLG .4% CONDNS DB=>MWB, 7/21 13:50:00, 28.79667, 8.76969E-003, 1875.00000, 18.76957, 0.57150, 0.00000
 Zone Sizing Information, ALL_ST=WAREHOUSE - MED/BLK_FL=STORY 4_SCH=A, Heating, 56481.10799, 73425.44038, 2.25542, 2.93204, FORT MCMURRAY AP ANN HTG 99.6% CONDNS DB, 1/21 08:00:00, -36.20000, 1.25811E-004, 1875.00000, 18.76957, 0.57150, 0.00000
 Zone Sizing Information, ALL_ST=WHOLEBUILDING_FL=STORY 2_SCH=A, Cooling, 18263.90779, 20090.29857, 1.32921, 1.46213, FORT MCMURRAY AP ANN CLG .4% CONDNS DB=>MWB, 7/21 07:00:00, 17.61600, 8.76969E-003, 1875.00000, 1.21094, 0.58103, 0.00000
 Zone Sizing Information, ALL_ST=WHOLEBUILDING_FL=STORY 2_SCH=A, Heating, 20836.81035, 27087.85345, 0.81379, 1.05793, FORT MCMURRAY AP ANN HTG 99.6% CONDNS DB, 1/21 08:00:00, -36.20000, 1.25811E-004, 1875.00000, 1.21094, 0.58103, 0.00000
 Zone Sizing Information, ALL_ST=WHOLEBUILDING_FL=STORY 2_SCH=A 1, Cooling, 28311.66635, 31142.83299, 2.18800, 2.40680, FORT MCMURRAY AP ANN CLG .4% CONDNS DB=>MWB, 7/21 13:50:00, 28.79667, 8.76969E-003, 1875.00000, 1.21094, 0.58103, 0.00000
 Zone Sizing Information, ALL_ST=WHOLEBUILDING_FL=STORY 2_SCH=A 1, Heating, 20269.45135, 26350.28675, 0.79082, 1.02806, FORT MCMURRAY AP ANN HTG 99.6% CONDNS DB, 1/21 08:00:00, -36.20000, 1.25811E-004, 1875.00000, 1.21094, 0.58103, 0.00000
 Zone Sizing Information, ALL_ST=WHOLEBUILDING_FL=STORY 2_SCH=A 2, Cooling, 49959.11730, 54955.02903, 3.86126, 4.24738, FORT MCMURRAY AP ANN CLG .4% CONDNS DB=>MWB, 7/21 17:00:00, 27.16400, 8.76969E-003, 2500.00000, 83.42031, 2.67970, 0.00000
 Zone Sizing Information, ALL_ST=WHOLEBUILDING_FL=STORY 2_SCH=A 2, Heating, 0.00000, 0.00000, 0.00000, 2.67970, FORT MCMURRAY AP ANN HTG 99.6% CONDNS DB, , -36.20000, 1.25811E-004, 2500.00000, 83.42031, 2.67970, 0.00000
 Zone Sizing Information, ALL_ST=WHOLEBUILDING_FL=STORY 2_SCH=B, Cooling, 41276.82900, 45404.51190, 3.19036, 3.50940, FORT MCMURRAY AP ANN CLG .4% CONDNS DB=>MWB, 7/21 19:30:00, 23.38200, 8.76969E-003, 1875.00000, 187.49386, 1.23825, 0.00000
 Zone Sizing Information, ALL_ST=WHOLEBUILDING_FL=STORY 2_SCH=B, Heating, 12510.35568, 16263.46239, 0.48723, 1.23825, FORT MCMURRAY AP ANN HTG 99.6% CONDNS DB, 1/21 10:00:00, -36.20000, 1.25811E-004, 1875.00000, 187.49386, 1.23825, 0.00000
 Zone Sizing Information, ALL_ST=WHOLEBUILDING_FL=STORY 2_SCH=H, Cooling, 39100.02265, 43010.02492, 3.02215, 3.32436, FORT MCMURRAY AP ANN CLG .4% CONDNS DB=>MWB, 7/21 09:20:00, 22.78267, 8.76969E-003, 1875.00000, 124.92864, 1.00965, 0.00000
 Zone Sizing Information, ALL_ST=WHOLEBUILDING_FL=STORY 2_SCH=H, Heating, 0.00000, 0.00000, 0.00000, 1.00965, FORT MCMURRAY AP ANN HTG 99.6% CONDNS DB, , -36.20000, 1.25811E-004, 1875.00000, 124.92864, 1.00965, 0.00000
 Zone Sizing Information, ALL_ST=WHOLEBUILDING_FL=STORY 4_SCH=D, Cooling, 87475.25978, 96222.78576, 6.76083, 7.43691, FORT MCMURRAY AP ANN CLG .4% CONDNS DB=>MWB, 7/21 13:30:00, 28.59000, 8.76969E-003, 1875.00000, 75.07828, 0.75248, 0.00000
 Zone Sizing Information, ALL_ST=WHOLEBUILDING_FL=STORY 4_SCH=D, Heating, 48276.12044, 62758.95657, 1.80063, 2.34082, FORT MCMURRAY AP ANN HTG 99.6% CONDNS DB, 1/21 08:10:00, -36.20000, 1.25811E-004, 1875.00000, 75.07828, 0.75248, 0.00000
 Zone Sizing Information, ALL_ST=WORKSHOP SPACE_FL=STORY 1_SCH=A, Cooling, 50380.37930, 55418.41723, 3.89382, 4.82600, FORT MCMURRAY AP ANN CLG .4% CONDNS DB=>MWB, 7/21 17:00:00, 27.16400, 8.76969E-003, 2500.00000, 83.42031, 4.82600, 0.00000
 Zone Sizing Information, ALL_ST=WORKSHOP SPACE_FL=STORY 1_SCH=A, Heating, 0.00000, 0.00000, 0.00000, 4.82600, FORT MCMURRAY AP ANN HTG 99.6% CONDNS DB, , -36.20000, 1.25811E-004, 2500.00000, 83.42031, 4.82600, 0.00000
 Zone Sizing Information, WET_ST=WASHROOM-SCH-A_FL=STORY 3_SCHA, Cooling, 45585.35092, 50143.88602, 3.52321, 3.87553, FORT MCMURRAY AP ANN CLG .4% CONDNS DB=>MWB, 7/21 17:40:00, 26.33733, 8.76969E-003, 1875.00000, 62.56523, 0.57150, 0.00000
 Zone Sizing Information, WET_ST=WASHROOM-SCH-A_FL=STORY 3_SCHA, Heating, 28284.72777, 36770.14610, 1.11588, 1.45065, FORT MCMURRAY AP ANN HTG 99.6% CONDNS DB, 1/21 08:00:00, -36.20000, 1.25811E-004, 1875.00000, 62.56523, 0.57150, 0.00000
 Zone Sizing Information, WET_ST=WASHROOM-SCH-B_FL=STORY 1_SCHA, Cooling, 19721.74764, 21693.92240, 1.52426, 1.67669, FORT MCMURRAY AP ANN CLG .4% CONDNS DB=>MWB, 7/21 17:00:00, 27.16400, 8.76969E-003, 1875.00000, 62.56523, 0.57150, 0.00000
 Zone Sizing Information, WET_ST=WASHROOM-SCH-B_FL=STORY 1_SCHA, Heating, 0.00000, 0.00000, 0.00000, 0.57150, FORT MCMURRAY AP ANN HTG 99.6% CONDNS DB, , -36.20000, 1.25811E-004, 1875.00000, 62.56523, 0.57150, 0.00000
 Zone Sizing Information, WET_ST=WASHROOM-SCH-C_FL=STORY 1_SCHA, Cooling, 17266.55717, 18993.21289, 1.33450, 1.46795, FORT MCMURRAY AP ANN CLG .4% CONDNS DB=>MWB, 7/21 17:00:00, 27.16400, 8.76969E-003, 1875.00000, 62.56523, 0.57150, 0.00000
 Zone Sizing Information, WET_ST=WASHROOM-SCH-C_FL=STORY 1_SCHA, Heating, 0.00000, 0.00000, 0.00000, 0.57150, FORT MCMURRAY AP ANN HTG 99.6% CONDNS DB, , -36.20000, 1.25811E-004, 1875.00000, 62.56523, 0.57150, 0.00000
 Zone Sizing Information, WET_ST=WASHROOM-SCH-D_FL=STORY 1_SCHA, Cooling, 19998.29402, 21998.12343, 1.54562, 1.70018, FORT MCMURRAY AP ANN CLG .4% CONDNS DB=>MWB, 7/21 15:40:00, 28.40400, 8.76969E-003, 1875.00000, 62.56523, 0.57150, 0.00000
 Zone Sizing Information, WET_ST=WASHROOM-SCH-D_FL=STORY 1_SCHA, Heating, 0.00000, 0.00000, 0.00000, 0.57150, FORT MCMURRAY AP ANN HTG 99.6% CONDNS DB, , -36.20000, 1.25811E-004, 1875.00000, 62.56523, 0.57150, 0.00000
 Zone Sizing Information, WET_ST=WASHROOM-SCH-E_FL=STORY 4_SCHA, Cooling, 67936.33801, 74729.97181, 5.25064, 5.77570, FORT MCMURRAY AP ANN CLG .4% CONDNS DB=>MWB, 7/21 10:20:00, 24.80800, 8.76969E-003, 1875.00000, 62.56523, 0.57150, 0.00000
 Zone Sizing Information, WET_ST=WASHROOM-SCH-E_FL=STORY 4_SCHA, Heating, 53268.42933, 69248.95813, 2.12569, 2.76340, FORT MCMURRAY AP ANN HTG 99.6% CONDNS DB, 1/21 08:00:00, -36.20000, 1.25811E-004, 1875.00000, 62.56523, 0.57150, 0.00000
 Zone Sizing Information, WET_ST=WASHROOM-SCH-F_FL=STORY 3_SCHA, Cooling, 39486.96157, 43435.65773, 3.05181, 3.35699, FORT MCMURRAY AP ANN CLG .4% CONDNS DB=>MWB, 7/21 15:00:00, 28.90000, 8.76969E-003, 1875.00000, 62.56523, 0.57150, 0.00000
 Zone Sizing Information, WET_ST=WASHROOM-SCH-F_FL=STORY 3_SCHA, Heating, 29450.26606, 38285.34587, 1.16317, 1.51213, FORT MCMURRAY AP ANN HTG 99.6% CONDNS DB, 1/21 08:00:00, -36.20000, 1.25811E-004, 1875.00000, 62.56523, 0.57150, 0.00000
 Zone Sizing Information, WET_ST=WASHROOM-SCH-G_FL=STORY 3_SCHA, Cooling, 40290.58417, 44319.64259, 3.11392, 3.42531, FORT MCMURRAY AP ANN CLG .4% CONDNS DB=>MWB, 7/21 10:00:00, 24.18800, 8.76969E-003, 1875.00000, 62.56523, 0.57150, 0.00000
 Zone Sizing Information, WET_ST=WASHROOM-SCH-G_FL=STORY 3_SCHA, Heating, 25474.11941, 33116.35523, 1.00184, 1.30239, FORT MCMURRAY AP ANN HTG 99.6% CONDNS DB, 1/21 08:00:00, -36.20000, 1.25811E-004, 1875.00000, 62.56523, 0.57150, 0.00000
 Zone Sizing Information, WET_ST=WASHROOM-SCH-H_FL=STORY 1_SCHA, Cooling, 19527.20255, 21479.92280, 1.50922, 1.66015, FORT MCMURRAY AP ANN CLG .4% CONDNS DB=>MWB, 7/21 17:00:00, 27.16400, 8.76969E-003, 1875.00000, 62.56523, 0.57150, 0.00000
 Zone Sizing Information, WET_ST=WASHROOM-SCH-H_FL=STORY 1_SCHA, Heating, 0.00000, 0.00000, 0.00000, 0.57150, FORT MCMURRAY AP ANN HTG 99.6% CONDNS DB, , -36.20000, 1.25811E-004, 1875.00000, 62.56523, 0.57150, 0.00000
 Zone Sizing Information, WET_ST=WASHROOM-SCH-I_FL=STORY 4_SCHA, Cooling, 73284.95757, 80613.45332, 5.66389, 6.23028, FORT MCMURRAY AP ANN CLG .4% CONDNS DB=>MWB, 7/21 14:30:00, 28.90000, 8.76969E-003, 2500.00000, 83.42031, 0.76200, 0.00000
 Zone Sizing Information, WET_ST=WASHROOM-SCH-I_FL=STORY 4_SCHA, Heating, 46372.97418, 60284.86643, 1.83801, 2.38941, FORT MCMURRAY AP ANN HTG 99.6% CONDNS DB, 1/21 08:00:00, -36.20000, 1.25811E-004, 2500.00000, 83.42031, 0.76200, 0.00000
! <System Sizing Information>, System Name, Load Type, Peak Load Kind, User Design Capacity, Calc Des Air Flow Rate [m3/s], User Des Air Flow Rate [m3/s], Design Day Name, Date/Time of Peak
 System Sizing Information, SYS_2_MAKE-UP AIR UNIT, Cooling, Sensible, 75676.35, 5.73311, 5.73311, FORT MCMURRAY AP ANN CLG .4% CONDNS DB=>MWB, 7/21 00:00:00
 System Sizing Information, SYS_2_MAKE-UP AIR UNIT, Heating, Sensible, 9097.96, 2.88659, 2.88659, FORT MCMURRAY AP ANN HTG 99.6% CONDNS DB, 1/21 21:50:00
 System Sizing Information, SYS_2_MAKE-UP AIR UNIT 1, Cooling, Sensible, 31232.20, 2.28727, 2.28727, FORT MCMURRAY AP ANN CLG .4% CONDNS DB=>MWB, 7/21 00:00:00
 System Sizing Information, SYS_2_MAKE-UP AIR UNIT 1, Heating, Sensible, 22529.91, 1.58623, 1.58623, FORT MCMURRAY AP ANN HTG 99.6% CONDNS DB, 1/21 00:10:00
 System Sizing Information, SYS_2_MAKE-UP AIR UNIT 2, Cooling, Sensible, 33888.97, 2.40680, 2.40680, FORT MCMURRAY AP ANN CLG .4% CONDNS DB=>MWB, 7/21 00:00:00
 System Sizing Information, SYS_2_MAKE-UP AIR UNIT 2, Heating, Sensible, 28794.85, 1.02806, 1.02806, FORT MCMURRAY AP ANN HTG 99.6% CONDNS DB, 1/21 00:10:00
 System Sizing Information, SYS_3_PSZ ALL_ST=WHOLEBUILDING_FL=STORY 2_SCH=A 2, Cooling, Sensible, 63927.12, 4.24738, 4.24738, FORT MCMURRAY AP ANN CLG .4% CONDNS DB=>MWB, 7/21 05:00:00
 System Sizing Information, SYS_3_PSZ ALL_ST=WHOLEBUILDING_FL=STORY 2_SCH=A 2, Heating, Sensible, 245792.98, 2.67970, 2.67970, FORT MCMURRAY AP ANN HTG 99.6% CONDNS DB, 1/21 00:10:00
 System Sizing Information, SYS_3_PSZ ALL_ST=WHOLEBUILDING_FL=STORY 4_SCH=D, Cooling, Sensible, 98735.63, 7.43691, 7.43691, FORT MCMURRAY AP ANN CLG .4% CONDNS DB=>MWB, 7/21 05:00:00
 System Sizing Information, SYS_3_PSZ ALL_ST=WHOLEBUILDING_FL=STORY 4_SCH=D, Heating, Sensible, 110976.69, 2.34082, 2.34082, FORT MCMURRAY AP ANN HTG 99.6% CONDNS DB, 1/21 08:10:00
 System Sizing Information, SYS_3_PSZ ALL_ST=WORKSHOP SPACE_FL=STORY 1_SCH=A, Cooling, Sensible, 79164.66, 4.82600, 4.82600, FORT MCMURRAY AP ANN CLG .4% CONDNS DB=>MWB, 7/21 05:00:00
 System Sizing Information, SYS_3_PSZ ALL_ST=WORKSHOP SPACE_FL=STORY 1_SCH=A, Heating, Sensible, 442660.34, 4.82600, 4.82600, FORT MCMURRAY AP ANN HTG 99.6% CONDNS DB, 1/21 00:10:00
 System Sizing Information, SYS_4_PSZ_ALL_ST=WAREHOUSE - MED/BLK2_FL=STORY 3_SCH=A, Cooling, Sensible, 41744.05, 3.05763, 3.05763, FORT MCMURRAY AP ANN CLG .4% CONDNS DB=>MWB, 7/21 05:00:00
 System Sizing Information, SYS_4_PSZ_ALL_ST=WAREHOUSE - MED/BLK2_FL=STORY 3_SCH=A, Heating, Sensible, 69893.74, 0.76200, 0.76200, FORT MCMURRAY AP ANN HTG 99.6% CONDNS DB, 1/21 00:10:00
 System Sizing Information, SYS_4_PSZ_ALL_ST=WAREHOUSE - MED/BLK_FL=STORY 4_SCH=A, Cooling, Sensible, 60824.95, 4.52539, 4.52539, FORT MCMURRAY AP ANN CLG .4% CONDNS DB=>MWB, 7/21 05:00:00
 System Sizing Information, SYS_4_PSZ_ALL_ST=WAREHOUSE - MED/BLK_FL=STORY 4_SCH=A, Heating, Sensible, 110168.48, 2.93204, 2.93204, FORT MCMURRAY AP ANN HTG 99.6% CONDNS DB, 1/21 08:00:00
 System Sizing Information, SYS_4_PSZ_ALL_ST=WHOLEBUILDING_FL=STORY 2_SCH=A, Cooling, Sensible, 14222.65, 1.46213, 1.46213, FORT MCMURRAY AP ANN CLG .4% CONDNS DB=>MWB, 7/21 05:00:00
 System Sizing Information, SYS_4_PSZ_ALL_ST=WHOLEBUILDING_FL=STORY 2_SCH=A, Heating, Sensible, 65136.68, 1.05793, 1.05793, FORT MCMURRAY AP ANN HTG 99.6% CONDNS DB, 1/21 08:00:00
 System Sizing Information, SYS_4_PSZ_WET_ST=WASHROOM-SCH-A_FL=STORY 3_SCHA, Cooling, Sensible, 389373.53, 29.16877, 29.16877, FORT MCMURRAY AP ANN CLG .4% CONDNS DB=>MWB, 7/21 05:00:00
 System Sizing Information, SYS_4_PSZ_WET_ST=WASHROOM-SCH-A_FL=STORY 3_SCHA, Heating, Sensible, 645626.16, 11.70397, 11.70397, FORT MCMURRAY AP ANN HTG 99.6% CONDNS DB, 1/21 08:00:00
 System Sizing Information, SYS_6_VAV WITH REHEAT, Cooling, Sensible, 84683.08, 6.83376, 6.83376, FORT MCMURRAY AP ANN CLG .4% CONDNS DB=>MWB, 7/21 00:00:00
 System Sizing Information, SYS_6_VAV WITH REHEAT, Heating, Sensible, 128345.91, 2.24790, 2.24790, FORT MCMURRAY AP ANN HTG 99.6% CONDNS DB, 1/21 00:10:00
! <Component Sizing Information>, Component Type, Component Name, Input Field Description, Value
 Component Sizing Information, ZoneHVAC:FourPipeFanCoil, ZONE HVAC FOUR PIPE FAN COIL 1, Design Size Maximum Supply Air Flow Rate [m3/s], 5.73311
 Component Sizing Information, Fan:ConstantVolume, FAN CONSTANT VOLUME 6, Design Size Maximum Flow Rate [m3/s], 5.73311
 Component Sizing Information, ZoneHVAC:FourPipeFanCoil, ZONE HVAC FOUR PIPE FAN COIL 1, Design Size Maximum Outdoor Air Flow Rate [m3/s], 0.57150
 Component Sizing Information, ZoneHVAC:FourPipeFanCoil, ZONE HVAC FOUR PIPE FAN COIL 1, Design Size Maximum Hot Water Flow [m3/s], 1.59737E-003
 Component Sizing Information, ZoneHVAC:FourPipeFanCoil, ZONE HVAC FOUR PIPE FAN COIL 1, Design Size Maximum Cold Water Flow [m3/s], 3.10104E-003
 Component Sizing Information, Coil:Cooling:Water, COIL COOLING WATER 1, Design Size Design Water Flow Rate [m3/s], 3.10104E-003
 Component Sizing Information, Coil:Cooling:Water, COIL COOLING WATER 1, Design Size Design Air Flow Rate [m3/s], 5.73311
 Component Sizing Information, Coil:Cooling:Water, COIL COOLING WATER 1, User-Specified Design Air Flow Rate [m3/s], 5.73311
 Component Sizing Information, Coil:Cooling:Water, COIL COOLING WATER 1, Design Size Design Inlet Air Temperature [C], 24.39756
 Component Sizing Information, Coil:Cooling:Water, COIL COOLING WATER 1, Design Size Design Inlet Water Temperature [C], 7.00000
 Component Sizing Information, Coil:Cooling:Water, COIL COOLING WATER 1, Design Size Design Inlet Air Humidity Ratio, 8.59711E-003
 Component Sizing Information, Coil:Cooling:Water, COIL COOLING WATER 1, Design Size Design Outlet Air Temperature [C], 13.00000
 Component Sizing Information, Coil:Cooling:Water, COIL COOLING WATER 1, Design Size Design Outlet Air Humidity Ratio, 8.50000E-003
! <Water Cooling Coil Capacity Information>,Component Type,Name,Nominal Total Capacity {W},Nominal Sensible Capacity {W},Nominal Latent Capacity {W},Nominal Sensible Heat Ratio, Nominal Coil UA Value {W/C}, Nominal Coil Surface Area {m2}
Water Cooling Coil Capacity Information,Coil:Cooling:Water,COIL COOLING WATER 1,112059.85,82497.95,29561.90,0.74,11962.27,121.33
 Component Sizing Information, Coil:Heating:Water, COIL HEATING WATER 1, Design Size Rated Capacity [W], 106948.65394
 Component Sizing Information, Coil:Heating:Water, COIL HEATING WATER 1, Design Size Maximum Water Flow Rate [m3/s], 1.59737E-003
 Component Sizing Information, Coil:Heating:Water, COIL HEATING WATER 1, Design Size U-Factor Times Area Value [W/K], 2322.16387
! <Water Heating Coil Capacity Information>,Component Type,Name,Nominal Total Capacity {W}
Water Heating Coil Capacity Information,Coil:Heating:Water,COIL HEATING WATER 1,96676.75
 Component Sizing Information, AirTerminal:SingleDuct:Uncontrolled, AIR TERMINAL SINGLE DUCT UNCONTROLLED 13, Design Size Maximum Air Flow Rate [m3/s], 5.73311
 Component Sizing Information, ZoneHVAC:FourPipeFanCoil, ZONE HVAC FOUR PIPE FAN COIL 2, Design Size Maximum Supply Air Flow Rate [m3/s], 2.28727
 Component Sizing Information, Fan:ConstantVolume, FAN CONSTANT VOLUME 8, Design Size Maximum Flow Rate [m3/s], 2.28727
 Component Sizing Information, ZoneHVAC:FourPipeFanCoil, ZONE HVAC FOUR PIPE FAN COIL 2, Design Size Maximum Outdoor Air Flow Rate [m3/s], 0.57150
 Component Sizing Information, ZoneHVAC:FourPipeFanCoil, ZONE HVAC FOUR PIPE FAN COIL 2, Design Size Maximum Hot Water Flow [m3/s], 1.10983E-003
 Component Sizing Information, ZoneHVAC:FourPipeFanCoil, ZONE HVAC FOUR PIPE FAN COIL 2, Design Size Maximum Cold Water Flow [m3/s], 1.29838E-003
 Component Sizing Information, Coil:Cooling:Water, COIL COOLING WATER 2, Design Size Design Water Flow Rate [m3/s], 1.29838E-003
 Component Sizing Information, Coil:Cooling:Water, COIL COOLING WATER 2, Design Size Design Air Flow Rate [m3/s], 2.28727
 Component Sizing Information, Coil:Cooling:Water, COIL COOLING WATER 2, User-Specified Design Air Flow Rate [m3/s], 2.28727
 Component Sizing Information, Coil:Cooling:Water, COIL COOLING WATER 2, Design Size Design Inlet Air Temperature [C], 24.79038
 Component Sizing Information, Coil:Cooling:Water, COIL COOLING WATER 2, Design Size Design Inlet Water Temperature [C], 7.00000
 Component Sizing Information, Coil:Cooling:Water, COIL COOLING WATER 2, Design Size Design Inlet Air Humidity Ratio, 8.69102E-003
 Component Sizing Information, Coil:Cooling:Water, COIL COOLING WATER 2, Design Size Design Outlet Air Temperature [C], 13.00000
 Component Sizing Information, Coil:Cooling:Water, COIL COOLING WATER 2, Design Size Design Outlet Air Humidity Ratio, 8.50000E-003
Water Cooling Coil Capacity Information,Coil:Cooling:Water,COIL COOLING WATER 2,45960.03,33512.10,12447.93,0.73,4915.42,49.85
 Component Sizing Information, Coil:Heating:Water, COIL HEATING WATER 2, Design Size Rated Capacity [W], 74306.95274
 Component Sizing Information, Coil:Heating:Water, COIL HEATING WATER 2, Design Size Maximum Water Flow Rate [m3/s], 1.10983E-003
 Component Sizing Information, Coil:Heating:Water, COIL HEATING WATER 2, Design Size U-Factor Times Area Value [W/K], 1455.22959
Water Heating Coil Capacity Information,Coil:Heating:Water,COIL HEATING WATER 2,59345.63
 Component Sizing Information, AirTerminal:SingleDuct:Uncontrolled, AIR TERMINAL SINGLE DUCT UNCONTROLLED 14, Design Size Maximum Air Flow Rate [m3/s], 2.28727
 Component Sizing Information, AirTerminal:SingleDuct:Uncontrolled, AIR TERMINAL SINGLE DUCT UNCONTROLLED 11, Design Size Maximum Air Flow Rate [m3/s], 3.05763
 Component Sizing Information, ZoneHVAC:Baseboard:Convective:Water, ZONE HVAC BASEBOARD CONVECTIVE WATER 11, Design Size Maximum Water Flow Rate [m3/s], 0.00000
 Component Sizing Information, ZoneHVAC:Baseboard:Convective:Water, ZONE HVAC BASEBOARD CONVECTIVE WATER 11, Design Size U-Factor Times Area Value [W/K], 0.00000
 Component Sizing Information, AirTerminal:SingleDuct:Uncontrolled, AIR TERMINAL SINGLE DUCT UNCONTROLLED 10, Design Size Maximum Air Flow Rate [m3/s], 4.52539
 Component Sizing Information, ZoneHVAC:Baseboard:Convective:Water, ZONE HVAC BASEBOARD CONVECTIVE WATER 10, Design Size Maximum Water Flow Rate [m3/s], 1.09667E-003
 Component Sizing Information, ZoneHVAC:Baseboard:Convective:Water, ZONE HVAC BASEBOARD CONVECTIVE WATER 10, Design Size U-Factor Times Area Value [W/K], 2238.24055
 Component Sizing Information, AirTerminal:SingleDuct:Uncontrolled, AIR TERMINAL SINGLE DUCT UNCONTROLLED 12, Design Size Maximum Air Flow Rate [m3/s], 1.46213
 Component Sizing Information, ZoneHVAC:Baseboard:Convective:Water, ZONE HVAC BASEBOARD CONVECTIVE WATER 12, Design Size Maximum Water Flow Rate [m3/s], 4.04579E-004
 Component Sizing Information, ZoneHVAC:Baseboard:Convective:Water, ZONE HVAC BASEBOARD CONVECTIVE WATER 12, Design Size U-Factor Times Area Value [W/K], 826.13671
 Component Sizing Information, ZoneHVAC:FourPipeFanCoil, ZONE HVAC FOUR PIPE FAN COIL 3, Design Size Maximum Supply Air Flow Rate [m3/s], 2.40680
 Component Sizing Information, Fan:ConstantVolume, FAN CONSTANT VOLUME 10, Design Size Maximum Flow Rate [m3/s], 2.40680
 Component Sizing Information, ZoneHVAC:FourPipeFanCoil, ZONE HVAC FOUR PIPE FAN COIL 3, Design Size Maximum Outdoor Air Flow Rate [m3/s], 0.58103
 Component Sizing Information, ZoneHVAC:FourPipeFanCoil, ZONE HVAC FOUR PIPE FAN COIL 3, Design Size Maximum Hot Water Flow [m3/s], 9.09173E-004
 Component Sizing Information, ZoneHVAC:FourPipeFanCoil, ZONE HVAC FOUR PIPE FAN COIL 3, Design Size Maximum Cold Water Flow [m3/s], 1.36809E-003
 Component Sizing Information, Coil:Cooling:Water, COIL COOLING WATER 3, Design Size Design Water Flow Rate [m3/s], 1.36809E-003
 Component Sizing Information, Coil:Cooling:Water, COIL COOLING WATER 3, Design Size Design Air Flow Rate [m3/s], 2.40680
 Component Sizing Information, Coil:Cooling:Water, COIL COOLING WATER 3, User-Specified Design Air Flow Rate [m3/s], 2.40680
 Component Sizing Information, Coil:Cooling:Water, COIL COOLING WATER 3, Design Size Design Inlet Air Temperature [C], 25.15795
 Component Sizing Information, Coil:Cooling:Water, COIL COOLING WATER 3, Design Size Design Inlet Water Temperature [C], 7.00000
 Component Sizing Information, Coil:Cooling:Water, COIL COOLING WATER 3, Design Size Design Inlet Air Humidity Ratio, 8.57453E-003
 Component Sizing Information, Coil:Cooling:Water, COIL COOLING WATER 3, Design Size Design Outlet Air Temperature [C], 13.00000
 Component Sizing Information, Coil:Cooling:Water, COIL COOLING WATER 3, Design Size Design Outlet Air Humidity Ratio, 8.50000E-003
Water Cooling Coil Capacity Information,Coil:Cooling:Water,COIL COOLING WATER 3,48423.18,35296.01,13127.16,0.73,5183.66,52.58
 Component Sizing Information, Coil:Heating:Water, COIL HEATING WATER 3, Design Size Rated Capacity [W], 60872.01743
 Component Sizing Information, Coil:Heating:Water, COIL HEATING WATER 3, Design Size Maximum Water Flow Rate [m3/s], 9.09173E-004
 Component Sizing Information, Coil:Heating:Water, COIL HEATING WATER 3, Design Size U-Factor Times Area Value [W/K], 1066.27420
Water Heating Coil Capacity Information,Coil:Heating:Water,COIL HEATING WATER 3,42411.80
 Component Sizing Information, AirTerminal:SingleDuct:Uncontrolled, AIR TERMINAL SINGLE DUCT UNCONTROLLED 15, Design Size Maximum Air Flow Rate [m3/s], 2.40680
 Component Sizing Information, AirTerminal:SingleDuct:Uncontrolled, AIR TERMINAL SINGLE DUCT UNCONTROLLED 18, Design Size Maximum Air Flow Rate [m3/s], 4.24738
 Component Sizing Information, ZoneHVAC:Baseboard:Convective:Water, ZONE HVAC BASEBOARD CONVECTIVE WATER 15, Design Size Maximum Water Flow Rate [m3/s], 0.00000
 Component Sizing Information, ZoneHVAC:Baseboard:Convective:Water, ZONE HVAC BASEBOARD CONVECTIVE WATER 15, Design Size U-Factor Times Area Value [W/K], 0.00000
 Component Sizing Information, AirTerminal:SingleDuct:VAV:Reheat, AIR TERMINAL SINGLE DUCT VAV REHEAT 1, Design Size Maximum Air Flow Rate [m3/s], 3.50940
 Component Sizing Information, AirTerminal:SingleDuct:VAV:Reheat, AIR TERMINAL SINGLE DUCT VAV REHEAT 1, Design Size Constant Minimum Air Flow Fraction, 0.40712
 Component Sizing Information, AirTerminal:SingleDuct:VAV:Reheat, AIR TERMINAL SINGLE DUCT VAV REHEAT 1, User-Specified Constant Minimum Air Flow Fraction, 0.30000
 Component Sizing Information, AirTerminal:SingleDuct:VAV:Reheat, AIR TERMINAL SINGLE DUCT VAV REHEAT 1, Design Size Minimum Air Flow Rate [m3/s], 1.05282
 Component Sizing Information, AirTerminal:SingleDuct:VAV:Reheat, AIR TERMINAL SINGLE DUCT VAV REHEAT 1, Design Size Maximum Flow per Zone Floor Area during Reheat [m3/s-m2], 5.61503E-004
 Component Sizing Information, AirTerminal:SingleDuct:VAV:Reheat, AIR TERMINAL SINGLE DUCT VAV REHEAT 1, Design Size Maximum Flow Fraction during Reheat [], 0.30000
 Component Sizing Information, AirTerminal:SingleDuct:VAV:Reheat, AIR TERMINAL SINGLE DUCT VAV REHEAT 1, Design Size Maximum Reheat Water Flow Rate [m3/s], 4.16391E-004
 Component Sizing Information, AirTerminal:SingleDuct:VAV:Reheat, AIR TERMINAL SINGLE DUCT VAV REHEAT 1, Design Size Reheat Coil Sizing Air Volume Flow Rate [m3/s], 1.05282
 Component Sizing Information, AirTerminal:SingleDuct:VAV:Reheat, AIR TERMINAL SINGLE DUCT VAV REHEAT 1, Design Size Reheat Coil Sizing Inlet Air Temperature [C], 13.10000
 Component Sizing Information, AirTerminal:SingleDuct:VAV:Reheat, AIR TERMINAL SINGLE DUCT VAV REHEAT 1, Design Size Reheat Coil Sizing Inlet Air Humidity Ratio [kgWater/kgDryAir], 8.00000E-003
 Component Sizing Information, Coil:Heating:Water, COIL HEATING WATER 5, Design Size Rated Capacity [W], 27878.67822
 Component Sizing Information, Coil:Heating:Water, COIL HEATING WATER 5, Design Size Maximum Water Flow Rate [m3/s], 4.16391E-004
 Component Sizing Information, Coil:Heating:Water, COIL HEATING WATER 5, Design Size U-Factor Times Area Value [W/K], 582.34217
Water Heating Coil Capacity Information,Coil:Heating:Water,COIL HEATING WATER 5,26154.59
 Component Sizing Information, ZoneHVAC:Baseboard:Convective:Water, ZONE HVAC BASEBOARD CONVECTIVE WATER 16, Design Size Maximum Water Flow Rate [m3/s], 2.42908E-004
 Component Sizing Information, ZoneHVAC:Baseboard:Convective:Water, ZONE HVAC BASEBOARD CONVECTIVE WATER 16, Design Size U-Factor Times Area Value [W/K], 492.08319
 Component Sizing Information, AirTerminal:SingleDuct:VAV:Reheat, AIR TERMINAL SINGLE DUCT VAV REHEAT 2, Design Size Maximum Air Flow Rate [m3/s], 3.32436
 Component Sizing Information, AirTerminal:SingleDuct:VAV:Reheat, AIR TERMINAL SINGLE DUCT VAV REHEAT 2, Design Size Constant Minimum Air Flow Fraction, 0.42978
 Component Sizing Information, AirTerminal:SingleDuct:VAV:Reheat, AIR TERMINAL SINGLE DUCT VAV REHEAT 2, User-Specified Constant Minimum Air Flow Fraction, 0.30000
 Component Sizing Information, AirTerminal:SingleDuct:VAV:Reheat, AIR TERMINAL SINGLE DUCT VAV REHEAT 2, Design Size Minimum Air Flow Rate [m3/s], 0.99731
 Component Sizing Information, AirTerminal:SingleDuct:VAV:Reheat, AIR TERMINAL SINGLE DUCT VAV REHEAT 2, Design Size Maximum Flow per Zone Floor Area during Reheat [m3/s-m2], 5.31898E-004
 Component Sizing Information, AirTerminal:SingleDuct:VAV:Reheat, AIR TERMINAL SINGLE DUCT VAV REHEAT 2, Design Size Maximum Flow Fraction during Reheat [], 0.30000
 Component Sizing Information, AirTerminal:SingleDuct:VAV:Reheat, AIR TERMINAL SINGLE DUCT VAV REHEAT 2, Design Size Maximum Reheat Water Flow Rate [m3/s], 1.58450E-004
 Component Sizing Information, AirTerminal:SingleDuct:VAV:Reheat, AIR TERMINAL SINGLE DUCT VAV REHEAT 2, Design Size Reheat Coil Sizing Air Volume Flow Rate [m3/s], 0.99731
 Component Sizing Information, AirTerminal:SingleDuct:VAV:Reheat, AIR TERMINAL SINGLE DUCT VAV REHEAT 2, Design Size Reheat Coil Sizing Inlet Air Temperature [C], 13.10000
 Component Sizing Information, AirTerminal:SingleDuct:VAV:Reheat, AIR TERMINAL SINGLE DUCT VAV REHEAT 2, Design Size Reheat Coil Sizing Inlet Air Humidity Ratio [kgWater/kgDryAir], 8.00000E-003
 Component Sizing Information, Coil:Heating:Water, COIL HEATING WATER 6, Design Size Rated Capacity [W], 10608.74389
 Component Sizing Information, Coil:Heating:Water, COIL HEATING WATER 6, Design Size Maximum Water Flow Rate [m3/s], 1.58450E-004
 Component Sizing Information, Coil:Heating:Water, COIL HEATING WATER 6, Design Size U-Factor Times Area Value [W/K], 191.27918
Water Heating Coil Capacity Information,Coil:Heating:Water,COIL HEATING WATER 6,9947.17
 Component Sizing Information, ZoneHVAC:Baseboard:Convective:Water, ZONE HVAC BASEBOARD CONVECTIVE WATER 17, Design Size Maximum Water Flow Rate [m3/s], 0.00000
 Component Sizing Information, ZoneHVAC:Baseboard:Convective:Water, ZONE HVAC BASEBOARD CONVECTIVE WATER 17, Design Size U-Factor Times Area Value [W/K], 0.00000
 Component Sizing Information, AirTerminal:SingleDuct:Uncontrolled, AIR TERMINAL SINGLE DUCT UNCONTROLLED 17, Design Size Maximum Air Flow Rate [m3/s], 7.43691
 Component Sizing Information, ZoneHVAC:Baseboard:Convective:Water, ZONE HVAC BASEBOARD CONVECTIVE WATER 14, Design Size Maximum Water Flow Rate [m3/s], 9.37356E-004
 Component Sizing Information, ZoneHVAC:Baseboard:Convective:Water, ZONE HVAC BASEBOARD CONVECTIVE WATER 14, Design Size U-Factor Times Area Value [W/K], 1555.70818
 Component Sizing Information, AirTerminal:SingleDuct:Uncontrolled, AIR TERMINAL SINGLE DUCT UNCONTROLLED 16, Design Size Maximum Air Flow Rate [m3/s], 4.82600
 Component Sizing Information, ZoneHVAC:Baseboard:Convective:Water, ZONE HVAC BASEBOARD CONVECTIVE WATER 13, Design Size Maximum Water Flow Rate [m3/s], 0.00000
 Component Sizing Information, ZoneHVAC:Baseboard:Convective:Water, ZONE HVAC BASEBOARD CONVECTIVE WATER 13, Design Size U-Factor Times Area Value [W/K], 0.00000
 Component Sizing Information, AirTerminal:SingleDuct:Uncontrolled, AIR TERMINAL SINGLE DUCT UNCONTROLLED 1, Design Size Maximum Air Flow Rate [m3/s], 3.87553
 Component Sizing Information, ZoneHVAC:Baseboard:Convective:Water, ZONE HVAC BASEBOARD CONVECTIVE WATER 1, Design Size Maximum Water Flow Rate [m3/s], 5.49192E-004
 Component Sizing Information, ZoneHVAC:Baseboard:Convective:Water, ZONE HVAC BASEBOARD CONVECTIVE WATER 1, Design Size U-Factor Times Area Value [W/K], 1119.88350
 Component Sizing Information, AirTerminal:SingleDuct:Uncontrolled, AIR TERMINAL SINGLE DUCT UNCONTROLLED 2, Design Size Maximum Air Flow Rate [m3/s], 1.67669
 Component Sizing Information, ZoneHVAC:Baseboard:Convective:Water, ZONE HVAC BASEBOARD CONVECTIVE WATER 2, Design Size Maximum Water Flow Rate [m3/s], 0.00000
 Component Sizing Information, ZoneHVAC:Baseboard:Convective:Water, ZONE HVAC BASEBOARD CONVECTIVE WATER 2, Design Size U-Factor Times Area Value [W/K], 0.00000
 Component Sizing Information, AirTerminal:SingleDuct:Uncontrolled, AIR TERMINAL SINGLE DUCT UNCONTROLLED 3, Design Size Maximum Air Flow Rate [m3/s], 1.46795
 Component Sizing Information, ZoneHVAC:Baseboard:Convective:Water, ZONE HVAC BASEBOARD CONVECTIVE WATER 3, Design Size Maximum Water Flow Rate [m3/s], 0.00000
 Component Sizing Information, ZoneHVAC:Baseboard:Convective:Water, ZONE HVAC BASEBOARD CONVECTIVE WATER 3, Design Size U-Factor Times Area Value [W/K], 0.00000
 Component Sizing Information, AirTerminal:SingleDuct:Uncontrolled, AIR TERMINAL SINGLE DUCT UNCONTROLLED 4, Design Size Maximum Air Flow Rate [m3/s], 1.70018
 Component Sizing Information, ZoneHVAC:Baseboard:Convective:Water, ZONE HVAC BASEBOARD CONVECTIVE WATER 4, Design Size Maximum Water Flow Rate [m3/s], 0.00000
 Component Sizing Information, ZoneHVAC:Baseboard:Convective:Water, ZONE HVAC BASEBOARD CONVECTIVE WATER 4, Design Size U-Factor Times Area Value [W/K], 0.00000
 Component Sizing Information, AirTerminal:SingleDuct:Uncontrolled, AIR TERMINAL SINGLE DUCT UNCONTROLLED 5, Design Size Maximum Air Flow Rate [m3/s], 5.77570
 Component Sizing Information, ZoneHVAC:Baseboard:Convective:Water, ZONE HVAC BASEBOARD CONVECTIVE WATER 5, Design Size Maximum Water Flow Rate [m3/s], 1.03429E-003
 Component Sizing Information, ZoneHVAC:Baseboard:Convective:Water, ZONE HVAC BASEBOARD CONVECTIVE WATER 5, Design Size U-Factor Times Area Value [W/K], 2110.97711
 Component Sizing Information, AirTerminal:SingleDuct:Uncontrolled, AIR TERMINAL SINGLE DUCT UNCONTROLLED 6, Design Size Maximum Air Flow Rate [m3/s], 3.35699
 Component Sizing Information, ZoneHVAC:Baseboard:Convective:Water, ZONE HVAC BASEBOARD CONVECTIVE WATER 6, Design Size Maximum Water Flow Rate [m3/s], 5.71823E-004
 Component Sizing Information, ZoneHVAC:Baseboard:Convective:Water, ZONE HVAC BASEBOARD CONVECTIVE WATER 6, Design Size U-Factor Times Area Value [W/K], 1166.09215
 Component Sizing Information, AirTerminal:SingleDuct:Uncontrolled, AIR TERMINAL SINGLE DUCT UNCONTROLLED 7, Design Size Maximum Air Flow Rate [m3/s], 3.42531
 Component Sizing Information, ZoneHVAC:Baseboard:Convective:Water, ZONE HVAC BASEBOARD CONVECTIVE WATER 7, Design Size Maximum Water Flow Rate [m3/s], 4.94620E-004
 Component Sizing Information, ZoneHVAC:Baseboard:Convective:Water, ZONE HVAC BASEBOARD CONVECTIVE WATER 7, Design Size U-Factor Times Area Value [W/K], 1008.09822
 Component Sizing Information, AirTerminal:SingleDuct:Uncontrolled, AIR TERMINAL SINGLE DUCT UNCONTROLLED 8, Design Size Maximum Air Flow Rate [m3/s], 1.66015
 Component Sizing Information, ZoneHVAC:Baseboard:Convective:Water, ZONE HVAC BASEBOARD CONVECTIVE WATER 8, Design Size Maximum Water Flow Rate [m3/s], 0.00000
 Component Sizing Information, ZoneHVAC:Baseboard:Convective:Water, ZONE HVAC BASEBOARD CONVECTIVE WATER 8, Design Size U-Factor Times Area Value [W/K], 0.00000
 Component Sizing Information, AirTerminal:SingleDuct:Uncontrolled, AIR TERMINAL SINGLE DUCT UNCONTROLLED 9, Design Size Maximum Air Flow Rate [m3/s], 6.23028
 Component Sizing Information, ZoneHVAC:Baseboard:Convective:Water, ZONE HVAC BASEBOARD CONVECTIVE WATER 9, Design Size Maximum Water Flow Rate [m3/s], 9.00403E-004
 Component Sizing Information, ZoneHVAC:Baseboard:Convective:Water, ZONE HVAC BASEBOARD CONVECTIVE WATER 9, Design Size U-Factor Times Area Value [W/K], 1838.50197
 Component Sizing Information, AirLoopHVAC, SYS_2_MAKE-UP AIR UNIT, Sum of Air Terminal Maximum Heating Flow Rates [m3/s], 5.73311
 Component Sizing Information, AirLoopHVAC, SYS_2_MAKE-UP AIR UNIT, Sum of Air Terminal Minimum Heating Flow Rates [m3/s], 5.73311
 Component Sizing Information, AirLoopHVAC, SYS_2_MAKE-UP AIR UNIT, Sum of Air Terminal Maximum Flow Rates [m3/s], 5.73311
 Component Sizing Information, AirLoopHVAC, SYS_2_MAKE-UP AIR UNIT, Adjusted Heating Design Air Flow Rate [m3/s], 5.73311
 Component Sizing Information, AirLoopHVAC, SYS_2_MAKE-UP AIR UNIT, Adjusted Cooling Design Air Flow Rate [m3/s], 5.73311
 Component Sizing Information, AirLoopHVAC, SYS_2_MAKE-UP AIR UNIT, Adjusted Main Design Air Flow Rate [m3/s], 5.73311
 Component Sizing Information, AirLoopHVAC, SYS_2_MAKE-UP AIR UNIT, User Heating Air Flow Ratio [], 1.00000
 Component Sizing Information, AirLoopHVAC, SYS_2_MAKE-UP AIR UNIT, Calculated Heating Air Flow Ratio [], 1.00000
 Component Sizing Information, AirLoopHVAC, SYS_2_MAKE-UP AIR UNIT 1, Sum of Air Terminal Maximum Heating Flow Rates [m3/s], 2.28727
 Component Sizing Information, AirLoopHVAC, SYS_2_MAKE-UP AIR UNIT 1, Sum of Air Terminal Minimum Heating Flow Rates [m3/s], 2.28727
 Component Sizing Information, AirLoopHVAC, SYS_2_MAKE-UP AIR UNIT 1, Sum of Air Terminal Maximum Flow Rates [m3/s], 2.28727
 Component Sizing Information, AirLoopHVAC, SYS_2_MAKE-UP AIR UNIT 1, Adjusted Heating Design Air Flow Rate [m3/s], 2.28727
 Component Sizing Information, AirLoopHVAC, SYS_2_MAKE-UP AIR UNIT 1, Adjusted Cooling Design Air Flow Rate [m3/s], 2.28727
 Component Sizing Information, AirLoopHVAC, SYS_2_MAKE-UP AIR UNIT 1, Adjusted Main Design Air Flow Rate [m3/s], 2.28727
 Component Sizing Information, AirLoopHVAC, SYS_2_MAKE-UP AIR UNIT 1, User Heating Air Flow Ratio [], 1.00000
 Component Sizing Information, AirLoopHVAC, SYS_2_MAKE-UP AIR UNIT 1, Calculated Heating Air Flow Ratio [], 1.00000
 Component Sizing Information, AirLoopHVAC, SYS_2_MAKE-UP AIR UNIT 2, Sum of Air Terminal Maximum Heating Flow Rates [m3/s], 2.40680
 Component Sizing Information, AirLoopHVAC, SYS_2_MAKE-UP AIR UNIT 2, Sum of Air Terminal Minimum Heating Flow Rates [m3/s], 2.40680
 Component Sizing Information, AirLoopHVAC, SYS_2_MAKE-UP AIR UNIT 2, Sum of Air Terminal Maximum Flow Rates [m3/s], 2.40680
 Component Sizing Information, AirLoopHVAC, SYS_2_MAKE-UP AIR UNIT 2, Adjusted Heating Design Air Flow Rate [m3/s], 2.40680
 Component Sizing Information, AirLoopHVAC, SYS_2_MAKE-UP AIR UNIT 2, Adjusted Cooling Design Air Flow Rate [m3/s], 2.40680
 Component Sizing Information, AirLoopHVAC, SYS_2_MAKE-UP AIR UNIT 2, Adjusted Main Design Air Flow Rate [m3/s], 2.40680
 Component Sizing Information, AirLoopHVAC, SYS_2_MAKE-UP AIR UNIT 2, User Heating Air Flow Ratio [], 1.00000
 Component Sizing Information, AirLoopHVAC, SYS_2_MAKE-UP AIR UNIT 2, Calculated Heating Air Flow Ratio [], 1.00000
 Component Sizing Information, AirLoopHVAC, SYS_3_PSZ ALL_ST=WHOLEBUILDING_FL=STORY 2_SCH=A 2, Sum of Air Terminal Maximum Heating Flow Rates [m3/s], 4.24738
 Component Sizing Information, AirLoopHVAC, SYS_3_PSZ ALL_ST=WHOLEBUILDING_FL=STORY 2_SCH=A 2, Sum of Air Terminal Minimum Heating Flow Rates [m3/s], 4.24738
 Component Sizing Information, AirLoopHVAC, SYS_3_PSZ ALL_ST=WHOLEBUILDING_FL=STORY 2_SCH=A 2, Sum of Air Terminal Maximum Flow Rates [m3/s], 4.24738
 Component Sizing Information, AirLoopHVAC, SYS_3_PSZ ALL_ST=WHOLEBUILDING_FL=STORY 2_SCH=A 2, Adjusted Heating Design Air Flow Rate [m3/s], 4.24738
 Component Sizing Information, AirLoopHVAC, SYS_3_PSZ ALL_ST=WHOLEBUILDING_FL=STORY 2_SCH=A 2, Adjusted Cooling Design Air Flow Rate [m3/s], 4.24738
[...]
 Component Sizing Information, Pump:ConstantSpeed, PUMP CONSTANT SPEED 1, Design Flow Rate [m3/s], 3.10104E-003
 Component Sizing Information, Pump:ConstantSpeed, PUMP CONSTANT SPEED 1, Design Power Consumption [W], 833.97475
 Component Sizing Information, Chiller:Electric:EIR, PRIMARY CHILLER WATERCOOLED SCROLL 22TONS 0.8KW/TON, Design Size Reference Chilled Water Flow Rate [m3/s], 3.10104E-003
 Component Sizing Information, Chiller:Electric:EIR, PRIMARY CHILLER WATERCOOLED SCROLL 22TONS 0.8KW/TON, Design Size Reference Capacity [W], 78099.73087
 Component Sizing Information, Chiller:Electric:EIR, PRIMARY CHILLER WATERCOOLED SCROLL 22TONS 0.8KW/TON, User-Specified Reference Capacity [W], 78099.73087
 Component Sizing Information, Chiller:Electric:EIR, PRIMARY CHILLER WATERCOOLED SCROLL 22TONS 0.8KW/TON, Design Size Reference Condenser Fluid Flow Rate [m3/s], 3.80604E-003
! <Chiller Standard Rating Information>, Component Type, Component Name, IPLV in SI Units {W/W}, IPLV in IP Units {Btu/W-h}
 Chiller Standard Rating Information, Chiller:Electric:EIR, PRIMARY CHILLER WATERCOOLED SCROLL 22TONS 0.8KW/TON, 5.61, 19.14
 Component Sizing Information, Chiller:Electric:EIR, SECONDARY CHILLER WATERCOOLED SCROLL 0TONS 0.8KW/TON, Design Size Reference Chilled Water Flow Rate [m3/s], 3.10104E-003
 Component Sizing Information, Chiller:Electric:EIR, SECONDARY CHILLER WATERCOOLED SCROLL 0TONS 0.8KW/TON, Design Size Reference Capacity [W], 78099.73087
 Component Sizing Information, Chiller:Electric:EIR, SECONDARY CHILLER WATERCOOLED SCROLL 0TONS 0.8KW/TON, User-Specified Reference Capacity [W], 1.00000E-003
 Component Sizing Information, Chiller:Electric:EIR, SECONDARY CHILLER WATERCOOLED SCROLL 0TONS 0.8KW/TON, Design Size Reference Condenser Fluid Flow Rate [m3/s], 4.87330E-011
 Chiller Standard Rating Information, Chiller:Electric:EIR, SECONDARY CHILLER WATERCOOLED SCROLL 0TONS 0.8KW/TON, 5.61, 19.14
 Component Sizing Information, PlantLoop, CHILLED WATER LOOP 1, Maximum Loop Flow Rate [m3/s], 1.29838E-003
 Component Sizing Information, PlantLoop, CHILLED WATER LOOP 1, Plant Loop Volume [m3], 0.15581
 Component Sizing Information, Pump:ConstantSpeed, PUMP CONSTANT SPEED 3, Design Flow Rate [m3/s], 1.29838E-003
 Component Sizing Information, Pump:ConstantSpeed, PUMP CONSTANT SPEED 3, Design Power Consumption [W], 349.17891
 Component Sizing Information, Chiller:Electric:EIR, PRIMARY CHILLER WATERCOOLED SCROLL 1 9TONS 0.8KW/TON, Design Size Reference Chilled Water Flow Rate [m3/s], 1.29838E-003
 Component Sizing Information, Chiller:Electric:EIR, PRIMARY CHILLER WATERCOOLED SCROLL 1 9TONS 0.8KW/TON, Design Size Reference Capacity [W], 32699.76567
 Component Sizing Information, Chiller:Electric:EIR, PRIMARY CHILLER WATERCOOLED SCROLL 1 9TONS 0.8KW/TON, User-Specified Reference Capacity [W], 32699.76567
 Component Sizing Information, Chiller:Electric:EIR, PRIMARY CHILLER WATERCOOLED SCROLL 1 9TONS 0.8KW/TON, Design Size Reference Condenser Fluid Flow Rate [m3/s], 1.59356E-003
 Chiller Standard Rating Information, Chiller:Electric:EIR, PRIMARY CHILLER WATERCOOLED SCROLL 1 9TONS 0.8KW/TON, 5.61, 19.14
 Component Sizing Information, Chiller:Electric:EIR, SECONDARY CHILLER WATERCOOLED SCROLL 1 0TONS 0.8KW/TON, Design Size Reference Chilled Water Flow Rate [m3/s], 1.29838E-003
 Component Sizing Information, Chiller:Electric:EIR, SECONDARY CHILLER WATERCOOLED SCROLL 1 0TONS 0.8KW/TON, Design Size Reference Capacity [W], 32699.76567
 Component Sizing Information, Chiller:Electric:EIR, SECONDARY CHILLER WATERCOOLED SCROLL 1 0TONS 0.8KW/TON, User-Specified Reference Capacity [W], 1.00000E-003
 Component Sizing Information, Chiller:Electric:EIR, SECONDARY CHILLER WATERCOOLED SCROLL 1 0TONS 0.8KW/TON, Design Size Reference Condenser Fluid Flow Rate [m3/s], 4.87330E-011
 Chiller Standard Rating Information, Chiller:Electric:EIR, SECONDARY CHILLER WATERCOOLED SCROLL 1 0TONS 0.8KW/TON, 5.61, 19.14
 Component Sizing Information, PlantLoop, CHILLED WATER LOOP 2, Maximum Loop Flow Rate [m3/s], 1.36809E-003
 Component Sizing Information, PlantLoop, CHILLED WATER LOOP 2, Plant Loop Volume [m3], 0.16417
 Component Sizing Information, Pump:ConstantSpeed, PUMP CONSTANT SPEED 5, Design Flow Rate [m3/s], 1.36809E-003
 Component Sizing Information, Pump:ConstantSpeed, PUMP CONSTANT SPEED 5, Design Power Consumption [W], 367.92477
 Component Sizing Information, Chiller:Electric:EIR, PRIMARY CHILLER WATERCOOLED SCROLL 2 10TONS 0.8KW/TON, Design Size Reference Chilled Water Flow Rate [m3/s], 1.36809E-003
 Component Sizing Information, Chiller:Electric:EIR, PRIMARY CHILLER WATERCOOLED SCROLL 2 10TONS 0.8KW/TON, Design Size Reference Capacity [W], 34455.27050
 Component Sizing Information, Chiller:Electric:EIR, PRIMARY CHILLER WATERCOOLED SCROLL 2 10TONS 0.8KW/TON, User-Specified Reference Capacity [W], 34455.27050
 Component Sizing Information, Chiller:Electric:EIR, PRIMARY CHILLER WATERCOOLED SCROLL 2 10TONS 0.8KW/TON, Design Size Reference Condenser Fluid Flow Rate [m3/s], 1.67911E-003
 Chiller Standard Rating Information, Chiller:Electric:EIR, PRIMARY CHILLER WATERCOOLED SCROLL 2 10TONS 0.8KW/TON, 5.61, 19.14
 Component Sizing Information, Chiller:Electric:EIR, SECONDARY CHILLER WATERCOOLED SCROLL 2 0TONS 0.8KW/TON, Design Size Reference Chilled Water Flow Rate [m3/s], 1.36809E-003
 Component Sizing Information, Chiller:Electric:EIR, SECONDARY CHILLER WATERCOOLED SCROLL 2 0TONS 0.8KW/TON, Design Size Reference Capacity [W], 34455.27050
 Component Sizing Information, Chiller:Electric:EIR, SECONDARY CHILLER WATERCOOLED SCROLL 2 0TONS 0.8KW/TON, User-Specified Reference Capacity [W], 1.00000E-003
 Component Sizing Information, Chiller:Electric:EIR, SECONDARY CHILLER WATERCOOLED SCROLL 2 0TONS 0.8KW/TON, Design Size Reference Condenser Fluid Flow Rate [m3/s], 4.87330E-011
 Chiller Standard Rating Information, Chiller:Electric:EIR, SECONDARY CHILLER WATERCOOLED SCROLL 2 0TONS 0.8KW/TON, 5.61, 19.14
 Component Sizing Information, PlantLoop, CHILLED WATER LOOP 3, Maximum Loop Flow Rate [m3/s], 4.54000E-003
 Component Sizing Information, PlantLoop, CHILLED WATER LOOP 3, Plant Loop Volume [m3], 0.54480
 Component Sizing Information, Pump:ConstantSpeed, PUMP CONSTANT SPEED 7, Design Flow Rate [m3/s], 4.54000E-003
 Component Sizing Information, Pump:ConstantSpeed, PUMP CONSTANT SPEED 7, Design Power Consumption [W], 1206.84458
 Component Sizing Information, Chiller:Electric:EIR, PRIMARY CHILLER WATERCOOLED SCROLL 3 33TONS 0.8KW/TON, Design Size Reference Chilled Water Flow Rate [m3/s], 4.54000E-003
 Component Sizing Information, Chiller:Electric:EIR, PRIMARY CHILLER WATERCOOLED SCROLL 3 33TONS 0.8KW/TON, Design Size Reference Capacity [W], 114339.94392
 Component Sizing Information, Chiller:Electric:EIR, PRIMARY CHILLER WATERCOOLED SCROLL 3 33TONS 0.8KW/TON, User-Specified Reference Capacity [W], 117315.56379
 Component Sizing Information, Chiller:Electric:EIR, PRIMARY CHILLER WATERCOOLED SCROLL 3 33TONS 0.8KW/TON, Design Size Reference Condenser Fluid Flow Rate [m3/s], 5.71714E-003
 Chiller Standard Rating Information, Chiller:Electric:EIR, PRIMARY CHILLER WATERCOOLED SCROLL 3 33TONS 0.8KW/TON, 5.61, 19.14
 Component Sizing Information, Chiller:Electric:EIR, SECONDARY CHILLER WATERCOOLED SCROLL 3 0TONS 0.8KW/TON, Design Size Reference Chilled Water Flow Rate [m3/s], 4.54000E-003
 Component Sizing Information, Chiller:Electric:EIR, SECONDARY CHILLER WATERCOOLED SCROLL 3 0TONS 0.8KW/TON, Design Size Reference Capacity [W], 114339.94392
 Component Sizing Information, Chiller:Electric:EIR, SECONDARY CHILLER WATERCOOLED SCROLL 3 0TONS 0.8KW/TON, User-Specified Reference Capacity [W], 1.00000E-003
 Component Sizing Information, Chiller:Electric:EIR, SECONDARY CHILLER WATERCOOLED SCROLL 3 0TONS 0.8KW/TON, Design Size Reference Condenser Fluid Flow Rate [m3/s], 4.87330E-011
 Chiller Standard Rating Information, Chiller:Electric:EIR, SECONDARY CHILLER WATERCOOLED SCROLL 3 0TONS 0.8KW/TON, 5.61, 19.14
 Component Sizing Information, PlantLoop, CONDENSER WATER LOOP, Maximum Loop Flow Rate [m3/s], 3.80604E-003
 Component Sizing Information, PlantLoop, CONDENSER WATER LOOP, Plant Loop Volume [m3], 0.45672
 Component Sizing Information, Pump:ConstantSpeed, PUMP CONSTANT SPEED 2, Design Flow Rate [m3/s], 3.80604E-003
 Component Sizing Information, Pump:ConstantSpeed, PUMP CONSTANT SPEED 2, Design Power Consumption [W], 977.82561
 Component Sizing Information, CoolingTower:SingleSpeed, COOLING TOWER SINGLE SPEED 1, Design Water Flow Rate [m3/s], 3.80604E-003
 Component Sizing Information, CoolingTower:SingleSpeed, COOLING TOWER SINGLE SPEED 1, Fan Power at Design Air Flow Rate [W], 835.10931
 Component Sizing Information, CoolingTower:SingleSpeed, COOLING TOWER SINGLE SPEED 1, Design Air Flow Rate [m3/s], 2.29638
 Component Sizing Information, CoolingTower:SingleSpeed, COOLING TOWER SINGLE SPEED 1, U-Factor Times Area Value at Design Air Flow Rate [W/C], 4100.72756
 Component Sizing Information, CoolingTower:SingleSpeed, COOLING TOWER SINGLE SPEED 1, Free Convection Regime Air Flow Rate [m3/s], 0.22964
 Component Sizing Information, CoolingTower:SingleSpeed, COOLING TOWER SINGLE SPEED 1, Free Convection U-Factor Times Area Value [W/K], 410.07276
 Component Sizing Information, PlantLoop, CONDENSER WATER LOOP 1, Maximum Loop Flow Rate [m3/s], 1.59356E-003
 Component Sizing Information, PlantLoop, CONDENSER WATER LOOP 1, Plant Loop Volume [m3], 0.19123
 Component Sizing Information, Pump:ConstantSpeed, PUMP CONSTANT SPEED 4, Design Flow Rate [m3/s], 1.59356E-003
 Component Sizing Information, Pump:ConstantSpeed, PUMP CONSTANT SPEED 4, Design Power Consumption [W], 428.56178
 Component Sizing Information, CoolingTower:SingleSpeed, COOLING TOWER SINGLE SPEED 2, Design Water Flow Rate [m3/s], 1.59356E-003
 Component Sizing Information, CoolingTower:SingleSpeed, COOLING TOWER SINGLE SPEED 2, Fan Power at Design Air Flow Rate [W], 349.65395
 Component Sizing Information, CoolingTower:SingleSpeed, COOLING TOWER SINGLE SPEED 2, Design Air Flow Rate [m3/s], 0.96148
 Component Sizing Information, CoolingTower:SingleSpeed, COOLING TOWER SINGLE SPEED 2, U-Factor Times Area Value at Design Air Flow Rate [W/C], 1716.94360
 Component Sizing Information, CoolingTower:SingleSpeed, COOLING TOWER SINGLE SPEED 2, Free Convection Regime Air Flow Rate [m3/s], 9.61478E-002
 Component Sizing Information, CoolingTower:SingleSpeed, COOLING TOWER SINGLE SPEED 2, Free Convection U-Factor Times Area Value [W/K], 171.69436
 Component Sizing Information, PlantLoop, CONDENSER WATER LOOP 2, Maximum Loop Flow Rate [m3/s], 1.67911E-003
 Component Sizing Information, PlantLoop, CONDENSER WATER LOOP 2, Plant Loop Volume [m3], 0.20149
 Component Sizing Information, Pump:ConstantSpeed, PUMP CONSTANT SPEED 6, Design Flow Rate [m3/s], 1.67911E-003
 Component Sizing Information, Pump:ConstantSpeed, PUMP CONSTANT SPEED 6, Design Power Consumption [W], 446.34890
 Component Sizing Information, CoolingTower:SingleSpeed, COOLING TOWER SINGLE SPEED 3, Design Water Flow Rate [m3/s], 1.67911E-003
 Component Sizing Information, CoolingTower:SingleSpeed, COOLING TOWER SINGLE SPEED 3, Fan Power at Design Air Flow Rate [W], 368.42531
 Component Sizing Information, CoolingTower:SingleSpeed, COOLING TOWER SINGLE SPEED 3, Design Air Flow Rate [m3/s], 1.01310
 Component Sizing Information, CoolingTower:SingleSpeed, COOLING TOWER SINGLE SPEED 3, U-Factor Times Area Value at Design Air Flow Rate [W/C], 1809.11865
 Component Sizing Information, CoolingTower:SingleSpeed, COOLING TOWER SINGLE SPEED 3, Free Convection Regime Air Flow Rate [m3/s], 0.10131
 Component Sizing Information, CoolingTower:SingleSpeed, COOLING TOWER SINGLE SPEED 3, Free Convection U-Factor Times Area Value [W/K], 180.91187
 Component Sizing Information, PlantLoop, CONDENSER WATER LOOP 3, Maximum Loop Flow Rate [m3/s], 5.71714E-003
 Component Sizing Information, PlantLoop, CONDENSER WATER LOOP 3, Plant Loop Volume [m3], 0.68606
 Component Sizing Information, Pump:ConstantSpeed, PUMP CONSTANT SPEED 8, Design Flow Rate [m3/s], 5.71714E-003
 Component Sizing Information, Pump:ConstantSpeed, PUMP CONSTANT SPEED 8, Design Power Consumption [W], 1468.81636
 Component Sizing Information, CoolingTower:SingleSpeed, COOLING TOWER SINGLE SPEED 4, Design Water Flow Rate [m3/s], 5.71714E-003
 Component Sizing Information, CoolingTower:SingleSpeed, COOLING TOWER SINGLE SPEED 4, Design Air Flow Rate [m3/s], 5.91346
 Component Sizing Information, CoolingTower:SingleSpeed, COOLING TOWER SINGLE SPEED 4, U-Factor Times Area Value at Design Air Flow Rate [W/C], 5002.36417
 Component Sizing Information, CoolingTower:SingleSpeed, COOLING TOWER SINGLE SPEED 4, Free Convection Regime Air Flow Rate [m3/s], 0.59135
 Component Sizing Information, CoolingTower:SingleSpeed, COOLING TOWER SINGLE SPEED 4, Free Convection U-Factor Times Area Value [W/K], 500.23642
 Component Sizing Information, PlantLoop, HOT WATER LOOP, Maximum Loop Flow Rate [m3/s], 1.21713E-002
 Component Sizing Information, PlantLoop, HOT WATER LOOP, Plant Loop Volume [m3], 1.46056
 Component Sizing Information, Pump:VariableSpeed, PUMP VARIABLE SPEED 1, Design Flow Rate [m3/s], 1.21713E-002
 Component Sizing Information, Pump:VariableSpeed, PUMP VARIABLE SPEED 1, Design Power Consumption [W], 3126.99558
 Component Sizing Information, Boiler:HotWater, PRIMARY BOILER 2791KBTU/HR 0.833 COMBUSTION EFF, Design Size Nominal Capacity [W], 818064.82657
 Component Sizing Information, Boiler:HotWater, PRIMARY BOILER 2791KBTU/HR 0.833 COMBUSTION EFF, User-Specified Nominal Capacity [W], 818064.82657
 Component Sizing Information, Boiler:HotWater, PRIMARY BOILER 2791KBTU/HR 0.833 COMBUSTION EFF, Design Size Design Water Flow Rate [m3/s], 1.21713E-002
 Component Sizing Information, Boiler:HotWater, SECONDARY BOILER 0KBTU/HR 0.85 AFUE, Design Size Nominal Capacity [W], 818064.82657
 Component Sizing Information, Boiler:HotWater, SECONDARY BOILER 0KBTU/HR 0.85 AFUE, User-Specified Nominal Capacity [W], 1.00000E-003
 Component Sizing Information, Boiler:HotWater, SECONDARY BOILER 0KBTU/HR 0.85 AFUE, Design Size Design Water Flow Rate [m3/s], 1.21713E-002
 Component Sizing Information, PlantLoop, MAIN SERVICE WATER LOOP, Maximum Loop Flow Rate [m3/s], 2.83809E-004
 Component Sizing Information, PlantLoop, MAIN SERVICE WATER LOOP, Plant Loop Volume [m3], 3.40571E-002
 Component Sizing Information, Pump:ConstantSpeed, SERVICE WATER LOOP PUMP, Design Flow Rate [m3/s], 2.83809E-004
 Component Sizing Information, Pump:ConstantSpeed, SERVICE WATER LOOP PUMP, Design Power Consumption [W], 59.59764
 Component Sizing Information, WaterHeater:Mixed, 331GAL NATURALGAS WATER HEATER - 223KBTU/HR 0.808 THERM EFF, Use Side Design Flow Rate [m3/s], 2.83809E-004
! <Environment>,Environment Name,Environment Type, Start Date, End Date, Start DayOfWeek, Duration {#days}, Source:Start DayOfWeek,  Use Daylight Saving, Use Holidays, Apply Weekend Holiday Rule,  Use Rain Values, Use Snow Values
! <Environment:Special Days>, Special Day Name, Special Day Type, Source, Start Date, Duration {#days}
! <Environment:Daylight Saving>, Daylight Saving Indicator, Source, Start Date, End Date
! <Environment:WarmupDays>, NumberofWarmupDays
Environment,RUN PERIOD 1,WeatherFileRunPeriod,01/01,12/31,Sunday,365,Use RunPeriod Specified Day,No,No,No,Yes,Yes
Environment:Daylight Saving,No,RunPeriod Object
Environment:WarmupDays, 25
! <Tabular Report>,Style,Unit Conversion
Tabular Report,HTML,None
! <Warmup Convergence Information>,Zone Name,Environment Type/Name,Average Warmup Temperature Difference {deltaC},Std Dev Warmup Temperature Difference {deltaC},Max Temperature Pass/Fail Convergence,Min Temperature Pass/Fail Convergence,Average Warmup Load Difference {W},Std Dev Warmup Load Difference {W},Heating Load Pass/Fail Convergence,Cooling Load Pass/Fail Convergence
 Warmup Convergence Information,ALL_ST=WAREHOUSE - MED/BLK - REFRIGERATED_FL=STORY 4_SCH=A,RunPeriod: RUN PERIOD 1,8.1411728865E-005,7.6609793608E-005,Pass,Pass,3.8642068069E-002,5.1764191062E-002,Pass,Pass
 Warmup Convergence Information,ALL_ST=WAREHOUSE - MED/BLK2 - REFRIGERATED_FL=STORY 3_SCH=A,RunPeriod: RUN PERIOD 1,2.9595857568E-005,2.7329975433E-005,Pass,Pass,1.1137863175E-002,1.0632153625E-002,Pass,Pass
 Warmup Convergence Information,ALL_ST=WAREHOUSE - MED/BLK2_FL=STORY 3_SCH=A,RunPeriod: RUN PERIOD 1,2.5272373546E-003,1.9862805780E-003,Pass,Pass,0.0000000000,0.0000000000,Pass,Pass
 Warmup Convergence Information,ALL_ST=WAREHOUSE - MED/BLK_FL=STORY 4_SCH=A,RunPeriod: RUN PERIOD 1,2.8417017111E-004,2.2352155240E-004,Pass,Pass,2.3118593703E-002,2.3205688313E-002,Pass,Pass
 Warmup Convergence Information,ALL_ST=WHOLEBUILDING_FL=STORY 2_SCH=A,RunPeriod: RUN PERIOD 1,2.0165476561E-005,2.0847307696E-005,Pass,Pass,5.9569559360E-002,7.1907749585E-002,Pass,Pass
 Warmup Convergence Information,ALL_ST=WHOLEBUILDING_FL=STORY 2_SCH=A 1,RunPeriod: RUN PERIOD 1,2.2519346552E-002,4.3612055281E-002,Pass,Pass,1.9426801247E-002,2.7213580941E-002,Pass,Pass
 Warmup Convergence Information,ALL_ST=WHOLEBUILDING_FL=STORY 2_SCH=A 2,RunPeriod: RUN PERIOD 1,1.3062993613E-003,1.1794931670E-003,Pass,Pass,0.0000000000,0.0000000000,Pass,Pass
 Warmup Convergence Information,ALL_ST=WHOLEBUILDING_FL=STORY 2_SCH=B,RunPeriod: RUN PERIOD 1,0.1043837710,0.2818008319,Pass,Pass,0.8709227122,2.4340762054,Fail,Fail
 Warmup Convergence Information,ALL_ST=WHOLEBUILDING_FL=STORY 2_SCH=H,RunPeriod: RUN PERIOD 1,0.1030647278,0.1071307937,Fail,Pass,3.6345184801,29.2487226550,Fail,Pass
 Warmup Convergence Information,ALL_ST=WHOLEBUILDING_FL=STORY 4_SCH=D,RunPeriod: RUN PERIOD 1,4.2749977930E-002,0.1029892066,Pass,Pass,4.4623443425E-002,0.1521763734,Pass,Pass
 Warmup Convergence Information,ALL_ST=WORKSHOP SPACE_FL=STORY 1_SCH=A,RunPeriod: RUN PERIOD 1,3.8964707018E-004,2.5093060414E-004,Pass,Pass,0.0000000000,0.0000000000,Pass,Pass
 Warmup Convergence Information,WET_ST=WASHROOM-SCH-A_FL=STORY 3_SCHA,RunPeriod: RUN PERIOD 1,9.5349776300E-003,1.9950497841E-002,Pass,Pass,8.9650297055E-002,0.3155416932,Pass,Pass
 Warmup Convergence Information,WET_ST=WASHROOM-SCH-B_FL=STORY 1_SCHA,RunPeriod: RUN PERIOD 1,4.9914682435E-003,3.1686449451E-003,Pass,Pass,0.0000000000,0.0000000000,Pass,Pass
 Warmup Convergence Information,WET_ST=WASHROOM-SCH-C_FL=STORY 1_SCHA,RunPeriod: RUN PERIOD 1,3.6383376264E-004,2.3999492738E-004,Pass,Pass,0.0000000000,0.0000000000,Pass,Pass
 Warmup Convergence Information,WET_ST=WASHROOM-SCH-D_FL=STORY 1_SCHA,RunPeriod: RUN PERIOD 1,1.1545077579E-003,1.2332584850E-003,Pass,Pass,0.0000000000,0.0000000000,Pass,Pass
 Warmup Convergence Information,WET_ST=WASHROOM-SCH-E_FL=STORY 4_SCHA,RunPeriod: RUN PERIOD 1,2.2994508878E-004,1.9245989905E-004,Pass,Pass,3.1697977738E-002,4.8074226595E-002,Pass,Pass
 Warmup Convergence Information,WET_ST=WASHROOM-SCH-F_FL=STORY 3_SCHA,RunPeriod: RUN PERIOD 1,3.7946821347E-002,4.2653287307E-002,Pass,Pass,1.7791401167E-002,9.8812362295E-002,Pass,Pass
 Warmup Convergence Information,WET_ST=WASHROOM-SCH-G_FL=STORY 3_SCHA,RunPeriod: RUN PERIOD 1,5.8663321806E-003,1.1305816897E-002,Pass,Pass,3.5564256075E-002,0.1139830324,Pass,Pass
 Warmup Convergence Information,WET_ST=WASHROOM-SCH-H_FL=STORY 1_SCHA,RunPeriod: RUN PERIOD 1,6.3589978411E-003,4.8269328635E-003,Pass,Pass,0.0000000000,0.0000000000,Pass,Pass
 Warmup Convergence Information,WET_ST=WASHROOM-SCH-I_FL=STORY 4_SCHA,RunPeriod: RUN PERIOD 1,1.2989756192E-004,1.2199282928E-004,Pass,Pass,4.4461791187E-002,4.8662759892E-002,Pass,Pass
! <Program Control Information:Threads/Parallel Sims>, Threading Supported,Maximum Number of Threads, Env Set Threads (OMP_NUM_THREADS), EP Env Set Threads (EP_OMP_NUM_THREADS), IDF Set Threads, Number of Threads Used (Interior Radiant Exchange), Number Nominal Surfaces, Number Parallel Sims
Program Control:Threads/Parallel Sims, No,1, N/A, N/A, N/A, N/A, N/A, N/A
End of Data
