Program Version,EnergyPlus, Version 8.9.0-eba93e8e1b, YMD=2019.04.04 17:58
! <Version>, Version ID
 Version, 8.9
! <Timesteps per Hour>, #TimeSteps, Minutes per TimeStep {minutes}
 Timesteps per Hour,  6, 10
! <System Convergence Limits>, Minimum System TimeStep {minutes}, Max HVAC Iterations, Minimum Plant Iterations, Maximum Plant Iterations
 System Convergence Limits, 1, 20, 2, 8
! <Simulation Control>, Do Zone Sizing, Do System Sizing, Do Plant Sizing, Do Design Days, Do Weather Simulation, Do HVAC Sizing Simulation
 Simulation Control, Yes, Yes, Yes, Yes, No, No
! <Output Reporting Tolerances>, Tolerance for Time Heating Setpoint Not Met, Tolerance for Zone Cooling Setpoint Not Met Time
 Output Reporting Tolerances, 1.000, 1.000, 
! <Site:GroundTemperature:BuildingSurface>,Jan{C},Feb{C},Mar{C},Apr{C},May{C},Jun{C},Jul{C},Aug{C},Sep{C},Oct{C},Nov{C},Dec{C}
 Site:GroundTemperature:BuildingSurface,  19.53,  19.50,  19.54,  19.60,  20.00,  21.64,  22.23,  22.38,  21.45,  20.12,  19.80,  19.63
! <Site:GroundTemperature:FCfactorMethod>,Jan{C},Feb{C},Mar{C},Apr{C},May{C},Jun{C},Jul{C},Aug{C},Sep{C},Oct{C},Nov{C},Dec{C}
 Site:GroundTemperature:FCfactorMethod, -12.27, -13.66, -11.19,  -7.33,   2.77,  10.57,  15.83,  17.43,  14.70,   8.65,   0.56,  -6.95
! <Site:GroundTemperature:Shallow>,Jan{C},Feb{C},Mar{C},Apr{C},May{C},Jun{C},Jul{C},Aug{C},Sep{C},Oct{C},Nov{C},Dec{C}
 Site:GroundTemperature:Shallow,  13.00,  13.00,  13.00,  13.00,  13.00,  13.00,  13.00,  13.00,  13.00,  13.00,  13.00,  13.00
! <Site:GroundTemperature:Deep>,Jan{C},Feb{C},Mar{C},Apr{C},May{C},Jun{C},Jul{C},Aug{C},Sep{C},Oct{C},Nov{C},Dec{C}
 Site:GroundTemperature:Deep,  16.00,  16.00,  16.00,  16.00,  16.00,  16.00,  16.00,  16.00,  16.00,  16.00,  16.00,  16.00
! <Site:GroundReflectance>,Jan{dimensionless},Feb{dimensionless},Mar{dimensionless},Apr{dimensionless},May{dimensionless},Jun{dimensionless},Jul{dimensionless},Aug{dimensionless},Sep{dimensionless},Oct{dimensionless},Nov{dimensionless},Dec{dimensionless}
 Site:GroundReflectance,  0.20,  0.20,  0.20,  0.20,  0.20,  0.20,  0.20,  0.20,  0.20,  0.20,  0.20,  0.20
! <Site:GroundReflectance:SnowModifier>, Normal, Daylighting {dimensionless}
 Site:GroundReflectance:SnowModifier,   1.000,   1.000
! <Site:GroundReflectance:Snow>,Jan{dimensionless},Feb{dimensionless},Mar{dimensionless},Apr{dimensionless},May{dimensionless},Jun{dimensionless},Jul{dimensionless},Aug{dimensionless},Sep{dimensionless},Oct{dimensionless},Nov{dimensionless},Dec{dimensionless}
 Site:GroundReflectance:Snow,  0.20,  0.20,  0.20,  0.20,  0.20,  0.20,  0.20,  0.20,  0.20,  0.20,  0.20,  0.20
! <Site:GroundReflectance:Snow:Daylighting>,Jan{dimensionless},Feb{dimensionless},Mar{dimensionless},Apr{dimensionless},May{dimensionless},Jun{dimensionless},Jul{dimensionless},Aug{dimensionless},Sep{dimensionless},Oct{dimensionless},Nov{dimensionless},Dec{dimensionless}
 Site:GroundReflectance:Snow:Daylighting,  0.20,  0.20,  0.20,  0.20,  0.20,  0.20,  0.20,  0.20,  0.20,  0.20,  0.20,  0.20
! <Environment:Weather Station>,Wind Sensor Height Above Ground {m},Wind Speed Profile Exponent {},Wind Speed Profile Boundary Layer Thickness {m},Air Temperature Sensor Height Above Ground {m},Wind Speed Modifier Coefficient-Internal,Temperature Modifier Coefficient-Internal
Environment:Weather Station,10.000,0.140,270.000,1.500,1.586,9.750E-003
! <Site:Location>, Location Name, Latitude {N+/S- Deg}, Longitude {E+/W- Deg},  Time Zone Number {GMT+/-}, Elevation {m},  Standard Pressure at Elevation {Pa}, Standard RhoAir at Elevation
Site:Location,Fort McMurray AP AB CAN CWEC2016 WMO#=716890,56.65,-111.22,-7.00,369.10,96969,1.1525
! <Building Information>, Building Name,North Axis {deg},Terrain,  Loads Convergence Tolerance Value,Temperature Convergence Tolerance Value,  Solar Distribution,Maximum Number of Warmup Days,Minimum Number of Warmup Days
 Building Information,Building 1,0.000,Suburbs,4.00000E-002,0.40000,FullExterior,25,6
! <Inside Convection Algorithm>, Algorithm {Simple | TARP | CeilingDiffuser | AdaptiveConvectionAlgorithm}
Inside Convection Algorithm,TARP
! <Outside Convection Algorithm>, Algorithm {SimpleCombined | TARP | MoWitt | DOE-2 | AdaptiveConvectionAlgorithm}
Outside Convection Algorithm,TARP
! <Sky Radiance Distribution>, Value {Anisotropic}
Sky Radiance Distribution,Anisotropic
! <Zone Air Solution Algorithm>, Value {ThirdOrderBackwardDifference | AnalyticalSolution | EulerMethod}
 Zone Air Solution Algorithm, ThirdOrderBackwardDifference
! <Zone Air Carbon Dioxide Balance Simulation>, Simulation {Yes/No}, Carbon Dioxide Concentration
 Zone Air Carbon Dioxide Balance Simulation, No,N/A
! <Zone Air Generic Contaminant Balance Simulation>, Simulation {Yes/No}, Generic Contaminant Concentration
 Zone Air Generic Contaminant Balance Simulation, No,N/A
! <Zone Air Mass Flow Balance Simulation>, Enforce Mass Balance, Adjust Zone Mixing, Adjust Zone Infiltration {AddInfiltration | AdjustInfiltration | None}, Infiltration Zones {MixingSourceZonesOnly | AllZones}
 Zone Air Mass Flow Balance Simulation, No,N/A,N/A,N/A
! <HVACSystemRootFindingAlgorithm>, Value {RegulaFalsi | Bisection | BisectionThenRegulaFalsi | RegulaFalsiThenBisection}
 HVACSystemRootFindingAlgorithm, RegulaFalsi
! <Environment:Site Atmospheric Variation>,Wind Speed Profile Exponent {},Wind Speed Profile Boundary Layer Thickness {m},Air Temperature Gradient Coefficient {K/m}
Environment:Site Atmospheric Variation,0.220,370.000,6.500000E-003
! <Surface Geometry>,Starting Corner,Vertex Input Direction,Coordinate System,Daylight Reference Point Coordinate System,Rectangular (Simple) Surface Coordinate System
 Surface Geometry,UpperLeftCorner,Counterclockwise,RelativeCoordinateSystem,RelativeCoordinateSystem,RelativeToZoneOrigin
! <Surface Heat Transfer Algorithm>, Value {CTF - ConductionTransferFunction | EMPD - MoisturePenetrationDepthConductionTransferFunction | CondFD - ConductionFiniteDifference | HAMT - CombinedHeatAndMoistureFiniteElement} - Description,Inside Surface Max Temperature Limit{C}, Surface Convection Coefficient Lower Limit {W/m2-K}, Surface Convection Coefficient Upper Limit {W/m2-K}
Surface Heat Transfer Algorithm, CTF - ConductionTransferFunction,200,0.10,1000.0
! <Shading Summary>, Number of Fixed Detached Shades, Number of Building Detached Shades, Number of Attached Shades
 Shading Summary,0,0,0
! <Zone Summary>, Number of Zones, Number of Zone Surfaces, Number of SubSurfaces
 Zone Summary,5,30,0
! <Zone Information>,Zone Name,North Axis {deg},Origin X-Coordinate {m},Origin Y-Coordinate {m},Origin Z-Coordinate {m},Centroid X-Coordinate {m},Centroid Y-Coordinate {m},Centroid Z-Coordinate {m},Type,Zone Multiplier,Zone List Multiplier,Minimum X {m},Maximum X {m},Minimum Y {m},Maximum Y {m},Minimum Z {m},Maximum Z {m},Ceiling Height {m},Volume {m3},Zone Inside Convection Algorithm {Simple-Detailed-CeilingDiffuser-TrombeWall},Zone Outside Convection Algorithm {Simple-Detailed-Tarp-MoWitt-DOE-2-BLAST}, Floor Area {m2},Exterior Gross Wall Area {m2},Exterior Net Wall Area {m2},Exterior Window Area {m2}, Number of Surfaces, Number of SubSurfaces, Number of Shading SubSurfaces,  Part of Total Building Area
 Zone Information, ALL_ST=DRESS./FITT. - PERFORMANCE ARTS_FL=STORY 1_SCH=C,0.0,0.00,0.00,0.00,50.00,10.85,1.90,1,1,1,0.00,100.00,0.00,25.00,0.00,3.80,3.80,7125.00,TARP,TARP,1875.00,0.00,0.00,0.00,6,0,0,Yes
 Zone Information, ALL_ST=FIRE STATION - ENGINE ROOM_FL=STORY 1_SCH=H,0.0,25.00,75.00,0.00,50.00,89.15,1.90,1,1,1,0.00,100.00,75.00,100.00,0.00,3.80,3.80,7125.00,TARP,TARP,1875.00,0.00,0.00,0.00,6,0,0,Yes
 Zone Information, DU_BT=SPACE FUNCTION_ST=DORMITORY - LIVING QUARTERS_FL=STORY 1_SCHG,0.0,25.00,25.00,0.00,50.00,50.00,1.90,1,1,1,25.00,75.00,25.00,75.00,0.00,3.80,3.80,9500.00,TARP,TARP,2500.00,0.00,0.00,0.00,6,0,0,Yes
 Zone Information, DU_BT=SPACE FUNCTION_ST=DWELLING UNIT(S)_FL=STORY 1_SCHG,0.0,75.00,25.00,0.00,89.15,50.00,1.90,1,1,1,75.00,100.00,0.00,100.00,0.00,3.80,3.80,7125.00,TARP,TARP,1875.00,0.00,0.00,0.00,6,0,0,Yes
 Zone Information, DU_BT=SPACE FUNCTION_ST=FIRE STATION - QUARTERS_FL=STORY 1_SCHG,0.0,0.00,0.00,0.00,10.85,50.00,1.90,1,1,1,0.00,25.00,0.00,100.00,0.00,3.80,3.80,7125.00,TARP,TARP,1875.00,0.00,0.00,0.00,6,0,0,Yes
! <Zone Internal Gains Nominal>,Zone Name, Floor Area {m2},# Occupants,Area per Occupant {m2/person},Occupant per Area {person/m2},Interior Lighting {W/m2},Electric Load {W/m2},Gas Load {W/m2},Other Load {W/m2},Hot Water Eq {W/m2},Steam Equipment {W/m2},Sum Loads per Area {W/m2},Outdoor Controlled Baseboard Heat
 Zone Internal Gains Nominal, ALL_ST=DRESS./FITT. - PERFORMANCE ARTS_FL=STORY 1_SCH=C,1875.00,62.6,29.969,3.337E-002,3.870,2.500,0.000,0.000,0.000,0.000,6.370,No
 Zone Internal Gains Nominal, ALL_ST=FIRE STATION - ENGINE ROOM_FL=STORY 1_SCH=H,1875.00,75.1,24.974,4.004E-002,6.000,2.500,0.000,0.000,0.000,0.000,8.500,No
 Zone Internal Gains Nominal, DU_BT=SPACE FUNCTION_ST=DORMITORY - LIVING QUARTERS_FL=STORY 1_SCHG,2500.00,100.1,24.974,4.004E-002,4.100,2.500,0.000,0.000,0.000,0.000,6.600,No
 Zone Internal Gains Nominal, DU_BT=SPACE FUNCTION_ST=DWELLING UNIT(S)_FL=STORY 1_SCHG,1875.00,31.3,59.937,1.668E-002,5.000,5.000,0.000,0.000,0.000,0.000,10.000,No
 Zone Internal Gains Nominal, DU_BT=SPACE FUNCTION_ST=FIRE STATION - QUARTERS_FL=STORY 1_SCHG,1875.00,75.1,24.974,4.004E-002,3.400,2.500,0.000,0.000,0.000,0.000,5.900,No
! <People Internal Gains Nominal>,Name,Schedule Name,Zone Name,Zone Floor Area {m2},# Zone Occupants,Number of People {},People/Floor Area {person/m2},Floor Area per person {m2/person},Fraction Radiant,Fraction Convected,Sensible Fraction Calculation,Activity level,ASHRAE 55 Warnings,Carbon Dioxide Generation Rate,Nominal Minimum Number of People,Nominal Maximum Number of People
 People Internal Gains Nominal, DU_BT=SPACE FUNCTION_ST=DORMITORY - LIVING QUARTERS_FL=STORY 1_SCHG SPACE FUNCTION DORMITORY - LIVING QUARTERS PEOPLE,NECB-G-OCCUPANCY,DU_BT=SPACE FUNCTION_ST=DORMITORY - LIVING QUARTERS_FL=STORY 1_SCHG,2500.00,100.1,100.1,4.004E-002,24.974,0.300,0.700,AutoCalculate,NECB-ACTIVITY,No,3.8200E-008,30,90
 People Internal Gains Nominal, ALL_ST=DRESS./FITT. - PERFORMANCE ARTS_FL=STORY 1_SCH=C SPACE FUNCTION DRESS./FITT. - PERFORMANCE ARTS PEOPLE,NECB-C-OCCUPANCY,ALL_ST=DRESS./FITT. - PERFORMANCE ARTS_FL=STORY 1_SCH=C,1875.00,62.6,62.6,3.337E-002,29.969,0.300,0.700,AutoCalculate,NECB-ACTIVITY,No,3.8200E-008,0,56
 People Internal Gains Nominal, DU_BT=SPACE FUNCTION_ST=DWELLING UNIT(S)_FL=STORY 1_SCHG SPACE FUNCTION DWELLING UNIT(S) PEOPLE,NECB-G-OCCUPANCY,DU_BT=SPACE FUNCTION_ST=DWELLING UNIT(S)_FL=STORY 1_SCHG,1875.00,31.3,31.3,1.668E-002,59.937,0.300,0.700,AutoCalculate,NECB-ACTIVITY,No,3.8200E-008,9,28
 People Internal Gains Nominal, ALL_ST=FIRE STATION - ENGINE ROOM_FL=STORY 1_SCH=H SPACE FUNCTION FIRE STATION - ENGINE ROOM PEOPLE,NECB-H-OCCUPANCY,ALL_ST=FIRE STATION - ENGINE ROOM_FL=STORY 1_SCH=H,1875.00,75.1,75.1,4.004E-002,24.974,0.300,0.700,AutoCalculate,NECB-ACTIVITY,No,3.8200E-008,68,68
 People Internal Gains Nominal, DU_BT=SPACE FUNCTION_ST=FIRE STATION - QUARTERS_FL=STORY 1_SCHG SPACE FUNCTION FIRE STATION - QUARTERS PEOPLE,NECB-G-OCCUPANCY,DU_BT=SPACE FUNCTION_ST=FIRE STATION - QUARTERS_FL=STORY 1_SCHG,1875.00,75.1,75.1,4.004E-002,24.974,0.300,0.700,AutoCalculate,NECB-ACTIVITY,No,3.8200E-008,23,68
! <Lights Internal Gains Nominal>,Name,Schedule Name,Zone Name,Zone Floor Area {m2},# Zone Occupants,Lighting Level {W},Lights/Floor Area {W/m2},Lights per person {W/person},Fraction Return Air,Fraction Radiant,Fraction Short Wave,Fraction Convected,Fraction Replaceable,End-Use Category,Nominal Minimum Lighting Level {W},Nominal Maximum Lighting Level {W}
 Lights Internal Gains Nominal, DU_BT=SPACE FUNCTION_ST=DORMITORY - LIVING QUARTERS_FL=STORY 1_SCHG SPACE FUNCTION DORMITORY - LIVING QUARTERS LIGHTS,NECB-G-LIGHTING,DU_BT=SPACE FUNCTION_ST=DORMITORY - LIVING QUARTERS_FL=STORY 1_SCHG,2500.00,100.1,10249.915,4.100,102.392,0.000,0.500,0.200,0.300,1.000,General,0.000,9224.923
 Lights Internal Gains Nominal, ALL_ST=DRESS./FITT. - PERFORMANCE ARTS_FL=STORY 1_SCH=C SPACE FUNCTION DRESS./FITT. - PERFORMANCE ARTS LIGHTS,NECB-C-LIGHTING,ALL_ST=DRESS./FITT. - PERFORMANCE ARTS_FL=STORY 1_SCH=C,1875.00,62.6,7256.190,3.870,115.978,0.000,0.500,0.200,0.300,1.000,General,362.809,6530.571
 Lights Internal Gains Nominal, DU_BT=SPACE FUNCTION_ST=DWELLING UNIT(S)_FL=STORY 1_SCHG SPACE FUNCTION DWELLING UNIT(S) LIGHTS,NECB-G-LIGHTING,DU_BT=SPACE FUNCTION_ST=DWELLING UNIT(S)_FL=STORY 1_SCHG,1875.00,31.3,9374.922,5.000,299.685,0.000,0.500,0.200,0.300,1.000,General,0.000,8437.430
 Lights Internal Gains Nominal, ALL_ST=FIRE STATION - ENGINE ROOM_FL=STORY 1_SCH=H SPACE FUNCTION FIRE STATION - ENGINE ROOM LIGHTS,NECB-H-LIGHTING,ALL_ST=FIRE STATION - ENGINE ROOM_FL=STORY 1_SCH=H,1875.00,75.1,11249.906,6.000,149.842,0.000,0.500,0.200,0.300,1.000,General,10124.916,10124.916
 Lights Internal Gains Nominal, DU_BT=SPACE FUNCTION_ST=FIRE STATION - QUARTERS_FL=STORY 1_SCHG SPACE FUNCTION FIRE STATION - QUARTERS LIGHTS,NECB-G-LIGHTING,DU_BT=SPACE FUNCTION_ST=FIRE STATION - QUARTERS_FL=STORY 1_SCHG,1875.00,75.1,6374.947,3.400,84.911,0.000,0.500,0.200,0.300,1.000,General,0.000,5737.452
! <ElectricEquipment Internal Gains Nominal>,Name,Schedule Name,Zone Name,Zone Floor Area {m2},# Zone Occupants,Equipment Level {W},Equipment/Floor Area {W/m2},Equipment per person {W/person},Fraction Latent,Fraction Radiant,Fraction Lost,Fraction Convected,End-Use SubCategory,Nominal Minimum Equipment Level {W},Nominal Maximum Equipment Level {W}
 ElectricEquipment Internal Gains Nominal, DU_BT=SPACE FUNCTION_ST=DORMITORY - LIVING QUARTERS_FL=STORY 1_SCHG SPACE FUNCTION DORMITORY - LIVING QUARTERS ELEC EQUIP,NECB-G-ELECTRIC-EQUIPMENT,DU_BT=SPACE FUNCTION_ST=DORMITORY - LIVING QUARTERS_FL=STORY 1_SCHG,2500.00,100.1,6249.948,2.500,62.434,0.000,0.500,0.000,0.500,General,1249.990,5624.953
 ElectricEquipment Internal Gains Nominal, ALL_ST=DRESS./FITT. - PERFORMANCE ARTS_FL=STORY 1_SCH=C SPACE FUNCTION DRESS./FITT. - PERFORMANCE ARTS ELEC EQUIP,NECB-C-ELECTRIC-EQUIPMENT,ALL_ST=DRESS./FITT. - PERFORMANCE ARTS_FL=STORY 1_SCH=C,1875.00,62.6,4687.461,2.500,74.921,0.000,0.500,0.000,0.500,General,234.373,4218.715
 ElectricEquipment Internal Gains Nominal, DU_BT=SPACE FUNCTION_ST=DWELLING UNIT(S)_FL=STORY 1_SCHG SPACE FUNCTION DWELLING UNIT(S) ELEC EQUIP,NECB-G-ELECTRIC-EQUIPMENT,DU_BT=SPACE FUNCTION_ST=DWELLING UNIT(S)_FL=STORY 1_SCHG,1875.00,31.3,9374.922,5.000,299.685,0.000,0.500,0.000,0.500,General,1874.984,8437.430
 ElectricEquipment Internal Gains Nominal, ALL_ST=FIRE STATION - ENGINE ROOM_FL=STORY 1_SCH=H SPACE FUNCTION FIRE STATION - ENGINE ROOM ELEC EQUIP,NECB-H-ELECTRIC-EQUIPMENT,ALL_ST=FIRE STATION - ENGINE ROOM_FL=STORY 1_SCH=H,1875.00,75.1,4687.461,2.500,62.434,0.000,0.500,0.000,0.500,General,4218.715,4218.715
 ElectricEquipment Internal Gains Nominal, DU_BT=SPACE FUNCTION_ST=FIRE STATION - QUARTERS_FL=STORY 1_SCHG SPACE FUNCTION FIRE STATION - QUARTERS ELEC EQUIP,NECB-G-ELECTRIC-EQUIPMENT,DU_BT=SPACE FUNCTION_ST=FIRE STATION - QUARTERS_FL=STORY 1_SCHG,1875.00,75.1,4687.461,2.500,62.434,0.000,0.500,0.000,0.500,General,937.492,4218.715
! <Shadowing/Sun Position Calculations Annual Simulations>, Calculation Method, Value {days}, Allowable Number Figures in Shadow Overlap {}, Polygon Clipping Algorithm, Sky Diffuse Modeling Algorithm, External Shading Calculation Method, Output External Shading Calculation Results, Disable Self-Shading Within Shading Zone Groups, Disable Self-Shading From Shading Zone Groups to Other Zones
Shadowing/Sun Position Calculations Annual Simulations,AverageOverDaysInFrequency,20,15000,SutherlandHodgman,SimpleSkyDiffuseModeling,InternalCalculation,No,No,No
! <Water Heater Information>,Type,Name,Volume {m3},Maximum Capacity {W},Standard Rated Recovery Efficiency, Standard Rated Energy Factor
! <RoomAir Model>, Zone Name, Mixing/Mundt/UCSDDV/UCSDCV/UCSDUFI/UCSDUFE/User Defined
RoomAir Model,ALL_ST=DRESS./FITT. - PERFORMANCE ARTS_FL=STORY 1_SCH=C,Mixing/Well-Stirred
RoomAir Model,ALL_ST=FIRE STATION - ENGINE ROOM_FL=STORY 1_SCH=H,Mixing/Well-Stirred
RoomAir Model,DU_BT=SPACE FUNCTION_ST=DORMITORY - LIVING QUARTERS_FL=STORY 1_SCHG,Mixing/Well-Stirred
RoomAir Model,DU_BT=SPACE FUNCTION_ST=DWELLING UNIT(S)_FL=STORY 1_SCHG,Mixing/Well-Stirred
RoomAir Model,DU_BT=SPACE FUNCTION_ST=FIRE STATION - QUARTERS_FL=STORY 1_SCHG,Mixing/Well-Stirred
! <AirflowNetwork Model:Control>, No Multizone or Distribution/Multizone with Distribution/Multizone without Distribution/Multizone with Distribution only during Fan Operation
AirflowNetwork Model:Control,NoMultizoneOrDistribution
! <Zone Volume Capacitance Multiplier>, Sensible Heat Capacity Multiplier, Moisture Capacity Multiplier, Carbon Dioxide Capacity Multiplier, Generic Contaminant Capacity Multiplier
Zone Volume Capacitance Multiplier,   1.000 ,   1.000,   1.000,   1.000
! <Load Timesteps in Zone Design Calculation Averaging Window>, Value
 Load Timesteps in Zone Design Calculation Averaging Window,    6
! <Heating Sizing Factor Information>, Sizing Factor ID, Value
 Heating Sizing Factor Information, Global,   1.3000    
 Heating Sizing Factor Information, Zone ALL_ST=DRESS./FITT. - PERFORMANCE ARTS_FL=STORY 1_SCH=C,   1.3000    
 Heating Sizing Factor Information, Zone ALL_ST=FIRE STATION - ENGINE ROOM_FL=STORY 1_SCH=H,   1.3000    
 Heating Sizing Factor Information, Zone DU_BT=SPACE FUNCTION_ST=DORMITORY - LIVING QUARTERS_FL=STORY 1_SCHG,   1.3000    
 Heating Sizing Factor Information, Zone DU_BT=SPACE FUNCTION_ST=DWELLING UNIT(S)_FL=STORY 1_SCHG,   1.3000    
 Heating Sizing Factor Information, Zone DU_BT=SPACE FUNCTION_ST=FIRE STATION - QUARTERS_FL=STORY 1_SCHG,   1.3000    
! <Cooling Sizing Factor Information>, Sizing Factor ID, Value
 Cooling Sizing Factor Information, Global,   1.1000    
 Cooling Sizing Factor Information, Zone ALL_ST=DRESS./FITT. - PERFORMANCE ARTS_FL=STORY 1_SCH=C,   1.1000    
 Cooling Sizing Factor Information, Zone ALL_ST=FIRE STATION - ENGINE ROOM_FL=STORY 1_SCH=H,   1.1000    
 Cooling Sizing Factor Information, Zone DU_BT=SPACE FUNCTION_ST=DORMITORY - LIVING QUARTERS_FL=STORY 1_SCHG,   1.1000    
 Cooling Sizing Factor Information, Zone DU_BT=SPACE FUNCTION_ST=DWELLING UNIT(S)_FL=STORY 1_SCHG,   1.1000    
 Cooling Sizing Factor Information, Zone DU_BT=SPACE FUNCTION_ST=FIRE STATION - QUARTERS_FL=STORY 1_SCHG,   1.1000    
! <Zone Sizing Information>, Zone Name, Load Type, Calc Des Load {W}, User Des Load {W}, Calc Des Air Flow Rate {m3/s}, User Des Air Flow Rate {m3/s}, Design Day Name, Date/Time of Peak, Temperature at Peak {C}, Humidity Ratio at Peak {kgWater/kgDryAir}, Floor Area {m2}, # Occupants, Calc Outdoor Air Flow Rate {m3/s}, Calc DOAS Heat Addition Rate {W}
 Zone Sizing Information, ALL_ST=DRESS./FITT. - PERFORMANCE ARTS_FL=STORY 1_SCH=C, Cooling, 8717.90584, 9589.69642, 0.67378, 2.21933, FORT MCMURRAY AP ANN CLG .4% CONDNS DB=>MWB, 7/21 17:00:00, 27.16400, 8.76969E-003, 1875.00000, 62.56523, 2.21933, 0.00000
 Zone Sizing Information, ALL_ST=DRESS./FITT. - PERFORMANCE ARTS_FL=STORY 1_SCH=C, Heating, 4159.93573, 5407.91645, 0.16090, 2.21933, FORT MCMURRAY AP ANN HTG 99.6% CONDNS DB, 1/21 08:10:00, -36.20000, 1.25811E-004, 1875.00000, 62.56523, 2.21933, 0.00000
 Zone Sizing Information, ALL_ST=FIRE STATION - ENGINE ROOM_FL=STORY 1_SCH=H, Cooling, 13284.64046, 14613.10450, 1.02677, 2.38125, FORT MCMURRAY AP ANN CLG .4% CONDNS DB=>MWB, 7/21 21:40:00, 20.84000, 8.76969E-003, 1875.00000, 75.07828, 2.38125, 0.00000
 Zone Sizing Information, ALL_ST=FIRE STATION - ENGINE ROOM_FL=STORY 1_SCH=H, Heating, 0.00000, 0.00000, 0.00000, 2.38125, FORT MCMURRAY AP ANN HTG 99.6% CONDNS DB, , -36.20000, 1.25811E-004, 1875.00000, 75.07828, 2.38125, 0.00000
 Zone Sizing Information, DU_BT=SPACE FUNCTION_ST=DORMITORY - LIVING QUARTERS_FL=STORY 1_SCHG, Cooling, 13775.91769, 15153.50946, 1.06485, 1.39700, FORT MCMURRAY AP ANN CLG .4% CONDNS DB=>MWB, 7/21 20:10:00, 22.51400, 8.76969E-003, 2500.00000, 100.10437, 1.39700, 0.00000
 Zone Sizing Information, DU_BT=SPACE FUNCTION_ST=DORMITORY - LIVING QUARTERS_FL=STORY 1_SCHG, Heating, 0.00000, 0.00000, 0.00000, 1.39700, FORT MCMURRAY AP ANN HTG 99.6% CONDNS DB, , -36.20000, 1.25811E-004, 2500.00000, 100.10437, 1.39700, 0.00000
 Zone Sizing Information, DU_BT=SPACE FUNCTION_ST=DWELLING UNIT(S)_FL=STORY 1_SCHG, Cooling, 12368.46643, 13605.31307, 0.95595, 1.05155, FORT MCMURRAY AP ANN CLG .4% CONDNS DB=>MWB, 7/21 20:10:00, 22.51400, 8.76969E-003, 1875.00000, 31.28261, 0.64770, 0.00000
 Zone Sizing Information, DU_BT=SPACE FUNCTION_ST=DWELLING UNIT(S)_FL=STORY 1_SCHG, Heating, 0.00000, 0.00000, 0.00000, 0.64770, FORT MCMURRAY AP ANN HTG 99.6% CONDNS DB, , -36.20000, 1.25811E-004, 1875.00000, 31.28261, 0.64770, 0.00000
 Zone Sizing Information, DU_BT=SPACE FUNCTION_ST=FIRE STATION - QUARTERS_FL=STORY 1_SCHG, Cooling, 9470.11595, 10417.12755, 0.73202, 1.52400, FORT MCMURRAY AP ANN CLG .4% CONDNS DB=>MWB, 7/21 20:10:00, 22.51400, 8.76969E-003, 1875.00000, 75.07828, 1.52400, 0.00000
 Zone Sizing Information, DU_BT=SPACE FUNCTION_ST=FIRE STATION - QUARTERS_FL=STORY 1_SCHG, Heating, 0.00000, 0.00000, 0.00000, 1.52400, FORT MCMURRAY AP ANN HTG 99.6% CONDNS DB, , -36.20000, 1.25811E-004, 1875.00000, 75.07828, 1.52400, 0.00000
! <System Sizing Information>, System Name, Load Type, Peak Load Kind, User Design Capacity, Calc Des Air Flow Rate [m3/s], User Des Air Flow Rate [m3/s], Design Day Name, Date/Time of Peak
 System Sizing Information, SYS_1_MAKE-UP AIR UNIT, Cooling, Sensible, 7136.66, 1.05155, 0.64770, FORT MCMURRAY AP ANN CLG .4% CONDNS DB=>MWB, 7/21 05:00:00
 System Sizing Information, SYS_1_MAKE-UP AIR UNIT, Heating, Sensible, 59409.68, 0.64770, 0.64770, FORT MCMURRAY AP ANN HTG 99.6% CONDNS DB, 1/21 00:10:00
 System Sizing Information, SYS_1_MAKE-UP AIR UNIT 1, Cooling, Sensible, 16792.15, 1.52400, 1.52400, FORT MCMURRAY AP ANN CLG .4% CONDNS DB=>MWB, 7/21 05:00:00
 System Sizing Information, SYS_1_MAKE-UP AIR UNIT 1, Heating, Sensible, 139787.48, 1.52400, 1.52400, FORT MCMURRAY AP ANN HTG 99.6% CONDNS DB, 1/21 00:10:00
 System Sizing Information, SYS_3_PSZ ALL_ST=DRESS./FITT. - PERFORMANCE ARTS_FL=STORY 1_SCH=C, Cooling, Sensible, 36405.33, 2.21933, 2.21933, FORT MCMURRAY AP ANN CLG .4% CONDNS DB=>MWB, 7/21 05:00:00
 System Sizing Information, SYS_3_PSZ ALL_ST=DRESS./FITT. - PERFORMANCE ARTS_FL=STORY 1_SCH=C, Heating, Sensible, 203565.51, 2.21933, 2.21933, FORT MCMURRAY AP ANN HTG 99.6% CONDNS DB, 1/21 00:10:00
 System Sizing Information, SYS_3_PSZ DU_BT=SPACE FUNCTION_ST=DORMITORY - LIVING QUARTERS_FL=STORY 1_SCHG, Cooling, Sensible, 15392.80, 1.39700, 1.39700, FORT MCMURRAY AP ANN CLG .4% CONDNS DB=>MWB, 7/21 05:00:00
 System Sizing Information, SYS_3_PSZ DU_BT=SPACE FUNCTION_ST=DORMITORY - LIVING QUARTERS_FL=STORY 1_SCHG, Heating, Sensible, 128138.52, 1.39700, 1.39700, FORT MCMURRAY AP ANN HTG 99.6% CONDNS DB, 1/21 00:10:00
 System Sizing Information, SYS_4_PSZ_ALL_ST=FIRE STATION - ENGINE ROOM_FL=STORY 1_SCH=H, Cooling, Sensible, 21621.17, 2.38125, 2.38125, FORT MCMURRAY AP ANN CLG .4% CONDNS DB=>MWB, 7/21 05:00:00
 System Sizing Information, SYS_4_PSZ_ALL_ST=FIRE STATION - ENGINE ROOM_FL=STORY 1_SCH=H, Heating, Sensible, 218417.93, 2.38125, 2.38125, FORT MCMURRAY AP ANN HTG 99.6% CONDNS DB, 1/21 00:10:00
! <Component Sizing Information>, Component Type, Component Name, Input Field Description, Value
 Component Sizing Information, AirTerminal:SingleDuct:Uncontrolled, AIR TERMINAL SINGLE DUCT UNCONTROLLED 4, Design Size Maximum Air Flow Rate [m3/s], 2.21933
 Component Sizing Information, ZoneHVAC:Baseboard:Convective:Water, ZONE HVAC BASEBOARD CONVECTIVE WATER 4, Design Size Maximum Water Flow Rate [m3/s], 8.07716E-005
 Component Sizing Information, ZoneHVAC:Baseboard:Convective:Water, ZONE HVAC BASEBOARD CONVECTIVE WATER 4, Design Size U-Factor Times Area Value [W/K], 109.44563
 Component Sizing Information, AirTerminal:SingleDuct:Uncontrolled, AIR TERMINAL SINGLE DUCT UNCONTROLLED 5, Design Size Maximum Air Flow Rate [m3/s], 2.38125
 Component Sizing Information, ZoneHVAC:Baseboard:Convective:Water, ZONE HVAC BASEBOARD CONVECTIVE WATER 5, Design Size Maximum Water Flow Rate [m3/s], 0.00000
 Component Sizing Information, ZoneHVAC:Baseboard:Convective:Water, ZONE HVAC BASEBOARD CONVECTIVE WATER 5, Design Size U-Factor Times Area Value [W/K], 0.00000
 Component Sizing Information, AirTerminal:SingleDuct:Uncontrolled, AIR TERMINAL SINGLE DUCT UNCONTROLLED 1, Design Size Maximum Air Flow Rate [m3/s], 1.39700
 Component Sizing Information, ZoneHVAC:Baseboard:Convective:Water, ZONE HVAC BASEBOARD CONVECTIVE WATER 1, Design Size Maximum Water Flow Rate [m3/s], 0.00000
 Component Sizing Information, ZoneHVAC:Baseboard:Convective:Water, ZONE HVAC BASEBOARD CONVECTIVE WATER 1, Design Size U-Factor Times Area Value [W/K], 0.00000
 Component Sizing Information, ZoneHVAC:PackagedTerminalAirConditioner, DU_BT=SPACE FUNCTION_ST=DWELLING UNIT(S)_FL=STORY 1_SCHG PTAC, Design Size Cooling Supply Air Flow Rate [m3/s], 1.05155
 Component Sizing Information, ZoneHVAC:PackagedTerminalAirConditioner, DU_BT=SPACE FUNCTION_ST=DWELLING UNIT(S)_FL=STORY 1_SCHG PTAC, Design Size Heating Supply Air Flow Rate [m3/s], 1.05155
 Component Sizing Information, ZoneHVAC:PackagedTerminalAirConditioner, DU_BT=SPACE FUNCTION_ST=DWELLING UNIT(S)_FL=STORY 1_SCHG PTAC, Design Size No Load Supply Air Flow Rate [m3/s], 1.05155
 Component Sizing Information, ZoneHVAC:PackagedTerminalAirConditioner, DU_BT=SPACE FUNCTION_ST=DWELLING UNIT(S)_FL=STORY 1_SCHG PTAC, Design Size Outdoor Air Flow Rate During Cooling Operation [m3/s], 0.64770
 Component Sizing Information, ZoneHVAC:PackagedTerminalAirConditioner, DU_BT=SPACE FUNCTION_ST=DWELLING UNIT(S)_FL=STORY 1_SCHG PTAC, Design Size Outdoor Air Flow Rate During Heating Operation [m3/s], 0.64770
 Component Sizing Information, ZoneHVAC:PackagedTerminalAirConditioner, DU_BT=SPACE FUNCTION_ST=DWELLING UNIT(S)_FL=STORY 1_SCHG PTAC, Design Size Outdoor Air Flow Rate When No Cooling or Heating is Needed [m3/s], 0.64770
 Component Sizing Information, Coil:Cooling:DX:SingleSpeed, COIL COOLING DX SINGLE SPEED 3, Design Size Rated Air Flow Rate [m3/s], 1.05155
 Component Sizing Information, Coil:Cooling:DX:SingleSpeed, COIL COOLING DX SINGLE SPEED 3, Design Size Gross Rated Total Cooling Capacity [W], 17406.80995
 Component Sizing Information, Coil:Cooling:DX:SingleSpeed, COIL COOLING DX SINGLE SPEED 3, Design Size Gross Rated Sensible Heat Ratio, 0.80066
! <DX Cooling Coil Standard Rating Information>, Component Type, Component Name, Standard Rating (Net) Cooling Capacity {W}, Standard Rated Net COP {W/W}, EER {Btu/W-h}, SEER {Btu/W-h}, IEER {Btu/W-h}
 DX Cooling Coil Standard Rating Information, Coil:Cooling:DX:SingleSpeed, COIL COOLING DX SINGLE SPEED 3, 16590.4, 2.51, 8.56, 9.04, 8.63
 Component Sizing Information, Coil:Heating:Electric, COIL HEATING ELECTRIC 1, Design Size Nominal Capacity [W], 15985.40784
 Component Sizing Information, Fan:ConstantVolume, FAN CONSTANT VOLUME 3, Design Size Maximum Flow Rate [m3/s], 1.05155
 Component Sizing Information, ZoneHVAC:Baseboard:Convective:Water, ZONE HVAC BASEBOARD CONVECTIVE WATER 2, Design Size Maximum Water Flow Rate [m3/s], 0.00000
 Component Sizing Information, ZoneHVAC:Baseboard:Convective:Water, ZONE HVAC BASEBOARD CONVECTIVE WATER 2, Design Size U-Factor Times Area Value [W/K], 0.00000
 Component Sizing Information, AirTerminal:SingleDuct:Uncontrolled, AIR TERMINAL SINGLE DUCT UNCONTROLLED 2, Design Size Maximum Air Flow Rate [m3/s], 0.64770
 Component Sizing Information, ZoneHVAC:PackagedTerminalAirConditioner, DU_BT=SPACE FUNCTION_ST=FIRE STATION - QUARTERS_FL=STORY 1_SCHG PTAC, Design Size Cooling Supply Air Flow Rate [m3/s], 1.52400
 Component Sizing Information, ZoneHVAC:PackagedTerminalAirConditioner, DU_BT=SPACE FUNCTION_ST=FIRE STATION - QUARTERS_FL=STORY 1_SCHG PTAC, Design Size Heating Supply Air Flow Rate [m3/s], 1.52400
 Component Sizing Information, ZoneHVAC:PackagedTerminalAirConditioner, DU_BT=SPACE FUNCTION_ST=FIRE STATION - QUARTERS_FL=STORY 1_SCHG PTAC, Design Size No Load Supply Air Flow Rate [m3/s], 1.52400
 Component Sizing Information, ZoneHVAC:PackagedTerminalAirConditioner, DU_BT=SPACE FUNCTION_ST=FIRE STATION - QUARTERS_FL=STORY 1_SCHG PTAC, Design Size Outdoor Air Flow Rate During Cooling Operation [m3/s], 1.52400
 Component Sizing Information, ZoneHVAC:PackagedTerminalAirConditioner, DU_BT=SPACE FUNCTION_ST=FIRE STATION - QUARTERS_FL=STORY 1_SCHG PTAC, Design Size Outdoor Air Flow Rate During Heating Operation [m3/s], 1.52400
 Component Sizing Information, ZoneHVAC:PackagedTerminalAirConditioner, DU_BT=SPACE FUNCTION_ST=FIRE STATION - QUARTERS_FL=STORY 1_SCHG PTAC, Design Size Outdoor Air Flow Rate When No Cooling or Heating is Needed [m3/s], 1.52400
 Component Sizing Information, Coil:Cooling:DX:SingleSpeed, COIL COOLING DX SINGLE SPEED 5, Design Size Rated Air Flow Rate [m3/s], 1.52400
 Component Sizing Information, Coil:Cooling:DX:SingleSpeed, COIL COOLING DX SINGLE SPEED 5, Design Size Gross Rated Total Cooling Capacity [W], 25227.61132
 Component Sizing Information, Coil:Cooling:DX:SingleSpeed, COIL COOLING DX SINGLE SPEED 5, Design Size Gross Rated Sensible Heat Ratio, 0.80066
 DX Cooling Coil Standard Rating Information, Coil:Cooling:DX:SingleSpeed, COIL COOLING DX SINGLE SPEED 5, 24044.4, 2.51, 8.56, 9.04, 8.63
 Component Sizing Information, Coil:Heating:Electric, COIL HEATING ELECTRIC 2, Design Size Nominal Capacity [W], 37612.72433
 Component Sizing Information, Fan:ConstantVolume, FAN CONSTANT VOLUME 5, Design Size Maximum Flow Rate [m3/s], 1.52400
 Component Sizing Information, ZoneHVAC:Baseboard:Convective:Water, ZONE HVAC BASEBOARD CONVECTIVE WATER 3, Design Size Maximum Water Flow Rate [m3/s], 0.00000
 Component Sizing Information, ZoneHVAC:Baseboard:Convective:Water, ZONE HVAC BASEBOARD CONVECTIVE WATER 3, Design Size U-Factor Times Area Value [W/K], 0.00000
 Component Sizing Information, AirTerminal:SingleDuct:Uncontrolled, AIR TERMINAL SINGLE DUCT UNCONTROLLED 3, Design Size Maximum Air Flow Rate [m3/s], 1.52400
 Component Sizing Information, AirLoopHVAC, SYS_1_MAKE-UP AIR UNIT, Sum of Air Terminal Maximum Heating Flow Rates [m3/s], 0.64770
 Component Sizing Information, AirLoopHVAC, SYS_1_MAKE-UP AIR UNIT, Sum of Air Terminal Minimum Heating Flow Rates [m3/s], 0.64770
 Component Sizing Information, AirLoopHVAC, SYS_1_MAKE-UP AIR UNIT, Sum of Air Terminal Maximum Flow Rates [m3/s], 0.64770
 Component Sizing Information, AirLoopHVAC, SYS_1_MAKE-UP AIR UNIT, Adjusted Heating Design Air Flow Rate [m3/s], 0.64770
 Component Sizing Information, AirLoopHVAC, SYS_1_MAKE-UP AIR UNIT, Adjusted Cooling Design Air Flow Rate [m3/s], 0.64770
 Component Sizing Information, AirLoopHVAC, SYS_1_MAKE-UP AIR UNIT, Adjusted Main Design Air Flow Rate [m3/s], 0.64770
 Component Sizing Information, AirLoopHVAC, SYS_1_MAKE-UP AIR UNIT, User Heating Air Flow Ratio [], 1.00000
 Component Sizing Information, AirLoopHVAC, SYS_1_MAKE-UP AIR UNIT, Calculated Heating Air Flow Ratio [], 1.00000
 Component Sizing Information, AirLoopHVAC, SYS_1_MAKE-UP AIR UNIT 1, Sum of Air Terminal Maximum Heating Flow Rates [m3/s], 1.52400
 Component Sizing Information, AirLoopHVAC, SYS_1_MAKE-UP AIR UNIT 1, Sum of Air Terminal Minimum Heating Flow Rates [m3/s], 1.52400
 Component Sizing Information, AirLoopHVAC, SYS_1_MAKE-UP AIR UNIT 1, Sum of Air Terminal Maximum Flow Rates [m3/s], 1.52400
 Component Sizing Information, AirLoopHVAC, SYS_1_MAKE-UP AIR UNIT 1, Adjusted Heating Design Air Flow Rate [m3/s], 1.52400
 Component Sizing Information, AirLoopHVAC, SYS_1_MAKE-UP AIR UNIT 1, Adjusted Cooling Design Air Flow Rate [m3/s], 1.52400
 Component Sizing Information, AirLoopHVAC, SYS_1_MAKE-UP AIR UNIT 1, Adjusted Main Design Air Flow Rate [m3/s], 1.52400
 Component Sizing Information, AirLoopHVAC, SYS_1_MAKE-UP AIR UNIT 1, User Heating Air Flow Ratio [], 1.00000
 Component Sizing Information, AirLoopHVAC, SYS_1_MAKE-UP AIR UNIT 1, Calculated Heating Air Flow Ratio [], 1.00000
 Component Sizing Information, AirLoopHVAC, SYS_3_PSZ ALL_ST=DRESS./FITT. - PERFORMANCE ARTS_FL=STORY 1_SCH=C, Sum of Air Terminal Maximum Heating Flow Rates [m3/s], 2.21933
 Component Sizing Information, AirLoopHVAC, SYS_3_PSZ ALL_ST=DRESS./FITT. - PERFORMANCE ARTS_FL=STORY 1_SCH=C, Sum of Air Terminal Minimum Heating Flow Rates [m3/s], 2.21933
 Component Sizing Information, AirLoopHVAC, SYS_3_PSZ ALL_ST=DRESS./FITT. - PERFORMANCE ARTS_FL=STORY 1_SCH=C, Sum of Air Terminal Maximum Flow Rates [m3/s], 2.21933
 Component Sizing Information, AirLoopHVAC, SYS_3_PSZ ALL_ST=DRESS./FITT. - PERFORMANCE ARTS_FL=STORY 1_SCH=C, Adjusted Heating Design Air Flow Rate [m3/s], 2.21933
 Component Sizing Information, AirLoopHVAC, SYS_3_PSZ ALL_ST=DRESS./FITT. - PERFORMANCE ARTS_FL=STORY 1_SCH=C, Adjusted Cooling Design Air Flow Rate [m3/s], 2.21933
 Component Sizing Information, AirLoopHVAC, SYS_3_PSZ ALL_ST=DRESS./FITT. - PERFORMANCE ARTS_FL=STORY 1_SCH=C, Adjusted Main Design Air Flow Rate [m3/s], 2.21933
 Component Sizing Information, AirLoopHVAC, SYS_3_PSZ ALL_ST=DRESS./FITT. - PERFORMANCE ARTS_FL=STORY 1_SCH=C, User Heating Air Flow Ratio [], 1.00000
 Component Sizing Information, AirLoopHVAC, SYS_3_PSZ ALL_ST=DRESS./FITT. - PERFORMANCE ARTS_FL=STORY 1_SCH=C, Calculated Heating Air Flow Ratio [], 1.00000
 Component Sizing Information, AirLoopHVAC, SYS_3_PSZ DU_BT=SPACE FUNCTION_ST=DORMITORY - LIVING QUARTERS_FL=STORY 1_SCHG, Sum of Air Terminal Maximum Heating Flow Rates [m3/s], 1.39700
 Component Sizing Information, AirLoopHVAC, SYS_3_PSZ DU_BT=SPACE FUNCTION_ST=DORMITORY - LIVING QUARTERS_FL=STORY 1_SCHG, Sum of Air Terminal Minimum Heating Flow Rates [m3/s], 1.39700
 Component Sizing Information, AirLoopHVAC, SYS_3_PSZ DU_BT=SPACE FUNCTION_ST=DORMITORY - LIVING QUARTERS_FL=STORY 1_SCHG, Sum of Air Terminal Maximum Flow Rates [m3/s], 1.39700
 Component Sizing Information, AirLoopHVAC, SYS_3_PSZ DU_BT=SPACE FUNCTION_ST=DORMITORY - LIVING QUARTERS_FL=STORY 1_SCHG, Adjusted Heating Design Air Flow Rate [m3/s], 1.39700
 Component Sizing Information, AirLoopHVAC, SYS_3_PSZ DU_BT=SPACE FUNCTION_ST=DORMITORY - LIVING QUARTERS_FL=STORY 1_SCHG, Adjusted Cooling Design Air Flow Rate [m3/s], 1.39700
 Component Sizing Information, AirLoopHVAC, SYS_3_PSZ DU_BT=SPACE FUNCTION_ST=DORMITORY - LIVING QUARTERS_FL=STORY 1_SCHG, Adjusted Main Design Air Flow Rate [m3/s], 1.39700
 Component Sizing Information, AirLoopHVAC, SYS_3_PSZ DU_BT=SPACE FUNCTION_ST=DORMITORY - LIVING QUARTERS_FL=STORY 1_SCHG, User Heating Air Flow Ratio [], 1.00000
 Component Sizing Information, AirLoopHVAC, SYS_3_PSZ DU_BT=SPACE FUNCTION_ST=DORMITORY - LIVING QUARTERS_FL=STORY 1_SCHG, Calculated Heating Air Flow Ratio [], 1.00000
 Component Sizing Information, AirLoopHVAC, SYS_4_PSZ_ALL_ST=FIRE STATION - ENGINE ROOM_FL=STORY 1_SCH=H, Sum of Air Terminal Maximum Heating Flow Rates [m3/s], 2.38125
 Component Sizing Information, AirLoopHVAC, SYS_4_PSZ_ALL_ST=FIRE STATION - ENGINE ROOM_FL=STORY 1_SCH=H, Sum of Air Terminal Minimum Heating Flow Rates [m3/s], 2.38125
 Component Sizing Information, AirLoopHVAC, SYS_4_PSZ_ALL_ST=FIRE STATION - ENGINE ROOM_FL=STORY 1_SCH=H, Sum of Air Terminal Maximum Flow Rates [m3/s], 2.38125
 Component Sizing Information, AirLoopHVAC, SYS_4_PSZ_ALL_ST=FIRE STATION - ENGINE ROOM_FL=STORY 1_SCH=H, Adjusted Heating Design Air Flow Rate [m3/s], 2.38125
 Component Sizing Information, AirLoopHVAC, SYS_4_PSZ_ALL_ST=FIRE STATION - ENGINE ROOM_FL=STORY 1_SCH=H, Adjusted Cooling Design Air Flow Rate [m3/s], 2.38125
 Component Sizing Information, AirLoopHVAC, SYS_4_PSZ_ALL_ST=FIRE STATION - ENGINE ROOM_FL=STORY 1_SCH=H, Adjusted Main Design Air Flow Rate [m3/s], 2.38125
 Component Sizing Information, AirLoopHVAC, SYS_4_PSZ_ALL_ST=FIRE STATION - ENGINE ROOM_FL=STORY 1_SCH=H, User Heating Air Flow Ratio [], 1.00000
 Component Sizing Information, AirLoopHVAC, SYS_4_PSZ_ALL_ST=FIRE STATION - ENGINE ROOM_FL=STORY 1_SCH=H, Calculated Heating Air Flow Ratio [], 1.00000
 Component Sizing Information, AirLoopHVAC, SYS_1_MAKE-UP AIR UNIT, Design Supply Air Flow Rate [m3/s], 0.64770
 Component Sizing Information, AirLoopHVAC, SYS_1_MAKE-UP AIR UNIT 1, Design Supply Air Flow Rate [m3/s], 1.52400
 Component Sizing Information, AirLoopHVAC, SYS_3_PSZ ALL_ST=DRESS./FITT. - PERFORMANCE ARTS_FL=STORY 1_SCH=C, Design Supply Air Flow Rate [m3/s], 2.21933
 Component Sizing Information, AirLoopHVAC, SYS_3_PSZ DU_BT=SPACE FUNCTION_ST=DORMITORY - LIVING QUARTERS_FL=STORY 1_SCHG, Design Supply Air Flow Rate [m3/s], 1.39700
 Component Sizing Information, AirLoopHVAC, SYS_4_PSZ_ALL_ST=FIRE STATION - ENGINE ROOM_FL=STORY 1_SCH=H, Design Supply Air Flow Rate [m3/s], 2.38125
!<Controller:MechanicalVentilation>,Name,Availability Schedule Name,Demand Controlled Ventilation {Yes/No},System Outdoor Air Method,Zone Maximum Outdoor Air Fraction,Number of Zones,Zone Name,DSOA Name,DSZAD Name
 Controller:MechanicalVentilation,CONTROLLER MECHANICAL VENTILATION 4,ALWAYS ON DISCRETE,No,ZoneSum,1.00,1,ALL_ST=DRESS./FITT. - PERFORMANCE ARTS_FL=STORY 1_SCH=C,SPACE FUNCTION DRESS./FITT. - PERFORMANCE ARTS VENTILATION,ALL_ST=DRESS./FITT. - PERFORMANCE ARTS_FL=STORY 1_SCH=C DESIGN SPEC ZONE AIR DIST
 Controller:MechanicalVentilation,CONTROLLER MECHANICAL VENTILATION 5,ALWAYS ON DISCRETE,No,ZoneSum,1.00,1,ALL_ST=FIRE STATION - ENGINE ROOM_FL=STORY 1_SCH=H,SPACE FUNCTION FIRE STATION - ENGINE ROOM VENTILATION,ALL_ST=FIRE STATION - ENGINE ROOM_FL=STORY 1_SCH=H DESIGN SPEC ZONE AIR DIST
 Controller:MechanicalVentilation,CONTROLLER MECHANICAL VENTILATION 1,ALWAYS ON DISCRETE,No,ZoneSum,1.00,1,DU_BT=SPACE FUNCTION_ST=DORMITORY - LIVING QUARTERS_FL=STORY 1_SCHG,SPACE FUNCTION DORMITORY - LIVING QUARTERS VENTILATION,DU_BT=SPACE FUNCTION_ST=DORMITORY - LIVING QUARTERS_FL=STORY 1_SCHG DESIGN SPEC ZONE AIR DIST
 Controller:MechanicalVentilation,CONTROLLER MECHANICAL VENTILATION 2,ALWAYS ON DISCRETE,No,ZoneSum,1.00,1,DU_BT=SPACE FUNCTION_ST=DWELLING UNIT(S)_FL=STORY 1_SCHG,SPACE FUNCTION DWELLING UNIT(S) VENTILATION,DU_BT=SPACE FUNCTION_ST=DWELLING UNIT(S)_FL=STORY 1_SCHG DESIGN SPEC ZONE AIR DIST
 Controller:MechanicalVentilation,CONTROLLER MECHANICAL VENTILATION 3,ALWAYS ON DISCRETE,No,ZoneSum,1.00,1,DU_BT=SPACE FUNCTION_ST=FIRE STATION - QUARTERS_FL=STORY 1_SCHG,SPACE FUNCTION FIRE STATION - QUARTERS VENTILATION,DU_BT=SPACE FUNCTION_ST=FIRE STATION - QUARTERS_FL=STORY 1_SCHG DESIGN SPEC ZONE AIR DIST
 Component Sizing Information, Controller:OutdoorAir, CONTROLLER OUTDOOR AIR 2, Maximum Outdoor Air Flow Rate [m3/s], 0.64770
 Component Sizing Information, Controller:OutdoorAir, CONTROLLER OUTDOOR AIR 2, Minimum Outdoor Air Flow Rate [m3/s], 0.64770
 Component Sizing Information, Coil:Cooling:DX:SingleSpeed, COIL COOLING DX SINGLE SPEED 2, Design Size Rated Air Flow Rate [m3/s], 0.64770
 Component Sizing Information, Coil:Cooling:DX:SingleSpeed, COIL COOLING DX SINGLE SPEED 2, Design Size Gross Rated Total Cooling Capacity [W], 10721.73481
 Component Sizing Information, Coil:Cooling:DX:SingleSpeed, COIL COOLING DX SINGLE SPEED 2, Design Size Gross Rated Sensible Heat Ratio, 0.80066
 DX Cooling Coil Standard Rating Information, Coil:Cooling:DX:SingleSpeed, COIL COOLING DX SINGLE SPEED 2, 10218.9, 2.51, 8.56, 9.04, 8.63
 Component Sizing Information, Coil:Heating:Water, COIL HEATING WATER 1, Design Size Rated Capacity [W], 59409.67783
 Component Sizing Information, Coil:Heating:Water, COIL HEATING WATER 1, Design Size Maximum Water Flow Rate [m3/s], 8.87332E-004
 Component Sizing Information, Coil:Heating:Water, COIL HEATING WATER 1, Design Size U-Factor Times Area Value [W/K], 937.08657
! <Water Heating Coil Capacity Information>,Component Type,Name,Nominal Total Capacity {W}
Water Heating Coil Capacity Information,Coil:Heating:Water,COIL HEATING WATER 1,33169.99
 Component Sizing Information, Fan:ConstantVolume, FAN CONSTANT VOLUME 2, Design Size Maximum Flow Rate [m3/s], 0.64770
 Component Sizing Information, Controller:WaterCoil, CONTROLLER WATER COIL 1, Maximum Actuated Flow [m3/s], 8.87332E-004
 Component Sizing Information, Controller:WaterCoil, CONTROLLER WATER COIL 1, Controller Convergence Tolerance, 5.36654E-004
 Component Sizing Information, Controller:OutdoorAir, CONTROLLER OUTDOOR AIR 3, Maximum Outdoor Air Flow Rate [m3/s], 1.52400
 Component Sizing Information, Controller:OutdoorAir, CONTROLLER OUTDOOR AIR 3, Minimum Outdoor Air Flow Rate [m3/s], 1.52400
 Component Sizing Information, Coil:Cooling:DX:SingleSpeed, COIL COOLING DX SINGLE SPEED 4, Design Size Rated Air Flow Rate [m3/s], 1.52400
 Component Sizing Information, Coil:Cooling:DX:SingleSpeed, COIL COOLING DX SINGLE SPEED 4, Design Size Gross Rated Total Cooling Capacity [W], 25227.61132
 Component Sizing Information, Coil:Cooling:DX:SingleSpeed, COIL COOLING DX SINGLE SPEED 4, Design Size Gross Rated Sensible Heat Ratio, 0.80066
 DX Cooling Coil Standard Rating Information, Coil:Cooling:DX:SingleSpeed, COIL COOLING DX SINGLE SPEED 4, 24044.4, 2.51, 8.56, 9.04, 8.63
 Component Sizing Information, Coil:Heating:Water, COIL HEATING WATER 2, Design Size Rated Capacity [W], 139787.47725
 Component Sizing Information, Coil:Heating:Water, COIL HEATING WATER 2, Design Size Maximum Water Flow Rate [m3/s], 2.08784E-003
 Component Sizing Information, Coil:Heating:Water, COIL HEATING WATER 2, Design Size U-Factor Times Area Value [W/K], 2204.90957
Water Heating Coil Capacity Information,Coil:Heating:Water,COIL HEATING WATER 2,78047.03
 Component Sizing Information, Fan:ConstantVolume, FAN CONSTANT VOLUME 4, Design Size Maximum Flow Rate [m3/s], 1.52400
 Component Sizing Information, Controller:WaterCoil, CONTROLLER WATER COIL 2, Maximum Actuated Flow [m3/s], 2.08784E-003
 Component Sizing Information, Controller:WaterCoil, CONTROLLER WATER COIL 2, Controller Convergence Tolerance, 2.28078E-004
 Component Sizing Information, Controller:OutdoorAir, CONTROLLER OUTDOOR AIR 4, Maximum Outdoor Air Flow Rate [m3/s], 2.21933
 Component Sizing Information, Controller:OutdoorAir, CONTROLLER OUTDOOR AIR 4, Minimum Outdoor Air Flow Rate [m3/s], 2.21933
 Component Sizing Information, Coil:Cooling:DX:SingleSpeed, COIL COOLING DX SINGLE SPEED 6, Design Size Rated Air Flow Rate [m3/s], 2.21933
 Component Sizing Information, Coil:Cooling:DX:SingleSpeed, COIL COOLING DX SINGLE SPEED 6, Design Size Gross Rated Total Cooling Capacity [W], 37728.99293
 Component Sizing Information, Coil:Cooling:DX:SingleSpeed, COIL COOLING DX SINGLE SPEED 6, Design Size Gross Rated Sensible Heat Ratio, 0.80100
 DX Cooling Coil Standard Rating Information, Coil:Cooling:DX:SingleSpeed, COIL COOLING DX SINGLE SPEED 6, 36006.7, 2.52, 8.60, 9.12, 8.76
 Component Sizing Information, Coil:Heating:Fuel, COIL HEATING GAS 2, Design Size Nominal Capacity [W], 203565.51374
 Component Sizing Information, Fan:ConstantVolume, FAN CONSTANT VOLUME 6, Design Size Maximum Flow Rate [m3/s], 2.21933
 Component Sizing Information, Controller:OutdoorAir, CONTROLLER OUTDOOR AIR 1, Maximum Outdoor Air Flow Rate [m3/s], 1.39700
 Component Sizing Information, Controller:OutdoorAir, CONTROLLER OUTDOOR AIR 1, Minimum Outdoor Air Flow Rate [m3/s], 1.39700
 Component Sizing Information, Coil:Cooling:DX:SingleSpeed, COIL COOLING DX SINGLE SPEED 1, Design Size Rated Air Flow Rate [m3/s], 1.39700
 Component Sizing Information, Coil:Cooling:DX:SingleSpeed, COIL COOLING DX SINGLE SPEED 1, Design Size Gross Rated Total Cooling Capacity [W], 23125.31038
 Component Sizing Information, Coil:Cooling:DX:SingleSpeed, COIL COOLING DX SINGLE SPEED 1, Design Size Gross Rated Sensible Heat Ratio, 0.80066
 DX Cooling Coil Standard Rating Information, Coil:Cooling:DX:SingleSpeed, COIL COOLING DX SINGLE SPEED 1, 22041.3, 2.51, 8.56, 9.08, 8.70
 Component Sizing Information, Coil:Heating:Fuel, COIL HEATING GAS 1, Design Size Nominal Capacity [W], 128138.52081
 Component Sizing Information, Fan:ConstantVolume, FAN CONSTANT VOLUME 1, Design Size Maximum Flow Rate [m3/s], 1.39700
 Component Sizing Information, Controller:OutdoorAir, CONTROLLER OUTDOOR AIR 5, Maximum Outdoor Air Flow Rate [m3/s], 2.38125
 Component Sizing Information, Controller:OutdoorAir, CONTROLLER OUTDOOR AIR 5, Minimum Outdoor Air Flow Rate [m3/s], 2.38125
 Component Sizing Information, Coil:Cooling:DX:SingleSpeed, COIL COOLING DX SINGLE SPEED 7, Design Size Rated Air Flow Rate [m3/s], 2.38125
 Component Sizing Information, Coil:Cooling:DX:SingleSpeed, COIL COOLING DX SINGLE SPEED 7, Design Size Gross Rated Total Cooling Capacity [W], 39418.14269
 Component Sizing Information, Coil:Cooling:DX:SingleSpeed, COIL COOLING DX SINGLE SPEED 7, Design Size Gross Rated Sensible Heat Ratio, 0.80066
 DX Cooling Coil Standard Rating Information, Coil:Cooling:DX:SingleSpeed, COIL COOLING DX SINGLE SPEED 7, 37569.3, 2.51, 8.56, 9.04, 8.63
 Component Sizing Information, Coil:Heating:Fuel, COIL HEATING GAS 3, Design Size Nominal Capacity [W], 218417.93320
 Component Sizing Information, Fan:ConstantVolume, FAN CONSTANT VOLUME 7, Design Size Maximum Flow Rate [m3/s], 2.38125
Water Heater Information,WaterHeater:Mixed,762GAL NATURALGAS WATER HEATER - 514KBTU/HR,2.8837,150674.8,0.224,0.6822
 Component Sizing Information, PlantLoop, HOT WATER LOOP, Maximum Loop Flow Rate [m3/s], 3.05594E-003
 Component Sizing Information, PlantLoop, HOT WATER LOOP, Plant Loop Volume [m3], 0.36671
 Component Sizing Information, Pump:VariableSpeed, PUMP VARIABLE SPEED 1, Design Flow Rate [m3/s], 3.05594E-003
 Component Sizing Information, Pump:VariableSpeed, PUMP VARIABLE SPEED 1, Design Power Consumption [W], 780.75426
 Component Sizing Information, Boiler:HotWater, PRIMARY BOILER, Design Size Nominal Capacity [W], 205397.09116
 Component Sizing Information, Boiler:HotWater, PRIMARY BOILER, Design Size Design Water Flow Rate [m3/s], 3.05594E-003
 Component Sizing Information, Boiler:HotWater, SECONDARY BOILER, Design Size Nominal Capacity [W], 205397.09116
 Component Sizing Information, Boiler:HotWater, SECONDARY BOILER, Design Size Design Water Flow Rate [m3/s], 3.05594E-003
 Component Sizing Information, PlantLoop, MAIN SERVICE WATER LOOP, Maximum Loop Flow Rate [m3/s], 6.99454E-004
 Component Sizing Information, PlantLoop, MAIN SERVICE WATER LOOP, Plant Loop Volume [m3], 8.39345E-002
 Component Sizing Information, Pump:ConstantSpeed, SERVICE WATER LOOP PUMP, Design Flow Rate [m3/s], 6.99454E-004
 Component Sizing Information, Pump:ConstantSpeed, SERVICE WATER LOOP PUMP, Design Power Consumption [W], 222.16714
 Component Sizing Information, WaterHeater:Mixed, 762GAL NATURALGAS WATER HEATER - 514KBTU/HR, Use Side Design Flow Rate [m3/s], 6.99454E-004
! <Environment>,Environment Name,Environment Type, Start Date, End Date, Start DayOfWeek, Duration {#days}, Source:Start DayOfWeek,  Use Daylight Saving, Use Holidays, Apply Weekend Holiday Rule,  Use Rain Values, Use Snow Values
! <Environment:Special Days>, Special Day Name, Special Day Type, Source, Start Date, Duration {#days}
! <Environment:Daylight Saving>, Daylight Saving Indicator, Source, Start Date, End Date
! <Environment:WarmupDays>, NumberofWarmupDays
Environment,FORT MCMURRAY AP ANN CLG .4% CONDNS DB=>MWB,SizingPeriod:DesignDay,07/21,07/21,SummerDesignDay,1,N/A,N/A,N/A,N/A,N/A,N/A
Environment:Daylight Saving,No,SizingPeriod:DesignDay
! <Environment:Design Day Data>, Max Dry-Bulb Temp {C}, Temp Range {dC}, Temp Range Ind Type, Hum Ind Value at Max Temp, Hum Ind Type,Pressure {Pa}, Wind Direction {deg CW from N}, Wind Speed {m/s}, Clearness, Rain, Snow
! <Environment:Design Day Misc>,DayOfYear,ASHRAE A Coeff,ASHRAE B Coeff,ASHRAE C Coeff,Solar Constant-Annual Variation,Eq of Time {minutes}, Solar Declination Angle {deg}, Solar Model
Environment:Design Day Data,28.90,12.40,DefaultMultipliers,96969,250,3.7,0.00,No,No
Environment:Design Day Misc,202,1084.4,0.2082,0.1365,1.0,-6.23,20.6,ASHRAETau
Environment:WarmupDays,  6
! <Tabular Report>,Style,Unit Conversion
Tabular Report,HTML,None
! <Warmup Convergence Information>,Zone Name,Environment Type/Name,Average Warmup Temperature Difference {deltaC},Std Dev Warmup Temperature Difference {deltaC},Max Temperature Pass/Fail Convergence,Min Temperature Pass/Fail Convergence,Average Warmup Load Difference {W},Std Dev Warmup Load Difference {W},Heating Load Pass/Fail Convergence,Cooling Load Pass/Fail Convergence
 Warmup Convergence Information,ALL_ST=DRESS./FITT. - PERFORMANCE ARTS_FL=STORY 1_SCH=C,SizingPeriod: FORT MCMURRAY AP ANN CLG .4% CONDNS DB=>MWB,6.2903607190E-002,0.1368628655,Pass,Pass,9.4023298032E-002,0.2375956335,Pass,Pass
 Warmup Convergence Information,ALL_ST=FIRE STATION - ENGINE ROOM_FL=STORY 1_SCH=H,SizingPeriod: FORT MCMURRAY AP ANN CLG .4% CONDNS DB=>MWB,1.1750080383E-002,2.5436523480E-002,Pass,Pass,5.4404290302E-003,1.6489391941E-002,Pass,Pass
 Warmup Convergence Information,DU_BT=SPACE FUNCTION_ST=DORMITORY - LIVING QUARTERS_FL=STORY 1_SCHG,SizingPeriod: FORT MCMURRAY AP ANN CLG .4% CONDNS DB=>MWB,2.6014646468E-002,6.0604406850E-002,Pass,Pass,3.8377252589E-002,0.1071840757,Pass,Pass
 Warmup Convergence Information,DU_BT=SPACE FUNCTION_ST=DWELLING UNIT(S)_FL=STORY 1_SCHG,SizingPeriod: FORT MCMURRAY AP ANN CLG .4% CONDNS DB=>MWB,1.8198769936E-002,3.1465589040E-002,Pass,Pass,6.4713000268E-002,0.1968528178,Pass,Pass
 Warmup Convergence Information,DU_BT=SPACE FUNCTION_ST=FIRE STATION - QUARTERS_FL=STORY 1_SCHG,SizingPeriod: FORT MCMURRAY AP ANN CLG .4% CONDNS DB=>MWB,3.3069219102E-002,4.5561535502E-002,Pass,Pass,5.2088514937E-002,0.1320439118,Pass,Pass
Environment,FORT MCMURRAY AP ANN HTG 99.6% CONDNS DB,SizingPeriod:DesignDay,01/21,01/21,WinterDesignDay,1,N/A,N/A,N/A,N/A,N/A,N/A
Environment:Daylight Saving,No,SizingPeriod:DesignDay
Environment:Design Day Data,-36.20,0.00,DefaultMultipliers,96969,90,1.0,0.00,No,No
Environment:Design Day Misc, 21,1229.0,0.1415,5.7310E-002,1.0,-11.15,-20.1,ASHRAEClearSky
Environment:WarmupDays,  6
 Warmup Convergence Information,ALL_ST=DRESS./FITT. - PERFORMANCE ARTS_FL=STORY 1_SCH=C,SizingPeriod: FORT MCMURRAY AP ANN HTG 99.6% CONDNS DB,5.7492980375E-002,0.2266952140,Pass,Pass,0.6238026850,4.0005833851,Pass,Pass
 Warmup Convergence Information,ALL_ST=FIRE STATION - ENGINE ROOM_FL=STORY 1_SCH=H,SizingPeriod: FORT MCMURRAY AP ANN HTG 99.6% CONDNS DB,2.7641053886E-002,0.1377244780,Pass,Pass,2.7205374207E-002,0.1424098414,Pass,Pass
 Warmup Convergence Information,DU_BT=SPACE FUNCTION_ST=DORMITORY - LIVING QUARTERS_FL=STORY 1_SCHG,SizingPeriod: FORT MCMURRAY AP ANN HTG 99.6% CONDNS DB,4.3096268321E-002,9.4040243362E-002,Pass,Pass,4.7838620599E-002,0.1237834012,Pass,Pass
 Warmup Convergence Information,DU_BT=SPACE FUNCTION_ST=DWELLING UNIT(S)_FL=STORY 1_SCHG,SizingPeriod: FORT MCMURRAY AP ANN HTG 99.6% CONDNS DB,6.6438492637E-002,7.7422008478E-002,Pass,Pass,5.3409434065E-002,9.5355853351E-002,Pass,Pass
 Warmup Convergence Information,DU_BT=SPACE FUNCTION_ST=FIRE STATION - QUARTERS_FL=STORY 1_SCHG,SizingPeriod: FORT MCMURRAY AP ANN HTG 99.6% CONDNS DB,5.3623372772E-002,5.4883311441E-002,Pass,Pass,2.6947846837E-002,3.0786914087E-002,Pass,Pass
! <Program Control Information:Threads/Parallel Sims>, Threading Supported,Maximum Number of Threads, Env Set Threads (OMP_NUM_THREADS), EP Env Set Threads (EP_OMP_NUM_THREADS), IDF Set Threads, Number of Threads Used (Interior Radiant Exchange), Number Nominal Surfaces, Number Parallel Sims
Program Control:Threads/Parallel Sims, No,1, N/A, N/A, N/A, N/A, N/A, N/A
End of Data
