Program Version,EnergyPlus, Version 8.9.0-eba93e8e1b, YMD=2019.03.28 13:47
! <Version>, Version ID
 Version, 8.9
! <Timesteps per Hour>, #TimeSteps, Minutes per TimeStep {minutes}
 Timesteps per Hour,  6, 10
! <System Convergence Limits>, Minimum System TimeStep {minutes}, Max HVAC Iterations, Minimum Plant Iterations, Maximum Plant Iterations
 System Convergence Limits, 1, 20, 2, 8
! <Simulation Control>, Do Zone Sizing, Do System Sizing, Do Plant Sizing, Do Design Days, Do Weather Simulation, Do HVAC Sizing Simulation
 Simulation Control, Yes, Yes, Yes, No, Yes, No
! <Output Reporting Tolerances>, Tolerance for Time Heating Setpoint Not Met, Tolerance for Zone Cooling Setpoint Not Met Time
 Output Reporting Tolerances, 1.000, 1.000, 
! <Site:GroundTemperature:BuildingSurface>,Jan{C},Feb{C},Mar{C},Apr{C},May{C},Jun{C},Jul{C},Aug{C},Sep{C},Oct{C},Nov{C},Dec{C}
 Site:GroundTemperature:BuildingSurface,  19.53,  19.50,  19.54,  19.60,  20.00,  21.64,  22.23,  22.38,  21.45,  20.12,  19.80,  19.63
! <Site:GroundTemperature:FCfactorMethod>,Jan{C},Feb{C},Mar{C},Apr{C},May{C},Jun{C},Jul{C},Aug{C},Sep{C},Oct{C},Nov{C},Dec{C}
 Site:GroundTemperature:FCfactorMethod, -12.27, -13.66, -11.19,  -7.33,   2.77,  10.57,  15.83,  17.43,  14.70,   8.65,   0.56,  -6.95
! <Site:GroundTemperature:Shallow>,Jan{C},Feb{C},Mar{C},Apr{C},May{C},Jun{C},Jul{C},Aug{C},Sep{C},Oct{C},Nov{C},Dec{C}
 Site:GroundTemperature:Shallow,  13.00,  13.00,  13.00,  13.00,  13.00,  13.00,  13.00,  13.00,  13.00,  13.00,  13.00,  13.00
! <Site:GroundTemperature:Deep>,Jan{C},Feb{C},Mar{C},Apr{C},May{C},Jun{C},Jul{C},Aug{C},Sep{C},Oct{C},Nov{C},Dec{C}
 Site:GroundTemperature:Deep,  16.00,  16.00,  16.00,  16.00,  16.00,  16.00,  16.00,  16.00,  16.00,  16.00,  16.00,  16.00
! <Site:GroundReflectance>,Jan{dimensionless},Feb{dimensionless},Mar{dimensionless},Apr{dimensionless},May{dimensionless},Jun{dimensionless},Jul{dimensionless},Aug{dimensionless},Sep{dimensionless},Oct{dimensionless},Nov{dimensionless},Dec{dimensionless}
 Site:GroundReflectance,  0.20,  0.20,  0.20,  0.20,  0.20,  0.20,  0.20,  0.20,  0.20,  0.20,  0.20,  0.20
! <Site:GroundReflectance:SnowModifier>, Normal, Daylighting {dimensionless}
 Site:GroundReflectance:SnowModifier,   1.000,   1.000
! <Site:GroundReflectance:Snow>,Jan{dimensionless},Feb{dimensionless},Mar{dimensionless},Apr{dimensionless},May{dimensionless},Jun{dimensionless},Jul{dimensionless},Aug{dimensionless},Sep{dimensionless},Oct{dimensionless},Nov{dimensionless},Dec{dimensionless}
 Site:GroundReflectance:Snow,  0.20,  0.20,  0.20,  0.20,  0.20,  0.20,  0.20,  0.20,  0.20,  0.20,  0.20,  0.20
! <Site:GroundReflectance:Snow:Daylighting>,Jan{dimensionless},Feb{dimensionless},Mar{dimensionless},Apr{dimensionless},May{dimensionless},Jun{dimensionless},Jul{dimensionless},Aug{dimensionless},Sep{dimensionless},Oct{dimensionless},Nov{dimensionless},Dec{dimensionless}
 Site:GroundReflectance:Snow:Daylighting,  0.20,  0.20,  0.20,  0.20,  0.20,  0.20,  0.20,  0.20,  0.20,  0.20,  0.20,  0.20
! <Environment:Weather Station>,Wind Sensor Height Above Ground {m},Wind Speed Profile Exponent {},Wind Speed Profile Boundary Layer Thickness {m},Air Temperature Sensor Height Above Ground {m},Wind Speed Modifier Coefficient-Internal,Temperature Modifier Coefficient-Internal
Environment:Weather Station,10.000,0.140,270.000,1.500,1.586,9.750E-003
! <Site:Location>, Location Name, Latitude {N+/S- Deg}, Longitude {E+/W- Deg},  Time Zone Number {GMT+/-}, Elevation {m},  Standard Pressure at Elevation {Pa}, Standard RhoAir at Elevation
Site:Location,Fort McMurray AP AB CAN CWEC2016 WMO#=716890,56.65,-111.22,-7.00,369.10,96969,1.1525
! <Building Information>, Building Name,North Axis {deg},Terrain,  Loads Convergence Tolerance Value,Temperature Convergence Tolerance Value,  Solar Distribution,Maximum Number of Warmup Days,Minimum Number of Warmup Days
 Building Information,Building 1,0.000,Suburbs,4.00000E-002,0.40000,FullExterior,25,6
! <Inside Convection Algorithm>, Algorithm {Simple | TARP | CeilingDiffuser | AdaptiveConvectionAlgorithm}
Inside Convection Algorithm,TARP
! <Outside Convection Algorithm>, Algorithm {SimpleCombined | TARP | MoWitt | DOE-2 | AdaptiveConvectionAlgorithm}
Outside Convection Algorithm,TARP
! <Sky Radiance Distribution>, Value {Anisotropic}
Sky Radiance Distribution,Anisotropic
! <Zone Air Solution Algorithm>, Value {ThirdOrderBackwardDifference | AnalyticalSolution | EulerMethod}
 Zone Air Solution Algorithm, ThirdOrderBackwardDifference
! <Zone Air Carbon Dioxide Balance Simulation>, Simulation {Yes/No}, Carbon Dioxide Concentration
 Zone Air Carbon Dioxide Balance Simulation, No,N/A
! <Zone Air Generic Contaminant Balance Simulation>, Simulation {Yes/No}, Generic Contaminant Concentration
 Zone Air Generic Contaminant Balance Simulation, No,N/A
! <Zone Air Mass Flow Balance Simulation>, Enforce Mass Balance, Adjust Zone Mixing, Adjust Zone Infiltration {AddInfiltration | AdjustInfiltration | None}, Infiltration Zones {MixingSourceZonesOnly | AllZones}
 Zone Air Mass Flow Balance Simulation, No,N/A,N/A,N/A
! <HVACSystemRootFindingAlgorithm>, Value {RegulaFalsi | Bisection | BisectionThenRegulaFalsi | RegulaFalsiThenBisection}
 HVACSystemRootFindingAlgorithm, RegulaFalsi
! <Environment:Site Atmospheric Variation>,Wind Speed Profile Exponent {},Wind Speed Profile Boundary Layer Thickness {m},Air Temperature Gradient Coefficient {K/m}
Environment:Site Atmospheric Variation,0.220,370.000,6.500000E-003
! <Surface Geometry>,Starting Corner,Vertex Input Direction,Coordinate System,Daylight Reference Point Coordinate System,Rectangular (Simple) Surface Coordinate System
 Surface Geometry,UpperLeftCorner,Counterclockwise,RelativeCoordinateSystem,RelativeCoordinateSystem,RelativeToZoneOrigin
! <Surface Heat Transfer Algorithm>, Value {CTF - ConductionTransferFunction | EMPD - MoisturePenetrationDepthConductionTransferFunction | CondFD - ConductionFiniteDifference | HAMT - CombinedHeatAndMoistureFiniteElement} - Description,Inside Surface Max Temperature Limit{C}, Surface Convection Coefficient Lower Limit {W/m2-K}, Surface Convection Coefficient Upper Limit {W/m2-K}
Surface Heat Transfer Algorithm, CTF - ConductionTransferFunction,200,0.10,1000.0
! <Shading Summary>, Number of Fixed Detached Shades, Number of Building Detached Shades, Number of Attached Shades
 Shading Summary,0,0,0
! <Zone Summary>, Number of Zones, Number of Zone Surfaces, Number of SubSurfaces
 Zone Summary,20,137,17
! <Zone Information>,Zone Name,North Axis {deg},Origin X-Coordinate {m},Origin Y-Coordinate {m},Origin Z-Coordinate {m},Centroid X-Coordinate {m},Centroid Y-Coordinate {m},Centroid Z-Coordinate {m},Type,Zone Multiplier,Zone List Multiplier,Minimum X {m},Maximum X {m},Minimum Y {m},Maximum Y {m},Minimum Z {m},Maximum Z {m},Ceiling Height {m},Volume {m3},Zone Inside Convection Algorithm {Simple-Detailed-CeilingDiffuser-TrombeWall},Zone Outside Convection Algorithm {Simple-Detailed-Tarp-MoWitt-DOE-2-BLAST}, Floor Area {m2},Exterior Gross Wall Area {m2},Exterior Net Wall Area {m2},Exterior Window Area {m2}, Number of Surfaces, Number of SubSurfaces, Number of Shading SubSurfaces,  Part of Total Building Area
 Zone Information, SP-AUDIENCE SEATING AREA PERMANENT - OTHER-SCH-H-SPACE FUNCTION SYS-3 FLR-4 SCH-H HPLCMT-CORE ZN,0.0,25.00,25.00,11.40,50.00,50.00,13.30,1,1,1,25.00,75.00,25.00,75.00,11.40,15.20,3.80,9500.00,TARP,TARP,2500.00,0.00,0.00,125.00,6,1,0,Yes
 Zone Information, SP-AUDIENCE SEATING AREA PERMANENT - OTHER-SCH-I-SPACE FUNCTION SYS-3 FLR-4 SCH-I HPLCMT-NORTH ZN,0.0,25.00,75.00,11.40,50.00,89.15,13.30,1,1,1,0.00,100.00,75.00,100.00,11.40,15.20,3.80,7125.00,TARP,TARP,1875.00,380.00,285.00,188.75,6,2,0,Yes
 Zone Information, SP-AUDIENCE SEATING AREA PERMANENT - OTHER-SCH-J-SPACE FUNCTION SYS-3 FLR-4 SCH-J HPLCMT-WEST ZN,0.0,0.00,0.00,11.40,10.85,50.00,13.30,1,1,1,0.00,25.00,0.00,100.00,11.40,15.20,3.80,7125.00,TARP,TARP,1875.00,380.00,285.00,188.75,6,2,0,Yes
 Zone Information, SP-AUDIENCE SEATING AREA PERMANENT - OTHER-SCH-K-SPACE FUNCTION SYS-3 FLR-3 SCH-K HPLCMT-CORE ZN,0.0,25.00,25.00,7.60,50.00,50.00,9.50,1,1,1,25.00,75.00,25.00,75.00,7.60,11.40,3.80,9500.00,TARP,TARP,2500.00,0.00,0.00,0.00,6,0,0,Yes
 Zone Information, SP-BANKING ACTIVITY AREA AND OFFICES-SPACE FUNCTION SYS-6 FLR-3 SCH-A HPLCMT-EAST ZN,0.0,75.00,25.00,7.60,89.15,50.00,9.50,1,1,1,75.00,100.00,0.00,100.00,7.60,11.40,3.80,7125.00,TARP,TARP,1875.00,380.00,285.00,95.00,6,1,0,Yes
 Zone Information, SP-CLASSROOM/LECTURE HALL/TRAINING ROOM - PENITENTARY-SPACE FUNCTION SYS-3 FLR-4 SCH-D HPLCMT-EAST ZN,0.0,75.00,25.00,11.40,89.15,50.00,13.30,1,1,1,75.00,100.00,0.00,100.00,11.40,15.20,3.80,7125.00,TARP,TARP,1875.00,380.00,285.00,188.75,6,2,0,Yes
 Zone Information, SP-CLASSROOM/LECTURE HALL/TRAINING ROOM OTHER-SPACE FUNCTION SYS-3 FLR-3 SCH-D HPLCMT-WEST ZN,0.0,0.00,0.00,7.60,10.85,50.00,9.50,1,1,1,0.00,25.00,0.00,100.00,7.60,11.40,3.80,7125.00,TARP,TARP,1875.00,380.00,285.00,95.00,6,1,0,Yes
 Zone Information, SP-CONFERENCE/MEETING/MULTI-PURPOSE ROOM-SPACE FUNCTION SYS-3 FLR-3 SCH-C HPLCMT-NORTH ZN,0.0,25.00,75.00,7.60,50.00,89.15,9.50,1,1,1,0.00,100.00,75.00,100.00,7.60,11.40,3.80,7125.00,TARP,TARP,1875.00,380.00,285.00,95.00,6,1,0,Yes
 Zone Information, SP-CONFINEMENT CELL-SPACE FUNCTION SYS-3 FLR-1 SCH-G HPLCMT-NORTH ZN,0.0,25.00,75.00,0.00,50.00,89.15,1.90,1,1,1,0.00,100.00,75.00,100.00,0.00,3.80,3.80,7125.00,TARP,TARP,1875.00,0.00,0.00,0.00,6,0,0,Yes
 Zone Information, SP-COPY/PRINT ROOM-SPACE FUNCTION SYS-3 FLR-1 SCH-A HPLCMT-EAST ZN,0.0,75.00,25.00,0.00,89.15,50.00,1.90,1,1,1,75.00,100.00,0.00,100.00,0.00,3.80,3.80,7125.00,TARP,TARP,1875.00,0.00,0.00,0.00,6,0,0,Yes
 Zone Information, SP-COURTROOM-SPACE FUNCTION SYS-3 FLR-2 SCH-A HPLCMT-WEST ZN,0.0,0.00,0.00,3.80,10.85,50.00,5.70,1,1,1,0.00,25.00,0.00,100.00,3.80,7.60,3.80,7125.00,TARP,TARP,1875.00,380.00,285.00,95.00,6,1,0,Yes
 Zone Information, SP-DINING AREA - BAR LOUNGE/LEISURE DINING-SPACE FUNCTION SYS-3 FLR-1 SCH-B HPLCMT-CORE ZN,0.0,25.00,25.00,0.00,50.00,50.00,1.90,1,1,1,25.00,75.00,25.00,75.00,0.00,3.80,3.80,9500.00,TARP,TARP,2500.00,0.00,0.00,0.00,6,0,0,Yes
 Zone Information, SP-DINING AREA - CAFETERIA/FAST FOOD DINING-SPACE FUNCTION SYS-3 FLR-4 SCH-B HPLCMT-SOUTH ZN,0.0,0.00,0.00,11.40,50.00,10.85,13.30,1,1,1,0.00,100.00,0.00,25.00,11.40,15.20,3.80,7125.00,TARP,TARP,1875.00,380.00,285.00,188.75,6,2,0,Yes
 Zone Information, SP-DINING AREA - FAMILY DINING-SPACE FUNCTION SYS-3 FLR-1 SCH-B HPLCMT-WEST ZN,0.0,0.00,0.00,0.00,10.85,50.00,1.90,1,1,1,0.00,25.00,0.00,100.00,0.00,3.80,3.80,7125.00,TARP,TARP,1875.00,0.00,0.00,0.00,6,0,0,Yes
 Zone Information, SP-DINING AREA - OTHER-SPACE FUNCTION SYS-3 FLR-1 SCH-B HPLCMT-SOUTH ZN,0.0,0.00,0.00,0.00,50.00,10.85,1.90,1,1,1,0.00,100.00,0.00,25.00,0.00,3.80,3.80,7125.00,TARP,TARP,1875.00,0.00,0.00,0.00,6,0,0,Yes
 Zone Information, SP-DINING AREA - PENITENTIARY-SPACE FUNCTION SYS-3 FLR-2 SCH-B HPLCMT-NORTH ZN,0.0,25.00,75.00,3.80,50.00,89.15,5.70,1,1,1,0.00,100.00,75.00,100.00,3.80,7.60,3.80,7125.00,TARP,TARP,1875.00,380.00,285.00,95.00,6,1,0,Yes
 Zone Information, SP-DINING AREA - SPACE DESIGNED TO ANSI/IES RP-28 (USED PRIMARILY BY RESIDENTS)-SPACE FUNCTION SYS-3 FLR-2 SCH-B HPLCMT-SOUTH ZN,0.0,0.00,0.00,3.80,50.00,10.85,5.70,1,1,1,0.00,100.00,0.00,25.00,3.80,7.60,3.80,7125.00,TARP,TARP,1875.00,380.00,285.00,95.00,6,1,0,Yes
 Zone Information, SP-DRESSING/FITTING ROOM - PERFORMING ARTS THEATRE-SPACE FUNCTION SYS-3 FLR-2 SCH-C HPLCMT-EAST ZN,0.0,75.00,25.00,3.80,89.15,50.00,5.70,1,1,1,75.00,100.00,0.00,100.00,3.80,7.60,3.80,7125.00,TARP,TARP,1875.00,380.00,285.00,95.00,6,1,0,Yes
 Zone Information, SP-EMERGENCY VEHICLE GARAGE-SPACE FUNCTION SYS-4 FLR-3 SCH-H HPLCMT-SOUTH ZN,0.0,0.00,0.00,7.60,50.00,10.85,9.50,1,1,1,0.00,100.00,0.00,25.00,7.60,11.40,3.80,7125.00,TARP,TARP,1875.00,380.00,285.00,95.00,6,1,0,Yes
 Zone Information, SP-FOOD PREPARATION AREA-SPACE FUNCTION SYS-3 FLR-2 SCH-B HPLCMT-CORE ZN,0.0,25.00,25.00,3.80,50.00,50.00,5.70,1,1,1,25.00,75.00,25.00,75.00,3.80,7.60,3.80,9500.00,TARP,TARP,2500.00,0.00,0.00,0.00,6,0,0,Yes
! <Zone Internal Gains Nominal>,Zone Name, Floor Area {m2},# Occupants,Area per Occupant {m2/person},Occupant per Area {person/m2},Interior Lighting {W/m2},Electric Load {W/m2},Gas Load {W/m2},Other Load {W/m2},Hot Water Eq {W/m2},Steam Equipment {W/m2},Sum Loads per Area {W/m2},Outdoor Controlled Baseboard Heat
 Zone Internal Gains Nominal, SP-AUDIENCE SEATING AREA PERMANENT - OTHER-SCH-H-SPACE FUNCTION SYS-3 FLR-4 SCH-H HPLCMT-CORE ZN,2500.00,500.2,4.998,0.200,4.602,1.000,0.000,0.000,0.000,0.000,5.602,No
 Zone Internal Gains Nominal, SP-AUDIENCE SEATING AREA PERMANENT - OTHER-SCH-I-SPACE FUNCTION SYS-3 FLR-4 SCH-I HPLCMT-NORTH ZN,1875.00,375.1,4.998,0.200,4.602,1.000,0.000,0.000,0.000,0.000,5.602,No
 Zone Internal Gains Nominal, SP-AUDIENCE SEATING AREA PERMANENT - OTHER-SCH-J-SPACE FUNCTION SYS-3 FLR-4 SCH-J HPLCMT-WEST ZN,1875.00,375.1,4.998,0.200,4.602,1.000,0.000,0.000,0.000,0.000,5.602,No
 Zone Internal Gains Nominal, SP-AUDIENCE SEATING AREA PERMANENT - OTHER-SCH-K-SPACE FUNCTION SYS-3 FLR-3 SCH-K HPLCMT-CORE ZN,2500.00,500.2,4.998,0.200,4.602,1.000,0.000,0.000,0.000,0.000,5.602,No
 Zone Internal Gains Nominal, SP-BANKING ACTIVITY AREA AND OFFICES-SPACE FUNCTION SYS-6 FLR-3 SCH-A HPLCMT-EAST ZN,1875.00,75.0,24.991,4.001E-002,10.904,5.002,0.000,0.000,0.000,0.000,15.906,No
 Zone Internal Gains Nominal, SP-CLASSROOM/LECTURE HALL/TRAINING ROOM - PENITENTARY-SPACE FUNCTION SYS-3 FLR-4 SCH-D HPLCMT-EAST ZN,1875.00,250.1,7.497,0.133,14.505,5.002,0.000,0.000,0.000,0.000,19.507,No
 Zone Internal Gains Nominal, SP-CLASSROOM/LECTURE HALL/TRAINING ROOM OTHER-SPACE FUNCTION SYS-3 FLR-3 SCH-D HPLCMT-WEST ZN,1875.00,250.1,7.497,0.133,13.405,5.002,0.000,0.000,0.000,0.000,18.407,No
 Zone Internal Gains Nominal, SP-CONFERENCE/MEETING/MULTI-PURPOSE ROOM-SPACE FUNCTION SYS-3 FLR-3 SCH-C HPLCMT-NORTH ZN,1875.00,375.1,4.998,0.200,13.305,1.000,0.000,0.000,0.000,0.000,14.305,No
 Zone Internal Gains Nominal, SP-CONFINEMENT CELL-SPACE FUNCTION SYS-3 FLR-1 SCH-G HPLCMT-NORTH ZN,1875.00,75.0,24.991,4.001E-002,8.803,0.000,0.000,0.000,0.000,0.000,8.803,No
 Zone Internal Gains Nominal, SP-COPY/PRINT ROOM-SPACE FUNCTION SYS-3 FLR-1 SCH-A HPLCMT-EAST ZN,1875.00,18.8,99.964,1.000E-002,7.803,60.022,0.000,0.000,0.000,0.000,67.825,No
 Zone Internal Gains Nominal, SP-COURTROOM-SPACE FUNCTION SYS-3 FLR-2 SCH-A HPLCMT-WEST ZN,1875.00,375.1,4.998,0.200,18.607,2.501,0.000,0.000,0.000,0.000,21.108,No
 Zone Internal Gains Nominal, SP-DINING AREA - BAR LOUNGE/LEISURE DINING-SPACE FUNCTION SYS-3 FLR-1 SCH-B HPLCMT-CORE ZN,2500.00,250.1,9.996,0.100,11.604,1.000,0.000,0.000,0.000,0.000,12.605,No
 Zone Internal Gains Nominal, SP-DINING AREA - CAFETERIA/FAST FOOD DINING-SPACE FUNCTION SYS-3 FLR-4 SCH-B HPLCMT-SOUTH ZN,1875.00,187.6,9.996,0.100,7.003,1.000,0.000,0.000,0.000,0.000,8.003,No
 Zone Internal Gains Nominal, SP-DINING AREA - FAMILY DINING-SPACE FUNCTION SYS-3 FLR-1 SCH-B HPLCMT-WEST ZN,1875.00,187.6,9.996,0.100,9.603,1.000,0.000,0.000,0.000,0.000,10.604,No
 Zone Internal Gains Nominal, SP-DINING AREA - OTHER-SPACE FUNCTION SYS-3 FLR-1 SCH-B HPLCMT-SOUTH ZN,1875.00,187.6,9.996,0.100,7.003,1.000,0.000,0.000,0.000,0.000,8.003,No
 Zone Internal Gains Nominal, SP-DINING AREA - PENITENTIARY-SPACE FUNCTION SYS-3 FLR-2 SCH-B HPLCMT-NORTH ZN,1875.00,187.6,9.996,0.100,10.304,1.000,0.000,0.000,0.000,0.000,11.304,No
 Zone Internal Gains Nominal, SP-DINING AREA - SPACE DESIGNED TO ANSI/IES RP-28 (USED PRIMARILY BY RESIDENTS)-SPACE FUNCTION SYS-3 FLR-2 SCH-B HPLCMT-SOUTH ZN,1875.00,187.6,9.996,0.100,28.510,1.000,0.000,0.000,0.000,0.000,29.511,No
 Zone Internal Gains Nominal, SP-DRESSING/FITTING ROOM - PERFORMING ARTS THEATRE-SPACE FUNCTION SYS-3 FLR-2 SCH-C HPLCMT-EAST ZN,1875.00,62.5,29.989,3.335E-002,6.602,2.501,0.000,0.000,0.000,0.000,9.103,No
 Zone Internal Gains Nominal, SP-EMERGENCY VEHICLE GARAGE-SPACE FUNCTION SYS-4 FLR-3 SCH-H HPLCMT-SOUTH ZN,1875.00,75.0,24.991,4.001E-002,6.102,2.501,0.000,0.000,0.000,0.000,8.603,No
 Zone Internal Gains Nominal, SP-FOOD PREPARATION AREA-SPACE FUNCTION SYS-3 FLR-2 SCH-B HPLCMT-CORE ZN,2500.00,125.0,19.993,5.002E-002,13.105,10.004,0.000,0.000,0.000,0.000,23.108,No
! <People Internal Gains Nominal>,Name,Schedule Name,Zone Name,Zone Floor Area {m2},# Zone Occupants,Number of People {},People/Floor Area {person/m2},Floor Area per person {m2/person},Fraction Radiant,Fraction Convected,Sensible Fraction Calculation,Activity level,ASHRAE 55 Warnings,Carbon Dioxide Generation Rate,Nominal Minimum Number of People,Nominal Maximum Number of People
 People Internal Gains Nominal, SP-AUDIENCE SEATING AREA PERMANENT - OTHER-SCH-H-SPACE FUNCTION SYS-3 FLR-4 SCH-H HPLCMT-CORE ZN SPACE FUNCTION AUDIENCE SEATING AREA PERMANENT - OTHER-SCH-H PEOPLE,NECB-H-OCCUPANCY,SP-AUDIENCE SEATING AREA PERMANENT - OTHER-SCH-H-SPACE FUNCTION SYS-3 FLR-4 SCH-H HPLCMT-CORE ZN,2500.00,500.2,500.2,0.200,4.998,0.300,0.700,AutoCalculate,NECB-ACTIVITY,No,3.8200E-008,450,450
 People Internal Gains Nominal, SP-AUDIENCE SEATING AREA PERMANENT - OTHER-SCH-I-SPACE FUNCTION SYS-3 FLR-4 SCH-I HPLCMT-NORTH ZN SPACE FUNCTION AUDIENCE SEATING AREA PERMANENT - OTHER-SCH-I PEOPLE,NECB-I-OCCUPANCY,SP-AUDIENCE SEATING AREA PERMANENT - OTHER-SCH-I-SPACE FUNCTION SYS-3 FLR-4 SCH-I HPLCMT-NORTH ZN,1875.00,375.1,375.1,0.200,4.998,0.300,0.700,AutoCalculate,NECB-ACTIVITY,No,3.8200E-008,0,300
 People Internal Gains Nominal, SP-AUDIENCE SEATING AREA PERMANENT - OTHER-SCH-J-SPACE FUNCTION SYS-3 FLR-4 SCH-J HPLCMT-WEST ZN SPACE FUNCTION AUDIENCE SEATING AREA PERMANENT - OTHER-SCH-J PEOPLE,NECB-J-OCCUPANCY,SP-AUDIENCE SEATING AREA PERMANENT - OTHER-SCH-J-SPACE FUNCTION SYS-3 FLR-4 SCH-J HPLCMT-WEST ZN,1875.00,375.1,375.1,0.200,4.998,0.300,0.700,AutoCalculate,NECB-ACTIVITY,No,3.8200E-008,225,338
 People Internal Gains Nominal, SP-AUDIENCE SEATING AREA PERMANENT - OTHER-SCH-K-SPACE FUNCTION SYS-3 FLR-3 SCH-K HPLCMT-CORE ZN SPACE FUNCTION AUDIENCE SEATING AREA PERMANENT - OTHER-SCH-K PEOPLE,NECB-K-OCCUPANCY,SP-AUDIENCE SEATING AREA PERMANENT - OTHER-SCH-K-SPACE FUNCTION SYS-3 FLR-3 SCH-K HPLCMT-CORE ZN,2500.00,500.2,500.2,0.200,4.998,0.300,0.700,AutoCalculate,NECB-ACTIVITY,No,3.8200E-008,0,450
 People Internal Gains Nominal, SP-BANKING ACTIVITY AREA AND OFFICES-SPACE FUNCTION SYS-6 FLR-3 SCH-A HPLCMT-EAST ZN SPACE FUNCTION BANKING ACTIVITY AREA AND OFFICES PEOPLE,NECB-A-OCCUPANCY,SP-BANKING ACTIVITY AREA AND OFFICES-SPACE FUNCTION SYS-6 FLR-3 SCH-A HPLCMT-EAST ZN,1875.00,75.0,75.0,4.001E-002,24.991,0.300,0.700,AutoCalculate,NECB-ACTIVITY,No,3.8200E-008,0,68
 People Internal Gains Nominal, SP-CLASSROOM/LECTURE HALL/TRAINING ROOM - PENITENTARY-SPACE FUNCTION SYS-3 FLR-4 SCH-D HPLCMT-EAST ZN SPACE FUNCTION CLASSROOM/LECTURE HALL/TRAINING ROOM - PENITENTARY PEOPLE,NECB-D-OCCUPANCY,SP-CLASSROOM/LECTURE HALL/TRAINING ROOM - PENITENTARY-SPACE FUNCTION SYS-3 FLR-4 SCH-D HPLCMT-EAST ZN,1875.00,250.1,250.1,0.133,7.497,0.300,0.700,AutoCalculate,NECB-ACTIVITY,No,3.8200E-008,0,225
 People Internal Gains Nominal, SP-CLASSROOM/LECTURE HALL/TRAINING ROOM OTHER-SPACE FUNCTION SYS-3 FLR-3 SCH-D HPLCMT-WEST ZN SPACE FUNCTION CLASSROOM/LECTURE HALL/TRAINING ROOM OTHER PEOPLE,NECB-D-OCCUPANCY,SP-CLASSROOM/LECTURE HALL/TRAINING ROOM OTHER-SPACE FUNCTION SYS-3 FLR-3 SCH-D HPLCMT-WEST ZN,1875.00,250.1,250.1,0.133,7.497,0.300,0.700,AutoCalculate,NECB-ACTIVITY,No,3.8200E-008,0,225
 People Internal Gains Nominal, SP-CONFERENCE/MEETING/MULTI-PURPOSE ROOM-SPACE FUNCTION SYS-3 FLR-3 SCH-C HPLCMT-NORTH ZN SPACE FUNCTION CONFERENCE/MEETING/MULTI-PURPOSE ROOM PEOPLE,NECB-C-OCCUPANCY,SP-CONFERENCE/MEETING/MULTI-PURPOSE ROOM-SPACE FUNCTION SYS-3 FLR-3 SCH-C HPLCMT-NORTH ZN,1875.00,375.1,375.1,0.200,4.998,0.300,0.700,AutoCalculate,NECB-ACTIVITY,No,3.8200E-008,0,338
 People Internal Gains Nominal, SP-CONFINEMENT CELL-SPACE FUNCTION SYS-3 FLR-1 SCH-G HPLCMT-NORTH ZN SPACE FUNCTION CONFINEMENT CELL PEOPLE,NECB-G-OCCUPANCY,SP-CONFINEMENT CELL-SPACE FUNCTION SYS-3 FLR-1 SCH-G HPLCMT-NORTH ZN,1875.00,75.0,75.0,4.001E-002,24.991,0.300,0.700,AutoCalculate,NECB-ACTIVITY,No,3.8200E-008,23,68
 People Internal Gains Nominal, SP-COPY/PRINT ROOM-SPACE FUNCTION SYS-3 FLR-1 SCH-A HPLCMT-EAST ZN SPACE FUNCTION COPY/PRINT ROOM PEOPLE,NECB-A-OCCUPANCY,SP-COPY/PRINT ROOM-SPACE FUNCTION SYS-3 FLR-1 SCH-A HPLCMT-EAST ZN,1875.00,18.8,18.8,1.000E-002,99.964,0.300,0.700,AutoCalculate,NECB-ACTIVITY,No,3.8200E-008,0,17
 People Internal Gains Nominal, SP-COURTROOM-SPACE FUNCTION SYS-3 FLR-2 SCH-A HPLCMT-WEST ZN SPACE FUNCTION COURTROOM PEOPLE,NECB-A-OCCUPANCY,SP-COURTROOM-SPACE FUNCTION SYS-3 FLR-2 SCH-A HPLCMT-WEST ZN,1875.00,375.1,375.1,0.200,4.998,0.300,0.700,AutoCalculate,NECB-ACTIVITY,No,3.8200E-008,0,338
 People Internal Gains Nominal, SP-DINING AREA - BAR LOUNGE/LEISURE DINING-SPACE FUNCTION SYS-3 FLR-1 SCH-B HPLCMT-CORE ZN SPACE FUNCTION DINING AREA - BAR LOUNGE/LEISURE DINING PEOPLE,NECB-B-OCCUPANCY,SP-DINING AREA - BAR LOUNGE/LEISURE DINING-SPACE FUNCTION SYS-3 FLR-1 SCH-B HPLCMT-CORE ZN,2500.00,250.1,250.1,0.100,9.996,0.300,0.700,AutoCalculate,NECB-ACTIVITY,No,3.8200E-008,0,225
 People Internal Gains Nominal, SP-DINING AREA - CAFETERIA/FAST FOOD DINING-SPACE FUNCTION SYS-3 FLR-4 SCH-B HPLCMT-SOUTH ZN SPACE FUNCTION DINING AREA - CAFETERIA/FAST FOOD DINING PEOPLE,NECB-B-OCCUPANCY,SP-DINING AREA - CAFETERIA/FAST FOOD DINING-SPACE FUNCTION SYS-3 FLR-4 SCH-B HPLCMT-SOUTH ZN,1875.00,187.6,187.6,0.100,9.996,0.300,0.700,AutoCalculate,NECB-ACTIVITY,No,3.8200E-008,0,169
 People Internal Gains Nominal, SP-DINING AREA - FAMILY DINING-SPACE FUNCTION SYS-3 FLR-1 SCH-B HPLCMT-WEST ZN SPACE FUNCTION DINING AREA - FAMILY DINING PEOPLE,NECB-B-OCCUPANCY,SP-DINING AREA - FAMILY DINING-SPACE FUNCTION SYS-3 FLR-1 SCH-B HPLCMT-WEST ZN,1875.00,187.6,187.6,0.100,9.996,0.300,0.700,AutoCalculate,NECB-ACTIVITY,No,3.8200E-008,0,169
 People Internal Gains Nominal, SP-DINING AREA - OTHER-SPACE FUNCTION SYS-3 FLR-1 SCH-B HPLCMT-SOUTH ZN SPACE FUNCTION DINING AREA - OTHER PEOPLE,NECB-B-OCCUPANCY,SP-DINING AREA - OTHER-SPACE FUNCTION SYS-3 FLR-1 SCH-B HPLCMT-SOUTH ZN,1875.00,187.6,187.6,0.100,9.996,0.300,0.700,AutoCalculate,NECB-ACTIVITY,No,3.8200E-008,0,169
 People Internal Gains Nominal, SP-DINING AREA - PENITENTIARY-SPACE FUNCTION SYS-3 FLR-2 SCH-B HPLCMT-NORTH ZN SPACE FUNCTION DINING AREA - PENITENTIARY PEOPLE,NECB-B-OCCUPANCY,SP-DINING AREA - PENITENTIARY-SPACE FUNCTION SYS-3 FLR-2 SCH-B HPLCMT-NORTH ZN,1875.00,187.6,187.6,0.100,9.996,0.300,0.700,AutoCalculate,NECB-ACTIVITY,No,3.8200E-008,0,169
 People Internal Gains Nominal, SP-DINING AREA - SPACE DESIGNED TO ANSI/IES RP-28 (USED PRIMARILY BY RESIDENTS)-SPACE FUNCTION SYS-3 FLR-2 SCH-B HPLCMT-SOUTH ZN SPACE FUNCTION DINING AREA - SPACE DESIGNED TO ANSI/IES RP-28 (USED PRIMARILY BY RESIDENTS) PEOPLE,NECB-B-OCCUPANCY,SP-DINING AREA - SPACE DESIGNED TO ANSI/IES RP-28 (USED PRIMARILY BY RESIDENTS)-SPACE FUNCTION SYS-3 FLR-2 SCH-B HPLCMT-SOUTH ZN,1875.00,187.6,187.6,0.100,9.996,0.300,0.700,AutoCalculate,NECB-ACTIVITY,No,3.8200E-008,0,169
 People Internal Gains Nominal, SP-DRESSING/FITTING ROOM - PERFORMING ARTS THEATRE-SPACE FUNCTION SYS-3 FLR-2 SCH-C HPLCMT-EAST ZN SPACE FUNCTION DRESSING/FITTING ROOM - PERFORMING ARTS THEATRE PEOPLE,NECB-C-OCCUPANCY,SP-DRESSING/FITTING ROOM - PERFORMING ARTS THEATRE-SPACE FUNCTION SYS-3 FLR-2 SCH-C HPLCMT-EAST ZN,1875.00,62.5,62.5,3.335E-002,29.989,0.300,0.700,AutoCalculate,NECB-ACTIVITY,No,3.8200E-008,0,56
 People Internal Gains Nominal, SP-EMERGENCY VEHICLE GARAGE-SPACE FUNCTION SYS-4 FLR-3 SCH-H HPLCMT-SOUTH ZN SPACE FUNCTION EMERGENCY VEHICLE GARAGE PEOPLE,NECB-H-OCCUPANCY,SP-EMERGENCY VEHICLE GARAGE-SPACE FUNCTION SYS-4 FLR-3 SCH-H HPLCMT-SOUTH ZN,1875.00,75.0,75.0,4.001E-002,24.991,0.300,0.700,AutoCalculate,NECB-ACTIVITY,No,3.8200E-008,68,68
 People Internal Gains Nominal, SP-FOOD PREPARATION AREA-SPACE FUNCTION SYS-3 FLR-2 SCH-B HPLCMT-CORE ZN SPACE FUNCTION FOOD PREPARATION AREA PEOPLE,NECB-B-OCCUPANCY,SP-FOOD PREPARATION AREA-SPACE FUNCTION SYS-3 FLR-2 SCH-B HPLCMT-CORE ZN,2500.00,125.0,125.0,5.002E-002,19.993,0.300,0.700,AutoCalculate,NECB-ACTIVITY,No,3.8200E-008,0,113
! <Lights Internal Gains Nominal>,Name,Schedule Name,Zone Name,Zone Floor Area {m2},# Zone Occupants,Lighting Level {W},Lights/Floor Area {W/m2},Lights per person {W/person},Fraction Return Air,Fraction Radiant,Fraction Short Wave,Fraction Convected,Fraction Replaceable,End-Use Category,Nominal Minimum Lighting Level {W},Nominal Maximum Lighting Level {W}
 Lights Internal Gains Nominal, SP-AUDIENCE SEATING AREA PERMANENT - OTHER-SCH-H-SPACE FUNCTION SYS-3 FLR-4 SCH-H HPLCMT-CORE ZN SPACE FUNCTION AUDIENCE SEATING AREA PERMANENT - OTHER-SCH-H LIGHTS,NECB-H-LIGHTING,SP-AUDIENCE SEATING AREA PERMANENT - OTHER-SCH-H-SPACE FUNCTION SYS-3 FLR-4 SCH-H HPLCMT-CORE ZN,2500.00,500.2,11504.179,4.602,23.000,0.000,0.500,0.200,0.300,1.000,General,10353.761,10353.761
 Lights Internal Gains Nominal, SP-AUDIENCE SEATING AREA PERMANENT - OTHER-SCH-I-SPACE FUNCTION SYS-3 FLR-4 SCH-I HPLCMT-NORTH ZN SPACE FUNCTION AUDIENCE SEATING AREA PERMANENT - OTHER-SCH-I LIGHTS,NECB-I-LIGHTING,SP-AUDIENCE SEATING AREA PERMANENT - OTHER-SCH-I-SPACE FUNCTION SYS-3 FLR-4 SCH-I HPLCMT-NORTH ZN,1875.00,375.1,8628.135,4.602,23.000,0.000,0.500,0.200,0.300,1.000,General,431.407,7765.321
 Lights Internal Gains Nominal, SP-AUDIENCE SEATING AREA PERMANENT - OTHER-SCH-J-SPACE FUNCTION SYS-3 FLR-4 SCH-J HPLCMT-WEST ZN SPACE FUNCTION AUDIENCE SEATING AREA PERMANENT - OTHER-SCH-J LIGHTS,NECB-J-LIGHTING,SP-AUDIENCE SEATING AREA PERMANENT - OTHER-SCH-J-SPACE FUNCTION SYS-3 FLR-4 SCH-J HPLCMT-WEST ZN,1875.00,375.1,8628.135,4.602,23.000,0.000,0.500,0.200,0.300,1.000,General,862.813,6039.694
 Lights Internal Gains Nominal, SP-AUDIENCE SEATING AREA PERMANENT - OTHER-SCH-K-SPACE FUNCTION SYS-3 FLR-3 SCH-K HPLCMT-CORE ZN SPACE FUNCTION AUDIENCE SEATING AREA PERMANENT - OTHER-SCH-K LIGHTS,NECB-K-LIGHTING,SP-AUDIENCE SEATING AREA PERMANENT - OTHER-SCH-K-SPACE FUNCTION SYS-3 FLR-3 SCH-K HPLCMT-CORE ZN,2500.00,500.2,11504.179,4.602,23.000,0.000,0.500,0.200,0.300,1.000,General,10353.761,10353.761
 Lights Internal Gains Nominal, SP-BANKING ACTIVITY AREA AND OFFICES-SPACE FUNCTION SYS-6 FLR-3 SCH-A HPLCMT-EAST ZN SPACE FUNCTION BANKING ACTIVITY AREA AND OFFICES LIGHTS,NECB-A-OCCUPANCY-NECB-A-LIGHTING-0.0-0.0-0.67-LIGHT RULESET,SP-BANKING ACTIVITY AREA AND OFFICES-SPACE FUNCTION SYS-6 FLR-3 SCH-A HPLCMT-EAST ZN,1875.00,75.0,20444.927,10.904,272.500,0.000,0.500,0.200,0.300,1.000,General,1022.246,18400.435
 Lights Internal Gains Nominal, SP-CLASSROOM/LECTURE HALL/TRAINING ROOM - PENITENTARY-SPACE FUNCTION SYS-3 FLR-4 SCH-D HPLCMT-EAST ZN SPACE FUNCTION CLASSROOM/LECTURE HALL/TRAINING ROOM - PENITENTARY LIGHTS,NECB-D-OCCUPANCY-NECB-D-LIGHTING-0.5-0.0-0.67-LIGHT RULESET,SP-CLASSROOM/LECTURE HALL/TRAINING ROOM - PENITENTARY-SPACE FUNCTION SYS-3 FLR-4 SCH-D HPLCMT-EAST ZN,1875.00,250.1,27197.381,14.505,108.750,0.000,0.500,0.200,0.300,1.000,General,904.313,24477.642
 Lights Internal Gains Nominal, SP-CLASSROOM/LECTURE HALL/TRAINING ROOM OTHER-SPACE FUNCTION SYS-3 FLR-3 SCH-D HPLCMT-WEST ZN SPACE FUNCTION CLASSROOM/LECTURE HALL/TRAINING ROOM OTHER LIGHTS,NECB-D-OCCUPANCY-NECB-D-LIGHTING-0.5-0.0-0.67-LIGHT RULESET,SP-CLASSROOM/LECTURE HALL/TRAINING ROOM OTHER-SPACE FUNCTION SYS-3 FLR-3 SCH-D HPLCMT-WEST ZN,1875.00,250.1,25134.131,13.405,100.500,0.000,0.500,0.200,0.300,1.000,General,835.710,22620.718
 Lights Internal Gains Nominal, SP-CONFERENCE/MEETING/MULTI-PURPOSE ROOM-SPACE FUNCTION SYS-3 FLR-3 SCH-C HPLCMT-NORTH ZN SPACE FUNCTION CONFERENCE/MEETING/MULTI-PURPOSE ROOM LIGHTS,NECB-C-OCCUPANCY-NECB-C-LIGHTING-0.5-0.0-0.67-LIGHT RULESET,SP-CONFERENCE/MEETING/MULTI-PURPOSE ROOM-SPACE FUNCTION SYS-3 FLR-3 SCH-C HPLCMT-NORTH ZN,1875.00,375.1,24946.563,13.305,66.500,0.000,0.500,0.200,0.300,1.000,General,829.473,22451.907
 Lights Internal Gains Nominal, SP-CONFINEMENT CELL-SPACE FUNCTION SYS-3 FLR-1 SCH-G HPLCMT-NORTH ZN SPACE FUNCTION CONFINEMENT CELL LIGHTS,NECB-G-OCCUPANCY-NECB-G-LIGHTING-0.0-0.0-0.67-LIGHT RULESET,SP-CONFINEMENT CELL-SPACE FUNCTION SYS-3 FLR-1 SCH-G HPLCMT-NORTH ZN,1875.00,75.0,16505.996,8.803,220.000,0.000,0.500,0.200,0.300,1.000,General,0.000,14855.397
 Lights Internal Gains Nominal, SP-COPY/PRINT ROOM-SPACE FUNCTION SYS-3 FLR-1 SCH-A HPLCMT-EAST ZN SPACE FUNCTION COPY/PRINT ROOM LIGHTS,NECB-A-LIGHTING,SP-COPY/PRINT ROOM-SPACE FUNCTION SYS-3 FLR-1 SCH-A HPLCMT-EAST ZN,1875.00,18.8,14630.315,7.803,780.000,0.000,0.500,0.200,0.300,1.000,General,731.516,13167.284
 Lights Internal Gains Nominal, SP-COURTROOM-SPACE FUNCTION SYS-3 FLR-2 SCH-A HPLCMT-WEST ZN SPACE FUNCTION COURTROOM LIGHTS,NECB-A-OCCUPANCY-NECB-A-LIGHTING-0.2-0.0-0.67-LIGHT RULESET,SP-COURTROOM-SPACE FUNCTION SYS-3 FLR-2 SCH-A HPLCMT-WEST ZN,1875.00,375.1,34887.674,18.607,93.000,0.000,0.500,0.200,0.300,1.000,General,1510.636,31398.907
 Lights Internal Gains Nominal, SP-DINING AREA - BAR LOUNGE/LEISURE DINING-SPACE FUNCTION SYS-3 FLR-1 SCH-B HPLCMT-CORE ZN SPACE FUNCTION DINING AREA - BAR LOUNGE/LEISURE DINING LIGHTS,NECB-B-OCCUPANCY-NECB-B-LIGHTING-0.0-0.0-0.67-LIGHT RULESET,SP-DINING AREA - BAR LOUNGE/LEISURE DINING-SPACE FUNCTION SYS-3 FLR-1 SCH-B HPLCMT-CORE ZN,2500.00,250.1,29010.539,11.604,116.000,0.000,0.500,0.200,0.300,1.000,General,2901.054,26109.485
 Lights Internal Gains Nominal, SP-DINING AREA - CAFETERIA/FAST FOOD DINING-SPACE FUNCTION SYS-3 FLR-4 SCH-B HPLCMT-SOUTH ZN SPACE FUNCTION DINING AREA - CAFETERIA/FAST FOOD DINING LIGHTS,NECB-B-LIGHTING,SP-DINING AREA - CAFETERIA/FAST FOOD DINING-SPACE FUNCTION SYS-3 FLR-4 SCH-B HPLCMT-SOUTH ZN,1875.00,187.6,13129.770,7.003,70.000,0.000,0.500,0.200,0.300,1.000,General,1312.977,11816.793
 Lights Internal Gains Nominal, SP-DINING AREA - FAMILY DINING-SPACE FUNCTION SYS-3 FLR-1 SCH-B HPLCMT-WEST ZN SPACE FUNCTION DINING AREA - FAMILY DINING LIGHTS,NECB-B-OCCUPANCY-NECB-B-LIGHTING-0.0-0.0-0.67-LIGHT RULESET,SP-DINING AREA - FAMILY DINING-SPACE FUNCTION SYS-3 FLR-1 SCH-B HPLCMT-WEST ZN,1875.00,187.6,18006.542,9.603,96.000,0.000,0.500,0.200,0.300,1.000,General,1800.654,16205.887
 Lights Internal Gains Nominal, SP-DINING AREA - OTHER-SPACE FUNCTION SYS-3 FLR-1 SCH-B HPLCMT-SOUTH ZN SPACE FUNCTION DINING AREA - OTHER LIGHTS,NECB-B-LIGHTING,SP-DINING AREA - OTHER-SPACE FUNCTION SYS-3 FLR-1 SCH-B HPLCMT-SOUTH ZN,1875.00,187.6,13129.770,7.003,70.000,0.000,0.500,0.200,0.300,1.000,General,1312.977,11816.793
 Lights Internal Gains Nominal, SP-DINING AREA - PENITENTIARY-SPACE FUNCTION SYS-3 FLR-2 SCH-B HPLCMT-NORTH ZN SPACE FUNCTION DINING AREA - PENITENTIARY LIGHTS,NECB-B-OCCUPANCY-NECB-B-LIGHTING-0.0-0.0-0.67-LIGHT RULESET,SP-DINING AREA - PENITENTIARY-SPACE FUNCTION SYS-3 FLR-2 SCH-B HPLCMT-NORTH ZN,1875.00,187.6,19319.519,10.304,103.000,0.000,0.500,0.200,0.300,1.000,General,1931.952,17387.567
 Lights Internal Gains Nominal, SP-DINING AREA - SPACE DESIGNED TO ANSI/IES RP-28 (USED PRIMARILY BY RESIDENTS)-SPACE FUNCTION SYS-3 FLR-2 SCH-B HPLCMT-SOUTH ZN SPACE FUNCTION DINING AREA - SPACE DESIGNED TO ANSI/IES RP-28 (USED PRIMARILY BY RESIDENTS) LIGHTS,NECB-B-OCCUPANCY-NECB-B-LIGHTING-0.0-0.0-0.67-LIGHT RULESET,SP-DINING AREA - SPACE DESIGNED TO ANSI/IES RP-28 (USED PRIMARILY BY RESIDENTS)-SPACE FUNCTION SYS-3 FLR-2 SCH-B HPLCMT-SOUTH ZN,1875.00,187.6,53456.920,28.510,285.000,0.000,0.500,0.200,0.300,1.000,General,5345.692,48111.228
 Lights Internal Gains Nominal, SP-DRESSING/FITTING ROOM - PERFORMING ARTS THEATRE-SPACE FUNCTION SYS-3 FLR-2 SCH-C HPLCMT-EAST ZN SPACE FUNCTION DRESSING/FITTING ROOM - PERFORMING ARTS THEATRE LIGHTS,NECB-C-LIGHTING,SP-DRESSING/FITTING ROOM - PERFORMING ARTS THEATRE-SPACE FUNCTION SYS-3 FLR-2 SCH-C HPLCMT-EAST ZN,1875.00,62.5,12379.497,6.602,198.000,0.000,0.500,0.200,0.300,1.000,General,618.975,11141.548
 Lights Internal Gains Nominal, SP-EMERGENCY VEHICLE GARAGE-SPACE FUNCTION SYS-4 FLR-3 SCH-H HPLCMT-SOUTH ZN SPACE FUNCTION EMERGENCY VEHICLE GARAGE LIGHTS,NECB-H-LIGHTING,SP-EMERGENCY VEHICLE GARAGE-SPACE FUNCTION SYS-4 FLR-3 SCH-H HPLCMT-SOUTH ZN,1875.00,75.0,11441.657,6.102,152.500,0.000,0.500,0.200,0.300,1.000,General,10297.491,10297.491
 Lights Internal Gains Nominal, SP-FOOD PREPARATION AREA-SPACE FUNCTION SYS-3 FLR-2 SCH-B HPLCMT-CORE ZN SPACE FUNCTION FOOD PREPARATION AREA LIGHTS,NECB-B-OCCUPANCY-NECB-B-LIGHTING-0.0-0.0-0.67-LIGHT RULESET,SP-FOOD PREPARATION AREA-SPACE FUNCTION SYS-3 FLR-2 SCH-B HPLCMT-CORE ZN,2500.00,125.0,32761.902,13.105,262.000,0.000,0.500,0.200,0.300,1.000,General,3276.190,29485.712
! <ElectricEquipment Internal Gains Nominal>,Name,Schedule Name,Zone Name,Zone Floor Area {m2},# Zone Occupants,Equipment Level {W},Equipment/Floor Area {W/m2},Equipment per person {W/person},Fraction Latent,Fraction Radiant,Fraction Lost,Fraction Convected,End-Use SubCategory,Nominal Minimum Equipment Level {W},Nominal Maximum Equipment Level {W}
 ElectricEquipment Internal Gains Nominal, SP-AUDIENCE SEATING AREA PERMANENT - OTHER-SCH-H-SPACE FUNCTION SYS-3 FLR-4 SCH-H HPLCMT-CORE ZN SPACE FUNCTION AUDIENCE SEATING AREA PERMANENT - OTHER-SCH-H ELEC EQUIP,NECB-H-ELECTRIC-EQUIPMENT,SP-AUDIENCE SEATING AREA PERMANENT - OTHER-SCH-H-SPACE FUNCTION SYS-3 FLR-4 SCH-H HPLCMT-CORE ZN,2500.00,500.2,2500.909,1.000,5.000,0.000,0.500,0.000,0.500,General,2250.818,2250.818
 ElectricEquipment Internal Gains Nominal, SP-AUDIENCE SEATING AREA PERMANENT - OTHER-SCH-I-SPACE FUNCTION SYS-3 FLR-4 SCH-I HPLCMT-NORTH ZN SPACE FUNCTION AUDIENCE SEATING AREA PERMANENT - OTHER-SCH-I ELEC EQUIP,NECB-I-ELECTRIC-EQUIPMENT,SP-AUDIENCE SEATING AREA PERMANENT - OTHER-SCH-I-SPACE FUNCTION SYS-3 FLR-4 SCH-I HPLCMT-NORTH ZN,1875.00,375.1,1875.681,1.000,5.000,0.000,0.500,0.000,0.500,General,187.568,1500.545
 ElectricEquipment Internal Gains Nominal, SP-AUDIENCE SEATING AREA PERMANENT - OTHER-SCH-J-SPACE FUNCTION SYS-3 FLR-4 SCH-J HPLCMT-WEST ZN SPACE FUNCTION AUDIENCE SEATING AREA PERMANENT - OTHER-SCH-J ELEC EQUIP,NECB-J-ELECTRIC-EQUIPMENT,SP-AUDIENCE SEATING AREA PERMANENT - OTHER-SCH-J-SPACE FUNCTION SYS-3 FLR-4 SCH-J HPLCMT-WEST ZN,1875.00,375.1,1875.681,1.000,5.000,0.000,0.500,0.000,0.500,General,187.568,1312.977
 ElectricEquipment Internal Gains Nominal, SP-AUDIENCE SEATING AREA PERMANENT - OTHER-SCH-K-SPACE FUNCTION SYS-3 FLR-3 SCH-K HPLCMT-CORE ZN SPACE FUNCTION AUDIENCE SEATING AREA PERMANENT - OTHER-SCH-K ELEC EQUIP,NECB-K-ELECTRIC-EQUIPMENT,SP-AUDIENCE SEATING AREA PERMANENT - OTHER-SCH-K-SPACE FUNCTION SYS-3 FLR-3 SCH-K HPLCMT-CORE ZN,2500.00,500.2,2500.909,1.000,5.000,0.000,0.500,0.000,0.500,General,0.000,0.000
 ElectricEquipment Internal Gains Nominal, SP-BANKING ACTIVITY AREA AND OFFICES-SPACE FUNCTION SYS-6 FLR-3 SCH-A HPLCMT-EAST ZN SPACE FUNCTION BANKING ACTIVITY AREA AND OFFICES ELEC EQUIP,NECB-A-ELECTRIC-EQUIPMENT,SP-BANKING ACTIVITY AREA AND OFFICES-SPACE FUNCTION SYS-6 FLR-3 SCH-A HPLCMT-EAST ZN,1875.00,75.0,9378.407,5.002,125.000,0.000,0.500,0.000,0.500,General,1875.681,8440.566
 ElectricEquipment Internal Gains Nominal, SP-CLASSROOM/LECTURE HALL/TRAINING ROOM - PENITENTARY-SPACE FUNCTION SYS-3 FLR-4 SCH-D HPLCMT-EAST ZN SPACE FUNCTION CLASSROOM/LECTURE HALL/TRAINING ROOM - PENITENTARY ELEC EQUIP,NECB-D-ELECTRIC-EQUIPMENT,SP-CLASSROOM/LECTURE HALL/TRAINING ROOM - PENITENTARY-SPACE FUNCTION SYS-3 FLR-4 SCH-D HPLCMT-EAST ZN,1875.00,250.1,9378.407,5.002,37.500,0.000,0.500,0.000,0.500,General,468.920,8440.566
 ElectricEquipment Internal Gains Nominal, SP-CLASSROOM/LECTURE HALL/TRAINING ROOM OTHER-SPACE FUNCTION SYS-3 FLR-3 SCH-D HPLCMT-WEST ZN SPACE FUNCTION CLASSROOM/LECTURE HALL/TRAINING ROOM OTHER ELEC EQUIP,NECB-D-ELECTRIC-EQUIPMENT,SP-CLASSROOM/LECTURE HALL/TRAINING ROOM OTHER-SPACE FUNCTION SYS-3 FLR-3 SCH-D HPLCMT-WEST ZN,1875.00,250.1,9378.407,5.002,37.500,0.000,0.500,0.000,0.500,General,468.920,8440.566
 ElectricEquipment Internal Gains Nominal, SP-CONFERENCE/MEETING/MULTI-PURPOSE ROOM-SPACE FUNCTION SYS-3 FLR-3 SCH-C HPLCMT-NORTH ZN SPACE FUNCTION CONFERENCE/MEETING/MULTI-PURPOSE ROOM ELEC EQUIP,NECB-C-ELECTRIC-EQUIPMENT,SP-CONFERENCE/MEETING/MULTI-PURPOSE ROOM-SPACE FUNCTION SYS-3 FLR-3 SCH-C HPLCMT-NORTH ZN,1875.00,375.1,1875.681,1.000,5.000,0.000,0.500,0.000,0.500,General,93.784,1688.113
 ElectricEquipment Internal Gains Nominal, SP-COPY/PRINT ROOM-SPACE FUNCTION SYS-3 FLR-1 SCH-A HPLCMT-EAST ZN SPACE FUNCTION COPY/PRINT ROOM ELEC EQUIP,NECB-A-ELECTRIC-EQUIPMENT,SP-COPY/PRINT ROOM-SPACE FUNCTION SYS-3 FLR-1 SCH-A HPLCMT-EAST ZN,1875.00,18.8,112540.885,60.022,6000.000,0.000,0.500,0.000,0.500,General,22508.177,101286.796
 ElectricEquipment Internal Gains Nominal, SP-COURTROOM-SPACE FUNCTION SYS-3 FLR-2 SCH-A HPLCMT-WEST ZN SPACE FUNCTION COURTROOM ELEC EQUIP,NECB-A-ELECTRIC-EQUIPMENT,SP-COURTROOM-SPACE FUNCTION SYS-3 FLR-2 SCH-A HPLCMT-WEST ZN,1875.00,375.1,4689.204,2.501,12.500,0.000,0.500,0.000,0.500,General,937.841,4220.283
 ElectricEquipment Internal Gains Nominal, SP-DINING AREA - BAR LOUNGE/LEISURE DINING-SPACE FUNCTION SYS-3 FLR-1 SCH-B HPLCMT-CORE ZN SPACE FUNCTION DINING AREA - BAR LOUNGE/LEISURE DINING ELEC EQUIP,NECB-B-ELECTRIC-EQUIPMENT,SP-DINING AREA - BAR LOUNGE/LEISURE DINING-SPACE FUNCTION SYS-3 FLR-1 SCH-B HPLCMT-CORE ZN,2500.00,250.1,2500.909,1.000,10.000,0.000,0.500,0.000,0.500,General,250.091,2250.818
 ElectricEquipment Internal Gains Nominal, SP-DINING AREA - CAFETERIA/FAST FOOD DINING-SPACE FUNCTION SYS-3 FLR-4 SCH-B HPLCMT-SOUTH ZN SPACE FUNCTION DINING AREA - CAFETERIA/FAST FOOD DINING ELEC EQUIP,NECB-B-ELECTRIC-EQUIPMENT,SP-DINING AREA - CAFETERIA/FAST FOOD DINING-SPACE FUNCTION SYS-3 FLR-4 SCH-B HPLCMT-SOUTH ZN,1875.00,187.6,1875.681,1.000,10.000,0.000,0.500,0.000,0.500,General,187.568,1688.113
 ElectricEquipment Internal Gains Nominal, SP-DINING AREA - FAMILY DINING-SPACE FUNCTION SYS-3 FLR-1 SCH-B HPLCMT-WEST ZN SPACE FUNCTION DINING AREA - FAMILY DINING ELEC EQUIP,NECB-B-ELECTRIC-EQUIPMENT,SP-DINING AREA - FAMILY DINING-SPACE FUNCTION SYS-3 FLR-1 SCH-B HPLCMT-WEST ZN,1875.00,187.6,1875.681,1.000,10.000,0.000,0.500,0.000,0.500,General,187.568,1688.113
 ElectricEquipment Internal Gains Nominal, SP-DINING AREA - OTHER-SPACE FUNCTION SYS-3 FLR-1 SCH-B HPLCMT-SOUTH ZN SPACE FUNCTION DINING AREA - OTHER ELEC EQUIP,NECB-B-ELECTRIC-EQUIPMENT,SP-DINING AREA - OTHER-SPACE FUNCTION SYS-3 FLR-1 SCH-B HPLCMT-SOUTH ZN,1875.00,187.6,1875.681,1.000,10.000,0.000,0.500,0.000,0.500,General,187.568,1688.113
 ElectricEquipment Internal Gains Nominal, SP-DINING AREA - PENITENTIARY-SPACE FUNCTION SYS-3 FLR-2 SCH-B HPLCMT-NORTH ZN SPACE FUNCTION DINING AREA - PENITENTIARY ELEC EQUIP,NECB-B-ELECTRIC-EQUIPMENT,SP-DINING AREA - PENITENTIARY-SPACE FUNCTION SYS-3 FLR-2 SCH-B HPLCMT-NORTH ZN,1875.00,187.6,1875.681,1.000,10.000,0.000,0.500,0.000,0.500,General,187.568,1688.113
 ElectricEquipment Internal Gains Nominal, SP-DINING AREA - SPACE DESIGNED TO ANSI/IES RP-28 (USED PRIMARILY BY RESIDENTS)-SPACE FUNCTION SYS-3 FLR-2 SCH-B HPLCMT-SOUTH ZN SPACE FUNCTION DINING AREA - SPACE DESIGNED TO ANSI/IES RP-28 (USED PRIMARILY BY RESIDENTS) ELEC EQUIP,NECB-B-ELECTRIC-EQUIPMENT,SP-DINING AREA - SPACE DESIGNED TO ANSI/IES RP-28 (USED PRIMARILY BY RESIDENTS)-SPACE FUNCTION SYS-3 FLR-2 SCH-B HPLCMT-SOUTH ZN,1875.00,187.6,1875.681,1.000,10.000,0.000,0.500,0.000,0.500,General,187.568,1688.113
 ElectricEquipment Internal Gains Nominal, SP-DRESSING/FITTING ROOM - PERFORMING ARTS THEATRE-SPACE FUNCTION SYS-3 FLR-2 SCH-C HPLCMT-EAST ZN SPACE FUNCTION DRESSING/FITTING ROOM - PERFORMING ARTS THEATRE ELEC EQUIP,NECB-C-ELECTRIC-EQUIPMENT,SP-DRESSING/FITTING ROOM - PERFORMING ARTS THEATRE-SPACE FUNCTION SYS-3 FLR-2 SCH-C HPLCMT-EAST ZN,1875.00,62.5,4689.204,2.501,75.000,0.000,0.500,0.000,0.500,General,234.460,4220.283
 ElectricEquipment Internal Gains Nominal, SP-EMERGENCY VEHICLE GARAGE-SPACE FUNCTION SYS-4 FLR-3 SCH-H HPLCMT-SOUTH ZN SPACE FUNCTION EMERGENCY VEHICLE GARAGE ELEC EQUIP,NECB-H-ELECTRIC-EQUIPMENT,SP-EMERGENCY VEHICLE GARAGE-SPACE FUNCTION SYS-4 FLR-3 SCH-H HPLCMT-SOUTH ZN,1875.00,75.0,4689.204,2.501,62.500,0.000,0.500,0.000,0.500,General,4220.283,4220.283
 ElectricEquipment Internal Gains Nominal, SP-FOOD PREPARATION AREA-SPACE FUNCTION SYS-3 FLR-2 SCH-B HPLCMT-CORE ZN SPACE FUNCTION FOOD PREPARATION AREA ELEC EQUIP,NECB-B-ELECTRIC-EQUIPMENT,SP-FOOD PREPARATION AREA-SPACE FUNCTION SYS-3 FLR-2 SCH-B HPLCMT-CORE ZN,2500.00,125.0,25009.086,10.004,200.000,0.000,0.500,0.000,0.500,General,2500.909,22508.177
! <Shadowing/Sun Position Calculations Annual Simulations>, Calculation Method, Value {days}, Allowable Number Figures in Shadow Overlap {}, Polygon Clipping Algorithm, Sky Diffuse Modeling Algorithm, External Shading Calculation Method, Output External Shading Calculation Results, Disable Self-Shading Within Shading Zone Groups, Disable Self-Shading From Shading Zone Groups to Other Zones
Shadowing/Sun Position Calculations Annual Simulations,AverageOverDaysInFrequency,20,15000,SutherlandHodgman,SimpleSkyDiffuseModeling,InternalCalculation,No,No,No
! <Water Heater Information>,Type,Name,Volume {m3},Maximum Capacity {W},Standard Rated Recovery Efficiency, Standard Rated Energy Factor
! <ZoneInfiltration Airflow Stats Nominal>,Name,Schedule Name,Zone Name, Zone Floor Area {m2}, # Zone Occupants,Design Volume Flow Rate {m3/s},Volume Flow Rate/Floor Area {m3/s/m2},Volume Flow Rate/Exterior Surface Area {m3/s/m2},ACH - Air Changes per Hour,Equation A - Constant Term Coefficient {},Equation B - Temperature Term Coefficient {1/C},Equation C - Velocity Term Coefficient {s/m}, Equation D - Velocity Squared Term Coefficient {s2/m2}
 ZoneInfiltration Airflow Stats Nominal, AUDIENCE SEATING AREA PERMANENT - OTHER-SCH-H-SPACE FUNCTION INFILTRATION,ALWAYS ON DISCRETE,SP-AUDIENCE SEATING AREA PERMANENT - OTHER-SCH-H-SPACE FUNCTION SYS-3 FLR-4 SCH-H HPLCMT-CORE ZN,2500.00,500.2,0.625,2.500E-004,2.500E-004,0.237,0.000,0.000,0.224,0.000
 ZoneInfiltration Airflow Stats Nominal, AUDIENCE SEATING AREA PERMANENT - OTHER-SCH-I-SPACE FUNCTION INFILTRATION,ALWAYS ON DISCRETE,SP-AUDIENCE SEATING AREA PERMANENT - OTHER-SCH-I-SPACE FUNCTION SYS-3 FLR-4 SCH-I HPLCMT-NORTH ZN,1875.00,375.1,0.564,3.007E-004,2.500E-004,0.285,0.000,0.000,0.224,0.000
 ZoneInfiltration Airflow Stats Nominal, AUDIENCE SEATING AREA PERMANENT - OTHER-SCH-J-SPACE FUNCTION INFILTRATION,ALWAYS ON DISCRETE,SP-AUDIENCE SEATING AREA PERMANENT - OTHER-SCH-J-SPACE FUNCTION SYS-3 FLR-4 SCH-J HPLCMT-WEST ZN,1875.00,375.1,0.564,3.007E-004,2.500E-004,0.285,0.000,0.000,0.224,0.000
 ZoneInfiltration Airflow Stats Nominal, BANKING ACTIVITY AREA AND OFFICES-SPACE FUNCTION INFILTRATION,ALWAYS ON DISCRETE,SP-BANKING ACTIVITY AREA AND OFFICES-SPACE FUNCTION SYS-6 FLR-3 SCH-A HPLCMT-EAST ZN,1875.00,75.0,9.500E-002,5.067E-005,2.500E-004,4.800E-002,0.000,0.000,0.224,0.000
 ZoneInfiltration Airflow Stats Nominal, CLASSROOM/LECTURE HALL/TRAINING ROOM - PENITENTARY-SPACE FUNCTION INFILTRATION,ALWAYS ON DISCRETE,SP-CLASSROOM/LECTURE HALL/TRAINING ROOM - PENITENTARY-SPACE FUNCTION SYS-3 FLR-4 SCH-D HPLCMT-EAST ZN,1875.00,250.1,0.564,3.007E-004,2.500E-004,0.285,0.000,0.000,0.224,0.000
 ZoneInfiltration Airflow Stats Nominal, CLASSROOM/LECTURE HALL/TRAINING ROOM OTHER-SPACE FUNCTION INFILTRATION,ALWAYS ON DISCRETE,SP-CLASSROOM/LECTURE HALL/TRAINING ROOM OTHER-SPACE FUNCTION SYS-3 FLR-3 SCH-D HPLCMT-WEST ZN,1875.00,250.1,9.500E-002,5.067E-005,2.500E-004,4.800E-002,0.000,0.000,0.224,0.000
 ZoneInfiltration Airflow Stats Nominal, CONFERENCE/MEETING/MULTI-PURPOSE ROOM-SPACE FUNCTION INFILTRATION,ALWAYS ON DISCRETE,SP-CONFERENCE/MEETING/MULTI-PURPOSE ROOM-SPACE FUNCTION SYS-3 FLR-3 SCH-C HPLCMT-NORTH ZN,1875.00,375.1,9.500E-002,5.067E-005,2.500E-004,4.800E-002,0.000,0.000,0.224,0.000
 ZoneInfiltration Airflow Stats Nominal, COURTROOM-SPACE FUNCTION INFILTRATION,ALWAYS ON DISCRETE,SP-COURTROOM-SPACE FUNCTION SYS-3 FLR-2 SCH-A HPLCMT-WEST ZN,1875.00,375.1,9.500E-002,5.067E-005,2.500E-004,4.800E-002,0.000,0.000,0.224,0.000
 ZoneInfiltration Airflow Stats Nominal, DINING AREA - CAFETERIA/FAST FOOD DINING-SPACE FUNCTION INFILTRATION,ALWAYS ON DISCRETE,SP-DINING AREA - CAFETERIA/FAST FOOD DINING-SPACE FUNCTION SYS-3 FLR-4 SCH-B HPLCMT-SOUTH ZN,1875.00,187.6,0.564,3.007E-004,2.500E-004,0.285,0.000,0.000,0.224,0.000
 ZoneInfiltration Airflow Stats Nominal, DINING AREA - PENITENTIARY-SPACE FUNCTION INFILTRATION,ALWAYS ON DISCRETE,SP-DINING AREA - PENITENTIARY-SPACE FUNCTION SYS-3 FLR-2 SCH-B HPLCMT-NORTH ZN,1875.00,187.6,9.500E-002,5.067E-005,2.500E-004,4.800E-002,0.000,0.000,0.224,0.000
 ZoneInfiltration Airflow Stats Nominal, DINING AREA - SPACE DESIGNED TO ANSI/IES RP-28 (USED PRIMARILY BY RESIDENTS)-SPACE FUNCTION INFILTRATION,ALWAYS ON DISCRETE,SP-DINING AREA - SPACE DESIGNED TO ANSI/IES RP-28 (USED PRIMARILY BY RESIDENTS)-SPACE FUNCTION SYS-3 FLR-2 SCH-B HPLCMT-SOUTH ZN,1875.00,187.6,9.500E-002,5.067E-005,2.500E-004,4.800E-002,0.000,0.000,0.224,0.000
 ZoneInfiltration Airflow Stats Nominal, DRESSING/FITTING ROOM - PERFORMING ARTS THEATRE-SPACE FUNCTION INFILTRATION,ALWAYS ON DISCRETE,SP-DRESSING/FITTING ROOM - PERFORMING ARTS THEATRE-SPACE FUNCTION SYS-3 FLR-2 SCH-C HPLCMT-EAST ZN,1875.00,62.5,9.500E-002,5.067E-005,2.500E-004,4.800E-002,0.000,0.000,0.224,0.000
 ZoneInfiltration Airflow Stats Nominal, EMERGENCY VEHICLE GARAGE-SPACE FUNCTION INFILTRATION,ALWAYS ON DISCRETE,SP-EMERGENCY VEHICLE GARAGE-SPACE FUNCTION SYS-4 FLR-3 SCH-H HPLCMT-SOUTH ZN,1875.00,75.0,9.500E-002,5.067E-005,2.500E-004,4.800E-002,0.000,0.000,0.224,0.000
! <AirFlow Model>, Simple
 AirFlow Model, Simple
! <RoomAir Model>, Zone Name, Mixing/Mundt/UCSDDV/UCSDCV/UCSDUFI/UCSDUFE/User Defined
RoomAir Model,SP-AUDIENCE SEATING AREA PERMANENT - OTHER-SCH-H-SPACE FUNCTION SYS-3 FLR-4 SCH-H HPLCMT-CORE ZN,Mixing/Well-Stirred
RoomAir Model,SP-AUDIENCE SEATING AREA PERMANENT - OTHER-SCH-I-SPACE FUNCTION SYS-3 FLR-4 SCH-I HPLCMT-NORTH ZN,Mixing/Well-Stirred
RoomAir Model,SP-AUDIENCE SEATING AREA PERMANENT - OTHER-SCH-J-SPACE FUNCTION SYS-3 FLR-4 SCH-J HPLCMT-WEST ZN,Mixing/Well-Stirred
RoomAir Model,SP-AUDIENCE SEATING AREA PERMANENT - OTHER-SCH-K-SPACE FUNCTION SYS-3 FLR-3 SCH-K HPLCMT-CORE ZN,Mixing/Well-Stirred
RoomAir Model,SP-BANKING ACTIVITY AREA AND OFFICES-SPACE FUNCTION SYS-6 FLR-3 SCH-A HPLCMT-EAST ZN,Mixing/Well-Stirred
RoomAir Model,SP-CLASSROOM/LECTURE HALL/TRAINING ROOM - PENITENTARY-SPACE FUNCTION SYS-3 FLR-4 SCH-D HPLCMT-EAST ZN,Mixing/Well-Stirred
RoomAir Model,SP-CLASSROOM/LECTURE HALL/TRAINING ROOM OTHER-SPACE FUNCTION SYS-3 FLR-3 SCH-D HPLCMT-WEST ZN,Mixing/Well-Stirred
RoomAir Model,SP-CONFERENCE/MEETING/MULTI-PURPOSE ROOM-SPACE FUNCTION SYS-3 FLR-3 SCH-C HPLCMT-NORTH ZN,Mixing/Well-Stirred
RoomAir Model,SP-CONFINEMENT CELL-SPACE FUNCTION SYS-3 FLR-1 SCH-G HPLCMT-NORTH ZN,Mixing/Well-Stirred
RoomAir Model,SP-COPY/PRINT ROOM-SPACE FUNCTION SYS-3 FLR-1 SCH-A HPLCMT-EAST ZN,Mixing/Well-Stirred
RoomAir Model,SP-COURTROOM-SPACE FUNCTION SYS-3 FLR-2 SCH-A HPLCMT-WEST ZN,Mixing/Well-Stirred
RoomAir Model,SP-DINING AREA - BAR LOUNGE/LEISURE DINING-SPACE FUNCTION SYS-3 FLR-1 SCH-B HPLCMT-CORE ZN,Mixing/Well-Stirred
RoomAir Model,SP-DINING AREA - CAFETERIA/FAST FOOD DINING-SPACE FUNCTION SYS-3 FLR-4 SCH-B HPLCMT-SOUTH ZN,Mixing/Well-Stirred
RoomAir Model,SP-DINING AREA - FAMILY DINING-SPACE FUNCTION SYS-3 FLR-1 SCH-B HPLCMT-WEST ZN,Mixing/Well-Stirred
RoomAir Model,SP-DINING AREA - OTHER-SPACE FUNCTION SYS-3 FLR-1 SCH-B HPLCMT-SOUTH ZN,Mixing/Well-Stirred
RoomAir Model,SP-DINING AREA - PENITENTIARY-SPACE FUNCTION SYS-3 FLR-2 SCH-B HPLCMT-NORTH ZN,Mixing/Well-Stirred
RoomAir Model,SP-DINING AREA - SPACE DESIGNED TO ANSI/IES RP-28 (USED PRIMARILY BY RESIDENTS)-SPACE FUNCTION SYS-3 FLR-2 SCH-B HPLCMT-SOUTH ZN,Mixing/Well-Stirred
RoomAir Model,SP-DRESSING/FITTING ROOM - PERFORMING ARTS THEATRE-SPACE FUNCTION SYS-3 FLR-2 SCH-C HPLCMT-EAST ZN,Mixing/Well-Stirred
RoomAir Model,SP-EMERGENCY VEHICLE GARAGE-SPACE FUNCTION SYS-4 FLR-3 SCH-H HPLCMT-SOUTH ZN,Mixing/Well-Stirred
RoomAir Model,SP-FOOD PREPARATION AREA-SPACE FUNCTION SYS-3 FLR-2 SCH-B HPLCMT-CORE ZN,Mixing/Well-Stirred
! <AirflowNetwork Model:Control>, No Multizone or Distribution/Multizone with Distribution/Multizone without Distribution/Multizone with Distribution only during Fan Operation
AirflowNetwork Model:Control,NoMultizoneOrDistribution
! <Zone Volume Capacitance Multiplier>, Sensible Heat Capacity Multiplier, Moisture Capacity Multiplier, Carbon Dioxide Capacity Multiplier, Generic Contaminant Capacity Multiplier
Zone Volume Capacitance Multiplier,   1.000 ,   1.000,   1.000,   1.000
! <Load Timesteps in Zone Design Calculation Averaging Window>, Value
 Load Timesteps in Zone Design Calculation Averaging Window,    6
! <Heating Sizing Factor Information>, Sizing Factor ID, Value
 Heating Sizing Factor Information, Global,   1.3000    
 Heating Sizing Factor Information, Zone SP-AUDIENCE SEATING AREA PERMANENT - OTHER-SCH-H-SPACE FUNCTION SYS-3 FLR-4 SCH-H HPLCMT-CORE ZN,   1.3000    
 Heating Sizing Factor Information, Zone SP-AUDIENCE SEATING AREA PERMANENT - OTHER-SCH-I-SPACE FUNCTION SYS-3 FLR-4 SCH-I HPLCMT-NORTH ZN,   1.3000    
 Heating Sizing Factor Information, Zone SP-AUDIENCE SEATING AREA PERMANENT - OTHER-SCH-J-SPACE FUNCTION SYS-3 FLR-4 SCH-J HPLCMT-WEST ZN,   1.3000    
 Heating Sizing Factor Information, Zone SP-AUDIENCE SEATING AREA PERMANENT - OTHER-SCH-K-SPACE FUNCTION SYS-3 FLR-3 SCH-K HPLCMT-CORE ZN,   1.3000    
 Heating Sizing Factor Information, Zone SP-BANKING ACTIVITY AREA AND OFFICES-SPACE FUNCTION SYS-6 FLR-3 SCH-A HPLCMT-EAST ZN,   1.3000    
 Heating Sizing Factor Information, Zone SP-CLASSROOM/LECTURE HALL/TRAINING ROOM - PENITENTARY-SPACE FUNCTION SYS-3 FLR-4 SCH-D HPLCMT-EAST ZN,   1.3000    
 Heating Sizing Factor Information, Zone SP-CLASSROOM/LECTURE HALL/TRAINING ROOM OTHER-SPACE FUNCTION SYS-3 FLR-3 SCH-D HPLCMT-WEST ZN,   1.3000    
 Heating Sizing Factor Information, Zone SP-CONFERENCE/MEETING/MULTI-PURPOSE ROOM-SPACE FUNCTION SYS-3 FLR-3 SCH-C HPLCMT-NORTH ZN,   1.3000    
 Heating Sizing Factor Information, Zone SP-CONFINEMENT CELL-SPACE FUNCTION SYS-3 FLR-1 SCH-G HPLCMT-NORTH ZN,   1.3000    
 Heating Sizing Factor Information, Zone SP-COPY/PRINT ROOM-SPACE FUNCTION SYS-3 FLR-1 SCH-A HPLCMT-EAST ZN,   1.3000    
 Heating Sizing Factor Information, Zone SP-COURTROOM-SPACE FUNCTION SYS-3 FLR-2 SCH-A HPLCMT-WEST ZN,   1.3000    
 Heating Sizing Factor Information, Zone SP-DINING AREA - BAR LOUNGE/LEISURE DINING-SPACE FUNCTION SYS-3 FLR-1 SCH-B HPLCMT-CORE ZN,   1.3000    
 Heating Sizing Factor Information, Zone SP-DINING AREA - CAFETERIA/FAST FOOD DINING-SPACE FUNCTION SYS-3 FLR-4 SCH-B HPLCMT-SOUTH ZN,   1.3000    
 Heating Sizing Factor Information, Zone SP-DINING AREA - FAMILY DINING-SPACE FUNCTION SYS-3 FLR-1 SCH-B HPLCMT-WEST ZN,   1.3000    
 Heating Sizing Factor Information, Zone SP-DINING AREA - OTHER-SPACE FUNCTION SYS-3 FLR-1 SCH-B HPLCMT-SOUTH ZN,   1.3000    
 Heating Sizing Factor Information, Zone SP-DINING AREA - PENITENTIARY-SPACE FUNCTION SYS-3 FLR-2 SCH-B HPLCMT-NORTH ZN,   1.3000    
 Heating Sizing Factor Information, Zone SP-DINING AREA - SPACE DESIGNED TO ANSI/IES RP-28 (USED PRIMARILY BY RESIDENTS)-SPACE FUNCTION SYS-3 FLR-2 SCH-B HPLCMT-SOUTH ZN,   1.3000    
 Heating Sizing Factor Information, Zone SP-DRESSING/FITTING ROOM - PERFORMING ARTS THEATRE-SPACE FUNCTION SYS-3 FLR-2 SCH-C HPLCMT-EAST ZN,   1.3000    
 Heating Sizing Factor Information, Zone SP-EMERGENCY VEHICLE GARAGE-SPACE FUNCTION SYS-4 FLR-3 SCH-H HPLCMT-SOUTH ZN,   1.3000    
 Heating Sizing Factor Information, Zone SP-FOOD PREPARATION AREA-SPACE FUNCTION SYS-3 FLR-2 SCH-B HPLCMT-CORE ZN,   1.3000    
! <Cooling Sizing Factor Information>, Sizing Factor ID, Value
 Cooling Sizing Factor Information, Global,   1.1000    
 Cooling Sizing Factor Information, Zone SP-AUDIENCE SEATING AREA PERMANENT - OTHER-SCH-H-SPACE FUNCTION SYS-3 FLR-4 SCH-H HPLCMT-CORE ZN,   1.1000    
 Cooling Sizing Factor Information, Zone SP-AUDIENCE SEATING AREA PERMANENT - OTHER-SCH-I-SPACE FUNCTION SYS-3 FLR-4 SCH-I HPLCMT-NORTH ZN,   1.1000    
 Cooling Sizing Factor Information, Zone SP-AUDIENCE SEATING AREA PERMANENT - OTHER-SCH-J-SPACE FUNCTION SYS-3 FLR-4 SCH-J HPLCMT-WEST ZN,   1.1000    
 Cooling Sizing Factor Information, Zone SP-AUDIENCE SEATING AREA PERMANENT - OTHER-SCH-K-SPACE FUNCTION SYS-3 FLR-3 SCH-K HPLCMT-CORE ZN,   1.1000    
 Cooling Sizing Factor Information, Zone SP-BANKING ACTIVITY AREA AND OFFICES-SPACE FUNCTION SYS-6 FLR-3 SCH-A HPLCMT-EAST ZN,   1.1000    
 Cooling Sizing Factor Information, Zone SP-CLASSROOM/LECTURE HALL/TRAINING ROOM - PENITENTARY-SPACE FUNCTION SYS-3 FLR-4 SCH-D HPLCMT-EAST ZN,   1.1000    
 Cooling Sizing Factor Information, Zone SP-CLASSROOM/LECTURE HALL/TRAINING ROOM OTHER-SPACE FUNCTION SYS-3 FLR-3 SCH-D HPLCMT-WEST ZN,   1.1000    
 Cooling Sizing Factor Information, Zone SP-CONFERENCE/MEETING/MULTI-PURPOSE ROOM-SPACE FUNCTION SYS-3 FLR-3 SCH-C HPLCMT-NORTH ZN,   1.1000    
 Cooling Sizing Factor Information, Zone SP-CONFINEMENT CELL-SPACE FUNCTION SYS-3 FLR-1 SCH-G HPLCMT-NORTH ZN,   1.1000    
 Cooling Sizing Factor Information, Zone SP-COPY/PRINT ROOM-SPACE FUNCTION SYS-3 FLR-1 SCH-A HPLCMT-EAST ZN,   1.1000    
 Cooling Sizing Factor Information, Zone SP-COURTROOM-SPACE FUNCTION SYS-3 FLR-2 SCH-A HPLCMT-WEST ZN,   1.1000    
 Cooling Sizing Factor Information, Zone SP-DINING AREA - BAR LOUNGE/LEISURE DINING-SPACE FUNCTION SYS-3 FLR-1 SCH-B HPLCMT-CORE ZN,   1.1000    
 Cooling Sizing Factor Information, Zone SP-DINING AREA - CAFETERIA/FAST FOOD DINING-SPACE FUNCTION SYS-3 FLR-4 SCH-B HPLCMT-SOUTH ZN,   1.1000    
 Cooling Sizing Factor Information, Zone SP-DINING AREA - FAMILY DINING-SPACE FUNCTION SYS-3 FLR-1 SCH-B HPLCMT-WEST ZN,   1.1000    
 Cooling Sizing Factor Information, Zone SP-DINING AREA - OTHER-SPACE FUNCTION SYS-3 FLR-1 SCH-B HPLCMT-SOUTH ZN,   1.1000    
 Cooling Sizing Factor Information, Zone SP-DINING AREA - PENITENTIARY-SPACE FUNCTION SYS-3 FLR-2 SCH-B HPLCMT-NORTH ZN,   1.1000    
 Cooling Sizing Factor Information, Zone SP-DINING AREA - SPACE DESIGNED TO ANSI/IES RP-28 (USED PRIMARILY BY RESIDENTS)-SPACE FUNCTION SYS-3 FLR-2 SCH-B HPLCMT-SOUTH ZN,   1.1000    
 Cooling Sizing Factor Information, Zone SP-DRESSING/FITTING ROOM - PERFORMING ARTS THEATRE-SPACE FUNCTION SYS-3 FLR-2 SCH-C HPLCMT-EAST ZN,   1.1000    
 Cooling Sizing Factor Information, Zone SP-EMERGENCY VEHICLE GARAGE-SPACE FUNCTION SYS-4 FLR-3 SCH-H HPLCMT-SOUTH ZN,   1.1000    
 Cooling Sizing Factor Information, Zone SP-FOOD PREPARATION AREA-SPACE FUNCTION SYS-3 FLR-2 SCH-B HPLCMT-CORE ZN,   1.1000    
! <Zone Sizing Information>, Zone Name, Load Type, Calc Des Load {W}, User Des Load {W}, Calc Des Air Flow Rate {m3/s}, User Des Air Flow Rate {m3/s}, Design Day Name, Date/Time of Peak, Temperature at Peak {C}, Humidity Ratio at Peak {kgWater/kgDryAir}, Floor Area {m2}, # Occupants, Calc Outdoor Air Flow Rate {m3/s}, Calc DOAS Heat Addition Rate {W}
 Zone Sizing Information, SP-AUDIENCE SEATING AREA PERMANENT - OTHER-SCH-H-SPACE FUNCTION SYS-3 FLR-4 SCH-H HPLCMT-CORE ZN, Cooling, 103164.20230, 113480.62253, 7.97608, 9.52500, FORT MCMURRAY AP ANN CLG .4% CONDNS DB=>MWB, 7/21 13:40:00, 28.69333, 8.76969E-003, 2500.00000, 500.18171, 9.52500, 0.00000
 Zone Sizing Information, SP-AUDIENCE SEATING AREA PERMANENT - OTHER-SCH-H-SPACE FUNCTION SYS-3 FLR-4 SCH-H HPLCMT-CORE ZN, Heating, 0.00000, 0.00000, 0.00000, 9.52500, FORT MCMURRAY AP ANN HTG 99.6% CONDNS DB, , -36.20000, 1.25811E-004, 2500.00000, 500.18171, 9.52500, 0.00000
 Zone Sizing Information, SP-AUDIENCE SEATING AREA PERMANENT - OTHER-SCH-I-SPACE FUNCTION SYS-3 FLR-4 SCH-I HPLCMT-NORTH ZN, Cooling, 97688.01531, 107456.81685, 6.12812, 7.14375, FORT MCMURRAY AP ANN CLG .4% CONDNS DB=>MWB, 7/21 15:00:00, 28.90000, 8.76969E-003, 1875.00000, 375.13628, 7.14375, 0.00000
 Zone Sizing Information, SP-AUDIENCE SEATING AREA PERMANENT - OTHER-SCH-I-SPACE FUNCTION SYS-3 FLR-4 SCH-I HPLCMT-NORTH ZN, Heating, 38206.27906, 49668.16278, 1.51529, 7.14375, FORT MCMURRAY AP ANN HTG 99.6% CONDNS DB, 1/21 16:00:00, -36.20000, 1.25811E-004, 1875.00000, 375.13628, 7.14375, 0.00000
 Zone Sizing Information, SP-AUDIENCE SEATING AREA PERMANENT - OTHER-SCH-J-SPACE FUNCTION SYS-3 FLR-4 SCH-J HPLCMT-WEST ZN, Cooling, 80020.59516, 88022.65468, 6.18614, 7.14375, FORT MCMURRAY AP ANN CLG .4% CONDNS DB=>MWB, 7/21 16:10:00, 27.99067, 8.76969E-003, 1875.00000, 375.13628, 7.14375, 0.00000
 Zone Sizing Information, SP-AUDIENCE SEATING AREA PERMANENT - OTHER-SCH-J-SPACE FUNCTION SYS-3 FLR-4 SCH-J HPLCMT-WEST ZN, Heating, 17917.19369, 23292.35180, 0.72612, 7.14375, FORT MCMURRAY AP ANN HTG 99.6% CONDNS DB, 1/21 09:20:00, -36.20000, 1.25811E-004, 1875.00000, 375.13628, 7.14375, 0.00000
 Zone Sizing Information, SP-AUDIENCE SEATING AREA PERMANENT - OTHER-SCH-K-SPACE FUNCTION SYS-3 FLR-3 SCH-K HPLCMT-CORE ZN, Cooling, 0.00000, 0.00000, 0.00000, 9.52500, FORT MCMURRAY AP ANN CLG .4% CONDNS DB=>MWB, , 28.90000, 8.76969E-003, 2500.00000, 500.18171, 9.52500, 0.00000
 Zone Sizing Information, SP-AUDIENCE SEATING AREA PERMANENT - OTHER-SCH-K-SPACE FUNCTION SYS-3 FLR-3 SCH-K HPLCMT-CORE ZN, Heating, 0.00000, 0.00000, 0.00000, 9.52500, FORT MCMURRAY AP ANN HTG 99.6% CONDNS DB, , -36.20000, 1.25811E-004, 2500.00000, 500.18171, 9.52500, 0.00000
 Zone Sizing Information, SP-BANKING ACTIVITY AREA AND OFFICES-SPACE FUNCTION SYS-6 FLR-3 SCH-A HPLCMT-EAST ZN, Cooling, 53041.41019, 58345.55121, 4.09934, 4.50927, FORT MCMURRAY AP ANN CLG .4% CONDNS DB=>MWB, 7/21 10:00:00, 24.18800, 8.76969E-003, 1875.00000, 75.02726, 1.64783, 0.00000
 Zone Sizing Information, SP-BANKING ACTIVITY AREA AND OFFICES-SPACE FUNCTION SYS-6 FLR-3 SCH-A HPLCMT-EAST ZN, Heating, 16298.72307, 21188.33999, 0.63895, 1.64783, FORT MCMURRAY AP ANN HTG 99.6% CONDNS DB, 1/21 08:00:00, -36.20000, 1.25811E-004, 1875.00000, 75.02726, 1.64783, 0.00000
 Zone Sizing Information, SP-CLASSROOM/LECTURE HALL/TRAINING ROOM - PENITENTARY-SPACE FUNCTION SYS-3 FLR-4 SCH-D HPLCMT-EAST ZN, Cooling, 93226.06458, 102548.67104, 7.20578, 7.92635, FORT MCMURRAY AP ANN CLG .4% CONDNS DB=>MWB, 7/21 10:30:00, 25.11800, 8.76969E-003, 1875.00000, 250.09086, 5.21970, 0.00000
 Zone Sizing Information, SP-CLASSROOM/LECTURE HALL/TRAINING ROOM - PENITENTARY-SPACE FUNCTION SYS-3 FLR-4 SCH-D HPLCMT-EAST ZN, Heating, 45347.49302, 58951.74092, 1.80551, 5.21970, FORT MCMURRAY AP ANN HTG 99.6% CONDNS DB, 1/21 09:00:00, -36.20000, 1.25811E-004, 1875.00000, 250.09086, 5.21970, 0.00000
 Zone Sizing Information, SP-CLASSROOM/LECTURE HALL/TRAINING ROOM OTHER-SPACE FUNCTION SYS-3 FLR-3 SCH-D HPLCMT-WEST ZN, Cooling, 62394.59782, 68634.05760, 4.82332, 5.30565, FORT MCMURRAY AP ANN CLG .4% CONDNS DB=>MWB, 7/21 16:00:00, 28.15600, 8.76969E-003, 1875.00000, 250.09086, 5.21970, 0.00000
 Zone Sizing Information, SP-CLASSROOM/LECTURE HALL/TRAINING ROOM OTHER-SPACE FUNCTION SYS-3 FLR-3 SCH-D HPLCMT-WEST ZN, Heating, 8289.26694, 10776.04702, 0.32492, 5.21970, FORT MCMURRAY AP ANN HTG 99.6% CONDNS DB, 1/21 09:00:00, -36.20000, 1.25811E-004, 1875.00000, 250.09086, 5.21970, 0.00000
 Zone Sizing Information, SP-CONFERENCE/MEETING/MULTI-PURPOSE ROOM-SPACE FUNCTION SYS-3 FLR-3 SCH-C HPLCMT-NORTH ZN, Cooling, 53949.97816, 59344.97597, 4.17088, 4.58796, FORT MCMURRAY AP ANN CLG .4% CONDNS DB=>MWB, 7/21 17:00:00, 27.16400, 8.76969E-003, 1875.00000, 375.13628, 2.95275, 0.00000
 Zone Sizing Information, SP-CONFERENCE/MEETING/MULTI-PURPOSE ROOM-SPACE FUNCTION SYS-3 FLR-3 SCH-C HPLCMT-NORTH ZN, Heating, 19773.81565, 25705.96035, 0.77108, 2.95275, FORT MCMURRAY AP ANN HTG 99.6% CONDNS DB, 1/21 09:00:00, -36.20000, 1.25811E-004, 1875.00000, 375.13628, 2.95275, 0.00000
 Zone Sizing Information, SP-CONFINEMENT CELL-SPACE FUNCTION SYS-3 FLR-1 SCH-G HPLCMT-NORTH ZN, Cooling, 16135.85462, 17749.44008, 1.24706, 2.33363, FORT MCMURRAY AP ANN CLG .4% CONDNS DB=>MWB, 7/21 22:00:00, 20.46800, 8.76969E-003, 1875.00000, 75.02726, 2.33363, 0.00000
 Zone Sizing Information, SP-CONFINEMENT CELL-SPACE FUNCTION SYS-3 FLR-1 SCH-G HPLCMT-NORTH ZN, Heating, 0.00000, 0.00000, 0.00000, 2.33363, FORT MCMURRAY AP ANN HTG 99.6% CONDNS DB, , -36.20000, 1.25811E-004, 1875.00000, 75.02726, 2.33363, 0.00000
 Zone Sizing Information, SP-COPY/PRINT ROOM-SPACE FUNCTION SYS-3 FLR-1 SCH-A HPLCMT-EAST ZN, Cooling, 94372.70133, 103809.97146, 7.29352, 8.02287, FORT MCMURRAY AP ANN CLG .4% CONDNS DB=>MWB, 7/21 16:50:00, 27.32933, 8.76969E-003, 1875.00000, 18.75681, 4.76250, 0.00000
 Zone Sizing Information, SP-COPY/PRINT ROOM-SPACE FUNCTION SYS-3 FLR-1 SCH-A HPLCMT-EAST ZN, Heating, 0.00000, 0.00000, 0.00000, 4.76250, FORT MCMURRAY AP ANN HTG 99.6% CONDNS DB, , -36.20000, 1.25811E-004, 1875.00000, 18.75681, 4.76250, 0.00000
 Zone Sizing Information, SP-COURTROOM-SPACE FUNCTION SYS-3 FLR-2 SCH-A HPLCMT-WEST ZN, Cooling, 68274.71178, 75102.18296, 5.27876, 5.80664, FORT MCMURRAY AP ANN CLG .4% CONDNS DB=>MWB, 7/21 17:00:00, 27.16400, 8.76969E-003, 1875.00000, 375.13628, 3.80048, 0.00000
 Zone Sizing Information, SP-COURTROOM-SPACE FUNCTION SYS-3 FLR-2 SCH-A HPLCMT-WEST ZN, Heating, 0.00000, 0.00000, 0.00000, 3.80048, FORT MCMURRAY AP ANN HTG 99.6% CONDNS DB, , -36.20000, 1.25811E-004, 1875.00000, 375.13628, 3.80048, 0.00000
 Zone Sizing Information, SP-DINING AREA - BAR LOUNGE/LEISURE DINING-SPACE FUNCTION SYS-3 FLR-1 SCH-B HPLCMT-CORE ZN, Cooling, 40242.02882, 44266.23170, 3.11025, 8.95350, FORT MCMURRAY AP ANN CLG .4% CONDNS DB=>MWB, 7/21 22:00:00, 20.46800, 8.76969E-003, 2500.00000, 250.09086, 8.95350, 0.00000
 Zone Sizing Information, SP-DINING AREA - BAR LOUNGE/LEISURE DINING-SPACE FUNCTION SYS-3 FLR-1 SCH-B HPLCMT-CORE ZN, Heating, 0.00000, 0.00000, 0.00000, 8.95350, FORT MCMURRAY AP ANN HTG 99.6% CONDNS DB, , -36.20000, 1.25811E-004, 2500.00000, 250.09086, 8.95350, 0.00000
 Zone Sizing Information, SP-DINING AREA - CAFETERIA/FAST FOOD DINING-SPACE FUNCTION SYS-3 FLR-4 SCH-B HPLCMT-SOUTH ZN, Cooling, 82764.48127, 91040.92940, 6.39738, 8.81063, FORT MCMURRAY AP ANN CLG .4% CONDNS DB=>MWB, 7/21 13:20:00, 28.48667, 8.76969E-003, 1875.00000, 187.56814, 8.81063, 0.00000
 Zone Sizing Information, SP-DINING AREA - CAFETERIA/FAST FOOD DINING-SPACE FUNCTION SYS-3 FLR-4 SCH-B HPLCMT-SOUTH ZN, Heating, 39626.83410, 51514.88433, 1.57414, 8.81063, FORT MCMURRAY AP ANN HTG 99.6% CONDNS DB, 1/21 10:00:00, -36.20000, 1.25811E-004, 1875.00000, 187.56814, 8.81063, 0.00000
 Zone Sizing Information, SP-DINING AREA - FAMILY DINING-SPACE FUNCTION SYS-3 FLR-1 SCH-B HPLCMT-WEST ZN, Cooling, 29723.35013, 32695.68515, 2.29754, 6.71513, FORT MCMURRAY AP ANN CLG .4% CONDNS DB=>MWB, 7/21 20:40:00, 21.95600, 8.76969E-003, 1875.00000, 187.56814, 6.71513, 0.00000
 Zone Sizing Information, SP-DINING AREA - FAMILY DINING-SPACE FUNCTION SYS-3 FLR-1 SCH-B HPLCMT-WEST ZN, Heating, 0.00000, 0.00000, 0.00000, 6.71513, FORT MCMURRAY AP ANN HTG 99.6% CONDNS DB, , -36.20000, 1.25811E-004, 1875.00000, 187.56814, 6.71513, 0.00000
 Zone Sizing Information, SP-DINING AREA - OTHER-SPACE FUNCTION SYS-3 FLR-1 SCH-B HPLCMT-SOUTH ZN, Cooling, 27279.77814, 30007.75595, 2.10857, 6.71513, FORT MCMURRAY AP ANN CLG .4% CONDNS DB=>MWB, 7/21 20:00:00, 22.70000, 8.76969E-003, 1875.00000, 187.56814, 6.71513, 0.00000
 Zone Sizing Information, SP-DINING AREA - OTHER-SPACE FUNCTION SYS-3 FLR-1 SCH-B HPLCMT-SOUTH ZN, Heating, 0.00000, 0.00000, 0.00000, 6.71513, FORT MCMURRAY AP ANN HTG 99.6% CONDNS DB, , -36.20000, 1.25811E-004, 1875.00000, 187.56814, 6.71513, 0.00000
 Zone Sizing Information, SP-DINING AREA - PENITENTIARY-SPACE FUNCTION SYS-3 FLR-2 SCH-B HPLCMT-NORTH ZN, Cooling, 32472.65191, 35719.91711, 2.51002, 6.71513, FORT MCMURRAY AP ANN CLG .4% CONDNS DB=>MWB, 7/21 20:20:00, 22.32800, 8.76969E-003, 1875.00000, 187.56814, 6.71513, 0.00000
 Zone Sizing Information, SP-DINING AREA - PENITENTIARY-SPACE FUNCTION SYS-3 FLR-2 SCH-B HPLCMT-NORTH ZN, Heating, 2961.15479, 3849.50123, 0.11607, 6.71513, FORT MCMURRAY AP ANN HTG 99.6% CONDNS DB, 1/21 09:10:00, -36.20000, 1.25811E-004, 1875.00000, 187.56814, 6.71513, 0.00000
 Zone Sizing Information, SP-DINING AREA - SPACE DESIGNED TO ANSI/IES RP-28 (USED PRIMARILY BY RESIDENTS)-SPACE FUNCTION SYS-3 FLR-2 SCH-B HPLCMT-SOUTH ZN, Cooling, 60556.35800, 66611.99380, 4.68078, 6.71513, FORT MCMURRAY AP ANN CLG .4% CONDNS DB=>MWB, 7/21 13:20:00, 28.48667, 8.76969E-003, 1875.00000, 187.56814, 6.71513, 0.00000
 Zone Sizing Information, SP-DINING AREA - SPACE DESIGNED TO ANSI/IES RP-28 (USED PRIMARILY BY RESIDENTS)-SPACE FUNCTION SYS-3 FLR-2 SCH-B HPLCMT-SOUTH ZN, Heating, 0.00000, 0.00000, 0.00000, 6.71513, FORT MCMURRAY AP ANN HTG 99.6% CONDNS DB, , -36.20000, 1.25811E-004, 1875.00000, 187.56814, 6.71513, 0.00000
 Zone Sizing Information, SP-DRESSING/FITTING ROOM - PERFORMING ARTS THEATRE-SPACE FUNCTION SYS-3 FLR-2 SCH-C HPLCMT-EAST ZN, Cooling, 60348.57710, 66383.43481, 4.18272, 4.60099, FORT MCMURRAY AP ANN CLG .4% CONDNS DB=>MWB, 7/21 08:00:00, 19.72400, 8.76969E-003, 1875.00000, 62.52271, 1.04775, 0.00000
 Zone Sizing Information, SP-DRESSING/FITTING ROOM - PERFORMING ARTS THEATRE-SPACE FUNCTION SYS-3 FLR-2 SCH-C HPLCMT-EAST ZN, Heating, 0.00000, 0.00000, 0.00000, 1.04775, FORT MCMURRAY AP ANN HTG 99.6% CONDNS DB, , -36.20000, 1.25811E-004, 1875.00000, 62.52271, 1.04775, 0.00000
 Zone Sizing Information, SP-EMERGENCY VEHICLE GARAGE-SPACE FUNCTION SYS-4 FLR-3 SCH-H HPLCMT-SOUTH ZN, Cooling, 43833.12042, 48216.43246, 3.38775, 7.14375, FORT MCMURRAY AP ANN CLG .4% CONDNS DB=>MWB, 7/21 14:20:00, 28.90000, 8.76969E-003, 1875.00000, 75.02726, 7.14375, 0.00000
 Zone Sizing Information, SP-EMERGENCY VEHICLE GARAGE-SPACE FUNCTION SYS-4 FLR-3 SCH-H HPLCMT-SOUTH ZN, Heating, 0.00000, 0.00000, 0.00000, 7.14375, FORT MCMURRAY AP ANN HTG 99.6% CONDNS DB, , -36.20000, 1.25811E-004, 1875.00000, 75.02726, 7.14375, 0.00000
 Zone Sizing Information, SP-FOOD PREPARATION AREA-SPACE FUNCTION SYS-3 FLR-2 SCH-B HPLCMT-CORE ZN, Cooling, 60524.55297, 66577.00827, 4.67796, 5.14576, FORT MCMURRAY AP ANN CLG .4% CONDNS DB=>MWB, 7/21 20:40:00, 21.95600, 8.76969E-003, 2500.00000, 125.04543, 3.42900, 0.00000
 Zone Sizing Information, SP-FOOD PREPARATION AREA-SPACE FUNCTION SYS-3 FLR-2 SCH-B HPLCMT-CORE ZN, Heating, 0.00000, 0.00000, 0.00000, 3.42900, FORT MCMURRAY AP ANN HTG 99.6% CONDNS DB, , -36.20000, 1.25811E-004, 2500.00000, 125.04543, 3.42900, 0.00000
! <System Sizing Information>, System Name, Load Type, Peak Load Kind, User Design Capacity, Calc Des Air Flow Rate [m3/s], User Des Air Flow Rate [m3/s], Design Day Name, Date/Time of Peak
 System Sizing Information, SYS_3_PSZ SP-AUDIENCE SEATING AREA PERMANENT - OTHER-SCH-H-SPACE FUNCTION SYS-3 FLR-4 SCH-H HPLCMT-CORE ZN, Cooling, Sensible, 173116.44, 9.52500, 9.52500, FORT MCMURRAY AP ANN CLG .4% CONDNS DB=>MWB, 7/21 05:00:00
 System Sizing Information, SYS_3_PSZ SP-AUDIENCE SEATING AREA PERMANENT - OTHER-SCH-H-SPACE FUNCTION SYS-3 FLR-4 SCH-H HPLCMT-CORE ZN, Heating, Sensible, 873671.73, 9.52500, 9.52500, FORT MCMURRAY AP ANN HTG 99.6% CONDNS DB, 1/21 00:10:00
 System Sizing Information, SYS_3_PSZ SP-AUDIENCE SEATING AREA PERMANENT - OTHER-SCH-I-SPACE FUNCTION SYS-3 FLR-4 SCH-I HPLCMT-NORTH ZN, Cooling, Sensible, 131547.16, 7.14375, 7.14375, FORT MCMURRAY AP ANN CLG .4% CONDNS DB=>MWB, 7/21 05:00:00
 System Sizing Information, SYS_3_PSZ SP-AUDIENCE SEATING AREA PERMANENT - OTHER-SCH-I-SPACE FUNCTION SYS-3 FLR-4 SCH-I HPLCMT-NORTH ZN, Heating, Sensible, 655253.80, 7.14375, 7.14375, FORT MCMURRAY AP ANN HTG 99.6% CONDNS DB, 1/21 00:10:00
 System Sizing Information, SYS_3_PSZ SP-AUDIENCE SEATING AREA PERMANENT - OTHER-SCH-J-SPACE FUNCTION SYS-3 FLR-4 SCH-J HPLCMT-WEST ZN, Cooling, Sensible, 124023.88, 7.14375, 7.14375, FORT MCMURRAY AP ANN CLG .4% CONDNS DB=>MWB, 7/21 05:00:00
 System Sizing Information, SYS_3_PSZ SP-AUDIENCE SEATING AREA PERMANENT - OTHER-SCH-J-SPACE FUNCTION SYS-3 FLR-4 SCH-J HPLCMT-WEST ZN, Heating, Sensible, 655253.80, 7.14375, 7.14375, FORT MCMURRAY AP ANN HTG 99.6% CONDNS DB, 1/21 00:10:00
 System Sizing Information, SYS_3_PSZ SP-AUDIENCE SEATING AREA PERMANENT - OTHER-SCH-K-SPACE FUNCTION SYS-3 FLR-3 SCH-K HPLCMT-CORE ZN, Cooling, Sensible, 175396.22, 9.52500, 9.52500, FORT MCMURRAY AP ANN CLG .4% CONDNS DB=>MWB, 7/21 05:00:00
 System Sizing Information, SYS_3_PSZ SP-AUDIENCE SEATING AREA PERMANENT - OTHER-SCH-K-SPACE FUNCTION SYS-3 FLR-3 SCH-K HPLCMT-CORE ZN, Heating, Sensible, 873671.73, 9.52500, 9.52500, FORT MCMURRAY AP ANN HTG 99.6% CONDNS DB, 1/21 00:10:00
 System Sizing Information, SYS_3_PSZ SP-CLASSROOM/LECTURE HALL/TRAINING ROOM - PENITENTARY-SPACE FUNCTION SYS-3 FLR-4 SCH-D HPLCMT-EAST ZN, Cooling, Sensible, 107730.90, 7.92635, 7.92635, FORT MCMURRAY AP ANN CLG .4% CONDNS DB=>MWB, 7/21 05:00:00
 System Sizing Information, SYS_3_PSZ SP-CLASSROOM/LECTURE HALL/TRAINING ROOM - PENITENTARY-SPACE FUNCTION SYS-3 FLR-4 SCH-D HPLCMT-EAST ZN, Heating, Sensible, 478772.11, 5.21970, 5.21970, FORT MCMURRAY AP ANN HTG 99.6% CONDNS DB, 1/21 00:10:00
 System Sizing Information, SYS_3_PSZ SP-CLASSROOM/LECTURE HALL/TRAINING ROOM OTHER-SPACE FUNCTION SYS-3 FLR-3 SCH-D HPLCMT-WEST ZN, Cooling, Sensible, 92714.19, 5.30565, 5.30565, FORT MCMURRAY AP ANN CLG .4% CONDNS DB=>MWB, 7/21 05:00:00
 System Sizing Information, SYS_3_PSZ SP-CLASSROOM/LECTURE HALL/TRAINING ROOM OTHER-SPACE FUNCTION SYS-3 FLR-3 SCH-D HPLCMT-WEST ZN, Heating, Sensible, 478772.11, 5.21970, 5.21970, FORT MCMURRAY AP ANN HTG 99.6% CONDNS DB, 1/21 00:10:00
 System Sizing Information, SYS_3_PSZ SP-CONFERENCE/MEETING/MULTI-PURPOSE ROOM-SPACE FUNCTION SYS-3 FLR-3 SCH-C HPLCMT-NORTH ZN, Cooling, Sensible, 69260.57, 4.58796, 4.58796, FORT MCMURRAY AP ANN CLG .4% CONDNS DB=>MWB, 7/21 05:00:00
 System Sizing Information, SYS_3_PSZ SP-CONFERENCE/MEETING/MULTI-PURPOSE ROOM-SPACE FUNCTION SYS-3 FLR-3 SCH-C HPLCMT-NORTH ZN, Heating, Sensible, 270838.24, 2.95275, 2.95275, FORT MCMURRAY AP ANN HTG 99.6% CONDNS DB, 1/21 00:10:00
 System Sizing Information, SYS_3_PSZ SP-CONFINEMENT CELL-SPACE FUNCTION SYS-3 FLR-1 SCH-G HPLCMT-NORTH ZN, Cooling, Sensible, 20183.36, 2.33363, 2.33363, FORT MCMURRAY AP ANN CLG .4% CONDNS DB=>MWB, 7/21 05:00:00
 System Sizing Information, SYS_3_PSZ SP-CONFINEMENT CELL-SPACE FUNCTION SYS-3 FLR-1 SCH-G HPLCMT-NORTH ZN, Heating, Sensible, 214049.57, 2.33363, 2.33363, FORT MCMURRAY AP ANN HTG 99.6% CONDNS DB, 1/21 00:10:00
 System Sizing Information, SYS_3_PSZ SP-COPY/PRINT ROOM-SPACE FUNCTION SYS-3 FLR-1 SCH-A HPLCMT-EAST ZN, Cooling, Sensible, 120569.32, 8.02287, 8.02287, FORT MCMURRAY AP ANN CLG .4% CONDNS DB=>MWB, 7/21 05:00:00
 System Sizing Information, SYS_3_PSZ SP-COPY/PRINT ROOM-SPACE FUNCTION SYS-3 FLR-1 SCH-A HPLCMT-EAST ZN, Heating, Sensible, 436835.87, 4.76250, 4.76250, FORT MCMURRAY AP ANN HTG 99.6% CONDNS DB, 1/21 00:10:00
 System Sizing Information, SYS_3_PSZ SP-COURTROOM-SPACE FUNCTION SYS-3 FLR-2 SCH-A HPLCMT-WEST ZN, Cooling, Sensible, 87888.37, 5.80664, 5.80664, FORT MCMURRAY AP ANN CLG .4% CONDNS DB=>MWB, 7/21 05:00:00
 System Sizing Information, SYS_3_PSZ SP-COURTROOM-SPACE FUNCTION SYS-3 FLR-2 SCH-A HPLCMT-WEST ZN, Heating, Sensible, 348595.02, 3.80048, 3.80048, FORT MCMURRAY AP ANN HTG 99.6% CONDNS DB, 1/21 00:10:00
 System Sizing Information, SYS_3_PSZ SP-DINING AREA - BAR LOUNGE/LEISURE DINING-SPACE FUNCTION SYS-3 FLR-1 SCH-B HPLCMT-CORE ZN, Cooling, Sensible, 77438.20, 8.95350, 8.95350, FORT MCMURRAY AP ANN CLG .4% CONDNS DB=>MWB, 7/21 05:00:00
 System Sizing Information, SYS_3_PSZ SP-DINING AREA - BAR LOUNGE/LEISURE DINING-SPACE FUNCTION SYS-3 FLR-1 SCH-B HPLCMT-CORE ZN, Heating, Sensible, 821251.43, 8.95350, 8.95350, FORT MCMURRAY AP ANN HTG 99.6% CONDNS DB, 1/21 00:10:00
 System Sizing Information, SYS_3_PSZ SP-DINING AREA - CAFETERIA/FAST FOOD DINING-SPACE FUNCTION SYS-3 FLR-4 SCH-B HPLCMT-SOUTH ZN, Cooling, Sensible, 158023.90, 8.81063, 8.81063, FORT MCMURRAY AP ANN CLG .4% CONDNS DB=>MWB, 7/21 05:00:00
 System Sizing Information, SYS_3_PSZ SP-DINING AREA - CAFETERIA/FAST FOOD DINING-SPACE FUNCTION SYS-3 FLR-4 SCH-B HPLCMT-SOUTH ZN, Heating, Sensible, 808146.35, 8.81063, 8.81063, FORT MCMURRAY AP ANN HTG 99.6% CONDNS DB, 1/21 00:10:00
 System Sizing Information, SYS_3_PSZ SP-DINING AREA - FAMILY DINING-SPACE FUNCTION SYS-3 FLR-1 SCH-B HPLCMT-WEST ZN, Cooling, Sensible, 69650.83, 6.71513, 6.71513, FORT MCMURRAY AP ANN CLG .4% CONDNS DB=>MWB, 7/21 05:00:00
 System Sizing Information, SYS_3_PSZ SP-DINING AREA - FAMILY DINING-SPACE FUNCTION SYS-3 FLR-1 SCH-B HPLCMT-WEST ZN, Heating, Sensible, 615938.57, 6.71513, 6.71513, FORT MCMURRAY AP ANN HTG 99.6% CONDNS DB, 1/21 00:10:00
 System Sizing Information, SYS_3_PSZ SP-DINING AREA - OTHER-SPACE FUNCTION SYS-3 FLR-1 SCH-B HPLCMT-SOUTH ZN, Cooling, Sensible, 75436.92, 6.71513, 6.71513, FORT MCMURRAY AP ANN CLG .4% CONDNS DB=>MWB, 7/21 05:00:00
 System Sizing Information, SYS_3_PSZ SP-DINING AREA - OTHER-SPACE FUNCTION SYS-3 FLR-1 SCH-B HPLCMT-SOUTH ZN, Heating, Sensible, 615938.57, 6.71513, 6.71513, FORT MCMURRAY AP ANN HTG 99.6% CONDNS DB, 1/21 00:10:00
 System Sizing Information, SYS_3_PSZ SP-DINING AREA - PENITENTIARY-SPACE FUNCTION SYS-3 FLR-2 SCH-B HPLCMT-NORTH ZN, Cooling, Sensible, 72543.88, 6.71513, 6.71513, FORT MCMURRAY AP ANN CLG .4% CONDNS DB=>MWB, 7/21 05:00:00
 System Sizing Information, SYS_3_PSZ SP-DINING AREA - PENITENTIARY-SPACE FUNCTION SYS-3 FLR-2 SCH-B HPLCMT-NORTH ZN, Heating, Sensible, 615938.57, 6.71513, 6.71513, FORT MCMURRAY AP ANN HTG 99.6% CONDNS DB, 1/21 00:10:00
 System Sizing Information, SYS_3_PSZ SP-DINING AREA - SPACE DESIGNED TO ANSI/IES RP-28 (USED PRIMARILY BY RESIDENTS)-SPACE FUNCTION SYS-3 FLR-2 SCH-B HPLCMT-SOUTH ZN, Cooling, Sensible, 120439.84, 6.71513, 6.71513, FORT MCMURRAY AP ANN CLG .4% CONDNS DB=>MWB, 7/21 05:00:00
 System Sizing Information, SYS_3_PSZ SP-DINING AREA - SPACE DESIGNED TO ANSI/IES RP-28 (USED PRIMARILY BY RESIDENTS)-SPACE FUNCTION SYS-3 FLR-2 SCH-B HPLCMT-SOUTH ZN, Heating, Sensible, 615938.57, 6.71513, 6.71513, FORT MCMURRAY AP ANN HTG 99.6% CONDNS DB, 1/21 00:10:00
 System Sizing Information, SYS_3_PSZ SP-DRESSING/FITTING ROOM - PERFORMING ARTS THEATRE-SPACE FUNCTION SYS-3 FLR-2 SCH-C HPLCMT-EAST ZN, Cooling, Sensible, 53300.24, 4.60099, 4.60099, FORT MCMURRAY AP ANN CLG .4% CONDNS DB=>MWB, 7/21 05:00:00
 System Sizing Information, SYS_3_PSZ SP-DRESSING/FITTING ROOM - PERFORMING ARTS THEATRE-SPACE FUNCTION SYS-3 FLR-2 SCH-C HPLCMT-EAST ZN, Heating, Sensible, 96103.89, 1.04775, 1.04775, FORT MCMURRAY AP ANN HTG 99.6% CONDNS DB, 1/21 00:10:00
 System Sizing Information, SYS_3_PSZ SP-FOOD PREPARATION AREA-SPACE FUNCTION SYS-3 FLR-2 SCH-B HPLCMT-CORE ZN, Cooling, Sensible, 57434.74, 5.14576, 5.14576, FORT MCMURRAY AP ANN CLG .4% CONDNS DB=>MWB, 7/21 05:00:00
 System Sizing Information, SYS_3_PSZ SP-FOOD PREPARATION AREA-SPACE FUNCTION SYS-3 FLR-2 SCH-B HPLCMT-CORE ZN, Heating, Sensible, 314521.82, 3.42900, 3.42900, FORT MCMURRAY AP ANN HTG 99.6% CONDNS DB, 1/21 00:10:00
 System Sizing Information, SYS_4_PSZ_SP-EMERGENCY VEHICLE GARAGE-SPACE FUNCTION SYS-4 FLR-3 SCH-H HPLCMT-SOUTH ZN, Cooling, Sensible, 131547.16, 7.14375, 7.14375, FORT MCMURRAY AP ANN CLG .4% CONDNS DB=>MWB, 7/21 05:00:00
 System Sizing Information, SYS_4_PSZ_SP-EMERGENCY VEHICLE GARAGE-SPACE FUNCTION SYS-4 FLR-3 SCH-H HPLCMT-SOUTH ZN, Heating, Sensible, 655253.80, 7.14375, 7.14375, FORT MCMURRAY AP ANN HTG 99.6% CONDNS DB, 1/21 00:10:00
 System Sizing Information, SYS_6_VAV WITH REHEAT, Cooling, Sensible, 57802.95, 4.50927, 4.50927, FORT MCMURRAY AP ANN CLG .4% CONDNS DB=>MWB, 7/21 00:00:00
 System Sizing Information, SYS_6_VAV WITH REHEAT, Heating, Sensible, 94084.08, 1.64783, 1.64783, FORT MCMURRAY AP ANN HTG 99.6% CONDNS DB, 1/21 00:10:00
! <Component Sizing Information>, Component Type, Component Name, Input Field Description, Value
 Component Sizing Information, AirTerminal:SingleDuct:Uncontrolled, AIR TERMINAL SINGLE DUCT UNCONTROLLED 14, Design Size Maximum Air Flow Rate [m3/s], 9.52500
 Component Sizing Information, ZoneHVAC:Baseboard:Convective:Water, ZONE HVAC BASEBOARD CONVECTIVE WATER 14, Design Size Maximum Water Flow Rate [m3/s], 0.00000
 Component Sizing Information, ZoneHVAC:Baseboard:Convective:Water, ZONE HVAC BASEBOARD CONVECTIVE WATER 14, Design Size U-Factor Times Area Value [W/K], 0.00000
 Component Sizing Information, AirTerminal:SingleDuct:Uncontrolled, AIR TERMINAL SINGLE DUCT UNCONTROLLED 15, Design Size Maximum Air Flow Rate [m3/s], 7.14375
 Component Sizing Information, ZoneHVAC:Baseboard:Convective:Water, ZONE HVAC BASEBOARD CONVECTIVE WATER 15, Design Size Maximum Water Flow Rate [m3/s], 7.41834E-004
 Component Sizing Information, ZoneHVAC:Baseboard:Convective:Water, ZONE HVAC BASEBOARD CONVECTIVE WATER 15, Design Size U-Factor Times Area Value [W/K], 1513.95500
 Component Sizing Information, AirTerminal:SingleDuct:Uncontrolled, AIR TERMINAL SINGLE DUCT UNCONTROLLED 16, Design Size Maximum Air Flow Rate [m3/s], 7.14375
 Component Sizing Information, ZoneHVAC:Baseboard:Convective:Water, ZONE HVAC BASEBOARD CONVECTIVE WATER 16, Design Size Maximum Water Flow Rate [m3/s], 3.47890E-004
 Component Sizing Information, ZoneHVAC:Baseboard:Convective:Water, ZONE HVAC BASEBOARD CONVECTIVE WATER 16, Design Size U-Factor Times Area Value [W/K], 705.43861
 Component Sizing Information, AirTerminal:SingleDuct:Uncontrolled, AIR TERMINAL SINGLE DUCT UNCONTROLLED 11, Design Size Maximum Air Flow Rate [m3/s], 9.52500
 Component Sizing Information, ZoneHVAC:Baseboard:Convective:Water, ZONE HVAC BASEBOARD CONVECTIVE WATER 11, Design Size Maximum Water Flow Rate [m3/s], 0.00000
 Component Sizing Information, ZoneHVAC:Baseboard:Convective:Water, ZONE HVAC BASEBOARD CONVECTIVE WATER 11, Design Size U-Factor Times Area Value [W/K], 0.00000
 Component Sizing Information, AirTerminal:SingleDuct:VAV:Reheat, AIR TERMINAL SINGLE DUCT VAV REHEAT 1, Design Size Maximum Air Flow Rate [m3/s], 4.50927
 Component Sizing Information, AirTerminal:SingleDuct:VAV:Reheat, AIR TERMINAL SINGLE DUCT VAV REHEAT 1, Design Size Constant Minimum Air Flow Fraction, 0.31685
 Component Sizing Information, AirTerminal:SingleDuct:VAV:Reheat, AIR TERMINAL SINGLE DUCT VAV REHEAT 1, User-Specified Constant Minimum Air Flow Fraction, 0.30000
 Component Sizing Information, AirTerminal:SingleDuct:VAV:Reheat, AIR TERMINAL SINGLE DUCT VAV REHEAT 1, Design Size Minimum Air Flow Rate [m3/s], 1.35278
 Component Sizing Information, AirTerminal:SingleDuct:VAV:Reheat, AIR TERMINAL SINGLE DUCT VAV REHEAT 1, Design Size Maximum Flow per Zone Floor Area during Reheat [m3/s-m2], 7.21483E-004
 Component Sizing Information, AirTerminal:SingleDuct:VAV:Reheat, AIR TERMINAL SINGLE DUCT VAV REHEAT 1, Design Size Maximum Flow Fraction during Reheat [], 0.30000
 Component Sizing Information, AirTerminal:SingleDuct:VAV:Reheat, AIR TERMINAL SINGLE DUCT VAV REHEAT 1, Design Size Maximum Reheat Water Flow Rate [m3/s], 5.39337E-004
 Component Sizing Information, AirTerminal:SingleDuct:VAV:Reheat, AIR TERMINAL SINGLE DUCT VAV REHEAT 1, Design Size Reheat Coil Sizing Air Volume Flow Rate [m3/s], 1.35278
 Component Sizing Information, AirTerminal:SingleDuct:VAV:Reheat, AIR TERMINAL SINGLE DUCT VAV REHEAT 1, Design Size Reheat Coil Sizing Inlet Air Temperature [C], 13.10000
 Component Sizing Information, AirTerminal:SingleDuct:VAV:Reheat, AIR TERMINAL SINGLE DUCT VAV REHEAT 1, Design Size Reheat Coil Sizing Inlet Air Humidity Ratio [kgWater/kgDryAir], 8.00000E-003
 Component Sizing Information, Coil:Heating:Water, COIL HEATING WATER 2, Design Size Rated Capacity [W], 36110.29923
 Component Sizing Information, Coil:Heating:Water, COIL HEATING WATER 2, Design Size Maximum Water Flow Rate [m3/s], 5.39337E-004
 Component Sizing Information, Coil:Heating:Water, COIL HEATING WATER 2, Design Size U-Factor Times Area Value [W/K], 755.58011
! <Water Heating Coil Capacity Information>,Component Type,Name,Nominal Total Capacity {W}
Water Heating Coil Capacity Information,Coil:Heating:Water,COIL HEATING WATER 2,33876.81
 Component Sizing Information, ZoneHVAC:Baseboard:Convective:Water, ZONE HVAC BASEBOARD CONVECTIVE WATER 20, Design Size Maximum Water Flow Rate [m3/s], 3.16465E-004
[...]
 Component Sizing Information, Coil:Cooling:DX:SingleSpeed, COIL COOLING DX SINGLE SPEED 8 379KBTU/HR 8.21EER, Design Size Gross Rated Total Cooling Capacity [W], 111159.16239
 Component Sizing Information, Coil:Cooling:DX:SingleSpeed, COIL COOLING DX SINGLE SPEED 8 379KBTU/HR 8.21EER, Design Size Gross Rated Sensible Heat Ratio, 0.80066
 DX Cooling Coil Standard Rating Information, Coil:Cooling:DX:SingleSpeed, COIL COOLING DX SINGLE SPEED 8 379KBTU/HR 8.21EER, 105939.4, 2.52, 8.61, 9.09, 8.67
 Component Sizing Information, Coil:Heating:Fuel, COIL HEATING GAS 8, Design Size Nominal Capacity [W], 615938.57163
 Component Sizing Information, Fan:ConstantVolume, FAN CONSTANT VOLUME 8, Design Size Maximum Flow Rate [m3/s], 6.71513
 Component Sizing Information, Controller:OutdoorAir, CONTROLLER OUTDOOR AIR 9, Maximum Outdoor Air Flow Rate [m3/s], 6.71513
 Component Sizing Information, Controller:OutdoorAir, CONTROLLER OUTDOOR AIR 9, Minimum Outdoor Air Flow Rate [m3/s], 6.71513
 Component Sizing Information, HeatExchanger:AirToAir:SensibleAndLatent, SYS_3_PSZ SP-DINING AREA - SPACE DESIGNED TO ANSI/IES RP-28 (USED PRIMARILY BY RESIDENTS)-SPACE FUNCTION SYS-3 FLR-2 SCH-B HPLCMT-SOUTH ZN ERV, Design Size Nominal Supply Air Flow Rate [m3/s], 6.71513
 Component Sizing Information, Coil:Cooling:DX:SingleSpeed, COIL COOLING DX SINGLE SPEED 9 422KBTU/HR 8.21EER, Design Size Rated Air Flow Rate [m3/s], 6.71513
 Component Sizing Information, Coil:Cooling:DX:SingleSpeed, COIL COOLING DX SINGLE SPEED 9 422KBTU/HR 8.21EER, Design Size Gross Rated Total Cooling Capacity [W], 132104.50047
 Component Sizing Information, Coil:Cooling:DX:SingleSpeed, COIL COOLING DX SINGLE SPEED 9 422KBTU/HR 8.21EER, Design Size Gross Rated Sensible Heat Ratio, 0.77936
 DX Cooling Coil Standard Rating Information, Coil:Cooling:DX:SingleSpeed, COIL COOLING DX SINGLE SPEED 9 422KBTU/HR 8.21EER, 126879.6, 2.61, 8.92, 9.43, 9.10
 Component Sizing Information, Coil:Heating:Fuel, COIL HEATING GAS 9, Design Size Nominal Capacity [W], 615938.57163
 Component Sizing Information, Fan:ConstantVolume, FAN CONSTANT VOLUME 9, Design Size Maximum Flow Rate [m3/s], 6.71513
 Component Sizing Information, Controller:OutdoorAir, CONTROLLER OUTDOOR AIR 7, Maximum Outdoor Air Flow Rate [m3/s], 4.60099
 Component Sizing Information, Controller:OutdoorAir, CONTROLLER OUTDOOR AIR 7, Minimum Outdoor Air Flow Rate [m3/s], 1.04775
 Component Sizing Information, Coil:Cooling:DX:SingleSpeed, COIL COOLING DX SINGLE SPEED 7 260KBTU/HR 8.21EER, Design Size Rated Air Flow Rate [m3/s], 4.60099
 Component Sizing Information, Coil:Cooling:DX:SingleSpeed, COIL COOLING DX SINGLE SPEED 7 260KBTU/HR 8.21EER, Design Size Gross Rated Total Cooling Capacity [W], 76162.72015
 Component Sizing Information, Coil:Cooling:DX:SingleSpeed, COIL COOLING DX SINGLE SPEED 7 260KBTU/HR 8.21EER, Design Size Gross Rated Sensible Heat Ratio, 0.80066
 DX Cooling Coil Standard Rating Information, Coil:Cooling:DX:SingleSpeed, COIL COOLING DX SINGLE SPEED 7 260KBTU/HR 8.21EER, 72586.3, 2.47, 8.41, 8.89, 8.49
 Component Sizing Information, Coil:Heating:Fuel, COIL HEATING GAS 7, Design Size Nominal Capacity [W], 182521.44001
 Component Sizing Information, Fan:ConstantVolume, FAN CONSTANT VOLUME 7, Design Size Maximum Flow Rate [m3/s], 4.60099
 Component Sizing Information, Controller:OutdoorAir, CONTROLLER OUTDOOR AIR 10, Maximum Outdoor Air Flow Rate [m3/s], 5.14576
 Component Sizing Information, Controller:OutdoorAir, CONTROLLER OUTDOOR AIR 10, Minimum Outdoor Air Flow Rate [m3/s], 3.42900
 Component Sizing Information, HeatExchanger:AirToAir:SensibleAndLatent, SYS_3_PSZ SP-FOOD PREPARATION AREA-SPACE FUNCTION SYS-3 FLR-2 SCH-B HPLCMT-CORE ZN ERV, Design Size Nominal Supply Air Flow Rate [m3/s], 3.42900
 Component Sizing Information, Coil:Cooling:DX:SingleSpeed, COIL COOLING DX SINGLE SPEED 10 291KBTU/HR 8.21EER, Design Size Rated Air Flow Rate [m3/s], 5.14576
 Component Sizing Information, Coil:Cooling:DX:SingleSpeed, COIL COOLING DX SINGLE SPEED 10 291KBTU/HR 8.21EER, Design Size Gross Rated Total Cooling Capacity [W], 85180.59202
 Component Sizing Information, Coil:Cooling:DX:SingleSpeed, COIL COOLING DX SINGLE SPEED 10 291KBTU/HR 8.21EER, Design Size Gross Rated Sensible Heat Ratio, 0.80066
 DX Cooling Coil Standard Rating Information, Coil:Cooling:DX:SingleSpeed, COIL COOLING DX SINGLE SPEED 10 291KBTU/HR 8.21EER, 81180.7, 2.48, 8.46, 8.94, 8.54
 Component Sizing Information, Coil:Heating:Fuel, COIL HEATING GAS 10, Design Size Nominal Capacity [W], 356274.74723
 Component Sizing Information, Fan:ConstantVolume, FAN CONSTANT VOLUME 10, Design Size Maximum Flow Rate [m3/s], 5.14576
 Component Sizing Information, Controller:OutdoorAir, CONTROLLER OUTDOOR AIR 19, Maximum Outdoor Air Flow Rate [m3/s], 7.14375
 Component Sizing Information, Controller:OutdoorAir, CONTROLLER OUTDOOR AIR 19, Minimum Outdoor Air Flow Rate [m3/s], 7.14375
 Component Sizing Information, HeatExchanger:AirToAir:SensibleAndLatent, SYS_4_PSZ_SP-EMERGENCY VEHICLE GARAGE-SPACE FUNCTION SYS-4 FLR-3 SCH-H HPLCMT-SOUTH ZN ERV, Design Size Nominal Supply Air Flow Rate [m3/s], 7.14375
 Component Sizing Information, Coil:Cooling:DX:SingleSpeed, COIL COOLING DX SINGLE SPEED 19 460KBTU/HR 8.21EER, Design Size Rated Air Flow Rate [m3/s], 7.14375
 Component Sizing Information, Coil:Cooling:DX:SingleSpeed, COIL COOLING DX SINGLE SPEED 19 460KBTU/HR 8.21EER, Design Size Gross Rated Total Cooling Capacity [W], 143648.46503
 Component Sizing Information, Coil:Cooling:DX:SingleSpeed, COIL COOLING DX SINGLE SPEED 19 460KBTU/HR 8.21EER, Design Size Gross Rated Sensible Heat Ratio, 0.77066
 DX Cooling Coil Standard Rating Information, Coil:Cooling:DX:SingleSpeed, COIL COOLING DX SINGLE SPEED 19 460KBTU/HR 8.21EER, 138089.3, 2.64, 9.01, 9.53, 9.21
 Component Sizing Information, Coil:Heating:Fuel, COIL HEATING GAS 19, Design Size Nominal Capacity [W], 655253.79960
 Component Sizing Information, Fan:ConstantVolume, FAN CONSTANT VOLUME 19, Design Size Maximum Flow Rate [m3/s], 7.14375
 Component Sizing Information, Fan:VariableVolume, SYS6 RETURN FAN, Design Size Maximum Flow Rate [m3/s], 4.50927
 Component Sizing Information, Controller:OutdoorAir, CONTROLLER OUTDOOR AIR 20, Maximum Outdoor Air Flow Rate [m3/s], 4.50927
 Component Sizing Information, Controller:OutdoorAir, CONTROLLER OUTDOOR AIR 20, Minimum Outdoor Air Flow Rate [m3/s], 1.64783
 Component Sizing Information, Coil:Cooling:Water, COIL COOLING WATER 1, Design Size Design Coil Load [W], 72898.08854
 Component Sizing Information, Coil:Cooling:Water, COIL COOLING WATER 1, Design Size Design Water Flow Rate [m3/s], 2.89445E-003
 Component Sizing Information, Coil:Cooling:Water, COIL COOLING WATER 1, Design Size Design Air Flow Rate [m3/s], 4.50927
 Component Sizing Information, Coil:Cooling:Water, COIL COOLING WATER 1, Design Size Design Inlet Air Temperature [C], 24.06842
 Component Sizing Information, Coil:Cooling:Water, COIL COOLING WATER 1, Design Size Design Inlet Water Temperature [C], 7.00000
 Component Sizing Information, Coil:Cooling:Water, COIL COOLING WATER 1, Design Size Design Outlet Air Temperature [C], 13.00000
 Component Sizing Information, Coil:Cooling:Water, COIL COOLING WATER 1, Design Size Design Inlet Air Humidity Ratio, 8.77236E-003
 Component Sizing Information, Coil:Cooling:Water, COIL COOLING WATER 1, Design Size Design Outlet Air Humidity Ratio, 8.76847E-003
! <Water Cooling Coil Capacity Information>,Component Type,Name,Nominal Total Capacity {W},Nominal Sensible Capacity {W},Nominal Latent Capacity {W},Nominal Sensible Heat Ratio, Nominal Coil UA Value {W/C}, Nominal Coil Surface Area {m2}
Water Cooling Coil Capacity Information,Coil:Cooling:Water,COIL COOLING WATER 1,99172.68,70348.37,28824.31,0.71,11134.09,112.93
 Component Sizing Information, Coil:Heating:Water, COIL HEATING WATER 1, Design Size Rated Capacity [W], 77238.26844
 Component Sizing Information, Coil:Heating:Water, COIL HEATING WATER 1, Design Size Maximum Water Flow Rate [m3/s], 1.15362E-003
 Component Sizing Information, Coil:Heating:Water, COIL HEATING WATER 1, Design Size U-Factor Times Area Value [W/K], 942.53335
Water Heating Coil Capacity Information,Coil:Heating:Water,COIL HEATING WATER 1,43033.67
 Component Sizing Information, Fan:VariableVolume, SYS6 SUPPLY FAN, Design Size Maximum Flow Rate [m3/s], 4.50927
 Component Sizing Information, Controller:WaterCoil, CONTROLLER WATER COIL 2, Maximum Actuated Flow [m3/s], 2.89445E-003
 Component Sizing Information, Controller:WaterCoil, CONTROLLER WATER COIL 2, Controller Convergence Tolerance, 1.64518E-004
 Component Sizing Information, Controller:WaterCoil, CONTROLLER WATER COIL 1, Maximum Actuated Flow [m3/s], 1.15362E-003
Water Heater Information,WaterHeater:Mixed,999GAL NATURALGAS WATER HEATER - 2058KBTU/HR 0.802 THERM EFF,3.7829,603073.7,0.185,0.2267
 Component Sizing Information, PlantLoop, CHILLED WATER LOOP, Maximum Loop Flow Rate [m3/s], 2.89445E-003
 Component Sizing Information, PlantLoop, CHILLED WATER LOOP, Plant Loop Volume [m3], 0.34733
 Component Sizing Information, Pump:ConstantSpeed, PUMP CONSTANT SPEED 1, Design Flow Rate [m3/s], 2.89445E-003
 Component Sizing Information, Pump:ConstantSpeed, PUMP CONSTANT SPEED 1, Design Power Consumption [W], 1016.30091
 Component Sizing Information, Chiller:Electric:EIR, PRIMARY CHILLER WATERCOOLED SCROLL 21TONS 0.8KW/TON, Design Size Reference Chilled Water Flow Rate [m3/s], 2.89445E-003
 Component Sizing Information, Chiller:Electric:EIR, PRIMARY CHILLER WATERCOOLED SCROLL 21TONS 0.8KW/TON, Design Size Reference Capacity [W], 72896.87299
 Component Sizing Information, Chiller:Electric:EIR, PRIMARY CHILLER WATERCOOLED SCROLL 21TONS 0.8KW/TON, User-Specified Reference Capacity [W], 74720.48936
 Component Sizing Information, Chiller:Electric:EIR, PRIMARY CHILLER WATERCOOLED SCROLL 21TONS 0.8KW/TON, Design Size Reference Condenser Fluid Flow Rate [m3/s], 3.64135E-003
! <Chiller Standard Rating Information>, Component Type, Component Name, IPLV in SI Units {W/W}, IPLV in IP Units {Btu/W-h}
 Chiller Standard Rating Information, Chiller:Electric:EIR, PRIMARY CHILLER WATERCOOLED SCROLL 21TONS 0.8KW/TON, 5.61, 19.14
 Component Sizing Information, Chiller:Electric:EIR, SECONDARY CHILLER WATERCOOLED SCROLL 0TONS 0.8KW/TON, Design Size Reference Chilled Water Flow Rate [m3/s], 2.89445E-003
 Component Sizing Information, Chiller:Electric:EIR, SECONDARY CHILLER WATERCOOLED SCROLL 0TONS 0.8KW/TON, Design Size Reference Capacity [W], 72896.87299
 Component Sizing Information, Chiller:Electric:EIR, SECONDARY CHILLER WATERCOOLED SCROLL 0TONS 0.8KW/TON, User-Specified Reference Capacity [W], 1.00000E-003
 Component Sizing Information, Chiller:Electric:EIR, SECONDARY CHILLER WATERCOOLED SCROLL 0TONS 0.8KW/TON, Design Size Reference Condenser Fluid Flow Rate [m3/s], 4.87330E-011
 Chiller Standard Rating Information, Chiller:Electric:EIR, SECONDARY CHILLER WATERCOOLED SCROLL 0TONS 0.8KW/TON, 5.61, 19.14
 Component Sizing Information, PlantLoop, CONDENSER WATER LOOP, Maximum Loop Flow Rate [m3/s], 3.64135E-003
 Component Sizing Information, PlantLoop, CONDENSER WATER LOOP, Plant Loop Volume [m3], 0.43696
 Component Sizing Information, Pump:ConstantSpeed, PUMP CONSTANT SPEED 2, Design Flow Rate [m3/s], 3.64135E-003
 Component Sizing Information, Pump:ConstantSpeed, PUMP CONSTANT SPEED 2, Design Power Consumption [W], 1095.90211
 Component Sizing Information, CoolingTower:SingleSpeed, COOLING TOWER SINGLE SPEED 1, Design Water Flow Rate [m3/s], 3.64135E-003
 Component Sizing Information, CoolingTower:SingleSpeed, COOLING TOWER SINGLE SPEED 1, Design Air Flow Rate [m3/s], 3.26421
 Component Sizing Information, CoolingTower:SingleSpeed, COOLING TOWER SINGLE SPEED 1, U-Factor Times Area Value at Design Air Flow Rate [W/C], 3307.80987
 Component Sizing Information, CoolingTower:SingleSpeed, COOLING TOWER SINGLE SPEED 1, Free Convection Regime Air Flow Rate [m3/s], 0.32642
 Component Sizing Information, CoolingTower:SingleSpeed, COOLING TOWER SINGLE SPEED 1, Free Convection U-Factor Times Area Value [W/K], 330.78099
 Component Sizing Information, PlantLoop, HOT WATER LOOP, Maximum Loop Flow Rate [m3/s], 5.35144E-003
 Component Sizing Information, PlantLoop, HOT WATER LOOP, Plant Loop Volume [m3], 0.64217
 Component Sizing Information, Pump:VariableSpeed, PUMP VARIABLE SPEED 1, Design Flow Rate [m3/s], 5.35144E-003
 Component Sizing Information, Pump:VariableSpeed, PUMP VARIABLE SPEED 1, Design Power Consumption [W], 1610.56791
 Component Sizing Information, Boiler:HotWater, PRIMARY BOILER 1227KBTU/HR 0.83 THERMAL EFF, Design Size Nominal Capacity [W], 359682.50661
 Component Sizing Information, Boiler:HotWater, PRIMARY BOILER 1227KBTU/HR 0.83 THERMAL EFF, User-Specified Nominal Capacity [W], 359682.50661
 Component Sizing Information, Boiler:HotWater, PRIMARY BOILER 1227KBTU/HR 0.83 THERMAL EFF, Design Size Design Water Flow Rate [m3/s], 5.35144E-003
 Component Sizing Information, Boiler:HotWater, SECONDARY BOILER 0KBTU/HR 0.85 AFUE, Design Size Nominal Capacity [W], 359682.50661
 Component Sizing Information, Boiler:HotWater, SECONDARY BOILER 0KBTU/HR 0.85 AFUE, User-Specified Nominal Capacity [W], 1.00000E-003
 Component Sizing Information, Boiler:HotWater, SECONDARY BOILER 0KBTU/HR 0.85 AFUE, Design Size Design Water Flow Rate [m3/s], 5.35144E-003
 Component Sizing Information, PlantLoop, MAIN SERVICE WATER LOOP, Maximum Loop Flow Rate [m3/s], 1.56316E-003
 Component Sizing Information, PlantLoop, MAIN SERVICE WATER LOOP, Plant Loop Volume [m3], 0.18758
 Component Sizing Information, Pump:ConstantSpeed, SERVICE WATER LOOP PUMP, Design Flow Rate [m3/s], 1.56316E-003
 Component Sizing Information, Pump:ConstantSpeed, SERVICE WATER LOOP PUMP, Design Power Consumption [W], 3041.24274
 Component Sizing Information, WaterHeater:Mixed, 999GAL NATURALGAS WATER HEATER - 2058KBTU/HR 0.802 THERM EFF, Use Side Design Flow Rate [m3/s], 1.56316E-003
! <Environment>,Environment Name,Environment Type, Start Date, End Date, Start DayOfWeek, Duration {#days}, Source:Start DayOfWeek,  Use Daylight Saving, Use Holidays, Apply Weekend Holiday Rule,  Use Rain Values, Use Snow Values
! <Environment:Special Days>, Special Day Name, Special Day Type, Source, Start Date, Duration {#days}
! <Environment:Daylight Saving>, Daylight Saving Indicator, Source, Start Date, End Date
! <Environment:WarmupDays>, NumberofWarmupDays
Environment,RUN PERIOD 1,WeatherFileRunPeriod,01/01,12/31,Sunday,365,Use RunPeriod Specified Day,No,No,No,Yes,Yes
Environment:Daylight Saving,No,RunPeriod Object
Environment:WarmupDays, 14
! <Tabular Report>,Style,Unit Conversion
Tabular Report,HTML,None
! <Warmup Convergence Information>,Zone Name,Environment Type/Name,Average Warmup Temperature Difference {deltaC},Std Dev Warmup Temperature Difference {deltaC},Max Temperature Pass/Fail Convergence,Min Temperature Pass/Fail Convergence,Average Warmup Load Difference {W},Std Dev Warmup Load Difference {W},Heating Load Pass/Fail Convergence,Cooling Load Pass/Fail Convergence
 Warmup Convergence Information,SP-AUDIENCE SEATING AREA PERMANENT - OTHER-SCH-H-SPACE FUNCTION SYS-3 FLR-4 SCH-H HPLCMT-CORE ZN,RunPeriod: RUN PERIOD 1,5.5655020039E-002,0.3013708667,Pass,Pass,0.1030085903,0.4244764451,Pass,Pass
 Warmup Convergence Information,SP-AUDIENCE SEATING AREA PERMANENT - OTHER-SCH-I-SPACE FUNCTION SYS-3 FLR-4 SCH-I HPLCMT-NORTH ZN,RunPeriod: RUN PERIOD 1,5.6956509625E-002,0.2406365924,Pass,Pass,0.2334707177,0.6361002251,Pass,Pass
 Warmup Convergence Information,SP-AUDIENCE SEATING AREA PERMANENT - OTHER-SCH-J-SPACE FUNCTION SYS-3 FLR-4 SCH-J HPLCMT-WEST ZN,RunPeriod: RUN PERIOD 1,1.1407706572E-005,1.8723711110E-005,Pass,Pass,0.4495500171,1.9725041842,Pass,Pass
 Warmup Convergence Information,SP-AUDIENCE SEATING AREA PERMANENT - OTHER-SCH-K-SPACE FUNCTION SYS-3 FLR-3 SCH-K HPLCMT-CORE ZN,RunPeriod: RUN PERIOD 1,0.1063490259,0.2510665926,Pass,Pass,1.6691090588E-002,0.1006442368,Pass,Pass
 Warmup Convergence Information,SP-BANKING ACTIVITY AREA AND OFFICES-SPACE FUNCTION SYS-6 FLR-3 SCH-A HPLCMT-EAST ZN,RunPeriod: RUN PERIOD 1,9.4133672489E-003,1.1650926417E-002,Pass,Pass,0.0000000000,0.0000000000,Pass,Pass
 Warmup Convergence Information,SP-CLASSROOM/LECTURE HALL/TRAINING ROOM - PENITENTARY-SPACE FUNCTION SYS-3 FLR-4 SCH-D HPLCMT-EAST ZN,RunPeriod: RUN PERIOD 1,6.2927461819E-003,2.1488859607E-002,Pass,Pass,6.4163838481E-002,0.1920422445,Pass,Pass
 Warmup Convergence Information,SP-CLASSROOM/LECTURE HALL/TRAINING ROOM OTHER-SPACE FUNCTION SYS-3 FLR-3 SCH-D HPLCMT-WEST ZN,RunPeriod: RUN PERIOD 1,1.6205729788E-002,2.1130843478E-002,Pass,Pass,0.0000000000,0.0000000000,Pass,Pass
 Warmup Convergence Information,SP-CONFERENCE/MEETING/MULTI-PURPOSE ROOM-SPACE FUNCTION SYS-3 FLR-3 SCH-C HPLCMT-NORTH ZN,RunPeriod: RUN PERIOD 1,4.0257762327E-002,0.1636984130,Pass,Pass,7.6216079796E-002,0.4642183607,Pass,Pass
 Warmup Convergence Information,SP-CONFINEMENT CELL-SPACE FUNCTION SYS-3 FLR-1 SCH-G HPLCMT-NORTH ZN,RunPeriod: RUN PERIOD 1,3.9912239584E-002,0.1723366896,Pass,Pass,0.1405797512,0.7714528646,Pass,Pass
 Warmup Convergence Information,SP-COPY/PRINT ROOM-SPACE FUNCTION SYS-3 FLR-1 SCH-A HPLCMT-EAST ZN,RunPeriod: RUN PERIOD 1,2.0570571959E-003,1.5735986687E-003,Pass,Pass,0.0000000000,0.0000000000,Pass,Pass
 Warmup Convergence Information,SP-COURTROOM-SPACE FUNCTION SYS-3 FLR-2 SCH-A HPLCMT-WEST ZN,RunPeriod: RUN PERIOD 1,1.4395972760E-002,1.8923748859E-002,Pass,Pass,0.0000000000,0.0000000000,Pass,Pass
 Warmup Convergence Information,SP-DINING AREA - BAR LOUNGE/LEISURE DINING-SPACE FUNCTION SYS-3 FLR-1 SCH-B HPLCMT-CORE ZN,RunPeriod: RUN PERIOD 1,7.6365919364E-002,0.2478673937,Pass,Pass,6.6796635294E-002,0.2930810929,Pass,Pass
 Warmup Convergence Information,SP-DINING AREA - CAFETERIA/FAST FOOD DINING-SPACE FUNCTION SYS-3 FLR-4 SCH-B HPLCMT-SOUTH ZN,RunPeriod: RUN PERIOD 1,0.1016019929,0.2988324986,Pass,Pass,0.7334458402,5.3272742574,Pass,Pass
 Warmup Convergence Information,SP-DINING AREA - FAMILY DINING-SPACE FUNCTION SYS-3 FLR-1 SCH-B HPLCMT-WEST ZN,RunPeriod: RUN PERIOD 1,4.6712865841E-002,0.1660803257,Pass,Pass,4.2682529926E-002,0.1767385054,Pass,Pass
 Warmup Convergence Information,SP-DINING AREA - OTHER-SPACE FUNCTION SYS-3 FLR-1 SCH-B HPLCMT-SOUTH ZN,RunPeriod: RUN PERIOD 1,7.7215751260E-002,0.2443361051,Pass,Pass,9.0101995145E-002,0.4454667801,Pass,Pass
 Warmup Convergence Information,SP-DINING AREA - PENITENTIARY-SPACE FUNCTION SYS-3 FLR-2 SCH-B HPLCMT-NORTH ZN,RunPeriod: RUN PERIOD 1,3.0734409021E-002,8.3031728258E-002,Pass,Pass,5.4295989086E-002,0.2647219195,Pass,Pass
 Warmup Convergence Information,SP-DINING AREA - SPACE DESIGNED TO ANSI/IES RP-28 (USED PRIMARILY BY RESIDENTS)-SPACE FUNCTION SYS-3 FLR-2 SCH-B HPLCMT-SOUTH ZN,RunPeriod: RUN PERIOD 1,9.2791637374E-002,0.2888770697,Pass,Pass,4.3721333548E-002,0.1949709185,Pass,Pass
 Warmup Convergence Information,SP-DRESSING/FITTING ROOM - PERFORMING ARTS THEATRE-SPACE FUNCTION SYS-3 FLR-2 SCH-C HPLCMT-EAST ZN,RunPeriod: RUN PERIOD 1,3.8194150489E-002,0.1467412201,Pass,Pass,1.7147093979E-002,9.1719492613E-002,Pass,Pass
 Warmup Convergence Information,SP-EMERGENCY VEHICLE GARAGE-SPACE FUNCTION SYS-4 FLR-3 SCH-H HPLCMT-SOUTH ZN,RunPeriod: RUN PERIOD 1,5.5691323125E-002,0.2817789887,Pass,Pass,0.1345891612,0.7910290566,Pass,Pass
 Warmup Convergence Information,SP-FOOD PREPARATION AREA-SPACE FUNCTION SYS-3 FLR-2 SCH-B HPLCMT-CORE ZN,RunPeriod: RUN PERIOD 1,8.4218010156E-002,0.2404556894,Pass,Pass,6.4683088695E-002,0.2871515153,Pass,Pass
! <Program Control Information:Threads/Parallel Sims>, Threading Supported,Maximum Number of Threads, Env Set Threads (OMP_NUM_THREADS), EP Env Set Threads (EP_OMP_NUM_THREADS), IDF Set Threads, Number of Threads Used (Interior Radiant Exchange), Number Nominal Surfaces, Number Parallel Sims
Program Control:Threads/Parallel Sims, No,1, N/A, N/A, N/A, N/A, N/A, N/A
End of Data
