Program Version,EnergyPlus, Version 8.9.0-eba93e8e1b, YMD=2019.03.28 13:16
! <Version>, Version ID
 Version, 8.9
! <Timesteps per Hour>, #TimeSteps, Minutes per TimeStep {minutes}
 Timesteps per Hour,  6, 10
! <System Convergence Limits>, Minimum System TimeStep {minutes}, Max HVAC Iterations, Minimum Plant Iterations, Maximum Plant Iterations
 System Convergence Limits, 1, 20, 2, 8
! <Simulation Control>, Do Zone Sizing, Do System Sizing, Do Plant Sizing, Do Design Days, Do Weather Simulation, Do HVAC Sizing Simulation
 Simulation Control, Yes, Yes, Yes, Yes, No, No
! <Output Reporting Tolerances>, Tolerance for Time Heating Setpoint Not Met, Tolerance for Zone Cooling Setpoint Not Met Time
 Output Reporting Tolerances, 1.000, 1.000, 
! <Site:GroundTemperature:BuildingSurface>,Jan{C},Feb{C},Mar{C},Apr{C},May{C},Jun{C},Jul{C},Aug{C},Sep{C},Oct{C},Nov{C},Dec{C}
 Site:GroundTemperature:BuildingSurface,  19.53,  19.50,  19.54,  19.60,  20.00,  21.64,  22.23,  22.38,  21.45,  20.12,  19.80,  19.63
! <Site:GroundTemperature:FCfactorMethod>,Jan{C},Feb{C},Mar{C},Apr{C},May{C},Jun{C},Jul{C},Aug{C},Sep{C},Oct{C},Nov{C},Dec{C}
 Site:GroundTemperature:FCfactorMethod, -12.27, -13.66, -11.19,  -7.33,   2.77,  10.57,  15.83,  17.43,  14.70,   8.65,   0.56,  -6.95
! <Site:GroundTemperature:Shallow>,Jan{C},Feb{C},Mar{C},Apr{C},May{C},Jun{C},Jul{C},Aug{C},Sep{C},Oct{C},Nov{C},Dec{C}
 Site:GroundTemperature:Shallow,  13.00,  13.00,  13.00,  13.00,  13.00,  13.00,  13.00,  13.00,  13.00,  13.00,  13.00,  13.00
! <Site:GroundTemperature:Deep>,Jan{C},Feb{C},Mar{C},Apr{C},May{C},Jun{C},Jul{C},Aug{C},Sep{C},Oct{C},Nov{C},Dec{C}
 Site:GroundTemperature:Deep,  16.00,  16.00,  16.00,  16.00,  16.00,  16.00,  16.00,  16.00,  16.00,  16.00,  16.00,  16.00
! <Site:GroundReflectance>,Jan{dimensionless},Feb{dimensionless},Mar{dimensionless},Apr{dimensionless},May{dimensionless},Jun{dimensionless},Jul{dimensionless},Aug{dimensionless},Sep{dimensionless},Oct{dimensionless},Nov{dimensionless},Dec{dimensionless}
 Site:GroundReflectance,  0.20,  0.20,  0.20,  0.20,  0.20,  0.20,  0.20,  0.20,  0.20,  0.20,  0.20,  0.20
! <Site:GroundReflectance:SnowModifier>, Normal, Daylighting {dimensionless}
 Site:GroundReflectance:SnowModifier,   1.000,   1.000
! <Site:GroundReflectance:Snow>,Jan{dimensionless},Feb{dimensionless},Mar{dimensionless},Apr{dimensionless},May{dimensionless},Jun{dimensionless},Jul{dimensionless},Aug{dimensionless},Sep{dimensionless},Oct{dimensionless},Nov{dimensionless},Dec{dimensionless}
 Site:GroundReflectance:Snow,  0.20,  0.20,  0.20,  0.20,  0.20,  0.20,  0.20,  0.20,  0.20,  0.20,  0.20,  0.20
! <Site:GroundReflectance:Snow:Daylighting>,Jan{dimensionless},Feb{dimensionless},Mar{dimensionless},Apr{dimensionless},May{dimensionless},Jun{dimensionless},Jul{dimensionless},Aug{dimensionless},Sep{dimensionless},Oct{dimensionless},Nov{dimensionless},Dec{dimensionless}
 Site:GroundReflectance:Snow:Daylighting,  0.20,  0.20,  0.20,  0.20,  0.20,  0.20,  0.20,  0.20,  0.20,  0.20,  0.20,  0.20
! <Environment:Weather Station>,Wind Sensor Height Above Ground {m},Wind Speed Profile Exponent {},Wind Speed Profile Boundary Layer Thickness {m},Air Temperature Sensor Height Above Ground {m},Wind Speed Modifier Coefficient-Internal,Temperature Modifier Coefficient-Internal
Environment:Weather Station,10.000,0.140,270.000,1.500,1.586,9.750E-003
! <Site:Location>, Location Name, Latitude {N+/S- Deg}, Longitude {E+/W- Deg},  Time Zone Number {GMT+/-}, Elevation {m},  Standard Pressure at Elevation {Pa}, Standard RhoAir at Elevation
Site:Location,Fort McMurray AP AB CAN CWEC2016 WMO#=716890,56.65,-111.22,-7.00,369.10,96969,1.1525
! <Building Information>, Building Name,North Axis {deg},Terrain,  Loads Convergence Tolerance Value,Temperature Convergence Tolerance Value,  Solar Distribution,Maximum Number of Warmup Days,Minimum Number of Warmup Days
 Building Information,Building 1,0.000,Suburbs,4.00000E-002,0.40000,FullExterior,25,6
! <Inside Convection Algorithm>, Algorithm {Simple | TARP | CeilingDiffuser | AdaptiveConvectionAlgorithm}
Inside Convection Algorithm,TARP
! <Outside Convection Algorithm>, Algorithm {SimpleCombined | TARP | MoWitt | DOE-2 | AdaptiveConvectionAlgorithm}
Outside Convection Algorithm,TARP
! <Sky Radiance Distribution>, Value {Anisotropic}
Sky Radiance Distribution,Anisotropic
! <Zone Air Solution Algorithm>, Value {ThirdOrderBackwardDifference | AnalyticalSolution | EulerMethod}
 Zone Air Solution Algorithm, ThirdOrderBackwardDifference
! <Zone Air Carbon Dioxide Balance Simulation>, Simulation {Yes/No}, Carbon Dioxide Concentration
 Zone Air Carbon Dioxide Balance Simulation, No,N/A
! <Zone Air Generic Contaminant Balance Simulation>, Simulation {Yes/No}, Generic Contaminant Concentration
 Zone Air Generic Contaminant Balance Simulation, No,N/A
! <Zone Air Mass Flow Balance Simulation>, Enforce Mass Balance, Adjust Zone Mixing, Adjust Zone Infiltration {AddInfiltration | AdjustInfiltration | None}, Infiltration Zones {MixingSourceZonesOnly | AllZones}
 Zone Air Mass Flow Balance Simulation, No,N/A,N/A,N/A
! <HVACSystemRootFindingAlgorithm>, Value {RegulaFalsi | Bisection | BisectionThenRegulaFalsi | RegulaFalsiThenBisection}
 HVACSystemRootFindingAlgorithm, RegulaFalsi
! <Environment:Site Atmospheric Variation>,Wind Speed Profile Exponent {},Wind Speed Profile Boundary Layer Thickness {m},Air Temperature Gradient Coefficient {K/m}
Environment:Site Atmospheric Variation,0.220,370.000,6.500000E-003
! <Surface Geometry>,Starting Corner,Vertex Input Direction,Coordinate System,Daylight Reference Point Coordinate System,Rectangular (Simple) Surface Coordinate System
 Surface Geometry,UpperLeftCorner,Counterclockwise,RelativeCoordinateSystem,RelativeCoordinateSystem,RelativeToZoneOrigin
! <Surface Heat Transfer Algorithm>, Value {CTF - ConductionTransferFunction | EMPD - MoisturePenetrationDepthConductionTransferFunction | CondFD - ConductionFiniteDifference | HAMT - CombinedHeatAndMoistureFiniteElement} - Description,Inside Surface Max Temperature Limit{C}, Surface Convection Coefficient Lower Limit {W/m2-K}, Surface Convection Coefficient Upper Limit {W/m2-K}
Surface Heat Transfer Algorithm, CTF - ConductionTransferFunction,200,0.10,1000.0
! <Shading Summary>, Number of Fixed Detached Shades, Number of Building Detached Shades, Number of Attached Shades
 Shading Summary,0,0,0
! <Zone Summary>, Number of Zones, Number of Zone Surfaces, Number of SubSurfaces
 Zone Summary,20,137,17
! <Zone Information>,Zone Name,North Axis {deg},Origin X-Coordinate {m},Origin Y-Coordinate {m},Origin Z-Coordinate {m},Centroid X-Coordinate {m},Centroid Y-Coordinate {m},Centroid Z-Coordinate {m},Type,Zone Multiplier,Zone List Multiplier,Minimum X {m},Maximum X {m},Minimum Y {m},Maximum Y {m},Minimum Z {m},Maximum Z {m},Ceiling Height {m},Volume {m3},Zone Inside Convection Algorithm {Simple-Detailed-CeilingDiffuser-TrombeWall},Zone Outside Convection Algorithm {Simple-Detailed-Tarp-MoWitt-DOE-2-BLAST}, Floor Area {m2},Exterior Gross Wall Area {m2},Exterior Net Wall Area {m2},Exterior Window Area {m2}, Number of Surfaces, Number of SubSurfaces, Number of Shading SubSurfaces,  Part of Total Building Area
 Zone Information, ALL_ST=LOBBY - MOTION PICTURE_FL=STORY 4_SCH=C,0.0,0.00,0.00,11.40,50.00,10.85,13.30,1,1,1,0.00,100.00,0.00,25.00,11.40,15.20,3.80,7125.00,TARP,TARP,1875.00,380.00,285.00,188.75,6,2,0,Yes
 Zone Information, ALL_ST=LOBBY - OTHER_FL=STORY 4_SCH=C,0.0,25.00,25.00,11.40,50.00,50.00,13.30,1,1,1,25.00,75.00,25.00,75.00,11.40,15.20,3.80,9500.00,TARP,TARP,2500.00,0.00,0.00,125.00,6,1,0,Yes
 Zone Information, ALL_ST=LOBBY - PERFORMANCE ARTS_FL=STORY 4_SCH=C,0.0,75.00,25.00,11.40,89.15,50.00,13.30,1,1,1,75.00,100.00,0.00,100.00,11.40,15.20,3.80,7125.00,TARP,TARP,1875.00,380.00,285.00,188.75,6,2,0,Yes
 Zone Information, ALL_ST=LOUNGE/RECREATION_FL=STORY 4_SCH=B,0.0,25.00,75.00,11.40,50.00,89.15,13.30,1,1,1,0.00,100.00,75.00,100.00,11.40,15.20,3.80,7125.00,TARP,TARP,1875.00,380.00,285.00,188.75,6,2,0,Yes
 Zone Information, ALL_ST=MFG - 7.5 <= BAY H <= 15M_FL=STORY 4_SCH=A,0.0,0.00,0.00,11.40,10.85,50.00,13.30,1,1,1,0.00,25.00,0.00,100.00,11.40,15.20,3.80,7125.00,TARP,TARP,1875.00,380.00,285.00,188.75,6,2,0,Yes
 Zone Information, ALL_ST=MFG - BAY H < 7.5M_FL=STORY 3_SCH=A,0.0,75.00,25.00,7.60,89.15,50.00,9.50,1,1,1,75.00,100.00,0.00,100.00,7.60,11.40,3.80,7125.00,TARP,TARP,1875.00,380.00,285.00,95.00,6,1,0,Yes
 Zone Information, ALL_ST=MFG - BAY H > 15M_FL=STORY 1_SCH=A,0.0,0.00,0.00,0.00,10.85,50.00,1.90,1,1,1,0.00,25.00,0.00,100.00,0.00,3.80,3.80,7125.00,TARP,TARP,1875.00,0.00,0.00,0.00,6,0,0,Yes
 Zone Information, ALL_ST=MFG - DETAILED_FL=STORY 1_SCH=A,0.0,25.00,75.00,0.00,50.00,89.15,1.90,1,1,1,0.00,100.00,75.00,100.00,0.00,3.80,3.80,7125.00,TARP,TARP,1875.00,0.00,0.00,0.00,6,0,0,Yes
 Zone Information, ALL_ST=MFG - EQUIPMENT_FL=STORY 1_SCH=A,0.0,25.00,25.00,0.00,50.00,50.00,1.90,1,1,1,25.00,75.00,25.00,75.00,0.00,3.80,3.80,9500.00,TARP,TARP,2500.00,0.00,0.00,0.00,6,0,0,Yes
 Zone Information, ALL_ST=MUSEUM - EXHIBITION_FL=STORY 3_SCH=C,0.0,0.00,0.00,7.60,50.00,10.85,9.50,1,1,1,0.00,100.00,0.00,25.00,7.60,11.40,3.80,7125.00,TARP,TARP,1875.00,380.00,285.00,95.00,6,1,0,Yes
 Zone Information, ALL_ST=MUSEUM - RESTORATION_FL=STORY 1_SCH=A,0.0,75.00,25.00,0.00,89.15,50.00,1.90,1,1,1,75.00,100.00,0.00,100.00,0.00,3.80,3.80,7125.00,TARP,TARP,1875.00,0.00,0.00,0.00,6,0,0,Yes
 Zone Information, ALL_ST=OFFICE - ENCLOSED - OCCSENS_FL=STORY 2_SCH=A,0.0,25.00,75.00,3.80,50.00,89.15,5.70,1,1,1,0.00,100.00,75.00,100.00,3.80,7.60,3.80,7125.00,TARP,TARP,1875.00,380.00,285.00,95.00,6,1,0,Yes
 Zone Information, ALL_ST=OFFICE - ENCLOSED_FL=STORY 1_SCH=A,0.0,0.00,0.00,0.00,50.00,10.85,1.90,1,1,1,0.00,100.00,0.00,25.00,0.00,3.80,3.80,7125.00,TARP,TARP,1875.00,0.00,0.00,0.00,6,0,0,Yes
 Zone Information, ALL_ST=OFFICE - OPEN PLAN_FL=STORY 2_SCH=A,0.0,0.00,0.00,3.80,10.85,50.00,5.70,1,1,1,0.00,25.00,0.00,100.00,3.80,7.60,3.80,7125.00,TARP,TARP,1875.00,380.00,285.00,95.00,6,1,0,Yes
 Zone Information, ALL_ST=PARKING GARAGE SPACE_FL=STORY 3_SCH=H,0.0,25.00,75.00,7.60,50.00,89.15,9.50,1,1,1,0.00,100.00,75.00,100.00,7.60,11.40,3.80,7125.00,TARP,TARP,1875.00,380.00,285.00,95.00,6,1,0,Yes
 Zone Information, ALL_ST=PENITENTIARY - AUDIENCE_FL=STORY 3_SCH=C,0.0,0.00,0.00,7.60,10.85,50.00,9.50,1,1,1,0.00,25.00,0.00,100.00,7.60,11.40,3.80,7125.00,TARP,TARP,1875.00,380.00,285.00,95.00,6,1,0,Yes
 Zone Information, ALL_ST=PENITENTIARY - CLASSROOM_FL=STORY 2_SCH=D,0.0,25.00,25.00,3.80,50.00,50.00,5.70,1,1,1,25.00,75.00,25.00,75.00,3.80,7.60,3.80,9500.00,TARP,TARP,2500.00,0.00,0.00,0.00,6,0,0,Yes
 Zone Information, ALL_ST=PENITENTIARY - DINING_FL=STORY 2_SCH=B,0.0,75.00,25.00,3.80,89.15,50.00,5.70,1,1,1,75.00,100.00,0.00,100.00,3.80,7.60,3.80,7125.00,TARP,TARP,1875.00,380.00,285.00,95.00,6,1,0,Yes
 Zone Information, ALL_ST=POST OFFICE SORTING_FL=STORY 3_SCH=A,0.0,25.00,25.00,7.60,50.00,50.00,9.50,1,1,1,25.00,75.00,25.00,75.00,7.60,11.40,3.80,9500.00,TARP,TARP,2500.00,0.00,0.00,0.00,6,0,0,Yes
 Zone Information, ALL_ST=RELIGIOUS - AUDIENCE_FL=STORY 2_SCH=I,0.0,0.00,0.00,3.80,50.00,10.85,5.70,1,1,1,0.00,100.00,0.00,25.00,3.80,7.60,3.80,7125.00,TARP,TARP,1875.00,380.00,285.00,95.00,6,1,0,Yes
! <Zone Internal Gains Nominal>,Zone Name, Floor Area {m2},# Occupants,Area per Occupant {m2/person},Occupant per Area {person/m2},Interior Lighting {W/m2},Electric Load {W/m2},Gas Load {W/m2},Other Load {W/m2},Hot Water Eq {W/m2},Steam Equipment {W/m2},Sum Loads per Area {W/m2},Outdoor Controlled Baseboard Heat
 Zone Internal Gains Nominal, ALL_ST=LOBBY - MOTION PICTURE_FL=STORY 4_SCH=C,1875.00,187.5,10.000,10.000E-002,5.600,1.000,0.000,0.000,0.000,0.000,6.600,No
 Zone Internal Gains Nominal, ALL_ST=LOBBY - OTHER_FL=STORY 4_SCH=C,2500.00,250.0,10.000,10.000E-002,9.700,1.000,0.000,0.000,0.000,0.000,10.700,No
 Zone Internal Gains Nominal, ALL_ST=LOBBY - PERFORMANCE ARTS_FL=STORY 4_SCH=C,1875.00,187.5,10.000,10.000E-002,21.500,1.000,0.000,0.000,0.000,0.000,22.500,No
 Zone Internal Gains Nominal, ALL_ST=LOUNGE/RECREATION_FL=STORY 4_SCH=B,1875.00,187.5,10.000,10.000E-002,8.460,1.000,0.000,0.000,0.000,0.000,9.460,No
 Zone Internal Gains Nominal, ALL_ST=MFG - 7.5 <= BAY H <= 15M_FL=STORY 4_SCH=A,1875.00,62.6,29.969,3.337E-002,13.200,10.000,0.000,0.000,0.000,0.000,23.200,No
 Zone Internal Gains Nominal, ALL_ST=MFG - BAY H < 7.5M_FL=STORY 3_SCH=A,1875.00,62.6,29.969,3.337E-002,12.800,10.000,0.000,0.000,0.000,0.000,22.800,No
 Zone Internal Gains Nominal, ALL_ST=MFG - BAY H > 15M_FL=STORY 1_SCH=A,1875.00,62.6,29.969,3.337E-002,11.300,10.000,0.000,0.000,0.000,0.000,21.300,No
 Zone Internal Gains Nominal, ALL_ST=MFG - DETAILED_FL=STORY 1_SCH=A,1875.00,62.6,29.969,3.337E-002,13.900,0.000,0.000,0.000,0.000,0.000,13.900,No
 Zone Internal Gains Nominal, ALL_ST=MFG - EQUIPMENT_FL=STORY 1_SCH=A,2500.00,83.4,29.969,3.337E-002,13.300,10.000,0.000,0.000,0.000,0.000,23.300,No
 Zone Internal Gains Nominal, ALL_ST=MUSEUM - EXHIBITION_FL=STORY 3_SCH=C,1875.00,375.0,5.000,0.200,11.300,2.500,0.000,0.000,0.000,0.000,13.800,No
 Zone Internal Gains Nominal, ALL_ST=MUSEUM - RESTORATION_FL=STORY 1_SCH=A,1875.00,93.8,19.979,5.005E-002,11.000,5.000,0.000,0.000,0.000,0.000,16.000,No
 Zone Internal Gains Nominal, ALL_ST=OFFICE - ENCLOSED - OCCSENS_FL=STORY 2_SCH=A,1875.00,93.8,19.979,5.005E-002,10.710,7.500,0.000,0.000,0.000,0.000,18.210,No
 Zone Internal Gains Nominal, ALL_ST=OFFICE - ENCLOSED_FL=STORY 1_SCH=A,1875.00,93.8,19.979,5.005E-002,11.900,7.500,0.000,0.000,0.000,0.000,19.400,No
 Zone Internal Gains Nominal, ALL_ST=OFFICE - OPEN PLAN_FL=STORY 2_SCH=A,1875.00,93.8,19.979,5.005E-002,11.000,7.500,0.000,0.000,0.000,0.000,18.500,No
 Zone Internal Gains Nominal, ALL_ST=PARKING GARAGE SPACE_FL=STORY 3_SCH=H,1875.00,1.8,1032.256,9.688E-004,2.000,0.000,0.000,0.000,0.000,0.000,2.000,No
 Zone Internal Gains Nominal, ALL_ST=PENITENTIARY - AUDIENCE_FL=STORY 3_SCH=C,1875.00,375.0,5.000,0.200,4.600,2.500,0.000,0.000,0.000,0.000,7.100,No
 Zone Internal Gains Nominal, ALL_ST=PENITENTIARY - CLASSROOM_FL=STORY 2_SCH=D,2500.00,333.4,7.498,0.133,14.400,5.000,0.000,0.000,0.000,0.000,19.400,No
 Zone Internal Gains Nominal, ALL_ST=PENITENTIARY - DINING_FL=STORY 2_SCH=B,1875.00,187.5,10.000,10.000E-002,11.500,1.000,0.000,0.000,0.000,0.000,12.500,No
 Zone Internal Gains Nominal, ALL_ST=POST OFFICE SORTING_FL=STORY 3_SCH=A,2500.00,125.1,19.979,5.005E-002,10.100,7.500,0.000,0.000,0.000,0.000,17.600,No
 Zone Internal Gains Nominal, ALL_ST=RELIGIOUS - AUDIENCE_FL=STORY 2_SCH=I,1875.00,375.0,5.000,0.200,18.200,1.000,0.000,0.000,0.000,0.000,19.200,No
! <People Internal Gains Nominal>,Name,Schedule Name,Zone Name,Zone Floor Area {m2},# Zone Occupants,Number of People {},People/Floor Area {person/m2},Floor Area per person {m2/person},Fraction Radiant,Fraction Convected,Sensible Fraction Calculation,Activity level,ASHRAE 55 Warnings,Carbon Dioxide Generation Rate,Nominal Minimum Number of People,Nominal Maximum Number of People
 People Internal Gains Nominal, ALL_ST=LOBBY - MOTION PICTURE_FL=STORY 4_SCH=C SPACE FUNCTION LOBBY - MOTION PICTURE PEOPLE,NECB-C-OCCUPANCY,ALL_ST=LOBBY - MOTION PICTURE_FL=STORY 4_SCH=C,1875.00,187.5,187.5,10.000E-002,10.000,0.300,0.700,AutoCalculate,NECB-ACTIVITY,No,3.8200E-008,0,169
 People Internal Gains Nominal, ALL_ST=LOBBY - OTHER_FL=STORY 4_SCH=C SPACE FUNCTION LOBBY - OTHER PEOPLE,NECB-C-OCCUPANCY,ALL_ST=LOBBY - OTHER_FL=STORY 4_SCH=C,2500.00,250.0,250.0,10.000E-002,10.000,0.300,0.700,AutoCalculate,NECB-ACTIVITY,No,3.8200E-008,0,225
 People Internal Gains Nominal, ALL_ST=LOBBY - PERFORMANCE ARTS_FL=STORY 4_SCH=C SPACE FUNCTION LOBBY - PERFORMANCE ARTS PEOPLE,NECB-C-OCCUPANCY,ALL_ST=LOBBY - PERFORMANCE ARTS_FL=STORY 4_SCH=C,1875.00,187.5,187.5,10.000E-002,10.000,0.300,0.700,AutoCalculate,NECB-ACTIVITY,No,3.8200E-008,0,169
 People Internal Gains Nominal, ALL_ST=LOUNGE/RECREATION_FL=STORY 4_SCH=B SPACE FUNCTION LOUNGE/RECREATION PEOPLE,NECB-B-OCCUPANCY,ALL_ST=LOUNGE/RECREATION_FL=STORY 4_SCH=B,1875.00,187.5,187.5,10.000E-002,10.000,0.300,0.700,AutoCalculate,NECB-ACTIVITY,No,3.8200E-008,0,169
 People Internal Gains Nominal, ALL_ST=MFG - 7.5 <= BAY H <= 15M_FL=STORY 4_SCH=A SPACE FUNCTION MFG - 7.5 <= BAY H <= 15M PEOPLE,NECB-A-OCCUPANCY,ALL_ST=MFG - 7.5 <= BAY H <= 15M_FL=STORY 4_SCH=A,1875.00,62.6,62.6,3.337E-002,29.969,0.300,0.700,AutoCalculate,NECB-ACTIVITY,No,3.8200E-008,0,56
 People Internal Gains Nominal, ALL_ST=MFG - BAY H < 7.5M_FL=STORY 3_SCH=A SPACE FUNCTION MFG - BAY H < 7.5M PEOPLE,NECB-A-OCCUPANCY,ALL_ST=MFG - BAY H < 7.5M_FL=STORY 3_SCH=A,1875.00,62.6,62.6,3.337E-002,29.969,0.300,0.700,AutoCalculate,NECB-ACTIVITY,No,3.8200E-008,0,56
 People Internal Gains Nominal, ALL_ST=MFG - BAY H > 15M_FL=STORY 1_SCH=A SPACE FUNCTION MFG - BAY H > 15M PEOPLE,NECB-A-OCCUPANCY,ALL_ST=MFG - BAY H > 15M_FL=STORY 1_SCH=A,1875.00,62.6,62.6,3.337E-002,29.969,0.300,0.700,AutoCalculate,NECB-ACTIVITY,No,3.8200E-008,0,56
 People Internal Gains Nominal, ALL_ST=MFG - DETAILED_FL=STORY 1_SCH=A SPACE FUNCTION MFG - DETAILED PEOPLE,NECB-A-OCCUPANCY,ALL_ST=MFG - DETAILED_FL=STORY 1_SCH=A,1875.00,62.6,62.6,3.337E-002,29.969,0.300,0.700,AutoCalculate,NECB-ACTIVITY,No,3.8200E-008,0,56
 People Internal Gains Nominal, ALL_ST=MFG - EQUIPMENT_FL=STORY 1_SCH=A SPACE FUNCTION MFG - EQUIPMENT PEOPLE,NECB-A-OCCUPANCY,ALL_ST=MFG - EQUIPMENT_FL=STORY 1_SCH=A,2500.00,83.4,83.4,3.337E-002,29.969,0.300,0.700,AutoCalculate,NECB-ACTIVITY,No,3.8200E-008,0,75
 People Internal Gains Nominal, ALL_ST=MUSEUM - EXHIBITION_FL=STORY 3_SCH=C SPACE FUNCTION MUSEUM - EXHIBITION PEOPLE,NECB-C-OCCUPANCY,ALL_ST=MUSEUM - EXHIBITION_FL=STORY 3_SCH=C,1875.00,375.0,375.0,0.200,5.000,0.300,0.700,AutoCalculate,NECB-ACTIVITY,No,3.8200E-008,0,337
 People Internal Gains Nominal, ALL_ST=MUSEUM - RESTORATION_FL=STORY 1_SCH=A SPACE FUNCTION MUSEUM - RESTORATION PEOPLE,NECB-A-OCCUPANCY,ALL_ST=MUSEUM - RESTORATION_FL=STORY 1_SCH=A,1875.00,93.8,93.8,5.005E-002,19.979,0.300,0.700,AutoCalculate,NECB-ACTIVITY,No,3.8200E-008,0,84
 People Internal Gains Nominal, ALL_ST=OFFICE - ENCLOSED_FL=STORY 1_SCH=A SPACE FUNCTION OFFICE - ENCLOSED PEOPLE,NECB-A-OCCUPANCY,ALL_ST=OFFICE - ENCLOSED_FL=STORY 1_SCH=A,1875.00,93.8,93.8,5.005E-002,19.979,0.300,0.700,AutoCalculate,NECB-ACTIVITY,No,3.8200E-008,0,84
 People Internal Gains Nominal, ALL_ST=OFFICE - ENCLOSED - OCCSENS_FL=STORY 2_SCH=A SPACE FUNCTION OFFICE - ENCLOSED - OCCSENS PEOPLE,NECB-A-OCCUPANCY,ALL_ST=OFFICE - ENCLOSED - OCCSENS_FL=STORY 2_SCH=A,1875.00,93.8,93.8,5.005E-002,19.979,0.300,0.700,AutoCalculate,NECB-ACTIVITY,No,3.8200E-008,0,84
 People Internal Gains Nominal, ALL_ST=OFFICE - OPEN PLAN_FL=STORY 2_SCH=A SPACE FUNCTION OFFICE - OPEN PLAN PEOPLE,NECB-A-OCCUPANCY,ALL_ST=OFFICE - OPEN PLAN_FL=STORY 2_SCH=A,1875.00,93.8,93.8,5.005E-002,19.979,0.300,0.700,AutoCalculate,NECB-ACTIVITY,No,3.8200E-008,0,84
 People Internal Gains Nominal, ALL_ST=PARKING GARAGE SPACE_FL=STORY 3_SCH=H SPACE FUNCTION PARKING GARAGE SPACE PEOPLE,NECB-H-OCCUPANCY,ALL_ST=PARKING GARAGE SPACE_FL=STORY 3_SCH=H,1875.00,1.8,1.8,9.688E-004,1032.256,0.300,0.700,AutoCalculate,NECB-ACTIVITY,No,3.8200E-008,2,2
 People Internal Gains Nominal, ALL_ST=PENITENTIARY - AUDIENCE_FL=STORY 3_SCH=C SPACE FUNCTION PENITENTIARY - AUDIENCE PEOPLE,NECB-C-OCCUPANCY,ALL_ST=PENITENTIARY - AUDIENCE_FL=STORY 3_SCH=C,1875.00,375.0,375.0,0.200,5.000,0.300,0.700,AutoCalculate,NECB-ACTIVITY,No,3.8200E-008,0,337
 People Internal Gains Nominal, ALL_ST=PENITENTIARY - CLASSROOM_FL=STORY 2_SCH=D SPACE FUNCTION PENITENTIARY - CLASSROOM PEOPLE,NECB-D-OCCUPANCY,ALL_ST=PENITENTIARY - CLASSROOM_FL=STORY 2_SCH=D,2500.00,333.4,333.4,0.133,7.498,0.300,0.700,AutoCalculate,NECB-ACTIVITY,No,3.8200E-008,0,300
 People Internal Gains Nominal, ALL_ST=PENITENTIARY - DINING_FL=STORY 2_SCH=B SPACE FUNCTION PENITENTIARY - DINING PEOPLE,NECB-B-OCCUPANCY,ALL_ST=PENITENTIARY - DINING_FL=STORY 2_SCH=B,1875.00,187.5,187.5,10.000E-002,10.000,0.300,0.700,AutoCalculate,NECB-ACTIVITY,No,3.8200E-008,0,169
 People Internal Gains Nominal, ALL_ST=POST OFFICE SORTING_FL=STORY 3_SCH=A SPACE FUNCTION POST OFFICE SORTING PEOPLE,NECB-A-OCCUPANCY,ALL_ST=POST OFFICE SORTING_FL=STORY 3_SCH=A,2500.00,125.1,125.1,5.005E-002,19.979,0.300,0.700,AutoCalculate,NECB-ACTIVITY,No,3.8200E-008,0,113
 People Internal Gains Nominal, ALL_ST=RELIGIOUS - AUDIENCE_FL=STORY 2_SCH=I SPACE FUNCTION RELIGIOUS - AUDIENCE PEOPLE,NECB-I-OCCUPANCY,ALL_ST=RELIGIOUS - AUDIENCE_FL=STORY 2_SCH=I,1875.00,375.0,375.0,0.200,5.000,0.300,0.700,AutoCalculate,NECB-ACTIVITY,No,3.8200E-008,0,300
! <Lights Internal Gains Nominal>,Name,Schedule Name,Zone Name,Zone Floor Area {m2},# Zone Occupants,Lighting Level {W},Lights/Floor Area {W/m2},Lights per person {W/person},Fraction Return Air,Fraction Radiant,Fraction Short Wave,Fraction Convected,Fraction Replaceable,End-Use Category,Nominal Minimum Lighting Level {W},Nominal Maximum Lighting Level {W}
 Lights Internal Gains Nominal, ALL_ST=LOBBY - MOTION PICTURE_FL=STORY 4_SCH=C SPACE FUNCTION LOBBY - MOTION PICTURE LIGHTS,NECB-C-LIGHTING,ALL_ST=LOBBY - MOTION PICTURE_FL=STORY 4_SCH=C,1875.00,187.5,10499.913,5.600,56.001,0.000,0.500,0.200,0.300,1.000,General,524.996,9449.921
 Lights Internal Gains Nominal, ALL_ST=LOBBY - OTHER_FL=STORY 4_SCH=C SPACE FUNCTION LOBBY - OTHER LIGHTS,NECB-C-LIGHTING,ALL_ST=LOBBY - OTHER_FL=STORY 4_SCH=C,2500.00,250.0,24249.798,9.700,97.002,0.000,0.500,0.200,0.300,1.000,General,1212.490,21824.818
 Lights Internal Gains Nominal, ALL_ST=LOBBY - PERFORMANCE ARTS_FL=STORY 4_SCH=C SPACE FUNCTION LOBBY - PERFORMANCE ARTS LIGHTS,NECB-C-LIGHTING,ALL_ST=LOBBY - PERFORMANCE ARTS_FL=STORY 4_SCH=C,1875.00,187.5,40312.165,21.500,215.005,0.000,0.500,0.200,0.300,1.000,General,2015.608,36280.948
 Lights Internal Gains Nominal, ALL_ST=LOUNGE/RECREATION_FL=STORY 4_SCH=B SPACE FUNCTION LOUNGE/RECREATION LIGHTS,NECB-B-LIGHTING,ALL_ST=LOUNGE/RECREATION_FL=STORY 4_SCH=B,1875.00,187.5,15862.368,8.460,84.602,0.000,0.500,0.200,0.300,1.000,General,1586.237,14276.131
 Lights Internal Gains Nominal, ALL_ST=MFG - 7.5 <= BAY H <= 15M_FL=STORY 4_SCH=A SPACE FUNCTION MFG - 7.5 <= BAY H <= 15M LIGHTS,NECB-A-LIGHTING,ALL_ST=MFG - 7.5 <= BAY H <= 15M_FL=STORY 4_SCH=A,1875.00,62.6,24749.794,13.200,395.584,0.000,0.500,0.200,0.300,1.000,General,1237.490,22274.815
 Lights Internal Gains Nominal, ALL_ST=MFG - BAY H < 7.5M_FL=STORY 3_SCH=A SPACE FUNCTION MFG - BAY H < 7.5M LIGHTS,NECB-A-LIGHTING,ALL_ST=MFG - BAY H < 7.5M_FL=STORY 3_SCH=A,1875.00,62.6,23999.800,12.800,383.596,0.000,0.500,0.200,0.300,1.000,General,1199.990,21599.820
 Lights Internal Gains Nominal, ALL_ST=MFG - BAY H > 15M_FL=STORY 1_SCH=A SPACE FUNCTION MFG - BAY H > 15M LIGHTS,NECB-A-LIGHTING,ALL_ST=MFG - BAY H > 15M_FL=STORY 1_SCH=A,1875.00,62.6,21187.324,11.300,338.644,0.000,0.500,0.200,0.300,1.000,General,1059.366,19068.591
 Lights Internal Gains Nominal, ALL_ST=MFG - DETAILED_FL=STORY 1_SCH=A SPACE FUNCTION MFG - DETAILED LIGHTS,NECB-A-LIGHTING,ALL_ST=MFG - DETAILED_FL=STORY 1_SCH=A,1875.00,62.6,26062.283,13.900,416.562,0.000,0.500,0.200,0.300,1.000,General,1303.114,23456.055
 Lights Internal Gains Nominal, ALL_ST=MFG - EQUIPMENT_FL=STORY 1_SCH=A SPACE FUNCTION MFG - EQUIPMENT LIGHTS,NECB-A-LIGHTING,ALL_ST=MFG - EQUIPMENT_FL=STORY 1_SCH=A,2500.00,83.4,33249.723,13.300,398.581,0.000,0.500,0.200,0.300,1.000,General,1662.486,29924.751
 Lights Internal Gains Nominal, ALL_ST=MUSEUM - EXHIBITION_FL=STORY 3_SCH=C SPACE FUNCTION MUSEUM - EXHIBITION LIGHTS,NECB-C-LIGHTING,ALL_ST=MUSEUM - EXHIBITION_FL=STORY 3_SCH=C,1875.00,375.0,21187.324,11.300,56.501,0.000,0.500,0.200,0.300,1.000,General,1059.366,19068.591
 Lights Internal Gains Nominal, ALL_ST=MUSEUM - RESTORATION_FL=STORY 1_SCH=A SPACE FUNCTION MUSEUM - RESTORATION LIGHTS,NECB-A-LIGHTING,ALL_ST=MUSEUM - RESTORATION_FL=STORY 1_SCH=A,1875.00,93.8,20624.828,11.000,219.769,0.000,0.500,0.200,0.300,1.000,General,1031.241,18562.346
 Lights Internal Gains Nominal, ALL_ST=OFFICE - ENCLOSED_FL=STORY 1_SCH=A SPACE FUNCTION OFFICE - ENCLOSED LIGHTS,NECB-A-LIGHTING,ALL_ST=OFFICE - ENCLOSED_FL=STORY 1_SCH=A,1875.00,93.8,22312.314,11.900,237.750,0.000,0.500,0.200,0.300,1.000,General,1115.616,20081.083
 Lights Internal Gains Nominal, ALL_ST=OFFICE - ENCLOSED - OCCSENS_FL=STORY 2_SCH=A SPACE FUNCTION OFFICE - ENCLOSED - OCCSENS LIGHTS,NECB-A-LIGHTING,ALL_ST=OFFICE - ENCLOSED - OCCSENS_FL=STORY 2_SCH=A,1875.00,93.8,20081.083,10.710,213.975,0.000,0.500,0.200,0.300,1.000,General,1004.054,18072.975
 Lights Internal Gains Nominal, ALL_ST=OFFICE - OPEN PLAN_FL=STORY 2_SCH=A SPACE FUNCTION OFFICE - OPEN PLAN LIGHTS,NECB-A-LIGHTING,ALL_ST=OFFICE - OPEN PLAN_FL=STORY 2_SCH=A,1875.00,93.8,20624.828,11.000,219.769,0.000,0.500,0.200,0.300,1.000,General,1031.241,18562.346
 Lights Internal Gains Nominal, ALL_ST=PARKING GARAGE SPACE_FL=STORY 3_SCH=H SPACE FUNCTION PARKING GARAGE SPACE LIGHTS,NECB-H-LIGHTING,ALL_ST=PARKING GARAGE SPACE_FL=STORY 3_SCH=H,1875.00,1.8,3749.969,2.000,2064.495,0.000,0.500,0.200,0.300,1.000,General,3374.972,3374.972
 Lights Internal Gains Nominal, ALL_ST=PENITENTIARY - AUDIENCE_FL=STORY 3_SCH=C SPACE FUNCTION PENITENTIARY - AUDIENCE LIGHTS,NECB-C-LIGHTING,ALL_ST=PENITENTIARY - AUDIENCE_FL=STORY 3_SCH=C,1875.00,375.0,8624.928,4.600,23.001,0.000,0.500,0.200,0.300,1.000,General,431.246,7762.435
 Lights Internal Gains Nominal, ALL_ST=PENITENTIARY - CLASSROOM_FL=STORY 2_SCH=D SPACE FUNCTION PENITENTIARY - CLASSROOM LIGHTS,NECB-D-LIGHTING,ALL_ST=PENITENTIARY - CLASSROOM_FL=STORY 2_SCH=D,2500.00,333.4,35999.700,14.400,107.974,0.000,0.500,0.200,0.300,1.000,General,1799.985,32399.730
 Lights Internal Gains Nominal, ALL_ST=PENITENTIARY - DINING_FL=STORY 2_SCH=B SPACE FUNCTION PENITENTIARY - DINING LIGHTS,NECB-B-LIGHTING,ALL_ST=PENITENTIARY - DINING_FL=STORY 2_SCH=B,1875.00,187.5,21562.321,11.500,115.003,0.000,0.500,0.200,0.300,1.000,General,2156.232,19406.088
 Lights Internal Gains Nominal, ALL_ST=POST OFFICE SORTING_FL=STORY 3_SCH=A SPACE FUNCTION POST OFFICE SORTING LIGHTS,NECB-A-LIGHTING,ALL_ST=POST OFFICE SORTING_FL=STORY 3_SCH=A,2500.00,125.1,25249.790,10.100,201.788,0.000,0.500,0.200,0.300,1.000,General,1262.489,22724.811
 Lights Internal Gains Nominal, ALL_ST=RELIGIOUS - AUDIENCE_FL=STORY 2_SCH=I SPACE FUNCTION RELIGIOUS - AUDIENCE LIGHTS,NECB-I-LIGHTING,ALL_ST=RELIGIOUS - AUDIENCE_FL=STORY 2_SCH=I,1875.00,375.0,34124.716,18.200,91.002,0.000,0.500,0.200,0.300,1.000,General,1706.236,30712.244
! <ElectricEquipment Internal Gains Nominal>,Name,Schedule Name,Zone Name,Zone Floor Area {m2},# Zone Occupants,Equipment Level {W},Equipment/Floor Area {W/m2},Equipment per person {W/person},Fraction Latent,Fraction Radiant,Fraction Lost,Fraction Convected,End-Use SubCategory,Nominal Minimum Equipment Level {W},Nominal Maximum Equipment Level {W}
 ElectricEquipment Internal Gains Nominal, ALL_ST=LOBBY - MOTION PICTURE_FL=STORY 4_SCH=C SPACE FUNCTION LOBBY - MOTION PICTURE ELEC EQUIP,NECB-C-ELECTRIC-EQUIPMENT,ALL_ST=LOBBY - MOTION PICTURE_FL=STORY 4_SCH=C,1875.00,187.5,1874.984,1.000,10.000,0.000,0.500,0.000,0.500,General,93.749,1687.486
 ElectricEquipment Internal Gains Nominal, ALL_ST=LOBBY - OTHER_FL=STORY 4_SCH=C SPACE FUNCTION LOBBY - OTHER ELEC EQUIP,NECB-C-ELECTRIC-EQUIPMENT,ALL_ST=LOBBY - OTHER_FL=STORY 4_SCH=C,2500.00,250.0,2499.979,1.000,10.000,0.000,0.500,0.000,0.500,General,124.999,2249.981
 ElectricEquipment Internal Gains Nominal, ALL_ST=LOBBY - PERFORMANCE ARTS_FL=STORY 4_SCH=C SPACE FUNCTION LOBBY - PERFORMANCE ARTS ELEC EQUIP,NECB-C-ELECTRIC-EQUIPMENT,ALL_ST=LOBBY - PERFORMANCE ARTS_FL=STORY 4_SCH=C,1875.00,187.5,1874.984,1.000,10.000,0.000,0.500,0.000,0.500,General,93.749,1687.486
 ElectricEquipment Internal Gains Nominal, ALL_ST=LOUNGE/RECREATION_FL=STORY 4_SCH=B SPACE FUNCTION LOUNGE/RECREATION ELEC EQUIP,NECB-B-ELECTRIC-EQUIPMENT,ALL_ST=LOUNGE/RECREATION_FL=STORY 4_SCH=B,1875.00,187.5,1874.984,1.000,10.000,0.000,0.500,0.000,0.500,General,187.498,1687.486
 ElectricEquipment Internal Gains Nominal, ALL_ST=MFG - 7.5 <= BAY H <= 15M_FL=STORY 4_SCH=A SPACE FUNCTION MFG - 7.5 <= BAY H <= 15M ELEC EQUIP,NECB-A-ELECTRIC-EQUIPMENT,ALL_ST=MFG - 7.5 <= BAY H <= 15M_FL=STORY 4_SCH=A,1875.00,62.6,18749.844,10.000,299.685,0.000,0.500,0.000,0.500,General,3749.969,16874.860
 ElectricEquipment Internal Gains Nominal, ALL_ST=MFG - BAY H < 7.5M_FL=STORY 3_SCH=A SPACE FUNCTION MFG - BAY H < 7.5M ELEC EQUIP,NECB-A-ELECTRIC-EQUIPMENT,ALL_ST=MFG - BAY H < 7.5M_FL=STORY 3_SCH=A,1875.00,62.6,18749.844,10.000,299.685,0.000,0.500,0.000,0.500,General,3749.969,16874.860
 ElectricEquipment Internal Gains Nominal, ALL_ST=MFG - BAY H > 15M_FL=STORY 1_SCH=A SPACE FUNCTION MFG - BAY H > 15M ELEC EQUIP,NECB-A-ELECTRIC-EQUIPMENT,ALL_ST=MFG - BAY H > 15M_FL=STORY 1_SCH=A,1875.00,62.6,18749.844,10.000,299.685,0.000,0.500,0.000,0.500,General,3749.969,16874.860
 ElectricEquipment Internal Gains Nominal, ALL_ST=MFG - EQUIPMENT_FL=STORY 1_SCH=A SPACE FUNCTION MFG - EQUIPMENT ELEC EQUIP,NECB-A-ELECTRIC-EQUIPMENT,ALL_ST=MFG - EQUIPMENT_FL=STORY 1_SCH=A,2500.00,83.4,24999.792,10.000,299.685,0.000,0.500,0.000,0.500,General,4999.958,22499.813
 ElectricEquipment Internal Gains Nominal, ALL_ST=MUSEUM - EXHIBITION_FL=STORY 3_SCH=C SPACE FUNCTION MUSEUM - EXHIBITION ELEC EQUIP,NECB-C-ELECTRIC-EQUIPMENT,ALL_ST=MUSEUM - EXHIBITION_FL=STORY 3_SCH=C,1875.00,375.0,4687.461,2.500,12.500,0.000,0.500,0.000,0.500,General,234.373,4218.715
 ElectricEquipment Internal Gains Nominal, ALL_ST=MUSEUM - RESTORATION_FL=STORY 1_SCH=A SPACE FUNCTION MUSEUM - RESTORATION ELEC EQUIP,NECB-A-ELECTRIC-EQUIPMENT,ALL_ST=MUSEUM - RESTORATION_FL=STORY 1_SCH=A,1875.00,93.8,9374.922,5.000,99.895,0.000,0.500,0.000,0.500,General,1874.984,8437.430
 ElectricEquipment Internal Gains Nominal, ALL_ST=OFFICE - ENCLOSED_FL=STORY 1_SCH=A SPACE FUNCTION OFFICE - ENCLOSED ELEC EQUIP,NECB-A-ELECTRIC-EQUIPMENT,ALL_ST=OFFICE - ENCLOSED_FL=STORY 1_SCH=A,1875.00,93.8,14062.383,7.500,149.842,0.000,0.500,0.000,0.500,General,2812.477,12656.145
 ElectricEquipment Internal Gains Nominal, ALL_ST=OFFICE - ENCLOSED - OCCSENS_FL=STORY 2_SCH=A SPACE FUNCTION OFFICE - ENCLOSED - OCCSENS ELEC EQUIP,NECB-A-ELECTRIC-EQUIPMENT,ALL_ST=OFFICE - ENCLOSED - OCCSENS_FL=STORY 2_SCH=A,1875.00,93.8,14062.383,7.500,149.842,0.000,0.500,0.000,0.500,General,2812.477,12656.145
 ElectricEquipment Internal Gains Nominal, ALL_ST=OFFICE - OPEN PLAN_FL=STORY 2_SCH=A SPACE FUNCTION OFFICE - OPEN PLAN ELEC EQUIP,NECB-A-ELECTRIC-EQUIPMENT,ALL_ST=OFFICE - OPEN PLAN_FL=STORY 2_SCH=A,1875.00,93.8,14062.383,7.500,149.842,0.000,0.500,0.000,0.500,General,2812.477,12656.145
 ElectricEquipment Internal Gains Nominal, ALL_ST=PENITENTIARY - AUDIENCE_FL=STORY 3_SCH=C SPACE FUNCTION PENITENTIARY - AUDIENCE ELEC EQUIP,NECB-C-ELECTRIC-EQUIPMENT,ALL_ST=PENITENTIARY - AUDIENCE_FL=STORY 3_SCH=C,1875.00,375.0,4687.461,2.500,12.500,0.000,0.500,0.000,0.500,General,234.373,4218.715
 ElectricEquipment Internal Gains Nominal, ALL_ST=PENITENTIARY - CLASSROOM_FL=STORY 2_SCH=D SPACE FUNCTION PENITENTIARY - CLASSROOM ELEC EQUIP,NECB-D-ELECTRIC-EQUIPMENT,ALL_ST=PENITENTIARY - CLASSROOM_FL=STORY 2_SCH=D,2500.00,333.4,12499.896,5.000,37.491,0.000,0.500,0.000,0.500,General,624.995,11249.906
 ElectricEquipment Internal Gains Nominal, ALL_ST=PENITENTIARY - DINING_FL=STORY 2_SCH=B SPACE FUNCTION PENITENTIARY - DINING ELEC EQUIP,NECB-B-ELECTRIC-EQUIPMENT,ALL_ST=PENITENTIARY - DINING_FL=STORY 2_SCH=B,1875.00,187.5,1874.984,1.000,10.000,0.000,0.500,0.000,0.500,General,187.498,1687.486
 ElectricEquipment Internal Gains Nominal, ALL_ST=POST OFFICE SORTING_FL=STORY 3_SCH=A SPACE FUNCTION POST OFFICE SORTING ELEC EQUIP,NECB-A-ELECTRIC-EQUIPMENT,ALL_ST=POST OFFICE SORTING_FL=STORY 3_SCH=A,2500.00,125.1,18749.844,7.500,149.842,0.000,0.500,0.000,0.500,General,3749.969,16874.860
 ElectricEquipment Internal Gains Nominal, ALL_ST=RELIGIOUS - AUDIENCE_FL=STORY 2_SCH=I SPACE FUNCTION RELIGIOUS - AUDIENCE ELEC EQUIP,NECB-I-ELECTRIC-EQUIPMENT,ALL_ST=RELIGIOUS - AUDIENCE_FL=STORY 2_SCH=I,1875.00,375.0,1874.984,1.000,5.000,0.000,0.500,0.000,0.500,General,187.498,1499.988
! <Shadowing/Sun Position Calculations Annual Simulations>, Calculation Method, Value {days}, Allowable Number Figures in Shadow Overlap {}, Polygon Clipping Algorithm, Sky Diffuse Modeling Algorithm, External Shading Calculation Method, Output External Shading Calculation Results, Disable Self-Shading Within Shading Zone Groups, Disable Self-Shading From Shading Zone Groups to Other Zones
Shadowing/Sun Position Calculations Annual Simulations,AverageOverDaysInFrequency,20,15000,SutherlandHodgman,SimpleSkyDiffuseModeling,InternalCalculation,No,No,No
! <Water Heater Information>,Type,Name,Volume {m3},Maximum Capacity {W},Standard Rated Recovery Efficiency, Standard Rated Energy Factor
! <ZoneInfiltration Airflow Stats Nominal>,Name,Schedule Name,Zone Name, Zone Floor Area {m2}, # Zone Occupants,Design Volume Flow Rate {m3/s},Volume Flow Rate/Floor Area {m3/s/m2},Volume Flow Rate/Exterior Surface Area {m3/s/m2},ACH - Air Changes per Hour,Equation A - Constant Term Coefficient {},Equation B - Temperature Term Coefficient {1/C},Equation C - Velocity Term Coefficient {s/m}, Equation D - Velocity Squared Term Coefficient {s2/m2}
 ZoneInfiltration Airflow Stats Nominal, LOBBY - MOTION PICTURE-SPACE FUNCTION INFILTRATION,ALWAYS ON DISCRETE,ALL_ST=LOBBY - MOTION PICTURE_FL=STORY 4_SCH=C,1875.00,187.5,0.564,3.007E-004,2.500E-004,0.285,0.000,0.000,0.224,0.000
 ZoneInfiltration Airflow Stats Nominal, LOBBY - OTHER-SPACE FUNCTION INFILTRATION,ALWAYS ON DISCRETE,ALL_ST=LOBBY - OTHER_FL=STORY 4_SCH=C,2500.00,250.0,0.625,2.500E-004,2.500E-004,0.237,0.000,0.000,0.224,0.000
 ZoneInfiltration Airflow Stats Nominal, LOBBY - PERFORMANCE ARTS-SPACE FUNCTION INFILTRATION,ALWAYS ON DISCRETE,ALL_ST=LOBBY - PERFORMANCE ARTS_FL=STORY 4_SCH=C,1875.00,187.5,0.564,3.007E-004,2.500E-004,0.285,0.000,0.000,0.224,0.000
 ZoneInfiltration Airflow Stats Nominal, LOUNGE/RECREATION-SPACE FUNCTION INFILTRATION,ALWAYS ON DISCRETE,ALL_ST=LOUNGE/RECREATION_FL=STORY 4_SCH=B,1875.00,187.5,0.564,3.007E-004,2.500E-004,0.285,0.000,0.000,0.224,0.000
 ZoneInfiltration Airflow Stats Nominal, MFG - 7.5 <= BAY H <= 15M-SPACE FUNCTION INFILTRATION,ALWAYS ON DISCRETE,ALL_ST=MFG - 7.5 <= BAY H <= 15M_FL=STORY 4_SCH=A,1875.00,62.6,0.564,3.007E-004,2.500E-004,0.285,0.000,0.000,0.224,0.000
 ZoneInfiltration Airflow Stats Nominal, MFG - BAY H < 7.5M-SPACE FUNCTION INFILTRATION,ALWAYS ON DISCRETE,ALL_ST=MFG - BAY H < 7.5M_FL=STORY 3_SCH=A,1875.00,62.6,9.500E-002,5.067E-005,2.500E-004,4.800E-002,0.000,0.000,0.224,0.000
 ZoneInfiltration Airflow Stats Nominal, MUSEUM - EXHIBITION-SPACE FUNCTION INFILTRATION,ALWAYS ON DISCRETE,ALL_ST=MUSEUM - EXHIBITION_FL=STORY 3_SCH=C,1875.00,375.0,9.500E-002,5.067E-005,2.500E-004,4.800E-002,0.000,0.000,0.224,0.000
 ZoneInfiltration Airflow Stats Nominal, OFFICE - ENCLOSED - OCCSENS-SPACE FUNCTION INFILTRATION,ALWAYS ON DISCRETE,ALL_ST=OFFICE - ENCLOSED - OCCSENS_FL=STORY 2_SCH=A,1875.00,93.8,9.500E-002,5.067E-005,2.500E-004,4.800E-002,0.000,0.000,0.224,0.000
 ZoneInfiltration Airflow Stats Nominal, OFFICE - OPEN PLAN-SPACE FUNCTION INFILTRATION,ALWAYS ON DISCRETE,ALL_ST=OFFICE - OPEN PLAN_FL=STORY 2_SCH=A,1875.00,93.8,9.500E-002,5.067E-005,2.500E-004,4.800E-002,0.000,0.000,0.224,0.000
 ZoneInfiltration Airflow Stats Nominal, PARKING GARAGE SPACE-SPACE FUNCTION INFILTRATION,ALWAYS ON DISCRETE,ALL_ST=PARKING GARAGE SPACE_FL=STORY 3_SCH=H,1875.00,1.8,9.500E-002,5.067E-005,2.500E-004,4.800E-002,0.000,0.000,0.224,0.000
 ZoneInfiltration Airflow Stats Nominal, PENITENTIARY - AUDIENCE-SPACE FUNCTION INFILTRATION,ALWAYS ON DISCRETE,ALL_ST=PENITENTIARY - AUDIENCE_FL=STORY 3_SCH=C,1875.00,375.0,9.500E-002,5.067E-005,2.500E-004,4.800E-002,0.000,0.000,0.224,0.000
 ZoneInfiltration Airflow Stats Nominal, PENITENTIARY - DINING-SPACE FUNCTION INFILTRATION,ALWAYS ON DISCRETE,ALL_ST=PENITENTIARY - DINING_FL=STORY 2_SCH=B,1875.00,187.5,9.500E-002,5.067E-005,2.500E-004,4.800E-002,0.000,0.000,0.224,0.000
 ZoneInfiltration Airflow Stats Nominal, RELIGIOUS - AUDIENCE-SPACE FUNCTION INFILTRATION,ALWAYS ON DISCRETE,ALL_ST=RELIGIOUS - AUDIENCE_FL=STORY 2_SCH=I,1875.00,375.0,9.500E-002,5.067E-005,2.500E-004,4.800E-002,0.000,0.000,0.224,0.000
! <AirFlow Model>, Simple
 AirFlow Model, Simple
! <RoomAir Model>, Zone Name, Mixing/Mundt/UCSDDV/UCSDCV/UCSDUFI/UCSDUFE/User Defined
RoomAir Model,ALL_ST=LOBBY - MOTION PICTURE_FL=STORY 4_SCH=C,Mixing/Well-Stirred
RoomAir Model,ALL_ST=LOBBY - OTHER_FL=STORY 4_SCH=C,Mixing/Well-Stirred
RoomAir Model,ALL_ST=LOBBY - PERFORMANCE ARTS_FL=STORY 4_SCH=C,Mixing/Well-Stirred
RoomAir Model,ALL_ST=LOUNGE/RECREATION_FL=STORY 4_SCH=B,Mixing/Well-Stirred
RoomAir Model,ALL_ST=MFG - 7.5 <= BAY H <= 15M_FL=STORY 4_SCH=A,Mixing/Well-Stirred
RoomAir Model,ALL_ST=MFG - BAY H < 7.5M_FL=STORY 3_SCH=A,Mixing/Well-Stirred
RoomAir Model,ALL_ST=MFG - BAY H > 15M_FL=STORY 1_SCH=A,Mixing/Well-Stirred
RoomAir Model,ALL_ST=MFG - DETAILED_FL=STORY 1_SCH=A,Mixing/Well-Stirred
RoomAir Model,ALL_ST=MFG - EQUIPMENT_FL=STORY 1_SCH=A,Mixing/Well-Stirred
RoomAir Model,ALL_ST=MUSEUM - EXHIBITION_FL=STORY 3_SCH=C,Mixing/Well-Stirred
RoomAir Model,ALL_ST=MUSEUM - RESTORATION_FL=STORY 1_SCH=A,Mixing/Well-Stirred
RoomAir Model,ALL_ST=OFFICE - ENCLOSED - OCCSENS_FL=STORY 2_SCH=A,Mixing/Well-Stirred
RoomAir Model,ALL_ST=OFFICE - ENCLOSED_FL=STORY 1_SCH=A,Mixing/Well-Stirred
RoomAir Model,ALL_ST=OFFICE - OPEN PLAN_FL=STORY 2_SCH=A,Mixing/Well-Stirred
RoomAir Model,ALL_ST=PARKING GARAGE SPACE_FL=STORY 3_SCH=H,Mixing/Well-Stirred
RoomAir Model,ALL_ST=PENITENTIARY - AUDIENCE_FL=STORY 3_SCH=C,Mixing/Well-Stirred
RoomAir Model,ALL_ST=PENITENTIARY - CLASSROOM_FL=STORY 2_SCH=D,Mixing/Well-Stirred
RoomAir Model,ALL_ST=PENITENTIARY - DINING_FL=STORY 2_SCH=B,Mixing/Well-Stirred
RoomAir Model,ALL_ST=POST OFFICE SORTING_FL=STORY 3_SCH=A,Mixing/Well-Stirred
RoomAir Model,ALL_ST=RELIGIOUS - AUDIENCE_FL=STORY 2_SCH=I,Mixing/Well-Stirred
! <AirflowNetwork Model:Control>, No Multizone or Distribution/Multizone with Distribution/Multizone without Distribution/Multizone with Distribution only during Fan Operation
AirflowNetwork Model:Control,NoMultizoneOrDistribution
! <Zone Volume Capacitance Multiplier>, Sensible Heat Capacity Multiplier, Moisture Capacity Multiplier, Carbon Dioxide Capacity Multiplier, Generic Contaminant Capacity Multiplier
Zone Volume Capacitance Multiplier,   1.000 ,   1.000,   1.000,   1.000
! <Load Timesteps in Zone Design Calculation Averaging Window>, Value
 Load Timesteps in Zone Design Calculation Averaging Window,    6
! <Heating Sizing Factor Information>, Sizing Factor ID, Value
 Heating Sizing Factor Information, Global,   1.3000    
 Heating Sizing Factor Information, Zone ALL_ST=LOBBY - MOTION PICTURE_FL=STORY 4_SCH=C,   1.3000    
 Heating Sizing Factor Information, Zone ALL_ST=LOBBY - OTHER_FL=STORY 4_SCH=C,   1.3000    
 Heating Sizing Factor Information, Zone ALL_ST=LOBBY - PERFORMANCE ARTS_FL=STORY 4_SCH=C,   1.3000    
 Heating Sizing Factor Information, Zone ALL_ST=LOUNGE/RECREATION_FL=STORY 4_SCH=B,   1.3000    
 Heating Sizing Factor Information, Zone ALL_ST=MFG - 7.5 <= BAY H <= 15M_FL=STORY 4_SCH=A,   1.3000    
 Heating Sizing Factor Information, Zone ALL_ST=MFG - BAY H < 7.5M_FL=STORY 3_SCH=A,   1.3000    
 Heating Sizing Factor Information, Zone ALL_ST=MFG - BAY H > 15M_FL=STORY 1_SCH=A,   1.3000    
 Heating Sizing Factor Information, Zone ALL_ST=MFG - DETAILED_FL=STORY 1_SCH=A,   1.3000    
 Heating Sizing Factor Information, Zone ALL_ST=MFG - EQUIPMENT_FL=STORY 1_SCH=A,   1.3000    
 Heating Sizing Factor Information, Zone ALL_ST=MUSEUM - EXHIBITION_FL=STORY 3_SCH=C,   1.3000    
 Heating Sizing Factor Information, Zone ALL_ST=MUSEUM - RESTORATION_FL=STORY 1_SCH=A,   1.3000    
 Heating Sizing Factor Information, Zone ALL_ST=OFFICE - ENCLOSED - OCCSENS_FL=STORY 2_SCH=A,   1.3000    
 Heating Sizing Factor Information, Zone ALL_ST=OFFICE - ENCLOSED_FL=STORY 1_SCH=A,   1.3000    
 Heating Sizing Factor Information, Zone ALL_ST=OFFICE - OPEN PLAN_FL=STORY 2_SCH=A,   1.3000    
 Heating Sizing Factor Information, Zone ALL_ST=PARKING GARAGE SPACE_FL=STORY 3_SCH=H,   1.3000    
 Heating Sizing Factor Information, Zone ALL_ST=PENITENTIARY - AUDIENCE_FL=STORY 3_SCH=C,   1.3000    
 Heating Sizing Factor Information, Zone ALL_ST=PENITENTIARY - CLASSROOM_FL=STORY 2_SCH=D,   1.3000    
 Heating Sizing Factor Information, Zone ALL_ST=PENITENTIARY - DINING_FL=STORY 2_SCH=B,   1.3000    
 Heating Sizing Factor Information, Zone ALL_ST=POST OFFICE SORTING_FL=STORY 3_SCH=A,   1.3000    
 Heating Sizing Factor Information, Zone ALL_ST=RELIGIOUS - AUDIENCE_FL=STORY 2_SCH=I,   1.3000    
! <Cooling Sizing Factor Information>, Sizing Factor ID, Value
 Cooling Sizing Factor Information, Global,   1.1000    
 Cooling Sizing Factor Information, Zone ALL_ST=LOBBY - MOTION PICTURE_FL=STORY 4_SCH=C,   1.1000    
 Cooling Sizing Factor Information, Zone ALL_ST=LOBBY - OTHER_FL=STORY 4_SCH=C,   1.1000    
 Cooling Sizing Factor Information, Zone ALL_ST=LOBBY - PERFORMANCE ARTS_FL=STORY 4_SCH=C,   1.1000    
 Cooling Sizing Factor Information, Zone ALL_ST=LOUNGE/RECREATION_FL=STORY 4_SCH=B,   1.1000    
 Cooling Sizing Factor Information, Zone ALL_ST=MFG - 7.5 <= BAY H <= 15M_FL=STORY 4_SCH=A,   1.1000    
 Cooling Sizing Factor Information, Zone ALL_ST=MFG - BAY H < 7.5M_FL=STORY 3_SCH=A,   1.1000    
 Cooling Sizing Factor Information, Zone ALL_ST=MFG - BAY H > 15M_FL=STORY 1_SCH=A,   1.1000    
 Cooling Sizing Factor Information, Zone ALL_ST=MFG - DETAILED_FL=STORY 1_SCH=A,   1.1000    
 Cooling Sizing Factor Information, Zone ALL_ST=MFG - EQUIPMENT_FL=STORY 1_SCH=A,   1.1000    
 Cooling Sizing Factor Information, Zone ALL_ST=MUSEUM - EXHIBITION_FL=STORY 3_SCH=C,   1.1000    
 Cooling Sizing Factor Information, Zone ALL_ST=MUSEUM - RESTORATION_FL=STORY 1_SCH=A,   1.1000    
 Cooling Sizing Factor Information, Zone ALL_ST=OFFICE - ENCLOSED - OCCSENS_FL=STORY 2_SCH=A,   1.1000    
 Cooling Sizing Factor Information, Zone ALL_ST=OFFICE - ENCLOSED_FL=STORY 1_SCH=A,   1.1000    
 Cooling Sizing Factor Information, Zone ALL_ST=OFFICE - OPEN PLAN_FL=STORY 2_SCH=A,   1.1000    
 Cooling Sizing Factor Information, Zone ALL_ST=PARKING GARAGE SPACE_FL=STORY 3_SCH=H,   1.1000    
 Cooling Sizing Factor Information, Zone ALL_ST=PENITENTIARY - AUDIENCE_FL=STORY 3_SCH=C,   1.1000    
 Cooling Sizing Factor Information, Zone ALL_ST=PENITENTIARY - CLASSROOM_FL=STORY 2_SCH=D,   1.1000    
 Cooling Sizing Factor Information, Zone ALL_ST=PENITENTIARY - DINING_FL=STORY 2_SCH=B,   1.1000    
 Cooling Sizing Factor Information, Zone ALL_ST=POST OFFICE SORTING_FL=STORY 3_SCH=A,   1.1000    
 Cooling Sizing Factor Information, Zone ALL_ST=RELIGIOUS - AUDIENCE_FL=STORY 2_SCH=I,   1.1000    
! <Zone Sizing Information>, Zone Name, Load Type, Calc Des Load {W}, User Des Load {W}, Calc Des Air Flow Rate {m3/s}, User Des Air Flow Rate {m3/s}, Design Day Name, Date/Time of Peak, Temperature at Peak {C}, Humidity Ratio at Peak {kgWater/kgDryAir}, Floor Area {m2}, # Occupants, Calc Outdoor Air Flow Rate {m3/s}, Calc DOAS Heat Addition Rate {W}
 Zone Sizing Information, ALL_ST=LOBBY - MOTION PICTURE_FL=STORY 4_SCH=C, Cooling, 80333.87028, 88367.25731, 6.20934, 7.71525, FORT MCMURRAY AP ANN CLG .4% CONDNS DB=>MWB, 7/21 13:30:00, 28.59000, 8.76969E-003, 1875.00000, 187.49386, 7.71525, 0.00000
 Zone Sizing Information, ALL_ST=LOBBY - MOTION PICTURE_FL=STORY 4_SCH=C, Heating, 49121.57689, 63858.04995, 1.95822, 7.71525, FORT MCMURRAY AP ANN HTG 99.6% CONDNS DB, 1/21 09:00:00, -36.20000, 1.25811E-004, 1875.00000, 187.49386, 7.71525, 0.00000
 Zone Sizing Information, ALL_ST=LOBBY - OTHER_FL=STORY 4_SCH=C, Cooling, 84318.64358, 92750.50794, 6.51738, 10.28700, FORT MCMURRAY AP ANN CLG .4% CONDNS DB=>MWB, 7/21 13:40:00, 28.69333, 8.76969E-003, 2500.00000, 249.99182, 10.28700, 0.00000
 Zone Sizing Information, ALL_ST=LOBBY - OTHER_FL=STORY 4_SCH=C, Heating, 38913.08578, 50587.01152, 1.46255, 10.28700, FORT MCMURRAY AP ANN HTG 99.6% CONDNS DB, 1/21 08:20:00, -36.20000, 1.25811E-004, 2500.00000, 249.99182, 10.28700, 0.00000
 Zone Sizing Information, ALL_ST=LOBBY - PERFORMANCE ARTS_FL=STORY 4_SCH=C, Cooling, 88473.06117, 97320.36729, 6.83846, 7.71525, FORT MCMURRAY AP ANN CLG .4% CONDNS DB=>MWB, 7/21 13:30:00, 28.59000, 8.76969E-003, 1875.00000, 187.49386, 7.71525, 0.00000
 Zone Sizing Information, ALL_ST=LOBBY - PERFORMANCE ARTS_FL=STORY 4_SCH=C, Heating, 43375.20659, 56387.76856, 1.61503, 7.71525, FORT MCMURRAY AP ANN HTG 99.6% CONDNS DB, 1/21 08:10:00, -36.20000, 1.25811E-004, 1875.00000, 187.49386, 7.71525, 0.00000
 Zone Sizing Information, ALL_ST=LOUNGE/RECREATION_FL=STORY 4_SCH=B, Cooling, 64518.04761, 70969.85237, 4.98698, 5.48568, FORT MCMURRAY AP ANN CLG .4% CONDNS DB=>MWB, 7/21 13:20:00, 28.48667, 8.76969E-003, 1875.00000, 187.49386, 1.76213, 0.00000
 Zone Sizing Information, ALL_ST=LOUNGE/RECREATION_FL=STORY 4_SCH=B, Heating, 46400.38257, 60320.49734, 1.84747, 2.40172, FORT MCMURRAY AP ANN HTG 99.6% CONDNS DB, 1/21 10:00:00, -36.20000, 1.25811E-004, 1875.00000, 187.49386, 1.76213, 0.00000
 Zone Sizing Information, ALL_ST=MFG - 7.5 <= BAY H <= 15M_FL=STORY 4_SCH=A, Cooling, 92299.18379, 101529.10217, 7.13362, 7.84698, FORT MCMURRAY AP ANN CLG .4% CONDNS DB=>MWB, 7/21 16:10:00, 27.99067, 8.76969E-003, 1875.00000, 62.56523, 2.38125, 0.00000
 Zone Sizing Information, ALL_ST=MFG - 7.5 <= BAY H <= 15M_FL=STORY 4_SCH=A, Heating, 47085.01747, 61210.52271, 1.87613, 2.43897, FORT MCMURRAY AP ANN HTG 99.6% CONDNS DB, 1/21 08:00:00, -36.20000, 1.25811E-004, 1875.00000, 62.56523, 2.38125, 0.00000
 Zone Sizing Information, ALL_ST=MFG - BAY H < 7.5M_FL=STORY 3_SCH=A, Cooling, 58800.11214, 64680.12336, 4.54448, 4.99892, FORT MCMURRAY AP ANN CLG .4% CONDNS DB=>MWB, 7/21 10:00:00, 24.18800, 8.76969E-003, 1875.00000, 62.56523, 2.38125, 0.00000
 Zone Sizing Information, ALL_ST=MFG - BAY H < 7.5M_FL=STORY 3_SCH=A, Heating, 14946.99562, 19431.09430, 0.58539, 2.38125, FORT MCMURRAY AP ANN HTG 99.6% CONDNS DB, 1/21 08:00:00, -36.20000, 1.25811E-004, 1875.00000, 62.56523, 2.38125, 0.00000
 Zone Sizing Information, ALL_ST=MFG - BAY H > 15M_FL=STORY 1_SCH=A, Cooling, 34945.65056, 38440.21561, 2.70089, 2.97098, FORT MCMURRAY AP ANN CLG .4% CONDNS DB=>MWB, 7/21 17:00:00, 27.16400, 8.76969E-003, 1875.00000, 62.56523, 2.38125, 0.00000
 Zone Sizing Information, ALL_ST=MFG - BAY H > 15M_FL=STORY 1_SCH=A, Heating, 0.00000, 0.00000, 0.00000, 2.38125, FORT MCMURRAY AP ANN HTG 99.6% CONDNS DB, , -36.20000, 1.25811E-004, 1875.00000, 62.56523, 2.38125, 0.00000
 Zone Sizing Information, ALL_ST=MFG - DETAILED_FL=STORY 1_SCH=A, Cooling, 22087.70121, 24296.47133, 1.70712, 2.38125, FORT MCMURRAY AP ANN CLG .4% CONDNS DB=>MWB, 7/21 17:00:00, 27.16400, 8.76969E-003, 1875.00000, 62.56523, 2.38125, 0.00000
 Zone Sizing Information, ALL_ST=MFG - DETAILED_FL=STORY 1_SCH=A, Heating, 0.00000, 0.00000, 0.00000, 2.38125, FORT MCMURRAY AP ANN HTG 99.6% CONDNS DB, , -36.20000, 1.25811E-004, 1875.00000, 62.56523, 2.38125, 0.00000
 Zone Sizing Information, ALL_ST=MFG - EQUIPMENT_FL=STORY 1_SCH=A, Cooling, 46057.94585, 50663.74044, 3.55974, 3.91571, FORT MCMURRAY AP ANN CLG .4% CONDNS DB=>MWB, 7/21 17:00:00, 27.16400, 8.76969E-003, 2500.00000, 83.42031, 3.17500, 0.00000
 Zone Sizing Information, ALL_ST=MFG - EQUIPMENT_FL=STORY 1_SCH=A, Heating, 0.00000, 0.00000, 0.00000, 3.17500, FORT MCMURRAY AP ANN HTG 99.6% CONDNS DB, , -36.20000, 1.25811E-004, 2500.00000, 83.42031, 3.17500, 0.00000
 Zone Sizing Information, ALL_ST=MUSEUM - EXHIBITION_FL=STORY 3_SCH=C, Cooling, 59235.88945, 65159.47840, 4.57903, 5.03694, FORT MCMURRAY AP ANN CLG .4% CONDNS DB=>MWB, 7/21 14:20:00, 28.90000, 8.76969E-003, 1875.00000, 374.98773, 3.42900, 0.00000
 Zone Sizing Information, ALL_ST=MUSEUM - EXHIBITION_FL=STORY 3_SCH=C, Heating, 17282.69865, 22467.50824, 0.67009, 3.42900, FORT MCMURRAY AP ANN HTG 99.6% CONDNS DB, 1/21 09:00:00, -36.20000, 1.25811E-004, 1875.00000, 374.98773, 3.42900, 0.00000
 Zone Sizing Information, ALL_ST=MUSEUM - RESTORATION_FL=STORY 1_SCH=A, Cooling, 30363.46178, 33399.80795, 2.34683, 2.58151, FORT MCMURRAY AP ANN CLG .4% CONDNS DB=>MWB, 7/21 12:00:00, 27.28800, 8.76969E-003, 1875.00000, 93.84784, 1.61925, 0.00000
 Zone Sizing Information, ALL_ST=MUSEUM - RESTORATION_FL=STORY 1_SCH=A, Heating, 0.00000, 0.00000, 0.00000, 1.61925, FORT MCMURRAY AP ANN HTG 99.6% CONDNS DB, , -36.20000, 1.25811E-004, 1875.00000, 93.84784, 1.61925, 0.00000
 Zone Sizing Information, ALL_ST=OFFICE - ENCLOSED - OCCSENS_FL=STORY 2_SCH=A, Cooling, 33926.62280, 37319.28508, 2.62222, 2.88444, FORT MCMURRAY AP ANN CLG .4% CONDNS DB=>MWB, 7/21 17:00:00, 27.16400, 8.76969E-003, 1875.00000, 93.84784, 0.80963, 0.00000
 Zone Sizing Information, ALL_ST=OFFICE - ENCLOSED - OCCSENS_FL=STORY 2_SCH=A, Heating, 5441.86648, 7074.42642, 0.21562, 0.80963, FORT MCMURRAY AP ANN HTG 99.6% CONDNS DB, 1/21 08:00:00, -36.20000, 1.25811E-004, 1875.00000, 93.84784, 0.80963, 0.00000
 Zone Sizing Information, ALL_ST=OFFICE - ENCLOSED_FL=STORY 1_SCH=A, Cooling, 35790.21784, 39369.23963, 2.76624, 3.04287, FORT MCMURRAY AP ANN CLG .4% CONDNS DB=>MWB, 7/21 16:00:00, 28.15600, 8.76969E-003, 1875.00000, 93.84784, 0.80963, 0.00000
 Zone Sizing Information, ALL_ST=OFFICE - ENCLOSED_FL=STORY 1_SCH=A, Heating, 0.00000, 0.00000, 0.00000, 0.80963, FORT MCMURRAY AP ANN HTG 99.6% CONDNS DB, , -36.20000, 1.25811E-004, 1875.00000, 93.84784, 0.80963, 0.00000
 Zone Sizing Information, ALL_ST=OFFICE - OPEN PLAN_FL=STORY 2_SCH=A, Cooling, 52597.99465, 57857.79411, 4.06536, 4.47189, FORT MCMURRAY AP ANN CLG .4% CONDNS DB=>MWB, 7/21 17:20:00, 26.75067, 8.76969E-003, 1875.00000, 93.84784, 0.80963, 0.00000
 Zone Sizing Information, ALL_ST=OFFICE - OPEN PLAN_FL=STORY 2_SCH=A, Heating, 1959.37837, 2547.19188, 7.81029E-002, 0.80963, FORT MCMURRAY AP ANN HTG 99.6% CONDNS DB, 1/21 07:40:00, -36.20000, 1.25811E-004, 1875.00000, 93.84784, 0.80963, 0.00000
 Zone Sizing Information, ALL_ST=PARKING GARAGE SPACE_FL=STORY 3_SCH=H, Cooling, 18794.88308, 20674.37139, 1.45252, 4.76250, FORT MCMURRAY AP ANN CLG .4% CONDNS DB=>MWB, 7/21 17:10:00, 26.95733, 8.76969E-003, 1875.00000, 1.81641, 4.76250, 0.00000
 Zone Sizing Information, ALL_ST=PARKING GARAGE SPACE_FL=STORY 3_SCH=H, Heating, 23074.16411, 29996.41334, 0.90453, 4.76250, FORT MCMURRAY AP ANN HTG 99.6% CONDNS DB, 1/21 09:00:00, -36.20000, 1.25811E-004, 1875.00000, 1.81641, 4.76250, 0.00000
 Zone Sizing Information, ALL_ST=PENITENTIARY - AUDIENCE_FL=STORY 3_SCH=C, Cooling, 60665.94128, 66732.53541, 4.69018, 5.15920, FORT MCMURRAY AP ANN CLG .4% CONDNS DB=>MWB, 7/21 17:30:00, 26.54400, 8.76969E-003, 1875.00000, 374.98773, 3.90525, 0.00000
 Zone Sizing Information, ALL_ST=PENITENTIARY - AUDIENCE_FL=STORY 3_SCH=C, Heating, 18778.30573, 24411.79745, 0.73060, 3.90525, FORT MCMURRAY AP ANN HTG 99.6% CONDNS DB, 1/21 09:00:00, -36.20000, 1.25811E-004, 1875.00000, 374.98773, 3.90525, 0.00000
 Zone Sizing Information, ALL_ST=PENITENTIARY - CLASSROOM_FL=STORY 2_SCH=D, Cooling, 55565.38819, 61121.92700, 4.29540, 6.95960, FORT MCMURRAY AP ANN CLG .4% CONDNS DB=>MWB, 7/21 16:00:00, 28.15600, 8.76969E-003, 2500.00000, 333.41213, 6.95960, 0.00000
 Zone Sizing Information, ALL_ST=PENITENTIARY - CLASSROOM_FL=STORY 2_SCH=D, Heating, 0.00000, 0.00000, 0.00000, 6.95960, FORT MCMURRAY AP ANN HTG 99.6% CONDNS DB, , -36.20000, 1.25811E-004, 2500.00000, 333.41213, 6.95960, 0.00000
 Zone Sizing Information, ALL_ST=PENITENTIARY - DINING_FL=STORY 2_SCH=B, Cooling, 53262.45178, 58588.69696, 3.68611, 6.71513, FORT MCMURRAY AP ANN CLG .4% CONDNS DB=>MWB, 7/21 09:00:00, 22.08000, 8.76969E-003, 1875.00000, 187.49386, 6.71513, 0.00000
 Zone Sizing Information, ALL_ST=PENITENTIARY - DINING_FL=STORY 2_SCH=B, Heating, 1388.59926, 1805.17903, 5.53423E-002, 6.71513, FORT MCMURRAY AP ANN HTG 99.6% CONDNS DB, 1/21 09:10:00, -36.20000, 1.25811E-004, 1875.00000, 187.49386, 6.71513, 0.00000
 Zone Sizing Information, ALL_ST=POST OFFICE SORTING_FL=STORY 3_SCH=A, Cooling, 52421.57870, 57663.73658, 4.05172, 4.45690, FORT MCMURRAY AP ANN CLG .4% CONDNS DB=>MWB, 7/21 17:00:00, 27.16400, 8.76969E-003, 2500.00000, 125.13046, 2.19710, 0.00000
 Zone Sizing Information, ALL_ST=POST OFFICE SORTING_FL=STORY 3_SCH=A, Heating, 0.00000, 0.00000, 0.00000, 2.19710, FORT MCMURRAY AP ANN HTG 99.6% CONDNS DB, , -36.20000, 1.25811E-004, 2500.00000, 125.13046, 2.19710, 0.00000
 Zone Sizing Information, ALL_ST=RELIGIOUS - AUDIENCE_FL=STORY 2_SCH=I, Cooling, 51764.73108, 56941.20419, 4.00151, 6.28650, FORT MCMURRAY AP ANN CLG .4% CONDNS DB=>MWB, 7/21 20:00:00, 22.70000, 8.76969E-003, 1875.00000, 374.98773, 6.28650, 0.00000
 Zone Sizing Information, ALL_ST=RELIGIOUS - AUDIENCE_FL=STORY 2_SCH=I, Heating, 2747.71279, 3572.02663, 0.10769, 6.28650, FORT MCMURRAY AP ANN HTG 99.6% CONDNS DB, 1/21 15:10:00, -36.20000, 1.25811E-004, 1875.00000, 374.98773, 6.28650, 0.00000
! <System Sizing Information>, System Name, Load Type, Peak Load Kind, User Design Capacity, Calc Des Air Flow Rate [m3/s], User Des Air Flow Rate [m3/s], Design Day Name, Date/Time of Peak
 System Sizing Information, SYS_2_MAKE-UP AIR UNIT, Cooling, Sensible, 83621.79, 5.03694, 5.03694, FORT MCMURRAY AP ANN CLG .4% CONDNS DB=>MWB, 7/21 00:00:00
 System Sizing Information, SYS_2_MAKE-UP AIR UNIT, Heating, Sensible, 195781.89, 3.42900, 3.42900, FORT MCMURRAY AP ANN HTG 99.6% CONDNS DB, 1/21 00:10:00
 System Sizing Information, SYS_2_MAKE-UP AIR UNIT 1, Cooling, Sensible, 39051.64, 2.58151, 2.58151, FORT MCMURRAY AP ANN CLG .4% CONDNS DB=>MWB, 7/21 00:00:00
 System Sizing Information, SYS_2_MAKE-UP AIR UNIT 1, Heating, Sensible, 92452.56, 1.61925, 1.61925, FORT MCMURRAY AP ANN HTG 99.6% CONDNS DB, 1/21 00:10:00
 System Sizing Information, SYS_3_PSZ ALL_ST=LOBBY - MOTION PICTURE_FL=STORY 4_SCH=C, Cooling, Sensible, 139301.00, 7.71525, 7.71525, FORT MCMURRAY AP ANN CLG .4% CONDNS DB=>MWB, 7/21 05:00:00
 System Sizing Information, SYS_3_PSZ ALL_ST=LOBBY - MOTION PICTURE_FL=STORY 4_SCH=C, Heating, Sensible, 707674.10, 7.71525, 7.71525, FORT MCMURRAY AP ANN HTG 99.6% CONDNS DB, 1/21 00:10:00
 System Sizing Information, SYS_3_PSZ ALL_ST=LOBBY - OTHER_FL=STORY 4_SCH=C, Cooling, Sensible, 186965.75, 10.28700, 10.28700, FORT MCMURRAY AP ANN CLG .4% CONDNS DB=>MWB, 7/21 05:00:00
 System Sizing Information, SYS_3_PSZ ALL_ST=LOBBY - OTHER_FL=STORY 4_SCH=C, Heating, Sensible, 943565.47, 10.28700, 10.28700, FORT MCMURRAY AP ANN HTG 99.6% CONDNS DB, 1/21 00:10:00
 System Sizing Information, SYS_3_PSZ ALL_ST=LOBBY - PERFORMANCE ARTS_FL=STORY 4_SCH=C, Cooling, Sensible, 139301.00, 7.71525, 7.71525, FORT MCMURRAY AP ANN CLG .4% CONDNS DB=>MWB, 7/21 05:00:00
 System Sizing Information, SYS_3_PSZ ALL_ST=LOBBY - PERFORMANCE ARTS_FL=STORY 4_SCH=C, Heating, Sensible, 707674.10, 7.71525, 7.71525, FORT MCMURRAY AP ANN HTG 99.6% CONDNS DB, 1/21 00:10:00
 System Sizing Information, SYS_3_PSZ ALL_ST=LOUNGE/RECREATION_FL=STORY 4_SCH=B, Cooling, Sensible, 79032.59, 5.48568, 5.48568, FORT MCMURRAY AP ANN CLG .4% CONDNS DB=>MWB, 7/21 05:00:00
 System Sizing Information, SYS_3_PSZ ALL_ST=LOUNGE/RECREATION_FL=STORY 4_SCH=B, Heating, Sensible, 177338.85, 2.40172, 2.40172, FORT MCMURRAY AP ANN HTG 99.6% CONDNS DB, 1/21 10:00:00
 System Sizing Information, SYS_3_PSZ ALL_ST=MFG - 7.5 <= BAY H <= 15M_FL=STORY 4_SCH=A, Cooling, Sensible, 110966.75, 7.84698, 7.84698, FORT MCMURRAY AP ANN CLG .4% CONDNS DB=>MWB, 7/21 05:00:00
 System Sizing Information, SYS_3_PSZ ALL_ST=MFG - 7.5 <= BAY H <= 15M_FL=STORY 4_SCH=A, Heating, Sensible, 219833.35, 2.43897, 2.43897, FORT MCMURRAY AP ANN HTG 99.6% CONDNS DB, 1/21 08:00:00
 System Sizing Information, SYS_3_PSZ ALL_ST=MFG - BAY H < 7.5M_FL=STORY 3_SCH=A, Cooling, Sensible, 64200.14, 4.99892, 4.99892, FORT MCMURRAY AP ANN CLG .4% CONDNS DB=>MWB, 7/21 05:00:00
 System Sizing Information, SYS_3_PSZ ALL_ST=MFG - BAY H < 7.5M_FL=STORY 3_SCH=A, Heating, Sensible, 218417.93, 2.38125, 2.38125, FORT MCMURRAY AP ANN HTG 99.6% CONDNS DB, 1/21 00:10:00
 System Sizing Information, SYS_3_PSZ ALL_ST=MFG - BAY H > 15M_FL=STORY 1_SCH=A, Cooling, Sensible, 46573.75, 2.97098, 2.97098, FORT MCMURRAY AP ANN CLG .4% CONDNS DB=>MWB, 7/21 05:00:00
 System Sizing Information, SYS_3_PSZ ALL_ST=MFG - BAY H > 15M_FL=STORY 1_SCH=A, Heating, Sensible, 218417.93, 2.38125, 2.38125, FORT MCMURRAY AP ANN HTG 99.6% CONDNS DB, 1/21 00:10:00
 System Sizing Information, SYS_3_PSZ ALL_ST=MFG - DETAILED_FL=STORY 1_SCH=A, Cooling, Sensible, 39061.51, 2.38125, 2.38125, FORT MCMURRAY AP ANN CLG .4% CONDNS DB=>MWB, 7/21 05:00:00
 System Sizing Information, SYS_3_PSZ ALL_ST=MFG - DETAILED_FL=STORY 1_SCH=A, Heating, Sensible, 218417.93, 2.38125, 2.38125, FORT MCMURRAY AP ANN HTG 99.6% CONDNS DB, 1/21 00:10:00
 System Sizing Information, SYS_3_PSZ ALL_ST=MFG - EQUIPMENT_FL=STORY 1_SCH=A, Cooling, Sensible, 61517.60, 3.91571, 3.91571, FORT MCMURRAY AP ANN CLG .4% CONDNS DB=>MWB, 7/21 05:00:00
 System Sizing Information, SYS_3_PSZ ALL_ST=MFG - EQUIPMENT_FL=STORY 1_SCH=A, Heating, Sensible, 291223.91, 3.17500, 3.17500, FORT MCMURRAY AP ANN HTG 99.6% CONDNS DB, 1/21 00:10:00
 System Sizing Information, SYS_3_PSZ ALL_ST=PENITENTIARY - AUDIENCE_FL=STORY 3_SCH=C, Cooling, Sensible, 77225.35, 5.15920, 5.15920, FORT MCMURRAY AP ANN CLG .4% CONDNS DB=>MWB, 7/21 05:00:00
 System Sizing Information, SYS_3_PSZ ALL_ST=PENITENTIARY - AUDIENCE_FL=STORY 3_SCH=C, Heating, Sensible, 358205.41, 3.90525, 3.90525, FORT MCMURRAY AP ANN HTG 99.6% CONDNS DB, 1/21 00:10:00
 System Sizing Information, SYS_3_PSZ ALL_ST=PENITENTIARY - CLASSROOM_FL=STORY 2_SCH=D, Cooling, Sensible, 122159.43, 6.95960, 6.95960, FORT MCMURRAY AP ANN CLG .4% CONDNS DB=>MWB, 7/21 05:00:00
 System Sizing Information, SYS_3_PSZ ALL_ST=PENITENTIARY - CLASSROOM_FL=STORY 2_SCH=D, Heating, Sensible, 638362.81, 6.95960, 6.95960, FORT MCMURRAY AP ANN HTG 99.6% CONDNS DB, 1/21 00:10:00
 System Sizing Information, SYS_3_PSZ ALL_ST=PENITENTIARY - DINING_FL=STORY 2_SCH=B, Cooling, Sensible, 70615.18, 6.71513, 6.71513, FORT MCMURRAY AP ANN CLG .4% CONDNS DB=>MWB, 7/21 05:00:00
 System Sizing Information, SYS_3_PSZ ALL_ST=PENITENTIARY - DINING_FL=STORY 2_SCH=B, Heating, Sensible, 615938.57, 6.71513, 6.71513, FORT MCMURRAY AP ANN HTG 99.6% CONDNS DB, 1/21 00:10:00
 System Sizing Information, SYS_3_PSZ ALL_ST=RELIGIOUS - AUDIENCE_FL=STORY 2_SCH=I, Cooling, Sensible, 70621.80, 6.28650, 6.28650, FORT MCMURRAY AP ANN CLG .4% CONDNS DB=>MWB, 7/21 05:00:00
 System Sizing Information, SYS_3_PSZ ALL_ST=RELIGIOUS - AUDIENCE_FL=STORY 2_SCH=I, Heating, Sensible, 576623.34, 6.28650, 6.28650, FORT MCMURRAY AP ANN HTG 99.6% CONDNS DB, 1/21 00:10:00
 System Sizing Information, SYS_4_PSZ_ALL_ST=PARKING GARAGE SPACE_FL=STORY 3_SCH=H, Cooling, Sensible, 76983.13, 4.76250, 4.76250, FORT MCMURRAY AP ANN CLG .4% CONDNS DB=>MWB, 7/21 05:00:00
 System Sizing Information, SYS_4_PSZ_ALL_ST=PARKING GARAGE SPACE_FL=STORY 3_SCH=H, Heating, Sensible, 436835.87, 4.76250, 4.76250, FORT MCMURRAY AP ANN HTG 99.6% CONDNS DB, 1/21 00:10:00
 System Sizing Information, SYS_6_VAV WITH REHEAT, Cooling, Sensible, 42658.40, 3.04287, 3.04287, FORT MCMURRAY AP ANN CLG .4% CONDNS DB=>MWB, 7/21 00:00:00
 System Sizing Information, SYS_6_VAV WITH REHEAT, Heating, Sensible, 46226.28, 0.80963, 0.80963, FORT MCMURRAY AP ANN HTG 99.6% CONDNS DB, 1/21 00:10:00
 System Sizing Information, SYS_6_VAV WITH REHEAT 1, Cooling, Sensible, 99169.88, 7.35634, 7.35634, FORT MCMURRAY AP ANN CLG .4% CONDNS DB=>MWB, 7/21 00:00:00
 System Sizing Information, SYS_6_VAV WITH REHEAT 1, Heating, Sensible, 92452.56, 1.61925, 1.61925, FORT MCMURRAY AP ANN HTG 99.6% CONDNS DB, 1/21 00:10:00
 System Sizing Information, SYS_6_VAV WITH REHEAT 2, Cooling, Sensible, 64826.10, 4.45690, 4.45690, FORT MCMURRAY AP ANN CLG .4% CONDNS DB=>MWB, 7/21 00:00:00
 System Sizing Information, SYS_6_VAV WITH REHEAT 2, Heating, Sensible, 125445.44, 2.19710, 2.19710, FORT MCMURRAY AP ANN HTG 99.6% CONDNS DB, 1/21 00:10:00
! <Component Sizing Information>, Component Type, Component Name, Input Field Description, Value
 Component Sizing Information, AirTerminal:SingleDuct:Uncontrolled, AIR TERMINAL SINGLE DUCT UNCONTROLLED 1, Design Size Maximum Air Flow Rate [m3/s], 7.71525
 Component Sizing Information, ZoneHVAC:Baseboard:Convective:Water, ZONE HVAC BASEBOARD CONVECTIVE WATER 1, Design Size Maximum Water Flow Rate [m3/s], 9.53772E-004
 Component Sizing Information, ZoneHVAC:Baseboard:Convective:Water, ZONE HVAC BASEBOARD CONVECTIVE WATER 1, Design Size U-Factor Times Area Value [W/K], 1946.63732
 Component Sizing Information, AirTerminal:SingleDuct:Uncontrolled, AIR TERMINAL SINGLE DUCT UNCONTROLLED 2, Design Size Maximum Air Flow Rate [m3/s], 10.28700
 Component Sizing Information, ZoneHVAC:Baseboard:Convective:Water, ZONE HVAC BASEBOARD CONVECTIVE WATER 2, Design Size Maximum Water Flow Rate [m3/s], 7.55558E-004
 Component Sizing Information, ZoneHVAC:Baseboard:Convective:Water, ZONE HVAC BASEBOARD CONVECTIVE WATER 2, Design Size U-Factor Times Area Value [W/K], 1549.08201
 Component Sizing Information, AirTerminal:SingleDuct:Uncontrolled, AIR TERMINAL SINGLE DUCT UNCONTROLLED 3, Design Size Maximum Air Flow Rate [m3/s], 7.71525
 Component Sizing Information, ZoneHVAC:Baseboard:Convective:Water, ZONE HVAC BASEBOARD CONVECTIVE WATER 3, Design Size Maximum Water Flow Rate [m3/s], 8.42197E-004
 Component Sizing Information, ZoneHVAC:Baseboard:Convective:Water, ZONE HVAC BASEBOARD CONVECTIVE WATER 3, Design Size U-Factor Times Area Value [W/K], 1330.14676
 Component Sizing Information, AirTerminal:SingleDuct:Uncontrolled, AIR TERMINAL SINGLE DUCT UNCONTROLLED 4, Design Size Maximum Air Flow Rate [m3/s], 5.48568
 Component Sizing Information, ZoneHVAC:Baseboard:Convective:Water, ZONE HVAC BASEBOARD CONVECTIVE WATER 4, Design Size Maximum Water Flow Rate [m3/s], 9.00936E-004
 Component Sizing Information, ZoneHVAC:Baseboard:Convective:Water, ZONE HVAC BASEBOARD CONVECTIVE WATER 4, Design Size U-Factor Times Area Value [W/K], 1838.79531
 Component Sizing Information, AirTerminal:SingleDuct:Uncontrolled, AIR TERMINAL SINGLE DUCT UNCONTROLLED 5, Design Size Maximum Air Flow Rate [m3/s], 7.84698
 Component Sizing Information, ZoneHVAC:Baseboard:Convective:Water, ZONE HVAC BASEBOARD CONVECTIVE WATER 5, Design Size Maximum Water Flow Rate [m3/s], 9.14229E-004
 Component Sizing Information, ZoneHVAC:Baseboard:Convective:Water, ZONE HVAC BASEBOARD CONVECTIVE WATER 5, Design Size U-Factor Times Area Value [W/K], 1866.13918
 Component Sizing Information, AirTerminal:SingleDuct:Uncontrolled, AIR TERMINAL SINGLE DUCT UNCONTROLLED 6, Design Size Maximum Air Flow Rate [m3/s], 4.99892
 Component Sizing Information, ZoneHVAC:Baseboard:Convective:Water, ZONE HVAC BASEBOARD CONVECTIVE WATER 6, Design Size Maximum Water Flow Rate [m3/s], 2.90219E-004
 Component Sizing Information, ZoneHVAC:Baseboard:Convective:Water, ZONE HVAC BASEBOARD CONVECTIVE WATER 6, Design Size U-Factor Times Area Value [W/K], 590.53099
 Component Sizing Information, AirTerminal:SingleDuct:Uncontrolled, AIR TERMINAL SINGLE DUCT UNCONTROLLED 7, Design Size Maximum Air Flow Rate [m3/s], 2.97098
 Component Sizing Information, ZoneHVAC:Baseboard:Convective:Water, ZONE HVAC BASEBOARD CONVECTIVE WATER 7, Design Size Maximum Water Flow Rate [m3/s], 0.00000
 Component Sizing Information, ZoneHVAC:Baseboard:Convective:Water, ZONE HVAC BASEBOARD CONVECTIVE WATER 7, Design Size U-Factor Times Area Value [W/K], 0.00000
 Component Sizing Information, AirTerminal:SingleDuct:Uncontrolled, AIR TERMINAL SINGLE DUCT UNCONTROLLED 8, Design Size Maximum Air Flow Rate [m3/s], 2.38125
 Component Sizing Information, ZoneHVAC:Baseboard:Convective:Water, ZONE HVAC BASEBOARD CONVECTIVE WATER 8, Design Size Maximum Water Flow Rate [m3/s], 0.00000
 Component Sizing Information, ZoneHVAC:Baseboard:Convective:Water, ZONE HVAC BASEBOARD CONVECTIVE WATER 8, Design Size U-Factor Times Area Value [W/K], 0.00000
 Component Sizing Information, AirTerminal:SingleDuct:Uncontrolled, AIR TERMINAL SINGLE DUCT UNCONTROLLED 9, Design Size Maximum Air Flow Rate [m3/s], 3.91571
 Component Sizing Information, ZoneHVAC:Baseboard:Convective:Water, ZONE HVAC BASEBOARD CONVECTIVE WATER 9, Design Size Maximum Water Flow Rate [m3/s], 0.00000
 Component Sizing Information, ZoneHVAC:Baseboard:Convective:Water, ZONE HVAC BASEBOARD CONVECTIVE WATER 9, Design Size U-Factor Times Area Value [W/K], 0.00000
 Component Sizing Information, ZoneHVAC:FourPipeFanCoil, ZONE HVAC FOUR PIPE FAN COIL 1, Design Size Maximum Supply Air Flow Rate [m3/s], 5.03694
 Component Sizing Information, Fan:ConstantVolume, FAN CONSTANT VOLUME 15, Design Size Maximum Flow Rate [m3/s], 5.03694
 Component Sizing Information, ZoneHVAC:FourPipeFanCoil, ZONE HVAC FOUR PIPE FAN COIL 1, Design Size Maximum Outdoor Air Flow Rate [m3/s], 3.42900
 Component Sizing Information, ZoneHVAC:FourPipeFanCoil, ZONE HVAC FOUR PIPE FAN COIL 1, Design Size Maximum Hot Water Flow [m3/s], 4.37652E-003
 Component Sizing Information, ZoneHVAC:FourPipeFanCoil, ZONE HVAC FOUR PIPE FAN COIL 1, Design Size Maximum Cold Water Flow [m3/s], 3.63844E-003
 Component Sizing Information, Coil:Cooling:Water, COIL COOLING WATER 1, Design Size Design Water Flow Rate [m3/s], 3.63844E-003
 Component Sizing Information, Coil:Cooling:Water, COIL COOLING WATER 1, Design Size Design Air Flow Rate [m3/s], 5.03694
 Component Sizing Information, Coil:Cooling:Water, COIL COOLING WATER 1, User-Specified Design Air Flow Rate [m3/s], 5.03694
 Component Sizing Information, Coil:Cooling:Water, COIL COOLING WATER 1, Design Size Design Inlet Air Temperature [C], 27.33551
 Component Sizing Information, Coil:Cooling:Water, COIL COOLING WATER 1, Design Size Design Inlet Water Temperature [C], 7.00000
 Component Sizing Information, Coil:Cooling:Water, COIL COOLING WATER 1, Design Size Design Inlet Air Humidity Ratio, 9.04984E-003
 Component Sizing Information, Coil:Cooling:Water, COIL COOLING WATER 1, Design Size Design Outlet Air Temperature [C], 13.00000
 Component Sizing Information, Coil:Cooling:Water, COIL COOLING WATER 1, Design Size Design Outlet Air Humidity Ratio, 8.50000E-003
! <Water Cooling Coil Capacity Information>,Component Type,Name,Nominal Total Capacity {W},Nominal Sensible Capacity {W},Nominal Latent Capacity {W},Nominal Sensible Heat Ratio, Nominal Coil UA Value {W/C}, Nominal Coil Surface Area {m2}
Water Cooling Coil Capacity Information,Coil:Cooling:Water,COIL COOLING WATER 1,113488.55,79405.90,34082.65,0.70,12006.33,121.77
 Component Sizing Information, Coil:Heating:Water, COIL HEATING WATER 1, Design Size Rated Capacity [W], 293022.04243
 Component Sizing Information, Coil:Heating:Water, COIL HEATING WATER 1, Design Size Maximum Water Flow Rate [m3/s], 4.37652E-003
 Component Sizing Information, Coil:Heating:Water, COIL HEATING WATER 1, Design Size U-Factor Times Area Value [W/K], 4231.02044
! <Water Heating Coil Capacity Information>,Component Type,Name,Nominal Total Capacity {W}
Water Heating Coil Capacity Information,Coil:Heating:Water,COIL HEATING WATER 1,160776.23
 Component Sizing Information, AirTerminal:SingleDuct:Uncontrolled, AIR TERMINAL SINGLE DUCT UNCONTROLLED 14, Design Size Maximum Air Flow Rate [m3/s], 5.03694
 Component Sizing Information, ZoneHVAC:FourPipeFanCoil, ZONE HVAC FOUR PIPE FAN COIL 2, Design Size Maximum Supply Air Flow Rate [m3/s], 2.58151
 Component Sizing Information, Fan:ConstantVolume, FAN CONSTANT VOLUME 17, Design Size Maximum Flow Rate [m3/s], 2.58151
 Component Sizing Information, ZoneHVAC:FourPipeFanCoil, ZONE HVAC FOUR PIPE FAN COIL 2, Design Size Maximum Outdoor Air Flow Rate [m3/s], 1.61925
 Component Sizing Information, ZoneHVAC:FourPipeFanCoil, ZONE HVAC FOUR PIPE FAN COIL 2, Design Size Maximum Hot Water Flow [m3/s], 2.06670E-003
 Component Sizing Information, ZoneHVAC:FourPipeFanCoil, ZONE HVAC FOUR PIPE FAN COIL 2, Design Size Maximum Cold Water Flow [m3/s], 1.68491E-003
 Component Sizing Information, Coil:Cooling:Water, COIL COOLING WATER 2, Design Size Design Water Flow Rate [m3/s], 1.68491E-003
 Component Sizing Information, Coil:Cooling:Water, COIL COOLING WATER 2, Design Size Design Air Flow Rate [m3/s], 2.58151
 Component Sizing Information, Coil:Cooling:Water, COIL COOLING WATER 2, User-Specified Design Air Flow Rate [m3/s], 2.58151
 Component Sizing Information, Coil:Cooling:Water, COIL COOLING WATER 2, Design Size Design Inlet Air Temperature [C], 26.06193
 Component Sizing Information, Coil:Cooling:Water, COIL COOLING WATER 2, Design Size Design Inlet Water Temperature [C], 7.00000
 Component Sizing Information, Coil:Cooling:Water, COIL COOLING WATER 2, Design Size Design Inlet Air Humidity Ratio, 8.93732E-003
 Component Sizing Information, Coil:Cooling:Water, COIL COOLING WATER 2, Design Size Design Outlet Air Temperature [C], 13.00000
 Component Sizing Information, Coil:Cooling:Water, COIL COOLING WATER 2, Design Size Design Outlet Air Humidity Ratio, 8.50000E-003
Water Cooling Coil Capacity Information,Coil:Cooling:Water,COIL COOLING WATER 2,55653.26,39580.61,16072.66,0.71,5948.66,60.33
 Component Sizing Information, Coil:Heating:Water, COIL HEATING WATER 2, Design Size Rated Capacity [W], 138372.27360
 Component Sizing Information, Coil:Heating:Water, COIL HEATING WATER 2, Design Size Maximum Water Flow Rate [m3/s], 2.06670E-003
 Component Sizing Information, Coil:Heating:Water, COIL HEATING WATER 2, Design Size U-Factor Times Area Value [W/K], 1998.00047
Water Heating Coil Capacity Information,Coil:Heating:Water,COIL HEATING WATER 2,75922.52
 Component Sizing Information, AirTerminal:SingleDuct:Uncontrolled, AIR TERMINAL SINGLE DUCT UNCONTROLLED 15, Design Size Maximum Air Flow Rate [m3/s], 2.58151
 Component Sizing Information, AirTerminal:SingleDuct:VAV:Reheat, AIR TERMINAL SINGLE DUCT VAV REHEAT 2, Design Size Maximum Air Flow Rate [m3/s], 2.88444
 Component Sizing Information, AirTerminal:SingleDuct:VAV:Reheat, AIR TERMINAL SINGLE DUCT VAV REHEAT 2, Design Size Constant Minimum Air Flow Fraction, 0.49533
 Component Sizing Information, AirTerminal:SingleDuct:VAV:Reheat, AIR TERMINAL SINGLE DUCT VAV REHEAT 2, User-Specified Constant Minimum Air Flow Fraction, 0.30000
 Component Sizing Information, AirTerminal:SingleDuct:VAV:Reheat, AIR TERMINAL SINGLE DUCT VAV REHEAT 2, Design Size Minimum Air Flow Rate [m3/s], 0.86533
 Component Sizing Information, AirTerminal:SingleDuct:VAV:Reheat, AIR TERMINAL SINGLE DUCT VAV REHEAT 2, Design Size Maximum Flow per Zone Floor Area during Reheat [m3/s-m2], 4.61511E-004
 Component Sizing Information, AirTerminal:SingleDuct:VAV:Reheat, AIR TERMINAL SINGLE DUCT VAV REHEAT 2, Design Size Maximum Flow Fraction during Reheat [], 0.30000
 Component Sizing Information, AirTerminal:SingleDuct:VAV:Reheat, AIR TERMINAL SINGLE DUCT VAV REHEAT 2, Design Size Maximum Reheat Water Flow Rate [m3/s], 2.45962E-004
 Component Sizing Information, AirTerminal:SingleDuct:VAV:Reheat, AIR TERMINAL SINGLE DUCT VAV REHEAT 2, Design Size Reheat Coil Sizing Air Volume Flow Rate [m3/s], 0.86533
 Component Sizing Information, AirTerminal:SingleDuct:VAV:Reheat, AIR TERMINAL SINGLE DUCT VAV REHEAT 2, Design Size Reheat Coil Sizing Inlet Air Temperature [C], 13.10000
 Component Sizing Information, AirTerminal:SingleDuct:VAV:Reheat, AIR TERMINAL SINGLE DUCT VAV REHEAT 2, Design Size Reheat Coil Sizing Inlet Air Humidity Ratio [kgWater/kgDryAir], 8.00000E-003
 Component Sizing Information, Coil:Heating:Water, COIL HEATING WATER 6, Design Size Rated Capacity [W], 16467.93802
 Component Sizing Information, Coil:Heating:Water, COIL HEATING WATER 6, Design Size Maximum Water Flow Rate [m3/s], 2.45962E-004
 Component Sizing Information, Coil:Heating:Water, COIL HEATING WATER 6, Design Size U-Factor Times Area Value [W/K], 326.08972
Water Heating Coil Capacity Information,Coil:Heating:Water,COIL HEATING WATER 6,15455.15
 Component Sizing Information, ZoneHVAC:Baseboard:Convective:Water, ZONE HVAC BASEBOARD CONVECTIVE WATER 15, Design Size Maximum Water Flow Rate [m3/s], 1.05662E-004
 Component Sizing Information, ZoneHVAC:Baseboard:Convective:Water, ZONE HVAC BASEBOARD CONVECTIVE WATER 15, Design Size U-Factor Times Area Value [W/K], 214.62626
 Component Sizing Information, AirTerminal:SingleDuct:VAV:Reheat, AIR TERMINAL SINGLE DUCT VAV REHEAT 1, Design Size Maximum Air Flow Rate [m3/s], 3.04287
 Component Sizing Information, AirTerminal:SingleDuct:VAV:Reheat, AIR TERMINAL SINGLE DUCT VAV REHEAT 1, Design Size Constant Minimum Air Flow Fraction, 0.46954
 Component Sizing Information, AirTerminal:SingleDuct:VAV:Reheat, AIR TERMINAL SINGLE DUCT VAV REHEAT 1, User-Specified Constant Minimum Air Flow Fraction, 0.30000
 Component Sizing Information, AirTerminal:SingleDuct:VAV:Reheat, AIR TERMINAL SINGLE DUCT VAV REHEAT 1, Design Size Minimum Air Flow Rate [m3/s], 0.91286
 Component Sizing Information, AirTerminal:SingleDuct:VAV:Reheat, AIR TERMINAL SINGLE DUCT VAV REHEAT 1, Design Size Maximum Flow per Zone Floor Area during Reheat [m3/s-m2], 4.86858E-004
 Component Sizing Information, AirTerminal:SingleDuct:VAV:Reheat, AIR TERMINAL SINGLE DUCT VAV REHEAT 1, Design Size Maximum Flow Fraction during Reheat [], 0.30000
 Component Sizing Information, AirTerminal:SingleDuct:VAV:Reheat, AIR TERMINAL SINGLE DUCT VAV REHEAT 1, Design Size Maximum Reheat Water Flow Rate [m3/s], 1.45033E-004
 Component Sizing Information, AirTerminal:SingleDuct:VAV:Reheat, AIR TERMINAL SINGLE DUCT VAV REHEAT 1, Design Size Reheat Coil Sizing Air Volume Flow Rate [m3/s], 0.91286
 Component Sizing Information, AirTerminal:SingleDuct:VAV:Reheat, AIR TERMINAL SINGLE DUCT VAV REHEAT 1, Design Size Reheat Coil Sizing Inlet Air Temperature [C], 13.10000
 Component Sizing Information, AirTerminal:SingleDuct:VAV:Reheat, AIR TERMINAL SINGLE DUCT VAV REHEAT 1, Design Size Reheat Coil Sizing Inlet Air Humidity Ratio [kgWater/kgDryAir], 8.00000E-003
 Component Sizing Information, Coil:Heating:Water, COIL HEATING WATER 4, Design Size Rated Capacity [W], 9710.42733
 Component Sizing Information, Coil:Heating:Water, COIL HEATING WATER 4, Design Size Maximum Water Flow Rate [m3/s], 1.45033E-004
 Component Sizing Information, Coil:Heating:Water, COIL HEATING WATER 4, Design Size U-Factor Times Area Value [W/K], 175.08224
Water Heating Coil Capacity Information,Coil:Heating:Water,COIL HEATING WATER 4,9104.87
 Component Sizing Information, ZoneHVAC:Baseboard:Convective:Water, ZONE HVAC BASEBOARD CONVECTIVE WATER 14, Design Size Maximum Water Flow Rate [m3/s], 0.00000
 Component Sizing Information, ZoneHVAC:Baseboard:Convective:Water, ZONE HVAC BASEBOARD CONVECTIVE WATER 14, Design Size U-Factor Times Area Value [W/K], 0.00000
 Component Sizing Information, AirTerminal:SingleDuct:VAV:Reheat, AIR TERMINAL SINGLE DUCT VAV REHEAT 3, Design Size Maximum Air Flow Rate [m3/s], 4.47189
 Component Sizing Information, AirTerminal:SingleDuct:VAV:Reheat, AIR TERMINAL SINGLE DUCT VAV REHEAT 3, Design Size Constant Minimum Air Flow Fraction, 0.31950
 Component Sizing Information, AirTerminal:SingleDuct:VAV:Reheat, AIR TERMINAL SINGLE DUCT VAV REHEAT 3, User-Specified Constant Minimum Air Flow Fraction, 0.30000
 Component Sizing Information, AirTerminal:SingleDuct:VAV:Reheat, AIR TERMINAL SINGLE DUCT VAV REHEAT 3, Design Size Minimum Air Flow Rate [m3/s], 1.34157
 Component Sizing Information, AirTerminal:SingleDuct:VAV:Reheat, AIR TERMINAL SINGLE DUCT VAV REHEAT 3, Design Size Maximum Flow per Zone Floor Area during Reheat [m3/s-m2], 7.15503E-004
 Component Sizing Information, AirTerminal:SingleDuct:VAV:Reheat, AIR TERMINAL SINGLE DUCT VAV REHEAT 3, Design Size Maximum Flow Fraction during Reheat [], 0.30000
 Component Sizing Information, AirTerminal:SingleDuct:VAV:Reheat, AIR TERMINAL SINGLE DUCT VAV REHEAT 3, Design Size Maximum Reheat Water Flow Rate [m3/s], 2.52852E-004
 Component Sizing Information, AirTerminal:SingleDuct:VAV:Reheat, AIR TERMINAL SINGLE DUCT VAV REHEAT 3, Design Size Reheat Coil Sizing Air Volume Flow Rate [m3/s], 1.34157
 Component Sizing Information, AirTerminal:SingleDuct:VAV:Reheat, AIR TERMINAL SINGLE DUCT VAV REHEAT 3, Design Size Reheat Coil Sizing Inlet Air Temperature [C], 13.10000
 Component Sizing Information, AirTerminal:SingleDuct:VAV:Reheat, AIR TERMINAL SINGLE DUCT VAV REHEAT 3, Design Size Reheat Coil Sizing Inlet Air Humidity Ratio [kgWater/kgDryAir], 8.00000E-003
 Component Sizing Information, Coil:Heating:Water, COIL HEATING WATER 7, Design Size Rated Capacity [W], 16929.27064
 Component Sizing Information, Coil:Heating:Water, COIL HEATING WATER 7, Design Size Maximum Water Flow Rate [m3/s], 2.52852E-004
 Component Sizing Information, Coil:Heating:Water, COIL HEATING WATER 7, Design Size U-Factor Times Area Value [W/K], 311.75174
Water Heating Coil Capacity Information,Coil:Heating:Water,COIL HEATING WATER 7,15870.70
 Component Sizing Information, ZoneHVAC:Baseboard:Convective:Water, ZONE HVAC BASEBOARD CONVECTIVE WATER 16, Design Size Maximum Water Flow Rate [m3/s], 3.80444E-005
 Component Sizing Information, ZoneHVAC:Baseboard:Convective:Water, ZONE HVAC BASEBOARD CONVECTIVE WATER 16, Design Size U-Factor Times Area Value [W/K], 77.39514
 Component Sizing Information, AirTerminal:SingleDuct:Uncontrolled, AIR TERMINAL SINGLE DUCT UNCONTROLLED 16, Design Size Maximum Air Flow Rate [m3/s], 4.76250
 Component Sizing Information, ZoneHVAC:Baseboard:Convective:Water, ZONE HVAC BASEBOARD CONVECTIVE WATER 18, Design Size Maximum Water Flow Rate [m3/s], 4.48021E-004
 Component Sizing Information, ZoneHVAC:Baseboard:Convective:Water, ZONE HVAC BASEBOARD CONVECTIVE WATER 18, Design Size U-Factor Times Area Value [W/K], 914.35394
 Component Sizing Information, AirTerminal:SingleDuct:Uncontrolled, AIR TERMINAL SINGLE DUCT UNCONTROLLED 10, Design Size Maximum Air Flow Rate [m3/s], 5.15920
 Component Sizing Information, ZoneHVAC:Baseboard:Convective:Water, ZONE HVAC BASEBOARD CONVECTIVE WATER 10, Design Size Maximum Water Flow Rate [m3/s], 3.64610E-004
 Component Sizing Information, ZoneHVAC:Baseboard:Convective:Water, ZONE HVAC BASEBOARD CONVECTIVE WATER 10, Design Size U-Factor Times Area Value [W/K], 740.00637
 Component Sizing Information, AirTerminal:SingleDuct:Uncontrolled, AIR TERMINAL SINGLE DUCT UNCONTROLLED 11, Design Size Maximum Air Flow Rate [m3/s], 6.95960
 Component Sizing Information, ZoneHVAC:Baseboard:Convective:Water, ZONE HVAC BASEBOARD CONVECTIVE WATER 11, Design Size Maximum Water Flow Rate [m3/s], 0.00000
 Component Sizing Information, ZoneHVAC:Baseboard:Convective:Water, ZONE HVAC BASEBOARD CONVECTIVE WATER 11, Design Size U-Factor Times Area Value [W/K], 0.00000
 Component Sizing Information, AirTerminal:SingleDuct:Uncontrolled, AIR TERMINAL SINGLE DUCT UNCONTROLLED 12, Design Size Maximum Air Flow Rate [m3/s], 6.71513
 Component Sizing Information, ZoneHVAC:Baseboard:Convective:Water, ZONE HVAC BASEBOARD CONVECTIVE WATER 12, Design Size Maximum Water Flow Rate [m3/s], 2.69618E-005
 Component Sizing Information, ZoneHVAC:Baseboard:Convective:Water, ZONE HVAC BASEBOARD CONVECTIVE WATER 12, Design Size U-Factor Times Area Value [W/K], 35.38534
 Component Sizing Information, AirTerminal:SingleDuct:VAV:Reheat, AIR TERMINAL SINGLE DUCT VAV REHEAT 4, Design Size Maximum Air Flow Rate [m3/s], 4.45690
 Component Sizing Information, AirTerminal:SingleDuct:VAV:Reheat, AIR TERMINAL SINGLE DUCT VAV REHEAT 4, Design Size Constant Minimum Air Flow Fraction, 0.42743
 Component Sizing Information, AirTerminal:SingleDuct:VAV:Reheat, AIR TERMINAL SINGLE DUCT VAV REHEAT 4, User-Specified Constant Minimum Air Flow Fraction, 0.30000
 Component Sizing Information, AirTerminal:SingleDuct:VAV:Reheat, AIR TERMINAL SINGLE DUCT VAV REHEAT 4, Design Size Minimum Air Flow Rate [m3/s], 1.33707
 Component Sizing Information, AirTerminal:SingleDuct:VAV:Reheat, AIR TERMINAL SINGLE DUCT VAV REHEAT 4, Design Size Maximum Flow per Zone Floor Area during Reheat [m3/s-m2], 5.34828E-004
[...]
 Component Sizing Information, Chiller:Electric:EIR, SECONDARY CHILLER WATERCOOLED SCROLL, Design Size Reference Capacity [W], 91634.24416
 Component Sizing Information, Chiller:Electric:EIR, SECONDARY CHILLER WATERCOOLED SCROLL, Design Size Reference Condenser Fluid Flow Rate [m3/s], 4.31855E-003
 Chiller Standard Rating Information, Chiller:Electric:EIR, SECONDARY CHILLER WATERCOOLED SCROLL, 7.88, 26.88
 Component Sizing Information, PlantLoop, CHILLED WATER LOOP 1, Maximum Loop Flow Rate [m3/s], 1.68491E-003
 Component Sizing Information, PlantLoop, CHILLED WATER LOOP 1, Plant Loop Volume [m3], 0.20219
 Component Sizing Information, Pump:ConstantSpeed, PUMP CONSTANT SPEED 3, Design Flow Rate [m3/s], 1.68491E-003
 Component Sizing Information, Pump:ConstantSpeed, PUMP CONSTANT SPEED 3, Design Power Consumption [W], 430.47397
 Component Sizing Information, Chiller:Electric:EIR, PRIMARY CHILLER WATERCOOLED SCROLL 1, Design Size Reference Chilled Water Flow Rate [m3/s], 1.68491E-003
 Component Sizing Information, Chiller:Electric:EIR, PRIMARY CHILLER WATERCOOLED SCROLL 1, Design Size Reference Capacity [W], 42434.58194
 Component Sizing Information, Chiller:Electric:EIR, PRIMARY CHILLER WATERCOOLED SCROLL 1, Design Size Reference Condenser Fluid Flow Rate [m3/s], 1.99986E-003
 Chiller Standard Rating Information, Chiller:Electric:EIR, PRIMARY CHILLER WATERCOOLED SCROLL 1, 7.88, 26.88
 Component Sizing Information, Chiller:Electric:EIR, SECONDARY CHILLER WATERCOOLED SCROLL 1, Design Size Reference Chilled Water Flow Rate [m3/s], 1.68491E-003
 Component Sizing Information, Chiller:Electric:EIR, SECONDARY CHILLER WATERCOOLED SCROLL 1, Design Size Reference Capacity [W], 42434.58194
 Component Sizing Information, Chiller:Electric:EIR, SECONDARY CHILLER WATERCOOLED SCROLL 1, Design Size Reference Condenser Fluid Flow Rate [m3/s], 1.99986E-003
 Chiller Standard Rating Information, Chiller:Electric:EIR, SECONDARY CHILLER WATERCOOLED SCROLL 1, 7.88, 26.88
 Component Sizing Information, PlantLoop, CHILLED WATER LOOP 2, Maximum Loop Flow Rate [m3/s], 1.07898E-002
 Component Sizing Information, PlantLoop, CHILLED WATER LOOP 2, Plant Loop Volume [m3], 1.29478
 Component Sizing Information, Pump:ConstantSpeed, PUMP CONSTANT SPEED 5, Design Flow Rate [m3/s], 1.07898E-002
 Component Sizing Information, Pump:ConstantSpeed, PUMP CONSTANT SPEED 5, Design Power Consumption [W], 2756.66586
 Component Sizing Information, Chiller:Electric:EIR, PRIMARY CHILLER WATERCOOLED SCROLL 2, Design Size Reference Chilled Water Flow Rate [m3/s], 1.07898E-002
 Component Sizing Information, Chiller:Electric:EIR, PRIMARY CHILLER WATERCOOLED SCROLL 2, Design Size Reference Capacity [W], 271742.24490
 Component Sizing Information, Chiller:Electric:EIR, PRIMARY CHILLER WATERCOOLED SCROLL 2, Design Size Reference Condenser Fluid Flow Rate [m3/s], 1.28067E-002
 Chiller Standard Rating Information, Chiller:Electric:EIR, PRIMARY CHILLER WATERCOOLED SCROLL 2, 7.88, 26.88
 Component Sizing Information, Chiller:Electric:EIR, SECONDARY CHILLER WATERCOOLED SCROLL 2, Design Size Reference Chilled Water Flow Rate [m3/s], 1.07898E-002
 Component Sizing Information, Chiller:Electric:EIR, SECONDARY CHILLER WATERCOOLED SCROLL 2, Design Size Reference Capacity [W], 271742.24490
 Component Sizing Information, Chiller:Electric:EIR, SECONDARY CHILLER WATERCOOLED SCROLL 2, Design Size Reference Condenser Fluid Flow Rate [m3/s], 1.28067E-002
 Chiller Standard Rating Information, Chiller:Electric:EIR, SECONDARY CHILLER WATERCOOLED SCROLL 2, 7.88, 26.88
 Component Sizing Information, PlantLoop, CONDENSER WATER LOOP, Maximum Loop Flow Rate [m3/s], 8.63710E-003
 Component Sizing Information, PlantLoop, CONDENSER WATER LOOP, Plant Loop Volume [m3], 1.03645
 Component Sizing Information, Pump:ConstantSpeed, PUMP CONSTANT SPEED 2, Design Flow Rate [m3/s], 8.63710E-003
 Component Sizing Information, Pump:ConstantSpeed, PUMP CONSTANT SPEED 2, Design Power Consumption [W], 2206.66706
 Component Sizing Information, CoolingTower:SingleSpeed, COOLING TOWER SINGLE SPEED 1, Design Water Flow Rate [m3/s], 8.63710E-003
 Component Sizing Information, CoolingTower:SingleSpeed, COOLING TOWER SINGLE SPEED 1, Fan Power at Design Air Flow Rate [W], 1895.12650
 Component Sizing Information, CoolingTower:SingleSpeed, COOLING TOWER SINGLE SPEED 1, Design Air Flow Rate [m3/s], 5.21122
 Component Sizing Information, CoolingTower:SingleSpeed, COOLING TOWER SINGLE SPEED 1, U-Factor Times Area Value at Design Air Flow Rate [W/C], 9305.84461
 Component Sizing Information, CoolingTower:SingleSpeed, COOLING TOWER SINGLE SPEED 1, Free Convection Regime Air Flow Rate [m3/s], 0.52112
 Component Sizing Information, CoolingTower:SingleSpeed, COOLING TOWER SINGLE SPEED 1, Free Convection U-Factor Times Area Value [W/K], 930.58446
 Component Sizing Information, PlantLoop, CONDENSER WATER LOOP 1, Maximum Loop Flow Rate [m3/s], 3.99972E-003
 Component Sizing Information, PlantLoop, CONDENSER WATER LOOP 1, Plant Loop Volume [m3], 0.47997
 Component Sizing Information, Pump:ConstantSpeed, PUMP CONSTANT SPEED 4, Design Flow Rate [m3/s], 3.99972E-003
 Component Sizing Information, Pump:ConstantSpeed, PUMP CONSTANT SPEED 4, Design Power Consumption [W], 1021.87774
 Component Sizing Information, CoolingTower:SingleSpeed, COOLING TOWER SINGLE SPEED 2, Design Water Flow Rate [m3/s], 3.99972E-003
 Component Sizing Information, CoolingTower:SingleSpeed, COOLING TOWER SINGLE SPEED 2, Fan Power at Design Air Flow Rate [W], 877.60751
 Component Sizing Information, CoolingTower:SingleSpeed, COOLING TOWER SINGLE SPEED 2, Design Air Flow Rate [m3/s], 2.41324
 Component Sizing Information, CoolingTower:SingleSpeed, COOLING TOWER SINGLE SPEED 2, U-Factor Times Area Value at Design Air Flow Rate [W/C], 4309.41106
 Component Sizing Information, CoolingTower:SingleSpeed, COOLING TOWER SINGLE SPEED 2, Free Convection Regime Air Flow Rate [m3/s], 0.24132
 Component Sizing Information, CoolingTower:SingleSpeed, COOLING TOWER SINGLE SPEED 2, Free Convection U-Factor Times Area Value [W/K], 430.94111
 Component Sizing Information, PlantLoop, CONDENSER WATER LOOP 2, Maximum Loop Flow Rate [m3/s], 2.56134E-002
 Component Sizing Information, PlantLoop, CONDENSER WATER LOOP 2, Plant Loop Volume [m3], 3.07361
 Component Sizing Information, Pump:ConstantSpeed, PUMP CONSTANT SPEED 6, Design Flow Rate [m3/s], 2.56134E-002
 Component Sizing Information, Pump:ConstantSpeed, PUMP CONSTANT SPEED 6, Design Power Consumption [W], 6543.89270
 Component Sizing Information, CoolingTower:SingleSpeed, COOLING TOWER SINGLE SPEED 3, Design Water Flow Rate [m3/s], 2.56134E-002
 Component Sizing Information, CoolingTower:SingleSpeed, COOLING TOWER SINGLE SPEED 3, Fan Power at Design Air Flow Rate [W], 5620.01614
 Component Sizing Information, CoolingTower:SingleSpeed, COOLING TOWER SINGLE SPEED 3, Design Air Flow Rate [m3/s], 15.45392
 Component Sizing Information, CoolingTower:SingleSpeed, COOLING TOWER SINGLE SPEED 3, U-Factor Times Area Value at Design Air Flow Rate [W/C], 27596.57296
 Component Sizing Information, CoolingTower:SingleSpeed, COOLING TOWER SINGLE SPEED 3, Free Convection Regime Air Flow Rate [m3/s], 1.54539
 Component Sizing Information, CoolingTower:SingleSpeed, COOLING TOWER SINGLE SPEED 3, Free Convection U-Factor Times Area Value [W/K], 2759.65730
 Component Sizing Information, PlantLoop, HOT WATER LOOP, Maximum Loop Flow Rate [m3/s], 1.61001E-002
 Component Sizing Information, PlantLoop, HOT WATER LOOP, Plant Loop Volume [m3], 1.93201
 Component Sizing Information, Pump:VariableSpeed, PUMP VARIABLE SPEED 1, Design Flow Rate [m3/s], 1.61001E-002
 Component Sizing Information, Pump:VariableSpeed, PUMP VARIABLE SPEED 1, Design Power Consumption [W], 4113.35942
 Component Sizing Information, Boiler:HotWater, PRIMARY BOILER, Design Size Nominal Capacity [W], 1082122.89760
 Component Sizing Information, Boiler:HotWater, PRIMARY BOILER, Design Size Design Water Flow Rate [m3/s], 1.61001E-002
 Component Sizing Information, Boiler:HotWater, SECONDARY BOILER, Design Size Nominal Capacity [W], 1082122.89760
 Component Sizing Information, Boiler:HotWater, SECONDARY BOILER, Design Size Design Water Flow Rate [m3/s], 1.61001E-002
 Component Sizing Information, PlantLoop, MAIN SERVICE WATER LOOP, Maximum Loop Flow Rate [m3/s], 8.92782E-004
 Component Sizing Information, PlantLoop, MAIN SERVICE WATER LOOP, Plant Loop Volume [m3], 0.10713
 Component Sizing Information, Pump:ConstantSpeed, SERVICE WATER LOOP PUMP, Design Flow Rate [m3/s], 8.92782E-004
 Component Sizing Information, Pump:ConstantSpeed, SERVICE WATER LOOP PUMP, Design Power Consumption [W], 710.50929
 Component Sizing Information, WaterHeater:Mixed, 671GAL NATURALGAS WATER HEATER - 2156KBTU/HR, Use Side Design Flow Rate [m3/s], 8.92782E-004
! <Environment>,Environment Name,Environment Type, Start Date, End Date, Start DayOfWeek, Duration {#days}, Source:Start DayOfWeek,  Use Daylight Saving, Use Holidays, Apply Weekend Holiday Rule,  Use Rain Values, Use Snow Values
! <Environment:Special Days>, Special Day Name, Special Day Type, Source, Start Date, Duration {#days}
! <Environment:Daylight Saving>, Daylight Saving Indicator, Source, Start Date, End Date
! <Environment:WarmupDays>, NumberofWarmupDays
Environment,FORT MCMURRAY AP ANN CLG .4% CONDNS DB=>MWB,SizingPeriod:DesignDay,07/21,07/21,SummerDesignDay,1,N/A,N/A,N/A,N/A,N/A,N/A
Environment:Daylight Saving,No,SizingPeriod:DesignDay
! <Environment:Design Day Data>, Max Dry-Bulb Temp {C}, Temp Range {dC}, Temp Range Ind Type, Hum Ind Value at Max Temp, Hum Ind Type,Pressure {Pa}, Wind Direction {deg CW from N}, Wind Speed {m/s}, Clearness, Rain, Snow
! <Environment:Design Day Misc>,DayOfYear,ASHRAE A Coeff,ASHRAE B Coeff,ASHRAE C Coeff,Solar Constant-Annual Variation,Eq of Time {minutes}, Solar Declination Angle {deg}, Solar Model
Environment:Design Day Data,28.90,12.40,DefaultMultipliers,96969,250,3.7,0.00,No,No
Environment:Design Day Misc,202,1084.4,0.2082,0.1365,1.0,-6.23,20.6,ASHRAETau
Environment:WarmupDays,  6
! <Tabular Report>,Style,Unit Conversion
Tabular Report,HTML,None
! <Warmup Convergence Information>,Zone Name,Environment Type/Name,Average Warmup Temperature Difference {deltaC},Std Dev Warmup Temperature Difference {deltaC},Max Temperature Pass/Fail Convergence,Min Temperature Pass/Fail Convergence,Average Warmup Load Difference {W},Std Dev Warmup Load Difference {W},Heating Load Pass/Fail Convergence,Cooling Load Pass/Fail Convergence
 Warmup Convergence Information,ALL_ST=LOBBY - MOTION PICTURE_FL=STORY 4_SCH=C,SizingPeriod: FORT MCMURRAY AP ANN CLG .4% CONDNS DB=>MWB,7.1184253373E-002,0.1070560976,Pass,Pass,2.8289644498E-002,3.7399164960E-002,Pass,Pass
 Warmup Convergence Information,ALL_ST=LOBBY - OTHER_FL=STORY 4_SCH=C,SizingPeriod: FORT MCMURRAY AP ANN CLG .4% CONDNS DB=>MWB,7.0293165845E-002,0.1089532874,Pass,Pass,2.6116547430E-002,3.9780602315E-002,Pass,Pass
 Warmup Convergence Information,ALL_ST=LOBBY - PERFORMANCE ARTS_FL=STORY 4_SCH=C,SizingPeriod: FORT MCMURRAY AP ANN CLG .4% CONDNS DB=>MWB,6.5754394718E-002,9.4587687048E-002,Pass,Pass,2.4058768179E-002,5.0931793449E-002,Pass,Pass
 Warmup Convergence Information,ALL_ST=LOUNGE/RECREATION_FL=STORY 4_SCH=B,SizingPeriod: FORT MCMURRAY AP ANN CLG .4% CONDNS DB=>MWB,3.6039648067E-002,6.7935976092E-002,Pass,Pass,3.6769550045E-002,5.3684068882E-002,Pass,Pass
 Warmup Convergence Information,ALL_ST=MFG - 7.5 <= BAY H <= 15M_FL=STORY 4_SCH=A,SizingPeriod: FORT MCMURRAY AP ANN CLG .4% CONDNS DB=>MWB,4.2323893401E-002,6.9988634840E-002,Pass,Pass,4.1059673274E-002,0.1233899185,Pass,Pass
 Warmup Convergence Information,ALL_ST=MFG - BAY H < 7.5M_FL=STORY 3_SCH=A,SizingPeriod: FORT MCMURRAY AP ANN CLG .4% CONDNS DB=>MWB,3.1178230409E-002,6.6166382783E-002,Pass,Pass,2.7104386703E-002,0.1324215459,Pass,Pass
 Warmup Convergence Information,ALL_ST=MFG - BAY H > 15M_FL=STORY 1_SCH=A,SizingPeriod: FORT MCMURRAY AP ANN CLG .4% CONDNS DB=>MWB,2.9000742946E-002,5.3635557393E-002,Pass,Pass,2.9141971907E-002,0.1010088379,Pass,Pass
 Warmup Convergence Information,ALL_ST=MFG - DETAILED_FL=STORY 1_SCH=A,SizingPeriod: FORT MCMURRAY AP ANN CLG .4% CONDNS DB=>MWB,3.1435888356E-002,6.3164673428E-002,Pass,Pass,2.5132127007E-002,5.2807781213E-002,Pass,Pass
 Warmup Convergence Information,ALL_ST=MFG - EQUIPMENT_FL=STORY 1_SCH=A,SizingPeriod: FORT MCMURRAY AP ANN CLG .4% CONDNS DB=>MWB,3.0526113625E-002,6.0470907046E-002,Pass,Pass,2.9088715870E-002,9.3239411970E-002,Pass,Pass
 Warmup Convergence Information,ALL_ST=MUSEUM - EXHIBITION_FL=STORY 3_SCH=C,SizingPeriod: FORT MCMURRAY AP ANN CLG .4% CONDNS DB=>MWB,6.4923016194E-002,7.3194550103E-002,Pass,Pass,3.9819896946E-002,8.4701086675E-002,Pass,Pass
 Warmup Convergence Information,ALL_ST=MUSEUM - RESTORATION_FL=STORY 1_SCH=A,SizingPeriod: FORT MCMURRAY AP ANN CLG .4% CONDNS DB=>MWB,4.2384221912E-002,6.6504631409E-002,Pass,Pass,3.1026751659E-002,7.0000315251E-002,Pass,Pass
 Warmup Convergence Information,ALL_ST=OFFICE - ENCLOSED - OCCSENS_FL=STORY 2_SCH=A,SizingPeriod: FORT MCMURRAY AP ANN CLG .4% CONDNS DB=>MWB,1.4933488340E-002,3.7611290011E-002,Pass,Pass,1.6537121934E-002,5.6472817061E-002,Pass,Pass
 Warmup Convergence Information,ALL_ST=OFFICE - ENCLOSED_FL=STORY 1_SCH=A,SizingPeriod: FORT MCMURRAY AP ANN CLG .4% CONDNS DB=>MWB,1.7662078694E-002,5.1318040269E-002,Pass,Pass,1.9609178019E-002,7.6614948376E-002,Pass,Pass
 Warmup Convergence Information,ALL_ST=OFFICE - OPEN PLAN_FL=STORY 2_SCH=A,SizingPeriod: FORT MCMURRAY AP ANN CLG .4% CONDNS DB=>MWB,1.8681809916E-002,4.7664928562E-002,Pass,Pass,1.7079979335E-002,3.8267265214E-002,Pass,Pass
 Warmup Convergence Information,ALL_ST=PARKING GARAGE SPACE_FL=STORY 3_SCH=H,SizingPeriod: FORT MCMURRAY AP ANN CLG .4% CONDNS DB=>MWB,3.8437244472E-002,5.2979520221E-002,Pass,Pass,3.6069269020E-002,6.4565824102E-002,Pass,Pass
 Warmup Convergence Information,ALL_ST=PENITENTIARY - AUDIENCE_FL=STORY 3_SCH=C,SizingPeriod: FORT MCMURRAY AP ANN CLG .4% CONDNS DB=>MWB,4.0211937484E-002,6.4008741950E-002,Pass,Pass,3.6193729998E-002,0.1145092342,Pass,Pass
 Warmup Convergence Information,ALL_ST=PENITENTIARY - CLASSROOM_FL=STORY 2_SCH=D,SizingPeriod: FORT MCMURRAY AP ANN CLG .4% CONDNS DB=>MWB,4.2650370939E-002,7.2806673296E-002,Pass,Pass,2.9247603146E-002,8.2718167702E-002,Pass,Pass
 Warmup Convergence Information,ALL_ST=PENITENTIARY - DINING_FL=STORY 2_SCH=B,SizingPeriod: FORT MCMURRAY AP ANN CLG .4% CONDNS DB=>MWB,4.3555475785E-002,6.4561449390E-002,Pass,Pass,2.0806730705E-002,3.2925798837E-002,Pass,Pass
 Warmup Convergence Information,ALL_ST=POST OFFICE SORTING_FL=STORY 3_SCH=A,SizingPeriod: FORT MCMURRAY AP ANN CLG .4% CONDNS DB=>MWB,2.2767534300E-002,5.6031646091E-002,Pass,Pass,1.8258141666E-002,5.4687252315E-002,Pass,Pass
 Warmup Convergence Information,ALL_ST=RELIGIOUS - AUDIENCE_FL=STORY 2_SCH=I,SizingPeriod: FORT MCMURRAY AP ANN CLG .4% CONDNS DB=>MWB,0.1005660940,0.2496501857,Pass,Pass,0.3056356647,2.7264174372,Pass,Pass
Environment,FORT MCMURRAY AP ANN HTG 99.6% CONDNS DB,SizingPeriod:DesignDay,01/21,01/21,WinterDesignDay,1,N/A,N/A,N/A,N/A,N/A,N/A
Environment:Daylight Saving,No,SizingPeriod:DesignDay
Environment:Design Day Data,-36.20,0.00,DefaultMultipliers,96969,90,1.0,0.00,No,No
Environment:Design Day Misc, 21,1229.0,0.1415,5.7310E-002,1.0,-11.15,-20.1,ASHRAEClearSky
Environment:WarmupDays,  8
 Warmup Convergence Information,ALL_ST=LOBBY - MOTION PICTURE_FL=STORY 4_SCH=C,SizingPeriod: FORT MCMURRAY AP ANN HTG 99.6% CONDNS DB,5.5561187933E-002,0.3322092146,Pass,Pass,3.5000027231E-002,0.1410213667,Pass,Pass
 Warmup Convergence Information,ALL_ST=LOBBY - OTHER_FL=STORY 4_SCH=C,SizingPeriod: FORT MCMURRAY AP ANN HTG 99.6% CONDNS DB,5.5558133554E-002,0.3237184583,Pass,Pass,5.4409252052E-002,0.1702068694,Pass,Pass
 Warmup Convergence Information,ALL_ST=LOBBY - PERFORMANCE ARTS_FL=STORY 4_SCH=C,SizingPeriod: FORT MCMURRAY AP ANN HTG 99.6% CONDNS DB,5.5558265462E-002,0.3288396583,Pass,Pass,5.6912014381E-002,0.1622632256,Pass,Pass
 Warmup Convergence Information,ALL_ST=LOUNGE/RECREATION_FL=STORY 4_SCH=B,SizingPeriod: FORT MCMURRAY AP ANN HTG 99.6% CONDNS DB,5.5589191528E-002,0.3155615645,Pass,Pass,4.4192722608E-002,0.1428453026,Pass,Pass
 Warmup Convergence Information,ALL_ST=MFG - 7.5 <= BAY H <= 15M_FL=STORY 4_SCH=A,SizingPeriod: FORT MCMURRAY AP ANN HTG 99.6% CONDNS DB,5.5559438672E-002,0.3284419691,Pass,Pass,5.4204419415E-002,0.2071646302,Pass,Pass
 Warmup Convergence Information,ALL_ST=MFG - BAY H < 7.5M_FL=STORY 3_SCH=A,SizingPeriod: FORT MCMURRAY AP ANN HTG 99.6% CONDNS DB,5.5557221270E-002,0.2763737509,Pass,Pass,0.2589615743,1.3761399920,Pass,Pass
 Warmup Convergence Information,ALL_ST=MFG - BAY H > 15M_FL=STORY 1_SCH=A,SizingPeriod: FORT MCMURRAY AP ANN HTG 99.6% CONDNS DB,5.6051815383E-002,0.2236102583,Pass,Pass,0.2170873863,1.4718412636,Pass,Pass
 Warmup Convergence Information,ALL_ST=MFG - DETAILED_FL=STORY 1_SCH=A,SizingPeriod: FORT MCMURRAY AP ANN HTG 99.6% CONDNS DB,5.6358708360E-002,0.2125172873,Pass,Pass,0.2660699239,1.2709806904,Pass,Pass
 Warmup Convergence Information,ALL_ST=MFG - EQUIPMENT_FL=STORY 1_SCH=A,SizingPeriod: FORT MCMURRAY AP ANN HTG 99.6% CONDNS DB,5.4291866448E-002,0.2123142754,Pass,Pass,7.0856899278E-002,0.2652319542,Pass,Pass
 Warmup Convergence Information,ALL_ST=MUSEUM - EXHIBITION_FL=STORY 3_SCH=C,SizingPeriod: FORT MCMURRAY AP ANN HTG 99.6% CONDNS DB,8.6924582551E-002,0.3060403186,Pass,Pass,0.6747812032,2.1793069782,Pass,Pass
 Warmup Convergence Information,ALL_ST=MUSEUM - RESTORATION_FL=STORY 1_SCH=A,SizingPeriod: FORT MCMURRAY AP ANN HTG 99.6% CONDNS DB,7.6114964586E-002,0.2831236404,Pass,Pass,0.1624505479,0.5078089066,Pass,Pass
 Warmup Convergence Information,ALL_ST=OFFICE - ENCLOSED - OCCSENS_FL=STORY 2_SCH=A,SizingPeriod: FORT MCMURRAY AP ANN HTG 99.6% CONDNS DB,5.5605717379E-002,0.1260007480,Pass,Pass,6.0884203972,66.6126394955,Pass,Pass
 Warmup Convergence Information,ALL_ST=OFFICE - ENCLOSED_FL=STORY 1_SCH=A,SizingPeriod: FORT MCMURRAY AP ANN HTG 99.6% CONDNS DB,5.8480820061E-002,0.1051165883,Pass,Pass,7.4296145037E-002,0.2985646585,Pass,Pass
 Warmup Convergence Information,ALL_ST=OFFICE - OPEN PLAN_FL=STORY 2_SCH=A,SizingPeriod: FORT MCMURRAY AP ANN HTG 99.6% CONDNS DB,6.1008805333E-002,0.1325344659,Pass,Pass,0.7925375214,5.0015629213,Pass,Pass
 Warmup Convergence Information,ALL_ST=PARKING GARAGE SPACE_FL=STORY 3_SCH=H,SizingPeriod: FORT MCMURRAY AP ANN HTG 99.6% CONDNS DB,5.5555761345E-002,0.2822735758,Pass,Pass,0.1553565999,0.9807343044,Pass,Pass
 Warmup Convergence Information,ALL_ST=PENITENTIARY - AUDIENCE_FL=STORY 3_SCH=C,SizingPeriod: FORT MCMURRAY AP ANN HTG 99.6% CONDNS DB,5.5559522594E-002,0.2844037415,Pass,Pass,0.3471957679,1.2541800481,Pass,Pass
 Warmup Convergence Information,ALL_ST=PENITENTIARY - CLASSROOM_FL=STORY 2_SCH=D,SizingPeriod: FORT MCMURRAY AP ANN HTG 99.6% CONDNS DB,5.5585159658E-002,0.2838255844,Pass,Pass,0.1442172576,0.6668968110,Pass,Pass
 Warmup Convergence Information,ALL_ST=PENITENTIARY - DINING_FL=STORY 2_SCH=B,SizingPeriod: FORT MCMURRAY AP ANN HTG 99.6% CONDNS DB,5.5558730447E-002,0.2963229170,Pass,Pass,0.4940750129,1.9909477772,Pass,Pass
 Warmup Convergence Information,ALL_ST=POST OFFICE SORTING_FL=STORY 3_SCH=A,SizingPeriod: FORT MCMURRAY AP ANN HTG 99.6% CONDNS DB,4.8711957961E-002,6.7688451374E-002,Pass,Pass,4.4433992460E-002,0.1584341410,Pass,Pass
 Warmup Convergence Information,ALL_ST=RELIGIOUS - AUDIENCE_FL=STORY 2_SCH=I,SizingPeriod: FORT MCMURRAY AP ANN HTG 99.6% CONDNS DB,5.5556825643E-002,0.3074360857,Pass,Pass,6.0233327967E-002,0.1407855087,Pass,Pass
! <Program Control Information:Threads/Parallel Sims>, Threading Supported,Maximum Number of Threads, Env Set Threads (OMP_NUM_THREADS), EP Env Set Threads (EP_OMP_NUM_THREADS), IDF Set Threads, Number of Threads Used (Interior Radiant Exchange), Number Nominal Surfaces, Number Parallel Sims
Program Control:Threads/Parallel Sims, No,1, N/A, N/A, N/A, N/A, N/A, N/A
End of Data
