Program Version,EnergyPlus, Version 8.9.0-eba93e8e1b, YMD=2019.03.28 13:16
! This file shows details about the branches, nodes, and other
! elements of the flow connections.
! This file is intended for use in "debugging" potential problems
! that may also be detected by the program, but may be more easily
! identified by "eye".
! This file is also intended to support software which draws a
! schematic diagram of the HVAC system.
! ===============================================================
! #Nodes,<Number of Unique Nodes>
 #Nodes,487
! <Node>,<NodeNumber>,<Node Name>,<Node Fluid Type>,<# Times Node Referenced After Definition>
 Node,1,NODE 27,Air,4
 Node,2,NODE 45,Air,4
 Node,3,NODE 63,Air,4
 Node,4,NODE 76,Air,4
 Node,5,NODE 89,Air,4
 Node,6,NODE 102,Air,4
 Node,7,NODE 115,Air,4
 Node,8,NODE 128,Air,4
 Node,9,NODE 141,Air,4
 Node,10,NODE 243,Air,3
 Node,11,NODE 233,Air,4
 Node,12,NODE 242,Air,3
 Node,13,NODE 286,Air,3
 Node,14,NODE 276,Air,4
 Node,15,NODE 285,Air,3
 Node,16,NODE 339,Air,4
 Node,17,NODE 319,Air,4
 Node,18,NODE 358,Air,4
 Node,19,NODE 388,Air,4
 Node,20,NODE 154,Air,4
 Node,21,NODE 167,Air,4
 Node,22,NODE 180,Air,4
 Node,23,NODE 367,Air,4
 Node,24,NODE 193,Air,4
 Node,25,NODE 230,Air,10
 Node,26,NODE 231,Air,3
 Node,27,NODE 273,Air,10
 Node,28,NODE 274,Air,3
 Node,29,NODE 23,Air,10
 Node,30,NODE 24,Air,3
 Node,31,NODE 41,Air,10
 Node,32,NODE 42,Air,3
 Node,33,NODE 60,Air,10
 Node,34,NODE 61,Air,3
 Node,35,NODE 73,Air,10
 Node,36,NODE 74,Air,3
 Node,37,NODE 86,Air,10
 Node,38,NODE 87,Air,3
 Node,39,NODE 99,Air,10
 Node,40,NODE 100,Air,3
 Node,41,NODE 112,Air,10
 Node,42,NODE 113,Air,3
 Node,43,NODE 125,Air,10
 Node,44,NODE 126,Air,3
 Node,45,NODE 138,Air,10
 Node,46,NODE 139,Air,3
 Node,47,NODE 151,Air,10
 Node,48,NODE 152,Air,3
 Node,49,NODE 164,Air,10
 Node,50,NODE 165,Air,3
 Node,51,NODE 177,Air,10
 Node,52,NODE 178,Air,3
 Node,53,NODE 190,Air,10
 Node,54,NODE 191,Air,3
 Node,55,NODE 385,Air,10
 Node,56,NODE 386,Air,3
 Node,57,NODE 316,Air,12
 Node,58,NODE 317,Air,3
 Node,59,NODE 336,Air,12
 Node,60,NODE 337,Air,3
 Node,61,NODE 364,Air,12
 Node,62,NODE 365,Air,3
 Node,63,NODE 229,Air,3
 Node,64,NODE 238,Air,6
 Node,65,NODE 237,Air,6
 Node,66,NODE 236,Air,8
 Node,67,NODE 272,Air,3
 Node,68,NODE 281,Air,6
 Node,69,NODE 280,Air,6
 Node,70,NODE 279,Air,8
 Node,71,NODE 21,Air,3
 Node,72,NODE 35,Air,6
 Node,73,NODE 33,Air,6
 Node,74,NODE 32,Air,8
 Node,75,NODE 39,Air,3
 Node,76,NODE 53,Air,6
 Node,77,NODE 51,Air,6
 Node,78,NODE 50,Air,8
 Node,79,NODE 59,Air,3
 Node,80,NODE 68,Air,6
 Node,81,NODE 67,Air,6
 Node,82,NODE 66,Air,8
 Node,83,NODE 72,Air,3
 Node,84,NODE 81,Air,6
 Node,85,NODE 80,Air,6
 Node,86,NODE 79,Air,8
 Node,87,NODE 85,Air,3
 Node,88,NODE 94,Air,6
 Node,89,NODE 93,Air,6
 Node,90,NODE 92,Air,8
 Node,91,NODE 98,Air,3
 Node,92,NODE 107,Air,6
 Node,93,NODE 106,Air,6
 Node,94,NODE 105,Air,8
 Node,95,NODE 111,Air,3
 Node,96,NODE 120,Air,6
 Node,97,NODE 119,Air,6
 Node,98,NODE 118,Air,8
 Node,99,NODE 124,Air,3
 Node,100,NODE 133,Air,6
 Node,101,NODE 132,Air,6
 Node,102,NODE 131,Air,8
 Node,103,NODE 137,Air,3
 Node,104,NODE 146,Air,6
 Node,105,NODE 145,Air,6
 Node,106,NODE 144,Air,8
 Node,107,NODE 150,Air,3
 Node,108,NODE 159,Air,6
 Node,109,NODE 158,Air,6
 Node,110,NODE 157,Air,8
 Node,111,NODE 163,Air,3
 Node,112,NODE 172,Air,6
 Node,113,NODE 171,Air,6
 Node,114,NODE 170,Air,8
 Node,115,NODE 176,Air,3
 Node,116,NODE 185,Air,6
 Node,117,NODE 184,Air,6
 Node,118,NODE 183,Air,8
 Node,119,NODE 189,Air,3
 Node,120,NODE 198,Air,6
 Node,121,NODE 197,Air,6
 Node,122,NODE 196,Air,8
 Node,123,NODE 384,Air,3
 Node,124,NODE 393,Air,6
 Node,125,NODE 392,Air,6
 Node,126,NODE 391,Air,8
 Node,127,NODE 315,Air,2
 Node,128,NODE 328,Air,5
 Node,129,NODE 327,Air,5
 Node,130,NODE 326,Air,5
 Node,131,NODE 325,Air,9
 Node,132,NODE 335,Air,2
 Node,133,NODE 349,Air,5
 Node,134,NODE 348,Air,5
 Node,135,NODE 347,Air,5
 Node,136,NODE 346,Air,9
 Node,137,NODE 363,Air,2
 Node,138,NODE 377,Air,5
 Node,139,NODE 376,Air,5
 Node,140,NODE 375,Air,5
 Node,141,NODE 374,Air,9
 Node,142,NODE 202,Water,2
 Node,143,NODE 208,Water,1
 Node,144,NODE 204,Water,1
 Node,145,NODE 209,Water,1
 Node,146,NODE 210,Water,1
 Node,147,NODE 211,Water,1
 Node,148,NODE 212,Water,1
 Node,149,NODE 213,Water,1
 Node,150,NODE 214,Water,1
 Node,151,NODE 203,Water,4
 Node,152,NODE 205,Water,2
 Node,153,CHILLED WATER LOOP DEMAND INLET PIPE NODE,Water,1
 Node,154,NODE 207,Water,1
 Node,155,NODE 241,Water,1
 Node,156,CHILLED WATER LOOP DEMAND BYPASS PIPE INLET NODE,Water,1
 Node,157,CHILLED WATER LOOP DEMAND BYPASS PIPE OUTLET NODE,Water,1
 Node,158,CHILLED WATER LOOP DEMAND OUTLET PIPE NODE,Water,1
 Node,159,NODE 206,Water,2
 Node,160,NODE 245,Water,2
 Node,161,NODE 251,Water,1
 Node,162,NODE 247,Water,1
 Node,163,NODE 252,Water,1
 Node,164,NODE 253,Water,1
 Node,165,NODE 254,Water,1
 Node,166,NODE 255,Water,1
 Node,167,NODE 256,Water,1
 Node,168,NODE 257,Water,1
 Node,169,NODE 246,Water,4
 Node,170,NODE 248,Water,2
 Node,171,CHILLED WATER LOOP 1 DEMAND INLET PIPE NODE,Water,1
 Node,172,NODE 250,Water,1
 Node,173,NODE 284,Water,1
 Node,174,CHILLED WATER LOOP 1 DEMAND BYPASS PIPE INLET NODE,Water,1
 Node,175,CHILLED WATER LOOP 1 DEMAND BYPASS PIPE OUTLET NODE,Water,1
 Node,176,CHILLED WATER LOOP 1 DEMAND OUTLET PIPE NODE,Water,1
 Node,177,NODE 249,Water,2
 Node,178,NODE 288,Water,2
 Node,179,NODE 294,Water,1
 Node,180,NODE 290,Water,1
 Node,181,NODE 295,Water,1
 Node,182,NODE 296,Water,1
 Node,183,NODE 297,Water,1
 Node,184,NODE 298,Water,1
 Node,185,NODE 299,Water,1
 Node,186,NODE 300,Water,1
 Node,187,NODE 289,Water,4
 Node,188,NODE 291,Water,2
 Node,189,CHILLED WATER LOOP 2 DEMAND INLET PIPE NODE,Water,1
 Node,190,NODE 293,Water,2
 Node,191,NODE 322,Water,1
 Node,192,NODE 342,Water,2
 Node,193,NODE 343,Water,1
 Node,194,NODE 370,Water,2
 Node,195,NODE 371,Water,1
 Node,196,CHILLED WATER LOOP 2 DEMAND BYPASS PIPE INLET NODE,Water,1
 Node,197,CHILLED WATER LOOP 2 DEMAND BYPASS PIPE OUTLET NODE,Water,1
 Node,198,CHILLED WATER LOOP 2 DEMAND OUTLET PIPE NODE,Water,1
 Node,199,NODE 292,Water,2
 Node,200,NODE 215,Water,2
 Node,201,NODE 221,Water,1
 Node,202,NODE 217,Water,1
 Node,203,NODE 222,Water,1
 Node,204,NODE 223,Water,1
 Node,205,NODE 224,Water,1
 Node,206,NODE 225,Water,1
 Node,207,NODE 216,Water,4
 Node,208,NODE 218,Water,2
 Node,209,CONDENSER WATER LOOP DEMAND INLET PIPE NODE,Water,1
 Node,210,NODE 220,Water,1
 Node,211,NODE 226,Water,1
 Node,212,NODE 227,Water,1
 Node,213,NODE 228,Water,1
 Node,214,CONDENSER WATER LOOP DEMAND BYPASS PIPE INLET NODE,Water,1
 Node,215,CONDENSER WATER LOOP DEMAND BYPASS PIPE OUTLET NODE,Water,1
 Node,216,CONDENSER WATER LOOP DEMAND OUTLET PIPE NODE,Water,1
 Node,217,NODE 219,Water,2
 Node,218,NODE 258,Water,2
 Node,219,NODE 264,Water,1
 Node,220,NODE 260,Water,1
 Node,221,NODE 265,Water,1
 Node,222,NODE 266,Water,1
 Node,223,NODE 267,Water,1
 Node,224,NODE 268,Water,1
 Node,225,NODE 259,Water,4
 Node,226,NODE 261,Water,2
 Node,227,CONDENSER WATER LOOP 1 DEMAND INLET PIPE NODE,Water,1
 Node,228,NODE 263,Water,1
 Node,229,NODE 269,Water,1
 Node,230,NODE 270,Water,1
 Node,231,NODE 271,Water,1
 Node,232,CONDENSER WATER LOOP 1 DEMAND BYPASS PIPE INLET NODE,Water,1
 Node,233,CONDENSER WATER LOOP 1 DEMAND BYPASS PIPE OUTLET NODE,Water,1
 Node,234,CONDENSER WATER LOOP 1 DEMAND OUTLET PIPE NODE,Water,1
 Node,235,NODE 262,Water,2
 Node,236,NODE 301,Water,2
 Node,237,NODE 307,Water,1
 Node,238,NODE 303,Water,1
 Node,239,NODE 308,Water,1
 Node,240,NODE 309,Water,1
 Node,241,NODE 310,Water,1
 Node,242,NODE 311,Water,1
 Node,243,NODE 302,Water,4
 Node,244,NODE 304,Water,2
 Node,245,CONDENSER WATER LOOP 2 DEMAND INLET PIPE NODE,Water,1
 Node,246,NODE 306,Water,1
 Node,247,NODE 312,Water,1
 Node,248,NODE 313,Water,1
 Node,249,NODE 314,Water,1
 Node,250,CONDENSER WATER LOOP 2 DEMAND BYPASS PIPE INLET NODE,Water,1
 Node,251,CONDENSER WATER LOOP 2 DEMAND BYPASS PIPE OUTLET NODE,Water,1
 Node,252,CONDENSER WATER LOOP 2 DEMAND OUTLET PIPE NODE,Water,1
 Node,253,NODE 305,Water,2
 Node,254,NODE 2,Water,2
 Node,255,NODE 11,Water,1
 Node,256,NODE 5,Water,1
 Node,257,NODE 12,Water,1
 Node,258,NODE 14,Water,1
 Node,259,NODE 15,Water,1
 Node,260,NODE 17,Water,1
 Node,261,NODE 18,Water,1
 Node,262,NODE 20,Water,1
 Node,263,NODE 3,Water,4
 Node,264,NODE 6,Water,2
 Node,265,HOT WATER LOOP DEMAND INLET PIPE NODE,Water,1
 Node,266,NODE 9,Water,1
 Node,267,NODE 38,Water,1
 Node,268,NODE 56,Water,1
 Node,269,NODE 57,Water,1
 Node,270,NODE 70,Water,1
 Node,271,NODE 71,Water,1
 Node,272,NODE 83,Water,1
 Node,273,NODE 84,Water,1
 Node,274,NODE 96,Water,1
 Node,275,NODE 97,Water,1
 Node,276,NODE 109,Water,1
 Node,277,NODE 110,Water,1
 Node,278,NODE 122,Water,1
 Node,279,NODE 123,Water,1
 Node,280,NODE 135,Water,1
 Node,281,NODE 136,Water,1
 Node,282,NODE 148,Water,1
 Node,283,NODE 149,Water,1
 Node,284,NODE 161,Water,1
 Node,285,NODE 162,Water,1
 Node,286,NODE 174,Water,1
 Node,287,NODE 175,Water,1
 Node,288,NODE 187,Water,1
 Node,289,NODE 188,Water,1
 Node,290,NODE 200,Water,1
 Node,291,NODE 201,Water,1
 Node,292,NODE 239,Water,1
 Node,293,NODE 240,Water,1
 Node,294,NODE 282,Water,1
 Node,295,NODE 283,Water,1
 Node,296,NODE 320,Water,2
 Node,297,NODE 321,Water,1
 Node,298,NODE 329,Water,1
 Node,299,NODE 330,Water,1
 Node,300,NODE 333,Water,1
 Node,301,NODE 334,Water,1
 Node,302,NODE 340,Water,2
 Node,303,NODE 341,Water,1
 Node,304,NODE 350,Water,1
 Node,305,NODE 351,Water,1
 Node,306,NODE 354,Water,1
 Node,307,NODE 355,Water,1
 Node,308,NODE 356,Water,1
 Node,309,NODE 357,Water,1
 Node,310,NODE 361,Water,1
 Node,311,NODE 362,Water,1
 Node,312,NODE 368,Water,2
 Node,313,NODE 369,Water,1
 Node,314,NODE 378,Water,1
 Node,315,NODE 379,Water,1
 Node,316,NODE 382,Water,1
 Node,317,NODE 383,Water,1
 Node,318,NODE 395,Water,1
 Node,319,NODE 396,Water,1
 Node,320,HOT WATER LOOP DEMAND BYPASS PIPE INLET NODE,Water,1
 Node,321,HOT WATER LOOP DEMAND BYPASS PIPE OUTLET NODE,Water,1
 Node,322,HOT WATER LOOP DEMAND OUTLET PIPE NODE,Water,1
 Node,323,NODE 8,Water,2
 Node,324,NODE 397,Water,2
 Node,325,NODE 403,Water,1
 Node,326,NODE 399,Water,1
 Node,327,NODE 404,Water,1
 Node,328,NODE 405,Water,1
 Node,329,NODE 406,Water,1
 Node,330,NODE 408,Water,1
 Node,331,NODE 398,Water,4
 Node,332,NODE 400,Water,2
 Node,333,NODE 409,Water,1
 Node,334,NODE 402,Water,1
 Node,335,NODE 407,Water,1
 Node,336,NODE 411,Water,1
 Node,337,NODE 412,Water,1
 Node,338,NODE 413,Water,1
 Node,339,NODE 414,Water,1
 Node,340,NODE 415,Water,1
 Node,341,NODE 416,Water,1
 Node,342,NODE 417,Water,1
 Node,343,NODE 418,Water,1
 Node,344,NODE 419,Water,1
 Node,345,NODE 420,Water,1
 Node,346,NODE 421,Water,1
 Node,347,NODE 422,Water,1
 Node,348,NODE 423,Water,1
 Node,349,NODE 424,Water,1
 Node,350,NODE 425,Water,1
 Node,351,NODE 426,Water,1
 Node,352,NODE 427,Water,1
 Node,353,NODE 428,Water,1
 Node,354,NODE 429,Water,1
 Node,355,NODE 430,Water,1
 Node,356,NODE 431,Water,1
 Node,357,NODE 432,Water,1
 Node,358,NODE 433,Water,1
 Node,359,NODE 434,Water,1
 Node,360,NODE 435,Water,1
 Node,361,NODE 436,Water,1
 Node,362,NODE 437,Water,1
 Node,363,NODE 438,Water,1
 Node,364,NODE 439,Water,1
 Node,365,NODE 440,Water,1
 Node,366,NODE 441,Water,1
 Node,367,NODE 442,Water,1
 Node,368,MAIN SERVICE WATER LOOP DEMAND BYPASS PIPE INLET NODE,Water,1
 Node,369,MAIN SERVICE WATER LOOP DEMAND BYPASS PIPE OUTLET NODE,Water,1
 Node,370,NODE 410,Water,1
 Node,371,NODE 401,Water,2
 Node,372,NODE 1,Air,1
 Node,373,NODE 36,Air,1
 Node,374,NODE 4,Air,1
 Node,375,NODE 54,Air,1
 Node,376,NODE 7,Air,1
 Node,377,NODE 69,Air,1
 Node,378,NODE 10,Air,1
 Node,379,NODE 82,Air,1
 Node,380,NODE 13,Air,1
 Node,381,NODE 95,Air,1
 Node,382,NODE 16,Air,1
 Node,383,NODE 108,Air,1
 Node,384,NODE 19,Air,1
 Node,385,NODE 121,Air,1
 Node,386,NODE 22,Air,1
 Node,387,NODE 134,Air,1
 Node,388,NODE 25,Air,1
 Node,389,NODE 147,Air,1
 Node,390,NODE 28,Air,1
 Node,391,NODE 244,Air,1
 Node,392,NODE 31,Air,1
 Node,393,NODE 287,Air,1
 Node,394,NODE 37,Air,0
 Node,395,NODE 352,Air,1
 Node,396,NODE 34,Air,0
 Node,397,NODE 331,Air,1
 Node,398,NODE 40,Air,0
 Node,399,NODE 359,Air,1
 Node,400,NODE 43,Air,1
 Node,401,NODE 394,Air,1
 Node,402,NODE 46,Air,1
 Node,403,NODE 160,Air,1
 Node,404,NODE 49,Air,1
 Node,405,NODE 173,Air,1
 Node,406,NODE 52,Air,1
 Node,407,NODE 186,Air,1
 Node,408,NODE 55,Air,0
 Node,409,NODE 380,Air,1
 Node,410,NODE 58,Air,1
 Node,411,NODE 199,Air,1
 Node,412,NODE 232,Air,2
 Node,413,NODE 275,Air,2
 Node,414,NODE 26,Air,2
 Node,415,NODE 44,Air,2
 Node,416,NODE 62,Air,2
 Node,417,NODE 75,Air,2
 Node,418,NODE 88,Air,2
 Node,419,NODE 101,Air,2
 Node,420,NODE 114,Air,2
 Node,421,NODE 127,Air,2
 Node,422,NODE 140,Air,2
 Node,423,NODE 153,Air,2
 Node,424,NODE 166,Air,2
 Node,425,NODE 179,Air,2
 Node,426,NODE 192,Air,2
 Node,427,NODE 387,Air,2
 Node,428,NODE 318,Air,2
 Node,429,NODE 338,Air,2
 Node,430,NODE 366,Air,2
 Node,431,ZONE HVAC FOUR PIPE FAN COIL 1 OA NODE,Air,1
 Node,432,ZONE HVAC FOUR PIPE FAN COIL 2 OA NODE,Air,1
 Node,433,NODE 234,Air,2
 Node,434,NODE 277,Air,2
 Node,435,NODE 29,Air,2
 Node,436,NODE 47,Air,2
 Node,437,NODE 64,Air,2
 Node,438,NODE 77,Air,2
 Node,439,NODE 90,Air,2
 Node,440,NODE 103,Air,2
 Node,441,NODE 116,Air,2
 Node,442,NODE 129,Air,2
 Node,443,NODE 142,Air,2
 Node,444,NODE 155,Air,2
 Node,445,NODE 168,Air,2
 Node,446,NODE 181,Air,2
 Node,447,NODE 194,Air,2
 Node,448,NODE 389,Air,2
 Node,449,NODE 323,Air,2
 Node,450,NODE 344,Air,2
 Node,451,NODE 372,Air,2
 Node,452,MODEL OUTDOOR AIR NODE,Air,0
 Node,453,NODE 332,Air,1
 Node,454,NODE 353,Air,1
 Node,455,NODE 360,Air,1
 Node,456,NODE 381,Air,1
 Node,457,ZONE HVAC FOUR PIPE FAN COIL 1 MIXED AIR NODE,Air,1
 Node,458,ZONE HVAC FOUR PIPE FAN COIL 1 RELIEF AIR NODE,Air,0
 Node,459,ZONE HVAC FOUR PIPE FAN COIL 2 MIXED AIR NODE,Air,1
 Node,460,ZONE HVAC FOUR PIPE FAN COIL 2 RELIEF AIR NODE,Air,0
 Node,461,NODE 235,Air,1
 Node,462,NODE 278,Air,1
 Node,463,NODE 30,Air,1
 Node,464,NODE 48,Air,1
 Node,465,NODE 65,Air,1
 Node,466,NODE 78,Air,1
 Node,467,NODE 91,Air,1
 Node,468,NODE 104,Air,1
 Node,469,NODE 117,Air,1
 Node,470,NODE 130,Air,1
 Node,471,NODE 143,Air,1
 Node,472,NODE 156,Air,1
 Node,473,NODE 169,Air,1
 Node,474,NODE 182,Air,1
 Node,475,NODE 195,Air,1
 Node,476,NODE 390,Air,1
 Node,477,NODE 324,Air,1
 Node,478,NODE 345,Air,1
 Node,479,NODE 373,Air,1
 Node,480,ZONE HVAC FOUR PIPE FAN COIL 1 COOLING COIL OUTLET NODE,Air,1
 Node,481,ZONE HVAC FOUR PIPE FAN COIL 2 COOLING COIL OUTLET NODE,Air,1
 Node,482,AIR TERMINAL SINGLE DUCT VAV REHEAT 2 DAMPER OUTLET,Air,1
 Node,483,AIR TERMINAL SINGLE DUCT VAV REHEAT 1 DAMPER OUTLET,Air,1
 Node,484,AIR TERMINAL SINGLE DUCT VAV REHEAT 3 DAMPER OUTLET,Air,1
 Node,485,AIR TERMINAL SINGLE DUCT VAV REHEAT 4 DAMPER OUTLET,Air,1
 Node,486,ZONE HVAC FOUR PIPE FAN COIL 1 FAN OUTLET NODE,Air,1
 Node,487,ZONE HVAC FOUR PIPE FAN COIL 2 FAN OUTLET NODE,Air,1
! ===============================================================
! Suspicious nodes have 0 references.  It is normal for some nodes, however.
! Listing nodes with 0 references (culled from previous list):
! <Suspicious Node>,<NodeNumber>,<Node Name>,<Node Fluid Type>,<# Times Node Referenced After Definition>
 Suspicious Node,394,NODE 37,Air,0
 Suspicious Node,396,NODE 34,Air,0
 Suspicious Node,398,NODE 40,Air,0
 Suspicious Node,408,NODE 55,Air,0
 Suspicious Node,452,MODEL OUTDOOR AIR NODE,Air,0
 Suspicious Node,458,ZONE HVAC FOUR PIPE FAN COIL 1 RELIEF AIR NODE,Air,0
 Suspicious Node,460,ZONE HVAC FOUR PIPE FAN COIL 2 RELIEF AIR NODE,Air,0
! ===============================================================
! <#Branch Lists>,<Number of Branch Lists>
 #Branch Lists,35
! <Branch List>,<Branch List Count>,<Branch List Name>,<Loop Name>,<Loop Type>,<Number of Branches>
! <Branch>,<Branch Count>,<Branch Name>,<Loop Name>,<Loop Type>,<Branch Inlet Node Name>,<Branch Outlet Node Name>
 Branch List,1,SYS_2_MAKE-UP AIR UNIT SUPPLY BRANCHES,SYS_2_MAKE-UP AIR UNIT,Air,1
   Branch,1,SYS_2_MAKE-UP AIR UNIT MAIN BRANCH,SYS_2_MAKE-UP AIR UNIT,Air,NODE 229,NODE 230
 Branch List,2,SYS_2_MAKE-UP AIR UNIT 1 SUPPLY BRANCHES,SYS_2_MAKE-UP AIR UNIT 1,Air,1
   Branch,1,SYS_2_MAKE-UP AIR UNIT 1 MAIN BRANCH,SYS_2_MAKE-UP AIR UNIT 1,Air,NODE 272,NODE 273
 Branch List,3,SYS_3_PSZ ALL_ST=LOBBY - MOTION PICTURE_FL=STORY 4_SCH=C SUPPLY BRANCHES,SYS_3_PSZ ALL_ST=LOBBY - MOTION PICTURE_FL=STORY 4_SCH=C,Air,1
   Branch,1,SYS_3_PSZ ALL_ST=LOBBY - MOTION PICTURE_FL=STORY 4_SCH=C MAIN BRANCH,SYS_3_PSZ ALL_ST=LOBBY - MOTION PICTURE_FL=STORY 4_SCH=C,Air,NODE 21,NODE 23
 Branch List,4,SYS_3_PSZ ALL_ST=LOBBY - OTHER_FL=STORY 4_SCH=C SUPPLY BRANCHES,SYS_3_PSZ ALL_ST=LOBBY - OTHER_FL=STORY 4_SCH=C,Air,1
   Branch,1,SYS_3_PSZ ALL_ST=LOBBY - OTHER_FL=STORY 4_SCH=C MAIN BRANCH,SYS_3_PSZ ALL_ST=LOBBY - OTHER_FL=STORY 4_SCH=C,Air,NODE 39,NODE 41
 Branch List,5,SYS_3_PSZ ALL_ST=LOBBY - PERFORMANCE ARTS_FL=STORY 4_SCH=C SUPPLY BRANCHES,SYS_3_PSZ ALL_ST=LOBBY - PERFORMANCE ARTS_FL=STORY 4_SCH=C,Air,1
   Branch,1,SYS_3_PSZ ALL_ST=LOBBY - PERFORMANCE ARTS_FL=STORY 4_SCH=C MAIN BRANCH,SYS_3_PSZ ALL_ST=LOBBY - PERFORMANCE ARTS_FL=STORY 4_SCH=C,Air,NODE 59,NODE 60
 Branch List,6,SYS_3_PSZ ALL_ST=LOUNGE/RECREATION_FL=STORY 4_SCH=B SUPPLY BRANCHES,SYS_3_PSZ ALL_ST=LOUNGE/RECREATION_FL=STORY 4_SCH=B,Air,1
   Branch,1,SYS_3_PSZ ALL_ST=LOUNGE/RECREATION_FL=STORY 4_SCH=B MAIN BRANCH,SYS_3_PSZ ALL_ST=LOUNGE/RECREATION_FL=STORY 4_SCH=B,Air,NODE 72,NODE 73
 Branch List,7,SYS_3_PSZ ALL_ST=MFG - 7.5 <= BAY H <= 15M_FL=STORY 4_SCH=A SUPPLY BRANCHES,SYS_3_PSZ ALL_ST=MFG - 7.5 <= BAY H <= 15M_FL=STORY 4_SCH=A,Air,1
   Branch,1,SYS_3_PSZ ALL_ST=MFG - 7.5 <= BAY H <= 15M_FL=STORY 4_SCH=A MAIN BRANCH,SYS_3_PSZ ALL_ST=MFG - 7.5 <= BAY H <= 15M_FL=STORY 4_SCH=A,Air,NODE 85,NODE 86
 Branch List,8,SYS_3_PSZ ALL_ST=MFG - BAY H < 7.5M_FL=STORY 3_SCH=A SUPPLY BRANCHES,SYS_3_PSZ ALL_ST=MFG - BAY H < 7.5M_FL=STORY 3_SCH=A,Air,1
   Branch,1,SYS_3_PSZ ALL_ST=MFG - BAY H < 7.5M_FL=STORY 3_SCH=A MAIN BRANCH,SYS_3_PSZ ALL_ST=MFG - BAY H < 7.5M_FL=STORY 3_SCH=A,Air,NODE 98,NODE 99
 Branch List,9,SYS_3_PSZ ALL_ST=MFG - BAY H > 15M_FL=STORY 1_SCH=A SUPPLY BRANCHES,SYS_3_PSZ ALL_ST=MFG - BAY H > 15M_FL=STORY 1_SCH=A,Air,1
   Branch,1,SYS_3_PSZ ALL_ST=MFG - BAY H > 15M_FL=STORY 1_SCH=A MAIN BRANCH,SYS_3_PSZ ALL_ST=MFG - BAY H > 15M_FL=STORY 1_SCH=A,Air,NODE 111,NODE 112
 Branch List,10,SYS_3_PSZ ALL_ST=MFG - DETAILED_FL=STORY 1_SCH=A SUPPLY BRANCHES,SYS_3_PSZ ALL_ST=MFG - DETAILED_FL=STORY 1_SCH=A,Air,1
   Branch,1,SYS_3_PSZ ALL_ST=MFG - DETAILED_FL=STORY 1_SCH=A MAIN BRANCH,SYS_3_PSZ ALL_ST=MFG - DETAILED_FL=STORY 1_SCH=A,Air,NODE 124,NODE 125
 Branch List,11,SYS_3_PSZ ALL_ST=MFG - EQUIPMENT_FL=STORY 1_SCH=A SUPPLY BRANCHES,SYS_3_PSZ ALL_ST=MFG - EQUIPMENT_FL=STORY 1_SCH=A,Air,1
   Branch,1,SYS_3_PSZ ALL_ST=MFG - EQUIPMENT_FL=STORY 1_SCH=A MAIN BRANCH,SYS_3_PSZ ALL_ST=MFG - EQUIPMENT_FL=STORY 1_SCH=A,Air,NODE 137,NODE 138
 Branch List,12,SYS_3_PSZ ALL_ST=PENITENTIARY - AUDIENCE_FL=STORY 3_SCH=C SUPPLY BRANCHES,SYS_3_PSZ ALL_ST=PENITENTIARY - AUDIENCE_FL=STORY 3_SCH=C,Air,1
   Branch,1,SYS_3_PSZ ALL_ST=PENITENTIARY - AUDIENCE_FL=STORY 3_SCH=C MAIN BRANCH,SYS_3_PSZ ALL_ST=PENITENTIARY - AUDIENCE_FL=STORY 3_SCH=C,Air,NODE 150,NODE 151
 Branch List,13,SYS_3_PSZ ALL_ST=PENITENTIARY - CLASSROOM_FL=STORY 2_SCH=D SUPPLY BRANCHES,SYS_3_PSZ ALL_ST=PENITENTIARY - CLASSROOM_FL=STORY 2_SCH=D,Air,1
   Branch,1,SYS_3_PSZ ALL_ST=PENITENTIARY - CLASSROOM_FL=STORY 2_SCH=D MAIN BRANCH,SYS_3_PSZ ALL_ST=PENITENTIARY - CLASSROOM_FL=STORY 2_SCH=D,Air,NODE 163,NODE 164
 Branch List,14,SYS_3_PSZ ALL_ST=PENITENTIARY - DINING_FL=STORY 2_SCH=B SUPPLY BRANCHES,SYS_3_PSZ ALL_ST=PENITENTIARY - DINING_FL=STORY 2_SCH=B,Air,1
   Branch,1,SYS_3_PSZ ALL_ST=PENITENTIARY - DINING_FL=STORY 2_SCH=B MAIN BRANCH,SYS_3_PSZ ALL_ST=PENITENTIARY - DINING_FL=STORY 2_SCH=B,Air,NODE 176,NODE 177
 Branch List,15,SYS_3_PSZ ALL_ST=RELIGIOUS - AUDIENCE_FL=STORY 2_SCH=I SUPPLY BRANCHES,SYS_3_PSZ ALL_ST=RELIGIOUS - AUDIENCE_FL=STORY 2_SCH=I,Air,1
   Branch,1,SYS_3_PSZ ALL_ST=RELIGIOUS - AUDIENCE_FL=STORY 2_SCH=I MAIN BRANCH,SYS_3_PSZ ALL_ST=RELIGIOUS - AUDIENCE_FL=STORY 2_SCH=I,Air,NODE 189,NODE 190
 Branch List,16,SYS_4_PSZ_ALL_ST=PARKING GARAGE SPACE_FL=STORY 3_SCH=H SUPPLY BRANCHES,SYS_4_PSZ_ALL_ST=PARKING GARAGE SPACE_FL=STORY 3_SCH=H,Air,1
   Branch,1,SYS_4_PSZ_ALL_ST=PARKING GARAGE SPACE_FL=STORY 3_SCH=H MAIN BRANCH,SYS_4_PSZ_ALL_ST=PARKING GARAGE SPACE_FL=STORY 3_SCH=H,Air,NODE 384,NODE 385
 Branch List,17,SYS_6_VAV WITH REHEAT SUPPLY BRANCHES,SYS_6_VAV WITH REHEAT,Air,1
   Branch,1,SYS_6_VAV WITH REHEAT MAIN BRANCH,SYS_6_VAV WITH REHEAT,Air,NODE 315,NODE 316
 Branch List,18,SYS_6_VAV WITH REHEAT 1 SUPPLY BRANCHES,SYS_6_VAV WITH REHEAT 1,Air,1
   Branch,1,SYS_6_VAV WITH REHEAT 1 MAIN BRANCH,SYS_6_VAV WITH REHEAT 1,Air,NODE 335,NODE 336
 Branch List,19,SYS_6_VAV WITH REHEAT 2 SUPPLY BRANCHES,SYS_6_VAV WITH REHEAT 2,Air,1
   Branch,1,SYS_6_VAV WITH REHEAT 2 MAIN BRANCH,SYS_6_VAV WITH REHEAT 2,Air,NODE 363,NODE 364
 Branch List,20,CHILLED WATER LOOP SUPPLY BRANCHES,CHILLED WATER LOOP,Plant Supply,5
   Branch,1,CHILLED WATER LOOP SUPPLY INLET BRANCH,CHILLED WATER LOOP,Plant Supply,NODE 202,NODE 208
   Branch,2,CHILLED WATER LOOP SUPPLY BRANCH 1,CHILLED WATER LOOP,Plant Supply,NODE 204,NODE 209
   Branch,3,CHILLED WATER LOOP SUPPLY BRANCH 2,CHILLED WATER LOOP,Plant Supply,NODE 210,NODE 211
   Branch,4,CHILLED WATER LOOP SUPPLY BRANCH 3,CHILLED WATER LOOP,Plant Supply,NODE 212,NODE 213
   Branch,5,CHILLED WATER LOOP SUPPLY OUTLET BRANCH,CHILLED WATER LOOP,Plant Supply,NODE 214,NODE 203
 Branch List,21,CHILLED WATER LOOP DEMAND BRANCHES,CHILLED WATER LOOP,Plant Demand,4
   Branch,1,CHILLED WATER LOOP DEMAND INLET BRANCH,CHILLED WATER LOOP,Plant Demand,NODE 205,CHILLED WATER LOOP DEMAND INLET PIPE NODE
   Branch,2,CHILLED WATER LOOP DEMAND BRANCH 1,CHILLED WATER LOOP,Plant Demand,NODE 207,NODE 241
   Branch,3,CHILLED WATER LOOP DEMAND BYPASS BRANCH,CHILLED WATER LOOP,Plant Demand,CHILLED WATER LOOP DEMAND BYPASS PIPE INLET NODE,CHILLED WATER LOOP DEMAND BYPASS PIPE OUTLET NODE
   Branch,4,CHILLED WATER LOOP DEMAND OUTLET BRANCH,CHILLED WATER LOOP,Plant Demand,CHILLED WATER LOOP DEMAND OUTLET PIPE NODE,NODE 206
 Branch List,22,CHILLED WATER LOOP 1 SUPPLY BRANCHES,CHILLED WATER LOOP 1,Plant Supply,5
   Branch,1,CHILLED WATER LOOP 1 SUPPLY INLET BRANCH,CHILLED WATER LOOP 1,Plant Supply,NODE 245,NODE 251
   Branch,2,CHILLED WATER LOOP 1 SUPPLY BRANCH 1,CHILLED WATER LOOP 1,Plant Supply,NODE 247,NODE 252
   Branch,3,CHILLED WATER LOOP 1 SUPPLY BRANCH 2,CHILLED WATER LOOP 1,Plant Supply,NODE 253,NODE 254
   Branch,4,CHILLED WATER LOOP 1 SUPPLY BRANCH 3,CHILLED WATER LOOP 1,Plant Supply,NODE 255,NODE 256
   Branch,5,CHILLED WATER LOOP 1 SUPPLY OUTLET BRANCH,CHILLED WATER LOOP 1,Plant Supply,NODE 257,NODE 246
 Branch List,23,CHILLED WATER LOOP 1 DEMAND BRANCHES,CHILLED WATER LOOP 1,Plant Demand,4
   Branch,1,CHILLED WATER LOOP 1 DEMAND INLET BRANCH,CHILLED WATER LOOP 1,Plant Demand,NODE 248,CHILLED WATER LOOP 1 DEMAND INLET PIPE NODE
   Branch,2,CHILLED WATER LOOP 1 DEMAND BRANCH 1,CHILLED WATER LOOP 1,Plant Demand,NODE 250,NODE 284
   Branch,3,CHILLED WATER LOOP 1 DEMAND BYPASS BRANCH,CHILLED WATER LOOP 1,Plant Demand,CHILLED WATER LOOP 1 DEMAND BYPASS PIPE INLET NODE,CHILLED WATER LOOP 1 DEMAND BYPASS PIPE OUTLET NODE
   Branch,4,CHILLED WATER LOOP 1 DEMAND OUTLET BRANCH,CHILLED WATER LOOP 1,Plant Demand,CHILLED WATER LOOP 1 DEMAND OUTLET PIPE NODE,NODE 249
 Branch List,24,CHILLED WATER LOOP 2 SUPPLY BRANCHES,CHILLED WATER LOOP 2,Plant Supply,5
   Branch,1,CHILLED WATER LOOP 2 SUPPLY INLET BRANCH,CHILLED WATER LOOP 2,Plant Supply,NODE 288,NODE 294
   Branch,2,CHILLED WATER LOOP 2 SUPPLY BRANCH 1,CHILLED WATER LOOP 2,Plant Supply,NODE 290,NODE 295
   Branch,3,CHILLED WATER LOOP 2 SUPPLY BRANCH 2,CHILLED WATER LOOP 2,Plant Supply,NODE 296,NODE 297
   Branch,4,CHILLED WATER LOOP 2 SUPPLY BRANCH 3,CHILLED WATER LOOP 2,Plant Supply,NODE 298,NODE 299
   Branch,5,CHILLED WATER LOOP 2 SUPPLY OUTLET BRANCH,CHILLED WATER LOOP 2,Plant Supply,NODE 300,NODE 289
 Branch List,25,CHILLED WATER LOOP 2 DEMAND BRANCHES,CHILLED WATER LOOP 2,Plant Demand,6
   Branch,1,CHILLED WATER LOOP 2 DEMAND INLET BRANCH,CHILLED WATER LOOP 2,Plant Demand,NODE 291,CHILLED WATER LOOP 2 DEMAND INLET PIPE NODE
   Branch,2,CHILLED WATER LOOP 2 DEMAND BRANCH 1,CHILLED WATER LOOP 2,Plant Demand,NODE 293,NODE 322
   Branch,3,CHILLED WATER LOOP 2 DEMAND BRANCH 2,CHILLED WATER LOOP 2,Plant Demand,NODE 342,NODE 343
   Branch,4,CHILLED WATER LOOP 2 DEMAND BRANCH 3,CHILLED WATER LOOP 2,Plant Demand,NODE 370,NODE 371
   Branch,5,CHILLED WATER LOOP 2 DEMAND BYPASS BRANCH,CHILLED WATER LOOP 2,Plant Demand,CHILLED WATER LOOP 2 DEMAND BYPASS PIPE INLET NODE,CHILLED WATER LOOP 2 DEMAND BYPASS PIPE OUTLET NODE
   Branch,6,CHILLED WATER LOOP 2 DEMAND OUTLET BRANCH,CHILLED WATER LOOP 2,Plant Demand,CHILLED WATER LOOP 2 DEMAND OUTLET PIPE NODE,NODE 292
 Branch List,26,CONDENSER WATER LOOP SUPPLY BRANCHES,CONDENSER WATER LOOP,Plant Supply,4
   Branch,1,CONDENSER WATER LOOP SUPPLY INLET BRANCH,CONDENSER WATER LOOP,Plant Supply,NODE 215,NODE 221
   Branch,2,CONDENSER WATER LOOP SUPPLY BRANCH 1,CONDENSER WATER LOOP,Plant Supply,NODE 217,NODE 222
   Branch,3,CONDENSER WATER LOOP SUPPLY BRANCH 2,CONDENSER WATER LOOP,Plant Supply,NODE 223,NODE 224
   Branch,4,CONDENSER WATER LOOP SUPPLY OUTLET BRANCH,CONDENSER WATER LOOP,Plant Supply,NODE 225,NODE 216
 Branch List,27,CONDENSER WATER LOOP DEMAND BRANCHES,CONDENSER WATER LOOP,Plant Demand,5
   Branch,1,CONDENSER WATER LOOP DEMAND INLET BRANCH,CONDENSER WATER LOOP,Plant Demand,NODE 218,CONDENSER WATER LOOP DEMAND INLET PIPE NODE
   Branch,2,CONDENSER WATER LOOP DEMAND BRANCH 1,CONDENSER WATER LOOP,Plant Demand,NODE 220,NODE 226
   Branch,3,CONDENSER WATER LOOP DEMAND BRANCH 2,CONDENSER WATER LOOP,Plant Demand,NODE 227,NODE 228
   Branch,4,CONDENSER WATER LOOP DEMAND BYPASS BRANCH,CONDENSER WATER LOOP,Plant Demand,CONDENSER WATER LOOP DEMAND BYPASS PIPE INLET NODE,CONDENSER WATER LOOP DEMAND BYPASS PIPE OUTLET NODE
   Branch,5,CONDENSER WATER LOOP DEMAND OUTLET BRANCH,CONDENSER WATER LOOP,Plant Demand,CONDENSER WATER LOOP DEMAND OUTLET PIPE NODE,NODE 219
 Branch List,28,CONDENSER WATER LOOP 1 SUPPLY BRANCHES,CONDENSER WATER LOOP 1,Plant Supply,4
   Branch,1,CONDENSER WATER LOOP 1 SUPPLY INLET BRANCH,CONDENSER WATER LOOP 1,Plant Supply,NODE 258,NODE 264
   Branch,2,CONDENSER WATER LOOP 1 SUPPLY BRANCH 1,CONDENSER WATER LOOP 1,Plant Supply,NODE 260,NODE 265
   Branch,3,CONDENSER WATER LOOP 1 SUPPLY BRANCH 2,CONDENSER WATER LOOP 1,Plant Supply,NODE 266,NODE 267
   Branch,4,CONDENSER WATER LOOP 1 SUPPLY OUTLET BRANCH,CONDENSER WATER LOOP 1,Plant Supply,NODE 268,NODE 259
 Branch List,29,CONDENSER WATER LOOP 1 DEMAND BRANCHES,CONDENSER WATER LOOP 1,Plant Demand,5
   Branch,1,CONDENSER WATER LOOP 1 DEMAND INLET BRANCH,CONDENSER WATER LOOP 1,Plant Demand,NODE 261,CONDENSER WATER LOOP 1 DEMAND INLET PIPE NODE
   Branch,2,CONDENSER WATER LOOP 1 DEMAND BRANCH 1,CONDENSER WATER LOOP 1,Plant Demand,NODE 263,NODE 269
   Branch,3,CONDENSER WATER LOOP 1 DEMAND BRANCH 2,CONDENSER WATER LOOP 1,Plant Demand,NODE 270,NODE 271
   Branch,4,CONDENSER WATER LOOP 1 DEMAND BYPASS BRANCH,CONDENSER WATER LOOP 1,Plant Demand,CONDENSER WATER LOOP 1 DEMAND BYPASS PIPE INLET NODE,CONDENSER WATER LOOP 1 DEMAND BYPASS PIPE OUTLET NODE
   Branch,5,CONDENSER WATER LOOP 1 DEMAND OUTLET BRANCH,CONDENSER WATER LOOP 1,Plant Demand,CONDENSER WATER LOOP 1 DEMAND OUTLET PIPE NODE,NODE 262
 Branch List,30,CONDENSER WATER LOOP 2 SUPPLY BRANCHES,CONDENSER WATER LOOP 2,Plant Supply,4
   Branch,1,CONDENSER WATER LOOP 2 SUPPLY INLET BRANCH,CONDENSER WATER LOOP 2,Plant Supply,NODE 301,NODE 307
   Branch,2,CONDENSER WATER LOOP 2 SUPPLY BRANCH 1,CONDENSER WATER LOOP 2,Plant Supply,NODE 303,NODE 308
   Branch,3,CONDENSER WATER LOOP 2 SUPPLY BRANCH 2,CONDENSER WATER LOOP 2,Plant Supply,NODE 309,NODE 310
   Branch,4,CONDENSER WATER LOOP 2 SUPPLY OUTLET BRANCH,CONDENSER WATER LOOP 2,Plant Supply,NODE 311,NODE 302
 Branch List,31,CONDENSER WATER LOOP 2 DEMAND BRANCHES,CONDENSER WATER LOOP 2,Plant Demand,5
   Branch,1,CONDENSER WATER LOOP 2 DEMAND INLET BRANCH,CONDENSER WATER LOOP 2,Plant Demand,NODE 304,CONDENSER WATER LOOP 2 DEMAND INLET PIPE NODE
   Branch,2,CONDENSER WATER LOOP 2 DEMAND BRANCH 1,CONDENSER WATER LOOP 2,Plant Demand,NODE 306,NODE 312
   Branch,3,CONDENSER WATER LOOP 2 DEMAND BRANCH 2,CONDENSER WATER LOOP 2,Plant Demand,NODE 313,NODE 314
   Branch,4,CONDENSER WATER LOOP 2 DEMAND BYPASS BRANCH,CONDENSER WATER LOOP 2,Plant Demand,CONDENSER WATER LOOP 2 DEMAND BYPASS PIPE INLET NODE,CONDENSER WATER LOOP 2 DEMAND BYPASS PIPE OUTLET NODE
   Branch,5,CONDENSER WATER LOOP 2 DEMAND OUTLET BRANCH,CONDENSER WATER LOOP 2,Plant Demand,CONDENSER WATER LOOP 2 DEMAND OUTLET PIPE NODE,NODE 305
 Branch List,32,HOT WATER LOOP SUPPLY BRANCHES,HOT WATER LOOP,Plant Supply,5
   Branch,1,HOT WATER LOOP SUPPLY INLET BRANCH,HOT WATER LOOP,Plant Supply,NODE 2,NODE 11
   Branch,2,HOT WATER LOOP SUPPLY BRANCH 1,HOT WATER LOOP,Plant Supply,NODE 5,NODE 12
   Branch,3,HOT WATER LOOP SUPPLY BRANCH 2,HOT WATER LOOP,Plant Supply,NODE 14,NODE 15
   Branch,4,HOT WATER LOOP SUPPLY BRANCH 3,HOT WATER LOOP,Plant Supply,NODE 17,NODE 18
   Branch,5,HOT WATER LOOP SUPPLY OUTLET BRANCH,HOT WATER LOOP,Plant Supply,NODE 20,NODE 3
 Branch List,33,HOT WATER LOOP DEMAND BRANCHES,HOT WATER LOOP,Plant Demand,30
   Branch,1,HOT WATER LOOP DEMAND INLET BRANCH,HOT WATER LOOP,Plant Demand,NODE 6,HOT WATER LOOP DEMAND INLET PIPE NODE
   Branch,2,HOT WATER LOOP DEMAND BRANCH 1,HOT WATER LOOP,Plant Demand,NODE 9,NODE 38
   Branch,3,HOT WATER LOOP DEMAND BRANCH 2,HOT WATER LOOP,Plant Demand,NODE 56,NODE 57
   Branch,4,HOT WATER LOOP DEMAND BRANCH 3,HOT WATER LOOP,Plant Demand,NODE 70,NODE 71
   Branch,5,HOT WATER LOOP DEMAND BRANCH 4,HOT WATER LOOP,Plant Demand,NODE 83,NODE 84
   Branch,6,HOT WATER LOOP DEMAND BRANCH 5,HOT WATER LOOP,Plant Demand,NODE 96,NODE 97
   Branch,7,HOT WATER LOOP DEMAND BRANCH 6,HOT WATER LOOP,Plant Demand,NODE 109,NODE 110
   Branch,8,HOT WATER LOOP DEMAND BRANCH 7,HOT WATER LOOP,Plant Demand,NODE 122,NODE 123
   Branch,9,HOT WATER LOOP DEMAND BRANCH 8,HOT WATER LOOP,Plant Demand,NODE 135,NODE 136
   Branch,10,HOT WATER LOOP DEMAND BRANCH 9,HOT WATER LOOP,Plant Demand,NODE 148,NODE 149
   Branch,11,HOT WATER LOOP DEMAND BRANCH 10,HOT WATER LOOP,Plant Demand,NODE 161,NODE 162
   Branch,12,HOT WATER LOOP DEMAND BRANCH 11,HOT WATER LOOP,Plant Demand,NODE 174,NODE 175
   Branch,13,HOT WATER LOOP DEMAND BRANCH 12,HOT WATER LOOP,Plant Demand,NODE 187,NODE 188
   Branch,14,HOT WATER LOOP DEMAND BRANCH 13,HOT WATER LOOP,Plant Demand,NODE 200,NODE 201
   Branch,15,HOT WATER LOOP DEMAND BRANCH 14,HOT WATER LOOP,Plant Demand,NODE 239,NODE 240
   Branch,16,HOT WATER LOOP DEMAND BRANCH 15,HOT WATER LOOP,Plant Demand,NODE 282,NODE 283
   Branch,17,HOT WATER LOOP DEMAND BRANCH 16,HOT WATER LOOP,Plant Demand,NODE 320,NODE 321
   Branch,18,HOT WATER LOOP DEMAND BRANCH 17,HOT WATER LOOP,Plant Demand,NODE 329,NODE 330
   Branch,19,HOT WATER LOOP DEMAND BRANCH 18,HOT WATER LOOP,Plant Demand,NODE 333,NODE 334
   Branch,20,HOT WATER LOOP DEMAND BRANCH 19,HOT WATER LOOP,Plant Demand,NODE 340,NODE 341
   Branch,21,HOT WATER LOOP DEMAND BRANCH 20,HOT WATER LOOP,Plant Demand,NODE 350,NODE 351
   Branch,22,HOT WATER LOOP DEMAND BRANCH 21,HOT WATER LOOP,Plant Demand,NODE 354,NODE 355
   Branch,23,HOT WATER LOOP DEMAND BRANCH 22,HOT WATER LOOP,Plant Demand,NODE 356,NODE 357
   Branch,24,HOT WATER LOOP DEMAND BRANCH 23,HOT WATER LOOP,Plant Demand,NODE 361,NODE 362
   Branch,25,HOT WATER LOOP DEMAND BRANCH 24,HOT WATER LOOP,Plant Demand,NODE 368,NODE 369
   Branch,26,HOT WATER LOOP DEMAND BRANCH 25,HOT WATER LOOP,Plant Demand,NODE 378,NODE 379
   Branch,27,HOT WATER LOOP DEMAND BRANCH 26,HOT WATER LOOP,Plant Demand,NODE 382,NODE 383
   Branch,28,HOT WATER LOOP DEMAND BRANCH 27,HOT WATER LOOP,Plant Demand,NODE 395,NODE 396
   Branch,29,HOT WATER LOOP DEMAND BYPASS BRANCH,HOT WATER LOOP,Plant Demand,HOT WATER LOOP DEMAND BYPASS PIPE INLET NODE,HOT WATER LOOP DEMAND BYPASS PIPE OUTLET NODE
   Branch,30,HOT WATER LOOP DEMAND OUTLET BRANCH,HOT WATER LOOP,Plant Demand,HOT WATER LOOP DEMAND OUTLET PIPE NODE,NODE 8
 Branch List,34,MAIN SERVICE WATER LOOP SUPPLY BRANCHES,MAIN SERVICE WATER LOOP,Plant Supply,4
   Branch,1,MAIN SERVICE WATER LOOP SUPPLY INLET BRANCH,MAIN SERVICE WATER LOOP,Plant Supply,NODE 397,NODE 403
   Branch,2,MAIN SERVICE WATER LOOP SUPPLY BRANCH 1,MAIN SERVICE WATER LOOP,Plant Supply,NODE 399,NODE 404
   Branch,3,MAIN SERVICE WATER LOOP SUPPLY BRANCH 2,MAIN SERVICE WATER LOOP,Plant Supply,NODE 405,NODE 406
   Branch,4,MAIN SERVICE WATER LOOP SUPPLY OUTLET BRANCH,MAIN SERVICE WATER LOOP,Plant Supply,NODE 408,NODE 398
 Branch List,35,MAIN SERVICE WATER LOOP DEMAND BRANCHES,MAIN SERVICE WATER LOOP,Plant Demand,20
   Branch,1,MAIN SERVICE WATER LOOP DEMAND INLET BRANCH,MAIN SERVICE WATER LOOP,Plant Demand,NODE 400,NODE 409
   Branch,2,MAIN SERVICE WATER LOOP DEMAND BRANCH 1,MAIN SERVICE WATER LOOP,Plant Demand,NODE 402,NODE 407
   Branch,3,MAIN SERVICE WATER LOOP DEMAND BRANCH 2,MAIN SERVICE WATER LOOP,Plant Demand,NODE 411,NODE 412
   Branch,4,MAIN SERVICE WATER LOOP DEMAND BRANCH 3,MAIN SERVICE WATER LOOP,Plant Demand,NODE 413,NODE 414
   Branch,5,MAIN SERVICE WATER LOOP DEMAND BRANCH 4,MAIN SERVICE WATER LOOP,Plant Demand,NODE 415,NODE 416
   Branch,6,MAIN SERVICE WATER LOOP DEMAND BRANCH 5,MAIN SERVICE WATER LOOP,Plant Demand,NODE 417,NODE 418
   Branch,7,MAIN SERVICE WATER LOOP DEMAND BRANCH 6,MAIN SERVICE WATER LOOP,Plant Demand,NODE 419,NODE 420
   Branch,8,MAIN SERVICE WATER LOOP DEMAND BRANCH 7,MAIN SERVICE WATER LOOP,Plant Demand,NODE 421,NODE 422
   Branch,9,MAIN SERVICE WATER LOOP DEMAND BRANCH 8,MAIN SERVICE WATER LOOP,Plant Demand,NODE 423,NODE 424
   Branch,10,MAIN SERVICE WATER LOOP DEMAND BRANCH 9,MAIN SERVICE WATER LOOP,Plant Demand,NODE 425,NODE 426
   Branch,11,MAIN SERVICE WATER LOOP DEMAND BRANCH 10,MAIN SERVICE WATER LOOP,Plant Demand,NODE 427,NODE 428
   Branch,12,MAIN SERVICE WATER LOOP DEMAND BRANCH 11,MAIN SERVICE WATER LOOP,Plant Demand,NODE 429,NODE 430
   Branch,13,MAIN SERVICE WATER LOOP DEMAND BRANCH 12,MAIN SERVICE WATER LOOP,Plant Demand,NODE 431,NODE 432
   Branch,14,MAIN SERVICE WATER LOOP DEMAND BRANCH 13,MAIN SERVICE WATER LOOP,Plant Demand,NODE 433,NODE 434
   Branch,15,MAIN SERVICE WATER LOOP DEMAND BRANCH 14,MAIN SERVICE WATER LOOP,Plant Demand,NODE 435,NODE 436
   Branch,16,MAIN SERVICE WATER LOOP DEMAND BRANCH 15,MAIN SERVICE WATER LOOP,Plant Demand,NODE 437,NODE 438
   Branch,17,MAIN SERVICE WATER LOOP DEMAND BRANCH 16,MAIN SERVICE WATER LOOP,Plant Demand,NODE 439,NODE 440
   Branch,18,MAIN SERVICE WATER LOOP DEMAND BRANCH 17,MAIN SERVICE WATER LOOP,Plant Demand,NODE 441,NODE 442
   Branch,19,MAIN SERVICE WATER LOOP DEMAND BYPASS BRANCH,MAIN SERVICE WATER LOOP,Plant Demand,MAIN SERVICE WATER LOOP DEMAND BYPASS PIPE INLET NODE,MAIN SERVICE WATER LOOP DEMAND BYPASS PIPE OUTLET NODE
   Branch,20,MAIN SERVICE WATER LOOP DEMAND OUTLET BRANCH,MAIN SERVICE WATER LOOP,Plant Demand,NODE 410,NODE 401
! ===============================================================
! <#Supply Air Paths>,<Number of Supply Air Paths>
 #Supply Air Paths,19
! <Supply Air Path>,<Supply Air Path Count>,<Supply Air Path Name>,<AirLoopHVAC Name>
! <#Components on Supply Air Path>,<Number of Components>
! <Supply Air Path Component>,<Component Count>,<Component Type>,<Component Name>,<AirLoopHVAC Name>
! <#Outlet Nodes on Supply Air Path Component>,<Number of Nodes>
! <Supply Air Path Component Nodes>,<Node Count>,<Component Type>,<Component Name>,<Inlet Node Name>,<Outlet Node Name>,<AirLoopHVAC Name>
 Supply Air Path,1,SYS_2_MAKE-UP AIR UNIT NODE 231 SUPPLY PATH,SYS_2_MAKE-UP AIR UNIT
   #Components on Supply Air Path,1
   Supply Air Path Component,1,AIRLOOPHVAC:ZONESPLITTER,AIR LOOP HVAC ZONE SPLITTER 14,SYS_2_MAKE-UP AIR UNIT
     #Outlet Nodes on Supply Air Path Component,1
     Supply Air Path Component Nodes,1,AIRLOOPHVAC:ZONESPLITTER,AIR LOOP HVAC ZONE SPLITTER 14,NODE 231,NODE 233,SYS_2_MAKE-UP AIR UNIT
! <#Nodes on Supply Air Path>,<Number of Nodes>
! <Supply Air Path Node>,<Node Type>,<Node Count>,<Node Name>,<AirLoopHVAC Name>
#Nodes on Supply Air Path,2
   Supply Air Path Node,Inlet Node,1,NODE 231,SYS_2_MAKE-UP AIR UNIT
   Supply Air Path Node,Outlet Node,2,NODE 233,SYS_2_MAKE-UP AIR UNIT
 Supply Air Path,2,SYS_2_MAKE-UP AIR UNIT 1 NODE 274 SUPPLY PATH,SYS_2_MAKE-UP AIR UNIT 1
   #Components on Supply Air Path,1
   Supply Air Path Component,1,AIRLOOPHVAC:ZONESPLITTER,AIR LOOP HVAC ZONE SPLITTER 15,SYS_2_MAKE-UP AIR UNIT 1
     #Outlet Nodes on Supply Air Path Component,1
     Supply Air Path Component Nodes,1,AIRLOOPHVAC:ZONESPLITTER,AIR LOOP HVAC ZONE SPLITTER 15,NODE 274,NODE 276,SYS_2_MAKE-UP AIR UNIT 1
! <#Nodes on Supply Air Path>,<Number of Nodes>
! <Supply Air Path Node>,<Node Type>,<Node Count>,<Node Name>,<AirLoopHVAC Name>
#Nodes on Supply Air Path,2
   Supply Air Path Node,Inlet Node,1,NODE 274,SYS_2_MAKE-UP AIR UNIT 1
   Supply Air Path Node,Outlet Node,2,NODE 276,SYS_2_MAKE-UP AIR UNIT 1
 Supply Air Path,3,SYS_3_PSZ ALL_ST=LOBBY - MOTION PICTURE_FL=STORY 4_SCH=C NODE 24 SUPPLY PATH,SYS_3_PSZ ALL_ST=LOBBY - MOTION PICTURE_FL=STORY 4_SCH=C
   #Components on Supply Air Path,1
   Supply Air Path Component,1,AIRLOOPHVAC:ZONESPLITTER,AIR LOOP HVAC ZONE SPLITTER 1,SYS_3_PSZ ALL_ST=LOBBY - MOTION PICTURE_FL=STORY 4_SCH=C
     #Outlet Nodes on Supply Air Path Component,1
     Supply Air Path Component Nodes,1,AIRLOOPHVAC:ZONESPLITTER,AIR LOOP HVAC ZONE SPLITTER 1,NODE 24,NODE 27,SYS_3_PSZ ALL_ST=LOBBY - MOTION PICTURE_FL=STORY 4_SCH=C
! <#Nodes on Supply Air Path>,<Number of Nodes>
! <Supply Air Path Node>,<Node Type>,<Node Count>,<Node Name>,<AirLoopHVAC Name>
#Nodes on Supply Air Path,2
   Supply Air Path Node,Inlet Node,1,NODE 24,SYS_3_PSZ ALL_ST=LOBBY - MOTION PICTURE_FL=STORY 4_SCH=C
   Supply Air Path Node,Outlet Node,2,NODE 27,SYS_3_PSZ ALL_ST=LOBBY - MOTION PICTURE_FL=STORY 4_SCH=C
 Supply Air Path,4,SYS_3_PSZ ALL_ST=LOBBY - OTHER_FL=STORY 4_SCH=C NODE 42 SUPPLY PATH,SYS_3_PSZ ALL_ST=LOBBY - OTHER_FL=STORY 4_SCH=C
   #Components on Supply Air Path,1
   Supply Air Path Component,1,AIRLOOPHVAC:ZONESPLITTER,AIR LOOP HVAC ZONE SPLITTER 2,SYS_3_PSZ ALL_ST=LOBBY - OTHER_FL=STORY 4_SCH=C
     #Outlet Nodes on Supply Air Path Component,1
     Supply Air Path Component Nodes,1,AIRLOOPHVAC:ZONESPLITTER,AIR LOOP HVAC ZONE SPLITTER 2,NODE 42,NODE 45,SYS_3_PSZ ALL_ST=LOBBY - OTHER_FL=STORY 4_SCH=C
! <#Nodes on Supply Air Path>,<Number of Nodes>
! <Supply Air Path Node>,<Node Type>,<Node Count>,<Node Name>,<AirLoopHVAC Name>
#Nodes on Supply Air Path,2
   Supply Air Path Node,Inlet Node,1,NODE 42,SYS_3_PSZ ALL_ST=LOBBY - OTHER_FL=STORY 4_SCH=C
   Supply Air Path Node,Outlet Node,2,NODE 45,SYS_3_PSZ ALL_ST=LOBBY - OTHER_FL=STORY 4_SCH=C
 Supply Air Path,5,SYS_3_PSZ ALL_ST=LOBBY - PERFORMANCE ARTS_FL=STORY 4_SCH=C NODE 61 SUPPLY PATH,SYS_3_PSZ ALL_ST=LOBBY - PERFORMANCE ARTS_FL=STORY 4_SCH=C
   #Components on Supply Air Path,1
   Supply Air Path Component,1,AIRLOOPHVAC:ZONESPLITTER,AIR LOOP HVAC ZONE SPLITTER 3,SYS_3_PSZ ALL_ST=LOBBY - PERFORMANCE ARTS_FL=STORY 4_SCH=C
     #Outlet Nodes on Supply Air Path Component,1
     Supply Air Path Component Nodes,1,AIRLOOPHVAC:ZONESPLITTER,AIR LOOP HVAC ZONE SPLITTER 3,NODE 61,NODE 63,SYS_3_PSZ ALL_ST=LOBBY - PERFORMANCE ARTS_FL=STORY 4_SCH=C
! <#Nodes on Supply Air Path>,<Number of Nodes>
! <Supply Air Path Node>,<Node Type>,<Node Count>,<Node Name>,<AirLoopHVAC Name>
#Nodes on Supply Air Path,2
   Supply Air Path Node,Inlet Node,1,NODE 61,SYS_3_PSZ ALL_ST=LOBBY - PERFORMANCE ARTS_FL=STORY 4_SCH=C
   Supply Air Path Node,Outlet Node,2,NODE 63,SYS_3_PSZ ALL_ST=LOBBY - PERFORMANCE ARTS_FL=STORY 4_SCH=C
 Supply Air Path,6,SYS_3_PSZ ALL_ST=LOUNGE/RECREATION_FL=STORY 4_SCH=B NODE 74 SUPPLY PATH,SYS_3_PSZ ALL_ST=LOUNGE/RECREATION_FL=STORY 4_SCH=B
   #Components on Supply Air Path,1
   Supply Air Path Component,1,AIRLOOPHVAC:ZONESPLITTER,AIR LOOP HVAC ZONE SPLITTER 4,SYS_3_PSZ ALL_ST=LOUNGE/RECREATION_FL=STORY 4_SCH=B
     #Outlet Nodes on Supply Air Path Component,1
     Supply Air Path Component Nodes,1,AIRLOOPHVAC:ZONESPLITTER,AIR LOOP HVAC ZONE SPLITTER 4,NODE 74,NODE 76,SYS_3_PSZ ALL_ST=LOUNGE/RECREATION_FL=STORY 4_SCH=B
! <#Nodes on Supply Air Path>,<Number of Nodes>
! <Supply Air Path Node>,<Node Type>,<Node Count>,<Node Name>,<AirLoopHVAC Name>
#Nodes on Supply Air Path,2
   Supply Air Path Node,Inlet Node,1,NODE 74,SYS_3_PSZ ALL_ST=LOUNGE/RECREATION_FL=STORY 4_SCH=B
   Supply Air Path Node,Outlet Node,2,NODE 76,SYS_3_PSZ ALL_ST=LOUNGE/RECREATION_FL=STORY 4_SCH=B
 Supply Air Path,7,SYS_3_PSZ ALL_ST=MFG - 7.5 <= BAY H <= 15M_FL=STORY 4_SCH=A NODE 87 SUPPLY PATH,SYS_3_PSZ ALL_ST=MFG - 7.5 <= BAY H <= 15M_FL=STORY 4_SCH=A
   #Components on Supply Air Path,1
   Supply Air Path Component,1,AIRLOOPHVAC:ZONESPLITTER,AIR LOOP HVAC ZONE SPLITTER 5,SYS_3_PSZ ALL_ST=MFG - 7.5 <= BAY H <= 15M_FL=STORY 4_SCH=A
     #Outlet Nodes on Supply Air Path Component,1
     Supply Air Path Component Nodes,1,AIRLOOPHVAC:ZONESPLITTER,AIR LOOP HVAC ZONE SPLITTER 5,NODE 87,NODE 89,SYS_3_PSZ ALL_ST=MFG - 7.5 <= BAY H <= 15M_FL=STORY 4_SCH=A
! <#Nodes on Supply Air Path>,<Number of Nodes>
! <Supply Air Path Node>,<Node Type>,<Node Count>,<Node Name>,<AirLoopHVAC Name>
#Nodes on Supply Air Path,2
   Supply Air Path Node,Inlet Node,1,NODE 87,SYS_3_PSZ ALL_ST=MFG - 7.5 <= BAY H <= 15M_FL=STORY 4_SCH=A
   Supply Air Path Node,Outlet Node,2,NODE 89,SYS_3_PSZ ALL_ST=MFG - 7.5 <= BAY H <= 15M_FL=STORY 4_SCH=A
 Supply Air Path,8,SYS_3_PSZ ALL_ST=MFG - BAY H < 7.5M_FL=STORY 3_SCH=A NODE 100 SUPPLY PATH,SYS_3_PSZ ALL_ST=MFG - BAY H < 7.5M_FL=STORY 3_SCH=A
   #Components on Supply Air Path,1
   Supply Air Path Component,1,AIRLOOPHVAC:ZONESPLITTER,AIR LOOP HVAC ZONE SPLITTER 6,SYS_3_PSZ ALL_ST=MFG - BAY H < 7.5M_FL=STORY 3_SCH=A
     #Outlet Nodes on Supply Air Path Component,1
     Supply Air Path Component Nodes,1,AIRLOOPHVAC:ZONESPLITTER,AIR LOOP HVAC ZONE SPLITTER 6,NODE 100,NODE 102,SYS_3_PSZ ALL_ST=MFG - BAY H < 7.5M_FL=STORY 3_SCH=A
! <#Nodes on Supply Air Path>,<Number of Nodes>
! <Supply Air Path Node>,<Node Type>,<Node Count>,<Node Name>,<AirLoopHVAC Name>
#Nodes on Supply Air Path,2
   Supply Air Path Node,Inlet Node,1,NODE 100,SYS_3_PSZ ALL_ST=MFG - BAY H < 7.5M_FL=STORY 3_SCH=A
   Supply Air Path Node,Outlet Node,2,NODE 102,SYS_3_PSZ ALL_ST=MFG - BAY H < 7.5M_FL=STORY 3_SCH=A
 Supply Air Path,9,SYS_3_PSZ ALL_ST=MFG - BAY H > 15M_FL=STORY 1_SCH=A NODE 113 SUPPLY PATH,SYS_3_PSZ ALL_ST=MFG - BAY H > 15M_FL=STORY 1_SCH=A
   #Components on Supply Air Path,1
   Supply Air Path Component,1,AIRLOOPHVAC:ZONESPLITTER,AIR LOOP HVAC ZONE SPLITTER 7,SYS_3_PSZ ALL_ST=MFG - BAY H > 15M_FL=STORY 1_SCH=A
     #Outlet Nodes on Supply Air Path Component,1
     Supply Air Path Component Nodes,1,AIRLOOPHVAC:ZONESPLITTER,AIR LOOP HVAC ZONE SPLITTER 7,NODE 113,NODE 115,SYS_3_PSZ ALL_ST=MFG - BAY H > 15M_FL=STORY 1_SCH=A
! <#Nodes on Supply Air Path>,<Number of Nodes>
! <Supply Air Path Node>,<Node Type>,<Node Count>,<Node Name>,<AirLoopHVAC Name>
#Nodes on Supply Air Path,2
   Supply Air Path Node,Inlet Node,1,NODE 113,SYS_3_PSZ ALL_ST=MFG - BAY H > 15M_FL=STORY 1_SCH=A
   Supply Air Path Node,Outlet Node,2,NODE 115,SYS_3_PSZ ALL_ST=MFG - BAY H > 15M_FL=STORY 1_SCH=A
 Supply Air Path,10,SYS_3_PSZ ALL_ST=MFG - DETAILED_FL=STORY 1_SCH=A NODE 126 SUPPLY PATH,SYS_3_PSZ ALL_ST=MFG - DETAILED_FL=STORY 1_SCH=A
   #Components on Supply Air Path,1
   Supply Air Path Component,1,AIRLOOPHVAC:ZONESPLITTER,AIR LOOP HVAC ZONE SPLITTER 8,SYS_3_PSZ ALL_ST=MFG - DETAILED_FL=STORY 1_SCH=A
     #Outlet Nodes on Supply Air Path Component,1
     Supply Air Path Component Nodes,1,AIRLOOPHVAC:ZONESPLITTER,AIR LOOP HVAC ZONE SPLITTER 8,NODE 126,NODE 128,SYS_3_PSZ ALL_ST=MFG - DETAILED_FL=STORY 1_SCH=A
! <#Nodes on Supply Air Path>,<Number of Nodes>
! <Supply Air Path Node>,<Node Type>,<Node Count>,<Node Name>,<AirLoopHVAC Name>
#Nodes on Supply Air Path,2
   Supply Air Path Node,Inlet Node,1,NODE 126,SYS_3_PSZ ALL_ST=MFG - DETAILED_FL=STORY 1_SCH=A
   Supply Air Path Node,Outlet Node,2,NODE 128,SYS_3_PSZ ALL_ST=MFG - DETAILED_FL=STORY 1_SCH=A
 Supply Air Path,11,SYS_3_PSZ ALL_ST=MFG - EQUIPMENT_FL=STORY 1_SCH=A NODE 139 SUPPLY PATH,SYS_3_PSZ ALL_ST=MFG - EQUIPMENT_FL=STORY 1_SCH=A
   #Components on Supply Air Path,1
   Supply Air Path Component,1,AIRLOOPHVAC:ZONESPLITTER,AIR LOOP HVAC ZONE SPLITTER 9,SYS_3_PSZ ALL_ST=MFG - EQUIPMENT_FL=STORY 1_SCH=A
     #Outlet Nodes on Supply Air Path Component,1
     Supply Air Path Component Nodes,1,AIRLOOPHVAC:ZONESPLITTER,AIR LOOP HVAC ZONE SPLITTER 9,NODE 139,NODE 141,SYS_3_PSZ ALL_ST=MFG - EQUIPMENT_FL=STORY 1_SCH=A
! <#Nodes on Supply Air Path>,<Number of Nodes>
! <Supply Air Path Node>,<Node Type>,<Node Count>,<Node Name>,<AirLoopHVAC Name>
#Nodes on Supply Air Path,2
   Supply Air Path Node,Inlet Node,1,NODE 139,SYS_3_PSZ ALL_ST=MFG - EQUIPMENT_FL=STORY 1_SCH=A
   Supply Air Path Node,Outlet Node,2,NODE 141,SYS_3_PSZ ALL_ST=MFG - EQUIPMENT_FL=STORY 1_SCH=A
 Supply Air Path,12,SYS_3_PSZ ALL_ST=PENITENTIARY - AUDIENCE_FL=STORY 3_SCH=C NODE 152 SUPPLY PATH,SYS_3_PSZ ALL_ST=PENITENTIARY - AUDIENCE_FL=STORY 3_SCH=C
   #Components on Supply Air Path,1
   Supply Air Path Component,1,AIRLOOPHVAC:ZONESPLITTER,AIR LOOP HVAC ZONE SPLITTER 10,SYS_3_PSZ ALL_ST=PENITENTIARY - AUDIENCE_FL=STORY 3_SCH=C
     #Outlet Nodes on Supply Air Path Component,1
     Supply Air Path Component Nodes,1,AIRLOOPHVAC:ZONESPLITTER,AIR LOOP HVAC ZONE SPLITTER 10,NODE 152,NODE 154,SYS_3_PSZ ALL_ST=PENITENTIARY - AUDIENCE_FL=STORY 3_SCH=C
! <#Nodes on Supply Air Path>,<Number of Nodes>
! <Supply Air Path Node>,<Node Type>,<Node Count>,<Node Name>,<AirLoopHVAC Name>
#Nodes on Supply Air Path,2
   Supply Air Path Node,Inlet Node,1,NODE 152,SYS_3_PSZ ALL_ST=PENITENTIARY - AUDIENCE_FL=STORY 3_SCH=C
   Supply Air Path Node,Outlet Node,2,NODE 154,SYS_3_PSZ ALL_ST=PENITENTIARY - AUDIENCE_FL=STORY 3_SCH=C
 Supply Air Path,13,SYS_3_PSZ ALL_ST=PENITENTIARY - CLASSROOM_FL=STORY 2_SCH=D NODE 165 SUPPLY PATH,SYS_3_PSZ ALL_ST=PENITENTIARY - CLASSROOM_FL=STORY 2_SCH=D
   #Components on Supply Air Path,1
   Supply Air Path Component,1,AIRLOOPHVAC:ZONESPLITTER,AIR LOOP HVAC ZONE SPLITTER 11,SYS_3_PSZ ALL_ST=PENITENTIARY - CLASSROOM_FL=STORY 2_SCH=D
     #Outlet Nodes on Supply Air Path Component,1
     Supply Air Path Component Nodes,1,AIRLOOPHVAC:ZONESPLITTER,AIR LOOP HVAC ZONE SPLITTER 11,NODE 165,NODE 167,SYS_3_PSZ ALL_ST=PENITENTIARY - CLASSROOM_FL=STORY 2_SCH=D
! <#Nodes on Supply Air Path>,<Number of Nodes>
! <Supply Air Path Node>,<Node Type>,<Node Count>,<Node Name>,<AirLoopHVAC Name>
#Nodes on Supply Air Path,2
   Supply Air Path Node,Inlet Node,1,NODE 165,SYS_3_PSZ ALL_ST=PENITENTIARY - CLASSROOM_FL=STORY 2_SCH=D
   Supply Air Path Node,Outlet Node,2,NODE 167,SYS_3_PSZ ALL_ST=PENITENTIARY - CLASSROOM_FL=STORY 2_SCH=D
 Supply Air Path,14,SYS_3_PSZ ALL_ST=PENITENTIARY - DINING_FL=STORY 2_SCH=B NODE 178 SUPPLY PATH,SYS_3_PSZ ALL_ST=PENITENTIARY - DINING_FL=STORY 2_SCH=B
   #Components on Supply Air Path,1
   Supply Air Path Component,1,AIRLOOPHVAC:ZONESPLITTER,AIR LOOP HVAC ZONE SPLITTER 12,SYS_3_PSZ ALL_ST=PENITENTIARY - DINING_FL=STORY 2_SCH=B
     #Outlet Nodes on Supply Air Path Component,1
     Supply Air Path Component Nodes,1,AIRLOOPHVAC:ZONESPLITTER,AIR LOOP HVAC ZONE SPLITTER 12,NODE 178,NODE 180,SYS_3_PSZ ALL_ST=PENITENTIARY - DINING_FL=STORY 2_SCH=B
! <#Nodes on Supply Air Path>,<Number of Nodes>
! <Supply Air Path Node>,<Node Type>,<Node Count>,<Node Name>,<AirLoopHVAC Name>
#Nodes on Supply Air Path,2
   Supply Air Path Node,Inlet Node,1,NODE 178,SYS_3_PSZ ALL_ST=PENITENTIARY - DINING_FL=STORY 2_SCH=B
   Supply Air Path Node,Outlet Node,2,NODE 180,SYS_3_PSZ ALL_ST=PENITENTIARY - DINING_FL=STORY 2_SCH=B
 Supply Air Path,15,SYS_3_PSZ ALL_ST=RELIGIOUS - AUDIENCE_FL=STORY 2_SCH=I NODE 191 SUPPLY PATH,SYS_3_PSZ ALL_ST=RELIGIOUS - AUDIENCE_FL=STORY 2_SCH=I
   #Components on Supply Air Path,1
   Supply Air Path Component,1,AIRLOOPHVAC:ZONESPLITTER,AIR LOOP HVAC ZONE SPLITTER 13,SYS_3_PSZ ALL_ST=RELIGIOUS - AUDIENCE_FL=STORY 2_SCH=I
     #Outlet Nodes on Supply Air Path Component,1
     Supply Air Path Component Nodes,1,AIRLOOPHVAC:ZONESPLITTER,AIR LOOP HVAC ZONE SPLITTER 13,NODE 191,NODE 193,SYS_3_PSZ ALL_ST=RELIGIOUS - AUDIENCE_FL=STORY 2_SCH=I
! <#Nodes on Supply Air Path>,<Number of Nodes>
! <Supply Air Path Node>,<Node Type>,<Node Count>,<Node Name>,<AirLoopHVAC Name>
#Nodes on Supply Air Path,2
   Supply Air Path Node,Inlet Node,1,NODE 191,SYS_3_PSZ ALL_ST=RELIGIOUS - AUDIENCE_FL=STORY 2_SCH=I
   Supply Air Path Node,Outlet Node,2,NODE 193,SYS_3_PSZ ALL_ST=RELIGIOUS - AUDIENCE_FL=STORY 2_SCH=I
 Supply Air Path,16,SYS_4_PSZ_ALL_ST=PARKING GARAGE SPACE_FL=STORY 3_SCH=H NODE 386 SUPPLY PATH,SYS_4_PSZ_ALL_ST=PARKING GARAGE SPACE_FL=STORY 3_SCH=H
   #Components on Supply Air Path,1
   Supply Air Path Component,1,AIRLOOPHVAC:ZONESPLITTER,AIR LOOP HVAC ZONE SPLITTER 19,SYS_4_PSZ_ALL_ST=PARKING GARAGE SPACE_FL=STORY 3_SCH=H
     #Outlet Nodes on Supply Air Path Component,1
     Supply Air Path Component Nodes,1,AIRLOOPHVAC:ZONESPLITTER,AIR LOOP HVAC ZONE SPLITTER 19,NODE 386,NODE 388,SYS_4_PSZ_ALL_ST=PARKING GARAGE SPACE_FL=STORY 3_SCH=H
! <#Nodes on Supply Air Path>,<Number of Nodes>
! <Supply Air Path Node>,<Node Type>,<Node Count>,<Node Name>,<AirLoopHVAC Name>
#Nodes on Supply Air Path,2
   Supply Air Path Node,Inlet Node,1,NODE 386,SYS_4_PSZ_ALL_ST=PARKING GARAGE SPACE_FL=STORY 3_SCH=H
   Supply Air Path Node,Outlet Node,2,NODE 388,SYS_4_PSZ_ALL_ST=PARKING GARAGE SPACE_FL=STORY 3_SCH=H
 Supply Air Path,17,SYS_6_VAV WITH REHEAT NODE 317 SUPPLY PATH,SYS_6_VAV WITH REHEAT
   #Components on Supply Air Path,1
   Supply Air Path Component,1,AIRLOOPHVAC:ZONESPLITTER,AIR LOOP HVAC ZONE SPLITTER 16,SYS_6_VAV WITH REHEAT
     #Outlet Nodes on Supply Air Path Component,1
     Supply Air Path Component Nodes,1,AIRLOOPHVAC:ZONESPLITTER,AIR LOOP HVAC ZONE SPLITTER 16,NODE 317,NODE 332,SYS_6_VAV WITH REHEAT
! <#Nodes on Supply Air Path>,<Number of Nodes>
! <Supply Air Path Node>,<Node Type>,<Node Count>,<Node Name>,<AirLoopHVAC Name>
#Nodes on Supply Air Path,2
   Supply Air Path Node,Inlet Node,1,NODE 317,SYS_6_VAV WITH REHEAT
   Supply Air Path Node,Outlet Node,2,NODE 332,SYS_6_VAV WITH REHEAT
 Supply Air Path,18,SYS_6_VAV WITH REHEAT 1 NODE 337 SUPPLY PATH,SYS_6_VAV WITH REHEAT 1
   #Components on Supply Air Path,1
   Supply Air Path Component,1,AIRLOOPHVAC:ZONESPLITTER,AIR LOOP HVAC ZONE SPLITTER 17,SYS_6_VAV WITH REHEAT 1
     #Outlet Nodes on Supply Air Path Component,2
     Supply Air Path Component Nodes,1,AIRLOOPHVAC:ZONESPLITTER,AIR LOOP HVAC ZONE SPLITTER 17,NODE 337,NODE 353,SYS_6_VAV WITH REHEAT 1
     Supply Air Path Component Nodes,2,AIRLOOPHVAC:ZONESPLITTER,AIR LOOP HVAC ZONE SPLITTER 17,NODE 337,NODE 360,SYS_6_VAV WITH REHEAT 1
! <#Nodes on Supply Air Path>,<Number of Nodes>
! <Supply Air Path Node>,<Node Type>,<Node Count>,<Node Name>,<AirLoopHVAC Name>
#Nodes on Supply Air Path,3
   Supply Air Path Node,Inlet Node,1,NODE 337,SYS_6_VAV WITH REHEAT 1
   Supply Air Path Node,Outlet Node,2,NODE 353,SYS_6_VAV WITH REHEAT 1
   Supply Air Path Node,Outlet Node,3,NODE 360,SYS_6_VAV WITH REHEAT 1
 Supply Air Path,19,SYS_6_VAV WITH REHEAT 2 NODE 365 SUPPLY PATH,SYS_6_VAV WITH REHEAT 2
   #Components on Supply Air Path,1
   Supply Air Path Component,1,AIRLOOPHVAC:ZONESPLITTER,AIR LOOP HVAC ZONE SPLITTER 18,SYS_6_VAV WITH REHEAT 2
     #Outlet Nodes on Supply Air Path Component,1
     Supply Air Path Component Nodes,1,AIRLOOPHVAC:ZONESPLITTER,AIR LOOP HVAC ZONE SPLITTER 18,NODE 365,NODE 381,SYS_6_VAV WITH REHEAT 2
! <#Nodes on Supply Air Path>,<Number of Nodes>
! <Supply Air Path Node>,<Node Type>,<Node Count>,<Node Name>,<AirLoopHVAC Name>
#Nodes on Supply Air Path,2
   Supply Air Path Node,Inlet Node,1,NODE 365,SYS_6_VAV WITH REHEAT 2
   Supply Air Path Node,Outlet Node,2,NODE 381,SYS_6_VAV WITH REHEAT 2
! ===============================================================
! <#Return Air Paths>,<Number of Return Air Paths>
 #Return Air Paths,19
! <Return Air Path>,<Return Air Path Count>,<Return Air Path Name>,<AirLoopHVAC Name>
! <#Components on Return Air Path>,<Number of Components>
! <Return Air Path Component>,<Component Count>,<Component Type>,<Component Name>,<AirLoopHVAC Name>
! <#Inlet Nodes on Return Air Path Component>,<Number of Nodes>
! <Return Air Path Component Nodes>,<Node Count>,<Component Type>,<Component Name>,<Inlet Node Name>,<Outlet Node Name>,<AirLoopHVAC Name>
 Return Air Path,1,SYS_2_MAKE-UP AIR UNIT RETURN PATH,SYS_2_MAKE-UP AIR UNIT
   #Components on Return Air Path,1
   Return Air Path Component,1,AIRLOOPHVAC:ZONEMIXER,AIR LOOP HVAC ZONE MIXER 14,SYS_2_MAKE-UP AIR UNIT
     #Inlet Nodes on Return Air Path Component,1
     Return Air Path Component Nodes,1,AIRLOOPHVAC:ZONEMIXER,AIR LOOP HVAC ZONE MIXER 14,NODE 244,NODE 232,SYS_2_MAKE-UP AIR UNIT
! <#Nodes on Return Air Path>,<Number of Nodes>
! <Return Air Path Node>,<Node Type>,<Node Count>,<Node Name>,<AirLoopHVAC Name>
   #Nodes on Return Air Path,2
   Return Air Path Node,Outlet Node,1,NODE 232,SYS_2_MAKE-UP AIR UNIT
   Return Air Path Node,Inlet Node,2,NODE 244,SYS_2_MAKE-UP AIR UNIT
 Return Air Path,2,SYS_2_MAKE-UP AIR UNIT 1 RETURN PATH,SYS_2_MAKE-UP AIR UNIT 1
   #Components on Return Air Path,1
   Return Air Path Component,1,AIRLOOPHVAC:ZONEMIXER,AIR LOOP HVAC ZONE MIXER 15,SYS_2_MAKE-UP AIR UNIT 1
     #Inlet Nodes on Return Air Path Component,1
     Return Air Path Component Nodes,1,AIRLOOPHVAC:ZONEMIXER,AIR LOOP HVAC ZONE MIXER 15,NODE 287,NODE 275,SYS_2_MAKE-UP AIR UNIT 1
! <#Nodes on Return Air Path>,<Number of Nodes>
! <Return Air Path Node>,<Node Type>,<Node Count>,<Node Name>,<AirLoopHVAC Name>
   #Nodes on Return Air Path,2
   Return Air Path Node,Outlet Node,1,NODE 275,SYS_2_MAKE-UP AIR UNIT 1
   Return Air Path Node,Inlet Node,2,NODE 287,SYS_2_MAKE-UP AIR UNIT 1
 Return Air Path,3,SYS_3_PSZ ALL_ST=LOBBY - MOTION PICTURE_FL=STORY 4_SCH=C RETURN PATH,SYS_3_PSZ ALL_ST=LOBBY - MOTION PICTURE_FL=STORY 4_SCH=C
   #Components on Return Air Path,1
   Return Air Path Component,1,AIRLOOPHVAC:ZONEMIXER,AIR LOOP HVAC ZONE MIXER 1,SYS_3_PSZ ALL_ST=LOBBY - MOTION PICTURE_FL=STORY 4_SCH=C
     #Inlet Nodes on Return Air Path Component,1
     Return Air Path Component Nodes,1,AIRLOOPHVAC:ZONEMIXER,AIR LOOP HVAC ZONE MIXER 1,NODE 36,NODE 26,SYS_3_PSZ ALL_ST=LOBBY - MOTION PICTURE_FL=STORY 4_SCH=C
! <#Nodes on Return Air Path>,<Number of Nodes>
! <Return Air Path Node>,<Node Type>,<Node Count>,<Node Name>,<AirLoopHVAC Name>
   #Nodes on Return Air Path,2
   Return Air Path Node,Outlet Node,1,NODE 26,SYS_3_PSZ ALL_ST=LOBBY - MOTION PICTURE_FL=STORY 4_SCH=C
   Return Air Path Node,Inlet Node,2,NODE 36,SYS_3_PSZ ALL_ST=LOBBY - MOTION PICTURE_FL=STORY 4_SCH=C
 Return Air Path,4,SYS_3_PSZ ALL_ST=LOBBY - OTHER_FL=STORY 4_SCH=C RETURN PATH,SYS_3_PSZ ALL_ST=LOBBY - OTHER_FL=STORY 4_SCH=C
   #Components on Return Air Path,1
   Return Air Path Component,1,AIRLOOPHVAC:ZONEMIXER,AIR LOOP HVAC ZONE MIXER 2,SYS_3_PSZ ALL_ST=LOBBY - OTHER_FL=STORY 4_SCH=C
     #Inlet Nodes on Return Air Path Component,1
     Return Air Path Component Nodes,1,AIRLOOPHVAC:ZONEMIXER,AIR LOOP HVAC ZONE MIXER 2,NODE 54,NODE 44,SYS_3_PSZ ALL_ST=LOBBY - OTHER_FL=STORY 4_SCH=C
! <#Nodes on Return Air Path>,<Number of Nodes>
! <Return Air Path Node>,<Node Type>,<Node Count>,<Node Name>,<AirLoopHVAC Name>
   #Nodes on Return Air Path,2
   Return Air Path Node,Outlet Node,1,NODE 44,SYS_3_PSZ ALL_ST=LOBBY - OTHER_FL=STORY 4_SCH=C
   Return Air Path Node,Inlet Node,2,NODE 54,SYS_3_PSZ ALL_ST=LOBBY - OTHER_FL=STORY 4_SCH=C
 Return Air Path,5,SYS_3_PSZ ALL_ST=LOBBY - PERFORMANCE ARTS_FL=STORY 4_SCH=C RETURN PATH,SYS_3_PSZ ALL_ST=LOBBY - PERFORMANCE ARTS_FL=STORY 4_SCH=C
   #Components on Return Air Path,1
   Return Air Path Component,1,AIRLOOPHVAC:ZONEMIXER,AIR LOOP HVAC ZONE MIXER 3,SYS_3_PSZ ALL_ST=LOBBY - PERFORMANCE ARTS_FL=STORY 4_SCH=C
     #Inlet Nodes on Return Air Path Component,1
     Return Air Path Component Nodes,1,AIRLOOPHVAC:ZONEMIXER,AIR LOOP HVAC ZONE MIXER 3,NODE 69,NODE 62,SYS_3_PSZ ALL_ST=LOBBY - PERFORMANCE ARTS_FL=STORY 4_SCH=C
! <#Nodes on Return Air Path>,<Number of Nodes>
! <Return Air Path Node>,<Node Type>,<Node Count>,<Node Name>,<AirLoopHVAC Name>
   #Nodes on Return Air Path,2
   Return Air Path Node,Outlet Node,1,NODE 62,SYS_3_PSZ ALL_ST=LOBBY - PERFORMANCE ARTS_FL=STORY 4_SCH=C
   Return Air Path Node,Inlet Node,2,NODE 69,SYS_3_PSZ ALL_ST=LOBBY - PERFORMANCE ARTS_FL=STORY 4_SCH=C
 Return Air Path,6,SYS_3_PSZ ALL_ST=LOUNGE/RECREATION_FL=STORY 4_SCH=B RETURN PATH,SYS_3_PSZ ALL_ST=LOUNGE/RECREATION_FL=STORY 4_SCH=B
   #Components on Return Air Path,1
   Return Air Path Component,1,AIRLOOPHVAC:ZONEMIXER,AIR LOOP HVAC ZONE MIXER 4,SYS_3_PSZ ALL_ST=LOUNGE/RECREATION_FL=STORY 4_SCH=B
     #Inlet Nodes on Return Air Path Component,1
     Return Air Path Component Nodes,1,AIRLOOPHVAC:ZONEMIXER,AIR LOOP HVAC ZONE MIXER 4,NODE 82,NODE 75,SYS_3_PSZ ALL_ST=LOUNGE/RECREATION_FL=STORY 4_SCH=B
! <#Nodes on Return Air Path>,<Number of Nodes>
! <Return Air Path Node>,<Node Type>,<Node Count>,<Node Name>,<AirLoopHVAC Name>
   #Nodes on Return Air Path,2
   Return Air Path Node,Outlet Node,1,NODE 75,SYS_3_PSZ ALL_ST=LOUNGE/RECREATION_FL=STORY 4_SCH=B
   Return Air Path Node,Inlet Node,2,NODE 82,SYS_3_PSZ ALL_ST=LOUNGE/RECREATION_FL=STORY 4_SCH=B
 Return Air Path,7,SYS_3_PSZ ALL_ST=MFG - 7.5 <= BAY H <= 15M_FL=STORY 4_SCH=A RETURN PATH,SYS_3_PSZ ALL_ST=MFG - 7.5 <= BAY H <= 15M_FL=STORY 4_SCH=A
   #Components on Return Air Path,1
   Return Air Path Component,1,AIRLOOPHVAC:ZONEMIXER,AIR LOOP HVAC ZONE MIXER 5,SYS_3_PSZ ALL_ST=MFG - 7.5 <= BAY H <= 15M_FL=STORY 4_SCH=A
     #Inlet Nodes on Return Air Path Component,1
     Return Air Path Component Nodes,1,AIRLOOPHVAC:ZONEMIXER,AIR LOOP HVAC ZONE MIXER 5,NODE 95,NODE 88,SYS_3_PSZ ALL_ST=MFG - 7.5 <= BAY H <= 15M_FL=STORY 4_SCH=A
! <#Nodes on Return Air Path>,<Number of Nodes>
! <Return Air Path Node>,<Node Type>,<Node Count>,<Node Name>,<AirLoopHVAC Name>
   #Nodes on Return Air Path,2
   Return Air Path Node,Outlet Node,1,NODE 88,SYS_3_PSZ ALL_ST=MFG - 7.5 <= BAY H <= 15M_FL=STORY 4_SCH=A
   Return Air Path Node,Inlet Node,2,NODE 95,SYS_3_PSZ ALL_ST=MFG - 7.5 <= BAY H <= 15M_FL=STORY 4_SCH=A
 Return Air Path,8,SYS_3_PSZ ALL_ST=MFG - BAY H < 7.5M_FL=STORY 3_SCH=A RETURN PATH,SYS_3_PSZ ALL_ST=MFG - BAY H < 7.5M_FL=STORY 3_SCH=A
   #Components on Return Air Path,1
   Return Air Path Component,1,AIRLOOPHVAC:ZONEMIXER,AIR LOOP HVAC ZONE MIXER 6,SYS_3_PSZ ALL_ST=MFG - BAY H < 7.5M_FL=STORY 3_SCH=A
     #Inlet Nodes on Return Air Path Component,1
     Return Air Path Component Nodes,1,AIRLOOPHVAC:ZONEMIXER,AIR LOOP HVAC ZONE MIXER 6,NODE 108,NODE 101,SYS_3_PSZ ALL_ST=MFG - BAY H < 7.5M_FL=STORY 3_SCH=A
! <#Nodes on Return Air Path>,<Number of Nodes>
! <Return Air Path Node>,<Node Type>,<Node Count>,<Node Name>,<AirLoopHVAC Name>
   #Nodes on Return Air Path,2
   Return Air Path Node,Outlet Node,1,NODE 101,SYS_3_PSZ ALL_ST=MFG - BAY H < 7.5M_FL=STORY 3_SCH=A
   Return Air Path Node,Inlet Node,2,NODE 108,SYS_3_PSZ ALL_ST=MFG - BAY H < 7.5M_FL=STORY 3_SCH=A
 Return Air Path,9,SYS_3_PSZ ALL_ST=MFG - BAY H > 15M_FL=STORY 1_SCH=A RETURN PATH,SYS_3_PSZ ALL_ST=MFG - BAY H > 15M_FL=STORY 1_SCH=A
   #Components on Return Air Path,1
   Return Air Path Component,1,AIRLOOPHVAC:ZONEMIXER,AIR LOOP HVAC ZONE MIXER 7,SYS_3_PSZ ALL_ST=MFG - BAY H > 15M_FL=STORY 1_SCH=A
     #Inlet Nodes on Return Air Path Component,1
     Return Air Path Component Nodes,1,AIRLOOPHVAC:ZONEMIXER,AIR LOOP HVAC ZONE MIXER 7,NODE 121,NODE 114,SYS_3_PSZ ALL_ST=MFG - BAY H > 15M_FL=STORY 1_SCH=A
! <#Nodes on Return Air Path>,<Number of Nodes>
! <Return Air Path Node>,<Node Type>,<Node Count>,<Node Name>,<AirLoopHVAC Name>
   #Nodes on Return Air Path,2
   Return Air Path Node,Outlet Node,1,NODE 114,SYS_3_PSZ ALL_ST=MFG - BAY H > 15M_FL=STORY 1_SCH=A
   Return Air Path Node,Inlet Node,2,NODE 121,SYS_3_PSZ ALL_ST=MFG - BAY H > 15M_FL=STORY 1_SCH=A
 Return Air Path,10,SYS_3_PSZ ALL_ST=MFG - DETAILED_FL=STORY 1_SCH=A RETURN PATH,SYS_3_PSZ ALL_ST=MFG - DETAILED_FL=STORY 1_SCH=A
   #Components on Return Air Path,1
   Return Air Path Component,1,AIRLOOPHVAC:ZONEMIXER,AIR LOOP HVAC ZONE MIXER 8,SYS_3_PSZ ALL_ST=MFG - DETAILED_FL=STORY 1_SCH=A
     #Inlet Nodes on Return Air Path Component,1
     Return Air Path Component Nodes,1,AIRLOOPHVAC:ZONEMIXER,AIR LOOP HVAC ZONE MIXER 8,NODE 134,NODE 127,SYS_3_PSZ ALL_ST=MFG - DETAILED_FL=STORY 1_SCH=A
! <#Nodes on Return Air Path>,<Number of Nodes>
! <Return Air Path Node>,<Node Type>,<Node Count>,<Node Name>,<AirLoopHVAC Name>
   #Nodes on Return Air Path,2
   Return Air Path Node,Outlet Node,1,NODE 127,SYS_3_PSZ ALL_ST=MFG - DETAILED_FL=STORY 1_SCH=A
   Return Air Path Node,Inlet Node,2,NODE 134,SYS_3_PSZ ALL_ST=MFG - DETAILED_FL=STORY 1_SCH=A
 Return Air Path,11,SYS_3_PSZ ALL_ST=MFG - EQUIPMENT_FL=STORY 1_SCH=A RETURN PATH,SYS_3_PSZ ALL_ST=MFG - EQUIPMENT_FL=STORY 1_SCH=A
   #Components on Return Air Path,1
   Return Air Path Component,1,AIRLOOPHVAC:ZONEMIXER,AIR LOOP HVAC ZONE MIXER 9,SYS_3_PSZ ALL_ST=MFG - EQUIPMENT_FL=STORY 1_SCH=A
     #Inlet Nodes on Return Air Path Component,1
     Return Air Path Component Nodes,1,AIRLOOPHVAC:ZONEMIXER,AIR LOOP HVAC ZONE MIXER 9,NODE 147,NODE 140,SYS_3_PSZ ALL_ST=MFG - EQUIPMENT_FL=STORY 1_SCH=A
! <#Nodes on Return Air Path>,<Number of Nodes>
! <Return Air Path Node>,<Node Type>,<Node Count>,<Node Name>,<AirLoopHVAC Name>
   #Nodes on Return Air Path,2
   Return Air Path Node,Outlet Node,1,NODE 140,SYS_3_PSZ ALL_ST=MFG - EQUIPMENT_FL=STORY 1_SCH=A
   Return Air Path Node,Inlet Node,2,NODE 147,SYS_3_PSZ ALL_ST=MFG - EQUIPMENT_FL=STORY 1_SCH=A
 Return Air Path,12,SYS_3_PSZ ALL_ST=PENITENTIARY - AUDIENCE_FL=STORY 3_SCH=C RETURN PATH,SYS_3_PSZ ALL_ST=PENITENTIARY - AUDIENCE_FL=STORY 3_SCH=C
   #Components on Return Air Path,1
   Return Air Path Component,1,AIRLOOPHVAC:ZONEMIXER,AIR LOOP HVAC ZONE MIXER 10,SYS_3_PSZ ALL_ST=PENITENTIARY - AUDIENCE_FL=STORY 3_SCH=C
     #Inlet Nodes on Return Air Path Component,1
     Return Air Path Component Nodes,1,AIRLOOPHVAC:ZONEMIXER,AIR LOOP HVAC ZONE MIXER 10,NODE 160,NODE 153,SYS_3_PSZ ALL_ST=PENITENTIARY - AUDIENCE_FL=STORY 3_SCH=C
! <#Nodes on Return Air Path>,<Number of Nodes>
! <Return Air Path Node>,<Node Type>,<Node Count>,<Node Name>,<AirLoopHVAC Name>
   #Nodes on Return Air Path,2
   Return Air Path Node,Outlet Node,1,NODE 153,SYS_3_PSZ ALL_ST=PENITENTIARY - AUDIENCE_FL=STORY 3_SCH=C
   Return Air Path Node,Inlet Node,2,NODE 160,SYS_3_PSZ ALL_ST=PENITENTIARY - AUDIENCE_FL=STORY 3_SCH=C
 Return Air Path,13,SYS_3_PSZ ALL_ST=PENITENTIARY - CLASSROOM_FL=STORY 2_SCH=D RETURN PATH,SYS_3_PSZ ALL_ST=PENITENTIARY - CLASSROOM_FL=STORY 2_SCH=D
   #Components on Return Air Path,1
   Return Air Path Component,1,AIRLOOPHVAC:ZONEMIXER,AIR LOOP HVAC ZONE MIXER 11,SYS_3_PSZ ALL_ST=PENITENTIARY - CLASSROOM_FL=STORY 2_SCH=D
     #Inlet Nodes on Return Air Path Component,1
     Return Air Path Component Nodes,1,AIRLOOPHVAC:ZONEMIXER,AIR LOOP HVAC ZONE MIXER 11,NODE 173,NODE 166,SYS_3_PSZ ALL_ST=PENITENTIARY - CLASSROOM_FL=STORY 2_SCH=D
! <#Nodes on Return Air Path>,<Number of Nodes>
! <Return Air Path Node>,<Node Type>,<Node Count>,<Node Name>,<AirLoopHVAC Name>
   #Nodes on Return Air Path,2
   Return Air Path Node,Outlet Node,1,NODE 166,SYS_3_PSZ ALL_ST=PENITENTIARY - CLASSROOM_FL=STORY 2_SCH=D
   Return Air Path Node,Inlet Node,2,NODE 173,SYS_3_PSZ ALL_ST=PENITENTIARY - CLASSROOM_FL=STORY 2_SCH=D
 Return Air Path,14,SYS_3_PSZ ALL_ST=PENITENTIARY - DINING_FL=STORY 2_SCH=B RETURN PATH,SYS_3_PSZ ALL_ST=PENITENTIARY - DINING_FL=STORY 2_SCH=B
   #Components on Return Air Path,1
   Return Air Path Component,1,AIRLOOPHVAC:ZONEMIXER,AIR LOOP HVAC ZONE MIXER 12,SYS_3_PSZ ALL_ST=PENITENTIARY - DINING_FL=STORY 2_SCH=B
     #Inlet Nodes on Return Air Path Component,1
     Return Air Path Component Nodes,1,AIRLOOPHVAC:ZONEMIXER,AIR LOOP HVAC ZONE MIXER 12,NODE 186,NODE 179,SYS_3_PSZ ALL_ST=PENITENTIARY - DINING_FL=STORY 2_SCH=B
! <#Nodes on Return Air Path>,<Number of Nodes>
! <Return Air Path Node>,<Node Type>,<Node Count>,<Node Name>,<AirLoopHVAC Name>
   #Nodes on Return Air Path,2
   Return Air Path Node,Outlet Node,1,NODE 179,SYS_3_PSZ ALL_ST=PENITENTIARY - DINING_FL=STORY 2_SCH=B
   Return Air Path Node,Inlet Node,2,NODE 186,SYS_3_PSZ ALL_ST=PENITENTIARY - DINING_FL=STORY 2_SCH=B
 Return Air Path,15,SYS_3_PSZ ALL_ST=RELIGIOUS - AUDIENCE_FL=STORY 2_SCH=I RETURN PATH,SYS_3_PSZ ALL_ST=RELIGIOUS - AUDIENCE_FL=STORY 2_SCH=I
   #Components on Return Air Path,1
   Return Air Path Component,1,AIRLOOPHVAC:ZONEMIXER,AIR LOOP HVAC ZONE MIXER 13,SYS_3_PSZ ALL_ST=RELIGIOUS - AUDIENCE_FL=STORY 2_SCH=I
     #Inlet Nodes on Return Air Path Component,1
     Return Air Path Component Nodes,1,AIRLOOPHVAC:ZONEMIXER,AIR LOOP HVAC ZONE MIXER 13,NODE 199,NODE 192,SYS_3_PSZ ALL_ST=RELIGIOUS - AUDIENCE_FL=STORY 2_SCH=I
! <#Nodes on Return Air Path>,<Number of Nodes>
! <Return Air Path Node>,<Node Type>,<Node Count>,<Node Name>,<AirLoopHVAC Name>
   #Nodes on Return Air Path,2
   Return Air Path Node,Outlet Node,1,NODE 192,SYS_3_PSZ ALL_ST=RELIGIOUS - AUDIENCE_FL=STORY 2_SCH=I
   Return Air Path Node,Inlet Node,2,NODE 199,SYS_3_PSZ ALL_ST=RELIGIOUS - AUDIENCE_FL=STORY 2_SCH=I
 Return Air Path,16,SYS_4_PSZ_ALL_ST=PARKING GARAGE SPACE_FL=STORY 3_SCH=H RETURN PATH,SYS_4_PSZ_ALL_ST=PARKING GARAGE SPACE_FL=STORY 3_SCH=H
   #Components on Return Air Path,1
   Return Air Path Component,1,AIRLOOPHVAC:ZONEMIXER,AIR LOOP HVAC ZONE MIXER 19,SYS_4_PSZ_ALL_ST=PARKING GARAGE SPACE_FL=STORY 3_SCH=H
     #Inlet Nodes on Return Air Path Component,1
     Return Air Path Component Nodes,1,AIRLOOPHVAC:ZONEMIXER,AIR LOOP HVAC ZONE MIXER 19,NODE 394,NODE 387,SYS_4_PSZ_ALL_ST=PARKING GARAGE SPACE_FL=STORY 3_SCH=H
! <#Nodes on Return Air Path>,<Number of Nodes>
! <Return Air Path Node>,<Node Type>,<Node Count>,<Node Name>,<AirLoopHVAC Name>
   #Nodes on Return Air Path,2
   Return Air Path Node,Outlet Node,1,NODE 387,SYS_4_PSZ_ALL_ST=PARKING GARAGE SPACE_FL=STORY 3_SCH=H
   Return Air Path Node,Inlet Node,2,NODE 394,SYS_4_PSZ_ALL_ST=PARKING GARAGE SPACE_FL=STORY 3_SCH=H
 Return Air Path,17,SYS_6_VAV WITH REHEAT RETURN PATH,SYS_6_VAV WITH REHEAT
   #Components on Return Air Path,1
   Return Air Path Component,1,AIRLOOPHVAC:ZONEMIXER,AIR LOOP HVAC ZONE MIXER 16,SYS_6_VAV WITH REHEAT
     #Inlet Nodes on Return Air Path Component,1
     Return Air Path Component Nodes,1,AIRLOOPHVAC:ZONEMIXER,AIR LOOP HVAC ZONE MIXER 16,NODE 331,NODE 318,SYS_6_VAV WITH REHEAT
! <#Nodes on Return Air Path>,<Number of Nodes>
! <Return Air Path Node>,<Node Type>,<Node Count>,<Node Name>,<AirLoopHVAC Name>
   #Nodes on Return Air Path,2
   Return Air Path Node,Outlet Node,1,NODE 318,SYS_6_VAV WITH REHEAT
   Return Air Path Node,Inlet Node,2,NODE 331,SYS_6_VAV WITH REHEAT
 Return Air Path,18,SYS_6_VAV WITH REHEAT 1 RETURN PATH,SYS_6_VAV WITH REHEAT 1
   #Components on Return Air Path,1
   Return Air Path Component,1,AIRLOOPHVAC:ZONEMIXER,AIR LOOP HVAC ZONE MIXER 17,SYS_6_VAV WITH REHEAT 1
     #Inlet Nodes on Return Air Path Component,2
     Return Air Path Component Nodes,1,AIRLOOPHVAC:ZONEMIXER,AIR LOOP HVAC ZONE MIXER 17,NODE 352,NODE 338,SYS_6_VAV WITH REHEAT 1
     Return Air Path Component Nodes,2,AIRLOOPHVAC:ZONEMIXER,AIR LOOP HVAC ZONE MIXER 17,NODE 359,NODE 338,SYS_6_VAV WITH REHEAT 1
! <#Nodes on Return Air Path>,<Number of Nodes>
! <Return Air Path Node>,<Node Type>,<Node Count>,<Node Name>,<AirLoopHVAC Name>
   #Nodes on Return Air Path,3
   Return Air Path Node,Outlet Node,1,NODE 338,SYS_6_VAV WITH REHEAT 1
   Return Air Path Node,Inlet Node,2,NODE 352,SYS_6_VAV WITH REHEAT 1
   Return Air Path Node,Inlet Node,3,NODE 359,SYS_6_VAV WITH REHEAT 1
 Return Air Path,19,SYS_6_VAV WITH REHEAT 2 RETURN PATH,SYS_6_VAV WITH REHEAT 2
   #Components on Return Air Path,1
   Return Air Path Component,1,AIRLOOPHVAC:ZONEMIXER,AIR LOOP HVAC ZONE MIXER 18,SYS_6_VAV WITH REHEAT 2
     #Inlet Nodes on Return Air Path Component,1
     Return Air Path Component Nodes,1,AIRLOOPHVAC:ZONEMIXER,AIR LOOP HVAC ZONE MIXER 18,NODE 380,NODE 366,SYS_6_VAV WITH REHEAT 2
! <#Nodes on Return Air Path>,<Number of Nodes>
! <Return Air Path Node>,<Node Type>,<Node Count>,<Node Name>,<AirLoopHVAC Name>
   #Nodes on Return Air Path,2
   Return Air Path Node,Outlet Node,1,NODE 366,SYS_6_VAV WITH REHEAT 2
   Return Air Path Node,Inlet Node,2,NODE 380,SYS_6_VAV WITH REHEAT 2
! ===============================================================
! #Outdoor Air Nodes,<Number of Outdoor Air Nodes>
 #Outdoor Air Nodes,22
! <Outdoor Air Node>,<NodeNumber>,<Node Name>
 Outdoor Air Node,431,ZONE HVAC FOUR PIPE FAN COIL 1 OA NODE
 Outdoor Air Node,432,ZONE HVAC FOUR PIPE FAN COIL 2 OA NODE
 Outdoor Air Node,433,NODE 234
 Outdoor Air Node,434,NODE 277
 Outdoor Air Node,435,NODE 29
 Outdoor Air Node,436,NODE 47
 Outdoor Air Node,437,NODE 64
 Outdoor Air Node,438,NODE 77
 Outdoor Air Node,439,NODE 90
 Outdoor Air Node,440,NODE 103
 Outdoor Air Node,441,NODE 116
 Outdoor Air Node,442,NODE 129
 Outdoor Air Node,443,NODE 142
 Outdoor Air Node,444,NODE 155
 Outdoor Air Node,445,NODE 168
 Outdoor Air Node,446,NODE 181
 Outdoor Air Node,447,NODE 194
 Outdoor Air Node,448,NODE 389
 Outdoor Air Node,449,NODE 323
 Outdoor Air Node,450,NODE 344
 Outdoor Air Node,451,NODE 372
 Outdoor Air Node,452,MODEL OUTDOOR AIR NODE
! ===============================================================
! <#Component Sets>,<Number of Component Sets>
 #Component Sets,245
! <Component Set>,<Component Set Count>,<Parent Object Type>,<Parent Object Name>,<Component Type>,<Component Name>,<Inlet Node ID>,<Outlet Node ID>,<Description>
 Component Set,1,BRANCH,SYS_2_MAKE-UP AIR UNIT MAIN BRANCH,AIRLOOPHVAC:OUTDOORAIRSYSTEM,AIR LOOP HVAC OUTDOOR AIR SYSTEM 14,NODE 229,NODE 238,Air Nodes
 Component Set,2,BRANCH,SYS_2_MAKE-UP AIR UNIT MAIN BRANCH,COILSYSTEM:COOLING:DX,COIL COOLING DX SINGLE SPEED 14 COILSYSTEM,NODE 238,NODE 237,Air Nodes
 Component Set,3,BRANCH,SYS_2_MAKE-UP AIR UNIT MAIN BRANCH,COIL:HEATING:FUEL,COIL HEATING GAS 14,NODE 237,NODE 236,Air Nodes
 Component Set,4,BRANCH,SYS_2_MAKE-UP AIR UNIT MAIN BRANCH,FAN:CONSTANTVOLUME,FAN CONSTANT VOLUME 14,NODE 236,NODE 230,Air Nodes
 Component Set,5,BRANCH,SYS_2_MAKE-UP AIR UNIT 1 MAIN BRANCH,AIRLOOPHVAC:OUTDOORAIRSYSTEM,AIR LOOP HVAC OUTDOOR AIR SYSTEM 15,NODE 272,NODE 281,Air Nodes
 Component Set,6,BRANCH,SYS_2_MAKE-UP AIR UNIT 1 MAIN BRANCH,COILSYSTEM:COOLING:DX,COIL COOLING DX SINGLE SPEED 15 COILSYSTEM,NODE 281,NODE 280,Air Nodes
 Component Set,7,BRANCH,SYS_2_MAKE-UP AIR UNIT 1 MAIN BRANCH,COIL:HEATING:FUEL,COIL HEATING GAS 15,NODE 280,NODE 279,Air Nodes
 Component Set,8,BRANCH,SYS_2_MAKE-UP AIR UNIT 1 MAIN BRANCH,FAN:CONSTANTVOLUME,FAN CONSTANT VOLUME 16,NODE 279,NODE 273,Air Nodes
 Component Set,9,BRANCH,SYS_3_PSZ ALL_ST=LOBBY - MOTION PICTURE_FL=STORY 4_SCH=C MAIN BRANCH,AIRLOOPHVAC:OUTDOORAIRSYSTEM,AIR LOOP HVAC OUTDOOR AIR SYSTEM 1,NODE 21,NODE 35,Air Nodes
 Component Set,10,BRANCH,SYS_3_PSZ ALL_ST=LOBBY - MOTION PICTURE_FL=STORY 4_SCH=C MAIN BRANCH,COILSYSTEM:COOLING:DX,COIL COOLING DX SINGLE SPEED 1 COILSYSTEM,NODE 35,NODE 33,Air Nodes
 Component Set,11,BRANCH,SYS_3_PSZ ALL_ST=LOBBY - MOTION PICTURE_FL=STORY 4_SCH=C MAIN BRANCH,COIL:HEATING:FUEL,COIL HEATING GAS 1,NODE 33,NODE 32,Air Nodes
 Component Set,12,BRANCH,SYS_3_PSZ ALL_ST=LOBBY - MOTION PICTURE_FL=STORY 4_SCH=C MAIN BRANCH,FAN:CONSTANTVOLUME,FAN CONSTANT VOLUME 1,NODE 32,NODE 23,Air Nodes
 Component Set,13,BRANCH,SYS_3_PSZ ALL_ST=LOBBY - OTHER_FL=STORY 4_SCH=C MAIN BRANCH,AIRLOOPHVAC:OUTDOORAIRSYSTEM,AIR LOOP HVAC OUTDOOR AIR SYSTEM 2,NODE 39,NODE 53,Air Nodes
 Component Set,14,BRANCH,SYS_3_PSZ ALL_ST=LOBBY - OTHER_FL=STORY 4_SCH=C MAIN BRANCH,COILSYSTEM:COOLING:DX,COIL COOLING DX SINGLE SPEED 2 COILSYSTEM,NODE 53,NODE 51,Air Nodes
 Component Set,15,BRANCH,SYS_3_PSZ ALL_ST=LOBBY - OTHER_FL=STORY 4_SCH=C MAIN BRANCH,COIL:HEATING:FUEL,COIL HEATING GAS 2,NODE 51,NODE 50,Air Nodes
 Component Set,16,BRANCH,SYS_3_PSZ ALL_ST=LOBBY - OTHER_FL=STORY 4_SCH=C MAIN BRANCH,FAN:CONSTANTVOLUME,FAN CONSTANT VOLUME 2,NODE 50,NODE 41,Air Nodes
 Component Set,17,BRANCH,SYS_3_PSZ ALL_ST=LOBBY - PERFORMANCE ARTS_FL=STORY 4_SCH=C MAIN BRANCH,AIRLOOPHVAC:OUTDOORAIRSYSTEM,AIR LOOP HVAC OUTDOOR AIR SYSTEM 3,NODE 59,NODE 68,Air Nodes
 Component Set,18,BRANCH,SYS_3_PSZ ALL_ST=LOBBY - PERFORMANCE ARTS_FL=STORY 4_SCH=C MAIN BRANCH,COILSYSTEM:COOLING:DX,COIL COOLING DX SINGLE SPEED 3 COILSYSTEM,NODE 68,NODE 67,Air Nodes
 Component Set,19,BRANCH,SYS_3_PSZ ALL_ST=LOBBY - PERFORMANCE ARTS_FL=STORY 4_SCH=C MAIN BRANCH,COIL:HEATING:FUEL,COIL HEATING GAS 3,NODE 67,NODE 66,Air Nodes
 Component Set,20,BRANCH,SYS_3_PSZ ALL_ST=LOBBY - PERFORMANCE ARTS_FL=STORY 4_SCH=C MAIN BRANCH,FAN:CONSTANTVOLUME,FAN CONSTANT VOLUME 3,NODE 66,NODE 60,Air Nodes
 Component Set,21,BRANCH,SYS_3_PSZ ALL_ST=LOUNGE/RECREATION_FL=STORY 4_SCH=B MAIN BRANCH,AIRLOOPHVAC:OUTDOORAIRSYSTEM,AIR LOOP HVAC OUTDOOR AIR SYSTEM 4,NODE 72,NODE 81,Air Nodes
 Component Set,22,BRANCH,SYS_3_PSZ ALL_ST=LOUNGE/RECREATION_FL=STORY 4_SCH=B MAIN BRANCH,COILSYSTEM:COOLING:DX,COIL COOLING DX SINGLE SPEED 4 COILSYSTEM,NODE 81,NODE 80,Air Nodes
 Component Set,23,BRANCH,SYS_3_PSZ ALL_ST=LOUNGE/RECREATION_FL=STORY 4_SCH=B MAIN BRANCH,COIL:HEATING:FUEL,COIL HEATING GAS 4,NODE 80,NODE 79,Air Nodes
 Component Set,24,BRANCH,SYS_3_PSZ ALL_ST=LOUNGE/RECREATION_FL=STORY 4_SCH=B MAIN BRANCH,FAN:CONSTANTVOLUME,FAN CONSTANT VOLUME 4,NODE 79,NODE 73,Air Nodes
 Component Set,25,BRANCH,SYS_3_PSZ ALL_ST=MFG - 7.5 <= BAY H <= 15M_FL=STORY 4_SCH=A MAIN BRANCH,AIRLOOPHVAC:OUTDOORAIRSYSTEM,AIR LOOP HVAC OUTDOOR AIR SYSTEM 5,NODE 85,NODE 94,Air Nodes
 Component Set,26,BRANCH,SYS_3_PSZ ALL_ST=MFG - 7.5 <= BAY H <= 15M_FL=STORY 4_SCH=A MAIN BRANCH,COILSYSTEM:COOLING:DX,COIL COOLING DX SINGLE SPEED 5 COILSYSTEM,NODE 94,NODE 93,Air Nodes
 Component Set,27,BRANCH,SYS_3_PSZ ALL_ST=MFG - 7.5 <= BAY H <= 15M_FL=STORY 4_SCH=A MAIN BRANCH,COIL:HEATING:FUEL,COIL HEATING GAS 5,NODE 93,NODE 92,Air Nodes
 Component Set,28,BRANCH,SYS_3_PSZ ALL_ST=MFG - 7.5 <= BAY H <= 15M_FL=STORY 4_SCH=A MAIN BRANCH,FAN:CONSTANTVOLUME,FAN CONSTANT VOLUME 5,NODE 92,NODE 86,Air Nodes
 Component Set,29,BRANCH,SYS_3_PSZ ALL_ST=MFG - BAY H < 7.5M_FL=STORY 3_SCH=A MAIN BRANCH,AIRLOOPHVAC:OUTDOORAIRSYSTEM,AIR LOOP HVAC OUTDOOR AIR SYSTEM 6,NODE 98,NODE 107,Air Nodes
 Component Set,30,BRANCH,SYS_3_PSZ ALL_ST=MFG - BAY H < 7.5M_FL=STORY 3_SCH=A MAIN BRANCH,COILSYSTEM:COOLING:DX,COIL COOLING DX SINGLE SPEED 6 COILSYSTEM,NODE 107,NODE 106,Air Nodes
 Component Set,31,BRANCH,SYS_3_PSZ ALL_ST=MFG - BAY H < 7.5M_FL=STORY 3_SCH=A MAIN BRANCH,COIL:HEATING:FUEL,COIL HEATING GAS 6,NODE 106,NODE 105,Air Nodes
 Component Set,32,BRANCH,SYS_3_PSZ ALL_ST=MFG - BAY H < 7.5M_FL=STORY 3_SCH=A MAIN BRANCH,FAN:CONSTANTVOLUME,FAN CONSTANT VOLUME 6,NODE 105,NODE 99,Air Nodes
 Component Set,33,BRANCH,SYS_3_PSZ ALL_ST=MFG - BAY H > 15M_FL=STORY 1_SCH=A MAIN BRANCH,AIRLOOPHVAC:OUTDOORAIRSYSTEM,AIR LOOP HVAC OUTDOOR AIR SYSTEM 7,NODE 111,NODE 120,Air Nodes
 Component Set,34,BRANCH,SYS_3_PSZ ALL_ST=MFG - BAY H > 15M_FL=STORY 1_SCH=A MAIN BRANCH,COILSYSTEM:COOLING:DX,COIL COOLING DX SINGLE SPEED 7 COILSYSTEM,NODE 120,NODE 119,Air Nodes
 Component Set,35,BRANCH,SYS_3_PSZ ALL_ST=MFG - BAY H > 15M_FL=STORY 1_SCH=A MAIN BRANCH,COIL:HEATING:FUEL,COIL HEATING GAS 7,NODE 119,NODE 118,Air Nodes
 Component Set,36,BRANCH,SYS_3_PSZ ALL_ST=MFG - BAY H > 15M_FL=STORY 1_SCH=A MAIN BRANCH,FAN:CONSTANTVOLUME,FAN CONSTANT VOLUME 7,NODE 118,NODE 112,Air Nodes
 Component Set,37,BRANCH,SYS_3_PSZ ALL_ST=MFG - DETAILED_FL=STORY 1_SCH=A MAIN BRANCH,AIRLOOPHVAC:OUTDOORAIRSYSTEM,AIR LOOP HVAC OUTDOOR AIR SYSTEM 8,NODE 124,NODE 133,Air Nodes
 Component Set,38,BRANCH,SYS_3_PSZ ALL_ST=MFG - DETAILED_FL=STORY 1_SCH=A MAIN BRANCH,COILSYSTEM:COOLING:DX,COIL COOLING DX SINGLE SPEED 8 COILSYSTEM,NODE 133,NODE 132,Air Nodes
 Component Set,39,BRANCH,SYS_3_PSZ ALL_ST=MFG - DETAILED_FL=STORY 1_SCH=A MAIN BRANCH,COIL:HEATING:FUEL,COIL HEATING GAS 8,NODE 132,NODE 131,Air Nodes
 Component Set,40,BRANCH,SYS_3_PSZ ALL_ST=MFG - DETAILED_FL=STORY 1_SCH=A MAIN BRANCH,FAN:CONSTANTVOLUME,FAN CONSTANT VOLUME 8,NODE 131,NODE 125,Air Nodes
 Component Set,41,BRANCH,SYS_3_PSZ ALL_ST=MFG - EQUIPMENT_FL=STORY 1_SCH=A MAIN BRANCH,AIRLOOPHVAC:OUTDOORAIRSYSTEM,AIR LOOP HVAC OUTDOOR AIR SYSTEM 9,NODE 137,NODE 146,Air Nodes
 Component Set,42,BRANCH,SYS_3_PSZ ALL_ST=MFG - EQUIPMENT_FL=STORY 1_SCH=A MAIN BRANCH,COILSYSTEM:COOLING:DX,COIL COOLING DX SINGLE SPEED 9 COILSYSTEM,NODE 146,NODE 145,Air Nodes
 Component Set,43,BRANCH,SYS_3_PSZ ALL_ST=MFG - EQUIPMENT_FL=STORY 1_SCH=A MAIN BRANCH,COIL:HEATING:FUEL,COIL HEATING GAS 9,NODE 145,NODE 144,Air Nodes
 Component Set,44,BRANCH,SYS_3_PSZ ALL_ST=MFG - EQUIPMENT_FL=STORY 1_SCH=A MAIN BRANCH,FAN:CONSTANTVOLUME,FAN CONSTANT VOLUME 9,NODE 144,NODE 138,Air Nodes
 Component Set,45,BRANCH,SYS_3_PSZ ALL_ST=PENITENTIARY - AUDIENCE_FL=STORY 3_SCH=C MAIN BRANCH,AIRLOOPHVAC:OUTDOORAIRSYSTEM,AIR LOOP HVAC OUTDOOR AIR SYSTEM 10,NODE 150,NODE 159,Air Nodes
 Component Set,46,BRANCH,SYS_3_PSZ ALL_ST=PENITENTIARY - AUDIENCE_FL=STORY 3_SCH=C MAIN BRANCH,COILSYSTEM:COOLING:DX,COIL COOLING DX SINGLE SPEED 10 COILSYSTEM,NODE 159,NODE 158,Air Nodes
 Component Set,47,BRANCH,SYS_3_PSZ ALL_ST=PENITENTIARY - AUDIENCE_FL=STORY 3_SCH=C MAIN BRANCH,COIL:HEATING:FUEL,COIL HEATING GAS 10,NODE 158,NODE 157,Air Nodes
 Component Set,48,BRANCH,SYS_3_PSZ ALL_ST=PENITENTIARY - AUDIENCE_FL=STORY 3_SCH=C MAIN BRANCH,FAN:CONSTANTVOLUME,FAN CONSTANT VOLUME 10,NODE 157,NODE 151,Air Nodes
 Component Set,49,BRANCH,SYS_3_PSZ ALL_ST=PENITENTIARY - CLASSROOM_FL=STORY 2_SCH=D MAIN BRANCH,AIRLOOPHVAC:OUTDOORAIRSYSTEM,AIR LOOP HVAC OUTDOOR AIR SYSTEM 11,NODE 163,NODE 172,Air Nodes
 Component Set,50,BRANCH,SYS_3_PSZ ALL_ST=PENITENTIARY - CLASSROOM_FL=STORY 2_SCH=D MAIN BRANCH,COILSYSTEM:COOLING:DX,COIL COOLING DX SINGLE SPEED 11 COILSYSTEM,NODE 172,NODE 171,Air Nodes
 Component Set,51,BRANCH,SYS_3_PSZ ALL_ST=PENITENTIARY - CLASSROOM_FL=STORY 2_SCH=D MAIN BRANCH,COIL:HEATING:FUEL,COIL HEATING GAS 11,NODE 171,NODE 170,Air Nodes
 Component Set,52,BRANCH,SYS_3_PSZ ALL_ST=PENITENTIARY - CLASSROOM_FL=STORY 2_SCH=D MAIN BRANCH,FAN:CONSTANTVOLUME,FAN CONSTANT VOLUME 11,NODE 170,NODE 164,Air Nodes
 Component Set,53,BRANCH,SYS_3_PSZ ALL_ST=PENITENTIARY - DINING_FL=STORY 2_SCH=B MAIN BRANCH,AIRLOOPHVAC:OUTDOORAIRSYSTEM,AIR LOOP HVAC OUTDOOR AIR SYSTEM 12,NODE 176,NODE 185,Air Nodes
 Component Set,54,BRANCH,SYS_3_PSZ ALL_ST=PENITENTIARY - DINING_FL=STORY 2_SCH=B MAIN BRANCH,COILSYSTEM:COOLING:DX,COIL COOLING DX SINGLE SPEED 12 COILSYSTEM,NODE 185,NODE 184,Air Nodes
 Component Set,55,BRANCH,SYS_3_PSZ ALL_ST=PENITENTIARY - DINING_FL=STORY 2_SCH=B MAIN BRANCH,COIL:HEATING:FUEL,COIL HEATING GAS 12,NODE 184,NODE 183,Air Nodes
 Component Set,56,BRANCH,SYS_3_PSZ ALL_ST=PENITENTIARY - DINING_FL=STORY 2_SCH=B MAIN BRANCH,FAN:CONSTANTVOLUME,FAN CONSTANT VOLUME 12,NODE 183,NODE 177,Air Nodes
 Component Set,57,BRANCH,SYS_3_PSZ ALL_ST=RELIGIOUS - AUDIENCE_FL=STORY 2_SCH=I MAIN BRANCH,AIRLOOPHVAC:OUTDOORAIRSYSTEM,AIR LOOP HVAC OUTDOOR AIR SYSTEM 13,NODE 189,NODE 198,Air Nodes
 Component Set,58,BRANCH,SYS_3_PSZ ALL_ST=RELIGIOUS - AUDIENCE_FL=STORY 2_SCH=I MAIN BRANCH,COILSYSTEM:COOLING:DX,COIL COOLING DX SINGLE SPEED 13 COILSYSTEM,NODE 198,NODE 197,Air Nodes
 Component Set,59,BRANCH,SYS_3_PSZ ALL_ST=RELIGIOUS - AUDIENCE_FL=STORY 2_SCH=I MAIN BRANCH,COIL:HEATING:FUEL,COIL HEATING GAS 13,NODE 197,NODE 196,Air Nodes
 Component Set,60,BRANCH,SYS_3_PSZ ALL_ST=RELIGIOUS - AUDIENCE_FL=STORY 2_SCH=I MAIN BRANCH,FAN:CONSTANTVOLUME,FAN CONSTANT VOLUME 13,NODE 196,NODE 190,Air Nodes
[...]
 Non-Parent Node Connection,NODE 318,AIRLOOPHVAC:ZONEMIXER,AIR LOOP HVAC ZONE MIXER 16,Outlet,1
 Non-Parent Node Connection,NODE 331,AIRLOOPHVAC:ZONEMIXER,AIR LOOP HVAC ZONE MIXER 16,Inlet,1
 Non-Parent Node Connection,NODE 338,AIRLOOPHVAC:ZONEMIXER,AIR LOOP HVAC ZONE MIXER 17,Outlet,1
 Non-Parent Node Connection,NODE 352,AIRLOOPHVAC:ZONEMIXER,AIR LOOP HVAC ZONE MIXER 17,Inlet,1
 Non-Parent Node Connection,NODE 359,AIRLOOPHVAC:ZONEMIXER,AIR LOOP HVAC ZONE MIXER 17,Inlet,1
 Non-Parent Node Connection,NODE 366,AIRLOOPHVAC:ZONEMIXER,AIR LOOP HVAC ZONE MIXER 18,Outlet,1
 Non-Parent Node Connection,NODE 380,AIRLOOPHVAC:ZONEMIXER,AIR LOOP HVAC ZONE MIXER 18,Inlet,1
 Non-Parent Node Connection,NODE 238,CONTROLLER:OUTDOORAIR,CONTROLLER OUTDOOR AIR 14,Sensor,1
 Non-Parent Node Connection,NODE 234,CONTROLLER:OUTDOORAIR,CONTROLLER OUTDOOR AIR 14,Actuator,1
 Non-Parent Node Connection,NODE 235,CONTROLLER:OUTDOORAIR,CONTROLLER OUTDOOR AIR 14,Actuator,1
 Non-Parent Node Connection,NODE 229,CONTROLLER:OUTDOORAIR,CONTROLLER OUTDOOR AIR 14,Sensor,1
 Non-Parent Node Connection,NODE 281,CONTROLLER:OUTDOORAIR,CONTROLLER OUTDOOR AIR 15,Sensor,1
 Non-Parent Node Connection,NODE 277,CONTROLLER:OUTDOORAIR,CONTROLLER OUTDOOR AIR 15,Actuator,1
 Non-Parent Node Connection,NODE 278,CONTROLLER:OUTDOORAIR,CONTROLLER OUTDOOR AIR 15,Actuator,1
 Non-Parent Node Connection,NODE 272,CONTROLLER:OUTDOORAIR,CONTROLLER OUTDOOR AIR 15,Sensor,1
 Non-Parent Node Connection,NODE 35,CONTROLLER:OUTDOORAIR,CONTROLLER OUTDOOR AIR 1,Sensor,1
 Non-Parent Node Connection,NODE 29,CONTROLLER:OUTDOORAIR,CONTROLLER OUTDOOR AIR 1,Actuator,1
 Non-Parent Node Connection,NODE 30,CONTROLLER:OUTDOORAIR,CONTROLLER OUTDOOR AIR 1,Actuator,1
 Non-Parent Node Connection,NODE 21,CONTROLLER:OUTDOORAIR,CONTROLLER OUTDOOR AIR 1,Sensor,1
 Non-Parent Node Connection,NODE 53,CONTROLLER:OUTDOORAIR,CONTROLLER OUTDOOR AIR 2,Sensor,1
 Non-Parent Node Connection,NODE 47,CONTROLLER:OUTDOORAIR,CONTROLLER OUTDOOR AIR 2,Actuator,1
 Non-Parent Node Connection,NODE 48,CONTROLLER:OUTDOORAIR,CONTROLLER OUTDOOR AIR 2,Actuator,1
 Non-Parent Node Connection,NODE 39,CONTROLLER:OUTDOORAIR,CONTROLLER OUTDOOR AIR 2,Sensor,1
 Non-Parent Node Connection,NODE 68,CONTROLLER:OUTDOORAIR,CONTROLLER OUTDOOR AIR 3,Sensor,1
 Non-Parent Node Connection,NODE 64,CONTROLLER:OUTDOORAIR,CONTROLLER OUTDOOR AIR 3,Actuator,1
 Non-Parent Node Connection,NODE 65,CONTROLLER:OUTDOORAIR,CONTROLLER OUTDOOR AIR 3,Actuator,1
 Non-Parent Node Connection,NODE 59,CONTROLLER:OUTDOORAIR,CONTROLLER OUTDOOR AIR 3,Sensor,1
 Non-Parent Node Connection,NODE 81,CONTROLLER:OUTDOORAIR,CONTROLLER OUTDOOR AIR 4,Sensor,1
 Non-Parent Node Connection,NODE 77,CONTROLLER:OUTDOORAIR,CONTROLLER OUTDOOR AIR 4,Actuator,1
 Non-Parent Node Connection,NODE 78,CONTROLLER:OUTDOORAIR,CONTROLLER OUTDOOR AIR 4,Actuator,1
 Non-Parent Node Connection,NODE 72,CONTROLLER:OUTDOORAIR,CONTROLLER OUTDOOR AIR 4,Sensor,1
 Non-Parent Node Connection,NODE 94,CONTROLLER:OUTDOORAIR,CONTROLLER OUTDOOR AIR 5,Sensor,1
 Non-Parent Node Connection,NODE 90,CONTROLLER:OUTDOORAIR,CONTROLLER OUTDOOR AIR 5,Actuator,1
 Non-Parent Node Connection,NODE 91,CONTROLLER:OUTDOORAIR,CONTROLLER OUTDOOR AIR 5,Actuator,1
 Non-Parent Node Connection,NODE 85,CONTROLLER:OUTDOORAIR,CONTROLLER OUTDOOR AIR 5,Sensor,1
 Non-Parent Node Connection,NODE 107,CONTROLLER:OUTDOORAIR,CONTROLLER OUTDOOR AIR 6,Sensor,1
 Non-Parent Node Connection,NODE 103,CONTROLLER:OUTDOORAIR,CONTROLLER OUTDOOR AIR 6,Actuator,1
 Non-Parent Node Connection,NODE 104,CONTROLLER:OUTDOORAIR,CONTROLLER OUTDOOR AIR 6,Actuator,1
 Non-Parent Node Connection,NODE 98,CONTROLLER:OUTDOORAIR,CONTROLLER OUTDOOR AIR 6,Sensor,1
 Non-Parent Node Connection,NODE 120,CONTROLLER:OUTDOORAIR,CONTROLLER OUTDOOR AIR 7,Sensor,1
 Non-Parent Node Connection,NODE 116,CONTROLLER:OUTDOORAIR,CONTROLLER OUTDOOR AIR 7,Actuator,1
 Non-Parent Node Connection,NODE 117,CONTROLLER:OUTDOORAIR,CONTROLLER OUTDOOR AIR 7,Actuator,1
 Non-Parent Node Connection,NODE 111,CONTROLLER:OUTDOORAIR,CONTROLLER OUTDOOR AIR 7,Sensor,1
 Non-Parent Node Connection,NODE 133,CONTROLLER:OUTDOORAIR,CONTROLLER OUTDOOR AIR 8,Sensor,1
 Non-Parent Node Connection,NODE 129,CONTROLLER:OUTDOORAIR,CONTROLLER OUTDOOR AIR 8,Actuator,1
 Non-Parent Node Connection,NODE 130,CONTROLLER:OUTDOORAIR,CONTROLLER OUTDOOR AIR 8,Actuator,1
 Non-Parent Node Connection,NODE 124,CONTROLLER:OUTDOORAIR,CONTROLLER OUTDOOR AIR 8,Sensor,1
 Non-Parent Node Connection,NODE 146,CONTROLLER:OUTDOORAIR,CONTROLLER OUTDOOR AIR 9,Sensor,1
 Non-Parent Node Connection,NODE 142,CONTROLLER:OUTDOORAIR,CONTROLLER OUTDOOR AIR 9,Actuator,1
 Non-Parent Node Connection,NODE 143,CONTROLLER:OUTDOORAIR,CONTROLLER OUTDOOR AIR 9,Actuator,1
 Non-Parent Node Connection,NODE 137,CONTROLLER:OUTDOORAIR,CONTROLLER OUTDOOR AIR 9,Sensor,1
 Non-Parent Node Connection,NODE 159,CONTROLLER:OUTDOORAIR,CONTROLLER OUTDOOR AIR 10,Sensor,1
 Non-Parent Node Connection,NODE 155,CONTROLLER:OUTDOORAIR,CONTROLLER OUTDOOR AIR 10,Actuator,1
 Non-Parent Node Connection,NODE 156,CONTROLLER:OUTDOORAIR,CONTROLLER OUTDOOR AIR 10,Actuator,1
 Non-Parent Node Connection,NODE 150,CONTROLLER:OUTDOORAIR,CONTROLLER OUTDOOR AIR 10,Sensor,1
 Non-Parent Node Connection,NODE 172,CONTROLLER:OUTDOORAIR,CONTROLLER OUTDOOR AIR 11,Sensor,1
 Non-Parent Node Connection,NODE 168,CONTROLLER:OUTDOORAIR,CONTROLLER OUTDOOR AIR 11,Actuator,1
 Non-Parent Node Connection,NODE 169,CONTROLLER:OUTDOORAIR,CONTROLLER OUTDOOR AIR 11,Actuator,1
 Non-Parent Node Connection,NODE 163,CONTROLLER:OUTDOORAIR,CONTROLLER OUTDOOR AIR 11,Sensor,1
 Non-Parent Node Connection,NODE 185,CONTROLLER:OUTDOORAIR,CONTROLLER OUTDOOR AIR 12,Sensor,1
 Non-Parent Node Connection,NODE 181,CONTROLLER:OUTDOORAIR,CONTROLLER OUTDOOR AIR 12,Actuator,1
 Non-Parent Node Connection,NODE 182,CONTROLLER:OUTDOORAIR,CONTROLLER OUTDOOR AIR 12,Actuator,1
 Non-Parent Node Connection,NODE 176,CONTROLLER:OUTDOORAIR,CONTROLLER OUTDOOR AIR 12,Sensor,1
 Non-Parent Node Connection,NODE 198,CONTROLLER:OUTDOORAIR,CONTROLLER OUTDOOR AIR 13,Sensor,1
 Non-Parent Node Connection,NODE 194,CONTROLLER:OUTDOORAIR,CONTROLLER OUTDOOR AIR 13,Actuator,1
 Non-Parent Node Connection,NODE 195,CONTROLLER:OUTDOORAIR,CONTROLLER OUTDOOR AIR 13,Actuator,1
 Non-Parent Node Connection,NODE 189,CONTROLLER:OUTDOORAIR,CONTROLLER OUTDOOR AIR 13,Sensor,1
 Non-Parent Node Connection,NODE 393,CONTROLLER:OUTDOORAIR,CONTROLLER OUTDOOR AIR 19,Sensor,1
 Non-Parent Node Connection,NODE 389,CONTROLLER:OUTDOORAIR,CONTROLLER OUTDOOR AIR 19,Actuator,1
 Non-Parent Node Connection,NODE 390,CONTROLLER:OUTDOORAIR,CONTROLLER OUTDOOR AIR 19,Actuator,1
 Non-Parent Node Connection,NODE 384,CONTROLLER:OUTDOORAIR,CONTROLLER OUTDOOR AIR 19,Sensor,1
 Non-Parent Node Connection,NODE 327,CONTROLLER:OUTDOORAIR,CONTROLLER OUTDOOR AIR 16,Sensor,1
 Non-Parent Node Connection,NODE 323,CONTROLLER:OUTDOORAIR,CONTROLLER OUTDOOR AIR 16,Actuator,1
 Non-Parent Node Connection,NODE 324,CONTROLLER:OUTDOORAIR,CONTROLLER OUTDOOR AIR 16,Actuator,1
 Non-Parent Node Connection,NODE 328,CONTROLLER:OUTDOORAIR,CONTROLLER OUTDOOR AIR 16,Sensor,1
 Non-Parent Node Connection,NODE 348,CONTROLLER:OUTDOORAIR,CONTROLLER OUTDOOR AIR 17,Sensor,1
 Non-Parent Node Connection,NODE 344,CONTROLLER:OUTDOORAIR,CONTROLLER OUTDOOR AIR 17,Actuator,1
 Non-Parent Node Connection,NODE 345,CONTROLLER:OUTDOORAIR,CONTROLLER OUTDOOR AIR 17,Actuator,1
 Non-Parent Node Connection,NODE 349,CONTROLLER:OUTDOORAIR,CONTROLLER OUTDOOR AIR 17,Sensor,1
 Non-Parent Node Connection,NODE 376,CONTROLLER:OUTDOORAIR,CONTROLLER OUTDOOR AIR 18,Sensor,1
 Non-Parent Node Connection,NODE 372,CONTROLLER:OUTDOORAIR,CONTROLLER OUTDOOR AIR 18,Actuator,1
 Non-Parent Node Connection,NODE 373,CONTROLLER:OUTDOORAIR,CONTROLLER OUTDOOR AIR 18,Actuator,1
 Non-Parent Node Connection,NODE 377,CONTROLLER:OUTDOORAIR,CONTROLLER OUTDOOR AIR 18,Sensor,1
 Non-Parent Node Connection,NODE 238,COIL:COOLING:DX:SINGLESPEED,COIL COOLING DX SINGLE SPEED 14,Inlet,1
 Non-Parent Node Connection,NODE 237,COIL:COOLING:DX:SINGLESPEED,COIL COOLING DX SINGLE SPEED 14,Outlet,1
 Non-Parent Node Connection,NODE 281,COIL:COOLING:DX:SINGLESPEED,COIL COOLING DX SINGLE SPEED 15,Inlet,1
 Non-Parent Node Connection,NODE 280,COIL:COOLING:DX:SINGLESPEED,COIL COOLING DX SINGLE SPEED 15,Outlet,1
 Non-Parent Node Connection,NODE 35,COIL:COOLING:DX:SINGLESPEED,COIL COOLING DX SINGLE SPEED 1,Inlet,1
 Non-Parent Node Connection,NODE 33,COIL:COOLING:DX:SINGLESPEED,COIL COOLING DX SINGLE SPEED 1,Outlet,1
 Non-Parent Node Connection,NODE 53,COIL:COOLING:DX:SINGLESPEED,COIL COOLING DX SINGLE SPEED 2,Inlet,1
 Non-Parent Node Connection,NODE 51,COIL:COOLING:DX:SINGLESPEED,COIL COOLING DX SINGLE SPEED 2,Outlet,1
 Non-Parent Node Connection,NODE 68,COIL:COOLING:DX:SINGLESPEED,COIL COOLING DX SINGLE SPEED 3,Inlet,1
 Non-Parent Node Connection,NODE 67,COIL:COOLING:DX:SINGLESPEED,COIL COOLING DX SINGLE SPEED 3,Outlet,1
 Non-Parent Node Connection,NODE 81,COIL:COOLING:DX:SINGLESPEED,COIL COOLING DX SINGLE SPEED 4,Inlet,1
 Non-Parent Node Connection,NODE 80,COIL:COOLING:DX:SINGLESPEED,COIL COOLING DX SINGLE SPEED 4,Outlet,1
 Non-Parent Node Connection,NODE 94,COIL:COOLING:DX:SINGLESPEED,COIL COOLING DX SINGLE SPEED 5,Inlet,1
 Non-Parent Node Connection,NODE 93,COIL:COOLING:DX:SINGLESPEED,COIL COOLING DX SINGLE SPEED 5,Outlet,1
 Non-Parent Node Connection,NODE 107,COIL:COOLING:DX:SINGLESPEED,COIL COOLING DX SINGLE SPEED 6,Inlet,1
 Non-Parent Node Connection,NODE 106,COIL:COOLING:DX:SINGLESPEED,COIL COOLING DX SINGLE SPEED 6,Outlet,1
 Non-Parent Node Connection,NODE 120,COIL:COOLING:DX:SINGLESPEED,COIL COOLING DX SINGLE SPEED 7,Inlet,1
 Non-Parent Node Connection,NODE 119,COIL:COOLING:DX:SINGLESPEED,COIL COOLING DX SINGLE SPEED 7,Outlet,1
 Non-Parent Node Connection,NODE 133,COIL:COOLING:DX:SINGLESPEED,COIL COOLING DX SINGLE SPEED 8,Inlet,1
 Non-Parent Node Connection,NODE 132,COIL:COOLING:DX:SINGLESPEED,COIL COOLING DX SINGLE SPEED 8,Outlet,1
 Non-Parent Node Connection,NODE 146,COIL:COOLING:DX:SINGLESPEED,COIL COOLING DX SINGLE SPEED 9,Inlet,1
 Non-Parent Node Connection,NODE 145,COIL:COOLING:DX:SINGLESPEED,COIL COOLING DX SINGLE SPEED 9,Outlet,1
 Non-Parent Node Connection,NODE 159,COIL:COOLING:DX:SINGLESPEED,COIL COOLING DX SINGLE SPEED 10,Inlet,1
 Non-Parent Node Connection,NODE 158,COIL:COOLING:DX:SINGLESPEED,COIL COOLING DX SINGLE SPEED 10,Outlet,1
 Non-Parent Node Connection,NODE 172,COIL:COOLING:DX:SINGLESPEED,COIL COOLING DX SINGLE SPEED 11,Inlet,1
 Non-Parent Node Connection,NODE 171,COIL:COOLING:DX:SINGLESPEED,COIL COOLING DX SINGLE SPEED 11,Outlet,1
 Non-Parent Node Connection,NODE 185,COIL:COOLING:DX:SINGLESPEED,COIL COOLING DX SINGLE SPEED 12,Inlet,1
 Non-Parent Node Connection,NODE 184,COIL:COOLING:DX:SINGLESPEED,COIL COOLING DX SINGLE SPEED 12,Outlet,1
 Non-Parent Node Connection,NODE 198,COIL:COOLING:DX:SINGLESPEED,COIL COOLING DX SINGLE SPEED 13,Inlet,1
 Non-Parent Node Connection,NODE 197,COIL:COOLING:DX:SINGLESPEED,COIL COOLING DX SINGLE SPEED 13,Outlet,1
 Non-Parent Node Connection,NODE 393,COIL:COOLING:DX:SINGLESPEED,COIL COOLING DX SINGLE SPEED 16,Inlet,1
 Non-Parent Node Connection,NODE 392,COIL:COOLING:DX:SINGLESPEED,COIL COOLING DX SINGLE SPEED 16,Outlet,1
 Non-Parent Node Connection,NODE 237,COIL:HEATING:FUEL,COIL HEATING GAS 14,Inlet,1
 Non-Parent Node Connection,NODE 236,COIL:HEATING:FUEL,COIL HEATING GAS 14,Outlet,1
 Non-Parent Node Connection,NODE 236,COIL:HEATING:FUEL,COIL HEATING GAS 14,Sensor,1
 Non-Parent Node Connection,NODE 280,COIL:HEATING:FUEL,COIL HEATING GAS 15,Inlet,1
 Non-Parent Node Connection,NODE 279,COIL:HEATING:FUEL,COIL HEATING GAS 15,Outlet,1
 Non-Parent Node Connection,NODE 279,COIL:HEATING:FUEL,COIL HEATING GAS 15,Sensor,1
 Non-Parent Node Connection,NODE 33,COIL:HEATING:FUEL,COIL HEATING GAS 1,Inlet,1
 Non-Parent Node Connection,NODE 32,COIL:HEATING:FUEL,COIL HEATING GAS 1,Outlet,1
 Non-Parent Node Connection,NODE 32,COIL:HEATING:FUEL,COIL HEATING GAS 1,Sensor,1
 Non-Parent Node Connection,NODE 51,COIL:HEATING:FUEL,COIL HEATING GAS 2,Inlet,1
 Non-Parent Node Connection,NODE 50,COIL:HEATING:FUEL,COIL HEATING GAS 2,Outlet,1
 Non-Parent Node Connection,NODE 50,COIL:HEATING:FUEL,COIL HEATING GAS 2,Sensor,1
 Non-Parent Node Connection,NODE 67,COIL:HEATING:FUEL,COIL HEATING GAS 3,Inlet,1
 Non-Parent Node Connection,NODE 66,COIL:HEATING:FUEL,COIL HEATING GAS 3,Outlet,1
 Non-Parent Node Connection,NODE 66,COIL:HEATING:FUEL,COIL HEATING GAS 3,Sensor,1
 Non-Parent Node Connection,NODE 80,COIL:HEATING:FUEL,COIL HEATING GAS 4,Inlet,1
 Non-Parent Node Connection,NODE 79,COIL:HEATING:FUEL,COIL HEATING GAS 4,Outlet,1
 Non-Parent Node Connection,NODE 79,COIL:HEATING:FUEL,COIL HEATING GAS 4,Sensor,1
 Non-Parent Node Connection,NODE 93,COIL:HEATING:FUEL,COIL HEATING GAS 5,Inlet,1
 Non-Parent Node Connection,NODE 92,COIL:HEATING:FUEL,COIL HEATING GAS 5,Outlet,1
 Non-Parent Node Connection,NODE 92,COIL:HEATING:FUEL,COIL HEATING GAS 5,Sensor,1
 Non-Parent Node Connection,NODE 106,COIL:HEATING:FUEL,COIL HEATING GAS 6,Inlet,1
 Non-Parent Node Connection,NODE 105,COIL:HEATING:FUEL,COIL HEATING GAS 6,Outlet,1
 Non-Parent Node Connection,NODE 105,COIL:HEATING:FUEL,COIL HEATING GAS 6,Sensor,1
 Non-Parent Node Connection,NODE 119,COIL:HEATING:FUEL,COIL HEATING GAS 7,Inlet,1
 Non-Parent Node Connection,NODE 118,COIL:HEATING:FUEL,COIL HEATING GAS 7,Outlet,1
 Non-Parent Node Connection,NODE 118,COIL:HEATING:FUEL,COIL HEATING GAS 7,Sensor,1
 Non-Parent Node Connection,NODE 132,COIL:HEATING:FUEL,COIL HEATING GAS 8,Inlet,1
 Non-Parent Node Connection,NODE 131,COIL:HEATING:FUEL,COIL HEATING GAS 8,Outlet,1
 Non-Parent Node Connection,NODE 131,COIL:HEATING:FUEL,COIL HEATING GAS 8,Sensor,1
 Non-Parent Node Connection,NODE 145,COIL:HEATING:FUEL,COIL HEATING GAS 9,Inlet,1
 Non-Parent Node Connection,NODE 144,COIL:HEATING:FUEL,COIL HEATING GAS 9,Outlet,1
 Non-Parent Node Connection,NODE 144,COIL:HEATING:FUEL,COIL HEATING GAS 9,Sensor,1
 Non-Parent Node Connection,NODE 158,COIL:HEATING:FUEL,COIL HEATING GAS 10,Inlet,1
 Non-Parent Node Connection,NODE 157,COIL:HEATING:FUEL,COIL HEATING GAS 10,Outlet,1
 Non-Parent Node Connection,NODE 157,COIL:HEATING:FUEL,COIL HEATING GAS 10,Sensor,1
 Non-Parent Node Connection,NODE 171,COIL:HEATING:FUEL,COIL HEATING GAS 11,Inlet,1
 Non-Parent Node Connection,NODE 170,COIL:HEATING:FUEL,COIL HEATING GAS 11,Outlet,1
 Non-Parent Node Connection,NODE 170,COIL:HEATING:FUEL,COIL HEATING GAS 11,Sensor,1
 Non-Parent Node Connection,NODE 184,COIL:HEATING:FUEL,COIL HEATING GAS 12,Inlet,1
 Non-Parent Node Connection,NODE 183,COIL:HEATING:FUEL,COIL HEATING GAS 12,Outlet,1
 Non-Parent Node Connection,NODE 183,COIL:HEATING:FUEL,COIL HEATING GAS 12,Sensor,1
 Non-Parent Node Connection,NODE 197,COIL:HEATING:FUEL,COIL HEATING GAS 13,Inlet,1
 Non-Parent Node Connection,NODE 196,COIL:HEATING:FUEL,COIL HEATING GAS 13,Outlet,1
 Non-Parent Node Connection,NODE 196,COIL:HEATING:FUEL,COIL HEATING GAS 13,Sensor,1
 Non-Parent Node Connection,NODE 392,COIL:HEATING:FUEL,COIL HEATING GAS 16,Inlet,1
 Non-Parent Node Connection,NODE 391,COIL:HEATING:FUEL,COIL HEATING GAS 16,Outlet,1
 Non-Parent Node Connection,NODE 391,COIL:HEATING:FUEL,COIL HEATING GAS 16,Sensor,1
 Non-Parent Node Connection,NODE 204,CHILLER:ELECTRIC:EIR,PRIMARY CHILLER WATERCOOLED SCROLL,Inlet,1
 Non-Parent Node Connection,NODE 209,CHILLER:ELECTRIC:EIR,PRIMARY CHILLER WATERCOOLED SCROLL,Outlet,1
 Non-Parent Node Connection,NODE 220,CHILLER:ELECTRIC:EIR,PRIMARY CHILLER WATERCOOLED SCROLL,Inlet,2
 Non-Parent Node Connection,NODE 226,CHILLER:ELECTRIC:EIR,PRIMARY CHILLER WATERCOOLED SCROLL,Outlet,2
 Non-Parent Node Connection,NODE 210,CHILLER:ELECTRIC:EIR,SECONDARY CHILLER WATERCOOLED SCROLL,Inlet,1
 Non-Parent Node Connection,NODE 211,CHILLER:ELECTRIC:EIR,SECONDARY CHILLER WATERCOOLED SCROLL,Outlet,1
 Non-Parent Node Connection,NODE 227,CHILLER:ELECTRIC:EIR,SECONDARY CHILLER WATERCOOLED SCROLL,Inlet,2
 Non-Parent Node Connection,NODE 228,CHILLER:ELECTRIC:EIR,SECONDARY CHILLER WATERCOOLED SCROLL,Outlet,2
 Non-Parent Node Connection,NODE 247,CHILLER:ELECTRIC:EIR,PRIMARY CHILLER WATERCOOLED SCROLL 1,Inlet,1
 Non-Parent Node Connection,NODE 252,CHILLER:ELECTRIC:EIR,PRIMARY CHILLER WATERCOOLED SCROLL 1,Outlet,1
 Non-Parent Node Connection,NODE 263,CHILLER:ELECTRIC:EIR,PRIMARY CHILLER WATERCOOLED SCROLL 1,Inlet,2
 Non-Parent Node Connection,NODE 269,CHILLER:ELECTRIC:EIR,PRIMARY CHILLER WATERCOOLED SCROLL 1,Outlet,2
 Non-Parent Node Connection,NODE 253,CHILLER:ELECTRIC:EIR,SECONDARY CHILLER WATERCOOLED SCROLL 1,Inlet,1
 Non-Parent Node Connection,NODE 254,CHILLER:ELECTRIC:EIR,SECONDARY CHILLER WATERCOOLED SCROLL 1,Outlet,1
 Non-Parent Node Connection,NODE 270,CHILLER:ELECTRIC:EIR,SECONDARY CHILLER WATERCOOLED SCROLL 1,Inlet,2
 Non-Parent Node Connection,NODE 271,CHILLER:ELECTRIC:EIR,SECONDARY CHILLER WATERCOOLED SCROLL 1,Outlet,2
 Non-Parent Node Connection,NODE 290,CHILLER:ELECTRIC:EIR,PRIMARY CHILLER WATERCOOLED SCROLL 2,Inlet,1
 Non-Parent Node Connection,NODE 295,CHILLER:ELECTRIC:EIR,PRIMARY CHILLER WATERCOOLED SCROLL 2,Outlet,1
 Non-Parent Node Connection,NODE 306,CHILLER:ELECTRIC:EIR,PRIMARY CHILLER WATERCOOLED SCROLL 2,Inlet,2
 Non-Parent Node Connection,NODE 312,CHILLER:ELECTRIC:EIR,PRIMARY CHILLER WATERCOOLED SCROLL 2,Outlet,2
 Non-Parent Node Connection,NODE 296,CHILLER:ELECTRIC:EIR,SECONDARY CHILLER WATERCOOLED SCROLL 2,Inlet,1
 Non-Parent Node Connection,NODE 297,CHILLER:ELECTRIC:EIR,SECONDARY CHILLER WATERCOOLED SCROLL 2,Outlet,1
 Non-Parent Node Connection,NODE 313,CHILLER:ELECTRIC:EIR,SECONDARY CHILLER WATERCOOLED SCROLL 2,Inlet,2
 Non-Parent Node Connection,NODE 314,CHILLER:ELECTRIC:EIR,SECONDARY CHILLER WATERCOOLED SCROLL 2,Outlet,2
 Non-Parent Node Connection,NODE 217,COOLINGTOWER:SINGLESPEED,COOLING TOWER SINGLE SPEED 1,Inlet,1
 Non-Parent Node Connection,NODE 222,COOLINGTOWER:SINGLESPEED,COOLING TOWER SINGLE SPEED 1,Outlet,1
 Non-Parent Node Connection,NODE 260,COOLINGTOWER:SINGLESPEED,COOLING TOWER SINGLE SPEED 2,Inlet,1
 Non-Parent Node Connection,NODE 265,COOLINGTOWER:SINGLESPEED,COOLING TOWER SINGLE SPEED 2,Outlet,1
 Non-Parent Node Connection,NODE 303,COOLINGTOWER:SINGLESPEED,COOLING TOWER SINGLE SPEED 3,Inlet,1
 Non-Parent Node Connection,NODE 308,COOLINGTOWER:SINGLESPEED,COOLING TOWER SINGLE SPEED 3,Outlet,1
 Non-Parent Node Connection,NODE 5,BOILER:HOTWATER,PRIMARY BOILER,Inlet,1
 Non-Parent Node Connection,NODE 12,BOILER:HOTWATER,PRIMARY BOILER,Outlet,1
 Non-Parent Node Connection,NODE 14,BOILER:HOTWATER,SECONDARY BOILER,Inlet,1
 Non-Parent Node Connection,NODE 15,BOILER:HOTWATER,SECONDARY BOILER,Outlet,1
 Non-Parent Node Connection,NODE 2,PUMP:VARIABLESPEED,PUMP VARIABLE SPEED 1,Inlet,1
 Non-Parent Node Connection,NODE 11,PUMP:VARIABLESPEED,PUMP VARIABLE SPEED 1,Outlet,1
 Non-Parent Node Connection,NODE 202,PUMP:CONSTANTSPEED,PUMP CONSTANT SPEED 1,Inlet,1
 Non-Parent Node Connection,NODE 208,PUMP:CONSTANTSPEED,PUMP CONSTANT SPEED 1,Outlet,1
 Non-Parent Node Connection,NODE 245,PUMP:CONSTANTSPEED,PUMP CONSTANT SPEED 3,Inlet,1
 Non-Parent Node Connection,NODE 251,PUMP:CONSTANTSPEED,PUMP CONSTANT SPEED 3,Outlet,1
 Non-Parent Node Connection,NODE 288,PUMP:CONSTANTSPEED,PUMP CONSTANT SPEED 5,Inlet,1
 Non-Parent Node Connection,NODE 294,PUMP:CONSTANTSPEED,PUMP CONSTANT SPEED 5,Outlet,1
 Non-Parent Node Connection,NODE 215,PUMP:CONSTANTSPEED,PUMP CONSTANT SPEED 2,Inlet,1
 Non-Parent Node Connection,NODE 221,PUMP:CONSTANTSPEED,PUMP CONSTANT SPEED 2,Outlet,1
 Non-Parent Node Connection,NODE 258,PUMP:CONSTANTSPEED,PUMP CONSTANT SPEED 4,Inlet,1
 Non-Parent Node Connection,NODE 264,PUMP:CONSTANTSPEED,PUMP CONSTANT SPEED 4,Outlet,1
 Non-Parent Node Connection,NODE 301,PUMP:CONSTANTSPEED,PUMP CONSTANT SPEED 6,Inlet,1
 Non-Parent Node Connection,NODE 307,PUMP:CONSTANTSPEED,PUMP CONSTANT SPEED 6,Outlet,1
 Non-Parent Node Connection,NODE 397,PUMP:CONSTANTSPEED,SERVICE WATER LOOP PUMP,Inlet,1
 Non-Parent Node Connection,NODE 403,PUMP:CONSTANTSPEED,SERVICE WATER LOOP PUMP,Outlet,1
