Program Version,EnergyPlus, Version 8.9.0-eba93e8e1b, YMD=2019.03.20 17:53
! <Version>, Version ID
 Version, 8.9
! <Timesteps per Hour>, #TimeSteps, Minutes per TimeStep {minutes}
 Timesteps per Hour,  6, 10
! <System Convergence Limits>, Minimum System TimeStep {minutes}, Max HVAC Iterations, Minimum Plant Iterations, Maximum Plant Iterations
 System Convergence Limits, 1, 20, 2, 8
! <Simulation Control>, Do Zone Sizing, Do System Sizing, Do Plant Sizing, Do Design Days, Do Weather Simulation, Do HVAC Sizing Simulation
 Simulation Control, Yes, Yes, Yes, Yes, No, No
! <Output Reporting Tolerances>, Tolerance for Time Heating Setpoint Not Met, Tolerance for Zone Cooling Setpoint Not Met Time
 Output Reporting Tolerances, 1.000, 1.000, 
! <Site:GroundTemperature:BuildingSurface>,Jan{C},Feb{C},Mar{C},Apr{C},May{C},Jun{C},Jul{C},Aug{C},Sep{C},Oct{C},Nov{C},Dec{C}
 Site:GroundTemperature:BuildingSurface,  19.53,  19.50,  19.54,  19.60,  20.00,  21.64,  22.23,  22.38,  21.45,  20.12,  19.80,  19.63
! <Site:GroundTemperature:FCfactorMethod>,Jan{C},Feb{C},Mar{C},Apr{C},May{C},Jun{C},Jul{C},Aug{C},Sep{C},Oct{C},Nov{C},Dec{C}
 Site:GroundTemperature:FCfactorMethod, -12.27, -13.66, -11.19,  -7.33,   2.77,  10.57,  15.83,  17.43,  14.70,   8.65,   0.56,  -6.95
! <Site:GroundTemperature:Shallow>,Jan{C},Feb{C},Mar{C},Apr{C},May{C},Jun{C},Jul{C},Aug{C},Sep{C},Oct{C},Nov{C},Dec{C}
 Site:GroundTemperature:Shallow,  13.00,  13.00,  13.00,  13.00,  13.00,  13.00,  13.00,  13.00,  13.00,  13.00,  13.00,  13.00
! <Site:GroundTemperature:Deep>,Jan{C},Feb{C},Mar{C},Apr{C},May{C},Jun{C},Jul{C},Aug{C},Sep{C},Oct{C},Nov{C},Dec{C}
 Site:GroundTemperature:Deep,  16.00,  16.00,  16.00,  16.00,  16.00,  16.00,  16.00,  16.00,  16.00,  16.00,  16.00,  16.00
! <Site:GroundReflectance>,Jan{dimensionless},Feb{dimensionless},Mar{dimensionless},Apr{dimensionless},May{dimensionless},Jun{dimensionless},Jul{dimensionless},Aug{dimensionless},Sep{dimensionless},Oct{dimensionless},Nov{dimensionless},Dec{dimensionless}
 Site:GroundReflectance,  0.20,  0.20,  0.20,  0.20,  0.20,  0.20,  0.20,  0.20,  0.20,  0.20,  0.20,  0.20
! <Site:GroundReflectance:SnowModifier>, Normal, Daylighting {dimensionless}
 Site:GroundReflectance:SnowModifier,   1.000,   1.000
! <Site:GroundReflectance:Snow>,Jan{dimensionless},Feb{dimensionless},Mar{dimensionless},Apr{dimensionless},May{dimensionless},Jun{dimensionless},Jul{dimensionless},Aug{dimensionless},Sep{dimensionless},Oct{dimensionless},Nov{dimensionless},Dec{dimensionless}
 Site:GroundReflectance:Snow,  0.20,  0.20,  0.20,  0.20,  0.20,  0.20,  0.20,  0.20,  0.20,  0.20,  0.20,  0.20
! <Site:GroundReflectance:Snow:Daylighting>,Jan{dimensionless},Feb{dimensionless},Mar{dimensionless},Apr{dimensionless},May{dimensionless},Jun{dimensionless},Jul{dimensionless},Aug{dimensionless},Sep{dimensionless},Oct{dimensionless},Nov{dimensionless},Dec{dimensionless}
 Site:GroundReflectance:Snow:Daylighting,  0.20,  0.20,  0.20,  0.20,  0.20,  0.20,  0.20,  0.20,  0.20,  0.20,  0.20,  0.20
! <Environment:Weather Station>,Wind Sensor Height Above Ground {m},Wind Speed Profile Exponent {},Wind Speed Profile Boundary Layer Thickness {m},Air Temperature Sensor Height Above Ground {m},Wind Speed Modifier Coefficient-Internal,Temperature Modifier Coefficient-Internal
Environment:Weather Station,10.000,0.140,270.000,1.500,1.586,9.750E-003
! <Site:Location>, Location Name, Latitude {N+/S- Deg}, Longitude {E+/W- Deg},  Time Zone Number {GMT+/-}, Elevation {m},  Standard Pressure at Elevation {Pa}, Standard RhoAir at Elevation
Site:Location,Fort McMurray AP AB CAN CWEC2016 WMO#=716890,56.65,-111.22,-7.00,369.10,96969,1.1525
! <Building Information>, Building Name,North Axis {deg},Terrain,  Loads Convergence Tolerance Value,Temperature Convergence Tolerance Value,  Solar Distribution,Maximum Number of Warmup Days,Minimum Number of Warmup Days
 Building Information,Building 1,0.000,Suburbs,4.00000E-002,0.40000,FullExterior,25,6
! <Inside Convection Algorithm>, Algorithm {Simple | TARP | CeilingDiffuser | AdaptiveConvectionAlgorithm}
Inside Convection Algorithm,TARP
! <Outside Convection Algorithm>, Algorithm {SimpleCombined | TARP | MoWitt | DOE-2 | AdaptiveConvectionAlgorithm}
Outside Convection Algorithm,TARP
! <Sky Radiance Distribution>, Value {Anisotropic}
Sky Radiance Distribution,Anisotropic
! <Zone Air Solution Algorithm>, Value {ThirdOrderBackwardDifference | AnalyticalSolution | EulerMethod}
 Zone Air Solution Algorithm, ThirdOrderBackwardDifference
! <Zone Air Carbon Dioxide Balance Simulation>, Simulation {Yes/No}, Carbon Dioxide Concentration
 Zone Air Carbon Dioxide Balance Simulation, No,N/A
! <Zone Air Generic Contaminant Balance Simulation>, Simulation {Yes/No}, Generic Contaminant Concentration
 Zone Air Generic Contaminant Balance Simulation, No,N/A
! <Zone Air Mass Flow Balance Simulation>, Enforce Mass Balance, Adjust Zone Mixing, Adjust Zone Infiltration {AddInfiltration | AdjustInfiltration | None}, Infiltration Zones {MixingSourceZonesOnly | AllZones}
 Zone Air Mass Flow Balance Simulation, No,N/A,N/A,N/A
! <HVACSystemRootFindingAlgorithm>, Value {RegulaFalsi | Bisection | BisectionThenRegulaFalsi | RegulaFalsiThenBisection}
 HVACSystemRootFindingAlgorithm, RegulaFalsi
! <Environment:Site Atmospheric Variation>,Wind Speed Profile Exponent {},Wind Speed Profile Boundary Layer Thickness {m},Air Temperature Gradient Coefficient {K/m}
Environment:Site Atmospheric Variation,0.220,370.000,6.500000E-003
! <Surface Geometry>,Starting Corner,Vertex Input Direction,Coordinate System,Daylight Reference Point Coordinate System,Rectangular (Simple) Surface Coordinate System
 Surface Geometry,UpperLeftCorner,Counterclockwise,RelativeCoordinateSystem,RelativeCoordinateSystem,RelativeToZoneOrigin
! <Surface Heat Transfer Algorithm>, Value {CTF - ConductionTransferFunction | EMPD - MoisturePenetrationDepthConductionTransferFunction | CondFD - ConductionFiniteDifference | HAMT - CombinedHeatAndMoistureFiniteElement} - Description,Inside Surface Max Temperature Limit{C}, Surface Convection Coefficient Lower Limit {W/m2-K}, Surface Convection Coefficient Upper Limit {W/m2-K}
Surface Heat Transfer Algorithm, CTF - ConductionTransferFunction,200,0.10,1000.0
! <Shading Summary>, Number of Fixed Detached Shades, Number of Building Detached Shades, Number of Attached Shades
 Shading Summary,0,0,0
! <Zone Summary>, Number of Zones, Number of Zone Surfaces, Number of SubSurfaces
 Zone Summary,20,137,17
! <Zone Information>,Zone Name,North Axis {deg},Origin X-Coordinate {m},Origin Y-Coordinate {m},Origin Z-Coordinate {m},Centroid X-Coordinate {m},Centroid Y-Coordinate {m},Centroid Z-Coordinate {m},Type,Zone Multiplier,Zone List Multiplier,Minimum X {m},Maximum X {m},Minimum Y {m},Maximum Y {m},Minimum Z {m},Maximum Z {m},Ceiling Height {m},Volume {m3},Zone Inside Convection Algorithm {Simple-Detailed-CeilingDiffuser-TrombeWall},Zone Outside Convection Algorithm {Simple-Detailed-Tarp-MoWitt-DOE-2-BLAST}, Floor Area {m2},Exterior Gross Wall Area {m2},Exterior Net Wall Area {m2},Exterior Window Area {m2}, Number of Surfaces, Number of SubSurfaces, Number of Shading SubSurfaces,  Part of Total Building Area
 Zone Information, ALL_ST=ATRIUM - H < 13M_FL=STORY 2_SCH=C,0.0,0.00,0.00,3.80,10.85,50.00,5.70,1,1,1,0.00,25.00,0.00,100.00,3.80,7.60,3.80,7125.00,TARP,TARP,1875.00,380.00,285.00,95.00,6,1,0,Yes
 Zone Information, ALL_ST=ATRIUM - H > 13M_FL=STORY 4_SCH=C,0.0,25.00,25.00,11.40,50.00,50.00,13.30,1,1,1,25.00,75.00,25.00,75.00,11.40,15.20,3.80,9500.00,TARP,TARP,2500.00,0.00,0.00,125.00,6,1,0,Yes
 Zone Information, ALL_ST=AUDIENCE - AUDITORIUM_FL=STORY 1_SCH=C,0.0,0.00,0.00,0.00,10.85,50.00,1.90,1,1,1,0.00,25.00,0.00,100.00,0.00,3.80,3.80,7125.00,TARP,TARP,1875.00,0.00,0.00,0.00,6,0,0,Yes
 Zone Information, ALL_ST=AUDIENCE - MOTION PICTURE_FL=STORY 1_SCH=C,0.0,75.00,25.00,0.00,89.15,50.00,1.90,1,1,1,75.00,100.00,0.00,100.00,0.00,3.80,3.80,7125.00,TARP,TARP,1875.00,0.00,0.00,0.00,6,0,0,Yes
 Zone Information, ALL_ST=AUDIENCE - PERFORMANCE ARTS_FL=STORY 3_SCH=C,0.0,75.00,25.00,7.60,89.15,50.00,9.50,1,1,1,75.00,100.00,0.00,100.00,7.60,11.40,3.80,7125.00,TARP,TARP,1875.00,380.00,285.00,95.00,6,1,0,Yes
 Zone Information, ALL_ST=AUTOMOTIVE - REPAIR_FL=STORY 1_SCH=E,0.0,0.00,0.00,0.00,50.00,10.85,1.90,1,1,1,0.00,100.00,0.00,25.00,0.00,3.80,3.80,7125.00,TARP,TARP,1875.00,0.00,0.00,0.00,6,0,0,Yes
 Zone Information, ALL_ST=BANK - BANKING AND OFFICES_FL=STORY 1_SCH=A,0.0,25.00,25.00,0.00,50.00,50.00,1.90,1,1,1,25.00,75.00,25.00,75.00,0.00,3.80,3.80,9500.00,TARP,TARP,2500.00,0.00,0.00,0.00,6,0,0,Yes
 Zone Information, ALL_ST=CLASSROOM/LECTURE/TRAINING_FL=STORY 2_SCH=D,0.0,25.00,75.00,3.80,50.00,89.15,5.70,1,1,1,0.00,100.00,75.00,100.00,3.80,7.60,3.80,7125.00,TARP,TARP,1875.00,380.00,285.00,95.00,6,1,0,Yes
 Zone Information, ALL_ST=CONF./MEET./MULTI-PURPOSE_FL=STORY 4_SCH=C,0.0,0.00,0.00,11.40,10.85,50.00,13.30,1,1,1,0.00,25.00,0.00,100.00,11.40,15.20,3.80,7125.00,TARP,TARP,1875.00,380.00,285.00,188.75,6,2,0,Yes
 Zone Information, ALL_ST=CONVENTION CENTRE - AUDIENCE_FL=STORY 3_SCH=C,0.0,0.00,0.00,7.60,50.00,10.85,9.50,1,1,1,0.00,100.00,0.00,25.00,7.60,11.40,3.80,7125.00,TARP,TARP,1875.00,380.00,285.00,95.00,6,1,0,Yes
 Zone Information, ALL_ST=CONVENTION CENTRE - EXHIBIT_FL=STORY 2_SCH=C,0.0,75.00,25.00,3.80,89.15,50.00,5.70,1,1,1,75.00,100.00,0.00,100.00,3.80,7.60,3.80,7125.00,TARP,TARP,1875.00,380.00,285.00,95.00,6,1,0,Yes
 Zone Information, ALL_ST=WHOLEBUILDING_FL=STORY 1_SCH=D,0.0,25.00,75.00,0.00,50.00,89.15,1.90,1,1,1,0.00,100.00,75.00,100.00,0.00,3.80,3.80,7125.00,TARP,TARP,1875.00,0.00,0.00,0.00,6,0,0,Yes
 Zone Information, ALL_ST=WHOLEBUILDING_FL=STORY 2_SCH=C,0.0,0.00,0.00,3.80,50.00,10.85,5.70,1,1,1,0.00,100.00,0.00,25.00,3.80,7.60,3.80,7125.00,TARP,TARP,1875.00,380.00,285.00,95.00,6,1,0,Yes
 Zone Information, ALL_ST=WHOLEBUILDING_FL=STORY 3_SCH=A,0.0,25.00,75.00,7.60,50.00,89.15,9.50,1,1,1,0.00,100.00,75.00,100.00,7.60,11.40,3.80,7125.00,TARP,TARP,1875.00,380.00,285.00,95.00,6,1,0,Yes
 Zone Information, ALL_ST=WHOLEBUILDING_FL=STORY 3_SCH=H,0.0,25.00,25.00,7.60,50.00,50.00,9.50,1,1,1,25.00,75.00,25.00,75.00,7.60,11.40,3.80,9500.00,TARP,TARP,2500.00,0.00,0.00,0.00,6,0,0,Yes
 Zone Information, ALL_ST=WHOLEBUILDING_FL=STORY 3_SCH=I,0.0,0.00,0.00,7.60,10.85,50.00,9.50,1,1,1,0.00,25.00,0.00,100.00,7.60,11.40,3.80,7125.00,TARP,TARP,1875.00,380.00,285.00,95.00,6,1,0,Yes
 Zone Information, ALL_ST=WHOLEBUILDING_FL=STORY 4_SCH=C,0.0,25.00,75.00,11.40,50.00,89.15,13.30,1,1,1,0.00,100.00,75.00,100.00,11.40,15.20,3.80,7125.00,TARP,TARP,1875.00,380.00,285.00,188.75,6,2,0,Yes
 Zone Information, ALL_ST=WHOLEBUILDING_FL=STORY 4_SCH=H,0.0,0.00,0.00,11.40,50.00,10.85,13.30,1,1,1,0.00,100.00,0.00,25.00,11.40,15.20,3.80,7125.00,TARP,TARP,1875.00,380.00,285.00,188.75,6,2,0,Yes
 Zone Information, DU_BT=PENITENTIARY_ST=WHOLEBUILDING_FL=STORY 4_SCHH,0.0,75.00,25.00,11.40,89.15,50.00,13.30,1,1,1,75.00,100.00,0.00,100.00,11.40,15.20,3.80,7125.00,TARP,TARP,1875.00,380.00,285.00,188.75,6,2,0,Yes
 Zone Information, WILD_ST=CORR. < 2.4M WIDE-SCH-A_FL=STORY 2_SCH=C,0.0,25.00,25.00,3.80,50.00,50.00,5.70,1,1,1,25.00,75.00,25.00,75.00,3.80,7.60,3.80,9500.00,TARP,TARP,2500.00,0.00,0.00,0.00,6,0,0,Yes
! <Zone Internal Gains Nominal>,Zone Name, Floor Area {m2},# Occupants,Area per Occupant {m2/person},Occupant per Area {person/m2},Interior Lighting {W/m2},Electric Load {W/m2},Gas Load {W/m2},Other Load {W/m2},Hot Water Eq {W/m2},Steam Equipment {W/m2},Sum Loads per Area {W/m2},Outdoor Controlled Baseboard Heat
 Zone Internal Gains Nominal, ALL_ST=ATRIUM - H < 13M_FL=STORY 2_SCH=C,1875.00,187.5,10.000,10.000E-002,0.000,2.500,0.000,0.000,0.000,0.000,2.500,No
 Zone Internal Gains Nominal, ALL_ST=ATRIUM - H > 13M_FL=STORY 4_SCH=C,2500.00,250.0,10.000,10.000E-002,0.000,2.500,0.000,0.000,0.000,0.000,2.500,No
 Zone Internal Gains Nominal, ALL_ST=AUDIENCE - AUDITORIUM_FL=STORY 1_SCH=C,1875.00,375.0,5.000,0.200,8.500,2.500,0.000,0.000,0.000,0.000,11.000,No
 Zone Internal Gains Nominal, ALL_ST=AUDIENCE - MOTION PICTURE_FL=STORY 1_SCH=C,1875.00,375.0,5.000,0.200,12.300,2.500,0.000,0.000,0.000,0.000,14.800,No
 Zone Internal Gains Nominal, ALL_ST=AUDIENCE - PERFORMANCE ARTS_FL=STORY 3_SCH=C,1875.00,250.1,7.498,0.133,26.200,2.500,0.000,0.000,0.000,0.000,28.700,No
 Zone Internal Gains Nominal, ALL_ST=AUTOMOTIVE - REPAIR_FL=STORY 1_SCH=E,1875.00,93.8,19.979,5.005E-002,7.200,5.000,0.000,0.000,0.000,0.000,12.200,No
 Zone Internal Gains Nominal, ALL_ST=BANK - BANKING AND OFFICES_FL=STORY 1_SCH=A,2500.00,100.1,24.974,4.004E-002,14.900,5.000,0.000,0.000,0.000,0.000,19.900,No
 Zone Internal Gains Nominal, ALL_ST=CLASSROOM/LECTURE/TRAINING_FL=STORY 2_SCH=D,1875.00,250.1,7.498,0.133,11.970,5.000,0.000,0.000,0.000,0.000,16.970,No
 Zone Internal Gains Nominal, ALL_ST=CONF./MEET./MULTI-PURPOSE_FL=STORY 4_SCH=C,1875.00,375.0,5.000,0.200,11.880,1.000,0.000,0.000,0.000,0.000,12.880,No
 Zone Internal Gains Nominal, ALL_ST=CONVENTION CENTRE - AUDIENCE_FL=STORY 3_SCH=C,1875.00,375.0,5.000,0.200,8.800,2.500,0.000,0.000,0.000,0.000,11.300,No
 Zone Internal Gains Nominal, ALL_ST=CONVENTION CENTRE - EXHIBIT_FL=STORY 2_SCH=C,1875.00,375.0,5.000,0.200,15.600,2.500,0.000,0.000,0.000,0.000,18.100,No
 Zone Internal Gains Nominal, ALL_ST=WHOLEBUILDING_FL=STORY 1_SCH=D,1875.00,234.3,8.002,0.125,10.700,5.000,0.000,0.000,0.000,0.000,15.700,No
 Zone Internal Gains Nominal, ALL_ST=WHOLEBUILDING_FL=STORY 2_SCH=C,1875.00,62.6,29.969,3.337E-002,15.100,2.500,0.000,0.000,0.000,0.000,17.600,No
 Zone Internal Gains Nominal, ALL_ST=WHOLEBUILDING_FL=STORY 3_SCH=A,1875.00,75.1,24.974,4.004E-002,9.400,7.500,0.000,0.000,0.000,0.000,16.900,No
 Zone Internal Gains Nominal, ALL_ST=WHOLEBUILDING_FL=STORY 3_SCH=H,2500.00,100.1,24.974,4.004E-002,10.300,7.500,0.000,0.000,0.000,0.000,17.800,No
 Zone Internal Gains Nominal, ALL_ST=WHOLEBUILDING_FL=STORY 3_SCH=I,1875.00,375.0,5.000,0.200,11.300,1.000,0.000,0.000,0.000,0.000,12.300,No
 Zone Internal Gains Nominal, ALL_ST=WHOLEBUILDING_FL=STORY 4_SCH=C,1875.00,234.3,8.002,0.125,15.000,1.000,0.000,0.000,0.000,0.000,16.000,No
 Zone Internal Gains Nominal, ALL_ST=WHOLEBUILDING_FL=STORY 4_SCH=H,1875.00,1.8,1032.256,9.688E-004,2.700,0.000,0.000,0.000,0.000,0.000,2.700,No
 Zone Internal Gains Nominal, DU_BT=PENITENTIARY_ST=WHOLEBUILDING_FL=STORY 4_SCHH,1875.00,62.6,29.969,3.337E-002,10.400,2.500,0.000,0.000,0.000,0.000,12.900,No
 Zone Internal Gains Nominal, WILD_ST=CORR. < 2.4M WIDE-SCH-A_FL=STORY 2_SCH=C,2500.00,25.0,99.896,1.001E-002,8.400,0.000,0.000,0.000,0.000,0.000,8.400,No
! <People Internal Gains Nominal>,Name,Schedule Name,Zone Name,Zone Floor Area {m2},# Zone Occupants,Number of People {},People/Floor Area {person/m2},Floor Area per person {m2/person},Fraction Radiant,Fraction Convected,Sensible Fraction Calculation,Activity level,ASHRAE 55 Warnings,Carbon Dioxide Generation Rate,Nominal Minimum Number of People,Nominal Maximum Number of People
 People Internal Gains Nominal, ALL_ST=WHOLEBUILDING_FL=STORY 4_SCH=H PARKING GARAGE WHOLEBUILDING PEOPLE,NECB-H-OCCUPANCY,ALL_ST=WHOLEBUILDING_FL=STORY 4_SCH=H,1875.00,1.8,1.8,9.688E-004,1032.256,0.300,0.700,AutoCalculate,NECB-ACTIVITY,No,3.8200E-008,2,2
 People Internal Gains Nominal, DU_BT=PENITENTIARY_ST=WHOLEBUILDING_FL=STORY 4_SCHH PENITENTIARY WHOLEBUILDING PEOPLE,NECB-H-OCCUPANCY,DU_BT=PENITENTIARY_ST=WHOLEBUILDING_FL=STORY 4_SCHH,1875.00,62.6,62.6,3.337E-002,29.969,0.300,0.700,AutoCalculate,NECB-ACTIVITY,No,3.8200E-008,56,56
 People Internal Gains Nominal, ALL_ST=WHOLEBUILDING_FL=STORY 4_SCH=C PERFORMING ARTS THEATRE WHOLEBUILDING PEOPLE,NECB-C-OCCUPANCY,ALL_ST=WHOLEBUILDING_FL=STORY 4_SCH=C,1875.00,234.3,234.3,0.125,8.002,0.300,0.700,AutoCalculate,NECB-ACTIVITY,No,3.8200E-008,0,211
 People Internal Gains Nominal, ALL_ST=WHOLEBUILDING_FL=STORY 3_SCH=H POLICE STATION WHOLEBUILDING PEOPLE,NECB-H-OCCUPANCY,ALL_ST=WHOLEBUILDING_FL=STORY 3_SCH=H,2500.00,100.1,100.1,4.004E-002,24.974,0.300,0.700,AutoCalculate,NECB-ACTIVITY,No,3.8200E-008,90,90
 People Internal Gains Nominal, ALL_ST=WHOLEBUILDING_FL=STORY 3_SCH=A POST OFFICE WHOLEBUILDING PEOPLE,NECB-A-OCCUPANCY,ALL_ST=WHOLEBUILDING_FL=STORY 3_SCH=A,1875.00,75.1,75.1,4.004E-002,24.974,0.300,0.700,AutoCalculate,NECB-ACTIVITY,No,3.8200E-008,0,68
 People Internal Gains Nominal, ALL_ST=WHOLEBUILDING_FL=STORY 3_SCH=I RELIGIOUS WHOLEBUILDING PEOPLE,NECB-I-OCCUPANCY,ALL_ST=WHOLEBUILDING_FL=STORY 3_SCH=I,1875.00,375.0,375.0,0.200,5.000,0.300,0.700,AutoCalculate,NECB-ACTIVITY,No,3.8200E-008,0,300
 People Internal Gains Nominal, ALL_ST=WHOLEBUILDING_FL=STORY 2_SCH=C RETAIL WHOLEBUILDING PEOPLE,NECB-C-OCCUPANCY,ALL_ST=WHOLEBUILDING_FL=STORY 2_SCH=C,1875.00,62.6,62.6,3.337E-002,29.969,0.300,0.700,AutoCalculate,NECB-ACTIVITY,No,3.8200E-008,0,56
 People Internal Gains Nominal, ALL_ST=WHOLEBUILDING_FL=STORY 1_SCH=D SCHOOL/UNIVERSITY WHOLEBUILDING PEOPLE,NECB-D-OCCUPANCY,ALL_ST=WHOLEBUILDING_FL=STORY 1_SCH=D,1875.00,234.3,234.3,0.125,8.002,0.300,0.700,AutoCalculate,NECB-ACTIVITY,No,3.8200E-008,0,211
 People Internal Gains Nominal, ALL_ST=ATRIUM - H < 13M_FL=STORY 2_SCH=C SPACE FUNCTION ATRIUM - H < 13M PEOPLE,NECB-C-OCCUPANCY,ALL_ST=ATRIUM - H < 13M_FL=STORY 2_SCH=C,1875.00,187.5,187.5,10.000E-002,10.000,0.300,0.700,AutoCalculate,NECB-ACTIVITY,No,3.8200E-008,0,169
 People Internal Gains Nominal, ALL_ST=ATRIUM - H > 13M_FL=STORY 4_SCH=C SPACE FUNCTION ATRIUM - H > 13M PEOPLE,NECB-C-OCCUPANCY,ALL_ST=ATRIUM - H > 13M_FL=STORY 4_SCH=C,2500.00,250.0,250.0,10.000E-002,10.000,0.300,0.700,AutoCalculate,NECB-ACTIVITY,No,3.8200E-008,0,225
 People Internal Gains Nominal, ALL_ST=AUDIENCE - AUDITORIUM_FL=STORY 1_SCH=C SPACE FUNCTION AUDIENCE - AUDITORIUM PEOPLE,NECB-C-OCCUPANCY,ALL_ST=AUDIENCE - AUDITORIUM_FL=STORY 1_SCH=C,1875.00,375.0,375.0,0.200,5.000,0.300,0.700,AutoCalculate,NECB-ACTIVITY,No,3.8200E-008,0,337
 People Internal Gains Nominal, ALL_ST=AUDIENCE - MOTION PICTURE_FL=STORY 1_SCH=C SPACE FUNCTION AUDIENCE - MOTION PICTURE PEOPLE,NECB-C-OCCUPANCY,ALL_ST=AUDIENCE - MOTION PICTURE_FL=STORY 1_SCH=C,1875.00,375.0,375.0,0.200,5.000,0.300,0.700,AutoCalculate,NECB-ACTIVITY,No,3.8200E-008,0,337
 People Internal Gains Nominal, ALL_ST=AUDIENCE - PERFORMANCE ARTS_FL=STORY 3_SCH=C SPACE FUNCTION AUDIENCE - PERFORMANCE ARTS PEOPLE,NECB-C-OCCUPANCY,ALL_ST=AUDIENCE - PERFORMANCE ARTS_FL=STORY 3_SCH=C,1875.00,250.1,250.1,0.133,7.498,0.300,0.700,AutoCalculate,NECB-ACTIVITY,No,3.8200E-008,0,225
 People Internal Gains Nominal, ALL_ST=AUTOMOTIVE - REPAIR_FL=STORY 1_SCH=E SPACE FUNCTION AUTOMOTIVE - REPAIR PEOPLE,NECB-E-OCCUPANCY,ALL_ST=AUTOMOTIVE - REPAIR_FL=STORY 1_SCH=E,1875.00,93.8,93.8,5.005E-002,19.979,0.300,0.700,AutoCalculate,NECB-ACTIVITY,No,3.8200E-008,0,84
 People Internal Gains Nominal, ALL_ST=BANK - BANKING AND OFFICES_FL=STORY 1_SCH=A SPACE FUNCTION BANK - BANKING AND OFFICES PEOPLE,NECB-A-OCCUPANCY,ALL_ST=BANK - BANKING AND OFFICES_FL=STORY 1_SCH=A,2500.00,100.1,100.1,4.004E-002,24.974,0.300,0.700,AutoCalculate,NECB-ACTIVITY,No,3.8200E-008,0,90
 People Internal Gains Nominal, ALL_ST=CLASSROOM/LECTURE/TRAINING_FL=STORY 2_SCH=D SPACE FUNCTION CLASSROOM/LECTURE/TRAINING PEOPLE,NECB-D-OCCUPANCY,ALL_ST=CLASSROOM/LECTURE/TRAINING_FL=STORY 2_SCH=D,1875.00,250.1,250.1,0.133,7.498,0.300,0.700,AutoCalculate,NECB-ACTIVITY,No,3.8200E-008,0,225
 People Internal Gains Nominal, ALL_ST=CONF./MEET./MULTI-PURPOSE_FL=STORY 4_SCH=C SPACE FUNCTION CONF./MEET./MULTI-PURPOSE PEOPLE,NECB-C-OCCUPANCY,ALL_ST=CONF./MEET./MULTI-PURPOSE_FL=STORY 4_SCH=C,1875.00,375.0,375.0,0.200,5.000,0.300,0.700,AutoCalculate,NECB-ACTIVITY,No,3.8200E-008,0,337
 People Internal Gains Nominal, ALL_ST=CONVENTION CENTRE - AUDIENCE_FL=STORY 3_SCH=C SPACE FUNCTION CONVENTION CENTRE - AUDIENCE PEOPLE,NECB-C-OCCUPANCY,ALL_ST=CONVENTION CENTRE - AUDIENCE_FL=STORY 3_SCH=C,1875.00,375.0,375.0,0.200,5.000,0.300,0.700,AutoCalculate,NECB-ACTIVITY,No,3.8200E-008,0,337
 People Internal Gains Nominal, ALL_ST=CONVENTION CENTRE - EXHIBIT_FL=STORY 2_SCH=C SPACE FUNCTION CONVENTION CENTRE - EXHIBIT PEOPLE,NECB-C-OCCUPANCY,ALL_ST=CONVENTION CENTRE - EXHIBIT_FL=STORY 2_SCH=C,1875.00,375.0,375.0,0.200,5.000,0.300,0.700,AutoCalculate,NECB-ACTIVITY,No,3.8200E-008,0,337
 People Internal Gains Nominal, WILD_ST=CORR. < 2.4M WIDE-SCH-A_FL=STORY 2_SCH=C SPACE FUNCTION CORR. < 2.4M WIDE-SCH-C PEOPLE,NECB-C-OCCUPANCY,WILD_ST=CORR. < 2.4M WIDE-SCH-A_FL=STORY 2_SCH=C,2500.00,25.0,25.0,1.001E-002,99.896,0.300,0.700,AutoCalculate,NECB-ACTIVITY,No,3.8200E-008,0,23
! <Lights Internal Gains Nominal>,Name,Schedule Name,Zone Name,Zone Floor Area {m2},# Zone Occupants,Lighting Level {W},Lights/Floor Area {W/m2},Lights per person {W/person},Fraction Return Air,Fraction Radiant,Fraction Short Wave,Fraction Convected,Fraction Replaceable,End-Use Category,Nominal Minimum Lighting Level {W},Nominal Maximum Lighting Level {W}
 Lights Internal Gains Nominal, ALL_ST=WHOLEBUILDING_FL=STORY 4_SCH=H PARKING GARAGE WHOLEBUILDING LIGHTS,NECB-H-LIGHTING,ALL_ST=WHOLEBUILDING_FL=STORY 4_SCH=H,1875.00,1.8,5062.458,2.700,2787.068,0.000,0.500,0.200,0.300,1.000,General,4556.212,4556.212
 Lights Internal Gains Nominal, DU_BT=PENITENTIARY_ST=WHOLEBUILDING_FL=STORY 4_SCHH PENITENTIARY WHOLEBUILDING LIGHTS,NECB-H-LIGHTING,DU_BT=PENITENTIARY_ST=WHOLEBUILDING_FL=STORY 4_SCHH,1875.00,62.6,19499.838,10.400,311.672,0.000,0.500,0.200,0.300,1.000,General,17549.854,17549.854
 Lights Internal Gains Nominal, ALL_ST=WHOLEBUILDING_FL=STORY 4_SCH=C PERFORMING ARTS THEATRE WHOLEBUILDING LIGHTS,NECB-C-LIGHTING,ALL_ST=WHOLEBUILDING_FL=STORY 4_SCH=C,1875.00,234.3,28124.766,15.000,120.029,0.000,0.500,0.200,0.300,1.000,General,1406.238,25312.289
 Lights Internal Gains Nominal, ALL_ST=WHOLEBUILDING_FL=STORY 3_SCH=H POLICE STATION WHOLEBUILDING LIGHTS,NECB-H-LIGHTING,ALL_ST=WHOLEBUILDING_FL=STORY 3_SCH=H,2500.00,100.1,25749.786,10.300,257.229,0.000,0.500,0.200,0.300,1.000,General,23174.807,23174.807
 Lights Internal Gains Nominal, ALL_ST=WHOLEBUILDING_FL=STORY 3_SCH=A POST OFFICE WHOLEBUILDING LIGHTS,NECB-A-LIGHTING,ALL_ST=WHOLEBUILDING_FL=STORY 3_SCH=A,1875.00,75.1,17624.853,9.400,234.753,0.000,0.500,0.200,0.300,1.000,General,881.243,15862.368
 Lights Internal Gains Nominal, ALL_ST=WHOLEBUILDING_FL=STORY 3_SCH=I RELIGIOUS WHOLEBUILDING LIGHTS,NECB-I-LIGHTING,ALL_ST=WHOLEBUILDING_FL=STORY 3_SCH=I,1875.00,375.0,21187.324,11.300,56.501,0.000,0.500,0.200,0.300,1.000,General,1059.366,19068.591
 Lights Internal Gains Nominal, ALL_ST=WHOLEBUILDING_FL=STORY 2_SCH=C RETAIL WHOLEBUILDING LIGHTS,NECB-C-LIGHTING,ALL_ST=WHOLEBUILDING_FL=STORY 2_SCH=C,1875.00,62.6,28312.264,15.100,452.524,0.000,0.500,0.200,0.300,1.000,General,1415.613,25481.038
 Lights Internal Gains Nominal, ALL_ST=WHOLEBUILDING_FL=STORY 1_SCH=D SCHOOL/UNIVERSITY WHOLEBUILDING LIGHTS,NECB-D-LIGHTING,ALL_ST=WHOLEBUILDING_FL=STORY 1_SCH=D,1875.00,234.3,20062.333,10.700,85.621,0.000,0.500,0.200,0.300,1.000,General,1003.117,18056.100
 Lights Internal Gains Nominal, ALL_ST=AUDIENCE - AUDITORIUM_FL=STORY 1_SCH=C SPACE FUNCTION AUDIENCE - AUDITORIUM LIGHTS,NECB-C-LIGHTING,ALL_ST=AUDIENCE - AUDITORIUM_FL=STORY 1_SCH=C,1875.00,375.0,15937.367,8.500,42.501,0.000,0.500,0.200,0.300,1.000,General,796.868,14343.631
 Lights Internal Gains Nominal, ALL_ST=AUDIENCE - MOTION PICTURE_FL=STORY 1_SCH=C SPACE FUNCTION AUDIENCE - MOTION PICTURE LIGHTS,NECB-C-LIGHTING,ALL_ST=AUDIENCE - MOTION PICTURE_FL=STORY 1_SCH=C,1875.00,375.0,23062.308,12.300,61.502,0.000,0.500,0.200,0.300,1.000,General,1153.115,20756.077
 Lights Internal Gains Nominal, ALL_ST=AUDIENCE - PERFORMANCE ARTS_FL=STORY 3_SCH=C SPACE FUNCTION AUDIENCE - PERFORMANCE ARTS LIGHTS,NECB-C-LIGHTING,ALL_ST=AUDIENCE - PERFORMANCE ARTS_FL=STORY 3_SCH=C,1875.00,250.1,49124.591,26.200,196.452,0.000,0.500,0.200,0.300,1.000,General,2456.230,44212.132
 Lights Internal Gains Nominal, ALL_ST=AUTOMOTIVE - REPAIR_FL=STORY 1_SCH=E SPACE FUNCTION AUTOMOTIVE - REPAIR LIGHTS,NECB-E-LIGHTING,ALL_ST=AUTOMOTIVE - REPAIR_FL=STORY 1_SCH=E,1875.00,93.8,13499.888,7.200,143.849,0.000,0.500,0.200,0.300,1.000,General,674.994,12149.899
 Lights Internal Gains Nominal, ALL_ST=BANK - BANKING AND OFFICES_FL=STORY 1_SCH=A SPACE FUNCTION BANK - BANKING AND OFFICES LIGHTS,NECB-A-LIGHTING,ALL_ST=BANK - BANKING AND OFFICES_FL=STORY 1_SCH=A,2500.00,100.1,37249.690,14.900,372.109,0.000,0.500,0.200,0.300,1.000,General,1862.484,33524.721
 Lights Internal Gains Nominal, ALL_ST=CLASSROOM/LECTURE/TRAINING_FL=STORY 2_SCH=D SPACE FUNCTION CLASSROOM/LECTURE/TRAINING LIGHTS,NECB-D-LIGHTING,ALL_ST=CLASSROOM/LECTURE/TRAINING_FL=STORY 2_SCH=D,1875.00,250.1,22443.563,11.970,89.753,0.000,0.500,0.200,0.300,1.000,General,1122.178,20199.207
 Lights Internal Gains Nominal, ALL_ST=CONF./MEET./MULTI-PURPOSE_FL=STORY 4_SCH=C SPACE FUNCTION CONF./MEET./MULTI-PURPOSE LIGHTS,NECB-C-LIGHTING,ALL_ST=CONF./MEET./MULTI-PURPOSE_FL=STORY 4_SCH=C,1875.00,375.0,22274.815,11.880,59.401,0.000,0.500,0.200,0.300,1.000,General,1113.741,20047.333
 Lights Internal Gains Nominal, ALL_ST=CONVENTION CENTRE - AUDIENCE_FL=STORY 3_SCH=C SPACE FUNCTION CONVENTION CENTRE - AUDIENCE LIGHTS,NECB-C-LIGHTING,ALL_ST=CONVENTION CENTRE - AUDIENCE_FL=STORY 3_SCH=C,1875.00,375.0,16499.863,8.800,44.001,0.000,0.500,0.200,0.300,1.000,General,824.993,14849.876
 Lights Internal Gains Nominal, ALL_ST=CONVENTION CENTRE - EXHIBIT_FL=STORY 2_SCH=C SPACE FUNCTION CONVENTION CENTRE - EXHIBIT LIGHTS,NECB-C-LIGHTING,ALL_ST=CONVENTION CENTRE - EXHIBIT_FL=STORY 2_SCH=C,1875.00,375.0,29249.757,15.600,78.002,0.000,0.500,0.200,0.300,1.000,General,1462.488,26324.781
 Lights Internal Gains Nominal, WILD_ST=CORR. < 2.4M WIDE-SCH-A_FL=STORY 2_SCH=C SPACE FUNCTION CORR. < 2.4M WIDE-SCH-C LIGHTS,NECB-C-LIGHTING,WILD_ST=CORR. < 2.4M WIDE-SCH-A_FL=STORY 2_SCH=C,2500.00,25.0,20999.825,8.400,839.117,0.000,0.500,0.200,0.300,1.000,General,1049.991,18899.843
! <ElectricEquipment Internal Gains Nominal>,Name,Schedule Name,Zone Name,Zone Floor Area {m2},# Zone Occupants,Equipment Level {W},Equipment/Floor Area {W/m2},Equipment per person {W/person},Fraction Latent,Fraction Radiant,Fraction Lost,Fraction Convected,End-Use SubCategory,Nominal Minimum Equipment Level {W},Nominal Maximum Equipment Level {W}
 ElectricEquipment Internal Gains Nominal, DU_BT=PENITENTIARY_ST=WHOLEBUILDING_FL=STORY 4_SCHH PENITENTIARY WHOLEBUILDING ELEC EQUIP,NECB-H-ELECTRIC-EQUIPMENT,DU_BT=PENITENTIARY_ST=WHOLEBUILDING_FL=STORY 4_SCHH,1875.00,62.6,4687.461,2.500,74.921,0.000,0.500,0.000,0.500,General,4218.715,4218.715
 ElectricEquipment Internal Gains Nominal, ALL_ST=WHOLEBUILDING_FL=STORY 4_SCH=C PERFORMING ARTS THEATRE WHOLEBUILDING ELEC EQUIP,NECB-C-ELECTRIC-EQUIPMENT,ALL_ST=WHOLEBUILDING_FL=STORY 4_SCH=C,1875.00,234.3,1874.984,1.000,8.002,0.000,0.500,0.000,0.500,General,93.749,1687.486
 ElectricEquipment Internal Gains Nominal, ALL_ST=WHOLEBUILDING_FL=STORY 3_SCH=H POLICE STATION WHOLEBUILDING ELEC EQUIP,NECB-H-ELECTRIC-EQUIPMENT,ALL_ST=WHOLEBUILDING_FL=STORY 3_SCH=H,2500.00,100.1,18749.844,7.500,187.303,0.000,0.500,0.000,0.500,General,16874.860,16874.860
 ElectricEquipment Internal Gains Nominal, ALL_ST=WHOLEBUILDING_FL=STORY 3_SCH=A POST OFFICE WHOLEBUILDING ELEC EQUIP,NECB-A-ELECTRIC-EQUIPMENT,ALL_ST=WHOLEBUILDING_FL=STORY 3_SCH=A,1875.00,75.1,14062.383,7.500,187.303,0.000,0.500,0.000,0.500,General,2812.477,12656.145
 ElectricEquipment Internal Gains Nominal, ALL_ST=WHOLEBUILDING_FL=STORY 3_SCH=I RELIGIOUS WHOLEBUILDING ELEC EQUIP,NECB-I-ELECTRIC-EQUIPMENT,ALL_ST=WHOLEBUILDING_FL=STORY 3_SCH=I,1875.00,375.0,1874.984,1.000,5.000,0.000,0.500,0.000,0.500,General,187.498,1499.988
 ElectricEquipment Internal Gains Nominal, ALL_ST=WHOLEBUILDING_FL=STORY 2_SCH=C RETAIL WHOLEBUILDING ELEC EQUIP,NECB-C-ELECTRIC-EQUIPMENT,ALL_ST=WHOLEBUILDING_FL=STORY 2_SCH=C,1875.00,62.6,4687.461,2.500,74.921,0.000,0.500,0.000,0.500,General,234.373,4218.715
 ElectricEquipment Internal Gains Nominal, ALL_ST=WHOLEBUILDING_FL=STORY 1_SCH=D SCHOOL/UNIVERSITY WHOLEBUILDING ELEC EQUIP,NECB-D-ELECTRIC-EQUIPMENT,ALL_ST=WHOLEBUILDING_FL=STORY 1_SCH=D,1875.00,234.3,9374.922,5.000,40.010,0.000,0.500,0.000,0.500,General,468.746,8437.430
 ElectricEquipment Internal Gains Nominal, ALL_ST=ATRIUM - H < 13M_FL=STORY 2_SCH=C SPACE FUNCTION ATRIUM - H < 13M ELEC EQUIP,NECB-C-ELECTRIC-EQUIPMENT,ALL_ST=ATRIUM - H < 13M_FL=STORY 2_SCH=C,1875.00,187.5,4687.461,2.500,25.001,0.000,0.500,0.000,0.500,General,234.373,4218.715
 ElectricEquipment Internal Gains Nominal, ALL_ST=ATRIUM - H > 13M_FL=STORY 4_SCH=C SPACE FUNCTION ATRIUM - H > 13M ELEC EQUIP,NECB-C-ELECTRIC-EQUIPMENT,ALL_ST=ATRIUM - H > 13M_FL=STORY 4_SCH=C,2500.00,250.0,6249.948,2.500,25.001,0.000,0.500,0.000,0.500,General,312.497,5624.953
 ElectricEquipment Internal Gains Nominal, ALL_ST=AUDIENCE - AUDITORIUM_FL=STORY 1_SCH=C SPACE FUNCTION AUDIENCE - AUDITORIUM ELEC EQUIP,NECB-C-ELECTRIC-EQUIPMENT,ALL_ST=AUDIENCE - AUDITORIUM_FL=STORY 1_SCH=C,1875.00,375.0,4687.461,2.500,12.500,0.000,0.500,0.000,0.500,General,234.373,4218.715
 ElectricEquipment Internal Gains Nominal, ALL_ST=AUDIENCE - MOTION PICTURE_FL=STORY 1_SCH=C SPACE FUNCTION AUDIENCE - MOTION PICTURE ELEC EQUIP,NECB-C-ELECTRIC-EQUIPMENT,ALL_ST=AUDIENCE - MOTION PICTURE_FL=STORY 1_SCH=C,1875.00,375.0,4687.461,2.500,12.500,0.000,0.500,0.000,0.500,General,234.373,4218.715
 ElectricEquipment Internal Gains Nominal, ALL_ST=AUDIENCE - PERFORMANCE ARTS_FL=STORY 3_SCH=C SPACE FUNCTION AUDIENCE - PERFORMANCE ARTS ELEC EQUIP,NECB-C-ELECTRIC-EQUIPMENT,ALL_ST=AUDIENCE - PERFORMANCE ARTS_FL=STORY 3_SCH=C,1875.00,250.1,4687.461,2.500,18.745,0.000,0.500,0.000,0.500,General,234.373,4218.715
 ElectricEquipment Internal Gains Nominal, ALL_ST=AUTOMOTIVE - REPAIR_FL=STORY 1_SCH=E SPACE FUNCTION AUTOMOTIVE - REPAIR ELEC EQUIP,NECB-E-ELECTRIC-EQUIPMENT,ALL_ST=AUTOMOTIVE - REPAIR_FL=STORY 1_SCH=E,1875.00,93.8,9374.922,5.000,99.895,0.000,0.500,0.000,0.500,General,468.746,8437.430
 ElectricEquipment Internal Gains Nominal, ALL_ST=BANK - BANKING AND OFFICES_FL=STORY 1_SCH=A SPACE FUNCTION BANK - BANKING AND OFFICES ELEC EQUIP,NECB-A-ELECTRIC-EQUIPMENT,ALL_ST=BANK - BANKING AND OFFICES_FL=STORY 1_SCH=A,2500.00,100.1,12499.896,5.000,124.869,0.000,0.500,0.000,0.500,General,2499.979,11249.906
 ElectricEquipment Internal Gains Nominal, ALL_ST=CLASSROOM/LECTURE/TRAINING_FL=STORY 2_SCH=D SPACE FUNCTION CLASSROOM/LECTURE/TRAINING ELEC EQUIP,NECB-D-ELECTRIC-EQUIPMENT,ALL_ST=CLASSROOM/LECTURE/TRAINING_FL=STORY 2_SCH=D,1875.00,250.1,9374.922,5.000,37.491,0.000,0.500,0.000,0.500,General,468.746,8437.430
 ElectricEquipment Internal Gains Nominal, ALL_ST=CONF./MEET./MULTI-PURPOSE_FL=STORY 4_SCH=C SPACE FUNCTION CONF./MEET./MULTI-PURPOSE ELEC EQUIP,NECB-C-ELECTRIC-EQUIPMENT,ALL_ST=CONF./MEET./MULTI-PURPOSE_FL=STORY 4_SCH=C,1875.00,375.0,1874.984,1.000,5.000,0.000,0.500,0.000,0.500,General,93.749,1687.486
 ElectricEquipment Internal Gains Nominal, ALL_ST=CONVENTION CENTRE - AUDIENCE_FL=STORY 3_SCH=C SPACE FUNCTION CONVENTION CENTRE - AUDIENCE ELEC EQUIP,NECB-C-ELECTRIC-EQUIPMENT,ALL_ST=CONVENTION CENTRE - AUDIENCE_FL=STORY 3_SCH=C,1875.00,375.0,4687.461,2.500,12.500,0.000,0.500,0.000,0.500,General,234.373,4218.715
 ElectricEquipment Internal Gains Nominal, ALL_ST=CONVENTION CENTRE - EXHIBIT_FL=STORY 2_SCH=C SPACE FUNCTION CONVENTION CENTRE - EXHIBIT ELEC EQUIP,NECB-C-ELECTRIC-EQUIPMENT,ALL_ST=CONVENTION CENTRE - EXHIBIT_FL=STORY 2_SCH=C,1875.00,375.0,4687.461,2.500,12.500,0.000,0.500,0.000,0.500,General,234.373,4218.715
! <Shadowing/Sun Position Calculations Annual Simulations>, Calculation Method, Value {days}, Allowable Number Figures in Shadow Overlap {}, Polygon Clipping Algorithm, Sky Diffuse Modeling Algorithm, External Shading Calculation Method, Output External Shading Calculation Results, Disable Self-Shading Within Shading Zone Groups, Disable Self-Shading From Shading Zone Groups to Other Zones
Shadowing/Sun Position Calculations Annual Simulations,AverageOverDaysInFrequency,20,15000,SutherlandHodgman,SimpleSkyDiffuseModeling,InternalCalculation,No,No,No
! <Water Heater Information>,Type,Name,Volume {m3},Maximum Capacity {W},Standard Rated Recovery Efficiency, Standard Rated Energy Factor
! <ZoneInfiltration Airflow Stats Nominal>,Name,Schedule Name,Zone Name, Zone Floor Area {m2}, # Zone Occupants,Design Volume Flow Rate {m3/s},Volume Flow Rate/Floor Area {m3/s/m2},Volume Flow Rate/Exterior Surface Area {m3/s/m2},ACH - Air Changes per Hour,Equation A - Constant Term Coefficient {},Equation B - Temperature Term Coefficient {1/C},Equation C - Velocity Term Coefficient {s/m}, Equation D - Velocity Squared Term Coefficient {s2/m2}
 ZoneInfiltration Airflow Stats Nominal, ATRIUM - H < 13M-SPACE FUNCTION INFILTRATION,ALWAYS ON DISCRETE,ALL_ST=ATRIUM - H < 13M_FL=STORY 2_SCH=C,1875.00,187.5,9.500E-002,5.067E-005,2.500E-004,4.800E-002,0.000,0.000,0.224,0.000
 ZoneInfiltration Airflow Stats Nominal, ATRIUM - H > 13M-SPACE FUNCTION INFILTRATION,ALWAYS ON DISCRETE,ALL_ST=ATRIUM - H > 13M_FL=STORY 4_SCH=C,2500.00,250.0,0.625,2.500E-004,2.500E-004,0.237,0.000,0.000,0.224,0.000
 ZoneInfiltration Airflow Stats Nominal, AUDIENCE - PERFORMANCE ARTS-SPACE FUNCTION INFILTRATION,ALWAYS ON DISCRETE,ALL_ST=AUDIENCE - PERFORMANCE ARTS_FL=STORY 3_SCH=C,1875.00,250.1,9.500E-002,5.067E-005,2.500E-004,4.800E-002,0.000,0.000,0.224,0.000
 ZoneInfiltration Airflow Stats Nominal, CLASSROOM/LECTURE/TRAINING-SPACE FUNCTION INFILTRATION,ALWAYS ON DISCRETE,ALL_ST=CLASSROOM/LECTURE/TRAINING_FL=STORY 2_SCH=D,1875.00,250.1,9.500E-002,5.067E-005,2.500E-004,4.800E-002,0.000,0.000,0.224,0.000
 ZoneInfiltration Airflow Stats Nominal, CONF./MEET./MULTI-PURPOSE-SPACE FUNCTION INFILTRATION,ALWAYS ON DISCRETE,ALL_ST=CONF./MEET./MULTI-PURPOSE_FL=STORY 4_SCH=C,1875.00,375.0,0.564,3.007E-004,2.500E-004,0.285,0.000,0.000,0.224,0.000
 ZoneInfiltration Airflow Stats Nominal, CONVENTION CENTRE - AUDIENCE-SPACE FUNCTION INFILTRATION,ALWAYS ON DISCRETE,ALL_ST=CONVENTION CENTRE - AUDIENCE_FL=STORY 3_SCH=C,1875.00,375.0,9.500E-002,5.067E-005,2.500E-004,4.800E-002,0.000,0.000,0.224,0.000
 ZoneInfiltration Airflow Stats Nominal, CONVENTION CENTRE - EXHIBIT-SPACE FUNCTION INFILTRATION,ALWAYS ON DISCRETE,ALL_ST=CONVENTION CENTRE - EXHIBIT_FL=STORY 2_SCH=C,1875.00,375.0,9.500E-002,5.067E-005,2.500E-004,4.800E-002,0.000,0.000,0.224,0.000
 ZoneInfiltration Airflow Stats Nominal, WHOLEBUILDING-RETAIL INFILTRATION,ALWAYS ON DISCRETE,ALL_ST=WHOLEBUILDING_FL=STORY 2_SCH=C,1875.00,62.6,9.500E-002,5.067E-005,2.500E-004,4.800E-002,0.000,0.000,0.224,0.000
 ZoneInfiltration Airflow Stats Nominal, WHOLEBUILDING-POST OFFICE INFILTRATION,ALWAYS ON DISCRETE,ALL_ST=WHOLEBUILDING_FL=STORY 3_SCH=A,1875.00,75.1,9.500E-002,5.067E-005,2.500E-004,4.800E-002,0.000,0.000,0.224,0.000
 ZoneInfiltration Airflow Stats Nominal, WHOLEBUILDING-RELIGIOUS INFILTRATION,ALWAYS ON DISCRETE,ALL_ST=WHOLEBUILDING_FL=STORY 3_SCH=I,1875.00,375.0,9.500E-002,5.067E-005,2.500E-004,4.800E-002,0.000,0.000,0.224,0.000
 ZoneInfiltration Airflow Stats Nominal, WHOLEBUILDING-PERFORMING ARTS THEATRE INFILTRATION,ALWAYS ON DISCRETE,ALL_ST=WHOLEBUILDING_FL=STORY 4_SCH=C,1875.00,234.3,0.564,3.007E-004,2.500E-004,0.285,0.000,0.000,0.224,0.000
 ZoneInfiltration Airflow Stats Nominal, WHOLEBUILDING-PARKING GARAGE INFILTRATION,ALWAYS ON DISCRETE,ALL_ST=WHOLEBUILDING_FL=STORY 4_SCH=H,1875.00,1.8,0.564,3.007E-004,2.500E-004,0.285,0.000,0.000,0.224,0.000
 ZoneInfiltration Airflow Stats Nominal, WHOLEBUILDING-PENITENTIARY INFILTRATION,ALWAYS ON DISCRETE,DU_BT=PENITENTIARY_ST=WHOLEBUILDING_FL=STORY 4_SCHH,1875.00,62.6,0.564,3.007E-004,2.500E-004,0.285,0.000,0.000,0.224,0.000
 ZoneInfiltration Airflow Stats Nominal, WILD_ST=CORR. < 2.4M WIDE-SCH-A_FL=STORY 2_SCH=C SPACE FUNCTION CORR. < 2.4M WIDE-SCH-C INFILTRATION,ALWAYS ON,WILD_ST=CORR. < 2.4M WIDE-SCH-A_FL=STORY 2_SCH=C,2500.00,25.0,0.000,0.000,N/A,0.000,1.000,0.000,0.000,0.000
! <AirFlow Model>, Simple
 AirFlow Model, Simple
! <RoomAir Model>, Zone Name, Mixing/Mundt/UCSDDV/UCSDCV/UCSDUFI/UCSDUFE/User Defined
RoomAir Model,ALL_ST=ATRIUM - H < 13M_FL=STORY 2_SCH=C,Mixing/Well-Stirred
RoomAir Model,ALL_ST=ATRIUM - H > 13M_FL=STORY 4_SCH=C,Mixing/Well-Stirred
RoomAir Model,ALL_ST=AUDIENCE - AUDITORIUM_FL=STORY 1_SCH=C,Mixing/Well-Stirred
RoomAir Model,ALL_ST=AUDIENCE - MOTION PICTURE_FL=STORY 1_SCH=C,Mixing/Well-Stirred
RoomAir Model,ALL_ST=AUDIENCE - PERFORMANCE ARTS_FL=STORY 3_SCH=C,Mixing/Well-Stirred
RoomAir Model,ALL_ST=AUTOMOTIVE - REPAIR_FL=STORY 1_SCH=E,Mixing/Well-Stirred
RoomAir Model,ALL_ST=BANK - BANKING AND OFFICES_FL=STORY 1_SCH=A,Mixing/Well-Stirred
RoomAir Model,ALL_ST=CLASSROOM/LECTURE/TRAINING_FL=STORY 2_SCH=D,Mixing/Well-Stirred
RoomAir Model,ALL_ST=CONF./MEET./MULTI-PURPOSE_FL=STORY 4_SCH=C,Mixing/Well-Stirred
RoomAir Model,ALL_ST=CONVENTION CENTRE - AUDIENCE_FL=STORY 3_SCH=C,Mixing/Well-Stirred
RoomAir Model,ALL_ST=CONVENTION CENTRE - EXHIBIT_FL=STORY 2_SCH=C,Mixing/Well-Stirred
RoomAir Model,ALL_ST=WHOLEBUILDING_FL=STORY 1_SCH=D,Mixing/Well-Stirred
RoomAir Model,ALL_ST=WHOLEBUILDING_FL=STORY 2_SCH=C,Mixing/Well-Stirred
RoomAir Model,ALL_ST=WHOLEBUILDING_FL=STORY 3_SCH=A,Mixing/Well-Stirred
RoomAir Model,ALL_ST=WHOLEBUILDING_FL=STORY 3_SCH=H,Mixing/Well-Stirred
RoomAir Model,ALL_ST=WHOLEBUILDING_FL=STORY 3_SCH=I,Mixing/Well-Stirred
RoomAir Model,ALL_ST=WHOLEBUILDING_FL=STORY 4_SCH=C,Mixing/Well-Stirred
RoomAir Model,ALL_ST=WHOLEBUILDING_FL=STORY 4_SCH=H,Mixing/Well-Stirred
RoomAir Model,DU_BT=PENITENTIARY_ST=WHOLEBUILDING_FL=STORY 4_SCHH,Mixing/Well-Stirred
RoomAir Model,WILD_ST=CORR. < 2.4M WIDE-SCH-A_FL=STORY 2_SCH=C,Mixing/Well-Stirred
! <AirflowNetwork Model:Control>, No Multizone or Distribution/Multizone with Distribution/Multizone without Distribution/Multizone with Distribution only during Fan Operation
AirflowNetwork Model:Control,NoMultizoneOrDistribution
! <Zone Volume Capacitance Multiplier>, Sensible Heat Capacity Multiplier, Moisture Capacity Multiplier, Carbon Dioxide Capacity Multiplier, Generic Contaminant Capacity Multiplier
Zone Volume Capacitance Multiplier,   1.000 ,   1.000,   1.000,   1.000
! <Load Timesteps in Zone Design Calculation Averaging Window>, Value
 Load Timesteps in Zone Design Calculation Averaging Window,    6
! <Heating Sizing Factor Information>, Sizing Factor ID, Value
 Heating Sizing Factor Information, Global,   1.3000    
 Heating Sizing Factor Information, Zone ALL_ST=ATRIUM - H < 13M_FL=STORY 2_SCH=C,   1.3000    
 Heating Sizing Factor Information, Zone ALL_ST=ATRIUM - H > 13M_FL=STORY 4_SCH=C,   1.3000    
 Heating Sizing Factor Information, Zone ALL_ST=AUDIENCE - AUDITORIUM_FL=STORY 1_SCH=C,   1.3000    
 Heating Sizing Factor Information, Zone ALL_ST=AUDIENCE - MOTION PICTURE_FL=STORY 1_SCH=C,   1.3000    
 Heating Sizing Factor Information, Zone ALL_ST=AUDIENCE - PERFORMANCE ARTS_FL=STORY 3_SCH=C,   1.3000    
 Heating Sizing Factor Information, Zone ALL_ST=AUTOMOTIVE - REPAIR_FL=STORY 1_SCH=E,   1.3000    
 Heating Sizing Factor Information, Zone ALL_ST=BANK - BANKING AND OFFICES_FL=STORY 1_SCH=A,   1.3000    
 Heating Sizing Factor Information, Zone ALL_ST=CLASSROOM/LECTURE/TRAINING_FL=STORY 2_SCH=D,   1.3000    
 Heating Sizing Factor Information, Zone ALL_ST=CONF./MEET./MULTI-PURPOSE_FL=STORY 4_SCH=C,   1.3000    
 Heating Sizing Factor Information, Zone ALL_ST=CONVENTION CENTRE - AUDIENCE_FL=STORY 3_SCH=C,   1.3000    
 Heating Sizing Factor Information, Zone ALL_ST=CONVENTION CENTRE - EXHIBIT_FL=STORY 2_SCH=C,   1.3000    
 Heating Sizing Factor Information, Zone ALL_ST=WHOLEBUILDING_FL=STORY 1_SCH=D,   1.3000    
 Heating Sizing Factor Information, Zone ALL_ST=WHOLEBUILDING_FL=STORY 2_SCH=C,   1.3000    
 Heating Sizing Factor Information, Zone ALL_ST=WHOLEBUILDING_FL=STORY 3_SCH=A,   1.3000    
 Heating Sizing Factor Information, Zone ALL_ST=WHOLEBUILDING_FL=STORY 3_SCH=H,   1.3000    
 Heating Sizing Factor Information, Zone ALL_ST=WHOLEBUILDING_FL=STORY 3_SCH=I,   1.3000    
 Heating Sizing Factor Information, Zone ALL_ST=WHOLEBUILDING_FL=STORY 4_SCH=C,   1.3000    
 Heating Sizing Factor Information, Zone ALL_ST=WHOLEBUILDING_FL=STORY 4_SCH=H,   1.3000    
 Heating Sizing Factor Information, Zone DU_BT=PENITENTIARY_ST=WHOLEBUILDING_FL=STORY 4_SCHH,   1.3000    
 Heating Sizing Factor Information, Zone WILD_ST=CORR. < 2.4M WIDE-SCH-A_FL=STORY 2_SCH=C,   1.3000    
! <Cooling Sizing Factor Information>, Sizing Factor ID, Value
 Cooling Sizing Factor Information, Global,   1.1000    
 Cooling Sizing Factor Information, Zone ALL_ST=ATRIUM - H < 13M_FL=STORY 2_SCH=C,   1.1000    
 Cooling Sizing Factor Information, Zone ALL_ST=ATRIUM - H > 13M_FL=STORY 4_SCH=C,   1.1000    
 Cooling Sizing Factor Information, Zone ALL_ST=AUDIENCE - AUDITORIUM_FL=STORY 1_SCH=C,   1.1000    
 Cooling Sizing Factor Information, Zone ALL_ST=AUDIENCE - MOTION PICTURE_FL=STORY 1_SCH=C,   1.1000    
 Cooling Sizing Factor Information, Zone ALL_ST=AUDIENCE - PERFORMANCE ARTS_FL=STORY 3_SCH=C,   1.1000    
 Cooling Sizing Factor Information, Zone ALL_ST=AUTOMOTIVE - REPAIR_FL=STORY 1_SCH=E,   1.1000    
 Cooling Sizing Factor Information, Zone ALL_ST=BANK - BANKING AND OFFICES_FL=STORY 1_SCH=A,   1.1000    
 Cooling Sizing Factor Information, Zone ALL_ST=CLASSROOM/LECTURE/TRAINING_FL=STORY 2_SCH=D,   1.1000    
 Cooling Sizing Factor Information, Zone ALL_ST=CONF./MEET./MULTI-PURPOSE_FL=STORY 4_SCH=C,   1.1000    
 Cooling Sizing Factor Information, Zone ALL_ST=CONVENTION CENTRE - AUDIENCE_FL=STORY 3_SCH=C,   1.1000    
 Cooling Sizing Factor Information, Zone ALL_ST=CONVENTION CENTRE - EXHIBIT_FL=STORY 2_SCH=C,   1.1000    
 Cooling Sizing Factor Information, Zone ALL_ST=WHOLEBUILDING_FL=STORY 1_SCH=D,   1.1000    
 Cooling Sizing Factor Information, Zone ALL_ST=WHOLEBUILDING_FL=STORY 2_SCH=C,   1.1000    
 Cooling Sizing Factor Information, Zone ALL_ST=WHOLEBUILDING_FL=STORY 3_SCH=A,   1.1000    
 Cooling Sizing Factor Information, Zone ALL_ST=WHOLEBUILDING_FL=STORY 3_SCH=H,   1.1000    
 Cooling Sizing Factor Information, Zone ALL_ST=WHOLEBUILDING_FL=STORY 3_SCH=I,   1.1000    
 Cooling Sizing Factor Information, Zone ALL_ST=WHOLEBUILDING_FL=STORY 4_SCH=C,   1.1000    
 Cooling Sizing Factor Information, Zone ALL_ST=WHOLEBUILDING_FL=STORY 4_SCH=H,   1.1000    
 Cooling Sizing Factor Information, Zone DU_BT=PENITENTIARY_ST=WHOLEBUILDING_FL=STORY 4_SCHH,   1.1000    
 Cooling Sizing Factor Information, Zone WILD_ST=CORR. < 2.4M WIDE-SCH-A_FL=STORY 2_SCH=C,   1.1000    
! <Zone Sizing Information>, Zone Name, Load Type, Calc Des Load {W}, User Des Load {W}, Calc Des Air Flow Rate {m3/s}, User Des Air Flow Rate {m3/s}, Design Day Name, Date/Time of Peak, Temperature at Peak {C}, Humidity Ratio at Peak {kgWater/kgDryAir}, Floor Area {m2}, # Occupants, Calc Outdoor Air Flow Rate {m3/s}, Calc DOAS Heat Addition Rate {W}
 Zone Sizing Information, ALL_ST=ATRIUM - H < 13M_FL=STORY 2_SCH=C, Cooling, 38069.31194, 41876.24313, 2.94266, 3.23693, FORT MCMURRAY AP ANN CLG .4% CONDNS DB=>MWB, 7/21 17:40:00, 26.33733, 8.76969E-003, 1875.00000, 187.49386, 0.57150, 0.00000
 Zone Sizing Information, ALL_ST=ATRIUM - H < 13M_FL=STORY 2_SCH=C, Heating, 17064.65681, 22184.05386, 0.66128, 0.85966, FORT MCMURRAY AP ANN HTG 99.6% CONDNS DB, 1/21 09:00:00, -36.20000, 1.25811E-004, 1875.00000, 187.49386, 0.57150, 0.00000
 Zone Sizing Information, ALL_ST=ATRIUM - H > 13M_FL=STORY 4_SCH=C, Cooling, 70938.88668, 78032.77535, 5.48319, 6.03151, FORT MCMURRAY AP ANN CLG .4% CONDNS DB=>MWB, 7/21 13:40:00, 28.69333, 8.76969E-003, 2500.00000, 249.99182, 0.76200, 0.00000
 Zone Sizing Information, ALL_ST=ATRIUM - H > 13M_FL=STORY 4_SCH=C, Heating, 39672.73309, 51574.55302, 1.56585, 2.03560, FORT MCMURRAY AP ANN HTG 99.6% CONDNS DB, 1/21 09:00:00, -36.20000, 1.25811E-004, 2500.00000, 249.99182, 0.76200, 0.00000
 Zone Sizing Information, ALL_ST=AUDIENCE - AUDITORIUM_FL=STORY 1_SCH=C, Cooling, 34209.82429, 37630.80672, 2.64485, 7.71525, FORT MCMURRAY AP ANN CLG .4% CONDNS DB=>MWB, 7/21 17:00:00, 27.16400, 8.76969E-003, 1875.00000, 374.98773, 7.71525, 0.00000
 Zone Sizing Information, ALL_ST=AUDIENCE - AUDITORIUM_FL=STORY 1_SCH=C, Heating, 0.00000, 0.00000, 0.00000, 7.71525, FORT MCMURRAY AP ANN HTG 99.6% CONDNS DB, , -36.20000, 1.25811E-004, 1875.00000, 374.98773, 7.71525, 0.00000
 Zone Sizing Information, ALL_ST=AUDIENCE - MOTION PICTURE_FL=STORY 1_SCH=C, Cooling, 41629.20919, 45792.13011, 3.21842, 7.71525, FORT MCMURRAY AP ANN CLG .4% CONDNS DB=>MWB, 7/21 17:00:00, 27.16400, 8.76969E-003, 1875.00000, 374.98773, 7.71525, 0.00000
 Zone Sizing Information, ALL_ST=AUDIENCE - MOTION PICTURE_FL=STORY 1_SCH=C, Heating, 0.00000, 0.00000, 0.00000, 7.71525, FORT MCMURRAY AP ANN HTG 99.6% CONDNS DB, , -36.20000, 1.25811E-004, 1875.00000, 374.98773, 7.71525, 0.00000
 Zone Sizing Information, ALL_ST=AUDIENCE - PERFORMANCE ARTS_FL=STORY 3_SCH=C, Cooling, 66826.79898, 73509.47887, 5.16575, 7.71525, FORT MCMURRAY AP ANN CLG .4% CONDNS DB=>MWB, 7/21 17:00:00, 27.16400, 8.76969E-003, 1875.00000, 250.05909, 7.71525, 0.00000
 Zone Sizing Information, ALL_ST=AUDIENCE - PERFORMANCE ARTS_FL=STORY 3_SCH=C, Heating, 5651.96148, 7347.54993, 0.21504, 7.71525, FORT MCMURRAY AP ANN HTG 99.6% CONDNS DB, 1/21 08:10:00, -36.20000, 1.25811E-004, 1875.00000, 250.05909, 7.71525, 0.00000
 Zone Sizing Information, ALL_ST=AUTOMOTIVE - REPAIR_FL=STORY 1_SCH=E, Cooling, 25150.06776, 27665.07454, 1.94385, 2.38125, FORT MCMURRAY AP ANN CLG .4% CONDNS DB=>MWB, 7/21 16:00:00, 28.15600, 8.76969E-003, 1875.00000, 93.84784, 2.38125, 0.00000
 Zone Sizing Information, ALL_ST=AUTOMOTIVE - REPAIR_FL=STORY 1_SCH=E, Heating, 0.00000, 0.00000, 0.00000, 2.38125, FORT MCMURRAY AP ANN HTG 99.6% CONDNS DB, , -36.20000, 1.25811E-004, 1875.00000, 93.84784, 2.38125, 0.00000
 Zone Sizing Information, ALL_ST=BANK - BANKING AND OFFICES_FL=STORY 1_SCH=A, Cooling, 38325.93972, 42158.53369, 2.96219, 3.25841, FORT MCMURRAY AP ANN CLG .4% CONDNS DB=>MWB, 7/21 17:00:00, 27.16400, 8.76969E-003, 2500.00000, 100.10437, 2.19710, 0.00000
 Zone Sizing Information, ALL_ST=BANK - BANKING AND OFFICES_FL=STORY 1_SCH=A, Heating, 0.00000, 0.00000, 0.00000, 2.19710, FORT MCMURRAY AP ANN HTG 99.6% CONDNS DB, , -36.20000, 1.25811E-004, 2500.00000, 100.10437, 2.19710, 0.00000
 Zone Sizing Information, ALL_ST=CLASSROOM/LECTURE/TRAINING_FL=STORY 2_SCH=D, Cooling, 41013.12365, 45114.43602, 3.17044, 5.21970, FORT MCMURRAY AP ANN CLG .4% CONDNS DB=>MWB, 7/21 16:00:00, 28.15600, 8.76969E-003, 1875.00000, 250.05909, 5.21970, 0.00000
 Zone Sizing Information, ALL_ST=CLASSROOM/LECTURE/TRAINING_FL=STORY 2_SCH=D, Heating, 3533.18895, 4593.14564, 0.13763, 5.21970, FORT MCMURRAY AP ANN HTG 99.6% CONDNS DB, 1/21 08:10:00, -36.20000, 1.25811E-004, 1875.00000, 250.05909, 5.21970, 0.00000
 Zone Sizing Information, ALL_ST=CONF./MEET./MULTI-PURPOSE_FL=STORY 4_SCH=C, Cooling, 91749.46803, 100924.41483, 7.09287, 7.80215, FORT MCMURRAY AP ANN CLG .4% CONDNS DB=>MWB, 7/21 16:30:00, 27.66000, 8.76969E-003, 1875.00000, 374.98773, 2.95275, 0.00000
 Zone Sizing Information, ALL_ST=CONF./MEET./MULTI-PURPOSE_FL=STORY 4_SCH=C, Heating, 47937.30065, 62318.49085, 1.78771, 2.95275, FORT MCMURRAY AP ANN HTG 99.6% CONDNS DB, 1/21 08:10:00, -36.20000, 1.25811E-004, 1875.00000, 374.98773, 2.95275, 0.00000
 Zone Sizing Information, ALL_ST=CONVENTION CENTRE - AUDIENCE_FL=STORY 3_SCH=C, Cooling, 53824.07624, 59206.48386, 4.16070, 7.71525, FORT MCMURRAY AP ANN CLG .4% CONDNS DB=>MWB, 7/21 14:20:00, 28.90000, 8.76969E-003, 1875.00000, 374.98773, 7.71525, 0.00000
 Zone Sizing Information, ALL_ST=CONVENTION CENTRE - AUDIENCE_FL=STORY 3_SCH=C, Heating, 18002.92876, 23403.80738, 0.69945, 7.71525, FORT MCMURRAY AP ANN HTG 99.6% CONDNS DB, 1/21 09:00:00, -36.20000, 1.25811E-004, 1875.00000, 374.98773, 7.71525, 0.00000
 Zone Sizing Information, ALL_ST=CONVENTION CENTRE - EXHIBIT_FL=STORY 2_SCH=C, Cooling, 55107.62692, 60618.38961, 4.26038, 4.68642, FORT MCMURRAY AP ANN CLG .4% CONDNS DB=>MWB, 7/21 17:00:00, 27.16400, 8.76969E-003, 1875.00000, 374.98773, 1.61925, 0.00000
 Zone Sizing Information, ALL_ST=CONVENTION CENTRE - EXHIBIT_FL=STORY 2_SCH=C, Heating, 583.78468, 758.92008, 2.34535E-002, 1.61925, FORT MCMURRAY AP ANN HTG 99.6% CONDNS DB, 1/21 08:10:00, -36.20000, 1.25811E-004, 1875.00000, 374.98773, 1.61925, 0.00000
 Zone Sizing Information, ALL_ST=WHOLEBUILDING_FL=STORY 1_SCH=D, Cooling, 32796.90007, 36076.59008, 2.53528, 2.78881, FORT MCMURRAY AP ANN CLG .4% CONDNS DB=>MWB, 7/21 16:00:00, 28.15600, 8.76969E-003, 1875.00000, 234.31687, 1.40018, 0.00000
 Zone Sizing Information, ALL_ST=WHOLEBUILDING_FL=STORY 1_SCH=D, Heating, 0.00000, 0.00000, 0.00000, 1.40018, FORT MCMURRAY AP ANN HTG 99.6% CONDNS DB, , -36.20000, 1.25811E-004, 1875.00000, 234.31687, 1.40018, 0.00000
 Zone Sizing Information, ALL_ST=WHOLEBUILDING_FL=STORY 2_SCH=C, Cooling, 41372.42448, 45509.66693, 3.19754, 3.51729, FORT MCMURRAY AP ANN CLG .4% CONDNS DB=>MWB, 7/21 13:50:00, 28.79667, 8.76969E-003, 1875.00000, 62.56523, 0.79058, 0.00000
 Zone Sizing Information, ALL_ST=WHOLEBUILDING_FL=STORY 2_SCH=C, Heating, 6057.88601, 7875.25181, 0.23232, 0.79058, FORT MCMURRAY AP ANN HTG 99.6% CONDNS DB, 1/21 09:00:00, -36.20000, 1.25811E-004, 1875.00000, 62.56523, 0.79058, 0.00000
 Zone Sizing Information, ALL_ST=WHOLEBUILDING_FL=STORY 3_SCH=A, Cooling, 41283.53261, 45411.88587, 3.19077, 3.50985, FORT MCMURRAY AP ANN CLG .4% CONDNS DB=>MWB, 7/21 17:00:00, 27.16400, 8.76969E-003, 1875.00000, 75.07828, 1.40970, 0.00000
 Zone Sizing Information, ALL_ST=WHOLEBUILDING_FL=STORY 3_SCH=A, Heating, 21289.12238, 27675.85909, 0.83240, 1.40970, FORT MCMURRAY AP ANN HTG 99.6% CONDNS DB, 1/21 08:00:00, -36.20000, 1.25811E-004, 1875.00000, 75.07828, 1.40970, 0.00000
 Zone Sizing Information, ALL_ST=WHOLEBUILDING_FL=STORY 3_SCH=H, Cooling, 48502.38135, 53352.61949, 3.74873, 4.12360, FORT MCMURRAY AP ANN CLG .4% CONDNS DB=>MWB, 7/21 17:40:00, 26.33733, 8.76969E-003, 2500.00000, 100.10437, 1.00330, 0.00000
 Zone Sizing Information, ALL_ST=WHOLEBUILDING_FL=STORY 3_SCH=H, Heating, 0.00000, 0.00000, 0.00000, 1.00330, FORT MCMURRAY AP ANN HTG 99.6% CONDNS DB, , -36.20000, 1.25811E-004, 2500.00000, 100.10437, 1.00330, 0.00000
 Zone Sizing Information, ALL_ST=WHOLEBUILDING_FL=STORY 3_SCH=I, Cooling, 59591.75650, 65550.93215, 4.60634, 5.06697, FORT MCMURRAY AP ANN CLG .4% CONDNS DB=>MWB, 7/21 20:00:00, 22.70000, 8.76969E-003, 1875.00000, 374.98773, 1.45733, 0.00000
 Zone Sizing Information, ALL_ST=WHOLEBUILDING_FL=STORY 3_SCH=I, Heating, 23429.34253, 30458.14529, 0.91895, 1.45733, FORT MCMURRAY AP ANN HTG 99.6% CONDNS DB, 1/21 16:00:00, -36.20000, 1.25811E-004, 1875.00000, 374.98773, 1.45733, 0.00000
 Zone Sizing Information, ALL_ST=WHOLEBUILDING_FL=STORY 4_SCH=C, Cooling, 75847.66878, 83432.43566, 5.86284, 6.44913, FORT MCMURRAY AP ANN CLG .4% CONDNS DB=>MWB, 7/21 13:50:00, 28.79667, 8.76969E-003, 1875.00000, 234.31687, 1.12395, 0.00000
 Zone Sizing Information, ALL_ST=WHOLEBUILDING_FL=STORY 4_SCH=C, Heating, 45366.26873, 58976.14935, 1.69095, 2.19824, FORT MCMURRAY AP ANN HTG 99.6% CONDNS DB, 1/21 08:10:00, -36.20000, 1.25811E-004, 1875.00000, 234.31687, 1.12395, 0.00000
 Zone Sizing Information, ALL_ST=WHOLEBUILDING_FL=STORY 4_SCH=H, Cooling, 65383.46913, 71921.81605, 5.05303, 5.55834, FORT MCMURRAY AP ANN CLG .4% CONDNS DB=>MWB, 7/21 13:30:00, 28.59000, 8.76969E-003, 1875.00000, 1.81641, 0.58103, 0.00000
 Zone Sizing Information, ALL_ST=WHOLEBUILDING_FL=STORY 4_SCH=H, Heating, 50811.58339, 66055.05841, 2.02616, 2.63401, FORT MCMURRAY AP ANN HTG 99.6% CONDNS DB, 1/21 09:00:00, -36.20000, 1.25811E-004, 1875.00000, 1.81641, 0.58103, 0.00000
 Zone Sizing Information, DU_BT=PENITENTIARY_ST=WHOLEBUILDING_FL=STORY 4_SCHH, Cooling, 75378.89246, 82916.78170, 5.82589, 6.40848, FORT MCMURRAY AP ANN CLG .4% CONDNS DB=>MWB, 7/21 10:20:00, 24.80800, 8.76969E-003, 1875.00000, 62.56523, 0.71438, 0.00000
 Zone Sizing Information, DU_BT=PENITENTIARY_ST=WHOLEBUILDING_FL=STORY 4_SCHH, Heating, 29590.64162, 38467.83410, 1.16784, 1.51819, FORT MCMURRAY AP ANN HTG 99.6% CONDNS DB, 1/21 09:00:00, -36.20000, 1.25811E-004, 1875.00000, 62.56523, 0.71438, 0.00000
 Zone Sizing Information, WILD_ST=CORR. < 2.4M WIDE-SCH-A_FL=STORY 2_SCH=C, Cooling, 31553.58618, 34708.94480, 2.24844, 2.47328, FORT MCMURRAY AP ANN CLG .4% CONDNS DB=>MWB, 7/21 08:00:00, 19.72400, 8.76969E-003, 2500.00000, 25.02609, 0.76200, 0.00000
 Zone Sizing Information, WILD_ST=CORR. < 2.4M WIDE-SCH-A_FL=STORY 2_SCH=C, Heating, 0.00000, 0.00000, 0.00000, 0.76200, FORT MCMURRAY AP ANN HTG 99.6% CONDNS DB, , -36.20000, 1.25811E-004, 2500.00000, 25.02609, 0.76200, 0.00000
! <System Sizing Information>, System Name, Load Type, Peak Load Kind, User Design Capacity, Calc Des Air Flow Rate [m3/s], User Des Air Flow Rate [m3/s], Design Day Name, Date/Time of Peak
 System Sizing Information, SYS_3_PSZ ALL_ST=AUDIENCE - AUDITORIUM_FL=STORY 1_SCH=C, Cooling, Sensible, 126559.29, 7.71525, 7.71525, FORT MCMURRAY AP ANN CLG .4% CONDNS DB=>MWB, 7/21 05:00:00
 System Sizing Information, SYS_3_PSZ ALL_ST=AUDIENCE - AUDITORIUM_FL=STORY 1_SCH=C, Heating, Sensible, 707674.10, 7.71525, 7.71525, FORT MCMURRAY AP ANN HTG 99.6% CONDNS DB, 1/21 00:10:00
 System Sizing Information, SYS_3_PSZ ALL_ST=AUDIENCE - MOTION PICTURE_FL=STORY 1_SCH=C, Cooling, Sensible, 126559.29, 7.71525, 7.71525, FORT MCMURRAY AP ANN CLG .4% CONDNS DB=>MWB, 7/21 05:00:00
 System Sizing Information, SYS_3_PSZ ALL_ST=AUDIENCE - MOTION PICTURE_FL=STORY 1_SCH=C, Heating, Sensible, 707674.10, 7.71525, 7.71525, FORT MCMURRAY AP ANN HTG 99.6% CONDNS DB, 1/21 00:10:00
 System Sizing Information, SYS_3_PSZ ALL_ST=AUDIENCE - PERFORMANCE ARTS_FL=STORY 3_SCH=C, Cooling, Sensible, 126559.29, 7.71525, 7.71525, FORT MCMURRAY AP ANN CLG .4% CONDNS DB=>MWB, 7/21 05:00:00
 System Sizing Information, SYS_3_PSZ ALL_ST=AUDIENCE - PERFORMANCE ARTS_FL=STORY 3_SCH=C, Heating, Sensible, 707674.10, 7.71525, 7.71525, FORT MCMURRAY AP ANN HTG 99.6% CONDNS DB, 1/21 00:10:00
 System Sizing Information, SYS_3_PSZ ALL_ST=CLASSROOM/LECTURE/TRAINING_FL=STORY 2_SCH=D, Cooling, Sensible, 91619.57, 5.21970, 5.21970, FORT MCMURRAY AP ANN CLG .4% CONDNS DB=>MWB, 7/21 05:00:00
 System Sizing Information, SYS_3_PSZ ALL_ST=CLASSROOM/LECTURE/TRAINING_FL=STORY 2_SCH=D, Heating, Sensible, 478772.11, 5.21970, 5.21970, FORT MCMURRAY AP ANN HTG 99.6% CONDNS DB, 1/21 00:10:00
 System Sizing Information, SYS_3_PSZ ALL_ST=CONF./MEET./MULTI-PURPOSE_FL=STORY 4_SCH=C, Cooling, Sensible, 111891.68, 7.80215, 7.80215, FORT MCMURRAY AP ANN CLG .4% CONDNS DB=>MWB, 7/21 05:00:00
 System Sizing Information, SYS_3_PSZ ALL_ST=CONF./MEET./MULTI-PURPOSE_FL=STORY 4_SCH=C, Heating, Sensible, 270838.24, 2.95275, 2.95275, FORT MCMURRAY AP ANN HTG 99.6% CONDNS DB, 1/21 00:10:00
 System Sizing Information, SYS_3_PSZ ALL_ST=CONVENTION CENTRE - AUDIENCE_FL=STORY 3_SCH=C, Cooling, Sensible, 142070.94, 7.71525, 7.71525, FORT MCMURRAY AP ANN CLG .4% CONDNS DB=>MWB, 7/21 05:00:00
 System Sizing Information, SYS_3_PSZ ALL_ST=CONVENTION CENTRE - AUDIENCE_FL=STORY 3_SCH=C, Heating, Sensible, 707674.10, 7.71525, 7.71525, FORT MCMURRAY AP ANN HTG 99.6% CONDNS DB, 1/21 00:10:00
 System Sizing Information, SYS_3_PSZ ALL_ST=CONVENTION CENTRE - EXHIBIT_FL=STORY 2_SCH=C, Cooling, Sensible, 65621.88, 4.68642, 4.68642, FORT MCMURRAY AP ANN CLG .4% CONDNS DB=>MWB, 7/21 05:00:00
 System Sizing Information, SYS_3_PSZ ALL_ST=CONVENTION CENTRE - EXHIBIT_FL=STORY 2_SCH=C, Heating, Sensible, 148524.19, 1.61925, 1.61925, FORT MCMURRAY AP ANN HTG 99.6% CONDNS DB, 1/21 00:10:00
 System Sizing Information, SYS_3_PSZ ALL_ST=WHOLEBUILDING_FL=STORY 1_SCH=D, Cooling, Sensible, 42262.65, 2.78881, 2.78881, FORT MCMURRAY AP ANN CLG .4% CONDNS DB=>MWB, 7/21 05:00:00
 System Sizing Information, SYS_3_PSZ ALL_ST=WHOLEBUILDING_FL=STORY 1_SCH=D, Heating, Sensible, 128429.74, 1.40018, 1.40018, FORT MCMURRAY AP ANN HTG 99.6% CONDNS DB, 1/21 00:10:00
 System Sizing Information, SYS_3_PSZ ALL_ST=WHOLEBUILDING_FL=STORY 3_SCH=H, Cooling, Sensible, 55244.65, 4.12360, 4.12360, FORT MCMURRAY AP ANN CLG .4% CONDNS DB=>MWB, 7/21 05:00:00
 System Sizing Information, SYS_3_PSZ ALL_ST=WHOLEBUILDING_FL=STORY 3_SCH=H, Heating, Sensible, 92026.76, 1.00330, 1.00330, FORT MCMURRAY AP ANN HTG 99.6% CONDNS DB, 1/21 00:10:00
 System Sizing Information, SYS_3_PSZ ALL_ST=WHOLEBUILDING_FL=STORY 3_SCH=I, Cooling, Sensible, 62346.92, 5.06697, 5.06697, FORT MCMURRAY AP ANN CLG .4% CONDNS DB=>MWB, 7/21 05:00:00
 System Sizing Information, SYS_3_PSZ ALL_ST=WHOLEBUILDING_FL=STORY 3_SCH=I, Heating, Sensible, 133671.78, 1.45733, 1.45733, FORT MCMURRAY AP ANN HTG 99.6% CONDNS DB, 1/21 00:10:00
 System Sizing Information, SYS_3_PSZ ALL_ST=WHOLEBUILDING_FL=STORY 4_SCH=C, Cooling, Sensible, 88388.83, 6.44913, 6.44913, FORT MCMURRAY AP ANN CLG .4% CONDNS DB=>MWB, 7/21 05:00:00
 System Sizing Information, SYS_3_PSZ ALL_ST=WHOLEBUILDING_FL=STORY 4_SCH=C, Heating, Sensible, 131507.52, 2.19824, 2.19824, FORT MCMURRAY AP ANN HTG 99.6% CONDNS DB, 1/21 08:10:00
 System Sizing Information, SYS_3_PSZ DU_BT=PENITENTIARY_ST=WHOLEBUILDING_FL=STORY 4_SCHH, Cooling, Sensible, 82303.77, 6.40848, 6.40848, FORT MCMURRAY AP ANN CLG .4% CONDNS DB=>MWB, 7/21 05:00:00
 System Sizing Information, SYS_3_PSZ DU_BT=PENITENTIARY_ST=WHOLEBUILDING_FL=STORY 4_SCHH, Heating, Sensible, 85325.56, 1.51819, 1.51819, FORT MCMURRAY AP ANN HTG 99.6% CONDNS DB, 1/21 09:00:00
 System Sizing Information, SYS_4_PSZ_ALL_ST=AUTOMOTIVE - REPAIR_FL=STORY 1_SCH=E, Cooling, Sensible, 41797.25, 2.38125, 2.38125, FORT MCMURRAY AP ANN CLG .4% CONDNS DB=>MWB, 7/21 05:00:00
 System Sizing Information, SYS_4_PSZ_ALL_ST=AUTOMOTIVE - REPAIR_FL=STORY 1_SCH=E, Heating, Sensible, 218417.93, 2.38125, 2.38125, FORT MCMURRAY AP ANN HTG 99.6% CONDNS DB, 1/21 00:10:00
 System Sizing Information, SYS_4_PSZ_ALL_ST=WHOLEBUILDING_FL=STORY 4_SCH=H, Cooling, Sensible, 73898.35, 5.55834, 5.55834, FORT MCMURRAY AP ANN CLG .4% CONDNS DB=>MWB, 7/21 05:00:00
 System Sizing Information, SYS_4_PSZ_ALL_ST=WHOLEBUILDING_FL=STORY 4_SCH=H, Heating, Sensible, 103656.37, 2.63401, 2.63401, FORT MCMURRAY AP ANN HTG 99.6% CONDNS DB, 1/21 09:00:00
 System Sizing Information, SYS_4_PSZ_WILD_ST=CORR. < 2.4M WIDE-SCH-A_FL=STORY 2_SCH=C, Cooling, Sensible, 27438.48, 2.47328, 2.47328, FORT MCMURRAY AP ANN CLG .4% CONDNS DB=>MWB, 7/21 05:00:00
 System Sizing Information, SYS_4_PSZ_WILD_ST=CORR. < 2.4M WIDE-SCH-A_FL=STORY 2_SCH=C, Heating, Sensible, 69893.74, 0.76200, 0.76200, FORT MCMURRAY AP ANN HTG 99.6% CONDNS DB, 1/21 00:10:00
 System Sizing Information, SYS_6_VAV WITH REHEAT, Cooling, Sensible, 49560.05, 3.25841, 3.25841, FORT MCMURRAY AP ANN CLG .4% CONDNS DB=>MWB, 7/21 00:00:00
 System Sizing Information, SYS_6_VAV WITH REHEAT, Heating, Sensible, 125445.44, 2.19710, 2.19710, FORT MCMURRAY AP ANN HTG 99.6% CONDNS DB, 1/21 00:10:00
 System Sizing Information, SYS_6_VAV WITH REHEAT 1, Cooling, Sensible, 91744.07, 6.75422, 6.75422, FORT MCMURRAY AP ANN CLG .4% CONDNS DB=>MWB, 7/21 00:00:00
 System Sizing Information, SYS_6_VAV WITH REHEAT 1, Heating, Sensible, 74947.73, 1.65023, 1.65023, FORT MCMURRAY AP ANN HTG 99.6% CONDNS DB, 1/21 00:10:00
 System Sizing Information, SYS_6_VAV WITH REHEAT 2, Cooling, Sensible, 49876.84, 3.50985, 3.50985, FORT MCMURRAY AP ANN CLG .4% CONDNS DB=>MWB, 7/21 00:00:00
 System Sizing Information, SYS_6_VAV WITH REHEAT 2, Heating, Sensible, 80488.11, 1.40970, 1.40970, FORT MCMURRAY AP ANN HTG 99.6% CONDNS DB, 1/21 00:10:00
 System Sizing Information, SYS_6_VAV WITH REHEAT 3, Cooling, Sensible, 80969.49, 6.03151, 6.03151, FORT MCMURRAY AP ANN CLG .4% CONDNS DB=>MWB, 7/21 00:00:00
 System Sizing Information, SYS_6_VAV WITH REHEAT 3, Heating, Sensible, 30700.70, 2.03560, 2.03560, FORT MCMURRAY AP ANN HTG 99.6% CONDNS DB, 1/21 00:10:00
! <Component Sizing Information>, Component Type, Component Name, Input Field Description, Value
 Component Sizing Information, AirTerminal:SingleDuct:VAV:Reheat, AIR TERMINAL SINGLE DUCT VAV REHEAT 2, Design Size Maximum Air Flow Rate [m3/s], 3.23693
 Component Sizing Information, AirTerminal:SingleDuct:VAV:Reheat, AIR TERMINAL SINGLE DUCT VAV REHEAT 2, Design Size Constant Minimum Air Flow Fraction, 0.44139
 Component Sizing Information, AirTerminal:SingleDuct:VAV:Reheat, AIR TERMINAL SINGLE DUCT VAV REHEAT 2, User-Specified Constant Minimum Air Flow Fraction, 0.30000
 Component Sizing Information, AirTerminal:SingleDuct:VAV:Reheat, AIR TERMINAL SINGLE DUCT VAV REHEAT 2, Design Size Minimum Air Flow Rate [m3/s], 0.97108
 Component Sizing Information, AirTerminal:SingleDuct:VAV:Reheat, AIR TERMINAL SINGLE DUCT VAV REHEAT 2, Design Size Maximum Flow per Zone Floor Area during Reheat [m3/s-m2], 5.17909E-004
 Component Sizing Information, AirTerminal:SingleDuct:VAV:Reheat, AIR TERMINAL SINGLE DUCT VAV REHEAT 2, Design Size Maximum Flow Fraction during Reheat [], 0.30000
 Component Sizing Information, AirTerminal:SingleDuct:VAV:Reheat, AIR TERMINAL SINGLE DUCT VAV REHEAT 2, Design Size Maximum Reheat Water Flow Rate [m3/s], 4.92879E-004
 Component Sizing Information, AirTerminal:SingleDuct:VAV:Reheat, AIR TERMINAL SINGLE DUCT VAV REHEAT 2, Design Size Reheat Coil Sizing Air Volume Flow Rate [m3/s], 0.97108
 Component Sizing Information, AirTerminal:SingleDuct:VAV:Reheat, AIR TERMINAL SINGLE DUCT VAV REHEAT 2, Design Size Reheat Coil Sizing Inlet Air Temperature [C], 13.10000
 Component Sizing Information, AirTerminal:SingleDuct:VAV:Reheat, AIR TERMINAL SINGLE DUCT VAV REHEAT 2, Design Size Reheat Coil Sizing Inlet Air Humidity Ratio [kgWater/kgDryAir], 8.00000E-003
 Component Sizing Information, Coil:Heating:Water, COIL HEATING WATER 4, Design Size Rated Capacity [W], 32999.79229
 Component Sizing Information, Coil:Heating:Water, COIL HEATING WATER 4, Design Size Maximum Water Flow Rate [m3/s], 4.92879E-004
 Component Sizing Information, Coil:Heating:Water, COIL HEATING WATER 4, Design Size U-Factor Times Area Value [W/K], 736.37002
! <Water Heating Coil Capacity Information>,Component Type,Name,Nominal Total Capacity {W}
Water Heating Coil Capacity Information,Coil:Heating:Water,COIL HEATING WATER 4,30947.64
 Component Sizing Information, ZoneHVAC:Baseboard:Convective:Water, ZONE HVAC BASEBOARD CONVECTIVE WATER 17, Design Size Maximum Water Flow Rate [m3/s], 3.31337E-004
 Component Sizing Information, ZoneHVAC:Baseboard:Convective:Water, ZONE HVAC BASEBOARD CONVECTIVE WATER 17, Design Size U-Factor Times Area Value [W/K], 672.03417
 Component Sizing Information, AirTerminal:SingleDuct:VAV:Reheat, AIR TERMINAL SINGLE DUCT VAV REHEAT 5, Design Size Maximum Air Flow Rate [m3/s], 6.03151
 Component Sizing Information, AirTerminal:SingleDuct:VAV:Reheat, AIR TERMINAL SINGLE DUCT VAV REHEAT 5, Design Size Constant Minimum Air Flow Fraction, 0.31584
 Component Sizing Information, AirTerminal:SingleDuct:VAV:Reheat, AIR TERMINAL SINGLE DUCT VAV REHEAT 5, User-Specified Constant Minimum Air Flow Fraction, 0.30000
 Component Sizing Information, AirTerminal:SingleDuct:VAV:Reheat, AIR TERMINAL SINGLE DUCT VAV REHEAT 5, Design Size Minimum Air Flow Rate [m3/s], 1.80945
 Component Sizing Information, AirTerminal:SingleDuct:VAV:Reheat, AIR TERMINAL SINGLE DUCT VAV REHEAT 5, Design Size Maximum Flow per Zone Floor Area during Reheat [m3/s-m2], 7.23781E-004
 Component Sizing Information, AirTerminal:SingleDuct:VAV:Reheat, AIR TERMINAL SINGLE DUCT VAV REHEAT 5, Design Size Maximum Flow Fraction during Reheat [], 0.30000
 Component Sizing Information, AirTerminal:SingleDuct:VAV:Reheat, AIR TERMINAL SINGLE DUCT VAV REHEAT 5, Design Size Maximum Reheat Water Flow Rate [m3/s], 1.10620E-003
 Component Sizing Information, AirTerminal:SingleDuct:VAV:Reheat, AIR TERMINAL SINGLE DUCT VAV REHEAT 5, Design Size Reheat Coil Sizing Air Volume Flow Rate [m3/s], 2.03560
 Component Sizing Information, AirTerminal:SingleDuct:VAV:Reheat, AIR TERMINAL SINGLE DUCT VAV REHEAT 5, Design Size Reheat Coil Sizing Inlet Air Temperature [C], 13.10000
 Component Sizing Information, AirTerminal:SingleDuct:VAV:Reheat, AIR TERMINAL SINGLE DUCT VAV REHEAT 5, Design Size Reheat Coil Sizing Inlet Air Humidity Ratio [kgWater/kgDryAir], 8.00000E-003
 Component Sizing Information, Coil:Heating:Water, COIL HEATING WATER 9, Design Size Rated Capacity [W], 74063.73763
 Component Sizing Information, Coil:Heating:Water, COIL HEATING WATER 9, Design Size Maximum Water Flow Rate [m3/s], 1.10620E-003
 Component Sizing Information, Coil:Heating:Water, COIL HEATING WATER 9, Design Size U-Factor Times Area Value [W/K], 1692.35842
Water Heating Coil Capacity Information,Coil:Heating:Water,COIL HEATING WATER 9,67422.40
 Component Sizing Information, ZoneHVAC:Baseboard:Convective:Water, ZONE HVAC BASEBOARD CONVECTIVE WATER 20, Design Size Maximum Water Flow Rate [m3/s], 7.70308E-004
 Component Sizing Information, ZoneHVAC:Baseboard:Convective:Water, ZONE HVAC BASEBOARD CONVECTIVE WATER 20, Design Size U-Factor Times Area Value [W/K], 1572.83714
 Component Sizing Information, AirTerminal:SingleDuct:Uncontrolled, AIR TERMINAL SINGLE DUCT UNCONTROLLED 9, Design Size Maximum Air Flow Rate [m3/s], 7.71525
 Component Sizing Information, ZoneHVAC:Baseboard:Convective:Water, ZONE HVAC BASEBOARD CONVECTIVE WATER 9, Design Size Maximum Water Flow Rate [m3/s], 0.00000
 Component Sizing Information, ZoneHVAC:Baseboard:Convective:Water, ZONE HVAC BASEBOARD CONVECTIVE WATER 9, Design Size U-Factor Times Area Value [W/K], 0.00000
 Component Sizing Information, AirTerminal:SingleDuct:Uncontrolled, AIR TERMINAL SINGLE DUCT UNCONTROLLED 10, Design Size Maximum Air Flow Rate [m3/s], 7.71525
 Component Sizing Information, ZoneHVAC:Baseboard:Convective:Water, ZONE HVAC BASEBOARD CONVECTIVE WATER 10, Design Size Maximum Water Flow Rate [m3/s], 0.00000
 Component Sizing Information, ZoneHVAC:Baseboard:Convective:Water, ZONE HVAC BASEBOARD CONVECTIVE WATER 10, Design Size U-Factor Times Area Value [W/K], 0.00000
 Component Sizing Information, AirTerminal:SingleDuct:Uncontrolled, AIR TERMINAL SINGLE DUCT UNCONTROLLED 11, Design Size Maximum Air Flow Rate [m3/s], 7.71525
 Component Sizing Information, ZoneHVAC:Baseboard:Convective:Water, ZONE HVAC BASEBOARD CONVECTIVE WATER 11, Design Size Maximum Water Flow Rate [m3/s], 1.09742E-004
 Component Sizing Information, ZoneHVAC:Baseboard:Convective:Water, ZONE HVAC BASEBOARD CONVECTIVE WATER 11, Design Size U-Factor Times Area Value [W/K], 142.25567
 Component Sizing Information, AirTerminal:SingleDuct:Uncontrolled, AIR TERMINAL SINGLE DUCT UNCONTROLLED 4, Design Size Maximum Air Flow Rate [m3/s], 2.38125
 Component Sizing Information, ZoneHVAC:Baseboard:Convective:Water, ZONE HVAC BASEBOARD CONVECTIVE WATER 4, Design Size Maximum Water Flow Rate [m3/s], 0.00000
 Component Sizing Information, ZoneHVAC:Baseboard:Convective:Water, ZONE HVAC BASEBOARD CONVECTIVE WATER 4, Design Size U-Factor Times Area Value [W/K], 0.00000
 Component Sizing Information, AirTerminal:SingleDuct:VAV:Reheat, AIR TERMINAL SINGLE DUCT VAV REHEAT 1, Design Size Maximum Air Flow Rate [m3/s], 3.25841
 Component Sizing Information, AirTerminal:SingleDuct:VAV:Reheat, AIR TERMINAL SINGLE DUCT VAV REHEAT 1, Design Size Constant Minimum Air Flow Fraction, 0.58464
 Component Sizing Information, AirTerminal:SingleDuct:VAV:Reheat, AIR TERMINAL SINGLE DUCT VAV REHEAT 1, User-Specified Constant Minimum Air Flow Fraction, 0.30000
 Component Sizing Information, AirTerminal:SingleDuct:VAV:Reheat, AIR TERMINAL SINGLE DUCT VAV REHEAT 1, Design Size Minimum Air Flow Rate [m3/s], 0.97752
 Component Sizing Information, AirTerminal:SingleDuct:VAV:Reheat, AIR TERMINAL SINGLE DUCT VAV REHEAT 1, Design Size Maximum Flow per Zone Floor Area during Reheat [m3/s-m2], 3.91009E-004
 Component Sizing Information, AirTerminal:SingleDuct:VAV:Reheat, AIR TERMINAL SINGLE DUCT VAV REHEAT 1, Design Size Maximum Flow Fraction during Reheat [], 0.30000
 Component Sizing Information, AirTerminal:SingleDuct:VAV:Reheat, AIR TERMINAL SINGLE DUCT VAV REHEAT 1, Design Size Maximum Reheat Water Flow Rate [m3/s], 1.55307E-004
 Component Sizing Information, AirTerminal:SingleDuct:VAV:Reheat, AIR TERMINAL SINGLE DUCT VAV REHEAT 1, Design Size Reheat Coil Sizing Air Volume Flow Rate [m3/s], 0.97752
 Component Sizing Information, AirTerminal:SingleDuct:VAV:Reheat, AIR TERMINAL SINGLE DUCT VAV REHEAT 1, Design Size Reheat Coil Sizing Inlet Air Temperature [C], 13.10000
 Component Sizing Information, AirTerminal:SingleDuct:VAV:Reheat, AIR TERMINAL SINGLE DUCT VAV REHEAT 1, Design Size Reheat Coil Sizing Inlet Air Humidity Ratio [kgWater/kgDryAir], 8.00000E-003
 Component Sizing Information, Coil:Heating:Water, COIL HEATING WATER 2, Design Size Rated Capacity [W], 10398.27728
 Component Sizing Information, Coil:Heating:Water, COIL HEATING WATER 2, Design Size Maximum Water Flow Rate [m3/s], 1.55307E-004
 Component Sizing Information, Coil:Heating:Water, COIL HEATING WATER 2, Design Size U-Factor Times Area Value [W/K], 187.48440
Water Heating Coil Capacity Information,Coil:Heating:Water,COIL HEATING WATER 2,9749.83
 Component Sizing Information, ZoneHVAC:Baseboard:Convective:Water, ZONE HVAC BASEBOARD CONVECTIVE WATER 16, Design Size Maximum Water Flow Rate [m3/s], 0.00000
 Component Sizing Information, ZoneHVAC:Baseboard:Convective:Water, ZONE HVAC BASEBOARD CONVECTIVE WATER 16, Design Size U-Factor Times Area Value [W/K], 0.00000
 Component Sizing Information, AirTerminal:SingleDuct:Uncontrolled, AIR TERMINAL SINGLE DUCT UNCONTROLLED 12, Design Size Maximum Air Flow Rate [m3/s], 5.21970
 Component Sizing Information, ZoneHVAC:Baseboard:Convective:Water, ZONE HVAC BASEBOARD CONVECTIVE WATER 12, Design Size Maximum Water Flow Rate [m3/s], 6.86024E-005
 Component Sizing Information, ZoneHVAC:Baseboard:Convective:Water, ZONE HVAC BASEBOARD CONVECTIVE WATER 12, Design Size U-Factor Times Area Value [W/K], 89.03281
 Component Sizing Information, AirTerminal:SingleDuct:Uncontrolled, AIR TERMINAL SINGLE DUCT UNCONTROLLED 13, Design Size Maximum Air Flow Rate [m3/s], 7.80215
 Component Sizing Information, ZoneHVAC:Baseboard:Convective:Water, ZONE HVAC BASEBOARD CONVECTIVE WATER 13, Design Size Maximum Water Flow Rate [m3/s], 9.30777E-004
 Component Sizing Information, ZoneHVAC:Baseboard:Convective:Water, ZONE HVAC BASEBOARD CONVECTIVE WATER 13, Design Size U-Factor Times Area Value [W/K], 1469.07305
 Component Sizing Information, AirTerminal:SingleDuct:Uncontrolled, AIR TERMINAL SINGLE DUCT UNCONTROLLED 14, Design Size Maximum Air Flow Rate [m3/s], 7.71525
 Component Sizing Information, ZoneHVAC:Baseboard:Convective:Water, ZONE HVAC BASEBOARD CONVECTIVE WATER 14, Design Size Maximum Water Flow Rate [m3/s], 3.49555E-004
 Component Sizing Information, ZoneHVAC:Baseboard:Convective:Water, ZONE HVAC BASEBOARD CONVECTIVE WATER 14, Design Size U-Factor Times Area Value [W/K], 709.42501
 Component Sizing Information, AirTerminal:SingleDuct:Uncontrolled, AIR TERMINAL SINGLE DUCT UNCONTROLLED 15, Design Size Maximum Air Flow Rate [m3/s], 4.68642
 Component Sizing Information, ZoneHVAC:Baseboard:Convective:Water, ZONE HVAC BASEBOARD CONVECTIVE WATER 15, Design Size Maximum Water Flow Rate [m3/s], 1.13351E-005
 Component Sizing Information, ZoneHVAC:Baseboard:Convective:Water, ZONE HVAC BASEBOARD CONVECTIVE WATER 15, Design Size U-Factor Times Area Value [W/K], 14.74064
 Component Sizing Information, AirTerminal:SingleDuct:Uncontrolled, AIR TERMINAL SINGLE DUCT UNCONTROLLED 8, Design Size Maximum Air Flow Rate [m3/s], 2.78881
 Component Sizing Information, ZoneHVAC:Baseboard:Convective:Water, ZONE HVAC BASEBOARD CONVECTIVE WATER 8, Design Size Maximum Water Flow Rate [m3/s], 0.00000
 Component Sizing Information, ZoneHVAC:Baseboard:Convective:Water, ZONE HVAC BASEBOARD CONVECTIVE WATER 8, Design Size U-Factor Times Area Value [W/K], 0.00000
 Component Sizing Information, AirTerminal:SingleDuct:VAV:Reheat, AIR TERMINAL SINGLE DUCT VAV REHEAT 3, Design Size Maximum Air Flow Rate [m3/s], 3.51729
 Component Sizing Information, AirTerminal:SingleDuct:VAV:Reheat, AIR TERMINAL SINGLE DUCT VAV REHEAT 3, Design Size Constant Minimum Air Flow Fraction, 0.40621
 Component Sizing Information, AirTerminal:SingleDuct:VAV:Reheat, AIR TERMINAL SINGLE DUCT VAV REHEAT 3, User-Specified Constant Minimum Air Flow Fraction, 0.30000
 Component Sizing Information, AirTerminal:SingleDuct:VAV:Reheat, AIR TERMINAL SINGLE DUCT VAV REHEAT 3, Design Size Minimum Air Flow Rate [m3/s], 1.05519
 Component Sizing Information, AirTerminal:SingleDuct:VAV:Reheat, AIR TERMINAL SINGLE DUCT VAV REHEAT 3, Design Size Maximum Flow per Zone Floor Area during Reheat [m3/s-m2], 5.62767E-004
 Component Sizing Information, AirTerminal:SingleDuct:VAV:Reheat, AIR TERMINAL SINGLE DUCT VAV REHEAT 3, Design Size Maximum Flow Fraction during Reheat [], 0.30000
 Component Sizing Information, AirTerminal:SingleDuct:VAV:Reheat, AIR TERMINAL SINGLE DUCT VAV REHEAT 3, Design Size Maximum Reheat Water Flow Rate [m3/s], 2.88620E-004
 Component Sizing Information, AirTerminal:SingleDuct:VAV:Reheat, AIR TERMINAL SINGLE DUCT VAV REHEAT 3, Design Size Reheat Coil Sizing Air Volume Flow Rate [m3/s], 1.05519
 Component Sizing Information, AirTerminal:SingleDuct:VAV:Reheat, AIR TERMINAL SINGLE DUCT VAV REHEAT 3, Design Size Reheat Coil Sizing Inlet Air Temperature [C], 13.10000
 Component Sizing Information, AirTerminal:SingleDuct:VAV:Reheat, AIR TERMINAL SINGLE DUCT VAV REHEAT 3, Design Size Reheat Coil Sizing Inlet Air Humidity Ratio [kgWater/kgDryAir], 8.00000E-003
 Component Sizing Information, Coil:Heating:Water, COIL HEATING WATER 5, Design Size Rated Capacity [W], 19324.05012
 Component Sizing Information, Coil:Heating:Water, COIL HEATING WATER 5, Design Size Maximum Water Flow Rate [m3/s], 2.88620E-004
 Component Sizing Information, Coil:Heating:Water, COIL HEATING WATER 5, Design Size U-Factor Times Area Value [W/K], 379.45613
Water Heating Coil Capacity Information,Coil:Heating:Water,COIL HEATING WATER 5,18110.10
 Component Sizing Information, ZoneHVAC:Baseboard:Convective:Water, ZONE HVAC BASEBOARD CONVECTIVE WATER 18, Design Size Maximum Water Flow Rate [m3/s], 1.17623E-004
 Component Sizing Information, ZoneHVAC:Baseboard:Convective:Water, ZONE HVAC BASEBOARD CONVECTIVE WATER 18, Design Size U-Factor Times Area Value [W/K], 238.83810
 Component Sizing Information, AirTerminal:SingleDuct:VAV:Reheat, AIR TERMINAL SINGLE DUCT VAV REHEAT 4, Design Size Maximum Air Flow Rate [m3/s], 3.50985
 Component Sizing Information, AirTerminal:SingleDuct:VAV:Reheat, AIR TERMINAL SINGLE DUCT VAV REHEAT 4, Design Size Constant Minimum Air Flow Fraction, 0.40707
 Component Sizing Information, AirTerminal:SingleDuct:VAV:Reheat, AIR TERMINAL SINGLE DUCT VAV REHEAT 4, User-Specified Constant Minimum Air Flow Fraction, 0.30000
 Component Sizing Information, AirTerminal:SingleDuct:VAV:Reheat, AIR TERMINAL SINGLE DUCT VAV REHEAT 4, Design Size Minimum Air Flow Rate [m3/s], 1.05295
 Component Sizing Information, AirTerminal:SingleDuct:VAV:Reheat, AIR TERMINAL SINGLE DUCT VAV REHEAT 4, Design Size Maximum Flow per Zone Floor Area during Reheat [m3/s-m2], 5.61576E-004
 Component Sizing Information, AirTerminal:SingleDuct:VAV:Reheat, AIR TERMINAL SINGLE DUCT VAV REHEAT 4, Design Size Maximum Flow Fraction during Reheat [], 0.30000
 Component Sizing Information, AirTerminal:SingleDuct:VAV:Reheat, AIR TERMINAL SINGLE DUCT VAV REHEAT 4, Design Size Maximum Reheat Water Flow Rate [m3/s], 5.94112E-004
 Component Sizing Information, AirTerminal:SingleDuct:VAV:Reheat, AIR TERMINAL SINGLE DUCT VAV REHEAT 4, Design Size Reheat Coil Sizing Air Volume Flow Rate [m3/s], 1.08213
 Component Sizing Information, AirTerminal:SingleDuct:VAV:Reheat, AIR TERMINAL SINGLE DUCT VAV REHEAT 4, Design Size Reheat Coil Sizing Inlet Air Temperature [C], 13.10000
 Component Sizing Information, AirTerminal:SingleDuct:VAV:Reheat, AIR TERMINAL SINGLE DUCT VAV REHEAT 4, Design Size Reheat Coil Sizing Inlet Air Humidity Ratio [kgWater/kgDryAir], 8.00000E-003
 Component Sizing Information, Coil:Heating:Water, COIL HEATING WATER 7, Design Size Rated Capacity [W], 39777.65606
 Component Sizing Information, Coil:Heating:Water, COIL HEATING WATER 7, Design Size Maximum Water Flow Rate [m3/s], 5.94112E-004
 Component Sizing Information, Coil:Heating:Water, COIL HEATING WATER 7, Design Size U-Factor Times Area Value [W/K], 912.41965
Water Heating Coil Capacity Information,Coil:Heating:Water,COIL HEATING WATER 7,37051.28
 Component Sizing Information, ZoneHVAC:Baseboard:Convective:Water, ZONE HVAC BASEBOARD CONVECTIVE WATER 19, Design Size Maximum Water Flow Rate [m3/s], 4.13361E-004
 Component Sizing Information, ZoneHVAC:Baseboard:Convective:Water, ZONE HVAC BASEBOARD CONVECTIVE WATER 19, Design Size U-Factor Times Area Value [W/K], 838.48595
 Component Sizing Information, AirTerminal:SingleDuct:Uncontrolled, AIR TERMINAL SINGLE DUCT UNCONTROLLED 6, Design Size Maximum Air Flow Rate [m3/s], 4.12360
 Component Sizing Information, ZoneHVAC:Baseboard:Convective:Water, ZONE HVAC BASEBOARD CONVECTIVE WATER 6, Design Size Maximum Water Flow Rate [m3/s], 0.00000
 Component Sizing Information, ZoneHVAC:Baseboard:Convective:Water, ZONE HVAC BASEBOARD CONVECTIVE WATER 6, Design Size U-Factor Times Area Value [W/K], 0.00000
 Component Sizing Information, AirTerminal:SingleDuct:Uncontrolled, AIR TERMINAL SINGLE DUCT UNCONTROLLED 7, Design Size Maximum Air Flow Rate [m3/s], 5.06697
 Component Sizing Information, ZoneHVAC:Baseboard:Convective:Water, ZONE HVAC BASEBOARD CONVECTIVE WATER 7, Design Size Maximum Water Flow Rate [m3/s], 4.54917E-004
 Component Sizing Information, ZoneHVAC:Baseboard:Convective:Water, ZONE HVAC BASEBOARD CONVECTIVE WATER 7, Design Size U-Factor Times Area Value [W/K], 924.65908
 Component Sizing Information, AirTerminal:SingleDuct:Uncontrolled, AIR TERMINAL SINGLE DUCT UNCONTROLLED 5, Design Size Maximum Air Flow Rate [m3/s], 6.44913
 Component Sizing Information, ZoneHVAC:Baseboard:Convective:Water, ZONE HVAC BASEBOARD CONVECTIVE WATER 5, Design Size Maximum Water Flow Rate [m3/s], 8.80857E-004
 Component Sizing Information, ZoneHVAC:Baseboard:Convective:Water, ZONE HVAC BASEBOARD CONVECTIVE WATER 5, Design Size U-Factor Times Area Value [W/K], 1390.70669
 Component Sizing Information, AirTerminal:SingleDuct:Uncontrolled, AIR TERMINAL SINGLE DUCT UNCONTROLLED 3, Design Size Maximum Air Flow Rate [m3/s], 5.55834
 Component Sizing Information, ZoneHVAC:Baseboard:Convective:Water, ZONE HVAC BASEBOARD CONVECTIVE WATER 3, Design Size Maximum Water Flow Rate [m3/s], 9.86586E-004
 Component Sizing Information, ZoneHVAC:Baseboard:Convective:Water, ZONE HVAC BASEBOARD CONVECTIVE WATER 3, Design Size U-Factor Times Area Value [W/K], 2013.76815
 Component Sizing Information, AirTerminal:SingleDuct:Uncontrolled, AIR TERMINAL SINGLE DUCT UNCONTROLLED 1, Design Size Maximum Air Flow Rate [m3/s], 6.40848
 Component Sizing Information, ZoneHVAC:Baseboard:Convective:Water, ZONE HVAC BASEBOARD CONVECTIVE WATER 1, Design Size Maximum Water Flow Rate [m3/s], 5.74548E-004
 Component Sizing Information, ZoneHVAC:Baseboard:Convective:Water, ZONE HVAC BASEBOARD CONVECTIVE WATER 1, Design Size U-Factor Times Area Value [W/K], 1172.35734
 Component Sizing Information, AirTerminal:SingleDuct:Uncontrolled, AIR TERMINAL SINGLE DUCT UNCONTROLLED 2, Design Size Maximum Air Flow Rate [m3/s], 2.47328
 Component Sizing Information, ZoneHVAC:Baseboard:Convective:Water, ZONE HVAC BASEBOARD CONVECTIVE WATER 2, Design Size Maximum Water Flow Rate [m3/s], 0.00000
 Component Sizing Information, ZoneHVAC:Baseboard:Convective:Water, ZONE HVAC BASEBOARD CONVECTIVE WATER 2, Design Size U-Factor Times Area Value [W/K], 0.00000
 Component Sizing Information, AirLoopHVAC, SYS_3_PSZ ALL_ST=AUDIENCE - AUDITORIUM_FL=STORY 1_SCH=C, Sum of Air Terminal Maximum Heating Flow Rates [m3/s], 7.71525
 Component Sizing Information, AirLoopHVAC, SYS_3_PSZ ALL_ST=AUDIENCE - AUDITORIUM_FL=STORY 1_SCH=C, Sum of Air Terminal Minimum Heating Flow Rates [m3/s], 7.71525
 Component Sizing Information, AirLoopHVAC, SYS_3_PSZ ALL_ST=AUDIENCE - AUDITORIUM_FL=STORY 1_SCH=C, Sum of Air Terminal Maximum Flow Rates [m3/s], 7.71525
[...]
 Component Sizing Information, Coil:Cooling:Water, COIL COOLING WATER 3, Design Size Design Outlet Air Temperature [C], 13.00000
 Component Sizing Information, Coil:Cooling:Water, COIL COOLING WATER 3, Design Size Design Inlet Air Humidity Ratio, 8.86176E-003
 Component Sizing Information, Coil:Cooling:Water, COIL COOLING WATER 3, Design Size Design Outlet Air Humidity Ratio, 8.76847E-003
Water Cooling Coil Capacity Information,Coil:Cooling:Water,COIL COOLING WATER 3,82109.46,56999.37,25110.09,0.69,9277.68,94.10
 Component Sizing Information, Coil:Heating:Water, COIL HEATING WATER 6, Design Size Rated Capacity [W], 60119.42698
 Component Sizing Information, Coil:Heating:Water, COIL HEATING WATER 6, Design Size Maximum Water Flow Rate [m3/s], 8.97932E-004
 Component Sizing Information, Coil:Heating:Water, COIL HEATING WATER 6, Design Size U-Factor Times Area Value [W/K], 733.63329
Water Heating Coil Capacity Information,Coil:Heating:Water,COIL HEATING WATER 6,33495.82
 Component Sizing Information, Fan:VariableVolume, SYS6 SUPPLY FAN 2, Design Size Maximum Flow Rate [m3/s], 3.50985
 Component Sizing Information, Controller:WaterCoil, CONTROLLER WATER COIL 9, Maximum Actuated Flow [m3/s], 2.53450E-003
 Component Sizing Information, Controller:WaterCoil, CONTROLLER WATER COIL 9, Controller Convergence Tolerance, 1.87883E-004
 Component Sizing Information, Controller:WaterCoil, CONTROLLER WATER COIL 8, Maximum Actuated Flow [m3/s], 8.97932E-004
 Component Sizing Information, Controller:WaterCoil, CONTROLLER WATER COIL 8, Controller Convergence Tolerance, 5.30319E-004
 Component Sizing Information, Fan:VariableVolume, SYS6 RETURN FAN 3, Design Size Maximum Flow Rate [m3/s], 6.03151
 Component Sizing Information, Controller:OutdoorAir, CONTROLLER OUTDOOR AIR 19, Maximum Outdoor Air Flow Rate [m3/s], 6.03151
 Component Sizing Information, Controller:OutdoorAir, CONTROLLER OUTDOOR AIR 19, Minimum Outdoor Air Flow Rate [m3/s], 0.76200
 Component Sizing Information, Coil:Cooling:Water, COIL COOLING WATER 4, Design Size Design Coil Load [W], 111377.85510
 Component Sizing Information, Coil:Cooling:Water, COIL COOLING WATER 4, Design Size Design Water Flow Rate [m3/s], 4.42231E-003
 Component Sizing Information, Coil:Cooling:Water, COIL COOLING WATER 4, Design Size Design Air Flow Rate [m3/s], 6.03151
 Component Sizing Information, Coil:Cooling:Water, COIL COOLING WATER 4, Design Size Design Inlet Air Temperature [C], 24.59144
 Component Sizing Information, Coil:Cooling:Water, COIL COOLING WATER 4, Design Size Design Inlet Water Temperature [C], 7.00000
 Component Sizing Information, Coil:Cooling:Water, COIL COOLING WATER 4, Design Size Design Outlet Air Temperature [C], 13.00000
 Component Sizing Information, Coil:Cooling:Water, COIL COOLING WATER 4, Design Size Design Inlet Air Humidity Ratio, 9.07125E-003
 Component Sizing Information, Coil:Cooling:Water, COIL COOLING WATER 4, Design Size Design Outlet Air Humidity Ratio, 8.76847E-003
Water Cooling Coil Capacity Information,Coil:Cooling:Water,COIL COOLING WATER 4,144825.94,99835.86,44990.08,0.69,16937.65,171.79
 Component Sizing Information, Coil:Heating:Water, COIL HEATING WATER 8, Design Size Rated Capacity [W], 32974.68932
 Component Sizing Information, Coil:Heating:Water, COIL HEATING WATER 8, Design Size Maximum Water Flow Rate [m3/s], 4.92504E-004
 Component Sizing Information, Coil:Heating:Water, COIL HEATING WATER 8, Design Size U-Factor Times Area Value [W/K], 506.78255
Water Heating Coil Capacity Information,Coil:Heating:Water,COIL HEATING WATER 8,25602.49
 Component Sizing Information, Fan:VariableVolume, SYS6 SUPPLY FAN 3, Design Size Maximum Flow Rate [m3/s], 6.03151
 Component Sizing Information, Controller:WaterCoil, CONTROLLER WATER COIL 12, Maximum Actuated Flow [m3/s], 4.42231E-003
 Component Sizing Information, Controller:WaterCoil, CONTROLLER WATER COIL 12, Controller Convergence Tolerance, 1.07679E-004
 Component Sizing Information, Controller:WaterCoil, CONTROLLER WATER COIL 11, Maximum Actuated Flow [m3/s], 4.92504E-004
 Component Sizing Information, Controller:WaterCoil, CONTROLLER WATER COIL 11, Controller Convergence Tolerance, 9.66877E-004
Water Heater Information,WaterHeater:Mixed,913GAL NATURALGAS WATER HEATER - 616KBTU/HR,3.4546,180504.8,0.190,0.5763
 Component Sizing Information, PlantLoop, CHILLED WATER LOOP, Maximum Loop Flow Rate [m3/s], 1.43220E-002
 Component Sizing Information, PlantLoop, CHILLED WATER LOOP, Plant Loop Volume [m3], 1.71864
 Component Sizing Information, Pump:ConstantSpeed, PUMP CONSTANT SPEED 1, Design Flow Rate [m3/s], 1.43220E-002
 Component Sizing Information, Pump:ConstantSpeed, PUMP CONSTANT SPEED 1, Design Power Consumption [W], 3659.09790
 Component Sizing Information, Chiller:Electric:EIR, PRIMARY CHILLER WATERCOOLED SCROLL, Design Size Reference Chilled Water Flow Rate [m3/s], 1.43220E-002
 Component Sizing Information, Chiller:Electric:EIR, PRIMARY CHILLER WATERCOOLED SCROLL, Design Size Reference Capacity [W], 360700.76254
 Component Sizing Information, Chiller:Electric:EIR, PRIMARY CHILLER WATERCOOLED SCROLL, Design Size Reference Condenser Fluid Flow Rate [m3/s], 1.69991E-002
! <Chiller Standard Rating Information>, Component Type, Component Name, IPLV in SI Units {W/W}, IPLV in IP Units {Btu/W-h}
 Chiller Standard Rating Information, Chiller:Electric:EIR, PRIMARY CHILLER WATERCOOLED SCROLL, 7.88, 26.88
 Component Sizing Information, Chiller:Electric:EIR, SECONDARY CHILLER WATERCOOLED SCROLL, Design Size Reference Chilled Water Flow Rate [m3/s], 1.43220E-002
 Component Sizing Information, Chiller:Electric:EIR, SECONDARY CHILLER WATERCOOLED SCROLL, Design Size Reference Capacity [W], 360700.76254
 Component Sizing Information, Chiller:Electric:EIR, SECONDARY CHILLER WATERCOOLED SCROLL, Design Size Reference Condenser Fluid Flow Rate [m3/s], 1.69991E-002
 Chiller Standard Rating Information, Chiller:Electric:EIR, SECONDARY CHILLER WATERCOOLED SCROLL, 7.88, 26.88
 Component Sizing Information, PlantLoop, CONDENSER WATER LOOP, Maximum Loop Flow Rate [m3/s], 3.39983E-002
 Component Sizing Information, PlantLoop, CONDENSER WATER LOOP, Plant Loop Volume [m3], 4.07979
 Component Sizing Information, Pump:ConstantSpeed, PUMP CONSTANT SPEED 2, Design Flow Rate [m3/s], 3.39983E-002
 Component Sizing Information, Pump:ConstantSpeed, PUMP CONSTANT SPEED 2, Design Power Consumption [W], 8686.12493
 Component Sizing Information, CoolingTower:SingleSpeed, COOLING TOWER SINGLE SPEED 1, Design Water Flow Rate [m3/s], 3.39983E-002
 Component Sizing Information, CoolingTower:SingleSpeed, COOLING TOWER SINGLE SPEED 1, Fan Power at Design Air Flow Rate [W], 7459.80481
 Component Sizing Information, CoolingTower:SingleSpeed, COOLING TOWER SINGLE SPEED 1, Design Air Flow Rate [m3/s], 20.51297
 Component Sizing Information, CoolingTower:SingleSpeed, COOLING TOWER SINGLE SPEED 1, U-Factor Times Area Value at Design Air Flow Rate [W/C], 36630.68624
 Component Sizing Information, CoolingTower:SingleSpeed, COOLING TOWER SINGLE SPEED 1, Free Convection Regime Air Flow Rate [m3/s], 2.05130
 Component Sizing Information, CoolingTower:SingleSpeed, COOLING TOWER SINGLE SPEED 1, Free Convection U-Factor Times Area Value [W/K], 3663.06862
 Component Sizing Information, PlantLoop, HOT WATER LOOP, Maximum Loop Flow Rate [m3/s], 1.19251E-002
 Component Sizing Information, PlantLoop, HOT WATER LOOP, Plant Loop Volume [m3], 1.43102
 Component Sizing Information, Pump:VariableSpeed, PUMP VARIABLE SPEED 1, Design Flow Rate [m3/s], 1.19251E-002
 Component Sizing Information, Pump:VariableSpeed, PUMP VARIABLE SPEED 1, Design Power Consumption [W], 3046.71778
 Component Sizing Information, Boiler:HotWater, PRIMARY BOILER, Design Size Nominal Capacity [W], 801515.92273
 Component Sizing Information, Boiler:HotWater, PRIMARY BOILER, Design Size Design Water Flow Rate [m3/s], 1.19251E-002
 Component Sizing Information, Boiler:HotWater, SECONDARY BOILER, Design Size Nominal Capacity [W], 801515.92273
 Component Sizing Information, Boiler:HotWater, SECONDARY BOILER, Design Size Design Water Flow Rate [m3/s], 1.19251E-002
 Component Sizing Information, PlantLoop, MAIN SERVICE WATER LOOP, Maximum Loop Flow Rate [m3/s], 9.13456E-004
 Component Sizing Information, PlantLoop, MAIN SERVICE WATER LOOP, Plant Loop Volume [m3], 0.10961
 Component Sizing Information, Pump:ConstantSpeed, SERVICE WATER LOOP PUMP, Design Flow Rate [m3/s], 9.13456E-004
 Component Sizing Information, Pump:ConstantSpeed, SERVICE WATER LOOP PUMP, Design Power Consumption [W], 376.21047
 Component Sizing Information, WaterHeater:Mixed, 913GAL NATURALGAS WATER HEATER - 616KBTU/HR, Use Side Design Flow Rate [m3/s], 9.13456E-004
! <Environment>,Environment Name,Environment Type, Start Date, End Date, Start DayOfWeek, Duration {#days}, Source:Start DayOfWeek,  Use Daylight Saving, Use Holidays, Apply Weekend Holiday Rule,  Use Rain Values, Use Snow Values
! <Environment:Special Days>, Special Day Name, Special Day Type, Source, Start Date, Duration {#days}
! <Environment:Daylight Saving>, Daylight Saving Indicator, Source, Start Date, End Date
! <Environment:WarmupDays>, NumberofWarmupDays
Environment,FORT MCMURRAY AP ANN CLG .4% CONDNS DB=>MWB,SizingPeriod:DesignDay,07/21,07/21,SummerDesignDay,1,N/A,N/A,N/A,N/A,N/A,N/A
Environment:Daylight Saving,No,SizingPeriod:DesignDay
! <Environment:Design Day Data>, Max Dry-Bulb Temp {C}, Temp Range {dC}, Temp Range Ind Type, Hum Ind Value at Max Temp, Hum Ind Type,Pressure {Pa}, Wind Direction {deg CW from N}, Wind Speed {m/s}, Clearness, Rain, Snow
! <Environment:Design Day Misc>,DayOfYear,ASHRAE A Coeff,ASHRAE B Coeff,ASHRAE C Coeff,Solar Constant-Annual Variation,Eq of Time {minutes}, Solar Declination Angle {deg}, Solar Model
Environment:Design Day Data,28.90,12.40,DefaultMultipliers,96969,250,3.7,0.00,No,No
Environment:Design Day Misc,202,1084.4,0.2082,0.1365,1.0,-6.23,20.6,ASHRAETau
Environment:WarmupDays,  6
! <Tabular Report>,Style,Unit Conversion
Tabular Report,HTML,None
! <Warmup Convergence Information>,Zone Name,Environment Type/Name,Average Warmup Temperature Difference {deltaC},Std Dev Warmup Temperature Difference {deltaC},Max Temperature Pass/Fail Convergence,Min Temperature Pass/Fail Convergence,Average Warmup Load Difference {W},Std Dev Warmup Load Difference {W},Heating Load Pass/Fail Convergence,Cooling Load Pass/Fail Convergence
 Warmup Convergence Information,ALL_ST=ATRIUM - H < 13M_FL=STORY 2_SCH=C,SizingPeriod: FORT MCMURRAY AP ANN CLG .4% CONDNS DB=>MWB,1.7777624136E-002,2.2687856299E-002,Pass,Pass,1.4677273452E-002,3.2243414747E-002,Pass,Pass
 Warmup Convergence Information,ALL_ST=ATRIUM - H > 13M_FL=STORY 4_SCH=C,SizingPeriod: FORT MCMURRAY AP ANN CLG .4% CONDNS DB=>MWB,4.1882406931E-002,6.6449537292E-002,Pass,Pass,1.8828936927E-002,3.1536837490E-002,Pass,Pass
 Warmup Convergence Information,ALL_ST=AUDIENCE - AUDITORIUM_FL=STORY 1_SCH=C,SizingPeriod: FORT MCMURRAY AP ANN CLG .4% CONDNS DB=>MWB,6.2009055983E-002,0.1205277867,Pass,Pass,4.7668426501E-002,0.1008830083,Pass,Pass
 Warmup Convergence Information,ALL_ST=AUDIENCE - MOTION PICTURE_FL=STORY 1_SCH=C,SizingPeriod: FORT MCMURRAY AP ANN CLG .4% CONDNS DB=>MWB,5.7732035915E-002,0.1046939236,Pass,Pass,3.7924661732E-002,7.5640823049E-002,Pass,Pass
 Warmup Convergence Information,ALL_ST=AUDIENCE - PERFORMANCE ARTS_FL=STORY 3_SCH=C,SizingPeriod: FORT MCMURRAY AP ANN CLG .4% CONDNS DB=>MWB,4.5354498782E-002,6.6518973031E-002,Pass,Pass,2.0447139953E-002,6.5493528682E-002,Pass,Pass
 Warmup Convergence Information,ALL_ST=AUTOMOTIVE - REPAIR_FL=STORY 1_SCH=E,SizingPeriod: FORT MCMURRAY AP ANN CLG .4% CONDNS DB=>MWB,4.0053171446E-002,5.6841859167E-002,Pass,Pass,9.7544216153E-002,0.6344263794,Pass,Pass
 Warmup Convergence Information,ALL_ST=BANK - BANKING AND OFFICES_FL=STORY 1_SCH=A,SizingPeriod: FORT MCMURRAY AP ANN CLG .4% CONDNS DB=>MWB,1.4009955039E-002,3.4134052499E-002,Pass,Pass,1.9344045030E-002,6.6611186288E-002,Pass,Pass
 Warmup Convergence Information,ALL_ST=CLASSROOM/LECTURE/TRAINING_FL=STORY 2_SCH=D,SizingPeriod: FORT MCMURRAY AP ANN CLG .4% CONDNS DB=>MWB,3.9701464764E-002,6.8208897102E-002,Pass,Pass,3.1341909350E-002,9.7420912028E-002,Pass,Pass
 Warmup Convergence Information,ALL_ST=CONF./MEET./MULTI-PURPOSE_FL=STORY 4_SCH=C,SizingPeriod: FORT MCMURRAY AP ANN CLG .4% CONDNS DB=>MWB,4.3082538074E-002,6.5324727867E-002,Pass,Pass,4.6293696685E-002,0.1902371289,Pass,Pass
 Warmup Convergence Information,ALL_ST=CONVENTION CENTRE - AUDIENCE_FL=STORY 3_SCH=C,SizingPeriod: FORT MCMURRAY AP ANN CLG .4% CONDNS DB=>MWB,5.1295359492E-002,7.7117504319E-002,Pass,Pass,3.1735515594E-002,5.7006640241E-002,Pass,Pass
 Warmup Convergence Information,ALL_ST=CONVENTION CENTRE - EXHIBIT_FL=STORY 2_SCH=C,SizingPeriod: FORT MCMURRAY AP ANN CLG .4% CONDNS DB=>MWB,2.9853909629E-002,6.7532229392E-002,Pass,Pass,4.8446442874E-002,0.2736457294,Pass,Pass
 Warmup Convergence Information,ALL_ST=WHOLEBUILDING_FL=STORY 1_SCH=D,SizingPeriod: FORT MCMURRAY AP ANN CLG .4% CONDNS DB=>MWB,1.8713128592E-002,4.1721954305E-002,Pass,Pass,3.8427730816E-002,0.1143169481,Pass,Pass
 Warmup Convergence Information,ALL_ST=WHOLEBUILDING_FL=STORY 2_SCH=C,SizingPeriod: FORT MCMURRAY AP ANN CLG .4% CONDNS DB=>MWB,2.0168057379E-002,4.2765090026E-002,Pass,Pass,1.4275552938E-002,4.7578437367E-002,Pass,Pass
 Warmup Convergence Information,ALL_ST=WHOLEBUILDING_FL=STORY 3_SCH=A,SizingPeriod: FORT MCMURRAY AP ANN CLG .4% CONDNS DB=>MWB,1.8535700687E-002,3.6826529995E-002,Pass,Pass,1.8041680276E-002,6.0086500863E-002,Pass,Pass
 Warmup Convergence Information,ALL_ST=WHOLEBUILDING_FL=STORY 3_SCH=H,SizingPeriod: FORT MCMURRAY AP ANN CLG .4% CONDNS DB=>MWB,7.2866720416E-005,2.0503150810E-004,Pass,Pass,3.7904557852E-003,1.7735936628E-003,Pass,Pass
 Warmup Convergence Information,ALL_ST=WHOLEBUILDING_FL=STORY 3_SCH=I,SizingPeriod: FORT MCMURRAY AP ANN CLG .4% CONDNS DB=>MWB,7.0938978820E-002,0.2118073026,Pass,Pass,0.3493092648,3.0896974423,Pass,Pass
 Warmup Convergence Information,ALL_ST=WHOLEBUILDING_FL=STORY 4_SCH=C,SizingPeriod: FORT MCMURRAY AP ANN CLG .4% CONDNS DB=>MWB,2.9572432135E-002,4.1847383770E-002,Pass,Pass,6.8708652029E-002,0.4081686292,Pass,Pass
 Warmup Convergence Information,ALL_ST=WHOLEBUILDING_FL=STORY 4_SCH=H,SizingPeriod: FORT MCMURRAY AP ANN CLG .4% CONDNS DB=>MWB,1.1681604205E-002,2.3112555271E-002,Pass,Pass,4.9584459120E-002,5.8859449605E-002,Pass,Pass
 Warmup Convergence Information,DU_BT=PENITENTIARY_ST=WHOLEBUILDING_FL=STORY 4_SCHH,SizingPeriod: FORT MCMURRAY AP ANN CLG .4% CONDNS DB=>MWB,1.4632536233E-004,3.6788052374E-004,Pass,Pass,1.8808866047E-002,1.4677814954E-002,Pass,Pass
 Warmup Convergence Information,WILD_ST=CORR. < 2.4M WIDE-SCH-A_FL=STORY 2_SCH=C,SizingPeriod: FORT MCMURRAY AP ANN CLG .4% CONDNS DB=>MWB,1.7998777273E-002,5.9078799856E-002,Pass,Pass,6.0672416481E-002,0.3950298214,Pass,Pass
Environment,FORT MCMURRAY AP ANN HTG 99.6% CONDNS DB,SizingPeriod:DesignDay,01/21,01/21,WinterDesignDay,1,N/A,N/A,N/A,N/A,N/A,N/A
Environment:Daylight Saving,No,SizingPeriod:DesignDay
Environment:Design Day Data,-36.20,0.00,DefaultMultipliers,96969,90,1.0,0.00,No,No
Environment:Design Day Misc, 21,1229.0,0.1415,5.7310E-002,1.0,-11.15,-20.1,ASHRAEClearSky
Environment:WarmupDays,  6
 Warmup Convergence Information,ALL_ST=ATRIUM - H < 13M_FL=STORY 2_SCH=C,SizingPeriod: FORT MCMURRAY AP ANN HTG 99.6% CONDNS DB,5.6058390226E-002,0.2038341857,Pass,Pass,8.6055606625E-002,0.2192295145,Pass,Pass
 Warmup Convergence Information,ALL_ST=ATRIUM - H > 13M_FL=STORY 4_SCH=C,SizingPeriod: FORT MCMURRAY AP ANN HTG 99.6% CONDNS DB,5.6053975444E-002,0.2473294776,Pass,Pass,4.8886751884E-002,0.1379253829,Pass,Pass
 Warmup Convergence Information,ALL_ST=AUDIENCE - AUDITORIUM_FL=STORY 1_SCH=C,SizingPeriod: FORT MCMURRAY AP ANN HTG 99.6% CONDNS DB,5.5596185740E-002,0.3029986665,Pass,Pass,0.3284151917,1.5743117064,Pass,Pass
 Warmup Convergence Information,ALL_ST=AUDIENCE - MOTION PICTURE_FL=STORY 1_SCH=C,SizingPeriod: FORT MCMURRAY AP ANN HTG 99.6% CONDNS DB,5.5606267615E-002,0.2987771087,Pass,Pass,0.3169205702,1.5813452148,Pass,Pass
 Warmup Convergence Information,ALL_ST=AUDIENCE - PERFORMANCE ARTS_FL=STORY 3_SCH=C,SizingPeriod: FORT MCMURRAY AP ANN HTG 99.6% CONDNS DB,5.5557448603E-002,0.3058256706,Pass,Pass,0.1751106530,0.6712132633,Pass,Pass
 Warmup Convergence Information,ALL_ST=AUTOMOTIVE - REPAIR_FL=STORY 1_SCH=E,SizingPeriod: FORT MCMURRAY AP ANN HTG 99.6% CONDNS DB,5.6434193448E-002,0.2161727841,Pass,Pass,0.4729891879,2.3154002119,Pass,Pass
 Warmup Convergence Information,ALL_ST=BANK - BANKING AND OFFICES_FL=STORY 1_SCH=A,SizingPeriod: FORT MCMURRAY AP ANN HTG 99.6% CONDNS DB,5.6336018752E-002,8.8566024620E-002,Pass,Pass,2.3547566955E-002,0.1333280579,Pass,Pass
 Warmup Convergence Information,ALL_ST=CLASSROOM/LECTURE/TRAINING_FL=STORY 2_SCH=D,SizingPeriod: FORT MCMURRAY AP ANN HTG 99.6% CONDNS DB,5.5560962076E-002,0.2799184287,Pass,Pass,0.1873992443,0.5744159406,Pass,Pass
 Warmup Convergence Information,ALL_ST=CONF./MEET./MULTI-PURPOSE_FL=STORY 4_SCH=C,SizingPeriod: FORT MCMURRAY AP ANN HTG 99.6% CONDNS DB,5.5595111027E-002,0.3313666443,Pass,Pass,4.4728790103E-002,0.1272778285,Pass,Pass
 Warmup Convergence Information,ALL_ST=CONVENTION CENTRE - AUDIENCE_FL=STORY 3_SCH=C,SizingPeriod: FORT MCMURRAY AP ANN HTG 99.6% CONDNS DB,5.5560600118E-002,0.3124758587,Pass,Pass,0.1910902515,0.4582772677,Pass,Pass
 Warmup Convergence Information,ALL_ST=CONVENTION CENTRE - EXHIBIT_FL=STORY 2_SCH=C,SizingPeriod: FORT MCMURRAY AP ANN HTG 99.6% CONDNS DB,5.5558081445E-002,0.2621572485,Pass,Pass,0.2089632234,0.7646776300,Pass,Pass
 Warmup Convergence Information,ALL_ST=WHOLEBUILDING_FL=STORY 1_SCH=D,SizingPeriod: FORT MCMURRAY AP ANN HTG 99.6% CONDNS DB,5.6307168951E-002,0.2250364014,Pass,Pass,0.2133315711,1.0818051337,Pass,Pass
 Warmup Convergence Information,ALL_ST=WHOLEBUILDING_FL=STORY 2_SCH=C,SizingPeriod: FORT MCMURRAY AP ANN HTG 99.6% CONDNS DB,5.5796518055E-002,0.1388804075,Pass,Pass,0.3155998910,1.5271161155,Pass,Pass
 Warmup Convergence Information,ALL_ST=WHOLEBUILDING_FL=STORY 3_SCH=A,SizingPeriod: FORT MCMURRAY AP ANN HTG 99.6% CONDNS DB,5.6372784110E-002,0.2176437421,Pass,Pass,0.1054040526,0.1549517774,Pass,Pass
 Warmup Convergence Information,ALL_ST=WHOLEBUILDING_FL=STORY 3_SCH=H,SizingPeriod: FORT MCMURRAY AP ANN HTG 99.6% CONDNS DB,3.2209127015E-002,0.1619340860,Pass,Pass,1.5895208768E-002,5.9487665250E-002,Pass,Pass
 Warmup Convergence Information,ALL_ST=WHOLEBUILDING_FL=STORY 3_SCH=I,SizingPeriod: FORT MCMURRAY AP ANN HTG 99.6% CONDNS DB,5.5559129386E-002,0.2787855273,Pass,Pass,1.5920952119,16.1880575534,Pass,Pass
 Warmup Convergence Information,ALL_ST=WHOLEBUILDING_FL=STORY 4_SCH=C,SizingPeriod: FORT MCMURRAY AP ANN HTG 99.6% CONDNS DB,5.5581328199E-002,0.3201707030,Pass,Pass,4.3973867414E-002,0.1300547755,Pass,Pass
 Warmup Convergence Information,ALL_ST=WHOLEBUILDING_FL=STORY 4_SCH=H,SizingPeriod: FORT MCMURRAY AP ANN HTG 99.6% CONDNS DB,5.5556272463E-002,0.3162988411,Pass,Pass,4.6856551807E-002,0.2059587410,Pass,Pass
 Warmup Convergence Information,DU_BT=PENITENTIARY_ST=WHOLEBUILDING_FL=STORY 4_SCHH,SizingPeriod: FORT MCMURRAY AP ANN HTG 99.6% CONDNS DB,5.5623445921E-002,0.3120721395,Pass,Pass,1.0028930792,10.2298492147,Pass,Pass
 Warmup Convergence Information,WILD_ST=CORR. < 2.4M WIDE-SCH-A_FL=STORY 2_SCH=C,SizingPeriod: FORT MCMURRAY AP ANN HTG 99.6% CONDNS DB,4.6759360964E-002,0.1733508306,Pass,Pass,0.1154479500,0.3624570271,Pass,Pass
! <Program Control Information:Threads/Parallel Sims>, Threading Supported,Maximum Number of Threads, Env Set Threads (OMP_NUM_THREADS), EP Env Set Threads (EP_OMP_NUM_THREADS), IDF Set Threads, Number of Threads Used (Interior Radiant Exchange), Number Nominal Surfaces, Number Parallel Sims
Program Control:Threads/Parallel Sims, No,1, N/A, N/A, N/A, N/A, N/A, N/A
End of Data
