Program Version,EnergyPlus, Version 8.9.0-eba93e8e1b, YMD=2019.04.04 18:00
! <Version>, Version ID
 Version, 8.9
! <Timesteps per Hour>, #TimeSteps, Minutes per TimeStep {minutes}
 Timesteps per Hour,  6, 10
! <System Convergence Limits>, Minimum System TimeStep {minutes}, Max HVAC Iterations, Minimum Plant Iterations, Maximum Plant Iterations
 System Convergence Limits, 1, 20, 2, 8
! <Simulation Control>, Do Zone Sizing, Do System Sizing, Do Plant Sizing, Do Design Days, Do Weather Simulation, Do HVAC Sizing Simulation
 Simulation Control, Yes, Yes, Yes, No, Yes, No
! <Output Reporting Tolerances>, Tolerance for Time Heating Setpoint Not Met, Tolerance for Zone Cooling Setpoint Not Met Time
 Output Reporting Tolerances, 1.000, 1.000, 
! <Site:GroundTemperature:BuildingSurface>,Jan{C},Feb{C},Mar{C},Apr{C},May{C},Jun{C},Jul{C},Aug{C},Sep{C},Oct{C},Nov{C},Dec{C}
 Site:GroundTemperature:BuildingSurface,  19.53,  19.50,  19.54,  19.60,  20.00,  21.64,  22.23,  22.38,  21.45,  20.12,  19.80,  19.63
! <Site:GroundTemperature:FCfactorMethod>,Jan{C},Feb{C},Mar{C},Apr{C},May{C},Jun{C},Jul{C},Aug{C},Sep{C},Oct{C},Nov{C},Dec{C}
 Site:GroundTemperature:FCfactorMethod, -12.27, -13.66, -11.19,  -7.33,   2.77,  10.57,  15.83,  17.43,  14.70,   8.65,   0.56,  -6.95
! <Site:GroundTemperature:Shallow>,Jan{C},Feb{C},Mar{C},Apr{C},May{C},Jun{C},Jul{C},Aug{C},Sep{C},Oct{C},Nov{C},Dec{C}
 Site:GroundTemperature:Shallow,  13.00,  13.00,  13.00,  13.00,  13.00,  13.00,  13.00,  13.00,  13.00,  13.00,  13.00,  13.00
! <Site:GroundTemperature:Deep>,Jan{C},Feb{C},Mar{C},Apr{C},May{C},Jun{C},Jul{C},Aug{C},Sep{C},Oct{C},Nov{C},Dec{C}
 Site:GroundTemperature:Deep,  16.00,  16.00,  16.00,  16.00,  16.00,  16.00,  16.00,  16.00,  16.00,  16.00,  16.00,  16.00
! <Site:GroundReflectance>,Jan{dimensionless},Feb{dimensionless},Mar{dimensionless},Apr{dimensionless},May{dimensionless},Jun{dimensionless},Jul{dimensionless},Aug{dimensionless},Sep{dimensionless},Oct{dimensionless},Nov{dimensionless},Dec{dimensionless}
 Site:GroundReflectance,  0.20,  0.20,  0.20,  0.20,  0.20,  0.20,  0.20,  0.20,  0.20,  0.20,  0.20,  0.20
! <Site:GroundReflectance:SnowModifier>, Normal, Daylighting {dimensionless}
 Site:GroundReflectance:SnowModifier,   1.000,   1.000
! <Site:GroundReflectance:Snow>,Jan{dimensionless},Feb{dimensionless},Mar{dimensionless},Apr{dimensionless},May{dimensionless},Jun{dimensionless},Jul{dimensionless},Aug{dimensionless},Sep{dimensionless},Oct{dimensionless},Nov{dimensionless},Dec{dimensionless}
 Site:GroundReflectance:Snow,  0.20,  0.20,  0.20,  0.20,  0.20,  0.20,  0.20,  0.20,  0.20,  0.20,  0.20,  0.20
! <Site:GroundReflectance:Snow:Daylighting>,Jan{dimensionless},Feb{dimensionless},Mar{dimensionless},Apr{dimensionless},May{dimensionless},Jun{dimensionless},Jul{dimensionless},Aug{dimensionless},Sep{dimensionless},Oct{dimensionless},Nov{dimensionless},Dec{dimensionless}
 Site:GroundReflectance:Snow:Daylighting,  0.20,  0.20,  0.20,  0.20,  0.20,  0.20,  0.20,  0.20,  0.20,  0.20,  0.20,  0.20
! <Environment:Weather Station>,Wind Sensor Height Above Ground {m},Wind Speed Profile Exponent {},Wind Speed Profile Boundary Layer Thickness {m},Air Temperature Sensor Height Above Ground {m},Wind Speed Modifier Coefficient-Internal,Temperature Modifier Coefficient-Internal
Environment:Weather Station,10.000,0.140,270.000,1.500,1.586,9.750E-003
! <Site:Location>, Location Name, Latitude {N+/S- Deg}, Longitude {E+/W- Deg},  Time Zone Number {GMT+/-}, Elevation {m},  Standard Pressure at Elevation {Pa}, Standard RhoAir at Elevation
Site:Location,Fort McMurray AP AB CAN CWEC2016 WMO#=716890,56.65,-111.22,-7.00,369.10,96969,1.1525
! <Building Information>, Building Name,North Axis {deg},Terrain,  Loads Convergence Tolerance Value,Temperature Convergence Tolerance Value,  Solar Distribution,Maximum Number of Warmup Days,Minimum Number of Warmup Days
 Building Information,Building 1,0.000,Suburbs,4.00000E-002,0.40000,FullExterior,25,6
! <Inside Convection Algorithm>, Algorithm {Simple | TARP | CeilingDiffuser | AdaptiveConvectionAlgorithm}
Inside Convection Algorithm,TARP
! <Outside Convection Algorithm>, Algorithm {SimpleCombined | TARP | MoWitt | DOE-2 | AdaptiveConvectionAlgorithm}
Outside Convection Algorithm,TARP
! <Sky Radiance Distribution>, Value {Anisotropic}
Sky Radiance Distribution,Anisotropic
! <Zone Air Solution Algorithm>, Value {ThirdOrderBackwardDifference | AnalyticalSolution | EulerMethod}
 Zone Air Solution Algorithm, ThirdOrderBackwardDifference
! <Zone Air Carbon Dioxide Balance Simulation>, Simulation {Yes/No}, Carbon Dioxide Concentration
 Zone Air Carbon Dioxide Balance Simulation, No,N/A
! <Zone Air Generic Contaminant Balance Simulation>, Simulation {Yes/No}, Generic Contaminant Concentration
 Zone Air Generic Contaminant Balance Simulation, No,N/A
! <Zone Air Mass Flow Balance Simulation>, Enforce Mass Balance, Adjust Zone Mixing, Adjust Zone Infiltration {AddInfiltration | AdjustInfiltration | None}, Infiltration Zones {MixingSourceZonesOnly | AllZones}
 Zone Air Mass Flow Balance Simulation, No,N/A,N/A,N/A
! <HVACSystemRootFindingAlgorithm>, Value {RegulaFalsi | Bisection | BisectionThenRegulaFalsi | RegulaFalsiThenBisection}
 HVACSystemRootFindingAlgorithm, RegulaFalsi
! <Environment:Site Atmospheric Variation>,Wind Speed Profile Exponent {},Wind Speed Profile Boundary Layer Thickness {m},Air Temperature Gradient Coefficient {K/m}
Environment:Site Atmospheric Variation,0.220,370.000,6.500000E-003
! <Surface Geometry>,Starting Corner,Vertex Input Direction,Coordinate System,Daylight Reference Point Coordinate System,Rectangular (Simple) Surface Coordinate System
 Surface Geometry,UpperLeftCorner,Counterclockwise,RelativeCoordinateSystem,RelativeCoordinateSystem,RelativeToZoneOrigin
! <Surface Heat Transfer Algorithm>, Value {CTF - ConductionTransferFunction | EMPD - MoisturePenetrationDepthConductionTransferFunction | CondFD - ConductionFiniteDifference | HAMT - CombinedHeatAndMoistureFiniteElement} - Description,Inside Surface Max Temperature Limit{C}, Surface Convection Coefficient Lower Limit {W/m2-K}, Surface Convection Coefficient Upper Limit {W/m2-K}
Surface Heat Transfer Algorithm, CTF - ConductionTransferFunction,200,0.10,1000.0
! <Shading Summary>, Number of Fixed Detached Shades, Number of Building Detached Shades, Number of Attached Shades
 Shading Summary,0,0,0
! <Zone Summary>, Number of Zones, Number of Zone Surfaces, Number of SubSurfaces
 Zone Summary,5,30,0
! <Zone Information>,Zone Name,North Axis {deg},Origin X-Coordinate {m},Origin Y-Coordinate {m},Origin Z-Coordinate {m},Centroid X-Coordinate {m},Centroid Y-Coordinate {m},Centroid Z-Coordinate {m},Type,Zone Multiplier,Zone List Multiplier,Minimum X {m},Maximum X {m},Minimum Y {m},Maximum Y {m},Minimum Z {m},Maximum Z {m},Ceiling Height {m},Volume {m3},Zone Inside Convection Algorithm {Simple-Detailed-CeilingDiffuser-TrombeWall},Zone Outside Convection Algorithm {Simple-Detailed-Tarp-MoWitt-DOE-2-BLAST}, Floor Area {m2},Exterior Gross Wall Area {m2},Exterior Net Wall Area {m2},Exterior Window Area {m2}, Number of Surfaces, Number of SubSurfaces, Number of Shading SubSurfaces,  Part of Total Building Area
 Zone Information, SP-CLASSROOM/LECTURE HALL/TRAINING ROOM - PENITENTARY-SPACE FUNCTION SYS-3 FLR-1 SCH-D HPLCMT-CORE ZN,0.0,25.00,25.00,0.00,50.00,50.00,1.90,1,1,1,25.00,75.00,25.00,75.00,0.00,3.80,3.80,9500.00,TARP,TARP,2500.00,0.00,0.00,0.00,6,0,0,Yes
 Zone Information, SP-CLASSROOM/LECTURE HALL/TRAINING ROOM OTHER-SPACE FUNCTION SYS-3 FLR-1 SCH-D HPLCMT-SOUTH ZN,0.0,0.00,0.00,0.00,50.00,10.85,1.90,1,1,1,0.00,100.00,0.00,25.00,0.00,3.80,3.80,7125.00,TARP,TARP,1875.00,0.00,0.00,0.00,6,0,0,Yes
 Zone Information, SP-CONFERENCE/MEETING/MULTI-PURPOSE ROOM-SPACE FUNCTION SYS-3 FLR-1 SCH-C HPLCMT-EAST ZN,0.0,75.00,25.00,0.00,89.15,50.00,1.90,1,1,1,75.00,100.00,0.00,100.00,0.00,3.80,3.80,7125.00,TARP,TARP,1875.00,0.00,0.00,0.00,6,0,0,Yes
 Zone Information, SP-CONFINEMENT CELL-SPACE FUNCTION SYS-3 FLR-1 SCH-G HPLCMT-NORTH ZN,0.0,25.00,75.00,0.00,50.00,89.15,1.90,1,1,1,0.00,100.00,75.00,100.00,0.00,3.80,3.80,7125.00,TARP,TARP,1875.00,0.00,0.00,0.00,6,0,0,Yes
 Zone Information, SP-COPY/PRINT ROOM-SPACE FUNCTION SYS-3 FLR-1 SCH-A HPLCMT-WEST ZN,0.0,0.00,0.00,0.00,10.85,50.00,1.90,1,1,1,0.00,25.00,0.00,100.00,0.00,3.80,3.80,7125.00,TARP,TARP,1875.00,0.00,0.00,0.00,6,0,0,Yes
! <Zone Internal Gains Nominal>,Zone Name, Floor Area {m2},# Occupants,Area per Occupant {m2/person},Occupant per Area {person/m2},Interior Lighting {W/m2},Electric Load {W/m2},Gas Load {W/m2},Other Load {W/m2},Hot Water Eq {W/m2},Steam Equipment {W/m2},Sum Loads per Area {W/m2},Outdoor Controlled Baseboard Heat
 Zone Internal Gains Nominal, SP-CLASSROOM/LECTURE HALL/TRAINING ROOM - PENITENTARY-SPACE FUNCTION SYS-3 FLR-1 SCH-D HPLCMT-CORE ZN,2500.00,333.5,7.497,0.133,14.505,5.002,0.000,0.000,0.000,0.000,19.507,No
 Zone Internal Gains Nominal, SP-CLASSROOM/LECTURE HALL/TRAINING ROOM OTHER-SPACE FUNCTION SYS-3 FLR-1 SCH-D HPLCMT-SOUTH ZN,1875.00,250.1,7.497,0.133,13.405,5.002,0.000,0.000,0.000,0.000,18.407,No
 Zone Internal Gains Nominal, SP-CONFERENCE/MEETING/MULTI-PURPOSE ROOM-SPACE FUNCTION SYS-3 FLR-1 SCH-C HPLCMT-EAST ZN,1875.00,375.1,4.998,0.200,13.305,1.000,0.000,0.000,0.000,0.000,14.305,No
 Zone Internal Gains Nominal, SP-CONFINEMENT CELL-SPACE FUNCTION SYS-3 FLR-1 SCH-G HPLCMT-NORTH ZN,1875.00,75.0,24.991,4.001E-002,8.803,0.000,0.000,0.000,0.000,0.000,8.803,No
 Zone Internal Gains Nominal, SP-COPY/PRINT ROOM-SPACE FUNCTION SYS-3 FLR-1 SCH-A HPLCMT-WEST ZN,1875.00,18.8,99.964,1.000E-002,7.803,60.022,0.000,0.000,0.000,0.000,67.825,No
! <People Internal Gains Nominal>,Name,Schedule Name,Zone Name,Zone Floor Area {m2},# Zone Occupants,Number of People {},People/Floor Area {person/m2},Floor Area per person {m2/person},Fraction Radiant,Fraction Convected,Sensible Fraction Calculation,Activity level,ASHRAE 55 Warnings,Carbon Dioxide Generation Rate,Nominal Minimum Number of People,Nominal Maximum Number of People
 People Internal Gains Nominal, SP-CLASSROOM/LECTURE HALL/TRAINING ROOM - PENITENTARY-SPACE FUNCTION SYS-3 FLR-1 SCH-D HPLCMT-CORE ZN SPACE FUNCTION CLASSROOM/LECTURE HALL/TRAINING ROOM - PENITENTARY PEOPLE,NECB-D-OCCUPANCY,SP-CLASSROOM/LECTURE HALL/TRAINING ROOM - PENITENTARY-SPACE FUNCTION SYS-3 FLR-1 SCH-D HPLCMT-CORE ZN,2500.00,333.5,333.5,0.133,7.497,0.300,0.700,AutoCalculate,NECB-ACTIVITY,No,3.8200E-008,0,300
 People Internal Gains Nominal, SP-CLASSROOM/LECTURE HALL/TRAINING ROOM OTHER-SPACE FUNCTION SYS-3 FLR-1 SCH-D HPLCMT-SOUTH ZN SPACE FUNCTION CLASSROOM/LECTURE HALL/TRAINING ROOM OTHER PEOPLE,NECB-D-OCCUPANCY,SP-CLASSROOM/LECTURE HALL/TRAINING ROOM OTHER-SPACE FUNCTION SYS-3 FLR-1 SCH-D HPLCMT-SOUTH ZN,1875.00,250.1,250.1,0.133,7.497,0.300,0.700,AutoCalculate,NECB-ACTIVITY,No,3.8200E-008,0,225
 People Internal Gains Nominal, SP-CONFERENCE/MEETING/MULTI-PURPOSE ROOM-SPACE FUNCTION SYS-3 FLR-1 SCH-C HPLCMT-EAST ZN SPACE FUNCTION CONFERENCE/MEETING/MULTI-PURPOSE ROOM PEOPLE,NECB-C-OCCUPANCY,SP-CONFERENCE/MEETING/MULTI-PURPOSE ROOM-SPACE FUNCTION SYS-3 FLR-1 SCH-C HPLCMT-EAST ZN,1875.00,375.1,375.1,0.200,4.998,0.300,0.700,AutoCalculate,NECB-ACTIVITY,No,3.8200E-008,0,338
 People Internal Gains Nominal, SP-CONFINEMENT CELL-SPACE FUNCTION SYS-3 FLR-1 SCH-G HPLCMT-NORTH ZN SPACE FUNCTION CONFINEMENT CELL PEOPLE,NECB-G-OCCUPANCY,SP-CONFINEMENT CELL-SPACE FUNCTION SYS-3 FLR-1 SCH-G HPLCMT-NORTH ZN,1875.00,75.0,75.0,4.001E-002,24.991,0.300,0.700,AutoCalculate,NECB-ACTIVITY,No,3.8200E-008,23,68
 People Internal Gains Nominal, SP-COPY/PRINT ROOM-SPACE FUNCTION SYS-3 FLR-1 SCH-A HPLCMT-WEST ZN SPACE FUNCTION COPY/PRINT ROOM PEOPLE,NECB-A-OCCUPANCY,SP-COPY/PRINT ROOM-SPACE FUNCTION SYS-3 FLR-1 SCH-A HPLCMT-WEST ZN,1875.00,18.8,18.8,1.000E-002,99.964,0.300,0.700,AutoCalculate,NECB-ACTIVITY,No,3.8200E-008,0,17
! <Lights Internal Gains Nominal>,Name,Schedule Name,Zone Name,Zone Floor Area {m2},# Zone Occupants,Lighting Level {W},Lights/Floor Area {W/m2},Lights per person {W/person},Fraction Return Air,Fraction Radiant,Fraction Short Wave,Fraction Convected,Fraction Replaceable,End-Use Category,Nominal Minimum Lighting Level {W},Nominal Maximum Lighting Level {W}
 Lights Internal Gains Nominal, SP-CLASSROOM/LECTURE HALL/TRAINING ROOM - PENITENTARY-SPACE FUNCTION SYS-3 FLR-1 SCH-D HPLCMT-CORE ZN SPACE FUNCTION CLASSROOM/LECTURE HALL/TRAINING ROOM - PENITENTARY LIGHTS,NECB-D-OCCUPANCY-NECB-D-LIGHTING-0.5-0.0-0.67-LIGHT RULESET,SP-CLASSROOM/LECTURE HALL/TRAINING ROOM - PENITENTARY-SPACE FUNCTION SYS-3 FLR-1 SCH-D HPLCMT-CORE ZN,2500.00,333.5,36263.174,14.505,108.750,0.000,0.500,0.200,0.300,1.000,General,1205.751,32636.857
 Lights Internal Gains Nominal, SP-CLASSROOM/LECTURE HALL/TRAINING ROOM OTHER-SPACE FUNCTION SYS-3 FLR-1 SCH-D HPLCMT-SOUTH ZN SPACE FUNCTION CLASSROOM/LECTURE HALL/TRAINING ROOM OTHER LIGHTS,NECB-D-OCCUPANCY-NECB-D-LIGHTING-0.5-0.0-0.67-LIGHT RULESET,SP-CLASSROOM/LECTURE HALL/TRAINING ROOM OTHER-SPACE FUNCTION SYS-3 FLR-1 SCH-D HPLCMT-SOUTH ZN,1875.00,250.1,25134.131,13.405,100.500,0.000,0.500,0.200,0.300,1.000,General,835.710,22620.718
 Lights Internal Gains Nominal, SP-CONFERENCE/MEETING/MULTI-PURPOSE ROOM-SPACE FUNCTION SYS-3 FLR-1 SCH-C HPLCMT-EAST ZN SPACE FUNCTION CONFERENCE/MEETING/MULTI-PURPOSE ROOM LIGHTS,NECB-C-OCCUPANCY-NECB-C-LIGHTING-0.5-0.0-0.67-LIGHT RULESET,SP-CONFERENCE/MEETING/MULTI-PURPOSE ROOM-SPACE FUNCTION SYS-3 FLR-1 SCH-C HPLCMT-EAST ZN,1875.00,375.1,24946.563,13.305,66.500,0.000,0.500,0.200,0.300,1.000,General,829.473,22451.907
 Lights Internal Gains Nominal, SP-CONFINEMENT CELL-SPACE FUNCTION SYS-3 FLR-1 SCH-G HPLCMT-NORTH ZN SPACE FUNCTION CONFINEMENT CELL LIGHTS,NECB-G-OCCUPANCY-NECB-G-LIGHTING-0.0-0.0-0.67-LIGHT RULESET,SP-CONFINEMENT CELL-SPACE FUNCTION SYS-3 FLR-1 SCH-G HPLCMT-NORTH ZN,1875.00,75.0,16505.996,8.803,220.000,0.000,0.500,0.200,0.300,1.000,General,0.000,14855.397
 Lights Internal Gains Nominal, SP-COPY/PRINT ROOM-SPACE FUNCTION SYS-3 FLR-1 SCH-A HPLCMT-WEST ZN SPACE FUNCTION COPY/PRINT ROOM LIGHTS,NECB-A-LIGHTING,SP-COPY/PRINT ROOM-SPACE FUNCTION SYS-3 FLR-1 SCH-A HPLCMT-WEST ZN,1875.00,18.8,14630.315,7.803,780.000,0.000,0.500,0.200,0.300,1.000,General,731.516,13167.284
! <ElectricEquipment Internal Gains Nominal>,Name,Schedule Name,Zone Name,Zone Floor Area {m2},# Zone Occupants,Equipment Level {W},Equipment/Floor Area {W/m2},Equipment per person {W/person},Fraction Latent,Fraction Radiant,Fraction Lost,Fraction Convected,End-Use SubCategory,Nominal Minimum Equipment Level {W},Nominal Maximum Equipment Level {W}
 ElectricEquipment Internal Gains Nominal, SP-CLASSROOM/LECTURE HALL/TRAINING ROOM - PENITENTARY-SPACE FUNCTION SYS-3 FLR-1 SCH-D HPLCMT-CORE ZN SPACE FUNCTION CLASSROOM/LECTURE HALL/TRAINING ROOM - PENITENTARY ELEC EQUIP,NECB-D-ELECTRIC-EQUIPMENT,SP-CLASSROOM/LECTURE HALL/TRAINING ROOM - PENITENTARY-SPACE FUNCTION SYS-3 FLR-1 SCH-D HPLCMT-CORE ZN,2500.00,333.5,12504.543,5.002,37.500,0.000,0.500,0.000,0.500,General,625.227,11254.088
 ElectricEquipment Internal Gains Nominal, SP-CLASSROOM/LECTURE HALL/TRAINING ROOM OTHER-SPACE FUNCTION SYS-3 FLR-1 SCH-D HPLCMT-SOUTH ZN SPACE FUNCTION CLASSROOM/LECTURE HALL/TRAINING ROOM OTHER ELEC EQUIP,NECB-D-ELECTRIC-EQUIPMENT,SP-CLASSROOM/LECTURE HALL/TRAINING ROOM OTHER-SPACE FUNCTION SYS-3 FLR-1 SCH-D HPLCMT-SOUTH ZN,1875.00,250.1,9378.407,5.002,37.500,0.000,0.500,0.000,0.500,General,468.920,8440.566
 ElectricEquipment Internal Gains Nominal, SP-CONFERENCE/MEETING/MULTI-PURPOSE ROOM-SPACE FUNCTION SYS-3 FLR-1 SCH-C HPLCMT-EAST ZN SPACE FUNCTION CONFERENCE/MEETING/MULTI-PURPOSE ROOM ELEC EQUIP,NECB-C-ELECTRIC-EQUIPMENT,SP-CONFERENCE/MEETING/MULTI-PURPOSE ROOM-SPACE FUNCTION SYS-3 FLR-1 SCH-C HPLCMT-EAST ZN,1875.00,375.1,1875.681,1.000,5.000,0.000,0.500,0.000,0.500,General,93.784,1688.113
 ElectricEquipment Internal Gains Nominal, SP-COPY/PRINT ROOM-SPACE FUNCTION SYS-3 FLR-1 SCH-A HPLCMT-WEST ZN SPACE FUNCTION COPY/PRINT ROOM ELEC EQUIP,NECB-A-ELECTRIC-EQUIPMENT,SP-COPY/PRINT ROOM-SPACE FUNCTION SYS-3 FLR-1 SCH-A HPLCMT-WEST ZN,1875.00,18.8,112540.885,60.022,6000.000,0.000,0.500,0.000,0.500,General,22508.177,101286.796
! <Shadowing/Sun Position Calculations Annual Simulations>, Calculation Method, Value {days}, Allowable Number Figures in Shadow Overlap {}, Polygon Clipping Algorithm, Sky Diffuse Modeling Algorithm, External Shading Calculation Method, Output External Shading Calculation Results, Disable Self-Shading Within Shading Zone Groups, Disable Self-Shading From Shading Zone Groups to Other Zones
Shadowing/Sun Position Calculations Annual Simulations,AverageOverDaysInFrequency,20,15000,SutherlandHodgman,SimpleSkyDiffuseModeling,InternalCalculation,No,No,No
! <Water Heater Information>,Type,Name,Volume {m3},Maximum Capacity {W},Standard Rated Recovery Efficiency, Standard Rated Energy Factor
! <RoomAir Model>, Zone Name, Mixing/Mundt/UCSDDV/UCSDCV/UCSDUFI/UCSDUFE/User Defined
RoomAir Model,SP-CLASSROOM/LECTURE HALL/TRAINING ROOM - PENITENTARY-SPACE FUNCTION SYS-3 FLR-1 SCH-D HPLCMT-CORE ZN,Mixing/Well-Stirred
RoomAir Model,SP-CLASSROOM/LECTURE HALL/TRAINING ROOM OTHER-SPACE FUNCTION SYS-3 FLR-1 SCH-D HPLCMT-SOUTH ZN,Mixing/Well-Stirred
RoomAir Model,SP-CONFERENCE/MEETING/MULTI-PURPOSE ROOM-SPACE FUNCTION SYS-3 FLR-1 SCH-C HPLCMT-EAST ZN,Mixing/Well-Stirred
RoomAir Model,SP-CONFINEMENT CELL-SPACE FUNCTION SYS-3 FLR-1 SCH-G HPLCMT-NORTH ZN,Mixing/Well-Stirred
RoomAir Model,SP-COPY/PRINT ROOM-SPACE FUNCTION SYS-3 FLR-1 SCH-A HPLCMT-WEST ZN,Mixing/Well-Stirred
! <AirflowNetwork Model:Control>, No Multizone or Distribution/Multizone with Distribution/Multizone without Distribution/Multizone with Distribution only during Fan Operation
AirflowNetwork Model:Control,NoMultizoneOrDistribution
! <Zone Volume Capacitance Multiplier>, Sensible Heat Capacity Multiplier, Moisture Capacity Multiplier, Carbon Dioxide Capacity Multiplier, Generic Contaminant Capacity Multiplier
Zone Volume Capacitance Multiplier,   1.000 ,   1.000,   1.000,   1.000
! <Load Timesteps in Zone Design Calculation Averaging Window>, Value
 Load Timesteps in Zone Design Calculation Averaging Window,    6
! <Heating Sizing Factor Information>, Sizing Factor ID, Value
 Heating Sizing Factor Information, Global,   1.3000    
 Heating Sizing Factor Information, Zone SP-CLASSROOM/LECTURE HALL/TRAINING ROOM - PENITENTARY-SPACE FUNCTION SYS-3 FLR-1 SCH-D HPLCMT-CORE ZN,   1.3000    
 Heating Sizing Factor Information, Zone SP-CLASSROOM/LECTURE HALL/TRAINING ROOM OTHER-SPACE FUNCTION SYS-3 FLR-1 SCH-D HPLCMT-SOUTH ZN,   1.3000    
 Heating Sizing Factor Information, Zone SP-CONFERENCE/MEETING/MULTI-PURPOSE ROOM-SPACE FUNCTION SYS-3 FLR-1 SCH-C HPLCMT-EAST ZN,   1.3000    
 Heating Sizing Factor Information, Zone SP-CONFINEMENT CELL-SPACE FUNCTION SYS-3 FLR-1 SCH-G HPLCMT-NORTH ZN,   1.3000    
 Heating Sizing Factor Information, Zone SP-COPY/PRINT ROOM-SPACE FUNCTION SYS-3 FLR-1 SCH-A HPLCMT-WEST ZN,   1.3000    
! <Cooling Sizing Factor Information>, Sizing Factor ID, Value
 Cooling Sizing Factor Information, Global,   1.1000    
 Cooling Sizing Factor Information, Zone SP-CLASSROOM/LECTURE HALL/TRAINING ROOM - PENITENTARY-SPACE FUNCTION SYS-3 FLR-1 SCH-D HPLCMT-CORE ZN,   1.1000    
 Cooling Sizing Factor Information, Zone SP-CLASSROOM/LECTURE HALL/TRAINING ROOM OTHER-SPACE FUNCTION SYS-3 FLR-1 SCH-D HPLCMT-SOUTH ZN,   1.1000    
 Cooling Sizing Factor Information, Zone SP-CONFERENCE/MEETING/MULTI-PURPOSE ROOM-SPACE FUNCTION SYS-3 FLR-1 SCH-C HPLCMT-EAST ZN,   1.1000    
 Cooling Sizing Factor Information, Zone SP-CONFINEMENT CELL-SPACE FUNCTION SYS-3 FLR-1 SCH-G HPLCMT-NORTH ZN,   1.1000    
 Cooling Sizing Factor Information, Zone SP-COPY/PRINT ROOM-SPACE FUNCTION SYS-3 FLR-1 SCH-A HPLCMT-WEST ZN,   1.1000    
! <Zone Sizing Information>, Zone Name, Load Type, Calc Des Load {W}, User Des Load {W}, Calc Des Air Flow Rate {m3/s}, User Des Air Flow Rate {m3/s}, Design Day Name, Date/Time of Peak, Temperature at Peak {C}, Humidity Ratio at Peak {kgWater/kgDryAir}, Floor Area {m2}, # Occupants, Calc Outdoor Air Flow Rate {m3/s}, Calc DOAS Heat Addition Rate {W}
 Zone Sizing Information, SP-CLASSROOM/LECTURE HALL/TRAINING ROOM - PENITENTARY-SPACE FUNCTION SYS-3 FLR-1 SCH-D HPLCMT-CORE ZN, Cooling, 53235.68335, 58559.25168, 4.11545, 6.95960, FORT MCMURRAY AP ANN CLG .4% CONDNS DB=>MWB, 7/21 12:00:00, 27.28800, 8.76969E-003, 2500.00000, 333.45447, 6.95960, 0.00000
 Zone Sizing Information, SP-CLASSROOM/LECTURE HALL/TRAINING ROOM - PENITENTARY-SPACE FUNCTION SYS-3 FLR-1 SCH-D HPLCMT-CORE ZN, Heating, 1730.60370, 2249.78481, 6.89514E-002, 6.95960, FORT MCMURRAY AP ANN HTG 99.6% CONDNS DB, 1/21 08:10:00, -36.20000, 1.25811E-004, 2500.00000, 333.45447, 6.95960, 0.00000
 Zone Sizing Information, SP-CLASSROOM/LECTURE HALL/TRAINING ROOM OTHER-SPACE FUNCTION SYS-3 FLR-1 SCH-D HPLCMT-SOUTH ZN, Cooling, 39149.99060, 43064.98966, 3.02653, 5.21970, FORT MCMURRAY AP ANN CLG .4% CONDNS DB=>MWB, 7/21 12:00:00, 27.28800, 8.76969E-003, 1875.00000, 250.09086, 5.21970, 0.00000
 Zone Sizing Information, SP-CLASSROOM/LECTURE HALL/TRAINING ROOM OTHER-SPACE FUNCTION SYS-3 FLR-1 SCH-D HPLCMT-SOUTH ZN, Heating, 2471.59196, 3213.06955, 9.72465E-002, 5.21970, FORT MCMURRAY AP ANN HTG 99.6% CONDNS DB, 1/21 08:10:00, -36.20000, 1.25811E-004, 1875.00000, 250.09086, 5.21970, 0.00000
 Zone Sizing Information, SP-CONFERENCE/MEETING/MULTI-PURPOSE ROOM-SPACE FUNCTION SYS-3 FLR-1 SCH-C HPLCMT-EAST ZN, Cooling, 36667.13146, 40333.84461, 2.83481, 3.11829, FORT MCMURRAY AP ANN CLG .4% CONDNS DB=>MWB, 7/21 17:00:00, 27.16400, 8.76969E-003, 1875.00000, 375.13628, 2.95275, 0.00000
 Zone Sizing Information, SP-CONFERENCE/MEETING/MULTI-PURPOSE ROOM-SPACE FUNCTION SYS-3 FLR-1 SCH-C HPLCMT-EAST ZN, Heating, 4761.89665, 6190.46565, 0.18274, 2.95275, FORT MCMURRAY AP ANN HTG 99.6% CONDNS DB, 1/21 08:10:00, -36.20000, 1.25811E-004, 1875.00000, 375.13628, 2.95275, 0.00000
 Zone Sizing Information, SP-CONFINEMENT CELL-SPACE FUNCTION SYS-3 FLR-1 SCH-G HPLCMT-NORTH ZN, Cooling, 13926.98454, 15319.68299, 1.07649, 2.33363, FORT MCMURRAY AP ANN CLG .4% CONDNS DB=>MWB, 7/21 21:10:00, 21.39800, 8.76969E-003, 1875.00000, 75.02726, 2.33363, 0.00000
 Zone Sizing Information, SP-CONFINEMENT CELL-SPACE FUNCTION SYS-3 FLR-1 SCH-G HPLCMT-NORTH ZN, Heating, 0.00000, 0.00000, 0.00000, 2.33363, FORT MCMURRAY AP ANN HTG 99.6% CONDNS DB, , -36.20000, 1.25811E-004, 1875.00000, 75.02726, 2.33363, 0.00000
 Zone Sizing Information, SP-COPY/PRINT ROOM-SPACE FUNCTION SYS-3 FLR-1 SCH-A HPLCMT-WEST ZN, Cooling, 98410.27019, 108251.29721, 7.60555, 8.36611, FORT MCMURRAY AP ANN CLG .4% CONDNS DB=>MWB, 7/21 16:00:00, 28.15600, 8.76969E-003, 1875.00000, 18.75681, 4.76250, 0.00000
 Zone Sizing Information, SP-COPY/PRINT ROOM-SPACE FUNCTION SYS-3 FLR-1 SCH-A HPLCMT-WEST ZN, Heating, 0.00000, 0.00000, 0.00000, 4.76250, FORT MCMURRAY AP ANN HTG 99.6% CONDNS DB, , -36.20000, 1.25811E-004, 1875.00000, 18.75681, 4.76250, 0.00000
! <System Sizing Information>, System Name, Load Type, Peak Load Kind, User Design Capacity, Calc Des Air Flow Rate [m3/s], User Des Air Flow Rate [m3/s], Design Day Name, Date/Time of Peak
 System Sizing Information, SYS_3_PSZ SP-CLASSROOM/LECTURE HALL/TRAINING ROOM - PENITENTARY-SPACE FUNCTION SYS-3 FLR-1 SCH-D HPLCMT-CORE ZN, Cooling, Sensible, 115163.23, 6.95960, 6.95960, FORT MCMURRAY AP ANN CLG .4% CONDNS DB=>MWB, 7/21 05:00:00
 System Sizing Information, SYS_3_PSZ SP-CLASSROOM/LECTURE HALL/TRAINING ROOM - PENITENTARY-SPACE FUNCTION SYS-3 FLR-1 SCH-D HPLCMT-CORE ZN, Heating, Sensible, 638362.81, 6.95960, 6.95960, FORT MCMURRAY AP ANN HTG 99.6% CONDNS DB, 1/21 00:10:00
 System Sizing Information, SYS_3_PSZ SP-CLASSROOM/LECTURE HALL/TRAINING ROOM OTHER-SPACE FUNCTION SYS-3 FLR-1 SCH-D HPLCMT-SOUTH ZN, Cooling, Sensible, 86372.42, 5.21970, 5.21970, FORT MCMURRAY AP ANN CLG .4% CONDNS DB=>MWB, 7/21 05:00:00
 System Sizing Information, SYS_3_PSZ SP-CLASSROOM/LECTURE HALL/TRAINING ROOM OTHER-SPACE FUNCTION SYS-3 FLR-1 SCH-D HPLCMT-SOUTH ZN, Heating, Sensible, 478772.11, 5.21970, 5.21970, FORT MCMURRAY AP ANN HTG 99.6% CONDNS DB, 1/21 00:10:00
 System Sizing Information, SYS_3_PSZ SP-CONFERENCE/MEETING/MULTI-PURPOSE ROOM-SPACE FUNCTION SYS-3 FLR-1 SCH-C HPLCMT-EAST ZN, Cooling, Sensible, 50544.38, 3.11829, 3.11829, FORT MCMURRAY AP ANN CLG .4% CONDNS DB=>MWB, 7/21 05:00:00
 System Sizing Information, SYS_3_PSZ SP-CONFERENCE/MEETING/MULTI-PURPOSE ROOM-SPACE FUNCTION SYS-3 FLR-1 SCH-C HPLCMT-EAST ZN, Heating, Sensible, 270838.24, 2.95275, 2.95275, FORT MCMURRAY AP ANN HTG 99.6% CONDNS DB, 1/21 00:10:00
 System Sizing Information, SYS_3_PSZ SP-CONFINEMENT CELL-SPACE FUNCTION SYS-3 FLR-1 SCH-G HPLCMT-NORTH ZN, Cooling, Sensible, 22696.82, 2.33363, 2.33363, FORT MCMURRAY AP ANN CLG .4% CONDNS DB=>MWB, 7/21 05:00:00
 System Sizing Information, SYS_3_PSZ SP-CONFINEMENT CELL-SPACE FUNCTION SYS-3 FLR-1 SCH-G HPLCMT-NORTH ZN, Heating, Sensible, 214049.57, 2.33363, 2.33363, FORT MCMURRAY AP ANN HTG 99.6% CONDNS DB, 1/21 00:10:00
 System Sizing Information, SYS_3_PSZ SP-COPY/PRINT ROOM-SPACE FUNCTION SYS-3 FLR-1 SCH-A HPLCMT-WEST ZN, Cooling, Sensible, 129501.52, 8.36611, 8.36611, FORT MCMURRAY AP ANN CLG .4% CONDNS DB=>MWB, 7/21 05:00:00
 System Sizing Information, SYS_3_PSZ SP-COPY/PRINT ROOM-SPACE FUNCTION SYS-3 FLR-1 SCH-A HPLCMT-WEST ZN, Heating, Sensible, 436835.87, 4.76250, 4.76250, FORT MCMURRAY AP ANN HTG 99.6% CONDNS DB, 1/21 00:10:00
! <Component Sizing Information>, Component Type, Component Name, Input Field Description, Value
 Component Sizing Information, AirTerminal:SingleDuct:Uncontrolled, AIR TERMINAL SINGLE DUCT UNCONTROLLED 2, Design Size Maximum Air Flow Rate [m3/s], 6.95960
 Component Sizing Information, ZoneHVAC:Baseboard:Convective:Water, ZONE HVAC BASEBOARD CONVECTIVE WATER 2, Design Size Maximum Water Flow Rate [m3/s], 3.36024E-005
 Component Sizing Information, ZoneHVAC:Baseboard:Convective:Water, ZONE HVAC BASEBOARD CONVECTIVE WATER 2, Design Size U-Factor Times Area Value [W/K], 45.69101
 Component Sizing Information, AirTerminal:SingleDuct:Uncontrolled, AIR TERMINAL SINGLE DUCT UNCONTROLLED 1, Design Size Maximum Air Flow Rate [m3/s], 5.21970
 Component Sizing Information, ZoneHVAC:Baseboard:Convective:Water, ZONE HVAC BASEBOARD CONVECTIVE WATER 1, Design Size Maximum Water Flow Rate [m3/s], 4.79898E-005
 Component Sizing Information, ZoneHVAC:Baseboard:Convective:Water, ZONE HVAC BASEBOARD CONVECTIVE WATER 1, Design Size U-Factor Times Area Value [W/K], 65.16450
 Component Sizing Information, AirTerminal:SingleDuct:Uncontrolled, AIR TERMINAL SINGLE DUCT UNCONTROLLED 3, Design Size Maximum Air Flow Rate [m3/s], 3.11829
 Component Sizing Information, ZoneHVAC:Baseboard:Convective:Water, ZONE HVAC BASEBOARD CONVECTIVE WATER 3, Design Size Maximum Water Flow Rate [m3/s], 9.24596E-005
 Component Sizing Information, ZoneHVAC:Baseboard:Convective:Water, ZONE HVAC BASEBOARD CONVECTIVE WATER 3, Design Size U-Factor Times Area Value [W/K], 125.18114
 Component Sizing Information, AirTerminal:SingleDuct:Uncontrolled, AIR TERMINAL SINGLE DUCT UNCONTROLLED 4, Design Size Maximum Air Flow Rate [m3/s], 2.33363
 Component Sizing Information, ZoneHVAC:Baseboard:Convective:Water, ZONE HVAC BASEBOARD CONVECTIVE WATER 4, Design Size Maximum Water Flow Rate [m3/s], 0.00000
 Component Sizing Information, ZoneHVAC:Baseboard:Convective:Water, ZONE HVAC BASEBOARD CONVECTIVE WATER 4, Design Size U-Factor Times Area Value [W/K], 0.00000
 Component Sizing Information, AirTerminal:SingleDuct:Uncontrolled, AIR TERMINAL SINGLE DUCT UNCONTROLLED 5, Design Size Maximum Air Flow Rate [m3/s], 8.36611
 Component Sizing Information, ZoneHVAC:Baseboard:Convective:Water, ZONE HVAC BASEBOARD CONVECTIVE WATER 5, Design Size Maximum Water Flow Rate [m3/s], 0.00000
 Component Sizing Information, ZoneHVAC:Baseboard:Convective:Water, ZONE HVAC BASEBOARD CONVECTIVE WATER 5, Design Size U-Factor Times Area Value [W/K], 0.00000
 Component Sizing Information, AirLoopHVAC, SYS_3_PSZ SP-CLASSROOM/LECTURE HALL/TRAINING ROOM - PENITENTARY-SPACE FUNCTION SYS-3 FLR-1 SCH-D HPLCMT-CORE ZN, Sum of Air Terminal Maximum Heating Flow Rates [m3/s], 6.95960
 Component Sizing Information, AirLoopHVAC, SYS_3_PSZ SP-CLASSROOM/LECTURE HALL/TRAINING ROOM - PENITENTARY-SPACE FUNCTION SYS-3 FLR-1 SCH-D HPLCMT-CORE ZN, Sum of Air Terminal Minimum Heating Flow Rates [m3/s], 6.95960
 Component Sizing Information, AirLoopHVAC, SYS_3_PSZ SP-CLASSROOM/LECTURE HALL/TRAINING ROOM - PENITENTARY-SPACE FUNCTION SYS-3 FLR-1 SCH-D HPLCMT-CORE ZN, Sum of Air Terminal Maximum Flow Rates [m3/s], 6.95960
 Component Sizing Information, AirLoopHVAC, SYS_3_PSZ SP-CLASSROOM/LECTURE HALL/TRAINING ROOM - PENITENTARY-SPACE FUNCTION SYS-3 FLR-1 SCH-D HPLCMT-CORE ZN, Adjusted Heating Design Air Flow Rate [m3/s], 6.95960
 Component Sizing Information, AirLoopHVAC, SYS_3_PSZ SP-CLASSROOM/LECTURE HALL/TRAINING ROOM - PENITENTARY-SPACE FUNCTION SYS-3 FLR-1 SCH-D HPLCMT-CORE ZN, Adjusted Cooling Design Air Flow Rate [m3/s], 6.95960
 Component Sizing Information, AirLoopHVAC, SYS_3_PSZ SP-CLASSROOM/LECTURE HALL/TRAINING ROOM - PENITENTARY-SPACE FUNCTION SYS-3 FLR-1 SCH-D HPLCMT-CORE ZN, Adjusted Main Design Air Flow Rate [m3/s], 6.95960
 Component Sizing Information, AirLoopHVAC, SYS_3_PSZ SP-CLASSROOM/LECTURE HALL/TRAINING ROOM - PENITENTARY-SPACE FUNCTION SYS-3 FLR-1 SCH-D HPLCMT-CORE ZN, User Heating Air Flow Ratio [], 1.00000
 Component Sizing Information, AirLoopHVAC, SYS_3_PSZ SP-CLASSROOM/LECTURE HALL/TRAINING ROOM - PENITENTARY-SPACE FUNCTION SYS-3 FLR-1 SCH-D HPLCMT-CORE ZN, Calculated Heating Air Flow Ratio [], 1.00000
 Component Sizing Information, AirLoopHVAC, SYS_3_PSZ SP-CLASSROOM/LECTURE HALL/TRAINING ROOM OTHER-SPACE FUNCTION SYS-3 FLR-1 SCH-D HPLCMT-SOUTH ZN, Sum of Air Terminal Maximum Heating Flow Rates [m3/s], 5.21970
 Component Sizing Information, AirLoopHVAC, SYS_3_PSZ SP-CLASSROOM/LECTURE HALL/TRAINING ROOM OTHER-SPACE FUNCTION SYS-3 FLR-1 SCH-D HPLCMT-SOUTH ZN, Sum of Air Terminal Minimum Heating Flow Rates [m3/s], 5.21970
 Component Sizing Information, AirLoopHVAC, SYS_3_PSZ SP-CLASSROOM/LECTURE HALL/TRAINING ROOM OTHER-SPACE FUNCTION SYS-3 FLR-1 SCH-D HPLCMT-SOUTH ZN, Sum of Air Terminal Maximum Flow Rates [m3/s], 5.21970
 Component Sizing Information, AirLoopHVAC, SYS_3_PSZ SP-CLASSROOM/LECTURE HALL/TRAINING ROOM OTHER-SPACE FUNCTION SYS-3 FLR-1 SCH-D HPLCMT-SOUTH ZN, Adjusted Heating Design Air Flow Rate [m3/s], 5.21970
 Component Sizing Information, AirLoopHVAC, SYS_3_PSZ SP-CLASSROOM/LECTURE HALL/TRAINING ROOM OTHER-SPACE FUNCTION SYS-3 FLR-1 SCH-D HPLCMT-SOUTH ZN, Adjusted Cooling Design Air Flow Rate [m3/s], 5.21970
 Component Sizing Information, AirLoopHVAC, SYS_3_PSZ SP-CLASSROOM/LECTURE HALL/TRAINING ROOM OTHER-SPACE FUNCTION SYS-3 FLR-1 SCH-D HPLCMT-SOUTH ZN, Adjusted Main Design Air Flow Rate [m3/s], 5.21970
 Component Sizing Information, AirLoopHVAC, SYS_3_PSZ SP-CLASSROOM/LECTURE HALL/TRAINING ROOM OTHER-SPACE FUNCTION SYS-3 FLR-1 SCH-D HPLCMT-SOUTH ZN, User Heating Air Flow Ratio [], 1.00000
 Component Sizing Information, AirLoopHVAC, SYS_3_PSZ SP-CLASSROOM/LECTURE HALL/TRAINING ROOM OTHER-SPACE FUNCTION SYS-3 FLR-1 SCH-D HPLCMT-SOUTH ZN, Calculated Heating Air Flow Ratio [], 1.00000
 Component Sizing Information, AirLoopHVAC, SYS_3_PSZ SP-CONFERENCE/MEETING/MULTI-PURPOSE ROOM-SPACE FUNCTION SYS-3 FLR-1 SCH-C HPLCMT-EAST ZN, Sum of Air Terminal Maximum Heating Flow Rates [m3/s], 3.11829
 Component Sizing Information, AirLoopHVAC, SYS_3_PSZ SP-CONFERENCE/MEETING/MULTI-PURPOSE ROOM-SPACE FUNCTION SYS-3 FLR-1 SCH-C HPLCMT-EAST ZN, Sum of Air Terminal Minimum Heating Flow Rates [m3/s], 3.11829
 Component Sizing Information, AirLoopHVAC, SYS_3_PSZ SP-CONFERENCE/MEETING/MULTI-PURPOSE ROOM-SPACE FUNCTION SYS-3 FLR-1 SCH-C HPLCMT-EAST ZN, Sum of Air Terminal Maximum Flow Rates [m3/s], 3.11829
 Component Sizing Information, AirLoopHVAC, SYS_3_PSZ SP-CONFERENCE/MEETING/MULTI-PURPOSE ROOM-SPACE FUNCTION SYS-3 FLR-1 SCH-C HPLCMT-EAST ZN, Adjusted Heating Design Air Flow Rate [m3/s], 3.11829
 Component Sizing Information, AirLoopHVAC, SYS_3_PSZ SP-CONFERENCE/MEETING/MULTI-PURPOSE ROOM-SPACE FUNCTION SYS-3 FLR-1 SCH-C HPLCMT-EAST ZN, Adjusted Cooling Design Air Flow Rate [m3/s], 3.11829
 Component Sizing Information, AirLoopHVAC, SYS_3_PSZ SP-CONFERENCE/MEETING/MULTI-PURPOSE ROOM-SPACE FUNCTION SYS-3 FLR-1 SCH-C HPLCMT-EAST ZN, Adjusted Main Design Air Flow Rate [m3/s], 3.11829
 Component Sizing Information, AirLoopHVAC, SYS_3_PSZ SP-CONFERENCE/MEETING/MULTI-PURPOSE ROOM-SPACE FUNCTION SYS-3 FLR-1 SCH-C HPLCMT-EAST ZN, User Heating Air Flow Ratio [], 1.00000
 Component Sizing Information, AirLoopHVAC, SYS_3_PSZ SP-CONFERENCE/MEETING/MULTI-PURPOSE ROOM-SPACE FUNCTION SYS-3 FLR-1 SCH-C HPLCMT-EAST ZN, Calculated Heating Air Flow Ratio [], 1.00000
 Component Sizing Information, AirLoopHVAC, SYS_3_PSZ SP-CONFINEMENT CELL-SPACE FUNCTION SYS-3 FLR-1 SCH-G HPLCMT-NORTH ZN, Sum of Air Terminal Maximum Heating Flow Rates [m3/s], 2.33363
 Component Sizing Information, AirLoopHVAC, SYS_3_PSZ SP-CONFINEMENT CELL-SPACE FUNCTION SYS-3 FLR-1 SCH-G HPLCMT-NORTH ZN, Sum of Air Terminal Minimum Heating Flow Rates [m3/s], 2.33363
 Component Sizing Information, AirLoopHVAC, SYS_3_PSZ SP-CONFINEMENT CELL-SPACE FUNCTION SYS-3 FLR-1 SCH-G HPLCMT-NORTH ZN, Sum of Air Terminal Maximum Flow Rates [m3/s], 2.33363
 Component Sizing Information, AirLoopHVAC, SYS_3_PSZ SP-CONFINEMENT CELL-SPACE FUNCTION SYS-3 FLR-1 SCH-G HPLCMT-NORTH ZN, Adjusted Heating Design Air Flow Rate [m3/s], 2.33363
 Component Sizing Information, AirLoopHVAC, SYS_3_PSZ SP-CONFINEMENT CELL-SPACE FUNCTION SYS-3 FLR-1 SCH-G HPLCMT-NORTH ZN, Adjusted Cooling Design Air Flow Rate [m3/s], 2.33363
 Component Sizing Information, AirLoopHVAC, SYS_3_PSZ SP-CONFINEMENT CELL-SPACE FUNCTION SYS-3 FLR-1 SCH-G HPLCMT-NORTH ZN, Adjusted Main Design Air Flow Rate [m3/s], 2.33363
 Component Sizing Information, AirLoopHVAC, SYS_3_PSZ SP-CONFINEMENT CELL-SPACE FUNCTION SYS-3 FLR-1 SCH-G HPLCMT-NORTH ZN, User Heating Air Flow Ratio [], 1.00000
 Component Sizing Information, AirLoopHVAC, SYS_3_PSZ SP-CONFINEMENT CELL-SPACE FUNCTION SYS-3 FLR-1 SCH-G HPLCMT-NORTH ZN, Calculated Heating Air Flow Ratio [], 1.00000
 Component Sizing Information, AirLoopHVAC, SYS_3_PSZ SP-COPY/PRINT ROOM-SPACE FUNCTION SYS-3 FLR-1 SCH-A HPLCMT-WEST ZN, Sum of Air Terminal Maximum Heating Flow Rates [m3/s], 8.36611
 Component Sizing Information, AirLoopHVAC, SYS_3_PSZ SP-COPY/PRINT ROOM-SPACE FUNCTION SYS-3 FLR-1 SCH-A HPLCMT-WEST ZN, Sum of Air Terminal Minimum Heating Flow Rates [m3/s], 8.36611
 Component Sizing Information, AirLoopHVAC, SYS_3_PSZ SP-COPY/PRINT ROOM-SPACE FUNCTION SYS-3 FLR-1 SCH-A HPLCMT-WEST ZN, Sum of Air Terminal Maximum Flow Rates [m3/s], 8.36611
 Component Sizing Information, AirLoopHVAC, SYS_3_PSZ SP-COPY/PRINT ROOM-SPACE FUNCTION SYS-3 FLR-1 SCH-A HPLCMT-WEST ZN, Adjusted Heating Design Air Flow Rate [m3/s], 8.36611
 Component Sizing Information, AirLoopHVAC, SYS_3_PSZ SP-COPY/PRINT ROOM-SPACE FUNCTION SYS-3 FLR-1 SCH-A HPLCMT-WEST ZN, Adjusted Cooling Design Air Flow Rate [m3/s], 8.36611
 Component Sizing Information, AirLoopHVAC, SYS_3_PSZ SP-COPY/PRINT ROOM-SPACE FUNCTION SYS-3 FLR-1 SCH-A HPLCMT-WEST ZN, Adjusted Main Design Air Flow Rate [m3/s], 8.36611
 Component Sizing Information, AirLoopHVAC, SYS_3_PSZ SP-COPY/PRINT ROOM-SPACE FUNCTION SYS-3 FLR-1 SCH-A HPLCMT-WEST ZN, User Heating Air Flow Ratio [], 1.00000
 Component Sizing Information, AirLoopHVAC, SYS_3_PSZ SP-COPY/PRINT ROOM-SPACE FUNCTION SYS-3 FLR-1 SCH-A HPLCMT-WEST ZN, Calculated Heating Air Flow Ratio [], 1.00000
 Component Sizing Information, AirLoopHVAC, SYS_3_PSZ SP-CLASSROOM/LECTURE HALL/TRAINING ROOM - PENITENTARY-SPACE FUNCTION SYS-3 FLR-1 SCH-D HPLCMT-CORE ZN, Design Supply Air Flow Rate [m3/s], 6.95960
 Component Sizing Information, AirLoopHVAC, SYS_3_PSZ SP-CLASSROOM/LECTURE HALL/TRAINING ROOM OTHER-SPACE FUNCTION SYS-3 FLR-1 SCH-D HPLCMT-SOUTH ZN, Design Supply Air Flow Rate [m3/s], 5.21970
 Component Sizing Information, AirLoopHVAC, SYS_3_PSZ SP-CONFERENCE/MEETING/MULTI-PURPOSE ROOM-SPACE FUNCTION SYS-3 FLR-1 SCH-C HPLCMT-EAST ZN, Design Supply Air Flow Rate [m3/s], 3.11829
 Component Sizing Information, AirLoopHVAC, SYS_3_PSZ SP-CONFINEMENT CELL-SPACE FUNCTION SYS-3 FLR-1 SCH-G HPLCMT-NORTH ZN, Design Supply Air Flow Rate [m3/s], 2.33363
 Component Sizing Information, AirLoopHVAC, SYS_3_PSZ SP-COPY/PRINT ROOM-SPACE FUNCTION SYS-3 FLR-1 SCH-A HPLCMT-WEST ZN, Design Supply Air Flow Rate [m3/s], 8.36611
!<Controller:MechanicalVentilation>,Name,Availability Schedule Name,Demand Controlled Ventilation {Yes/No},System Outdoor Air Method,Zone Maximum Outdoor Air Fraction,Number of Zones,Zone Name,DSOA Name,DSZAD Name
 Controller:MechanicalVentilation,CONTROLLER MECHANICAL VENTILATION 2,SYS_3_PSZ SP-CLASSROOM/LECTURE HALL/TRAINING ROOM - PENITENTARY-SPACE FUNCTION SYS-3 FLR-1 SCH-D HPLCMT-CORE ZN OCC SCH,No,ZoneSum,1.00,1,SP-CLASSROOM/LECTURE HALL/TRAINING ROOM - PENITENTARY-SPACE FUNCTION SYS-3 FLR-1 SCH-D HPLCMT-CORE ZN,SPACE FUNCTION CLASSROOM/LECTURE HALL/TRAINING ROOM - PENITENTARY VENTILATION,SP-CLASSROOM/LECTURE HALL/TRAINING ROOM - PENITENTARY-SPACE FUNCTION SYS-3 FLR-1 SCH-D HPLCMT-CORE ZN DESIGN SPEC ZONE AIR DIST
 Controller:MechanicalVentilation,CONTROLLER MECHANICAL VENTILATION 1,SYS_3_PSZ SP-CLASSROOM/LECTURE HALL/TRAINING ROOM OTHER-SPACE FUNCTION SYS-3 FLR-1 SCH-D HPLCMT-SOUTH ZN OCC SCH,No,ZoneSum,1.00,1,SP-CLASSROOM/LECTURE HALL/TRAINING ROOM OTHER-SPACE FUNCTION SYS-3 FLR-1 SCH-D HPLCMT-SOUTH ZN,SPACE FUNCTION CLASSROOM/LECTURE HALL/TRAINING ROOM OTHER VENTILATION,SP-CLASSROOM/LECTURE HALL/TRAINING ROOM OTHER-SPACE FUNCTION SYS-3 FLR-1 SCH-D HPLCMT-SOUTH ZN DESIGN SPEC ZONE AIR DIST
 Controller:MechanicalVentilation,CONTROLLER MECHANICAL VENTILATION 3,SYS_3_PSZ SP-CONFERENCE/MEETING/MULTI-PURPOSE ROOM-SPACE FUNCTION SYS-3 FLR-1 SCH-C HPLCMT-EAST ZN OCC SCH,No,ZoneSum,1.00,1,SP-CONFERENCE/MEETING/MULTI-PURPOSE ROOM-SPACE FUNCTION SYS-3 FLR-1 SCH-C HPLCMT-EAST ZN,SPACE FUNCTION CONFERENCE/MEETING/MULTI-PURPOSE ROOM VENTILATION,SP-CONFERENCE/MEETING/MULTI-PURPOSE ROOM-SPACE FUNCTION SYS-3 FLR-1 SCH-C HPLCMT-EAST ZN DESIGN SPEC ZONE AIR DIST
 Controller:MechanicalVentilation,CONTROLLER MECHANICAL VENTILATION 4,SYS_3_PSZ SP-CONFINEMENT CELL-SPACE FUNCTION SYS-3 FLR-1 SCH-G HPLCMT-NORTH ZN OCC SCH,No,ZoneSum,1.00,1,SP-CONFINEMENT CELL-SPACE FUNCTION SYS-3 FLR-1 SCH-G HPLCMT-NORTH ZN,SPACE FUNCTION CONFINEMENT CELL VENTILATION,SP-CONFINEMENT CELL-SPACE FUNCTION SYS-3 FLR-1 SCH-G HPLCMT-NORTH ZN DESIGN SPEC ZONE AIR DIST
 Controller:MechanicalVentilation,CONTROLLER MECHANICAL VENTILATION 5,SYS_3_PSZ SP-COPY/PRINT ROOM-SPACE FUNCTION SYS-3 FLR-1 SCH-A HPLCMT-WEST ZN OCC SCH,No,ZoneSum,1.00,1,SP-COPY/PRINT ROOM-SPACE FUNCTION SYS-3 FLR-1 SCH-A HPLCMT-WEST ZN,SPACE FUNCTION COPY/PRINT ROOM VENTILATION,SP-COPY/PRINT ROOM-SPACE FUNCTION SYS-3 FLR-1 SCH-A HPLCMT-WEST ZN DESIGN SPEC ZONE AIR DIST
 Component Sizing Information, Controller:OutdoorAir, CONTROLLER OUTDOOR AIR 2, Maximum Outdoor Air Flow Rate [m3/s], 6.95960
 Component Sizing Information, Controller:OutdoorAir, CONTROLLER OUTDOOR AIR 2, Minimum Outdoor Air Flow Rate [m3/s], 6.95960
 Component Sizing Information, HeatExchanger:AirToAir:SensibleAndLatent, SYS_3_PSZ SP-CLASSROOM/LECTURE HALL/TRAINING ROOM - PENITENTARY-SPACE FUNCTION SYS-3 FLR-1 SCH-D HPLCMT-CORE ZN ERV, Design Size Nominal Supply Air Flow Rate [m3/s], 6.95960
 Component Sizing Information, Coil:Cooling:DX:SingleSpeed, COIL COOLING DX SINGLE SPEED 2 407KBTU/HR 8.21EER, Design Size Rated Air Flow Rate [m3/s], 6.95960
 Component Sizing Information, Coil:Cooling:DX:SingleSpeed, COIL COOLING DX SINGLE SPEED 2 407KBTU/HR 8.21EER, Design Size Gross Rated Total Cooling Capacity [W], 128078.88666
 Component Sizing Information, Coil:Cooling:DX:SingleSpeed, COIL COOLING DX SINGLE SPEED 2 407KBTU/HR 8.21EER, Design Size Gross Rated Sensible Heat Ratio, 0.80070
! <DX Cooling Coil Standard Rating Information>, Component Type, Component Name, Standard Rating (Net) Cooling Capacity {W}, Standard Rated Net COP {W/W}, EER {Btu/W-h}, SEER {Btu/W-h}, IEER {Btu/W-h}
 DX Cooling Coil Standard Rating Information, Coil:Cooling:DX:SingleSpeed, COIL COOLING DX SINGLE SPEED 2 407KBTU/HR 8.21EER, 122665.9, 2.58, 8.80, 9.30, 8.94
 Component Sizing Information, Coil:Heating:Fuel, COIL HEATING GAS 2, Design Size Nominal Capacity [W], 638362.81277
 Component Sizing Information, Fan:ConstantVolume, FAN CONSTANT VOLUME 2, Design Size Maximum Flow Rate [m3/s], 6.95960
 Component Sizing Information, Controller:OutdoorAir, CONTROLLER OUTDOOR AIR 1, Maximum Outdoor Air Flow Rate [m3/s], 5.21970
 Component Sizing Information, Controller:OutdoorAir, CONTROLLER OUTDOOR AIR 1, Minimum Outdoor Air Flow Rate [m3/s], 5.21970
 Component Sizing Information, HeatExchanger:AirToAir:SensibleAndLatent, SYS_3_PSZ SP-CLASSROOM/LECTURE HALL/TRAINING ROOM OTHER-SPACE FUNCTION SYS-3 FLR-1 SCH-D HPLCMT-SOUTH ZN ERV, Design Size Nominal Supply Air Flow Rate [m3/s], 5.21970
 Component Sizing Information, Coil:Cooling:DX:SingleSpeed, COIL COOLING DX SINGLE SPEED 1 305KBTU/HR 8.21EER, Design Size Rated Air Flow Rate [m3/s], 5.21970
 Component Sizing Information, Coil:Cooling:DX:SingleSpeed, COIL COOLING DX SINGLE SPEED 1 305KBTU/HR 8.21EER, Design Size Gross Rated Total Cooling Capacity [W], 96059.16499
 Component Sizing Information, Coil:Cooling:DX:SingleSpeed, COIL COOLING DX SINGLE SPEED 1 305KBTU/HR 8.21EER, Design Size Gross Rated Sensible Heat Ratio, 0.80070
 DX Cooling Coil Standard Rating Information, Coil:Cooling:DX:SingleSpeed, COIL COOLING DX SINGLE SPEED 1 305KBTU/HR 8.21EER, 91999.5, 2.53, 8.63, 9.13, 8.79
 Component Sizing Information, Coil:Heating:Fuel, COIL HEATING GAS 1, Design Size Nominal Capacity [W], 478772.10958
 Component Sizing Information, Fan:ConstantVolume, FAN CONSTANT VOLUME 1, Design Size Maximum Flow Rate [m3/s], 5.21970
 Component Sizing Information, Controller:OutdoorAir, CONTROLLER OUTDOOR AIR 3, Maximum Outdoor Air Flow Rate [m3/s], 3.11829
 Component Sizing Information, Controller:OutdoorAir, CONTROLLER OUTDOOR AIR 3, Minimum Outdoor Air Flow Rate [m3/s], 2.95275
 Component Sizing Information, HeatExchanger:AirToAir:SensibleAndLatent, SYS_3_PSZ SP-CONFERENCE/MEETING/MULTI-PURPOSE ROOM-SPACE FUNCTION SYS-3 FLR-1 SCH-C HPLCMT-EAST ZN ERV, Design Size Nominal Supply Air Flow Rate [m3/s], 2.95275
 Component Sizing Information, Coil:Cooling:DX:SingleSpeed, COIL COOLING DX SINGLE SPEED 3 182KBTU/HR 9.08EER, Design Size Rated Air Flow Rate [m3/s], 3.11829
 Component Sizing Information, Coil:Cooling:DX:SingleSpeed, COIL COOLING DX SINGLE SPEED 3 182KBTU/HR 9.08EER, Design Size Gross Rated Total Cooling Capacity [W], 57216.62168
 Component Sizing Information, Coil:Cooling:DX:SingleSpeed, COIL COOLING DX SINGLE SPEED 3 182KBTU/HR 9.08EER, Design Size Gross Rated Sensible Heat Ratio, 0.80069
 DX Cooling Coil Standard Rating Information, Coil:Cooling:DX:SingleSpeed, COIL COOLING DX SINGLE SPEED 3 182KBTU/HR 9.08EER, 54791.4, 2.70, 9.21, 9.73, 9.31
 Component Sizing Information, Coil:Heating:Fuel, COIL HEATING GAS 3, Design Size Nominal Capacity [W], 275089.07794
 Component Sizing Information, Fan:ConstantVolume, FAN CONSTANT VOLUME 3, Design Size Maximum Flow Rate [m3/s], 3.11829
 Component Sizing Information, Controller:OutdoorAir, CONTROLLER OUTDOOR AIR 4, Maximum Outdoor Air Flow Rate [m3/s], 2.33363
 Component Sizing Information, Controller:OutdoorAir, CONTROLLER OUTDOOR AIR 4, Minimum Outdoor Air Flow Rate [m3/s], 2.33363
 Component Sizing Information, HeatExchanger:AirToAir:SensibleAndLatent, SYS_3_PSZ SP-CONFINEMENT CELL-SPACE FUNCTION SYS-3 FLR-1 SCH-G HPLCMT-NORTH ZN ERV, Design Size Nominal Supply Air Flow Rate [m3/s], 2.33363
 Component Sizing Information, Coil:Cooling:DX:SingleSpeed, COIL COOLING DX SINGLE SPEED 4 132KBTU/HR 9.26EER, Design Size Rated Air Flow Rate [m3/s], 2.33363
 Component Sizing Information, Coil:Cooling:DX:SingleSpeed, COIL COOLING DX SINGLE SPEED 4 132KBTU/HR 9.26EER, Design Size Gross Rated Total Cooling Capacity [W], 38629.77984
 Component Sizing Information, Coil:Cooling:DX:SingleSpeed, COIL COOLING DX SINGLE SPEED 4 132KBTU/HR 9.26EER, Design Size Gross Rated Sensible Heat Ratio, 0.80066
 DX Cooling Coil Standard Rating Information, Coil:Cooling:DX:SingleSpeed, COIL COOLING DX SINGLE SPEED 4 132KBTU/HR 9.26EER, 36815.8, 2.67, 9.12, 9.62, 9.13
 Component Sizing Information, Coil:Heating:Fuel, COIL HEATING GAS 4, Design Size Nominal Capacity [W], 214049.57454
 Component Sizing Information, Fan:ConstantVolume, FAN CONSTANT VOLUME 4, Design Size Maximum Flow Rate [m3/s], 2.33363
 Component Sizing Information, Controller:OutdoorAir, CONTROLLER OUTDOOR AIR 5, Maximum Outdoor Air Flow Rate [m3/s], 8.36611
 Component Sizing Information, Controller:OutdoorAir, CONTROLLER OUTDOOR AIR 5, Minimum Outdoor Air Flow Rate [m3/s], 4.76250
 Component Sizing Information, HeatExchanger:AirToAir:SensibleAndLatent, SYS_3_PSZ SP-COPY/PRINT ROOM-SPACE FUNCTION SYS-3 FLR-1 SCH-A HPLCMT-WEST ZN ERV, Design Size Nominal Supply Air Flow Rate [m3/s], 4.76250
 Component Sizing Information, Coil:Cooling:DX:SingleSpeed, COIL COOLING DX SINGLE SPEED 5 473KBTU/HR 8.21EER, Design Size Rated Air Flow Rate [m3/s], 8.36611
 Component Sizing Information, Coil:Cooling:DX:SingleSpeed, COIL COOLING DX SINGLE SPEED 5 473KBTU/HR 8.21EER, Design Size Gross Rated Total Cooling Capacity [W], 146133.94312
 Component Sizing Information, Coil:Cooling:DX:SingleSpeed, COIL COOLING DX SINGLE SPEED 5 473KBTU/HR 8.21EER, Design Size Gross Rated Sensible Heat Ratio, 0.80042
 DX Cooling Coil Standard Rating Information, Coil:Cooling:DX:SingleSpeed, COIL COOLING DX SINGLE SPEED 5 473KBTU/HR 8.21EER, 139629.0, 2.59, 8.84, 9.33, 8.93
 Component Sizing Information, Coil:Heating:Fuel, COIL HEATING GAS 5, Design Size Nominal Capacity [W], 524478.41013
 Component Sizing Information, Fan:ConstantVolume, FAN CONSTANT VOLUME 5, Design Size Maximum Flow Rate [m3/s], 8.36611
Water Heater Information,WaterHeater:Mixed,310GAL NATURALGAS WATER HEATER - 866KBTU/HR 0.803 THERM EFF,1.1726,253760.3,0.575,0.3147
 Component Sizing Information, PlantLoop, HOT WATER LOOP, Maximum Loop Flow Rate [m3/s], 1.74052E-004
 Component Sizing Information, PlantLoop, HOT WATER LOOP, Plant Loop Volume [m3], 2.08862E-002
 Component Sizing Information, Pump:VariableSpeed, PUMP VARIABLE SPEED 1, Design Flow Rate [m3/s], 1.74052E-004
 Component Sizing Information, Pump:VariableSpeed, PUMP VARIABLE SPEED 1, Design Power Consumption [W], 52.38263
 Component Sizing Information, Boiler:HotWater, PRIMARY BOILER 40KBTU/HR 0.85 AFUE, Design Size Nominal Capacity [W], 11698.42962
 Component Sizing Information, Boiler:HotWater, PRIMARY BOILER 40KBTU/HR 0.85 AFUE, User-Specified Nominal Capacity [W], 11698.42962
 Component Sizing Information, Boiler:HotWater, PRIMARY BOILER 40KBTU/HR 0.85 AFUE, Design Size Design Water Flow Rate [m3/s], 1.74052E-004
 Component Sizing Information, Boiler:HotWater, SECONDARY BOILER 0KBTU/HR 0.85 AFUE, Design Size Nominal Capacity [W], 11698.42962
 Component Sizing Information, Boiler:HotWater, SECONDARY BOILER 0KBTU/HR 0.85 AFUE, User-Specified Nominal Capacity [W], 1.00000E-003
 Component Sizing Information, Boiler:HotWater, SECONDARY BOILER 0KBTU/HR 0.85 AFUE, Design Size Design Water Flow Rate [m3/s], 1.74052E-004
 Component Sizing Information, PlantLoop, MAIN SERVICE WATER LOOP, Maximum Loop Flow Rate [m3/s], 4.29435E-004
 Component Sizing Information, PlantLoop, MAIN SERVICE WATER LOOP, Plant Loop Volume [m3], 5.15322E-002
 Component Sizing Information, Pump:ConstantSpeed, SERVICE WATER LOOP PUMP, Design Flow Rate [m3/s], 4.29435E-004
 Component Sizing Information, Pump:ConstantSpeed, SERVICE WATER LOOP PUMP, Design Power Consumption [W], 72.85710
 Component Sizing Information, WaterHeater:Mixed, 310GAL NATURALGAS WATER HEATER - 866KBTU/HR 0.803 THERM EFF, Use Side Design Flow Rate [m3/s], 4.29435E-004
! <Environment>,Environment Name,Environment Type, Start Date, End Date, Start DayOfWeek, Duration {#days}, Source:Start DayOfWeek,  Use Daylight Saving, Use Holidays, Apply Weekend Holiday Rule,  Use Rain Values, Use Snow Values
! <Environment:Special Days>, Special Day Name, Special Day Type, Source, Start Date, Duration {#days}
! <Environment:Daylight Saving>, Daylight Saving Indicator, Source, Start Date, End Date
! <Environment:WarmupDays>, NumberofWarmupDays
Environment,RUN PERIOD 1,WeatherFileRunPeriod,01/01,12/31,Sunday,365,Use RunPeriod Specified Day,No,No,No,Yes,Yes
Environment:Daylight Saving,No,RunPeriod Object
Environment:WarmupDays,  6
! <Tabular Report>,Style,Unit Conversion
Tabular Report,HTML,None
! <Warmup Convergence Information>,Zone Name,Environment Type/Name,Average Warmup Temperature Difference {deltaC},Std Dev Warmup Temperature Difference {deltaC},Max Temperature Pass/Fail Convergence,Min Temperature Pass/Fail Convergence,Average Warmup Load Difference {W},Std Dev Warmup Load Difference {W},Heating Load Pass/Fail Convergence,Cooling Load Pass/Fail Convergence
 Warmup Convergence Information,SP-CLASSROOM/LECTURE HALL/TRAINING ROOM - PENITENTARY-SPACE FUNCTION SYS-3 FLR-1 SCH-D HPLCMT-CORE ZN,RunPeriod: RUN PERIOD 1,1.1014195715E-002,6.6517948938E-003,Pass,Pass,0.0000000000,0.0000000000,Pass,Pass
 Warmup Convergence Information,SP-CLASSROOM/LECTURE HALL/TRAINING ROOM OTHER-SPACE FUNCTION SYS-3 FLR-1 SCH-D HPLCMT-SOUTH ZN,RunPeriod: RUN PERIOD 1,8.0566626693E-003,5.0029984101E-003,Pass,Pass,0.0000000000,0.0000000000,Pass,Pass
 Warmup Convergence Information,SP-CONFERENCE/MEETING/MULTI-PURPOSE ROOM-SPACE FUNCTION SYS-3 FLR-1 SCH-C HPLCMT-EAST ZN,RunPeriod: RUN PERIOD 1,7.5205145880E-002,0.1979135497,Pass,Pass,2.2257229341E-002,0.1053829946,Pass,Pass
 Warmup Convergence Information,SP-CONFINEMENT CELL-SPACE FUNCTION SYS-3 FLR-1 SCH-G HPLCMT-NORTH ZN,RunPeriod: RUN PERIOD 1,5.8752036434E-002,0.2231845084,Pass,Pass,0.2390191616,1.6228058304,Pass,Pass
 Warmup Convergence Information,SP-COPY/PRINT ROOM-SPACE FUNCTION SYS-3 FLR-1 SCH-A HPLCMT-WEST ZN,RunPeriod: RUN PERIOD 1,7.2026225088E-003,5.9182797678E-003,Pass,Pass,0.0000000000,0.0000000000,Pass,Pass
! <Program Control Information:Threads/Parallel Sims>, Threading Supported,Maximum Number of Threads, Env Set Threads (OMP_NUM_THREADS), EP Env Set Threads (EP_OMP_NUM_THREADS), IDF Set Threads, Number of Threads Used (Interior Radiant Exchange), Number Nominal Surfaces, Number Parallel Sims
Program Control:Threads/Parallel Sims, No,1, N/A, N/A, N/A, N/A, N/A, N/A
End of Data
