Program Version,EnergyPlus, Version 8.9.0-eba93e8e1b, YMD=2019.03.28 13:57
! <Version>, Version ID
 Version, 8.9
! <Timesteps per Hour>, #TimeSteps, Minutes per TimeStep {minutes}
 Timesteps per Hour,  6, 10
! <System Convergence Limits>, Minimum System TimeStep {minutes}, Max HVAC Iterations, Minimum Plant Iterations, Maximum Plant Iterations
 System Convergence Limits, 1, 20, 2, 8
! <Simulation Control>, Do Zone Sizing, Do System Sizing, Do Plant Sizing, Do Design Days, Do Weather Simulation, Do HVAC Sizing Simulation
 Simulation Control, Yes, Yes, Yes, No, Yes, No
! <Output Reporting Tolerances>, Tolerance for Time Heating Setpoint Not Met, Tolerance for Zone Cooling Setpoint Not Met Time
 Output Reporting Tolerances, 1.000, 1.000, 
! <Site:GroundTemperature:BuildingSurface>,Jan{C},Feb{C},Mar{C},Apr{C},May{C},Jun{C},Jul{C},Aug{C},Sep{C},Oct{C},Nov{C},Dec{C}
 Site:GroundTemperature:BuildingSurface,  19.53,  19.50,  19.54,  19.60,  20.00,  21.64,  22.23,  22.38,  21.45,  20.12,  19.80,  19.63
! <Site:GroundTemperature:FCfactorMethod>,Jan{C},Feb{C},Mar{C},Apr{C},May{C},Jun{C},Jul{C},Aug{C},Sep{C},Oct{C},Nov{C},Dec{C}
 Site:GroundTemperature:FCfactorMethod, -12.27, -13.66, -11.19,  -7.33,   2.77,  10.57,  15.83,  17.43,  14.70,   8.65,   0.56,  -6.95
! <Site:GroundTemperature:Shallow>,Jan{C},Feb{C},Mar{C},Apr{C},May{C},Jun{C},Jul{C},Aug{C},Sep{C},Oct{C},Nov{C},Dec{C}
 Site:GroundTemperature:Shallow,  13.00,  13.00,  13.00,  13.00,  13.00,  13.00,  13.00,  13.00,  13.00,  13.00,  13.00,  13.00
! <Site:GroundTemperature:Deep>,Jan{C},Feb{C},Mar{C},Apr{C},May{C},Jun{C},Jul{C},Aug{C},Sep{C},Oct{C},Nov{C},Dec{C}
 Site:GroundTemperature:Deep,  16.00,  16.00,  16.00,  16.00,  16.00,  16.00,  16.00,  16.00,  16.00,  16.00,  16.00,  16.00
! <Site:GroundReflectance>,Jan{dimensionless},Feb{dimensionless},Mar{dimensionless},Apr{dimensionless},May{dimensionless},Jun{dimensionless},Jul{dimensionless},Aug{dimensionless},Sep{dimensionless},Oct{dimensionless},Nov{dimensionless},Dec{dimensionless}
 Site:GroundReflectance,  0.20,  0.20,  0.20,  0.20,  0.20,  0.20,  0.20,  0.20,  0.20,  0.20,  0.20,  0.20
! <Site:GroundReflectance:SnowModifier>, Normal, Daylighting {dimensionless}
 Site:GroundReflectance:SnowModifier,   1.000,   1.000
! <Site:GroundReflectance:Snow>,Jan{dimensionless},Feb{dimensionless},Mar{dimensionless},Apr{dimensionless},May{dimensionless},Jun{dimensionless},Jul{dimensionless},Aug{dimensionless},Sep{dimensionless},Oct{dimensionless},Nov{dimensionless},Dec{dimensionless}
 Site:GroundReflectance:Snow,  0.20,  0.20,  0.20,  0.20,  0.20,  0.20,  0.20,  0.20,  0.20,  0.20,  0.20,  0.20
! <Site:GroundReflectance:Snow:Daylighting>,Jan{dimensionless},Feb{dimensionless},Mar{dimensionless},Apr{dimensionless},May{dimensionless},Jun{dimensionless},Jul{dimensionless},Aug{dimensionless},Sep{dimensionless},Oct{dimensionless},Nov{dimensionless},Dec{dimensionless}
 Site:GroundReflectance:Snow:Daylighting,  0.20,  0.20,  0.20,  0.20,  0.20,  0.20,  0.20,  0.20,  0.20,  0.20,  0.20,  0.20
! <Environment:Weather Station>,Wind Sensor Height Above Ground {m},Wind Speed Profile Exponent {},Wind Speed Profile Boundary Layer Thickness {m},Air Temperature Sensor Height Above Ground {m},Wind Speed Modifier Coefficient-Internal,Temperature Modifier Coefficient-Internal
Environment:Weather Station,10.000,0.140,270.000,1.500,1.586,9.750E-003
! <Site:Location>, Location Name, Latitude {N+/S- Deg}, Longitude {E+/W- Deg},  Time Zone Number {GMT+/-}, Elevation {m},  Standard Pressure at Elevation {Pa}, Standard RhoAir at Elevation
Site:Location,Fort McMurray AP AB CAN CWEC2016 WMO#=716890,56.65,-111.22,-7.00,369.10,96969,1.1525
! <Building Information>, Building Name,North Axis {deg},Terrain,  Loads Convergence Tolerance Value,Temperature Convergence Tolerance Value,  Solar Distribution,Maximum Number of Warmup Days,Minimum Number of Warmup Days
 Building Information,Building 1,0.000,Suburbs,4.00000E-002,0.40000,FullExterior,25,6
! <Inside Convection Algorithm>, Algorithm {Simple | TARP | CeilingDiffuser | AdaptiveConvectionAlgorithm}
Inside Convection Algorithm,TARP
! <Outside Convection Algorithm>, Algorithm {SimpleCombined | TARP | MoWitt | DOE-2 | AdaptiveConvectionAlgorithm}
Outside Convection Algorithm,TARP
! <Sky Radiance Distribution>, Value {Anisotropic}
Sky Radiance Distribution,Anisotropic
! <Zone Air Solution Algorithm>, Value {ThirdOrderBackwardDifference | AnalyticalSolution | EulerMethod}
 Zone Air Solution Algorithm, ThirdOrderBackwardDifference
! <Zone Air Carbon Dioxide Balance Simulation>, Simulation {Yes/No}, Carbon Dioxide Concentration
 Zone Air Carbon Dioxide Balance Simulation, No,N/A
! <Zone Air Generic Contaminant Balance Simulation>, Simulation {Yes/No}, Generic Contaminant Concentration
 Zone Air Generic Contaminant Balance Simulation, No,N/A
! <Zone Air Mass Flow Balance Simulation>, Enforce Mass Balance, Adjust Zone Mixing, Adjust Zone Infiltration {AddInfiltration | AdjustInfiltration | None}, Infiltration Zones {MixingSourceZonesOnly | AllZones}
 Zone Air Mass Flow Balance Simulation, No,N/A,N/A,N/A
! <HVACSystemRootFindingAlgorithm>, Value {RegulaFalsi | Bisection | BisectionThenRegulaFalsi | RegulaFalsiThenBisection}
 HVACSystemRootFindingAlgorithm, RegulaFalsi
! <Environment:Site Atmospheric Variation>,Wind Speed Profile Exponent {},Wind Speed Profile Boundary Layer Thickness {m},Air Temperature Gradient Coefficient {K/m}
Environment:Site Atmospheric Variation,0.220,370.000,6.500000E-003
! <Surface Geometry>,Starting Corner,Vertex Input Direction,Coordinate System,Daylight Reference Point Coordinate System,Rectangular (Simple) Surface Coordinate System
 Surface Geometry,UpperLeftCorner,Counterclockwise,RelativeCoordinateSystem,RelativeCoordinateSystem,RelativeToZoneOrigin
! <Surface Heat Transfer Algorithm>, Value {CTF - ConductionTransferFunction | EMPD - MoisturePenetrationDepthConductionTransferFunction | CondFD - ConductionFiniteDifference | HAMT - CombinedHeatAndMoistureFiniteElement} - Description,Inside Surface Max Temperature Limit{C}, Surface Convection Coefficient Lower Limit {W/m2-K}, Surface Convection Coefficient Upper Limit {W/m2-K}
Surface Heat Transfer Algorithm, CTF - ConductionTransferFunction,200,0.10,1000.0
! <Shading Summary>, Number of Fixed Detached Shades, Number of Building Detached Shades, Number of Attached Shades
 Shading Summary,0,0,0
! <Zone Summary>, Number of Zones, Number of Zone Surfaces, Number of SubSurfaces
 Zone Summary,20,137,17
! <Zone Information>,Zone Name,North Axis {deg},Origin X-Coordinate {m},Origin Y-Coordinate {m},Origin Z-Coordinate {m},Centroid X-Coordinate {m},Centroid Y-Coordinate {m},Centroid Z-Coordinate {m},Type,Zone Multiplier,Zone List Multiplier,Minimum X {m},Maximum X {m},Minimum Y {m},Maximum Y {m},Minimum Z {m},Maximum Z {m},Ceiling Height {m},Volume {m3},Zone Inside Convection Algorithm {Simple-Detailed-CeilingDiffuser-TrombeWall},Zone Outside Convection Algorithm {Simple-Detailed-Tarp-MoWitt-DOE-2-BLAST}, Floor Area {m2},Exterior Gross Wall Area {m2},Exterior Net Wall Area {m2},Exterior Window Area {m2}, Number of Surfaces, Number of SubSurfaces, Number of Shading SubSurfaces,  Part of Total Building Area
 Zone Information, SP-MUSEUM RESTORATION ROOM-SPACE FUNCTION SYS-2 FLR-4 SCH-A HPLCMT-CORE ZN,0.0,25.00,25.00,11.40,50.00,50.00,13.30,1,1,1,25.00,75.00,25.00,75.00,11.40,15.20,3.80,9500.00,TARP,TARP,2500.00,0.00,0.00,125.00,6,1,0,Yes
 Zone Information, SP-POST OFFICE SORTING AREA-SPACE FUNCTION SYS-6 FLR-4 SCH-A HPLCMT-EAST ZN,0.0,75.00,25.00,11.40,89.15,50.00,13.30,1,1,1,75.00,100.00,0.00,100.00,11.40,15.20,3.80,7125.00,TARP,TARP,1875.00,380.00,285.00,188.75,6,2,0,Yes
 Zone Information, SP-RELIGIOUS BUILDING FELLOWSHIP HALL-SPACE FUNCTION SYS-3 FLR-4 SCH-C HPLCMT-NORTH ZN,0.0,25.00,75.00,11.40,50.00,89.15,13.30,1,1,1,0.00,100.00,75.00,100.00,11.40,15.20,3.80,7125.00,TARP,TARP,1875.00,380.00,285.00,188.75,6,2,0,Yes
 Zone Information, SP-RELIGIOUS BUILDING WORSHIP/PULPIT/CHOIR AREA-SPACE FUNCTION SYS-3 FLR-3 SCH-I HPLCMT-NORTH ZN,0.0,25.00,75.00,7.60,50.00,89.15,9.50,1,1,1,0.00,100.00,75.00,100.00,7.60,11.40,3.80,7125.00,TARP,TARP,1875.00,380.00,285.00,95.00,6,1,0,Yes
 Zone Information, SP-RETAIL FACILITY DRESSING/FITTING ROOM-SPACE FUNCTION SYS-6 FLR-3 SCH-C HPLCMT-WEST ZN,0.0,0.00,0.00,7.60,10.85,50.00,9.50,1,1,1,0.00,25.00,0.00,100.00,7.60,11.40,3.80,7125.00,TARP,TARP,1875.00,380.00,285.00,95.00,6,1,0,Yes
 Zone Information, SP-RETAIL FACILITY MALL CONCOURSE-SPACE FUNCTION SYS-6 FLR-4 SCH-C HPLCMT-WEST ZN,0.0,0.00,0.00,11.40,10.85,50.00,13.30,1,1,1,0.00,25.00,0.00,100.00,11.40,15.20,3.80,7125.00,TARP,TARP,1875.00,380.00,285.00,188.75,6,2,0,Yes
 Zone Information, SP-SPACE DESIGNED TO ANSI/IES RP-28 CHAPEL (USED PRIMARILY BY RESIDENTS)-SPACE FUNCTION SYS-3 FLR-1 SCH-I HPLCMT-WEST ZN,0.0,0.00,0.00,0.00,10.85,50.00,1.90,1,1,1,0.00,25.00,0.00,100.00,0.00,3.80,3.80,7125.00,TARP,TARP,1875.00,0.00,0.00,0.00,6,0,0,Yes
 Zone Information, SP-SPACE DESIGNED TO ANSI/IES RP-28 RECREATION ROOM (USED PRIMARILY BY RESIDENTS)-SPACE FUNCTION SYS-3 FLR-2 SCH-B HPLCMT-WEST ZN,0.0,0.00,0.00,3.80,10.85,50.00,5.70,1,1,1,0.00,25.00,0.00,100.00,3.80,7.60,3.80,7125.00,TARP,TARP,1875.00,380.00,285.00,95.00,6,1,0,Yes
 Zone Information, SP-SPORTS ARENA PLAYING AREA CLASS I FACILITY(4)-SPACE FUNCTION SYS-6 FLR-1 SCH-B HPLCMT-NORTH ZN,0.0,25.00,75.00,0.00,50.00,89.15,1.90,1,1,1,0.00,100.00,75.00,100.00,0.00,3.80,3.80,7125.00,TARP,TARP,1875.00,0.00,0.00,0.00,6,0,0,Yes
 Zone Information, SP-SPORTS ARENA PLAYING AREA CLASS II FACILITY(4)-SPACE FUNCTION SYS-6 FLR-1 SCH-B HPLCMT-SOUTH ZN,0.0,0.00,0.00,0.00,50.00,10.85,1.90,1,1,1,0.00,100.00,0.00,25.00,0.00,3.80,3.80,7125.00,TARP,TARP,1875.00,0.00,0.00,0.00,6,0,0,Yes
 Zone Information, SP-SPORTS ARENA PLAYING AREA CLASS III FACILITY(4)-SPACE FUNCTION SYS-6 FLR-1 SCH-B HPLCMT-EAST ZN,0.0,75.00,25.00,0.00,89.15,50.00,1.90,1,1,1,75.00,100.00,0.00,100.00,0.00,3.80,3.80,7125.00,TARP,TARP,1875.00,0.00,0.00,0.00,6,0,0,Yes
 Zone Information, SP-SPORTS ARENA PLAYING AREA CLASS IV FACILITY(4)-SPACE FUNCTION SYS-6 FLR-3 SCH-B HPLCMT-CORE ZN,0.0,25.00,25.00,7.60,50.00,50.00,9.50,1,1,1,25.00,75.00,25.00,75.00,7.60,11.40,3.80,9500.00,TARP,TARP,2500.00,0.00,0.00,0.00,6,0,0,Yes
 Zone Information, SP-TRANSPORTATION FACILITY AIRPORT CONCOURSE-SPACE FUNCTION SYS-6 FLR-3 SCH-H HPLCMT-EAST ZN,0.0,75.00,25.00,7.60,89.15,50.00,9.50,1,1,1,75.00,100.00,0.00,100.00,7.60,11.40,3.80,7125.00,TARP,TARP,1875.00,380.00,285.00,95.00,6,1,0,Yes
 Zone Information, SP-TRANSPORTATION FACILITY BAGGAGE/CAROUSEL AREA-SPACE FUNCTION SYS-6 FLR-1 SCH-H HPLCMT-CORE ZN,0.0,25.00,25.00,0.00,50.00,50.00,1.90,1,1,1,25.00,75.00,25.00,75.00,0.00,3.80,3.80,9500.00,TARP,TARP,2500.00,0.00,0.00,0.00,6,0,0,Yes
 Zone Information, SP-TRANSPORTATION FACILITY TERMINAL TICKET COUNTER-SPACE FUNCTION SYS-6 FLR-3 SCH-H HPLCMT-SOUTH ZN,0.0,0.00,0.00,7.60,50.00,10.85,9.50,1,1,1,0.00,100.00,0.00,25.00,7.60,11.40,3.80,7125.00,TARP,TARP,1875.00,380.00,285.00,95.00,6,1,0,Yes
 Zone Information, SP-WAREHOUSE STORAGE AREA MEDIUM TO BULKY PALLETIZED ITEMS-SPACE FUNCTION SYS-4 FLR-2 SCH-A HPLCMT-CORE ZN,0.0,25.00,25.00,3.80,50.00,50.00,5.70,1,1,1,25.00,75.00,25.00,75.00,3.80,7.60,3.80,9500.00,TARP,TARP,2500.00,0.00,0.00,0.00,6,0,0,Yes
 Zone Information, SP-WAREHOUSE STORAGE AREA SMALL HAND-CARRIED ITEMS(4)-SPACE FUNCTION SYS-4 FLR-2 SCH-A HPLCMT-NORTH ZN,0.0,25.00,75.00,3.80,50.00,89.15,5.70,1,1,1,0.00,100.00,75.00,100.00,3.80,7.60,3.80,7125.00,TARP,TARP,1875.00,380.00,285.00,95.00,6,1,0,Yes
 Zone Information, SP-WHOLEBUILDING-AUTOMOTIVE FACILITY 1 SYS-4 FLR-4 SCH-E HPLCMT-SOUTH ZN,0.0,0.00,0.00,11.40,50.00,10.85,13.30,1,1,1,0.00,100.00,0.00,25.00,11.40,15.20,3.80,7125.00,TARP,TARP,1875.00,380.00,285.00,188.75,6,2,0,Yes
 Zone Information, SP-WHOLEBUILDING-AUTOMOTIVE FACILITY 2 SYS-4 FLR-2 SCH-E HPLCMT-SOUTH ZN,0.0,0.00,0.00,3.80,50.00,10.85,5.70,1,1,1,0.00,100.00,0.00,25.00,3.80,7.60,3.80,7125.00,TARP,TARP,1875.00,380.00,285.00,95.00,6,1,0,Yes
 Zone Information, SP-WHOLEBUILDING-AUTOMOTIVE FACILITY SYS-4 FLR-2 SCH-E HPLCMT-EAST ZN,0.0,75.00,25.00,3.80,89.15,50.00,5.70,1,1,1,75.00,100.00,0.00,100.00,3.80,7.60,3.80,7125.00,TARP,TARP,1875.00,380.00,285.00,95.00,6,1,0,Yes
! <Zone Internal Gains Nominal>,Zone Name, Floor Area {m2},# Occupants,Area per Occupant {m2/person},Occupant per Area {person/m2},Interior Lighting {W/m2},Electric Load {W/m2},Gas Load {W/m2},Other Load {W/m2},Hot Water Eq {W/m2},Steam Equipment {W/m2},Sum Loads per Area {W/m2},Outdoor Controlled Baseboard Heat
 Zone Internal Gains Nominal, SP-MUSEUM RESTORATION ROOM-SPACE FUNCTION SYS-2 FLR-4 SCH-A HPLCMT-CORE ZN,2500.00,125.0,19.993,5.002E-002,11.004,5.002,0.000,0.000,0.000,0.000,16.006,No
 Zone Internal Gains Nominal, SP-POST OFFICE SORTING AREA-SPACE FUNCTION SYS-6 FLR-4 SCH-A HPLCMT-EAST ZN,1875.00,93.8,19.993,5.002E-002,10.204,7.503,0.000,0.000,0.000,0.000,17.706,No
 Zone Internal Gains Nominal, SP-RELIGIOUS BUILDING FELLOWSHIP HALL-SPACE FUNCTION SYS-3 FLR-4 SCH-C HPLCMT-NORTH ZN,1875.00,375.1,4.998,0.200,6.903,1.000,0.000,0.000,0.000,0.000,7.903,No
 Zone Internal Gains Nominal, SP-RELIGIOUS BUILDING WORSHIP/PULPIT/CHOIR AREA-SPACE FUNCTION SYS-3 FLR-3 SCH-I HPLCMT-NORTH ZN,1875.00,375.1,4.998,0.200,16.506,1.000,0.000,0.000,0.000,0.000,17.506,No
 Zone Internal Gains Nominal, SP-RETAIL FACILITY DRESSING/FITTING ROOM-SPACE FUNCTION SYS-6 FLR-3 SCH-C HPLCMT-WEST ZN,1875.00,62.5,29.989,3.335E-002,7.703,2.501,0.000,0.000,0.000,0.000,10.204,No
 Zone Internal Gains Nominal, SP-RETAIL FACILITY MALL CONCOURSE-SPACE FUNCTION SYS-6 FLR-4 SCH-C HPLCMT-WEST ZN,1875.00,93.8,19.993,5.002E-002,11.904,1.000,0.000,0.000,0.000,0.000,12.905,No
 Zone Internal Gains Nominal, SP-SPACE DESIGNED TO ANSI/IES RP-28 CHAPEL (USED PRIMARILY BY RESIDENTS)-SPACE FUNCTION SYS-3 FLR-1 SCH-I HPLCMT-WEST ZN,1875.00,187.6,9.996,0.100,23.909,1.000,0.000,0.000,0.000,0.000,24.909,No
 Zone Internal Gains Nominal, SP-SPACE DESIGNED TO ANSI/IES RP-28 RECREATION ROOM (USED PRIMARILY BY RESIDENTS)-SPACE FUNCTION SYS-3 FLR-2 SCH-B HPLCMT-WEST ZN,1875.00,93.8,19.993,5.002E-002,25.909,1.000,0.000,0.000,0.000,0.000,26.910,No
 Zone Internal Gains Nominal, SP-SPORTS ARENA PLAYING AREA CLASS I FACILITY(4)-SPACE FUNCTION SYS-6 FLR-1 SCH-B HPLCMT-NORTH ZN,1875.00,375.1,4.998,0.200,39.714,1.501,0.000,0.000,0.000,0.000,41.215,No
 Zone Internal Gains Nominal, SP-SPORTS ARENA PLAYING AREA CLASS II FACILITY(4)-SPACE FUNCTION SYS-6 FLR-1 SCH-B HPLCMT-SOUTH ZN,1875.00,375.1,4.998,0.200,25.909,1.501,0.000,0.000,0.000,0.000,27.410,No
 Zone Internal Gains Nominal, SP-SPORTS ARENA PLAYING AREA CLASS III FACILITY(4)-SPACE FUNCTION SYS-6 FLR-1 SCH-B HPLCMT-EAST ZN,1875.00,375.1,4.998,0.200,19.407,1.501,0.000,0.000,0.000,0.000,20.908,No
 Zone Internal Gains Nominal, SP-SPORTS ARENA PLAYING AREA CLASS IV FACILITY(4)-SPACE FUNCTION SYS-6 FLR-3 SCH-B HPLCMT-CORE ZN,2500.00,500.2,4.998,0.200,13.005,1.501,0.000,0.000,0.000,0.000,14.505,No
 Zone Internal Gains Nominal, SP-TRANSPORTATION FACILITY AIRPORT CONCOURSE-SPACE FUNCTION SYS-6 FLR-3 SCH-H HPLCMT-EAST ZN,1875.00,93.8,19.993,5.002E-002,3.901,0.000,0.000,0.000,0.000,0.000,3.901,No
 Zone Internal Gains Nominal, SP-TRANSPORTATION FACILITY BAGGAGE/CAROUSEL AREA-SPACE FUNCTION SYS-6 FLR-1 SCH-H HPLCMT-CORE ZN,2500.00,125.0,19.993,5.002E-002,5.702,2.501,0.000,0.000,0.000,0.000,8.203,No
 Zone Internal Gains Nominal, SP-TRANSPORTATION FACILITY TERMINAL TICKET COUNTER-SPACE FUNCTION SYS-6 FLR-3 SCH-H HPLCMT-SOUTH ZN,1875.00,187.6,9.996,0.100,8.703,2.501,0.000,0.000,0.000,0.000,11.204,No
 Zone Internal Gains Nominal, SP-WAREHOUSE STORAGE AREA MEDIUM TO BULKY PALLETIZED ITEMS-SPACE FUNCTION SYS-4 FLR-2 SCH-A HPLCMT-CORE ZN,2500.00,25.0,99.964,1.000E-002,6.202,1.000,0.000,0.000,0.000,0.000,7.203,No
 Zone Internal Gains Nominal, SP-WAREHOUSE STORAGE AREA SMALL HAND-CARRIED ITEMS(4)-SPACE FUNCTION SYS-4 FLR-2 SCH-A HPLCMT-NORTH ZN,1875.00,37.5,49.982,2.001E-002,10.204,1.000,0.000,0.000,0.000,0.000,11.204,No
 Zone Internal Gains Nominal, SP-WHOLEBUILDING-AUTOMOTIVE FACILITY 1 SYS-4 FLR-4 SCH-E HPLCMT-SOUTH ZN,1875.00,93.8,19.993,5.002E-002,8.603,5.002,0.000,0.000,0.000,0.000,13.605,No
 Zone Internal Gains Nominal, SP-WHOLEBUILDING-AUTOMOTIVE FACILITY 2 SYS-4 FLR-2 SCH-E HPLCMT-SOUTH ZN,1875.00,93.8,19.993,5.002E-002,8.603,5.002,0.000,0.000,0.000,0.000,13.605,No
 Zone Internal Gains Nominal, SP-WHOLEBUILDING-AUTOMOTIVE FACILITY SYS-4 FLR-2 SCH-E HPLCMT-EAST ZN,1875.00,93.8,19.993,5.002E-002,8.603,5.002,0.000,0.000,0.000,0.000,13.605,No
! <People Internal Gains Nominal>,Name,Schedule Name,Zone Name,Zone Floor Area {m2},# Zone Occupants,Number of People {},People/Floor Area {person/m2},Floor Area per person {m2/person},Fraction Radiant,Fraction Convected,Sensible Fraction Calculation,Activity level,ASHRAE 55 Warnings,Carbon Dioxide Generation Rate,Nominal Minimum Number of People,Nominal Maximum Number of People
 People Internal Gains Nominal, SP-WHOLEBUILDING-AUTOMOTIVE FACILITY SYS-4 FLR-2 SCH-E HPLCMT-EAST ZN AUTOMOTIVE FACILITY WHOLEBUILDING PEOPLE,NECB-E-OCCUPANCY,SP-WHOLEBUILDING-AUTOMOTIVE FACILITY SYS-4 FLR-2 SCH-E HPLCMT-EAST ZN,1875.00,93.8,93.8,5.002E-002,19.993,0.300,0.700,AutoCalculate,NECB-ACTIVITY,No,3.8200E-008,0,84
 People Internal Gains Nominal, SP-WHOLEBUILDING-AUTOMOTIVE FACILITY 1 SYS-4 FLR-4 SCH-E HPLCMT-SOUTH ZN AUTOMOTIVE FACILITY WHOLEBUILDING 1 PEOPLE,NECB-E-OCCUPANCY,SP-WHOLEBUILDING-AUTOMOTIVE FACILITY 1 SYS-4 FLR-4 SCH-E HPLCMT-SOUTH ZN,1875.00,93.8,93.8,5.002E-002,19.993,0.300,0.700,AutoCalculate,NECB-ACTIVITY,No,3.8200E-008,0,84
 People Internal Gains Nominal, SP-WHOLEBUILDING-AUTOMOTIVE FACILITY 2 SYS-4 FLR-2 SCH-E HPLCMT-SOUTH ZN AUTOMOTIVE FACILITY WHOLEBUILDING 2 PEOPLE,NECB-E-OCCUPANCY,SP-WHOLEBUILDING-AUTOMOTIVE FACILITY 2 SYS-4 FLR-2 SCH-E HPLCMT-SOUTH ZN,1875.00,93.8,93.8,5.002E-002,19.993,0.300,0.700,AutoCalculate,NECB-ACTIVITY,No,3.8200E-008,0,84
 People Internal Gains Nominal, SP-MUSEUM RESTORATION ROOM-SPACE FUNCTION SYS-2 FLR-4 SCH-A HPLCMT-CORE ZN SPACE FUNCTION MUSEUM RESTORATION ROOM PEOPLE,NECB-A-OCCUPANCY,SP-MUSEUM RESTORATION ROOM-SPACE FUNCTION SYS-2 FLR-4 SCH-A HPLCMT-CORE ZN,2500.00,125.0,125.0,5.002E-002,19.993,0.300,0.700,AutoCalculate,NECB-ACTIVITY,No,3.8200E-008,0,113
 People Internal Gains Nominal, SP-POST OFFICE SORTING AREA-SPACE FUNCTION SYS-6 FLR-4 SCH-A HPLCMT-EAST ZN SPACE FUNCTION POST OFFICE SORTING AREA PEOPLE,NECB-A-OCCUPANCY,SP-POST OFFICE SORTING AREA-SPACE FUNCTION SYS-6 FLR-4 SCH-A HPLCMT-EAST ZN,1875.00,93.8,93.8,5.002E-002,19.993,0.300,0.700,AutoCalculate,NECB-ACTIVITY,No,3.8200E-008,0,84
 People Internal Gains Nominal, SP-RELIGIOUS BUILDING FELLOWSHIP HALL-SPACE FUNCTION SYS-3 FLR-4 SCH-C HPLCMT-NORTH ZN SPACE FUNCTION RELIGIOUS BUILDING FELLOWSHIP HALL PEOPLE,NECB-C-OCCUPANCY,SP-RELIGIOUS BUILDING FELLOWSHIP HALL-SPACE FUNCTION SYS-3 FLR-4 SCH-C HPLCMT-NORTH ZN,1875.00,375.1,375.1,0.200,4.998,0.300,0.700,AutoCalculate,NECB-ACTIVITY,No,3.8200E-008,0,338
 People Internal Gains Nominal, SP-RELIGIOUS BUILDING WORSHIP/PULPIT/CHOIR AREA-SPACE FUNCTION SYS-3 FLR-3 SCH-I HPLCMT-NORTH ZN SPACE FUNCTION RELIGIOUS BUILDING WORSHIP/PULPIT/CHOIR AREA PEOPLE,NECB-I-OCCUPANCY,SP-RELIGIOUS BUILDING WORSHIP/PULPIT/CHOIR AREA-SPACE FUNCTION SYS-3 FLR-3 SCH-I HPLCMT-NORTH ZN,1875.00,375.1,375.1,0.200,4.998,0.300,0.700,AutoCalculate,NECB-ACTIVITY,No,3.8200E-008,0,300
 People Internal Gains Nominal, SP-RETAIL FACILITY DRESSING/FITTING ROOM-SPACE FUNCTION SYS-6 FLR-3 SCH-C HPLCMT-WEST ZN SPACE FUNCTION RETAIL FACILITY DRESSING/FITTING ROOM PEOPLE,NECB-C-OCCUPANCY,SP-RETAIL FACILITY DRESSING/FITTING ROOM-SPACE FUNCTION SYS-6 FLR-3 SCH-C HPLCMT-WEST ZN,1875.00,62.5,62.5,3.335E-002,29.989,0.300,0.700,AutoCalculate,NECB-ACTIVITY,No,3.8200E-008,0,56
 People Internal Gains Nominal, SP-RETAIL FACILITY MALL CONCOURSE-SPACE FUNCTION SYS-6 FLR-4 SCH-C HPLCMT-WEST ZN SPACE FUNCTION RETAIL FACILITY MALL CONCOURSE PEOPLE,NECB-C-OCCUPANCY,SP-RETAIL FACILITY MALL CONCOURSE-SPACE FUNCTION SYS-6 FLR-4 SCH-C HPLCMT-WEST ZN,1875.00,93.8,93.8,5.002E-002,19.993,0.300,0.700,AutoCalculate,NECB-ACTIVITY,No,3.8200E-008,0,84
 People Internal Gains Nominal, SP-SPACE DESIGNED TO ANSI/IES RP-28 CHAPEL (USED PRIMARILY BY RESIDENTS)-SPACE FUNCTION SYS-3 FLR-1 SCH-I HPLCMT-WEST ZN SPACE FUNCTION SPACE DESIGNED TO ANSI/IES RP-28 CHAPEL (USED PRIMARILY BY RESIDENTS) PEOPLE,NECB-I-OCCUPANCY,SP-SPACE DESIGNED TO ANSI/IES RP-28 CHAPEL (USED PRIMARILY BY RESIDENTS)-SPACE FUNCTION SYS-3 FLR-1 SCH-I HPLCMT-WEST ZN,1875.00,187.6,187.6,0.100,9.996,0.300,0.700,AutoCalculate,NECB-ACTIVITY,No,3.8200E-008,0,150
 People Internal Gains Nominal, SP-SPACE DESIGNED TO ANSI/IES RP-28 RECREATION ROOM (USED PRIMARILY BY RESIDENTS)-SPACE FUNCTION SYS-3 FLR-2 SCH-B HPLCMT-WEST ZN SPACE FUNCTION SPACE DESIGNED TO ANSI/IES RP-28 RECREATION ROOM (USED PRIMARILY BY RESIDENTS) PEOPLE,NECB-B-OCCUPANCY,SP-SPACE DESIGNED TO ANSI/IES RP-28 RECREATION ROOM (USED PRIMARILY BY RESIDENTS)-SPACE FUNCTION SYS-3 FLR-2 SCH-B HPLCMT-WEST ZN,1875.00,93.8,93.8,5.002E-002,19.993,0.300,0.700,AutoCalculate,NECB-ACTIVITY,No,3.8200E-008,0,84
 People Internal Gains Nominal, SP-SPORTS ARENA PLAYING AREA CLASS I FACILITY(4)-SPACE FUNCTION SYS-6 FLR-1 SCH-B HPLCMT-NORTH ZN SPACE FUNCTION SPORTS ARENA PLAYING AREA CLASS I FACILITY(4) PEOPLE,NECB-B-OCCUPANCY,SP-SPORTS ARENA PLAYING AREA CLASS I FACILITY(4)-SPACE FUNCTION SYS-6 FLR-1 SCH-B HPLCMT-NORTH ZN,1875.00,375.1,375.1,0.200,4.998,0.300,0.700,AutoCalculate,NECB-ACTIVITY,No,3.8200E-008,0,338
 People Internal Gains Nominal, SP-SPORTS ARENA PLAYING AREA CLASS II FACILITY(4)-SPACE FUNCTION SYS-6 FLR-1 SCH-B HPLCMT-SOUTH ZN SPACE FUNCTION SPORTS ARENA PLAYING AREA CLASS II FACILITY(4) PEOPLE,NECB-B-OCCUPANCY,SP-SPORTS ARENA PLAYING AREA CLASS II FACILITY(4)-SPACE FUNCTION SYS-6 FLR-1 SCH-B HPLCMT-SOUTH ZN,1875.00,375.1,375.1,0.200,4.998,0.300,0.700,AutoCalculate,NECB-ACTIVITY,No,3.8200E-008,0,338
 People Internal Gains Nominal, SP-SPORTS ARENA PLAYING AREA CLASS III FACILITY(4)-SPACE FUNCTION SYS-6 FLR-1 SCH-B HPLCMT-EAST ZN SPACE FUNCTION SPORTS ARENA PLAYING AREA CLASS III FACILITY(4) PEOPLE,NECB-B-OCCUPANCY,SP-SPORTS ARENA PLAYING AREA CLASS III FACILITY(4)-SPACE FUNCTION SYS-6 FLR-1 SCH-B HPLCMT-EAST ZN,1875.00,375.1,375.1,0.200,4.998,0.300,0.700,AutoCalculate,NECB-ACTIVITY,No,3.8200E-008,0,338
 People Internal Gains Nominal, SP-SPORTS ARENA PLAYING AREA CLASS IV FACILITY(4)-SPACE FUNCTION SYS-6 FLR-3 SCH-B HPLCMT-CORE ZN SPACE FUNCTION SPORTS ARENA PLAYING AREA CLASS IV FACILITY(4) PEOPLE,NECB-B-OCCUPANCY,SP-SPORTS ARENA PLAYING AREA CLASS IV FACILITY(4)-SPACE FUNCTION SYS-6 FLR-3 SCH-B HPLCMT-CORE ZN,2500.00,500.2,500.2,0.200,4.998,0.300,0.700,AutoCalculate,NECB-ACTIVITY,No,3.8200E-008,0,450
 People Internal Gains Nominal, SP-TRANSPORTATION FACILITY AIRPORT CONCOURSE-SPACE FUNCTION SYS-6 FLR-3 SCH-H HPLCMT-EAST ZN SPACE FUNCTION TRANSPORTATION FACILITY AIRPORT CONCOURSE PEOPLE,NECB-H-OCCUPANCY,SP-TRANSPORTATION FACILITY AIRPORT CONCOURSE-SPACE FUNCTION SYS-6 FLR-3 SCH-H HPLCMT-EAST ZN,1875.00,93.8,93.8,5.002E-002,19.993,0.300,0.700,AutoCalculate,NECB-ACTIVITY,No,3.8200E-008,84,84
 People Internal Gains Nominal, SP-TRANSPORTATION FACILITY BAGGAGE/CAROUSEL AREA-SPACE FUNCTION SYS-6 FLR-1 SCH-H HPLCMT-CORE ZN SPACE FUNCTION TRANSPORTATION FACILITY BAGGAGE/CAROUSEL AREA PEOPLE,NECB-H-OCCUPANCY,SP-TRANSPORTATION FACILITY BAGGAGE/CAROUSEL AREA-SPACE FUNCTION SYS-6 FLR-1 SCH-H HPLCMT-CORE ZN,2500.00,125.0,125.0,5.002E-002,19.993,0.300,0.700,AutoCalculate,NECB-ACTIVITY,No,3.8200E-008,113,113
 People Internal Gains Nominal, SP-TRANSPORTATION FACILITY TERMINAL TICKET COUNTER-SPACE FUNCTION SYS-6 FLR-3 SCH-H HPLCMT-SOUTH ZN SPACE FUNCTION TRANSPORTATION FACILITY TERMINAL TICKET COUNTER PEOPLE,NECB-H-OCCUPANCY,SP-TRANSPORTATION FACILITY TERMINAL TICKET COUNTER-SPACE FUNCTION SYS-6 FLR-3 SCH-H HPLCMT-SOUTH ZN,1875.00,187.6,187.6,0.100,9.996,0.300,0.700,AutoCalculate,NECB-ACTIVITY,No,3.8200E-008,169,169
 People Internal Gains Nominal, SP-WAREHOUSE STORAGE AREA MEDIUM TO BULKY PALLETIZED ITEMS-SPACE FUNCTION SYS-4 FLR-2 SCH-A HPLCMT-CORE ZN SPACE FUNCTION WAREHOUSE STORAGE AREA MEDIUM TO BULKY PALLETIZED ITEMS PEOPLE,NECB-A-OCCUPANCY,SP-WAREHOUSE STORAGE AREA MEDIUM TO BULKY PALLETIZED ITEMS-SPACE FUNCTION SYS-4 FLR-2 SCH-A HPLCMT-CORE ZN,2500.00,25.0,25.0,1.000E-002,99.964,0.300,0.700,AutoCalculate,NECB-ACTIVITY,No,3.8200E-008,0,23
 People Internal Gains Nominal, SP-WAREHOUSE STORAGE AREA SMALL HAND-CARRIED ITEMS(4)-SPACE FUNCTION SYS-4 FLR-2 SCH-A HPLCMT-NORTH ZN SPACE FUNCTION WAREHOUSE STORAGE AREA SMALL HAND-CARRIED ITEMS(4) PEOPLE,NECB-A-OCCUPANCY,SP-WAREHOUSE STORAGE AREA SMALL HAND-CARRIED ITEMS(4)-SPACE FUNCTION SYS-4 FLR-2 SCH-A HPLCMT-NORTH ZN,1875.00,37.5,37.5,2.001E-002,49.982,0.300,0.700,AutoCalculate,NECB-ACTIVITY,No,3.8200E-008,0,34
! <Lights Internal Gains Nominal>,Name,Schedule Name,Zone Name,Zone Floor Area {m2},# Zone Occupants,Lighting Level {W},Lights/Floor Area {W/m2},Lights per person {W/person},Fraction Return Air,Fraction Radiant,Fraction Short Wave,Fraction Convected,Fraction Replaceable,End-Use Category,Nominal Minimum Lighting Level {W},Nominal Maximum Lighting Level {W}
 Lights Internal Gains Nominal, SP-WHOLEBUILDING-AUTOMOTIVE FACILITY SYS-4 FLR-2 SCH-E HPLCMT-EAST ZN AUTOMOTIVE FACILITY WHOLEBUILDING LIGHTS,NECB-E-OCCUPANCY-NECB-E-LIGHTING-0.0-0.0-0.0-LIGHT RULESET,SP-WHOLEBUILDING-AUTOMOTIVE FACILITY SYS-4 FLR-2 SCH-E HPLCMT-EAST ZN,1875.00,93.8,16130.860,8.603,172.000,0.000,0.500,0.200,0.300,1.000,General,806.543,14517.774
 Lights Internal Gains Nominal, SP-WHOLEBUILDING-AUTOMOTIVE FACILITY 1 SYS-4 FLR-4 SCH-E HPLCMT-SOUTH ZN AUTOMOTIVE FACILITY WHOLEBUILDING 1 LIGHTS,NECB-E-OCCUPANCY-NECB-E-LIGHTING-0.0-0.0-0.0-LIGHT RULESET,SP-WHOLEBUILDING-AUTOMOTIVE FACILITY 1 SYS-4 FLR-4 SCH-E HPLCMT-SOUTH ZN,1875.00,93.8,16130.860,8.603,172.000,0.000,0.500,0.200,0.300,1.000,General,806.543,14517.774
 Lights Internal Gains Nominal, SP-WHOLEBUILDING-AUTOMOTIVE FACILITY 2 SYS-4 FLR-2 SCH-E HPLCMT-SOUTH ZN AUTOMOTIVE FACILITY WHOLEBUILDING 2 LIGHTS,NECB-E-OCCUPANCY-NECB-E-LIGHTING-0.0-0.0-0.0-LIGHT RULESET,SP-WHOLEBUILDING-AUTOMOTIVE FACILITY 2 SYS-4 FLR-2 SCH-E HPLCMT-SOUTH ZN,1875.00,93.8,16130.860,8.603,172.000,0.000,0.500,0.200,0.300,1.000,General,806.543,14517.774
 Lights Internal Gains Nominal, SP-MUSEUM RESTORATION ROOM-SPACE FUNCTION SYS-2 FLR-4 SCH-A HPLCMT-CORE ZN SPACE FUNCTION MUSEUM RESTORATION ROOM LIGHTS,NECB-A-OCCUPANCY-NECB-A-LIGHTING-0.3-0.0-0.67-LIGHT RULESET,SP-MUSEUM RESTORATION ROOM-SPACE FUNCTION SYS-2 FLR-4 SCH-A HPLCMT-CORE ZN,2500.00,125.0,27509.994,11.004,220.000,0.000,0.500,0.200,0.300,1.000,General,1099.024,24758.995
 Lights Internal Gains Nominal, SP-POST OFFICE SORTING AREA-SPACE FUNCTION SYS-6 FLR-4 SCH-A HPLCMT-EAST ZN SPACE FUNCTION POST OFFICE SORTING AREA LIGHTS,NECB-A-OCCUPANCY-NECB-A-LIGHTING-0.0-0.0-0.67-LIGHT RULESET,SP-POST OFFICE SORTING AREA-SPACE FUNCTION SYS-6 FLR-4 SCH-A HPLCMT-EAST ZN,1875.00,93.8,19131.950,10.204,204.000,0.000,0.500,0.200,0.300,1.000,General,956.598,17218.755
 Lights Internal Gains Nominal, SP-RELIGIOUS BUILDING FELLOWSHIP HALL-SPACE FUNCTION SYS-3 FLR-4 SCH-C HPLCMT-NORTH ZN SPACE FUNCTION RELIGIOUS BUILDING FELLOWSHIP HALL LIGHTS,NECB-C-LIGHTING,SP-RELIGIOUS BUILDING FELLOWSHIP HALL-SPACE FUNCTION SYS-3 FLR-4 SCH-C HPLCMT-NORTH ZN,1875.00,375.1,12942.202,6.903,34.500,0.000,0.500,0.200,0.300,1.000,General,647.110,11647.982
 Lights Internal Gains Nominal, SP-RELIGIOUS BUILDING WORSHIP/PULPIT/CHOIR AREA-SPACE FUNCTION SYS-3 FLR-3 SCH-I HPLCMT-NORTH ZN SPACE FUNCTION RELIGIOUS BUILDING WORSHIP/PULPIT/CHOIR AREA LIGHTS,NECB-I-OCCUPANCY-NECB-I-LIGHTING-0.1-0.0-0.67-LIGHT RULESET,SP-RELIGIOUS BUILDING WORSHIP/PULPIT/CHOIR AREA-SPACE FUNCTION SYS-3 FLR-3 SCH-I HPLCMT-NORTH ZN,1875.00,375.1,30948.743,16.506,82.500,0.000,0.500,0.200,0.300,1.000,General,1443.759,27853.869
 Lights Internal Gains Nominal, SP-RETAIL FACILITY DRESSING/FITTING ROOM-SPACE FUNCTION SYS-6 FLR-3 SCH-C HPLCMT-WEST ZN SPACE FUNCTION RETAIL FACILITY DRESSING/FITTING ROOM LIGHTS,NECB-C-LIGHTING,SP-RETAIL FACILITY DRESSING/FITTING ROOM-SPACE FUNCTION SYS-6 FLR-3 SCH-C HPLCMT-WEST ZN,1875.00,62.5,14442.747,7.703,231.000,0.000,0.500,0.200,0.300,1.000,General,722.137,12998.472
 Lights Internal Gains Nominal, SP-RETAIL FACILITY MALL CONCOURSE-SPACE FUNCTION SYS-6 FLR-4 SCH-C HPLCMT-WEST ZN SPACE FUNCTION RETAIL FACILITY MALL CONCOURSE LIGHTS,NECB-C-OCCUPANCY-NECB-C-LIGHTING-0.0-0.0-0.67-LIGHT RULESET,SP-RETAIL FACILITY MALL CONCOURSE-SPACE FUNCTION SYS-6 FLR-4 SCH-C HPLCMT-WEST ZN,1875.00,93.8,22320.609,11.904,238.000,0.000,0.500,0.200,0.300,1.000,General,1116.030,20088.548
 Lights Internal Gains Nominal, SP-SPACE DESIGNED TO ANSI/IES RP-28 CHAPEL (USED PRIMARILY BY RESIDENTS)-SPACE FUNCTION SYS-3 FLR-1 SCH-I HPLCMT-WEST ZN SPACE FUNCTION SPACE DESIGNED TO ANSI/IES RP-28 CHAPEL (USED PRIMARILY BY RESIDENTS) LIGHTS,NECB-I-OCCUPANCY-NECB-I-LIGHTING-0.5-0.0-0.67-LIGHT RULESET,SP-SPACE DESIGNED TO ANSI/IES RP-28 CHAPEL (USED PRIMARILY BY RESIDENTS)-SPACE FUNCTION SYS-3 FLR-1 SCH-I HPLCMT-WEST ZN,1875.00,187.6,44828.786,23.909,239.000,0.000,0.500,0.200,0.300,1.000,General,1490.557,40345.907
 Lights Internal Gains Nominal, SP-SPACE DESIGNED TO ANSI/IES RP-28 RECREATION ROOM (USED PRIMARILY BY RESIDENTS)-SPACE FUNCTION SYS-3 FLR-2 SCH-B HPLCMT-WEST ZN SPACE FUNCTION SPACE DESIGNED TO ANSI/IES RP-28 RECREATION ROOM (USED PRIMARILY BY RESIDENTS) LIGHTS,NECB-B-OCCUPANCY-NECB-B-LIGHTING-0.2-0.0-0.67-LIGHT RULESET,SP-SPACE DESIGNED TO ANSI/IES RP-28 RECREATION ROOM (USED PRIMARILY BY RESIDENTS)-SPACE FUNCTION SYS-3 FLR-2 SCH-B HPLCMT-WEST ZN,1875.00,93.8,48580.149,25.909,518.000,0.000,0.500,0.200,0.300,1.000,General,4207.041,43722.134
 Lights Internal Gains Nominal, SP-SPORTS ARENA PLAYING AREA CLASS I FACILITY(4)-SPACE FUNCTION SYS-6 FLR-1 SCH-B HPLCMT-NORTH ZN SPACE FUNCTION SPORTS ARENA PLAYING AREA CLASS I FACILITY(4) LIGHTS,NECB-B-OCCUPANCY-NECB-B-LIGHTING-0.0-0.0-0.67-LIGHT RULESET,SP-SPORTS ARENA PLAYING AREA CLASS I FACILITY(4)-SPACE FUNCTION SYS-6 FLR-1 SCH-B HPLCMT-NORTH ZN,1875.00,375.1,74464.552,39.714,198.500,0.000,0.500,0.200,0.300,1.000,General,7446.455,67018.097
 Lights Internal Gains Nominal, SP-SPORTS ARENA PLAYING AREA CLASS II FACILITY(4)-SPACE FUNCTION SYS-6 FLR-1 SCH-B HPLCMT-SOUTH ZN SPACE FUNCTION SPORTS ARENA PLAYING AREA CLASS II FACILITY(4) LIGHTS,NECB-B-OCCUPANCY-NECB-B-LIGHTING-0.0-0.0-0.67-LIGHT RULESET,SP-SPORTS ARENA PLAYING AREA CLASS II FACILITY(4)-SPACE FUNCTION SYS-6 FLR-1 SCH-B HPLCMT-SOUTH ZN,1875.00,375.1,48580.149,25.909,129.500,0.000,0.500,0.200,0.300,1.000,General,4858.015,43722.134
 Lights Internal Gains Nominal, SP-SPORTS ARENA PLAYING AREA CLASS III FACILITY(4)-SPACE FUNCTION SYS-6 FLR-1 SCH-B HPLCMT-EAST ZN SPACE FUNCTION SPORTS ARENA PLAYING AREA CLASS III FACILITY(4) LIGHTS,NECB-B-OCCUPANCY-NECB-B-LIGHTING-0.0-0.0-0.67-LIGHT RULESET,SP-SPORTS ARENA PLAYING AREA CLASS III FACILITY(4)-SPACE FUNCTION SYS-6 FLR-1 SCH-B HPLCMT-EAST ZN,1875.00,375.1,36388.219,19.407,97.000,0.000,0.500,0.200,0.300,1.000,General,3638.822,32749.398
 Lights Internal Gains Nominal, SP-SPORTS ARENA PLAYING AREA CLASS IV FACILITY(4)-SPACE FUNCTION SYS-6 FLR-3 SCH-B HPLCMT-CORE ZN SPACE FUNCTION SPORTS ARENA PLAYING AREA CLASS IV FACILITY(4) LIGHTS,NECB-B-OCCUPANCY-NECB-B-LIGHTING-0.0-0.0-0.67-LIGHT RULESET,SP-SPORTS ARENA PLAYING AREA CLASS IV FACILITY(4)-SPACE FUNCTION SYS-6 FLR-3 SCH-B HPLCMT-CORE ZN,2500.00,500.2,32511.811,13.005,65.000,0.000,0.500,0.200,0.300,1.000,General,3251.181,29260.630
 Lights Internal Gains Nominal, SP-TRANSPORTATION FACILITY AIRPORT CONCOURSE-SPACE FUNCTION SYS-6 FLR-3 SCH-H HPLCMT-EAST ZN SPACE FUNCTION TRANSPORTATION FACILITY AIRPORT CONCOURSE LIGHTS,NECB-H-LIGHTING,SP-TRANSPORTATION FACILITY AIRPORT CONCOURSE-SPACE FUNCTION SYS-6 FLR-3 SCH-H HPLCMT-EAST ZN,1875.00,93.8,7315.158,3.901,78.000,0.000,0.500,0.200,0.300,1.000,General,6583.642,6583.642
 Lights Internal Gains Nominal, SP-TRANSPORTATION FACILITY BAGGAGE/CAROUSEL AREA-SPACE FUNCTION SYS-6 FLR-1 SCH-H HPLCMT-CORE ZN SPACE FUNCTION TRANSPORTATION FACILITY BAGGAGE/CAROUSEL AREA LIGHTS,NECB-H-LIGHTING,SP-TRANSPORTATION FACILITY BAGGAGE/CAROUSEL AREA-SPACE FUNCTION SYS-6 FLR-1 SCH-H HPLCMT-CORE ZN,2500.00,125.0,14255.179,5.702,114.000,0.000,0.500,0.200,0.300,1.000,General,12829.661,12829.661
 Lights Internal Gains Nominal, SP-TRANSPORTATION FACILITY TERMINAL TICKET COUNTER-SPACE FUNCTION SYS-6 FLR-3 SCH-H HPLCMT-SOUTH ZN SPACE FUNCTION TRANSPORTATION FACILITY TERMINAL TICKET COUNTER LIGHTS,NECB-H-OCCUPANCY-NECB-H-LIGHTING-0.0-0.0-0.67-LIGHT RULESET,SP-TRANSPORTATION FACILITY TERMINAL TICKET COUNTER-SPACE FUNCTION SYS-6 FLR-3 SCH-H HPLCMT-SOUTH ZN,1875.00,187.6,16318.428,8.703,87.000,0.000,0.500,0.200,0.300,1.000,General,14686.585,14686.585
 Lights Internal Gains Nominal, SP-WAREHOUSE STORAGE AREA MEDIUM TO BULKY PALLETIZED ITEMS-SPACE FUNCTION SYS-4 FLR-2 SCH-A HPLCMT-CORE ZN SPACE FUNCTION WAREHOUSE STORAGE AREA MEDIUM TO BULKY PALLETIZED ITEMS LIGHTS,NECB-A-LIGHTING,SP-WAREHOUSE STORAGE AREA MEDIUM TO BULKY PALLETIZED ITEMS-SPACE FUNCTION SYS-4 FLR-2 SCH-A HPLCMT-CORE ZN,2500.00,25.0,15505.633,6.202,620.000,0.000,0.500,0.200,0.300,1.000,General,775.282,13955.070
 Lights Internal Gains Nominal, SP-WAREHOUSE STORAGE AREA SMALL HAND-CARRIED ITEMS(4)-SPACE FUNCTION SYS-4 FLR-2 SCH-A HPLCMT-NORTH ZN SPACE FUNCTION WAREHOUSE STORAGE AREA SMALL HAND-CARRIED ITEMS(4) LIGHTS,NECB-A-OCCUPANCY-NECB-A-LIGHTING-0.5-0.0-0.67-LIGHT RULESET,SP-WAREHOUSE STORAGE AREA SMALL HAND-CARRIED ITEMS(4)-SPACE FUNCTION SYS-4 FLR-2 SCH-A HPLCMT-NORTH ZN,1875.00,37.5,19131.950,10.204,510.000,0.000,0.500,0.200,0.300,1.000,General,636.137,17218.755
! <ElectricEquipment Internal Gains Nominal>,Name,Schedule Name,Zone Name,Zone Floor Area {m2},# Zone Occupants,Equipment Level {W},Equipment/Floor Area {W/m2},Equipment per person {W/person},Fraction Latent,Fraction Radiant,Fraction Lost,Fraction Convected,End-Use SubCategory,Nominal Minimum Equipment Level {W},Nominal Maximum Equipment Level {W}
 ElectricEquipment Internal Gains Nominal, SP-WHOLEBUILDING-AUTOMOTIVE FACILITY SYS-4 FLR-2 SCH-E HPLCMT-EAST ZN AUTOMOTIVE FACILITY WHOLEBUILDING ELEC EQUIP,NECB-E-ELECTRIC-EQUIPMENT,SP-WHOLEBUILDING-AUTOMOTIVE FACILITY SYS-4 FLR-2 SCH-E HPLCMT-EAST ZN,1875.00,93.8,9378.407,5.002,100.000,0.000,0.500,0.000,0.500,General,468.920,8440.566
 ElectricEquipment Internal Gains Nominal, SP-WHOLEBUILDING-AUTOMOTIVE FACILITY 1 SYS-4 FLR-4 SCH-E HPLCMT-SOUTH ZN AUTOMOTIVE FACILITY WHOLEBUILDING 1 ELEC EQUIP,NECB-E-ELECTRIC-EQUIPMENT,SP-WHOLEBUILDING-AUTOMOTIVE FACILITY 1 SYS-4 FLR-4 SCH-E HPLCMT-SOUTH ZN,1875.00,93.8,9378.407,5.002,100.000,0.000,0.500,0.000,0.500,General,468.920,8440.566
 ElectricEquipment Internal Gains Nominal, SP-WHOLEBUILDING-AUTOMOTIVE FACILITY 2 SYS-4 FLR-2 SCH-E HPLCMT-SOUTH ZN AUTOMOTIVE FACILITY WHOLEBUILDING 2 ELEC EQUIP,NECB-E-ELECTRIC-EQUIPMENT,SP-WHOLEBUILDING-AUTOMOTIVE FACILITY 2 SYS-4 FLR-2 SCH-E HPLCMT-SOUTH ZN,1875.00,93.8,9378.407,5.002,100.000,0.000,0.500,0.000,0.500,General,468.920,8440.566
 ElectricEquipment Internal Gains Nominal, SP-MUSEUM RESTORATION ROOM-SPACE FUNCTION SYS-2 FLR-4 SCH-A HPLCMT-CORE ZN SPACE FUNCTION MUSEUM RESTORATION ROOM ELEC EQUIP,NECB-A-ELECTRIC-EQUIPMENT,SP-MUSEUM RESTORATION ROOM-SPACE FUNCTION SYS-2 FLR-4 SCH-A HPLCMT-CORE ZN,2500.00,125.0,12504.543,5.002,100.000,0.000,0.500,0.000,0.500,General,2500.909,11254.088
 ElectricEquipment Internal Gains Nominal, SP-POST OFFICE SORTING AREA-SPACE FUNCTION SYS-6 FLR-4 SCH-A HPLCMT-EAST ZN SPACE FUNCTION POST OFFICE SORTING AREA ELEC EQUIP,NECB-A-ELECTRIC-EQUIPMENT,SP-POST OFFICE SORTING AREA-SPACE FUNCTION SYS-6 FLR-4 SCH-A HPLCMT-EAST ZN,1875.00,93.8,14067.611,7.503,150.000,0.000,0.500,0.000,0.500,General,2813.522,12660.850
 ElectricEquipment Internal Gains Nominal, SP-RELIGIOUS BUILDING FELLOWSHIP HALL-SPACE FUNCTION SYS-3 FLR-4 SCH-C HPLCMT-NORTH ZN SPACE FUNCTION RELIGIOUS BUILDING FELLOWSHIP HALL ELEC EQUIP,NECB-C-ELECTRIC-EQUIPMENT,SP-RELIGIOUS BUILDING FELLOWSHIP HALL-SPACE FUNCTION SYS-3 FLR-4 SCH-C HPLCMT-NORTH ZN,1875.00,375.1,1875.681,1.000,5.000,0.000,0.500,0.000,0.500,General,93.784,1688.113
 ElectricEquipment Internal Gains Nominal, SP-RELIGIOUS BUILDING WORSHIP/PULPIT/CHOIR AREA-SPACE FUNCTION SYS-3 FLR-3 SCH-I HPLCMT-NORTH ZN SPACE FUNCTION RELIGIOUS BUILDING WORSHIP/PULPIT/CHOIR AREA ELEC EQUIP,NECB-I-ELECTRIC-EQUIPMENT,SP-RELIGIOUS BUILDING WORSHIP/PULPIT/CHOIR AREA-SPACE FUNCTION SYS-3 FLR-3 SCH-I HPLCMT-NORTH ZN,1875.00,375.1,1875.681,1.000,5.000,0.000,0.500,0.000,0.500,General,187.568,1500.545
 ElectricEquipment Internal Gains Nominal, SP-RETAIL FACILITY DRESSING/FITTING ROOM-SPACE FUNCTION SYS-6 FLR-3 SCH-C HPLCMT-WEST ZN SPACE FUNCTION RETAIL FACILITY DRESSING/FITTING ROOM ELEC EQUIP,NECB-C-ELECTRIC-EQUIPMENT,SP-RETAIL FACILITY DRESSING/FITTING ROOM-SPACE FUNCTION SYS-6 FLR-3 SCH-C HPLCMT-WEST ZN,1875.00,62.5,4689.204,2.501,75.000,0.000,0.500,0.000,0.500,General,234.460,4220.283
 ElectricEquipment Internal Gains Nominal, SP-RETAIL FACILITY MALL CONCOURSE-SPACE FUNCTION SYS-6 FLR-4 SCH-C HPLCMT-WEST ZN SPACE FUNCTION RETAIL FACILITY MALL CONCOURSE ELEC EQUIP,NECB-C-ELECTRIC-EQUIPMENT,SP-RETAIL FACILITY MALL CONCOURSE-SPACE FUNCTION SYS-6 FLR-4 SCH-C HPLCMT-WEST ZN,1875.00,93.8,1875.681,1.000,20.000,0.000,0.500,0.000,0.500,General,93.784,1688.113
 ElectricEquipment Internal Gains Nominal, SP-SPACE DESIGNED TO ANSI/IES RP-28 CHAPEL (USED PRIMARILY BY RESIDENTS)-SPACE FUNCTION SYS-3 FLR-1 SCH-I HPLCMT-WEST ZN SPACE FUNCTION SPACE DESIGNED TO ANSI/IES RP-28 CHAPEL (USED PRIMARILY BY RESIDENTS) ELEC EQUIP,NECB-I-ELECTRIC-EQUIPMENT,SP-SPACE DESIGNED TO ANSI/IES RP-28 CHAPEL (USED PRIMARILY BY RESIDENTS)-SPACE FUNCTION SYS-3 FLR-1 SCH-I HPLCMT-WEST ZN,1875.00,187.6,1875.681,1.000,10.000,0.000,0.500,0.000,0.500,General,187.568,1500.545
 ElectricEquipment Internal Gains Nominal, SP-SPACE DESIGNED TO ANSI/IES RP-28 RECREATION ROOM (USED PRIMARILY BY RESIDENTS)-SPACE FUNCTION SYS-3 FLR-2 SCH-B HPLCMT-WEST ZN SPACE FUNCTION SPACE DESIGNED TO ANSI/IES RP-28 RECREATION ROOM (USED PRIMARILY BY RESIDENTS) ELEC EQUIP,NECB-B-ELECTRIC-EQUIPMENT,SP-SPACE DESIGNED TO ANSI/IES RP-28 RECREATION ROOM (USED PRIMARILY BY RESIDENTS)-SPACE FUNCTION SYS-3 FLR-2 SCH-B HPLCMT-WEST ZN,1875.00,93.8,1875.681,1.000,20.000,0.000,0.500,0.000,0.500,General,187.568,1688.113
 ElectricEquipment Internal Gains Nominal, SP-SPORTS ARENA PLAYING AREA CLASS I FACILITY(4)-SPACE FUNCTION SYS-6 FLR-1 SCH-B HPLCMT-NORTH ZN SPACE FUNCTION SPORTS ARENA PLAYING AREA CLASS I FACILITY(4) ELEC EQUIP,NECB-B-ELECTRIC-EQUIPMENT,SP-SPORTS ARENA PLAYING AREA CLASS I FACILITY(4)-SPACE FUNCTION SYS-6 FLR-1 SCH-B HPLCMT-NORTH ZN,1875.00,375.1,2813.522,1.501,7.500,0.000,0.500,0.000,0.500,General,281.352,2532.170
 ElectricEquipment Internal Gains Nominal, SP-SPORTS ARENA PLAYING AREA CLASS II FACILITY(4)-SPACE FUNCTION SYS-6 FLR-1 SCH-B HPLCMT-SOUTH ZN SPACE FUNCTION SPORTS ARENA PLAYING AREA CLASS II FACILITY(4) ELEC EQUIP,NECB-B-ELECTRIC-EQUIPMENT,SP-SPORTS ARENA PLAYING AREA CLASS II FACILITY(4)-SPACE FUNCTION SYS-6 FLR-1 SCH-B HPLCMT-SOUTH ZN,1875.00,375.1,2813.522,1.501,7.500,0.000,0.500,0.000,0.500,General,281.352,2532.170
 ElectricEquipment Internal Gains Nominal, SP-SPORTS ARENA PLAYING AREA CLASS III FACILITY(4)-SPACE FUNCTION SYS-6 FLR-1 SCH-B HPLCMT-EAST ZN SPACE FUNCTION SPORTS ARENA PLAYING AREA CLASS III FACILITY(4) ELEC EQUIP,NECB-B-ELECTRIC-EQUIPMENT,SP-SPORTS ARENA PLAYING AREA CLASS III FACILITY(4)-SPACE FUNCTION SYS-6 FLR-1 SCH-B HPLCMT-EAST ZN,1875.00,375.1,2813.522,1.501,7.500,0.000,0.500,0.000,0.500,General,281.352,2532.170
 ElectricEquipment Internal Gains Nominal, SP-SPORTS ARENA PLAYING AREA CLASS IV FACILITY(4)-SPACE FUNCTION SYS-6 FLR-3 SCH-B HPLCMT-CORE ZN SPACE FUNCTION SPORTS ARENA PLAYING AREA CLASS IV FACILITY(4) ELEC EQUIP,NECB-B-ELECTRIC-EQUIPMENT,SP-SPORTS ARENA PLAYING AREA CLASS IV FACILITY(4)-SPACE FUNCTION SYS-6 FLR-3 SCH-B HPLCMT-CORE ZN,2500.00,500.2,3751.363,1.501,7.500,0.000,0.500,0.000,0.500,General,375.136,3376.227
 ElectricEquipment Internal Gains Nominal, SP-TRANSPORTATION FACILITY BAGGAGE/CAROUSEL AREA-SPACE FUNCTION SYS-6 FLR-1 SCH-H HPLCMT-CORE ZN SPACE FUNCTION TRANSPORTATION FACILITY BAGGAGE/CAROUSEL AREA ELEC EQUIP,NECB-H-ELECTRIC-EQUIPMENT,SP-TRANSPORTATION FACILITY BAGGAGE/CAROUSEL AREA-SPACE FUNCTION SYS-6 FLR-1 SCH-H HPLCMT-CORE ZN,2500.00,125.0,6252.271,2.501,50.000,0.000,0.500,0.000,0.500,General,5627.044,5627.044
 ElectricEquipment Internal Gains Nominal, SP-TRANSPORTATION FACILITY TERMINAL TICKET COUNTER-SPACE FUNCTION SYS-6 FLR-3 SCH-H HPLCMT-SOUTH ZN SPACE FUNCTION TRANSPORTATION FACILITY TERMINAL TICKET COUNTER ELEC EQUIP,NECB-H-ELECTRIC-EQUIPMENT,SP-TRANSPORTATION FACILITY TERMINAL TICKET COUNTER-SPACE FUNCTION SYS-6 FLR-3 SCH-H HPLCMT-SOUTH ZN,1875.00,187.6,4689.204,2.501,25.000,0.000,0.500,0.000,0.500,General,4220.283,4220.283
 ElectricEquipment Internal Gains Nominal, SP-WAREHOUSE STORAGE AREA MEDIUM TO BULKY PALLETIZED ITEMS-SPACE FUNCTION SYS-4 FLR-2 SCH-A HPLCMT-CORE ZN SPACE FUNCTION WAREHOUSE STORAGE AREA MEDIUM TO BULKY PALLETIZED ITEMS ELEC EQUIP,NECB-A-ELECTRIC-EQUIPMENT,SP-WAREHOUSE STORAGE AREA MEDIUM TO BULKY PALLETIZED ITEMS-SPACE FUNCTION SYS-4 FLR-2 SCH-A HPLCMT-CORE ZN,2500.00,25.0,2500.909,1.000,100.000,0.000,0.500,0.000,0.500,General,500.182,2250.818
 ElectricEquipment Internal Gains Nominal, SP-WAREHOUSE STORAGE AREA SMALL HAND-CARRIED ITEMS(4)-SPACE FUNCTION SYS-4 FLR-2 SCH-A HPLCMT-NORTH ZN SPACE FUNCTION WAREHOUSE STORAGE AREA SMALL HAND-CARRIED ITEMS(4) ELEC EQUIP,NECB-A-ELECTRIC-EQUIPMENT,SP-WAREHOUSE STORAGE AREA SMALL HAND-CARRIED ITEMS(4)-SPACE FUNCTION SYS-4 FLR-2 SCH-A HPLCMT-NORTH ZN,1875.00,37.5,1875.681,1.000,50.000,0.000,0.500,0.000,0.500,General,375.136,1688.113
! <Shadowing/Sun Position Calculations Annual Simulations>, Calculation Method, Value {days}, Allowable Number Figures in Shadow Overlap {}, Polygon Clipping Algorithm, Sky Diffuse Modeling Algorithm, External Shading Calculation Method, Output External Shading Calculation Results, Disable Self-Shading Within Shading Zone Groups, Disable Self-Shading From Shading Zone Groups to Other Zones
Shadowing/Sun Position Calculations Annual Simulations,AverageOverDaysInFrequency,20,15000,SutherlandHodgman,SimpleSkyDiffuseModeling,InternalCalculation,No,No,No
! <Water Heater Information>,Type,Name,Volume {m3},Maximum Capacity {W},Standard Rated Recovery Efficiency, Standard Rated Energy Factor
! <ZoneInfiltration Airflow Stats Nominal>,Name,Schedule Name,Zone Name, Zone Floor Area {m2}, # Zone Occupants,Design Volume Flow Rate {m3/s},Volume Flow Rate/Floor Area {m3/s/m2},Volume Flow Rate/Exterior Surface Area {m3/s/m2},ACH - Air Changes per Hour,Equation A - Constant Term Coefficient {},Equation B - Temperature Term Coefficient {1/C},Equation C - Velocity Term Coefficient {s/m}, Equation D - Velocity Squared Term Coefficient {s2/m2}
 ZoneInfiltration Airflow Stats Nominal, MUSEUM RESTORATION ROOM-SPACE FUNCTION INFILTRATION,ALWAYS ON DISCRETE,SP-MUSEUM RESTORATION ROOM-SPACE FUNCTION SYS-2 FLR-4 SCH-A HPLCMT-CORE ZN,2500.00,125.0,0.625,2.500E-004,2.500E-004,0.237,0.000,0.000,0.224,0.000
 ZoneInfiltration Airflow Stats Nominal, POST OFFICE SORTING AREA-SPACE FUNCTION INFILTRATION,ALWAYS ON DISCRETE,SP-POST OFFICE SORTING AREA-SPACE FUNCTION SYS-6 FLR-4 SCH-A HPLCMT-EAST ZN,1875.00,93.8,0.564,3.007E-004,2.500E-004,0.285,0.000,0.000,0.224,0.000
 ZoneInfiltration Airflow Stats Nominal, RELIGIOUS BUILDING FELLOWSHIP HALL-SPACE FUNCTION INFILTRATION,ALWAYS ON DISCRETE,SP-RELIGIOUS BUILDING FELLOWSHIP HALL-SPACE FUNCTION SYS-3 FLR-4 SCH-C HPLCMT-NORTH ZN,1875.00,375.1,0.564,3.007E-004,2.500E-004,0.285,0.000,0.000,0.224,0.000
 ZoneInfiltration Airflow Stats Nominal, RELIGIOUS BUILDING WORSHIP/PULPIT/CHOIR AREA-SPACE FUNCTION INFILTRATION,ALWAYS ON DISCRETE,SP-RELIGIOUS BUILDING WORSHIP/PULPIT/CHOIR AREA-SPACE FUNCTION SYS-3 FLR-3 SCH-I HPLCMT-NORTH ZN,1875.00,375.1,9.500E-002,5.067E-005,2.500E-004,4.800E-002,0.000,0.000,0.224,0.000
 ZoneInfiltration Airflow Stats Nominal, RETAIL FACILITY DRESSING/FITTING ROOM-SPACE FUNCTION INFILTRATION,ALWAYS ON DISCRETE,SP-RETAIL FACILITY DRESSING/FITTING ROOM-SPACE FUNCTION SYS-6 FLR-3 SCH-C HPLCMT-WEST ZN,1875.00,62.5,9.500E-002,5.067E-005,2.500E-004,4.800E-002,0.000,0.000,0.224,0.000
 ZoneInfiltration Airflow Stats Nominal, RETAIL FACILITY MALL CONCOURSE-SPACE FUNCTION INFILTRATION,ALWAYS ON DISCRETE,SP-RETAIL FACILITY MALL CONCOURSE-SPACE FUNCTION SYS-6 FLR-4 SCH-C HPLCMT-WEST ZN,1875.00,93.8,0.564,3.007E-004,2.500E-004,0.285,0.000,0.000,0.224,0.000
 ZoneInfiltration Airflow Stats Nominal, SPACE DESIGNED TO ANSI/IES RP-28 RECREATION ROOM (USED PRIMARILY BY RESIDENTS)-SPACE FUNCTION INFILTRATION,ALWAYS ON DISCRETE,SP-SPACE DESIGNED TO ANSI/IES RP-28 RECREATION ROOM (USED PRIMARILY BY RESIDENTS)-SPACE FUNCTION SYS-3 FLR-2 SCH-B HPLCMT-WEST ZN,1875.00,93.8,9.500E-002,5.067E-005,2.500E-004,4.800E-002,0.000,0.000,0.224,0.000
 ZoneInfiltration Airflow Stats Nominal, TRANSPORTATION FACILITY AIRPORT CONCOURSE-SPACE FUNCTION INFILTRATION,ALWAYS ON DISCRETE,SP-TRANSPORTATION FACILITY AIRPORT CONCOURSE-SPACE FUNCTION SYS-6 FLR-3 SCH-H HPLCMT-EAST ZN,1875.00,93.8,9.500E-002,5.067E-005,2.500E-004,4.800E-002,0.000,0.000,0.224,0.000
 ZoneInfiltration Airflow Stats Nominal, TRANSPORTATION FACILITY TERMINAL TICKET COUNTER-SPACE FUNCTION INFILTRATION,ALWAYS ON DISCRETE,SP-TRANSPORTATION FACILITY TERMINAL TICKET COUNTER-SPACE FUNCTION SYS-6 FLR-3 SCH-H HPLCMT-SOUTH ZN,1875.00,187.6,9.500E-002,5.067E-005,2.500E-004,4.800E-002,0.000,0.000,0.224,0.000
 ZoneInfiltration Airflow Stats Nominal, WAREHOUSE STORAGE AREA SMALL HAND-CARRIED ITEMS(4)-SPACE FUNCTION INFILTRATION,ALWAYS ON DISCRETE,SP-WAREHOUSE STORAGE AREA SMALL HAND-CARRIED ITEMS(4)-SPACE FUNCTION SYS-4 FLR-2 SCH-A HPLCMT-NORTH ZN,1875.00,37.5,9.500E-002,5.067E-005,2.500E-004,4.800E-002,0.000,0.000,0.224,0.000
 ZoneInfiltration Airflow Stats Nominal, WHOLEBUILDING-AUTOMOTIVE FACILITY 1 INFILTRATION,ALWAYS ON DISCRETE,SP-WHOLEBUILDING-AUTOMOTIVE FACILITY 1 SYS-4 FLR-4 SCH-E HPLCMT-SOUTH ZN,1875.00,93.8,0.564,3.007E-004,2.500E-004,0.285,0.000,0.000,0.224,0.000
 ZoneInfiltration Airflow Stats Nominal, WHOLEBUILDING-AUTOMOTIVE FACILITY 2 INFILTRATION,ALWAYS ON DISCRETE,SP-WHOLEBUILDING-AUTOMOTIVE FACILITY 2 SYS-4 FLR-2 SCH-E HPLCMT-SOUTH ZN,1875.00,93.8,9.500E-002,5.067E-005,2.500E-004,4.800E-002,0.000,0.000,0.224,0.000
 ZoneInfiltration Airflow Stats Nominal, WHOLEBUILDING-AUTOMOTIVE FACILITY INFILTRATION,ALWAYS ON DISCRETE,SP-WHOLEBUILDING-AUTOMOTIVE FACILITY SYS-4 FLR-2 SCH-E HPLCMT-EAST ZN,1875.00,93.8,9.500E-002,5.067E-005,2.500E-004,4.800E-002,0.000,0.000,0.224,0.000
! <AirFlow Model>, Simple
 AirFlow Model, Simple
! <RoomAir Model>, Zone Name, Mixing/Mundt/UCSDDV/UCSDCV/UCSDUFI/UCSDUFE/User Defined
RoomAir Model,SP-MUSEUM RESTORATION ROOM-SPACE FUNCTION SYS-2 FLR-4 SCH-A HPLCMT-CORE ZN,Mixing/Well-Stirred
RoomAir Model,SP-POST OFFICE SORTING AREA-SPACE FUNCTION SYS-6 FLR-4 SCH-A HPLCMT-EAST ZN,Mixing/Well-Stirred
RoomAir Model,SP-RELIGIOUS BUILDING FELLOWSHIP HALL-SPACE FUNCTION SYS-3 FLR-4 SCH-C HPLCMT-NORTH ZN,Mixing/Well-Stirred
RoomAir Model,SP-RELIGIOUS BUILDING WORSHIP/PULPIT/CHOIR AREA-SPACE FUNCTION SYS-3 FLR-3 SCH-I HPLCMT-NORTH ZN,Mixing/Well-Stirred
RoomAir Model,SP-RETAIL FACILITY DRESSING/FITTING ROOM-SPACE FUNCTION SYS-6 FLR-3 SCH-C HPLCMT-WEST ZN,Mixing/Well-Stirred
RoomAir Model,SP-RETAIL FACILITY MALL CONCOURSE-SPACE FUNCTION SYS-6 FLR-4 SCH-C HPLCMT-WEST ZN,Mixing/Well-Stirred
RoomAir Model,SP-SPACE DESIGNED TO ANSI/IES RP-28 CHAPEL (USED PRIMARILY BY RESIDENTS)-SPACE FUNCTION SYS-3 FLR-1 SCH-I HPLCMT-WEST ZN,Mixing/Well-Stirred
RoomAir Model,SP-SPACE DESIGNED TO ANSI/IES RP-28 RECREATION ROOM (USED PRIMARILY BY RESIDENTS)-SPACE FUNCTION SYS-3 FLR-2 SCH-B HPLCMT-WEST ZN,Mixing/Well-Stirred
RoomAir Model,SP-SPORTS ARENA PLAYING AREA CLASS I FACILITY(4)-SPACE FUNCTION SYS-6 FLR-1 SCH-B HPLCMT-NORTH ZN,Mixing/Well-Stirred
RoomAir Model,SP-SPORTS ARENA PLAYING AREA CLASS II FACILITY(4)-SPACE FUNCTION SYS-6 FLR-1 SCH-B HPLCMT-SOUTH ZN,Mixing/Well-Stirred
RoomAir Model,SP-SPORTS ARENA PLAYING AREA CLASS III FACILITY(4)-SPACE FUNCTION SYS-6 FLR-1 SCH-B HPLCMT-EAST ZN,Mixing/Well-Stirred
RoomAir Model,SP-SPORTS ARENA PLAYING AREA CLASS IV FACILITY(4)-SPACE FUNCTION SYS-6 FLR-3 SCH-B HPLCMT-CORE ZN,Mixing/Well-Stirred
RoomAir Model,SP-TRANSPORTATION FACILITY AIRPORT CONCOURSE-SPACE FUNCTION SYS-6 FLR-3 SCH-H HPLCMT-EAST ZN,Mixing/Well-Stirred
RoomAir Model,SP-TRANSPORTATION FACILITY BAGGAGE/CAROUSEL AREA-SPACE FUNCTION SYS-6 FLR-1 SCH-H HPLCMT-CORE ZN,Mixing/Well-Stirred
RoomAir Model,SP-TRANSPORTATION FACILITY TERMINAL TICKET COUNTER-SPACE FUNCTION SYS-6 FLR-3 SCH-H HPLCMT-SOUTH ZN,Mixing/Well-Stirred
RoomAir Model,SP-WAREHOUSE STORAGE AREA MEDIUM TO BULKY PALLETIZED ITEMS-SPACE FUNCTION SYS-4 FLR-2 SCH-A HPLCMT-CORE ZN,Mixing/Well-Stirred
RoomAir Model,SP-WAREHOUSE STORAGE AREA SMALL HAND-CARRIED ITEMS(4)-SPACE FUNCTION SYS-4 FLR-2 SCH-A HPLCMT-NORTH ZN,Mixing/Well-Stirred
RoomAir Model,SP-WHOLEBUILDING-AUTOMOTIVE FACILITY 1 SYS-4 FLR-4 SCH-E HPLCMT-SOUTH ZN,Mixing/Well-Stirred
RoomAir Model,SP-WHOLEBUILDING-AUTOMOTIVE FACILITY 2 SYS-4 FLR-2 SCH-E HPLCMT-SOUTH ZN,Mixing/Well-Stirred
RoomAir Model,SP-WHOLEBUILDING-AUTOMOTIVE FACILITY SYS-4 FLR-2 SCH-E HPLCMT-EAST ZN,Mixing/Well-Stirred
! <AirflowNetwork Model:Control>, No Multizone or Distribution/Multizone with Distribution/Multizone without Distribution/Multizone with Distribution only during Fan Operation
AirflowNetwork Model:Control,NoMultizoneOrDistribution
! <Zone Volume Capacitance Multiplier>, Sensible Heat Capacity Multiplier, Moisture Capacity Multiplier, Carbon Dioxide Capacity Multiplier, Generic Contaminant Capacity Multiplier
Zone Volume Capacitance Multiplier,   1.000 ,   1.000,   1.000,   1.000
! <Load Timesteps in Zone Design Calculation Averaging Window>, Value
 Load Timesteps in Zone Design Calculation Averaging Window,    6
! <Heating Sizing Factor Information>, Sizing Factor ID, Value
 Heating Sizing Factor Information, Global,   1.3000    
 Heating Sizing Factor Information, Zone SP-MUSEUM RESTORATION ROOM-SPACE FUNCTION SYS-2 FLR-4 SCH-A HPLCMT-CORE ZN,   1.3000    
 Heating Sizing Factor Information, Zone SP-POST OFFICE SORTING AREA-SPACE FUNCTION SYS-6 FLR-4 SCH-A HPLCMT-EAST ZN,   1.3000    
 Heating Sizing Factor Information, Zone SP-RELIGIOUS BUILDING FELLOWSHIP HALL-SPACE FUNCTION SYS-3 FLR-4 SCH-C HPLCMT-NORTH ZN,   1.3000    
 Heating Sizing Factor Information, Zone SP-RELIGIOUS BUILDING WORSHIP/PULPIT/CHOIR AREA-SPACE FUNCTION SYS-3 FLR-3 SCH-I HPLCMT-NORTH ZN,   1.3000    
 Heating Sizing Factor Information, Zone SP-RETAIL FACILITY DRESSING/FITTING ROOM-SPACE FUNCTION SYS-6 FLR-3 SCH-C HPLCMT-WEST ZN,   1.3000    
 Heating Sizing Factor Information, Zone SP-RETAIL FACILITY MALL CONCOURSE-SPACE FUNCTION SYS-6 FLR-4 SCH-C HPLCMT-WEST ZN,   1.3000    
 Heating Sizing Factor Information, Zone SP-SPACE DESIGNED TO ANSI/IES RP-28 CHAPEL (USED PRIMARILY BY RESIDENTS)-SPACE FUNCTION SYS-3 FLR-1 SCH-I HPLCMT-WEST ZN,   1.3000    
 Heating Sizing Factor Information, Zone SP-SPACE DESIGNED TO ANSI/IES RP-28 RECREATION ROOM (USED PRIMARILY BY RESIDENTS)-SPACE FUNCTION SYS-3 FLR-2 SCH-B HPLCMT-WEST ZN,   1.3000    
 Heating Sizing Factor Information, Zone SP-SPORTS ARENA PLAYING AREA CLASS I FACILITY(4)-SPACE FUNCTION SYS-6 FLR-1 SCH-B HPLCMT-NORTH ZN,   1.3000    
 Heating Sizing Factor Information, Zone SP-SPORTS ARENA PLAYING AREA CLASS II FACILITY(4)-SPACE FUNCTION SYS-6 FLR-1 SCH-B HPLCMT-SOUTH ZN,   1.3000    
 Heating Sizing Factor Information, Zone SP-SPORTS ARENA PLAYING AREA CLASS III FACILITY(4)-SPACE FUNCTION SYS-6 FLR-1 SCH-B HPLCMT-EAST ZN,   1.3000    
 Heating Sizing Factor Information, Zone SP-SPORTS ARENA PLAYING AREA CLASS IV FACILITY(4)-SPACE FUNCTION SYS-6 FLR-3 SCH-B HPLCMT-CORE ZN,   1.3000    
 Heating Sizing Factor Information, Zone SP-TRANSPORTATION FACILITY AIRPORT CONCOURSE-SPACE FUNCTION SYS-6 FLR-3 SCH-H HPLCMT-EAST ZN,   1.3000    
 Heating Sizing Factor Information, Zone SP-TRANSPORTATION FACILITY BAGGAGE/CAROUSEL AREA-SPACE FUNCTION SYS-6 FLR-1 SCH-H HPLCMT-CORE ZN,   1.3000    
 Heating Sizing Factor Information, Zone SP-TRANSPORTATION FACILITY TERMINAL TICKET COUNTER-SPACE FUNCTION SYS-6 FLR-3 SCH-H HPLCMT-SOUTH ZN,   1.3000    
 Heating Sizing Factor Information, Zone SP-WAREHOUSE STORAGE AREA MEDIUM TO BULKY PALLETIZED ITEMS-SPACE FUNCTION SYS-4 FLR-2 SCH-A HPLCMT-CORE ZN,   1.3000    
 Heating Sizing Factor Information, Zone SP-WAREHOUSE STORAGE AREA SMALL HAND-CARRIED ITEMS(4)-SPACE FUNCTION SYS-4 FLR-2 SCH-A HPLCMT-NORTH ZN,   1.3000    
 Heating Sizing Factor Information, Zone SP-WHOLEBUILDING-AUTOMOTIVE FACILITY 1 SYS-4 FLR-4 SCH-E HPLCMT-SOUTH ZN,   1.3000    
 Heating Sizing Factor Information, Zone SP-WHOLEBUILDING-AUTOMOTIVE FACILITY 2 SYS-4 FLR-2 SCH-E HPLCMT-SOUTH ZN,   1.3000    
 Heating Sizing Factor Information, Zone SP-WHOLEBUILDING-AUTOMOTIVE FACILITY SYS-4 FLR-2 SCH-E HPLCMT-EAST ZN,   1.3000    
! <Cooling Sizing Factor Information>, Sizing Factor ID, Value
 Cooling Sizing Factor Information, Global,   1.1000    
 Cooling Sizing Factor Information, Zone SP-MUSEUM RESTORATION ROOM-SPACE FUNCTION SYS-2 FLR-4 SCH-A HPLCMT-CORE ZN,   1.1000    
 Cooling Sizing Factor Information, Zone SP-POST OFFICE SORTING AREA-SPACE FUNCTION SYS-6 FLR-4 SCH-A HPLCMT-EAST ZN,   1.1000    
 Cooling Sizing Factor Information, Zone SP-RELIGIOUS BUILDING FELLOWSHIP HALL-SPACE FUNCTION SYS-3 FLR-4 SCH-C HPLCMT-NORTH ZN,   1.1000    
 Cooling Sizing Factor Information, Zone SP-RELIGIOUS BUILDING WORSHIP/PULPIT/CHOIR AREA-SPACE FUNCTION SYS-3 FLR-3 SCH-I HPLCMT-NORTH ZN,   1.1000    
 Cooling Sizing Factor Information, Zone SP-RETAIL FACILITY DRESSING/FITTING ROOM-SPACE FUNCTION SYS-6 FLR-3 SCH-C HPLCMT-WEST ZN,   1.1000    
 Cooling Sizing Factor Information, Zone SP-RETAIL FACILITY MALL CONCOURSE-SPACE FUNCTION SYS-6 FLR-4 SCH-C HPLCMT-WEST ZN,   1.1000    
 Cooling Sizing Factor Information, Zone SP-SPACE DESIGNED TO ANSI/IES RP-28 CHAPEL (USED PRIMARILY BY RESIDENTS)-SPACE FUNCTION SYS-3 FLR-1 SCH-I HPLCMT-WEST ZN,   1.1000    
 Cooling Sizing Factor Information, Zone SP-SPACE DESIGNED TO ANSI/IES RP-28 RECREATION ROOM (USED PRIMARILY BY RESIDENTS)-SPACE FUNCTION SYS-3 FLR-2 SCH-B HPLCMT-WEST ZN,   1.1000    
 Cooling Sizing Factor Information, Zone SP-SPORTS ARENA PLAYING AREA CLASS I FACILITY(4)-SPACE FUNCTION SYS-6 FLR-1 SCH-B HPLCMT-NORTH ZN,   1.1000    
 Cooling Sizing Factor Information, Zone SP-SPORTS ARENA PLAYING AREA CLASS II FACILITY(4)-SPACE FUNCTION SYS-6 FLR-1 SCH-B HPLCMT-SOUTH ZN,   1.1000    
 Cooling Sizing Factor Information, Zone SP-SPORTS ARENA PLAYING AREA CLASS III FACILITY(4)-SPACE FUNCTION SYS-6 FLR-1 SCH-B HPLCMT-EAST ZN,   1.1000    
 Cooling Sizing Factor Information, Zone SP-SPORTS ARENA PLAYING AREA CLASS IV FACILITY(4)-SPACE FUNCTION SYS-6 FLR-3 SCH-B HPLCMT-CORE ZN,   1.1000    
 Cooling Sizing Factor Information, Zone SP-TRANSPORTATION FACILITY AIRPORT CONCOURSE-SPACE FUNCTION SYS-6 FLR-3 SCH-H HPLCMT-EAST ZN,   1.1000    
 Cooling Sizing Factor Information, Zone SP-TRANSPORTATION FACILITY BAGGAGE/CAROUSEL AREA-SPACE FUNCTION SYS-6 FLR-1 SCH-H HPLCMT-CORE ZN,   1.1000    
 Cooling Sizing Factor Information, Zone SP-TRANSPORTATION FACILITY TERMINAL TICKET COUNTER-SPACE FUNCTION SYS-6 FLR-3 SCH-H HPLCMT-SOUTH ZN,   1.1000    
 Cooling Sizing Factor Information, Zone SP-WAREHOUSE STORAGE AREA MEDIUM TO BULKY PALLETIZED ITEMS-SPACE FUNCTION SYS-4 FLR-2 SCH-A HPLCMT-CORE ZN,   1.1000    
 Cooling Sizing Factor Information, Zone SP-WAREHOUSE STORAGE AREA SMALL HAND-CARRIED ITEMS(4)-SPACE FUNCTION SYS-4 FLR-2 SCH-A HPLCMT-NORTH ZN,   1.1000    
 Cooling Sizing Factor Information, Zone SP-WHOLEBUILDING-AUTOMOTIVE FACILITY 1 SYS-4 FLR-4 SCH-E HPLCMT-SOUTH ZN,   1.1000    
 Cooling Sizing Factor Information, Zone SP-WHOLEBUILDING-AUTOMOTIVE FACILITY 2 SYS-4 FLR-2 SCH-E HPLCMT-SOUTH ZN,   1.1000    
 Cooling Sizing Factor Information, Zone SP-WHOLEBUILDING-AUTOMOTIVE FACILITY SYS-4 FLR-2 SCH-E HPLCMT-EAST ZN,   1.1000    
! <Zone Sizing Information>, Zone Name, Load Type, Calc Des Load {W}, User Des Load {W}, Calc Des Air Flow Rate {m3/s}, User Des Air Flow Rate {m3/s}, Design Day Name, Date/Time of Peak, Temperature at Peak {C}, Humidity Ratio at Peak {kgWater/kgDryAir}, Floor Area {m2}, # Occupants, Calc Outdoor Air Flow Rate {m3/s}, Calc DOAS Heat Addition Rate {W}
 Zone Sizing Information, SP-MUSEUM RESTORATION ROOM-SPACE FUNCTION SYS-2 FLR-4 SCH-A HPLCMT-CORE ZN, Cooling, 87032.86731, 95736.15404, 6.72642, 7.39906, FORT MCMURRAY AP ANN CLG .4% CONDNS DB=>MWB, 7/21 14:50:00, 28.90000, 8.76969E-003, 2500.00000, 125.04543, 2.15900, 0.00000
 Zone Sizing Information, SP-MUSEUM RESTORATION ROOM-SPACE FUNCTION SYS-2 FLR-4 SCH-A HPLCMT-CORE ZN, Heating, 39749.88298, 51674.84788, 1.57038, 2.15900, FORT MCMURRAY AP ANN HTG 99.6% CONDNS DB, 1/21 08:00:00, -36.20000, 1.25811E-004, 2500.00000, 125.04543, 2.15900, 0.00000
 Zone Sizing Information, SP-POST OFFICE SORTING AREA-SPACE FUNCTION SYS-6 FLR-4 SCH-A HPLCMT-EAST ZN, Cooling, 79102.86858, 87013.15544, 6.11388, 6.72527, FORT MCMURRAY AP ANN CLG .4% CONDNS DB=>MWB, 7/21 10:30:00, 25.11800, 8.76969E-003, 1875.00000, 93.78407, 1.64783, 0.00000
 Zone Sizing Information, SP-POST OFFICE SORTING AREA-SPACE FUNCTION SYS-6 FLR-4 SCH-A HPLCMT-EAST ZN, Heating, 46450.73446, 60385.95480, 1.85085, 2.40610, FORT MCMURRAY AP ANN HTG 99.6% CONDNS DB, 1/21 08:00:00, -36.20000, 1.25811E-004, 1875.00000, 93.78407, 1.64783, 0.00000
 Zone Sizing Information, SP-RELIGIOUS BUILDING FELLOWSHIP HALL-SPACE FUNCTION SYS-3 FLR-4 SCH-C HPLCMT-NORTH ZN, Cooling, 73393.37070, 80732.70777, 5.67378, 6.28650, FORT MCMURRAY AP ANN CLG .4% CONDNS DB=>MWB, 7/21 13:50:00, 28.79667, 8.76969E-003, 1875.00000, 375.13628, 6.28650, 0.00000
 Zone Sizing Information, SP-RELIGIOUS BUILDING FELLOWSHIP HALL-SPACE FUNCTION SYS-3 FLR-4 SCH-C HPLCMT-NORTH ZN, Heating, 46739.67158, 60761.57306, 1.86219, 6.28650, FORT MCMURRAY AP ANN HTG 99.6% CONDNS DB, 1/21 09:00:00, -36.20000, 1.25811E-004, 1875.00000, 375.13628, 6.28650, 0.00000
 Zone Sizing Information, SP-RELIGIOUS BUILDING WORSHIP/PULPIT/CHOIR AREA-SPACE FUNCTION SYS-3 FLR-3 SCH-I HPLCMT-NORTH ZN, Cooling, 52105.67398, 57316.24138, 4.02764, 6.28650, FORT MCMURRAY AP ANN CLG .4% CONDNS DB=>MWB, 7/21 20:10:00, 22.51400, 8.76969E-003, 1875.00000, 375.13628, 6.28650, 0.00000
 Zone Sizing Information, SP-RELIGIOUS BUILDING WORSHIP/PULPIT/CHOIR AREA-SPACE FUNCTION SYS-3 FLR-3 SCH-I HPLCMT-NORTH ZN, Heating, 15507.83450, 20160.18485, 0.59843, 6.28650, FORT MCMURRAY AP ANN HTG 99.6% CONDNS DB, 1/21 16:00:00, -36.20000, 1.25811E-004, 1875.00000, 375.13628, 6.28650, 0.00000
 Zone Sizing Information, SP-RETAIL FACILITY DRESSING/FITTING ROOM-SPACE FUNCTION SYS-6 FLR-3 SCH-C HPLCMT-WEST ZN, Cooling, 51807.58525, 56988.34377, 4.00407, 4.40448, FORT MCMURRAY AP ANN CLG .4% CONDNS DB=>MWB, 7/21 18:00:00, 25.92400, 8.76969E-003, 1875.00000, 62.52271, 2.21933, 0.00000
 Zone Sizing Information, SP-RETAIL FACILITY DRESSING/FITTING ROOM-SPACE FUNCTION SYS-6 FLR-3 SCH-C HPLCMT-WEST ZN, Heating, 21057.57067, 27374.84187, 0.82286, 2.21933, FORT MCMURRAY AP ANN HTG 99.6% CONDNS DB, 1/21 09:00:00, -36.20000, 1.25811E-004, 1875.00000, 62.52271, 2.21933, 0.00000
 Zone Sizing Information, SP-RETAIL FACILITY MALL CONCOURSE-SPACE FUNCTION SYS-6 FLR-4 SCH-C HPLCMT-WEST ZN, Cooling, 79379.00010, 87316.90011, 6.13512, 6.74863, FORT MCMURRAY AP ANN CLG .4% CONDNS DB=>MWB, 7/21 16:10:00, 27.99067, 8.76969E-003, 1875.00000, 93.78407, 3.42900, 0.00000
 Zone Sizing Information, SP-RETAIL FACILITY MALL CONCOURSE-SPACE FUNCTION SYS-6 FLR-4 SCH-C HPLCMT-WEST ZN, Heating, 46505.31093, 60456.90421, 1.85263, 3.42900, FORT MCMURRAY AP ANN HTG 99.6% CONDNS DB, 1/21 09:00:00, -36.20000, 1.25811E-004, 1875.00000, 93.78407, 3.42900, 0.00000
 Zone Sizing Information, SP-SPACE DESIGNED TO ANSI/IES RP-28 CHAPEL (USED PRIMARILY BY RESIDENTS)-SPACE FUNCTION SYS-3 FLR-1 SCH-I HPLCMT-WEST ZN, Cooling, 43751.15065, 48126.26571, 3.38152, 6.28650, FORT MCMURRAY AP ANN CLG .4% CONDNS DB=>MWB, 7/21 22:00:00, 20.46800, 8.76969E-003, 1875.00000, 187.56814, 6.28650, 0.00000
 Zone Sizing Information, SP-SPACE DESIGNED TO ANSI/IES RP-28 CHAPEL (USED PRIMARILY BY RESIDENTS)-SPACE FUNCTION SYS-3 FLR-1 SCH-I HPLCMT-WEST ZN, Heating, 0.00000, 0.00000, 0.00000, 6.28650, FORT MCMURRAY AP ANN HTG 99.6% CONDNS DB, , -36.20000, 1.25811E-004, 1875.00000, 187.56814, 6.28650, 0.00000
 Zone Sizing Information, SP-SPACE DESIGNED TO ANSI/IES RP-28 RECREATION ROOM (USED PRIMARILY BY RESIDENTS)-SPACE FUNCTION SYS-3 FLR-2 SCH-B HPLCMT-WEST ZN, Cooling, 59205.47615, 65126.02376, 4.57574, 6.85800, FORT MCMURRAY AP ANN CLG .4% CONDNS DB=>MWB, 7/21 18:50:00, 24.37400, 8.76969E-003, 1875.00000, 93.78407, 6.85800, 0.00000
 Zone Sizing Information, SP-SPACE DESIGNED TO ANSI/IES RP-28 RECREATION ROOM (USED PRIMARILY BY RESIDENTS)-SPACE FUNCTION SYS-3 FLR-2 SCH-B HPLCMT-WEST ZN, Heating, 0.00000, 0.00000, 0.00000, 6.85800, FORT MCMURRAY AP ANN HTG 99.6% CONDNS DB, , -36.20000, 1.25811E-004, 1875.00000, 93.78407, 6.85800, 0.00000
 Zone Sizing Information, SP-SPORTS ARENA PLAYING AREA CLASS I FACILITY(4)-SPACE FUNCTION SYS-6 FLR-1 SCH-B HPLCMT-NORTH ZN, Cooling, 71473.48021, 78620.82823, 5.52483, 6.07731, FORT MCMURRAY AP ANN CLG .4% CONDNS DB=>MWB, 7/21 22:00:00, 20.46800, 8.76969E-003, 1875.00000, 375.13628, 2.85750, 0.00000
 Zone Sizing Information, SP-SPORTS ARENA PLAYING AREA CLASS I FACILITY(4)-SPACE FUNCTION SYS-6 FLR-1 SCH-B HPLCMT-NORTH ZN, Heating, 0.00000, 0.00000, 0.00000, 2.85750, FORT MCMURRAY AP ANN HTG 99.6% CONDNS DB, , -36.20000, 1.25811E-004, 1875.00000, 375.13628, 2.85750, 0.00000
 Zone Sizing Information, SP-SPORTS ARENA PLAYING AREA CLASS II FACILITY(4)-SPACE FUNCTION SYS-6 FLR-1 SCH-B HPLCMT-SOUTH ZN, Cooling, 57042.92303, 62747.21534, 4.40937, 4.85030, FORT MCMURRAY AP ANN CLG .4% CONDNS DB=>MWB, 7/21 22:00:00, 20.46800, 8.76969E-003, 1875.00000, 375.13628, 2.85750, 0.00000
 Zone Sizing Information, SP-SPORTS ARENA PLAYING AREA CLASS II FACILITY(4)-SPACE FUNCTION SYS-6 FLR-1 SCH-B HPLCMT-SOUTH ZN, Heating, 0.00000, 0.00000, 0.00000, 2.85750, FORT MCMURRAY AP ANN HTG 99.6% CONDNS DB, , -36.20000, 1.25811E-004, 1875.00000, 375.13628, 2.85750, 0.00000
 Zone Sizing Information, SP-SPORTS ARENA PLAYING AREA CLASS III FACILITY(4)-SPACE FUNCTION SYS-6 FLR-1 SCH-B HPLCMT-EAST ZN, Cooling, 49394.00805, 54333.40886, 3.81811, 4.19993, FORT MCMURRAY AP ANN CLG .4% CONDNS DB=>MWB, 7/21 22:00:00, 20.46800, 8.76969E-003, 1875.00000, 375.13628, 2.85750, 0.00000
 Zone Sizing Information, SP-SPORTS ARENA PLAYING AREA CLASS III FACILITY(4)-SPACE FUNCTION SYS-6 FLR-1 SCH-B HPLCMT-EAST ZN, Heating, 0.00000, 0.00000, 0.00000, 2.85750, FORT MCMURRAY AP ANN HTG 99.6% CONDNS DB, , -36.20000, 1.25811E-004, 1875.00000, 375.13628, 2.85750, 0.00000
 Zone Sizing Information, SP-SPORTS ARENA PLAYING AREA CLASS IV FACILITY(4)-SPACE FUNCTION SYS-6 FLR-3 SCH-B HPLCMT-CORE ZN, Cooling, 62106.25120, 68316.87632, 4.80070, 5.28078, FORT MCMURRAY AP ANN CLG .4% CONDNS DB=>MWB, 7/21 20:00:00, 22.70000, 8.76969E-003, 2500.00000, 500.18171, 3.81000, 0.00000
 Zone Sizing Information, SP-SPORTS ARENA PLAYING AREA CLASS IV FACILITY(4)-SPACE FUNCTION SYS-6 FLR-3 SCH-B HPLCMT-CORE ZN, Heating, 0.00000, 0.00000, 0.00000, 3.81000, FORT MCMURRAY AP ANN HTG 99.6% CONDNS DB, , -36.20000, 1.25811E-004, 2500.00000, 500.18171, 3.81000, 0.00000
 Zone Sizing Information, SP-TRANSPORTATION FACILITY AIRPORT CONCOURSE-SPACE FUNCTION SYS-6 FLR-3 SCH-H HPLCMT-EAST ZN, Cooling, 37203.81296, 40924.19426, 2.87553, 7.71525, FORT MCMURRAY AP ANN CLG .4% CONDNS DB=>MWB, 7/21 09:40:00, 23.48533, 8.76969E-003, 1875.00000, 93.78407, 7.71525, 0.00000
 Zone Sizing Information, SP-TRANSPORTATION FACILITY AIRPORT CONCOURSE-SPACE FUNCTION SYS-6 FLR-3 SCH-H HPLCMT-EAST ZN, Heating, 12913.62914, 16787.71789, 0.51277, 7.71525, FORT MCMURRAY AP ANN HTG 99.6% CONDNS DB, 1/21 09:00:00, -36.20000, 1.25811E-004, 1875.00000, 93.78407, 7.71525, 0.00000
 Zone Sizing Information, SP-TRANSPORTATION FACILITY BAGGAGE/CAROUSEL AREA-SPACE FUNCTION SYS-6 FLR-1 SCH-H HPLCMT-CORE ZN, Cooling, 25181.05127, 27699.15639, 1.94618, 2.19710, FORT MCMURRAY AP ANN CLG .4% CONDNS DB=>MWB, 7/21 06:50:00, 17.47133, 8.76969E-003, 2500.00000, 125.04543, 2.19710, 0.00000
 Zone Sizing Information, SP-TRANSPORTATION FACILITY BAGGAGE/CAROUSEL AREA-SPACE FUNCTION SYS-6 FLR-1 SCH-H HPLCMT-CORE ZN, Heating, 0.00000, 0.00000, 0.00000, 2.19710, FORT MCMURRAY AP ANN HTG 99.6% CONDNS DB, , -36.20000, 1.25811E-004, 2500.00000, 125.04543, 2.19710, 0.00000
 Zone Sizing Information, SP-TRANSPORTATION FACILITY TERMINAL TICKET COUNTER-SPACE FUNCTION SYS-6 FLR-3 SCH-H HPLCMT-SOUTH ZN, Cooling, 50609.73461, 55670.70807, 3.91200, 4.30320, FORT MCMURRAY AP ANN CLG .4% CONDNS DB=>MWB, 7/21 14:10:00, 28.90000, 8.76969E-003, 1875.00000, 187.56814, 1.64783, 0.00000
 Zone Sizing Information, SP-TRANSPORTATION FACILITY TERMINAL TICKET COUNTER-SPACE FUNCTION SYS-6 FLR-3 SCH-H HPLCMT-SOUTH ZN, Heating, 0.00000, 0.00000, 0.00000, 1.64783, FORT MCMURRAY AP ANN HTG 99.6% CONDNS DB, , -36.20000, 1.25811E-004, 1875.00000, 187.56814, 1.64783, 0.00000
 Zone Sizing Information, SP-WAREHOUSE STORAGE AREA MEDIUM TO BULKY PALLETIZED ITEMS-SPACE FUNCTION SYS-4 FLR-2 SCH-A HPLCMT-CORE ZN, Cooling, 32308.39521, 35539.23473, 2.30185, 2.53203, FORT MCMURRAY AP ANN CLG .4% CONDNS DB=>MWB, 7/21 07:00:00, 17.61600, 8.76969E-003, 2500.00000, 25.00909, 0.76200, 0.00000
 Zone Sizing Information, SP-WAREHOUSE STORAGE AREA MEDIUM TO BULKY PALLETIZED ITEMS-SPACE FUNCTION SYS-4 FLR-2 SCH-A HPLCMT-CORE ZN, Heating, 0.00000, 0.00000, 0.00000, 0.76200, FORT MCMURRAY AP ANN HTG 99.6% CONDNS DB, , -36.20000, 1.25811E-004, 2500.00000, 25.00909, 0.76200, 0.00000
 Zone Sizing Information, SP-WAREHOUSE STORAGE AREA SMALL HAND-CARRIED ITEMS(4)-SPACE FUNCTION SYS-4 FLR-2 SCH-A HPLCMT-NORTH ZN, Cooling, 36593.48633, 40252.83496, 2.57634, 2.83397, FORT MCMURRAY AP ANN CLG .4% CONDNS DB=>MWB, 7/21 07:00:00, 17.61600, 8.76969E-003, 1875.00000, 37.51363, 0.57150, 0.00000
 Zone Sizing Information, SP-WAREHOUSE STORAGE AREA SMALL HAND-CARRIED ITEMS(4)-SPACE FUNCTION SYS-4 FLR-2 SCH-A HPLCMT-NORTH ZN, Heating, 0.00000, 0.00000, 0.00000, 0.57150, FORT MCMURRAY AP ANN HTG 99.6% CONDNS DB, , -36.20000, 1.25811E-004, 1875.00000, 37.51363, 0.57150, 0.00000
 Zone Sizing Information, SP-WHOLEBUILDING-AUTOMOTIVE FACILITY 1 SYS-4 FLR-4 SCH-E HPLCMT-SOUTH ZN, Cooling, 85923.44236, 94515.78660, 6.64107, 7.30518, FORT MCMURRAY AP ANN CLG .4% CONDNS DB=>MWB, 7/21 13:30:00, 28.59000, 8.76969E-003, 1875.00000, 93.78407, 2.15265, 0.00000
 Zone Sizing Information, SP-WHOLEBUILDING-AUTOMOTIVE FACILITY 1 SYS-4 FLR-4 SCH-E HPLCMT-SOUTH ZN, Heating, 40924.17044, 53201.42157, 1.62682, 2.15265, FORT MCMURRAY AP ANN HTG 99.6% CONDNS DB, 1/21 09:00:00, -36.20000, 1.25811E-004, 1875.00000, 93.78407, 2.15265, 0.00000
 Zone Sizing Information, SP-WHOLEBUILDING-AUTOMOTIVE FACILITY 2 SYS-4 FLR-2 SCH-E HPLCMT-SOUTH ZN, Cooling, 45021.53249, 49523.68574, 3.47976, 3.82774, FORT MCMURRAY AP ANN CLG .4% CONDNS DB=>MWB, 7/21 13:50:00, 28.79667, 8.76969E-003, 1875.00000, 93.78407, 2.15265, 0.00000
 Zone Sizing Information, SP-WHOLEBUILDING-AUTOMOTIVE FACILITY 2 SYS-4 FLR-2 SCH-E HPLCMT-SOUTH ZN, Heating, 0.00000, 0.00000, 0.00000, 2.15265, FORT MCMURRAY AP ANN HTG 99.6% CONDNS DB, , -36.20000, 1.25811E-004, 1875.00000, 93.78407, 2.15265, 0.00000
 Zone Sizing Information, SP-WHOLEBUILDING-AUTOMOTIVE FACILITY SYS-4 FLR-2 SCH-E HPLCMT-EAST ZN, Cooling, 47790.14940, 52569.16434, 3.35364, 3.68901, FORT MCMURRAY AP ANN CLG .4% CONDNS DB=>MWB, 7/21 08:00:00, 19.72400, 8.76969E-003, 1875.00000, 93.78407, 2.15265, 0.00000
 Zone Sizing Information, SP-WHOLEBUILDING-AUTOMOTIVE FACILITY SYS-4 FLR-2 SCH-E HPLCMT-EAST ZN, Heating, 2158.61693, 2806.20201, 8.53256E-002, 2.15265, FORT MCMURRAY AP ANN HTG 99.6% CONDNS DB, 1/21 08:10:00, -36.20000, 1.25811E-004, 1875.00000, 93.78407, 2.15265, 0.00000
! <System Sizing Information>, System Name, Load Type, Peak Load Kind, User Design Capacity, Calc Des Air Flow Rate [m3/s], User Des Air Flow Rate [m3/s], Design Day Name, Date/Time of Peak
 System Sizing Information, SYS_2_MAKE-UP AIR UNIT, Cooling, Sensible, 106508.96, 7.39906, 7.39906, FORT MCMURRAY AP ANN CLG .4% CONDNS DB=>MWB, 7/21 00:00:00
 System Sizing Information, SYS_2_MAKE-UP AIR UNIT, Heating, Sensible, 123270.08, 2.15900, 2.15900, FORT MCMURRAY AP ANN HTG 99.6% CONDNS DB, 1/21 00:10:00
 System Sizing Information, SYS_3_PSZ SP-RELIGIOUS BUILDING FELLOWSHIP HALL-SPACE FUNCTION SYS-3 FLR-4 SCH-C HPLCMT-NORTH ZN, Cooling, Sensible, 115009.18, 6.28650, 6.28650, FORT MCMURRAY AP ANN CLG .4% CONDNS DB=>MWB, 7/21 05:00:00
 System Sizing Information, SYS_3_PSZ SP-RELIGIOUS BUILDING FELLOWSHIP HALL-SPACE FUNCTION SYS-3 FLR-4 SCH-C HPLCMT-NORTH ZN, Heating, Sensible, 576623.34, 6.28650, 6.28650, FORT MCMURRAY AP ANN HTG 99.6% CONDNS DB, 1/21 00:10:00
 System Sizing Information, SYS_3_PSZ SP-RELIGIOUS BUILDING WORSHIP/PULPIT/CHOIR AREA-SPACE FUNCTION SYS-3 FLR-3 SCH-I HPLCMT-NORTH ZN, Cooling, Sensible, 69267.61, 6.28650, 6.28650, FORT MCMURRAY AP ANN CLG .4% CONDNS DB=>MWB, 7/21 05:00:00
 System Sizing Information, SYS_3_PSZ SP-RELIGIOUS BUILDING WORSHIP/PULPIT/CHOIR AREA-SPACE FUNCTION SYS-3 FLR-3 SCH-I HPLCMT-NORTH ZN, Heating, Sensible, 576623.34, 6.28650, 6.28650, FORT MCMURRAY AP ANN HTG 99.6% CONDNS DB, 1/21 00:10:00
 System Sizing Information, SYS_3_PSZ SP-SPACE DESIGNED TO ANSI/IES RP-28 CHAPEL (USED PRIMARILY BY RESIDENTS)-SPACE FUNCTION SYS-3 FLR-1 SCH-I HPLCMT-WEST ZN, Cooling, Sensible, 54371.50, 6.28650, 6.28650, FORT MCMURRAY AP ANN CLG .4% CONDNS DB=>MWB, 7/21 05:00:00
 System Sizing Information, SYS_3_PSZ SP-SPACE DESIGNED TO ANSI/IES RP-28 CHAPEL (USED PRIMARILY BY RESIDENTS)-SPACE FUNCTION SYS-3 FLR-1 SCH-I HPLCMT-WEST ZN, Heating, Sensible, 576623.34, 6.28650, 6.28650, FORT MCMURRAY AP ANN HTG 99.6% CONDNS DB, 1/21 00:10:00
 System Sizing Information, SYS_3_PSZ SP-SPACE DESIGNED TO ANSI/IES RP-28 RECREATION ROOM (USED PRIMARILY BY RESIDENTS)-SPACE FUNCTION SYS-3 FLR-2 SCH-B HPLCMT-WEST ZN, Cooling, Sensible, 90337.66, 6.85800, 6.85800, FORT MCMURRAY AP ANN CLG .4% CONDNS DB=>MWB, 7/21 05:00:00
 System Sizing Information, SYS_3_PSZ SP-SPACE DESIGNED TO ANSI/IES RP-28 RECREATION ROOM (USED PRIMARILY BY RESIDENTS)-SPACE FUNCTION SYS-3 FLR-2 SCH-B HPLCMT-WEST ZN, Heating, Sensible, 629043.65, 6.85800, 6.85800, FORT MCMURRAY AP ANN HTG 99.6% CONDNS DB, 1/21 00:10:00
 System Sizing Information, SYS_4_PSZ_SP-WAREHOUSE STORAGE AREA MEDIUM TO BULKY PALLETIZED ITEMS-SPACE FUNCTION SYS-4 FLR-2 SCH-A HPLCMT-CORE ZN, Cooling, Sensible, 26332.78, 2.53203, 2.53203, FORT MCMURRAY AP ANN CLG .4% CONDNS DB=>MWB, 7/21 05:00:00
 System Sizing Information, SYS_4_PSZ_SP-WAREHOUSE STORAGE AREA MEDIUM TO BULKY PALLETIZED ITEMS-SPACE FUNCTION SYS-4 FLR-2 SCH-A HPLCMT-CORE ZN, Heating, Sensible, 69893.74, 0.76200, 0.76200, FORT MCMURRAY AP ANN HTG 99.6% CONDNS DB, 1/21 00:10:00
 System Sizing Information, SYS_4_PSZ_SP-WAREHOUSE STORAGE AREA SMALL HAND-CARRIED ITEMS(4)-SPACE FUNCTION SYS-4 FLR-2 SCH-A HPLCMT-NORTH ZN, Cooling, Sensible, 31580.08, 2.83397, 2.83397, FORT MCMURRAY AP ANN CLG .4% CONDNS DB=>MWB, 7/21 05:00:00
 System Sizing Information, SYS_4_PSZ_SP-WAREHOUSE STORAGE AREA SMALL HAND-CARRIED ITEMS(4)-SPACE FUNCTION SYS-4 FLR-2 SCH-A HPLCMT-NORTH ZN, Heating, Sensible, 52420.30, 0.57150, 0.57150, FORT MCMURRAY AP ANN HTG 99.6% CONDNS DB, 1/21 00:10:00
 System Sizing Information, SYS_4_PSZ_SP-WHOLEBUILDING-AUTOMOTIVE FACILITY 1 SYS-4 FLR-4 SCH-E HPLCMT-SOUTH ZN, Cooling, Sensible, 104500.24, 7.30518, 7.30518, FORT MCMURRAY AP ANN CLG .4% CONDNS DB=>MWB, 7/21 05:00:00
 System Sizing Information, SYS_4_PSZ_SP-WHOLEBUILDING-AUTOMOTIVE FACILITY 1 SYS-4 FLR-4 SCH-E HPLCMT-SOUTH ZN, Heating, Sensible, 197449.81, 2.15265, 2.15265, FORT MCMURRAY AP ANN HTG 99.6% CONDNS DB, 1/21 00:10:00
 System Sizing Information, SYS_4_PSZ_SP-WHOLEBUILDING-AUTOMOTIVE FACILITY 2 SYS-4 FLR-2 SCH-E HPLCMT-SOUTH ZN, Cooling, Sensible, 60719.27, 3.82774, 3.82774, FORT MCMURRAY AP ANN CLG .4% CONDNS DB=>MWB, 7/21 05:00:00
 System Sizing Information, SYS_4_PSZ_SP-WHOLEBUILDING-AUTOMOTIVE FACILITY 2 SYS-4 FLR-2 SCH-E HPLCMT-SOUTH ZN, Heating, Sensible, 197449.81, 2.15265, 2.15265, FORT MCMURRAY AP ANN HTG 99.6% CONDNS DB, 1/21 00:10:00
 System Sizing Information, SYS_4_PSZ_SP-WHOLEBUILDING-AUTOMOTIVE FACILITY SYS-4 FLR-2 SCH-E HPLCMT-EAST ZN, Cooling, Sensible, 36235.26, 3.68901, 3.68901, FORT MCMURRAY AP ANN CLG .4% CONDNS DB=>MWB, 7/21 05:00:00
 System Sizing Information, SYS_4_PSZ_SP-WHOLEBUILDING-AUTOMOTIVE FACILITY SYS-4 FLR-2 SCH-E HPLCMT-EAST ZN, Heating, Sensible, 197449.81, 2.15265, 2.15265, FORT MCMURRAY AP ANN HTG 99.6% CONDNS DB, 1/21 00:10:00
 System Sizing Information, SYS_6_VAV WITH REHEAT, Cooling, Sensible, 171896.80, 17.32464, 17.32464, FORT MCMURRAY AP ANN CLG .4% CONDNS DB=>MWB, 7/21 00:00:00
 System Sizing Information, SYS_6_VAV WITH REHEAT, Heating, Sensible, 614900.17, 10.76960, 10.76960, FORT MCMURRAY AP ANN HTG 99.6% CONDNS DB, 1/21 00:10:00
 System Sizing Information, SYS_6_VAV WITH REHEAT 1, Cooling, Sensible, 291860.99, 21.70370, 21.70370, FORT MCMURRAY AP ANN CLG .4% CONDNS DB=>MWB, 7/21 00:00:00
 System Sizing Information, SYS_6_VAV WITH REHEAT 1, Heating, Sensible, 878843.16, 15.39240, 15.39240, FORT MCMURRAY AP ANN HTG 99.6% CONDNS DB, 1/21 00:10:00
 System Sizing Information, SYS_6_VAV WITH REHEAT 2, Cooling, Sensible, 186673.47, 13.47390, 13.47390, FORT MCMURRAY AP ANN CLG .4% CONDNS DB=>MWB, 7/21 00:00:00
 System Sizing Information, SYS_6_VAV WITH REHEAT 2, Heating, Sensible, 282201.84, 5.83510, 5.83510, FORT MCMURRAY AP ANN HTG 99.6% CONDNS DB, 1/21 00:10:00
! <Component Sizing Information>, Component Type, Component Name, Input Field Description, Value
 Component Sizing Information, ZoneHVAC:FourPipeFanCoil, ZONE HVAC FOUR PIPE FAN COIL 1, Design Size Maximum Supply Air Flow Rate [m3/s], 7.39906
 Component Sizing Information, Fan:ConstantVolume, FAN CONSTANT VOLUME 2, Design Size Maximum Flow Rate [m3/s], 7.39906
 Component Sizing Information, ZoneHVAC:FourPipeFanCoil, ZONE HVAC FOUR PIPE FAN COIL 1, Design Size Maximum Outdoor Air Flow Rate [m3/s], 2.15900
 Component Sizing Information, ZoneHVAC:FourPipeFanCoil, ZONE HVAC FOUR PIPE FAN COIL 1, Design Size Maximum Hot Water Flow [m3/s], 2.75561E-003
 Component Sizing Information, ZoneHVAC:FourPipeFanCoil, ZONE HVAC FOUR PIPE FAN COIL 1, Design Size Maximum Cold Water Flow [m3/s], 4.47520E-003
 Component Sizing Information, Coil:Cooling:Water, COIL COOLING WATER 1, Design Size Design Water Flow Rate [m3/s], 4.47520E-003
 Component Sizing Information, Coil:Cooling:Water, COIL COOLING WATER 1, Design Size Design Air Flow Rate [m3/s], 7.39906
 Component Sizing Information, Coil:Cooling:Water, COIL COOLING WATER 1, User-Specified Design Air Flow Rate [m3/s], 7.39906
 Component Sizing Information, Coil:Cooling:Water, COIL COOLING WATER 1, Design Size Design Inlet Air Temperature [C], 25.42915
 Component Sizing Information, Coil:Cooling:Water, COIL COOLING WATER 1, Design Size Design Inlet Water Temperature [C], 7.00000
 Component Sizing Information, Coil:Cooling:Water, COIL COOLING WATER 1, Design Size Design Inlet Air Humidity Ratio, 8.78359E-003
 Component Sizing Information, Coil:Cooling:Water, COIL COOLING WATER 1, Design Size Design Outlet Air Temperature [C], 13.00000
 Component Sizing Information, Coil:Cooling:Water, COIL COOLING WATER 1, Design Size Design Outlet Air Humidity Ratio, 8.50000E-003
! <Water Cooling Coil Capacity Information>,Component Type,Name,Nominal Total Capacity {W},Nominal Sensible Capacity {W},Nominal Latent Capacity {W},Nominal Sensible Heat Ratio, Nominal Coil UA Value {W/C}, Nominal Coil Surface Area {m2}
Water Cooling Coil Capacity Information,Coil:Cooling:Water,COIL COOLING WATER 1,153900.61,110877.19,43023.43,0.72,16495.51,167.31
 Component Sizing Information, Coil:Heating:Water, COIL HEATING WATER 1, Design Size Rated Capacity [W], 184496.84997
 Component Sizing Information, Coil:Heating:Water, COIL HEATING WATER 1, Design Size Maximum Water Flow Rate [m3/s], 2.75561E-003
 Component Sizing Information, Coil:Heating:Water, COIL HEATING WATER 1, Design Size U-Factor Times Area Value [W/K], 2664.01260
! <Water Heating Coil Capacity Information>,Component Type,Name,Nominal Total Capacity {W}
Water Heating Coil Capacity Information,Coil:Heating:Water,COIL HEATING WATER 1,101230.30
 Component Sizing Information, AirTerminal:SingleDuct:Uncontrolled, AIR TERMINAL SINGLE DUCT UNCONTROLLED 1, Design Size Maximum Air Flow Rate [m3/s], 7.39906
 Component Sizing Information, AirTerminal:SingleDuct:VAV:Reheat, AIR TERMINAL SINGLE DUCT VAV REHEAT 9, Design Size Maximum Air Flow Rate [m3/s], 6.72527
 Component Sizing Information, AirTerminal:SingleDuct:VAV:Reheat, AIR TERMINAL SINGLE DUCT VAV REHEAT 9, Design Size Constant Minimum Air Flow Fraction, 0.21244
 Component Sizing Information, AirTerminal:SingleDuct:VAV:Reheat, AIR TERMINAL SINGLE DUCT VAV REHEAT 9, User-Specified Constant Minimum Air Flow Fraction, 0.30000
 Component Sizing Information, AirTerminal:SingleDuct:VAV:Reheat, AIR TERMINAL SINGLE DUCT VAV REHEAT 9, Design Size Minimum Air Flow Rate [m3/s], 2.01758
 Component Sizing Information, AirTerminal:SingleDuct:VAV:Reheat, AIR TERMINAL SINGLE DUCT VAV REHEAT 9, Design Size Maximum Flow per Zone Floor Area during Reheat [m3/s-m2], 1.07604E-003
 Component Sizing Information, AirTerminal:SingleDuct:VAV:Reheat, AIR TERMINAL SINGLE DUCT VAV REHEAT 9, Design Size Maximum Flow Fraction during Reheat [], 0.30000
 Component Sizing Information, AirTerminal:SingleDuct:VAV:Reheat, AIR TERMINAL SINGLE DUCT VAV REHEAT 9, Design Size Maximum Reheat Water Flow Rate [m3/s], 1.29901E-003
 Component Sizing Information, AirTerminal:SingleDuct:VAV:Reheat, AIR TERMINAL SINGLE DUCT VAV REHEAT 9, Design Size Reheat Coil Sizing Air Volume Flow Rate [m3/s], 2.40610
 Component Sizing Information, AirTerminal:SingleDuct:VAV:Reheat, AIR TERMINAL SINGLE DUCT VAV REHEAT 9, Design Size Reheat Coil Sizing Inlet Air Temperature [C], 13.10000
 Component Sizing Information, AirTerminal:SingleDuct:VAV:Reheat, AIR TERMINAL SINGLE DUCT VAV REHEAT 9, Design Size Reheat Coil Sizing Inlet Air Humidity Ratio [kgWater/kgDryAir], 8.00000E-003
 Component Sizing Information, Coil:Heating:Water, COIL HEATING WATER 13, Design Size Rated Capacity [W], 86972.76272
 Component Sizing Information, Coil:Heating:Water, COIL HEATING WATER 13, Design Size Maximum Water Flow Rate [m3/s], 1.29901E-003
 Component Sizing Information, Coil:Heating:Water, COIL HEATING WATER 13, Design Size U-Factor Times Area Value [W/K], 1982.53066
Water Heating Coil Capacity Information,Coil:Heating:Water,COIL HEATING WATER 13,77941.63
 Component Sizing Information, ZoneHVAC:Baseboard:Convective:Water, ZONE HVAC BASEBOARD CONVECTIVE WATER 18, Design Size Maximum Water Flow Rate [m3/s], 9.01913E-004
 Component Sizing Information, ZoneHVAC:Baseboard:Convective:Water, ZONE HVAC BASEBOARD CONVECTIVE WATER 18, Design Size U-Factor Times Area Value [W/K], 1840.94212
 Component Sizing Information, AirTerminal:SingleDuct:Uncontrolled, AIR TERMINAL SINGLE DUCT UNCONTROLLED 5, Design Size Maximum Air Flow Rate [m3/s], 6.28650
 Component Sizing Information, ZoneHVAC:Baseboard:Convective:Water, ZONE HVAC BASEBOARD CONVECTIVE WATER 4, Design Size Maximum Water Flow Rate [m3/s], 9.07523E-004
 Component Sizing Information, ZoneHVAC:Baseboard:Convective:Water, ZONE HVAC BASEBOARD CONVECTIVE WATER 4, Design Size U-Factor Times Area Value [W/K], 1852.12733
 Component Sizing Information, AirTerminal:SingleDuct:Uncontrolled, AIR TERMINAL SINGLE DUCT UNCONTROLLED 4, Design Size Maximum Air Flow Rate [m3/s], 6.28650
[...]
 Component Sizing Information, Controller:WaterCoil, CONTROLLER WATER COIL 3, Maximum Actuated Flow [m3/s], 4.43220E-003
 Component Sizing Information, Fan:VariableVolume, SYS6 RETURN FAN 1, Design Size Maximum Flow Rate [m3/s], 21.70370
 Component Sizing Information, Controller:OutdoorAir, CONTROLLER OUTDOOR AIR 12, Maximum Outdoor Air Flow Rate [m3/s], 21.70370
 Component Sizing Information, Controller:OutdoorAir, CONTROLLER OUTDOOR AIR 12, Minimum Outdoor Air Flow Rate [m3/s], 15.39240
 Component Sizing Information, HeatExchanger:AirToAir:SensibleAndLatent, SYS_6_VAV WITH REHEAT 1 ERV, Design Size Nominal Supply Air Flow Rate [m3/s], 15.39240
 Component Sizing Information, Coil:Cooling:Water, COIL COOLING WATER 3, Design Size Design Coil Load [W], 368796.80638
 Component Sizing Information, Coil:Cooling:Water, COIL COOLING WATER 3, Design Size Design Water Flow Rate [m3/s], 1.46433E-002
 Component Sizing Information, Coil:Cooling:Water, COIL COOLING WATER 3, Design Size Design Air Flow Rate [m3/s], 21.70370
 Component Sizing Information, Coil:Cooling:Water, COIL COOLING WATER 3, Design Size Design Inlet Air Temperature [C], 24.61139
 Component Sizing Information, Coil:Cooling:Water, COIL COOLING WATER 3, Design Size Design Inlet Water Temperature [C], 7.00000
 Component Sizing Information, Coil:Cooling:Water, COIL COOLING WATER 3, Design Size Design Outlet Air Temperature [C], 13.00000
 Component Sizing Information, Coil:Cooling:Water, COIL COOLING WATER 3, Design Size Design Inlet Air Humidity Ratio, 8.93370E-003
 Component Sizing Information, Coil:Cooling:Water, COIL COOLING WATER 3, Design Size Design Outlet Air Humidity Ratio, 8.76847E-003
Water Cooling Coil Capacity Information,Coil:Cooling:Water,COIL COOLING WATER 3,483028.46,340568.34,142460.12,0.71,53100.31,538.57
 Component Sizing Information, Coil:Heating:Water, COIL HEATING WATER 7, Design Size Rated Capacity [W], 371757.71511
 Component Sizing Information, Coil:Heating:Water, COIL HEATING WATER 7, Design Size Maximum Water Flow Rate [m3/s], 5.55250E-003
 Component Sizing Information, Coil:Heating:Water, COIL HEATING WATER 7, Design Size U-Factor Times Area Value [W/K], 4536.53419
Water Heating Coil Capacity Information,Coil:Heating:Water,COIL HEATING WATER 7,207126.57
 Component Sizing Information, Fan:VariableVolume, SYS6 SUPPLY FAN 1, Design Size Maximum Flow Rate [m3/s], 21.70370
 Component Sizing Information, Controller:WaterCoil, CONTROLLER WATER COIL 10, Maximum Actuated Flow [m3/s], 1.46433E-002
 Component Sizing Information, Controller:WaterCoil, CONTROLLER WATER COIL 10, Controller Convergence Tolerance, 3.25194E-005
 Component Sizing Information, Controller:WaterCoil, CONTROLLER WATER COIL 9, Maximum Actuated Flow [m3/s], 5.55250E-003
 Component Sizing Information, Fan:VariableVolume, SYS6 RETURN FAN 2, Design Size Maximum Flow Rate [m3/s], 13.47390
 Component Sizing Information, Controller:OutdoorAir, CONTROLLER OUTDOOR AIR 13, Maximum Outdoor Air Flow Rate [m3/s], 13.47390
 Component Sizing Information, Controller:OutdoorAir, CONTROLLER OUTDOOR AIR 13, Minimum Outdoor Air Flow Rate [m3/s], 5.07683
 Component Sizing Information, HeatExchanger:AirToAir:SensibleAndLatent, SYS_6_VAV WITH REHEAT 2 ERV, Design Size Nominal Supply Air Flow Rate [m3/s], 5.07683
 Component Sizing Information, Coil:Cooling:Water, COIL COOLING WATER 4, Design Size Design Coil Load [W], 231238.68687
 Component Sizing Information, Coil:Cooling:Water, COIL COOLING WATER 4, Design Size Design Water Flow Rate [m3/s], 9.18145E-003
 Component Sizing Information, Coil:Cooling:Water, COIL COOLING WATER 4, Design Size Design Air Flow Rate [m3/s], 13.47390
 Component Sizing Information, Coil:Cooling:Water, COIL COOLING WATER 4, Design Size Design Inlet Air Temperature [C], 24.96275
 Component Sizing Information, Coil:Cooling:Water, COIL COOLING WATER 4, Design Size Design Inlet Water Temperature [C], 7.00000
 Component Sizing Information, Coil:Cooling:Water, COIL COOLING WATER 4, Design Size Design Outlet Air Temperature [C], 13.00000
 Component Sizing Information, Coil:Cooling:Water, COIL COOLING WATER 4, Design Size Design Inlet Air Humidity Ratio, 8.75622E-003
 Component Sizing Information, Coil:Cooling:Water, COIL COOLING WATER 4, Design Size Design Outlet Air Humidity Ratio, 8.75622E-003
Water Cooling Coil Capacity Information,Coil:Cooling:Water,COIL COOLING WATER 4,303872.04,213517.65,90354.39,0.70,33926.04,344.10
 Component Sizing Information, Coil:Heating:Water, COIL HEATING WATER 12, Design Size Rated Capacity [W], 230791.40832
 Component Sizing Information, Coil:Heating:Water, COIL HEATING WATER 12, Design Size Maximum Water Flow Rate [m3/s], 3.44706E-003
 Component Sizing Information, Coil:Heating:Water, COIL HEATING WATER 12, Design Size U-Factor Times Area Value [W/K], 2816.33190
Water Heating Coil Capacity Information,Coil:Heating:Water,COIL HEATING WATER 12,128586.52
 Component Sizing Information, Fan:VariableVolume, SYS6 SUPPLY FAN 2, Design Size Maximum Flow Rate [m3/s], 13.47390
 Component Sizing Information, Controller:WaterCoil, CONTROLLER WATER COIL 16, Maximum Actuated Flow [m3/s], 9.18145E-003
 Component Sizing Information, Controller:WaterCoil, CONTROLLER WATER COIL 16, Controller Convergence Tolerance, 5.18644E-005
 Component Sizing Information, Controller:WaterCoil, CONTROLLER WATER COIL 15, Maximum Actuated Flow [m3/s], 3.44706E-003
Water Heater Information,WaterHeater:Mixed,857GAL NATURALGAS WATER HEATER - 2056KBTU/HR 0.802 THERM EFF,3.2442,602514.3,0.213,0.2103
 Component Sizing Information, PlantLoop, CHILLED WATER LOOP, Maximum Loop Flow Rate [m3/s], 4.47520E-003
 Component Sizing Information, PlantLoop, CHILLED WATER LOOP, Plant Loop Volume [m3], 0.53702
 Component Sizing Information, Pump:ConstantSpeed, PUMP CONSTANT SPEED 1, Design Flow Rate [m3/s], 4.47520E-003
 Component Sizing Information, Pump:ConstantSpeed, PUMP CONSTANT SPEED 1, Design Power Consumption [W], 1571.33184
 Component Sizing Information, Chiller:Electric:EIR, PRIMARY CHILLER WATERCOOLED SCROLL 32TONS 0.8KW/TON, Design Size Reference Chilled Water Flow Rate [m3/s], 4.47520E-003
 Component Sizing Information, Chiller:Electric:EIR, PRIMARY CHILLER WATERCOOLED SCROLL 32TONS 0.8KW/TON, Design Size Reference Capacity [W], 112707.93288
 Component Sizing Information, Chiller:Electric:EIR, PRIMARY CHILLER WATERCOOLED SCROLL 32TONS 0.8KW/TON, User-Specified Reference Capacity [W], 112707.93288
 Component Sizing Information, Chiller:Electric:EIR, PRIMARY CHILLER WATERCOOLED SCROLL 32TONS 0.8KW/TON, Design Size Reference Condenser Fluid Flow Rate [m3/s], 5.49260E-003
! <Chiller Standard Rating Information>, Component Type, Component Name, IPLV in SI Units {W/W}, IPLV in IP Units {Btu/W-h}
 Chiller Standard Rating Information, Chiller:Electric:EIR, PRIMARY CHILLER WATERCOOLED SCROLL 32TONS 0.8KW/TON, 5.61, 19.14
 Component Sizing Information, Chiller:Electric:EIR, SECONDARY CHILLER WATERCOOLED SCROLL 0TONS 0.8KW/TON, Design Size Reference Chilled Water Flow Rate [m3/s], 4.47520E-003
 Component Sizing Information, Chiller:Electric:EIR, SECONDARY CHILLER WATERCOOLED SCROLL 0TONS 0.8KW/TON, Design Size Reference Capacity [W], 112707.93288
 Component Sizing Information, Chiller:Electric:EIR, SECONDARY CHILLER WATERCOOLED SCROLL 0TONS 0.8KW/TON, User-Specified Reference Capacity [W], 1.00000E-003
 Component Sizing Information, Chiller:Electric:EIR, SECONDARY CHILLER WATERCOOLED SCROLL 0TONS 0.8KW/TON, Design Size Reference Condenser Fluid Flow Rate [m3/s], 4.87330E-011
 Chiller Standard Rating Information, Chiller:Electric:EIR, SECONDARY CHILLER WATERCOOLED SCROLL 0TONS 0.8KW/TON, 5.61, 19.14
 Component Sizing Information, PlantLoop, CHILLED WATER LOOP 1, Maximum Loop Flow Rate [m3/s], 3.36626E-002
 Component Sizing Information, PlantLoop, CHILLED WATER LOOP 1, Plant Loop Volume [m3], 4.03951
 Component Sizing Information, Pump:ConstantSpeed, PUMP CONSTANT SPEED 3, Design Flow Rate [m3/s], 3.36626E-002
 Component Sizing Information, Pump:ConstantSpeed, PUMP CONSTANT SPEED 3, Design Power Consumption [W], 11819.59881
 Component Sizing Information, Chiller:Electric:EIR, PRIMARY CHILLER WATERCOOLED SCROLL 1 244TONS 0.7KW/TON, Design Size Reference Chilled Water Flow Rate [m3/s], 3.36626E-002
 Component Sizing Information, Chiller:Electric:EIR, PRIMARY CHILLER WATERCOOLED SCROLL 1 244TONS 0.7KW/TON, Design Size Reference Capacity [W], 847792.01888
 Component Sizing Information, Chiller:Electric:EIR, PRIMARY CHILLER WATERCOOLED SCROLL 1 244TONS 0.7KW/TON, User-Specified Reference Capacity [W], 858780.41207
 Component Sizing Information, Chiller:Electric:EIR, PRIMARY CHILLER WATERCOOLED SCROLL 1 244TONS 0.7KW/TON, Design Size Reference Condenser Fluid Flow Rate [m3/s], 4.08578E-002
 Chiller Standard Rating Information, Chiller:Electric:EIR, PRIMARY CHILLER WATERCOOLED SCROLL 1 244TONS 0.7KW/TON, 6.45, 22.01
 Component Sizing Information, Chiller:Electric:EIR, SECONDARY CHILLER WATERCOOLED SCROLL 1 0TONS 0.8KW/TON, Design Size Reference Chilled Water Flow Rate [m3/s], 3.36626E-002
 Component Sizing Information, Chiller:Electric:EIR, SECONDARY CHILLER WATERCOOLED SCROLL 1 0TONS 0.8KW/TON, Design Size Reference Capacity [W], 847792.01888
 Component Sizing Information, Chiller:Electric:EIR, SECONDARY CHILLER WATERCOOLED SCROLL 1 0TONS 0.8KW/TON, User-Specified Reference Capacity [W], 1.00000E-003
 Component Sizing Information, Chiller:Electric:EIR, SECONDARY CHILLER WATERCOOLED SCROLL 1 0TONS 0.8KW/TON, Design Size Reference Condenser Fluid Flow Rate [m3/s], 4.87330E-011
 Chiller Standard Rating Information, Chiller:Electric:EIR, SECONDARY CHILLER WATERCOOLED SCROLL 1 0TONS 0.8KW/TON, 5.61, 19.14
 Component Sizing Information, PlantLoop, CONDENSER WATER LOOP, Maximum Loop Flow Rate [m3/s], 5.49260E-003
 Component Sizing Information, PlantLoop, CONDENSER WATER LOOP, Plant Loop Volume [m3], 0.65911
 Component Sizing Information, Pump:ConstantSpeed, PUMP CONSTANT SPEED 2, Design Flow Rate [m3/s], 5.49260E-003
 Component Sizing Information, Pump:ConstantSpeed, PUMP CONSTANT SPEED 2, Design Power Consumption [W], 1653.05213
 Component Sizing Information, CoolingTower:SingleSpeed, COOLING TOWER SINGLE SPEED 1, Design Water Flow Rate [m3/s], 5.49260E-003
 Component Sizing Information, CoolingTower:SingleSpeed, COOLING TOWER SINGLE SPEED 1, Fan Power at Design Air Flow Rate [W], 1205.16989
 Component Sizing Information, CoolingTower:SingleSpeed, COOLING TOWER SINGLE SPEED 1, Design Air Flow Rate [m3/s], 3.31398
 Component Sizing Information, CoolingTower:SingleSpeed, COOLING TOWER SINGLE SPEED 1, U-Factor Times Area Value at Design Air Flow Rate [W/C], 5917.87603
 Component Sizing Information, CoolingTower:SingleSpeed, COOLING TOWER SINGLE SPEED 1, Free Convection Regime Air Flow Rate [m3/s], 0.33140
 Component Sizing Information, CoolingTower:SingleSpeed, COOLING TOWER SINGLE SPEED 1, Free Convection U-Factor Times Area Value [W/K], 591.78760
 Component Sizing Information, PlantLoop, CONDENSER WATER LOOP 1, Maximum Loop Flow Rate [m3/s], 4.08578E-002
 Component Sizing Information, PlantLoop, CONDENSER WATER LOOP 1, Plant Loop Volume [m3], 4.90293
 Component Sizing Information, Pump:ConstantSpeed, PUMP CONSTANT SPEED 4, Design Flow Rate [m3/s], 4.08578E-002
 Component Sizing Information, Pump:ConstantSpeed, PUMP CONSTANT SPEED 4, Design Power Consumption [W], 12296.54898
 Component Sizing Information, CoolingTower:SingleSpeed, COOLING TOWER SINGLE SPEED 2, Design Water Flow Rate [m3/s], 4.08578E-002
 Component Sizing Information, CoolingTower:SingleSpeed, COOLING TOWER SINGLE SPEED 2, Design Air Flow Rate [m3/s], 36.62601
 Component Sizing Information, CoolingTower:SingleSpeed, COOLING TOWER SINGLE SPEED 2, U-Factor Times Area Value at Design Air Flow Rate [W/C], 37115.21931
 Component Sizing Information, CoolingTower:SingleSpeed, COOLING TOWER SINGLE SPEED 2, Free Convection Regime Air Flow Rate [m3/s], 3.66260
 Component Sizing Information, CoolingTower:SingleSpeed, COOLING TOWER SINGLE SPEED 2, Free Convection U-Factor Times Area Value [W/K], 3711.52193
 Component Sizing Information, PlantLoop, HOT WATER LOOP, Maximum Loop Flow Rate [m3/s], 2.58333E-002
 Component Sizing Information, PlantLoop, HOT WATER LOOP, Plant Loop Volume [m3], 3.10000
 Component Sizing Information, Pump:VariableSpeed, PUMP VARIABLE SPEED 1, Design Flow Rate [m3/s], 2.58333E-002
 Component Sizing Information, Pump:VariableSpeed, PUMP VARIABLE SPEED 1, Design Power Consumption [W], 7774.79284
 Component Sizing Information, Boiler:HotWater, PRIMARY BOILER 5925KBTU/HR 0.833 COMBUSTION EFF, Design Size Nominal Capacity [W], 1736317.24574
 Component Sizing Information, Boiler:HotWater, PRIMARY BOILER 5925KBTU/HR 0.833 COMBUSTION EFF, User-Specified Nominal Capacity [W], 1736317.24574
 Component Sizing Information, Boiler:HotWater, PRIMARY BOILER 5925KBTU/HR 0.833 COMBUSTION EFF, Design Size Design Water Flow Rate [m3/s], 2.58333E-002
 Component Sizing Information, Boiler:HotWater, SECONDARY BOILER 0KBTU/HR 0.85 AFUE, Design Size Nominal Capacity [W], 1736317.24574
 Component Sizing Information, Boiler:HotWater, SECONDARY BOILER 0KBTU/HR 0.85 AFUE, User-Specified Nominal Capacity [W], 1.00000E-003
 Component Sizing Information, Boiler:HotWater, SECONDARY BOILER 0KBTU/HR 0.85 AFUE, Design Size Design Water Flow Rate [m3/s], 2.58333E-002
 Component Sizing Information, PlantLoop, MAIN SERVICE WATER LOOP, Maximum Loop Flow Rate [m3/s], 1.25395E-003
 Component Sizing Information, PlantLoop, MAIN SERVICE WATER LOOP, Plant Loop Volume [m3], 0.15047
 Component Sizing Information, Pump:ConstantSpeed, SERVICE WATER LOOP PUMP, Design Flow Rate [m3/s], 1.25395E-003
 Component Sizing Information, Pump:ConstantSpeed, SERVICE WATER LOOP PUMP, Design Power Consumption [W], 1653.61255
 Component Sizing Information, WaterHeater:Mixed, 857GAL NATURALGAS WATER HEATER - 2056KBTU/HR 0.802 THERM EFF, Use Side Design Flow Rate [m3/s], 1.25395E-003
! <Environment>,Environment Name,Environment Type, Start Date, End Date, Start DayOfWeek, Duration {#days}, Source:Start DayOfWeek,  Use Daylight Saving, Use Holidays, Apply Weekend Holiday Rule,  Use Rain Values, Use Snow Values
! <Environment:Special Days>, Special Day Name, Special Day Type, Source, Start Date, Duration {#days}
! <Environment:Daylight Saving>, Daylight Saving Indicator, Source, Start Date, End Date
! <Environment:WarmupDays>, NumberofWarmupDays
Environment,RUN PERIOD 1,WeatherFileRunPeriod,01/01,12/31,Sunday,365,Use RunPeriod Specified Day,No,No,No,Yes,Yes
Environment:Daylight Saving,No,RunPeriod Object
Environment:WarmupDays, 25
! <Tabular Report>,Style,Unit Conversion
Tabular Report,HTML,None
! <Warmup Convergence Information>,Zone Name,Environment Type/Name,Average Warmup Temperature Difference {deltaC},Std Dev Warmup Temperature Difference {deltaC},Max Temperature Pass/Fail Convergence,Min Temperature Pass/Fail Convergence,Average Warmup Load Difference {W},Std Dev Warmup Load Difference {W},Heating Load Pass/Fail Convergence,Cooling Load Pass/Fail Convergence
 Warmup Convergence Information,SP-MUSEUM RESTORATION ROOM-SPACE FUNCTION SYS-2 FLR-4 SCH-A HPLCMT-CORE ZN,RunPeriod: RUN PERIOD 1,7.7868466736E-006,7.9421862187E-006,Pass,Pass,0.1755147671,0.4000928610,Pass,Pass
 Warmup Convergence Information,SP-POST OFFICE SORTING AREA-SPACE FUNCTION SYS-6 FLR-4 SCH-A HPLCMT-EAST ZN,RunPeriod: RUN PERIOD 1,1.9610481638E-004,3.5277073129E-004,Pass,Pass,0.3451278433,1.5101990188,Pass,Pass
 Warmup Convergence Information,SP-RELIGIOUS BUILDING FELLOWSHIP HALL-SPACE FUNCTION SYS-3 FLR-4 SCH-C HPLCMT-NORTH ZN,RunPeriod: RUN PERIOD 1,5.5588525184E-002,0.2386576064,Pass,Pass,0.2892591459,1.5242633454,Pass,Pass
 Warmup Convergence Information,SP-RELIGIOUS BUILDING WORSHIP/PULPIT/CHOIR AREA-SPACE FUNCTION SYS-3 FLR-3 SCH-I HPLCMT-NORTH ZN,RunPeriod: RUN PERIOD 1,3.0675942941E-002,0.1655744897,Pass,Pass,0.1004266542,0.4563684203,Fail,Pass
 Warmup Convergence Information,SP-RETAIL FACILITY DRESSING/FITTING ROOM-SPACE FUNCTION SYS-6 FLR-3 SCH-C HPLCMT-WEST ZN,RunPeriod: RUN PERIOD 1,9.3126479012E-002,0.2072328352,Pass,Pass,0.6869112948,1.7587803600,Fail,Fail
 Warmup Convergence Information,SP-RETAIL FACILITY MALL CONCOURSE-SPACE FUNCTION SYS-6 FLR-4 SCH-C HPLCMT-WEST ZN,RunPeriod: RUN PERIOD 1,5.5794052312E-002,0.2276039627,Pass,Pass,0.5458685739,1.7382245523,Fail,Pass
 Warmup Convergence Information,SP-SPACE DESIGNED TO ANSI/IES RP-28 CHAPEL (USED PRIMARILY BY RESIDENTS)-SPACE FUNCTION SYS-3 FLR-1 SCH-I HPLCMT-WEST ZN,RunPeriod: RUN PERIOD 1,2.2146175135E-002,9.2419051677E-002,Pass,Pass,2.5336627520E-002,0.1366213015,Pass,Pass
 Warmup Convergence Information,SP-SPACE DESIGNED TO ANSI/IES RP-28 RECREATION ROOM (USED PRIMARILY BY RESIDENTS)-SPACE FUNCTION SYS-3 FLR-2 SCH-B HPLCMT-WEST ZN,RunPeriod: RUN PERIOD 1,5.4474684019E-002,0.1977724480,Pass,Pass,3.2662126558E-002,0.1682654777,Pass,Pass
 Warmup Convergence Information,SP-SPORTS ARENA PLAYING AREA CLASS I FACILITY(4)-SPACE FUNCTION SYS-6 FLR-1 SCH-B HPLCMT-NORTH ZN,RunPeriod: RUN PERIOD 1,0.4407926241,0.3813310365,Pass,Pass,0.8081088904,2.2346510527,Pass,Fail
 Warmup Convergence Information,SP-SPORTS ARENA PLAYING AREA CLASS II FACILITY(4)-SPACE FUNCTION SYS-6 FLR-1 SCH-B HPLCMT-SOUTH ZN,RunPeriod: RUN PERIOD 1,0.3979201101,0.3240442018,Pass,Pass,0.7549859650,1.9392543038,Fail,Fail
 Warmup Convergence Information,SP-SPORTS ARENA PLAYING AREA CLASS III FACILITY(4)-SPACE FUNCTION SYS-6 FLR-1 SCH-B HPLCMT-EAST ZN,RunPeriod: RUN PERIOD 1,0.3233390033,0.2832470986,Pass,Pass,0.5958770094,1.0954587028,Pass,Fail
 Warmup Convergence Information,SP-SPORTS ARENA PLAYING AREA CLASS IV FACILITY(4)-SPACE FUNCTION SYS-6 FLR-3 SCH-B HPLCMT-CORE ZN,RunPeriod: RUN PERIOD 1,0.1446042714,0.1485861292,Pass,Pass,0.6275298985,1.3272029030,Fail,Fail
 Warmup Convergence Information,SP-TRANSPORTATION FACILITY AIRPORT CONCOURSE-SPACE FUNCTION SYS-6 FLR-3 SCH-H HPLCMT-EAST ZN,RunPeriod: RUN PERIOD 1,6.0960153648E-002,0.2051141993,Pass,Pass,0.3965439385,1.6922956333,Fail,Fail
 Warmup Convergence Information,SP-TRANSPORTATION FACILITY BAGGAGE/CAROUSEL AREA-SPACE FUNCTION SYS-6 FLR-1 SCH-H HPLCMT-CORE ZN,RunPeriod: RUN PERIOD 1,0.1910350301,0.1518449844,Pass,Pass,0.6806961390,1.8807626277,Fail,Fail
 Warmup Convergence Information,SP-TRANSPORTATION FACILITY TERMINAL TICKET COUNTER-SPACE FUNCTION SYS-6 FLR-3 SCH-H HPLCMT-SOUTH ZN,RunPeriod: RUN PERIOD 1,0.1252034352,0.1193616919,Fail,Pass,0.4214268899,1.0125913028,Pass,Fail
 Warmup Convergence Information,SP-WAREHOUSE STORAGE AREA MEDIUM TO BULKY PALLETIZED ITEMS-SPACE FUNCTION SYS-4 FLR-2 SCH-A HPLCMT-CORE ZN,RunPeriod: RUN PERIOD 1,5.3271881042E-003,3.4720596114E-003,Pass,Pass,0.0000000000,0.0000000000,Pass,Pass
 Warmup Convergence Information,SP-WAREHOUSE STORAGE AREA SMALL HAND-CARRIED ITEMS(4)-SPACE FUNCTION SYS-4 FLR-2 SCH-A HPLCMT-NORTH ZN,RunPeriod: RUN PERIOD 1,1.0867753433E-002,7.5556761388E-003,Pass,Pass,0.0000000000,0.0000000000,Pass,Pass
 Warmup Convergence Information,SP-WHOLEBUILDING-AUTOMOTIVE FACILITY 1 SYS-4 FLR-4 SCH-E HPLCMT-SOUTH ZN,RunPeriod: RUN PERIOD 1,7.8906899312E-002,0.1338922675,Pass,Pass,4.6518408301E-002,0.1414053024,Pass,Pass
 Warmup Convergence Information,SP-WHOLEBUILDING-AUTOMOTIVE FACILITY 2 SYS-4 FLR-2 SCH-E HPLCMT-SOUTH ZN,RunPeriod: RUN PERIOD 1,3.3310470102E-002,4.2354264147E-002,Pass,Pass,0.0000000000,0.0000000000,Pass,Pass
 Warmup Convergence Information,SP-WHOLEBUILDING-AUTOMOTIVE FACILITY SYS-4 FLR-2 SCH-E HPLCMT-EAST ZN,RunPeriod: RUN PERIOD 1,1.0036249922E-002,1.0554107148E-002,Pass,Pass,0.0000000000,0.0000000000,Pass,Pass
! <Program Control Information:Threads/Parallel Sims>, Threading Supported,Maximum Number of Threads, Env Set Threads (OMP_NUM_THREADS), EP Env Set Threads (EP_OMP_NUM_THREADS), IDF Set Threads, Number of Threads Used (Interior Radiant Exchange), Number Nominal Surfaces, Number Parallel Sims
Program Control:Threads/Parallel Sims, No,1, N/A, N/A, N/A, N/A, N/A, N/A
End of Data
