Program Version,EnergyPlus, Version 8.9.0-eba93e8e1b, YMD=2019.04.04 18:00,
   ************* Beginning Zone Sizing Calculations
   ** Warning ** ProcessScheduleInput: Schedule:Day:Interval="ECONOMIZER MAX OA FRACTION 100 PCT DEFAULT", Blank Schedule Type Limits Name input -- will not be validated.
   ** Warning ** ProcessScheduleInput: Schedule:Day:Interval="SCHEDULE DAY 1", Blank Schedule Type Limits Name input -- will not be validated.
   ** Warning ** ProcessScheduleInput: Schedule:Day:Interval="SCHEDULE DAY 10", Blank Schedule Type Limits Name input -- will not be validated.
   ** Warning ** ProcessScheduleInput: Schedule:Day:Interval="SCHEDULE DAY 11", Blank Schedule Type Limits Name input -- will not be validated.
   ** Warning ** ProcessScheduleInput: Schedule:Day:Interval="SCHEDULE DAY 12", Blank Schedule Type Limits Name input -- will not be validated.
   ** Warning ** ProcessScheduleInput: Schedule:Day:Interval="SCHEDULE DAY 13", Blank Schedule Type Limits Name input -- will not be validated.
   ** Warning ** ProcessScheduleInput: Schedule:Day:Interval="SCHEDULE DAY 14", Blank Schedule Type Limits Name input -- will not be validated.
   ** Warning ** ProcessScheduleInput: Schedule:Day:Interval="SCHEDULE DAY 15", Blank Schedule Type Limits Name input -- will not be validated.
   ** Warning ** ProcessScheduleInput: Schedule:Day:Interval="SCHEDULE DAY 16", Blank Schedule Type Limits Name input -- will not be validated.
   ** Warning ** ProcessScheduleInput: Schedule:Day:Interval="SCHEDULE DAY 17", Blank Schedule Type Limits Name input -- will not be validated.
   ** Warning ** ProcessScheduleInput: Schedule:Day:Interval="SCHEDULE DAY 18", Blank Schedule Type Limits Name input -- will not be validated.
   ** Warning ** ProcessScheduleInput: Schedule:Day:Interval="SCHEDULE DAY 19", Blank Schedule Type Limits Name input -- will not be validated.
   ** Warning ** ProcessScheduleInput: Schedule:Day:Interval="SCHEDULE DAY 2", Blank Schedule Type Limits Name input -- will not be validated.
   ** Warning ** ProcessScheduleInput: Schedule:Day:Interval="SCHEDULE DAY 20", Blank Schedule Type Limits Name input -- will not be validated.
   ** Warning ** ProcessScheduleInput: Schedule:Day:Interval="SCHEDULE DAY 21", Blank Schedule Type Limits Name input -- will not be validated.
   ** Warning ** ProcessScheduleInput: Schedule:Day:Interval="SCHEDULE DAY 22", Blank Schedule Type Limits Name input -- will not be validated.
   ** Warning ** ProcessScheduleInput: Schedule:Day:Interval="SCHEDULE DAY 23", Blank Schedule Type Limits Name input -- will not be validated.
   ** Warning ** ProcessScheduleInput: Schedule:Day:Interval="SCHEDULE DAY 24", Blank Schedule Type Limits Name input -- will not be validated.
   ** Warning ** ProcessScheduleInput: Schedule:Day:Interval="SCHEDULE DAY 25", Blank Schedule Type Limits Name input -- will not be validated.
   ** Warning ** ProcessScheduleInput: Schedule:Day:Interval="SCHEDULE DAY 26", Blank Schedule Type Limits Name input -- will not be validated.
   ** Warning ** ProcessScheduleInput: Schedule:Day:Interval="SCHEDULE DAY 27", Blank Schedule Type Limits Name input -- will not be validated.
   ** Warning ** ProcessScheduleInput: Schedule:Day:Interval="SCHEDULE DAY 28", Blank Schedule Type Limits Name input -- will not be validated.
   ** Warning ** ProcessScheduleInput: Schedule:Day:Interval="SCHEDULE DAY 29", Blank Schedule Type Limits Name input -- will not be validated.
   ** Warning ** ProcessScheduleInput: Schedule:Day:Interval="SCHEDULE DAY 5", Blank Schedule Type Limits Name input -- will not be validated.
   ** Warning ** ProcessScheduleInput: Schedule:Day:Interval="SCHEDULE DAY 6", Blank Schedule Type Limits Name input -- will not be validated.
   ** Warning ** ProcessScheduleInput: Schedule:Day:Interval="SCHEDULE DAY 7", Blank Schedule Type Limits Name input -- will not be validated.
   ** Warning ** ProcessScheduleInput: Schedule:Day:Interval="SCHEDULE DAY 8", Blank Schedule Type Limits Name input -- will not be validated.
   ** Warning ** ProcessScheduleInput: Schedule:Day:Interval="SCHEDULE DAY 9", Blank Schedule Type Limits Name input -- will not be validated.
   ** Warning ** ProcessScheduleInput: Schedule:Year="ECONOMIZER MAX OA FRACTION 100 PCT", Blank Schedule Type Limits Name input -- will not be validated.
   ** Warning ** ProcessScheduleInput: Schedule:Year="SCHEDULE RULESET 10", Blank Schedule Type Limits Name input -- will not be validated.
   ** Warning ** ProcessScheduleInput: Schedule:Year="SCHEDULE RULESET 11", Blank Schedule Type Limits Name input -- will not be validated.
   ** Warning ** ProcessScheduleInput: Schedule:Year="SCHEDULE RULESET 12", Blank Schedule Type Limits Name input -- will not be validated.
   ** Warning ** ProcessScheduleInput: Schedule:Year="SCHEDULE RULESET 13", Blank Schedule Type Limits Name input -- will not be validated.
   ** Warning ** ProcessScheduleInput: Schedule:Year="SCHEDULE RULESET 14", Blank Schedule Type Limits Name input -- will not be validated.
   ** Warning ** ProcessScheduleInput: Schedule:Year="SCHEDULE RULESET 15", Blank Schedule Type Limits Name input -- will not be validated.
   ** Warning ** ProcessScheduleInput: Schedule:Year="SCHEDULE RULESET 16", Blank Schedule Type Limits Name input -- will not be validated.
   ** Warning ** ProcessScheduleInput: Schedule:Year="SCHEDULE RULESET 17", Blank Schedule Type Limits Name input -- will not be validated.
   ** Warning ** ProcessScheduleInput: Schedule:Year="SCHEDULE RULESET 3", Blank Schedule Type Limits Name input -- will not be validated.
   ** Warning ** ProcessScheduleInput: Schedule:Year="SCHEDULE RULESET 4", Blank Schedule Type Limits Name input -- will not be validated.
   ** Warning ** ProcessScheduleInput: Schedule:Year="SCHEDULE RULESET 5", Blank Schedule Type Limits Name input -- will not be validated.
   ** Warning ** ProcessScheduleInput: Schedule:Year="SCHEDULE RULESET 6", Blank Schedule Type Limits Name input -- will not be validated.
   ** Warning ** ProcessScheduleInput: Schedule:Year="SCHEDULE RULESET 7", Blank Schedule Type Limits Name input -- will not be validated.
   ** Warning ** ProcessScheduleInput: Schedule:Year="SCHEDULE RULESET 8", Blank Schedule Type Limits Name input -- will not be validated.
   ** Warning ** ProcessScheduleInput: Schedule:Year="SCHEDULE RULESET 9", Blank Schedule Type Limits Name input -- will not be validated.
   ** Warning ** ProcessScheduleInput: Schedule:Constant="ALWAYS OFF DISCRETE", Blank Schedule Type Limits Name input -- will not be validated.
   ** Warning ** ProcessScheduleInput: Schedule:Constant="ALWAYS ON CONTINUOUS", Blank Schedule Type Limits Name input -- will not be validated.
   ** Warning ** CheckUsedConstructions: There are 32 nominally unused constructions in input.
   **   ~~~   ** For explicit details on each unused construction, use Output:Diagnostics,DisplayExtraWarnings;
   ** Warning ** GetInternalHeatGains: People Combination of ZoneList and Object Name generate a name too long.
   **   ~~~   ** Object Name="SPACE FUNCTION AUDIENCE SEATING AREA PERMANENT - AUDITORIUM PEOPLE".
   **   ~~~   ** ZoneList/Zone Name="SP-AUDIENCE SEATING AREA PERMANENT - AUDITORIUM-SPACE FUNCTION SYS-3 FLR-1 SCH-C HPLCMT-CORE ZN".
   **   ~~~   ** Item length=[161] > Maximum Length=[100]. You may need to shorten the names.
   **   ~~~   ** Shortening the Object Name by [62] characters will assure uniqueness for this ZoneList.
   **   ~~~   ** name that will be used (may be needed in reporting)="SP-AUDIENCE SEATING AREA PERMANENT - AUDITORIUM-SPACE FUNCTION SYS-3 FLR-1 SCH-C HPLCMT-CORE ZN SPACE FUNCTION AUDIENCE SEATING AREA PERMANENT - AUDITORIUM PEOPLE".
   ** Warning ** GetInternalHeatGains: People Combination of ZoneList and Object Name generate a name too long.
   **   ~~~   ** Object Name="SPACE FUNCTION AUDIENCE SEATING AREA PERMANENT - CONVENTION CENTRE PEOPLE".
   **   ~~~   ** ZoneList/Zone Name="SP-AUDIENCE SEATING AREA PERMANENT - CONVENTION CENTRE-SPACE FUNCTION SYS-3 FLR-1 SCH-C HPLCMT-SOUTH ZN".
   **   ~~~   ** Item length=[176] > Maximum Length=[100]. You may need to shorten the names.
   **   ~~~   ** Shortening the Object Name by [77] characters will assure uniqueness for this ZoneList.
   **   ~~~   ** name that will be used (may be needed in reporting)="SP-AUDIENCE SEATING AREA PERMANENT - CONVENTION CENTRE-SPACE FUNCTION SYS-3 FLR-1 SCH-C HPLCMT-SOUTH ZN SPACE FUNCTION AUDIENCE SEATING AREA PERMANENT - CONVENTION CENTRE PEOPLE".
   ** Warning ** GetInternalHeatGains: People Combination of ZoneList and Object Name generate a name too long.
   **   ~~~   ** Object Name="SPACE FUNCTION AUDIENCE SEATING AREA PERMANENT - GYMNASIUM PEOPLE".
   **   ~~~   ** ZoneList/Zone Name="SP-AUDIENCE SEATING AREA PERMANENT - GYMNASIUM-SPACE FUNCTION SYS-3 FLR-1 SCH-B HPLCMT-EAST ZN".
   **   ~~~   ** Item length=[159] > Maximum Length=[100]. You may need to shorten the names.
   **   ~~~   ** Shortening the Object Name by [60] characters will assure uniqueness for this ZoneList.
   **   ~~~   ** name that will be used (may be needed in reporting)="SP-AUDIENCE SEATING AREA PERMANENT - GYMNASIUM-SPACE FUNCTION SYS-3 FLR-1 SCH-B HPLCMT-EAST ZN SPACE FUNCTION AUDIENCE SEATING AREA PERMANENT - GYMNASIUM PEOPLE".
   ** Warning ** GetInternalHeatGains: People Combination of ZoneList and Object Name generate a name too long.
   **   ~~~   ** Object Name="SPACE FUNCTION AUDIENCE SEATING AREA PERMANENT - MOTION PICTURE THEATRE PEOPLE".
   **   ~~~   ** ZoneList/Zone Name="SP-AUDIENCE SEATING AREA PERMANENT - MOTION PICTURE THEATRE-SPACE FUNCTION SYS-3 FLR-1 SCH-C HPLCMT-NORTH ZN".
   **   ~~~   ** Item length=[186] > Maximum Length=[100]. You may need to shorten the names.
   **   ~~~   ** Shortening the Object Name by [87] characters will assure uniqueness for this ZoneList.
   **   ~~~   ** name that will be used (may be needed in reporting)="SP-AUDIENCE SEATING AREA PERMANENT - MOTION PICTURE THEATRE-SPACE FUNCTION SYS-3 FLR-1 SCH-C HPLCMT-NORTH ZN SPACE FUNCTION AUDIENCE SEATING AREA PERMANENT - MOTION PICTURE THEATRE PEOPLE".
   ** Warning ** GetInternalHeatGains: People Combination of ZoneList and Object Name generate a name too long.
   **   ~~~   ** Object Name="SPACE FUNCTION AUDIENCE SEATING AREA PERMANENT - PENITENTIARY PEOPLE".
   **   ~~~   ** ZoneList/Zone Name="SP-AUDIENCE SEATING AREA PERMANENT - PENITENTIARY-SPACE FUNCTION SYS-3 FLR-1 SCH-C HPLCMT-WEST ZN".
   **   ~~~   ** Item length=[165] > Maximum Length=[100]. You may need to shorten the names.
   **   ~~~   ** Shortening the Object Name by [66] characters will assure uniqueness for this ZoneList.
   **   ~~~   ** name that will be used (may be needed in reporting)="SP-AUDIENCE SEATING AREA PERMANENT - PENITENTIARY-SPACE FUNCTION SYS-3 FLR-1 SCH-C HPLCMT-WEST ZN SPACE FUNCTION AUDIENCE SEATING AREA PERMANENT - PENITENTIARY PEOPLE".
   ** Warning ** GetInternalHeatGains: Lights Combination of ZoneList and Object Name generate a name too long.
   **   ~~~   ** Object Name="SPACE FUNCTION AUDIENCE SEATING AREA PERMANENT - AUDITORIUM LIGHTS".
   **   ~~~   ** ZoneList/Zone Name="SP-AUDIENCE SEATING AREA PERMANENT - AUDITORIUM-SPACE FUNCTION SYS-3 FLR-1 SCH-C HPLCMT-CORE ZN".
   **   ~~~   ** Item length=[161] > Maximum Length=[100]. You may need to shorten the names.
   **   ~~~   ** Shortening the Object Name by [62] characters will assure uniqueness for this ZoneList.
   **   ~~~   ** name that will be used (may be needed in reporting)="SP-AUDIENCE SEATING AREA PERMANENT - AUDITORIUM-SPACE FUNCTION SYS-3 FLR-1 SCH-C HPLCMT-CORE ZN SPACE FUNCTION AUDIENCE SEATING AREA PERMANENT - AUDITORIUM LIGHTS".
   ** Warning ** GetInternalHeatGains: Lights Combination of ZoneList and Object Name generate a name too long.
   **   ~~~   ** Object Name="SPACE FUNCTION AUDIENCE SEATING AREA PERMANENT - CONVENTION CENTRE LIGHTS".
   **   ~~~   ** ZoneList/Zone Name="SP-AUDIENCE SEATING AREA PERMANENT - CONVENTION CENTRE-SPACE FUNCTION SYS-3 FLR-1 SCH-C HPLCMT-SOUTH ZN".
   **   ~~~   ** Item length=[176] > Maximum Length=[100]. You may need to shorten the names.
   **   ~~~   ** Shortening the Object Name by [77] characters will assure uniqueness for this ZoneList.
   **   ~~~   ** name that will be used (may be needed in reporting)="SP-AUDIENCE SEATING AREA PERMANENT - CONVENTION CENTRE-SPACE FUNCTION SYS-3 FLR-1 SCH-C HPLCMT-SOUTH ZN SPACE FUNCTION AUDIENCE SEATING AREA PERMANENT - CONVENTION CENTRE LIGHTS".
   ** Warning ** GetInternalHeatGains: Lights Combination of ZoneList and Object Name generate a name too long.
   **   ~~~   ** Object Name="SPACE FUNCTION AUDIENCE SEATING AREA PERMANENT - GYMNASIUM LIGHTS".
   **   ~~~   ** ZoneList/Zone Name="SP-AUDIENCE SEATING AREA PERMANENT - GYMNASIUM-SPACE FUNCTION SYS-3 FLR-1 SCH-B HPLCMT-EAST ZN".
   **   ~~~   ** Item length=[159] > Maximum Length=[100]. You may need to shorten the names.
   **   ~~~   ** Shortening the Object Name by [60] characters will assure uniqueness for this ZoneList.
   **   ~~~   ** name that will be used (may be needed in reporting)="SP-AUDIENCE SEATING AREA PERMANENT - GYMNASIUM-SPACE FUNCTION SYS-3 FLR-1 SCH-B HPLCMT-EAST ZN SPACE FUNCTION AUDIENCE SEATING AREA PERMANENT - GYMNASIUM LIGHTS".
   ** Warning ** GetInternalHeatGains: Lights Combination of ZoneList and Object Name generate a name too long.
   **   ~~~   ** Object Name="SPACE FUNCTION AUDIENCE SEATING AREA PERMANENT - MOTION PICTURE THEATRE LIGHTS".
   **   ~~~   ** ZoneList/Zone Name="SP-AUDIENCE SEATING AREA PERMANENT - MOTION PICTURE THEATRE-SPACE FUNCTION SYS-3 FLR-1 SCH-C HPLCMT-NORTH ZN".
   **   ~~~   ** Item length=[186] > Maximum Length=[100]. You may need to shorten the names.
   **   ~~~   ** Shortening the Object Name by [87] characters will assure uniqueness for this ZoneList.
   **   ~~~   ** name that will be used (may be needed in reporting)="SP-AUDIENCE SEATING AREA PERMANENT - MOTION PICTURE THEATRE-SPACE FUNCTION SYS-3 FLR-1 SCH-C HPLCMT-NORTH ZN SPACE FUNCTION AUDIENCE SEATING AREA PERMANENT - MOTION PICTURE THEATRE LIGHTS".
   ** Warning ** GetInternalHeatGains: Lights Combination of ZoneList and Object Name generate a name too long.
   **   ~~~   ** Object Name="SPACE FUNCTION AUDIENCE SEATING AREA PERMANENT - PENITENTIARY LIGHTS".
   **   ~~~   ** ZoneList/Zone Name="SP-AUDIENCE SEATING AREA PERMANENT - PENITENTIARY-SPACE FUNCTION SYS-3 FLR-1 SCH-C HPLCMT-WEST ZN".
   **   ~~~   ** Item length=[165] > Maximum Length=[100]. You may need to shorten the names.
   **   ~~~   ** Shortening the Object Name by [66] characters will assure uniqueness for this ZoneList.
   **   ~~~   ** name that will be used (may be needed in reporting)="SP-AUDIENCE SEATING AREA PERMANENT - PENITENTIARY-SPACE FUNCTION SYS-3 FLR-1 SCH-C HPLCMT-WEST ZN SPACE FUNCTION AUDIENCE SEATING AREA PERMANENT - PENITENTIARY LIGHTS".
   ** Warning ** GetInternalHeatGains: ElectricEquipment Combination of ZoneList and Object Name generate a name too long.
   **   ~~~   ** Object Name="SPACE FUNCTION AUDIENCE SEATING AREA PERMANENT - AUDITORIUM ELEC EQUIP".
   **   ~~~   ** ZoneList/Zone Name="SP-AUDIENCE SEATING AREA PERMANENT - AUDITORIUM-SPACE FUNCTION SYS-3 FLR-1 SCH-C HPLCMT-CORE ZN".
   **   ~~~   ** Item length=[165] > Maximum Length=[100]. You may need to shorten the names.
   **   ~~~   ** Shortening the Object Name by [66] characters will assure uniqueness for this ZoneList.
   **   ~~~   ** name that will be used (may be needed in reporting)="SP-AUDIENCE SEATING AREA PERMANENT - AUDITORIUM-SPACE FUNCTION SYS-3 FLR-1 SCH-C HPLCMT-CORE ZN SPACE FUNCTION AUDIENCE SEATING AREA PERMANENT - AUDITORIUM ELEC EQUIP".
   ** Warning ** GetInternalHeatGains: ElectricEquipment Combination of ZoneList and Object Name generate a name too long.
   **   ~~~   ** Object Name="SPACE FUNCTION AUDIENCE SEATING AREA PERMANENT - CONVENTION CENTRE ELEC EQUIP".
   **   ~~~   ** ZoneList/Zone Name="SP-AUDIENCE SEATING AREA PERMANENT - CONVENTION CENTRE-SPACE FUNCTION SYS-3 FLR-1 SCH-C HPLCMT-SOUTH ZN".
   **   ~~~   ** Item length=[180] > Maximum Length=[100]. You may need to shorten the names.
   **   ~~~   ** Shortening the Object Name by [81] characters will assure uniqueness for this ZoneList.
   **   ~~~   ** name that will be used (may be needed in reporting)="SP-AUDIENCE SEATING AREA PERMANENT - CONVENTION CENTRE-SPACE FUNCTION SYS-3 FLR-1 SCH-C HPLCMT-SOUTH ZN SPACE FUNCTION AUDIENCE SEATING AREA PERMANENT - CONVENTION CENTRE ELEC EQUIP".
   ** Warning ** GetInternalHeatGains: ElectricEquipment Combination of ZoneList and Object Name generate a name too long.
   **   ~~~   ** Object Name="SPACE FUNCTION AUDIENCE SEATING AREA PERMANENT - MOTION PICTURE THEATRE ELEC EQUIP".
   **   ~~~   ** ZoneList/Zone Name="SP-AUDIENCE SEATING AREA PERMANENT - MOTION PICTURE THEATRE-SPACE FUNCTION SYS-3 FLR-1 SCH-C HPLCMT-NORTH ZN".
   **   ~~~   ** Item length=[190] > Maximum Length=[100]. You may need to shorten the names.
   **   ~~~   ** Shortening the Object Name by [91] characters will assure uniqueness for this ZoneList.
   **   ~~~   ** name that will be used (may be needed in reporting)="SP-AUDIENCE SEATING AREA PERMANENT - MOTION PICTURE THEATRE-SPACE FUNCTION SYS-3 FLR-1 SCH-C HPLCMT-NORTH ZN SPACE FUNCTION AUDIENCE SEATING AREA PERMANENT - MOTION PICTURE THEATRE ELEC EQUIP".
   ** Warning ** GetInternalHeatGains: ElectricEquipment Combination of ZoneList and Object Name generate a name too long.
   **   ~~~   ** Object Name="SPACE FUNCTION AUDIENCE SEATING AREA PERMANENT - PENITENTIARY ELEC EQUIP".
   **   ~~~   ** ZoneList/Zone Name="SP-AUDIENCE SEATING AREA PERMANENT - PENITENTIARY-SPACE FUNCTION SYS-3 FLR-1 SCH-C HPLCMT-WEST ZN".
   **   ~~~   ** Item length=[169] > Maximum Length=[100]. You may need to shorten the names.
   **   ~~~   ** Shortening the Object Name by [70] characters will assure uniqueness for this ZoneList.
   **   ~~~   ** name that will be used (may be needed in reporting)="SP-AUDIENCE SEATING AREA PERMANENT - PENITENTIARY-SPACE FUNCTION SYS-3 FLR-1 SCH-C HPLCMT-WEST ZN SPACE FUNCTION AUDIENCE SEATING AREA PERMANENT - PENITENTIARY ELEC EQUIP".
   ************* Beginning System Sizing Calculations
   ************* Beginning Plant Sizing Calculations
   ** Warning ** GetDXCoils: Coil:Cooling:DX:SingleSpeed="COIL COOLING DX SINGLE SPEED 4 597KBTU/HR 8.21EER", invalid
   **   ~~~   ** ...Part Load Fraction Correlation Curve Name = DXCOOL-NECB2011-REF-COOLPLFFPLR has out of range value.
   **   ~~~   ** ...Curve maximum must be <= 1.0, curve max at PLR = 0.99 is 1.015
   **   ~~~   ** ...Setting curve maximum to 1.0 and simulation continues.
   ** Warning ** The Standard Ratings is calculated for Coil:Cooling:DX:SingleSpeed = COIL COOLING DX SINGLE SPEED 4 597KBTU/HR 8.21EER but not at the AHRI test condition due to curve out of bound.
   **   ~~~   **  Review the Standard Ratings calculations in the Engineering Reference for this coil type. Also, use Output:Diagnostics, DisplayExtraWarnings for further guidance.
   ** Warning ** The Standard Ratings is calculated for Coil:Cooling:DX:SingleSpeed = COIL COOLING DX SINGLE SPEED 3 448KBTU/HR 8.21EER but not at the AHRI test condition due to curve out of bound.
   **   ~~~   **  Review the Standard Ratings calculations in the Engineering Reference for this coil type. Also, use Output:Diagnostics, DisplayExtraWarnings for further guidance.
   ** Warning ** The Standard Ratings is calculated for Coil:Cooling:DX:SingleSpeed = COIL COOLING DX SINGLE SPEED 5 479KBTU/HR 8.21EER but not at the AHRI test condition due to curve out of bound.
   **   ~~~   **  Review the Standard Ratings calculations in the Engineering Reference for this coil type. Also, use Output:Diagnostics, DisplayExtraWarnings for further guidance.
   ** Warning ** The Standard Ratings is calculated for Coil:Cooling:DX:SingleSpeed = COIL COOLING DX SINGLE SPEED 1 448KBTU/HR 8.21EER but not at the AHRI test condition due to curve out of bound.
   **   ~~~   **  Review the Standard Ratings calculations in the Engineering Reference for this coil type. Also, use Output:Diagnostics, DisplayExtraWarnings for further guidance.
   ** Warning ** The Standard Ratings is calculated for Coil:Cooling:DX:SingleSpeed = COIL COOLING DX SINGLE SPEED 2 227KBTU/HR 9.08EER but not at the AHRI test condition due to curve out of bound.
   **   ~~~   **  Review the Standard Ratings calculations in the Engineering Reference for this coil type. Also, use Output:Diagnostics, DisplayExtraWarnings for further guidance.
   ** Warning ** Output:Meter: invalid Key Name="DISTRICTCOOLING:FACILITY" - not found.
   ** Warning ** Output:Meter: invalid Key Name="DISTRICTHEATING:FACILITY" - not found.
   ** Warning ** Output:Meter:MeterFileOnly requested for "Electricity:Facility" (TimeStep), already on "Output:Meter". Will report to both eplusout.eso and eplusout.mtr
   ************* Testing Individual Branch Integrity
   ************* All Branches passed integrity testing
   ************* Testing Individual Supply Air Path Integrity
   ************* All Supply Air Paths passed integrity testing
   ************* Testing Individual Return Air Path Integrity
   ************* All Return Air Paths passed integrity testing
   ************* No node connection errors were found.
   ************* Beginning Simulation
   ** Warning ** Processing Monthly Tabular Reports: Variable names not valid for this simulation
   **   ~~~   ** ...use Output:Diagnostics,DisplayExtraWarnings; to show more details on individual variables.
   ** Warning ** HeatExchanger:AirToAir:SensibleAndLatent "SYS_3_PSZ SP-AUDIENCE SEATING AREA PERMANENT - GYMNASIUM-SPACE FUNCTION SYS-3 FLR-1 SCH-B HPLCMT-EAST ZN ERV"
   **   ~~~   ** Average air volume flow rate is <50% or >130% of the nominal HX supply air volume flow rate.
   **   ~~~   ** Air volume flow rate ratio = 6.143E-003. Environment=RUN PERIOD 1, at Simulation time=01/01 10:00 - 10:10
   ** Warning ** HeatExchanger:AirToAir:SensibleAndLatent "SYS_3_PSZ SP-AUDIENCE SEATING AREA PERMANENT - AUDITORIUM-SPACE FUNCTION SYS-3 FLR-1 SCH-C HPLCMT-CORE ZN ERV"
   **   ~~~   ** Average air volume flow rate is <50% or >130% of the nominal HX supply air volume flow rate.
   **   ~~~   ** Air volume flow rate ratio = 9.840E-002. Environment=RUN PERIOD 1, at Simulation time=01/02 08:03 - 08:07
   ** Warning ** HeatExchanger:AirToAir:SensibleAndLatent "SYS_3_PSZ SP-AUDIENCE SEATING AREA PERMANENT - CONVENTION CENTRE-SPACE FUNCTION SYS-3 FLR-1 SCH-C HPLCMT-SOUTH ZN ERV"
   **   ~~~   ** Average air volume flow rate is <50% or >130% of the nominal HX supply air volume flow rate.
   **   ~~~   ** Air volume flow rate ratio = 9.957E-002. Environment=RUN PERIOD 1, at Simulation time=01/02 08:03 - 08:07
   ** Warning ** HeatExchanger:AirToAir:SensibleAndLatent "SYS_3_PSZ SP-AUDIENCE SEATING AREA PERMANENT - MOTION PICTURE THEATRE-SPACE FUNCTION SYS-3 FLR-1 SCH-C HPLCMT-NORTH ZN ERV"
   **   ~~~   ** Average air volume flow rate is <50% or >130% of the nominal HX supply air volume flow rate.
   **   ~~~   ** Air volume flow rate ratio = 8.950E-002. Environment=RUN PERIOD 1, at Simulation time=01/02 08:03 - 08:07
   ** Warning ** HeatExchanger:AirToAir:SensibleAndLatent "SYS_3_PSZ SP-AUDIENCE SEATING AREA PERMANENT - PENITENTIARY-SPACE FUNCTION SYS-3 FLR-1 SCH-C HPLCMT-WEST ZN ERV"
   **   ~~~   ** Average air volume flow rate is <50% or >130% of the nominal HX supply air volume flow rate.
   **   ~~~   ** Air volume flow rate ratio = 9.464E-002. Environment=RUN PERIOD 1, at Simulation time=01/02 08:03 - 08:07
   ** Warning ** The resource referenced by LifeCycleCost:UsePriceEscalation= "U.S. AVG  COMMERCIAL-ELECTRICITY" has no energy cost. 
   **   ~~~   ** ... It is likely that the wrong resource is used. The resource should match the meter used in Utility:Tariff.
   ** Warning ** The resource referenced by LifeCycleCost:UsePriceEscalation= "U.S. AVG  COMMERCIAL-DISTILLATE OIL" has no energy cost. 
   **   ~~~   ** ... It is likely that the wrong resource is used. The resource should match the meter used in Utility:Tariff.
   ** Warning ** The resource referenced by LifeCycleCost:UsePriceEscalation= "U.S. AVG  COMMERCIAL-RESIDUAL OIL" has no energy cost. 
   **   ~~~   ** ... It is likely that the wrong resource is used. The resource should match the meter used in Utility:Tariff.
   ** Warning ** The resource referenced by LifeCycleCost:UsePriceEscalation= "U.S. AVG  COMMERCIAL-NATURAL GAS" has no energy cost. 
   **   ~~~   ** ... It is likely that the wrong resource is used. The resource should match the meter used in Utility:Tariff.
   ** Warning ** The resource referenced by LifeCycleCost:UsePriceEscalation= "U.S. AVG  COMMERCIAL-COAL" has no energy cost. 
   **   ~~~   ** ... It is likely that the wrong resource is used. The resource should match the meter used in Utility:Tariff.
   ************* Simulation Error Summary *************
   ************* There are 10 unused schedules in input.
   ************* There are 10 unused week schedules in input.
   ************* There are 26 unused day schedules in input.
   ************* Use Output:Diagnostics,DisplayUnusedSchedules; to see them.
   *************
   ************* ===== Recurring Error Summary =====
   ************* The following recurring error messages occurred.
   *************
   *************  ** Warning ** HeatExchanger:AirToAir:SensibleAndLatent "SYS_3_PSZ SP-AUDIENCE SEATING AREA PERMANENT - GYMNASIUM-SPACE FUNCTION SYS-3 FLR-1 SCH-B HPLCMT-EAST ZN ERV":  Average air volume flow rate is <50% or >130% warning continues. Air flow rate ratio statistics follow.
   *************  **   ~~~   **   This error occurred 2768 total times;
   *************  **   ~~~   **   during Warmup 0 times;
   *************  **   ~~~   **   during Sizing 0 times.
   *************  **   ~~~   **   Max=0.470407  Min=4.961106E-004
   *************
   *************  ** Warning ** HeatExchanger:AirToAir:SensibleAndLatent "SYS_3_PSZ SP-AUDIENCE SEATING AREA PERMANENT - AUDITORIUM-SPACE FUNCTION SYS-3 FLR-1 SCH-C HPLCMT-CORE ZN ERV":  Average air volume flow rate is <50% or >130% warning continues. Air flow rate ratio statistics follow.
   *************  **   ~~~   **   This error occurred 1430 total times;
   *************  **   ~~~   **   during Warmup 0 times;
   *************  **   ~~~   **   during Sizing 0 times.
   *************  **   ~~~   **   Max=0.486783  Min=2.326177E-002
   *************
   *************  ** Warning ** HeatExchanger:AirToAir:SensibleAndLatent "SYS_3_PSZ SP-AUDIENCE SEATING AREA PERMANENT - CONVENTION CENTRE-SPACE FUNCTION SYS-3 FLR-1 SCH-C HPLCMT-SOUTH ZN ERV":  Average air volume flow rate is <50% or >130% warning continues. Air flow rate ratio statistics follow.
   *************  **   ~~~   **   This error occurred 1511 total times;
   *************  **   ~~~   **   during Warmup 0 times;
   *************  **   ~~~   **   during Sizing 0 times.
   *************  **   ~~~   **   Max=0.495565  Min=2.230816E-002
   *************
   *************  ** Warning ** HeatExchanger:AirToAir:SensibleAndLatent "SYS_3_PSZ SP-AUDIENCE SEATING AREA PERMANENT - MOTION PICTURE THEATRE-SPACE FUNCTION SYS-3 FLR-1 SCH-C HPLCMT-NORTH ZN ERV":  Average air volume flow rate is <50% or >130% warning continues. Air flow rate ratio statistics follow.
   *************  **   ~~~   **   This error occurred 1775 total times;
   *************  **   ~~~   **   during Warmup 0 times;
   *************  **   ~~~   **   during Sizing 0 times.
   *************  **   ~~~   **   Max=0.447532  Min=2.234755E-002
   *************
   *************  ** Warning ** HeatExchanger:AirToAir:SensibleAndLatent "SYS_3_PSZ SP-AUDIENCE SEATING AREA PERMANENT - PENITENTIARY-SPACE FUNCTION SYS-3 FLR-1 SCH-C HPLCMT-WEST ZN ERV":  Average air volume flow rate is <50% or >130% warning continues. Air flow rate ratio statistics follow.
   *************  **   ~~~   **   This error occurred 1373 total times;
   *************  **   ~~~   **   during Warmup 0 times;
   *************  **   ~~~   **   during Sizing 0 times.
   *************  **   ~~~   **   Max=0.464819  Min=2.308849E-002
   *************
   *************
   ************* ===== Final Error Summary =====
   ************* The following error categories occurred.  Consider correcting or noting.
   ************* Nominally Unused Constructions
   ************* ..The nominally unused constructions warning is provided to alert you to potential conditions that can cause
   ************* ..extra time during simulation. Each construction is calculated by the algorithm indicated in the HeatBalanceAlgorithm
   ************* ..object. You may remove the constructions indicated (when you use the DisplayExtraWarnings option).
   *************
   ************* EnergyPlus Warmup Error Summary. During Warmup: 0 Warning; 0 Severe Errors.
   ************* EnergyPlus Sizing Error Summary. During Sizing: 61 Warning; 0 Severe Errors.
   ************* EnergyPlus Completed Successfully-- 8938 Warning; 0 Severe Errors; Elapsed Time=00hr 00min 20.58sec
